#------------------------------------------------------------------------------
#$Date: 2016-02-13 21:28:24 +0200 (Sat, 13 Feb 2016) $
#$Revision: 176429 $
#$URL: svn://www.crystallography.net/cod/cif/4/34/31/4343129.cif $
#------------------------------------------------------------------------------
#
# This file is available in the Crystallography Open Database (COD),
# http://www.crystallography.net/
#
# All data on this site have been placed in the public domain by the
# contributors.
#
data_4343129
loop_
_publ_author_name
'Murphy, Denissa T.'
'Schmid, Siegbert'
'Hester, James R.'
'Blanchard, Peter E. R.'
'Miiller, Wojciech'
_publ_section_title
;
 Coordination Site Disorder in Spinel-Type LiMnTiO4.
;
_journal_issue                   10
_journal_name_full               'Inorganic chemistry'
_journal_page_first              4636
_journal_page_last               4643
_journal_paper_doi               10.1021/ic502747p
_journal_volume                  54
_journal_year                    2015
_chemical_formula_sum            'Li Mn O4 Ti'
_chemical_formula_weight         173.8
_chemical_name_common            Lithium_manganese_titanate_quenched_900C
_chemical_name_systematic        ' Lithium_manganese_titanate'
_space_group_IT_number           227
_symmetry_cell_setting           cubic
_symmetry_Int_Tables_number      227
_symmetry_space_group_name_Hall  '-F 4vw 2vw 3'
_symmetry_space_group_name_H-M   'F d -3 m :2'
_cell_angle_alpha                90
_cell_angle_beta                 90
_cell_angle_gamma                90
_cell_formula_units_Z            8
_cell_length_a                   8.380858(15)
_cell_length_b                   8.380858(15)
_cell_length_c                   8.380858(15)
_cell_measurement_temperature    293
_cell_volume                     588.6612(18)
_diffrn_ambient_temperature      293
_diffrn_measurement_device_type  powder_diffraction
_diffrn_radiation_probe          neutron
_diffrn_radiation_type           neutron
_diffrn_radiation_wavelength     1.622
_exptl_absorpt_coefficient_mu    0.11
_exptl_crystal_density_diffrn    3.9199
_exptl_crystal_F_000             656
_pd_char_colour                  black
_pd_instr_location               ' ?'
_pd_meas_2theta_range_max        163.950
_pd_meas_2theta_range_min        1.501
_pd_meas_number_of_points        3283
_pd_proc_2theta_range_max        163.95
_pd_proc_2theta_range_min        11.851
_pd_proc_ls_background_function  '9 Legendre polynoms'
_pd_proc_ls_pref_orient_corr     none
_pd_proc_ls_profile_function     Pseudo-Voigt
_pd_proc_ls_prof_R_factor        0.0319
_pd_proc_ls_prof_wR_expected     0.0238
_pd_proc_ls_prof_wR_factor       0.0434
_refine_ls_goodness_of_fit_all   2.14
_refine_ls_number_constraints    0
_refine_ls_number_parameters     36
_refine_ls_number_restraints     0
_refine_ls_R_factor_all          0.0348
_refine_ls_R_factor_gt           0.0343
_refine_ls_shift/su_max          0.0000
_refine_ls_shift/su_mean         0.0000
_refine_ls_weighting_scheme      sigma
_refine_ls_wR_factor_all         0.0670
_refine_ls_wR_factor_gt          0.0670
_cod_data_source_file            ic502747p_si_001.cif
_cod_data_source_block           I
_cod_original_cell_volume        588.6613(18)
_cod_original_sg_symbol_Hall     '-F 4abvw;2abvw;3Fdiffr'
_cod_original_sg_symbol_H-M      'F d -3 m'
_cod_original_formula_sum        'Li1 Mn1 O4 Ti1'
_cod_database_code               4343129
loop_
_symmetry_equiv_pos_site_id
_symmetry_equiv_pos_as_xyz
1 x,y,z
2 -x+3/4,-y+1/4,z+1/2
3 -x+1/4,y+1/2,-z+3/4
4 x+1/2,-y+3/4,-z+1/4
5 z,x,y
6 z+1/2,-x+3/4,-y+1/4
7 -z+3/4,-x+1/4,y+1/2
8 -z+1/4,x+1/2,-y+3/4
9 y,z,x
10 -y+1/4,z+1/2,-x+3/4
11 y+1/2,-z+3/4,-x+1/4
12 -y+3/4,-z+1/4,x+1/2
13 y+3/4,x+1/4,-z+1/2
14 -y,-x,-z
15 y+1/4,-x+1/2,z+3/4
16 -y+1/2,x+3/4,z+1/4
17 x+3/4,z+1/4,-y+1/2
18 -x+1/2,z+3/4,y+1/4
19 -x,-z,-y
20 x+1/4,-z+1/2,y+3/4
21 z+3/4,y+1/4,-x+1/2
22 z+1/4,-y+1/2,x+3/4
23 -z+1/2,y+3/4,x+1/4
24 -z,-y,-x
25 -x,-y,-z
26 x+1/4,y+3/4,-z+1/2
27 x+3/4,-y+1/2,z+1/4
28 -x+1/2,y+1/4,z+3/4
29 -z,-x,-y
30 -z+1/2,x+1/4,y+3/4
31 z+1/4,x+3/4,-y+1/2
32 z+3/4,-x+1/2,y+1/4
33 -y,-z,-x
34 y+3/4,-z+1/2,x+1/4
35 -y+1/2,z+1/4,x+3/4
36 y+1/4,z+3/4,-x+1/2
37 -y+1/4,-x+3/4,z+1/2
38 y,x,z
39 -y+3/4,x+1/2,-z+1/4
40 y+1/2,-x+1/4,-z+3/4
41 -x+1/4,-z+3/4,y+1/2
42 x+1/2,-z+1/4,-y+3/4
43 x,z,y
44 -x+3/4,z+1/2,-y+1/4
45 -z+1/4,-y+3/4,x+1/2
46 -z+3/4,y+1/2,-x+1/4
47 z+1/2,-y+1/4,-x+3/4
48 z,y,x
49 x,y+1/2,z+1/2
50 -x+3/4,-y+3/4,z
51 -x+1/4,y,-z+1/4
52 x+1/2,-y+1/4,-z+3/4
53 z,x+1/2,y+1/2
54 z+1/2,-x+1/4,-y+3/4
55 -z+3/4,-x+3/4,y
56 -z+1/4,x,-y+1/4
57 y,z+1/2,x+1/2
58 -y+1/4,z,-x+1/4
59 y+1/2,-z+1/4,-x+3/4
60 -y+3/4,-z+3/4,x
61 y+3/4,x+3/4,-z
62 -y,-x+1/2,-z+1/2
63 y+1/4,-x,z+1/4
64 -y+1/2,x+1/4,z+3/4
65 x+3/4,z+3/4,-y
66 -x+1/2,z+1/4,y+3/4
67 -x,-z+1/2,-y+1/2
68 x+1/4,-z,y+1/4
69 z+3/4,y+3/4,-x
70 z+1/4,-y,x+1/4
71 -z+1/2,y+1/4,x+3/4
72 -z,-y+1/2,-x+1/2
73 -x,-y+1/2,-z+1/2
74 x+1/4,y+1/4,-z
75 x+3/4,-y,z+3/4
76 -x+1/2,y+3/4,z+1/4
77 -z,-x+1/2,-y+1/2
78 -z+1/2,x+3/4,y+1/4
79 z+1/4,x+1/4,-y
80 z+3/4,-x,y+3/4
81 -y,-z+1/2,-x+1/2
82 y+3/4,-z,x+3/4
83 -y+1/2,z+3/4,x+1/4
84 y+1/4,z+1/4,-x
85 -y+1/4,-x+1/4,z
86 y,x+1/2,z+1/2
87 -y+3/4,x,-z+3/4
88 y+1/2,-x+3/4,-z+1/4
89 -x+1/4,-z+1/4,y
90 x+1/2,-z+3/4,-y+1/4
91 x,z+1/2,y+1/2
92 -x+3/4,z,-y+3/4
93 -z+1/4,-y+1/4,x
94 -z+3/4,y,-x+3/4
95 z+1/2,-y+3/4,-x+1/4
96 z,y+1/2,x+1/2
97 x+1/2,y,z+1/2
98 -x+1/4,-y+1/4,z
99 -x+3/4,y+1/2,-z+1/4
100 x,-y+3/4,-z+3/4
101 z+1/2,x,y+1/2
102 z,-x+3/4,-y+3/4
103 -z+1/4,-x+1/4,y
104 -z+3/4,x+1/2,-y+1/4
105 y+1/2,z,x+1/2
106 -y+3/4,z+1/2,-x+1/4
107 y,-z+3/4,-x+3/4
108 -y+1/4,-z+1/4,x
109 y+1/4,x+1/4,-z
110 -y+1/2,-x,-z+1/2
111 y+3/4,-x+1/2,z+1/4
112 -y,x+3/4,z+3/4
113 x+1/4,z+1/4,-y
114 -x,z+3/4,y+3/4
115 -x+1/2,-z,-y+1/2
116 x+3/4,-z+1/2,y+1/4
117 z+1/4,y+1/4,-x
118 z+3/4,-y+1/2,x+1/4
119 -z,y+3/4,x+3/4
120 -z+1/2,-y,-x+1/2
121 -x+1/2,-y,-z+1/2
122 x+3/4,y+3/4,-z
123 x+1/4,-y+1/2,z+3/4
124 -x,y+1/4,z+1/4
125 -z+1/2,-x,-y+1/2
126 -z,x+1/4,y+1/4
127 z+3/4,x+3/4,-y
128 z+1/4,-x+1/2,y+3/4
129 -y+1/2,-z,-x+1/2
130 y+1/4,-z+1/2,x+3/4
131 -y,z+1/4,x+1/4
132 y+3/4,z+3/4,-x
133 -y+3/4,-x+3/4,z
134 y+1/2,x,z+1/2
135 -y+1/4,x+1/2,-z+3/4
136 y,-x+1/4,-z+1/4
137 -x+3/4,-z+3/4,y
138 x,-z+1/4,-y+1/4
139 x+1/2,z,y+1/2
140 -x+1/4,z+1/2,-y+3/4
141 -z+3/4,-y+3/4,x
142 -z+1/4,y+1/2,-x+3/4
143 z,-y+1/4,-x+1/4
144 z+1/2,y,x+1/2
145 x+1/2,y+1/2,z
146 -x+1/4,-y+3/4,z+1/2
147 -x+3/4,y,-z+3/4
148 x,-y+1/4,-z+1/4
149 z+1/2,x+1/2,y
150 z,-x+1/4,-y+1/4
151 -z+1/4,-x+3/4,y+1/2
152 -z+3/4,x,-y+3/4
153 y+1/2,z+1/2,x
154 -y+3/4,z,-x+3/4
155 y,-z+1/4,-x+1/4
156 -y+1/4,-z+3/4,x+1/2
157 y+1/4,x+3/4,-z+1/2
158 -y+1/2,-x+1/2,-z
159 y+3/4,-x,z+3/4
160 -y,x+1/4,z+1/4
161 x+1/4,z+3/4,-y+1/2
162 -x,z+1/4,y+1/4
163 -x+1/2,-z+1/2,-y
164 x+3/4,-z,y+3/4
165 z+1/4,y+3/4,-x+1/2
166 z+3/4,-y,x+3/4
167 -z,y+1/4,x+1/4
168 -z+1/2,-y+1/2,-x
169 -x+1/2,-y+1/2,-z
170 x+3/4,y+1/4,-z+1/2
171 x+1/4,-y,z+1/4
172 -x,y+3/4,z+3/4
173 -z+1/2,-x+1/2,-y
174 -z,x+3/4,y+3/4
175 z+3/4,x+1/4,-y+1/2
176 z+1/4,-x,y+1/4
177 -y+1/2,-z+1/2,-x
178 y+1/4,-z,x+1/4
179 -y,z+3/4,x+3/4
180 y+3/4,z+1/4,-x+1/2
181 -y+3/4,-x+1/4,z+1/2
182 y+1/2,x+1/2,z
183 -y+1/4,x,-z+1/4
184 y,-x+3/4,-z+3/4
185 -x+3/4,-z+1/4,y+1/2
186 x,-z+3/4,-y+3/4
187 x+1/2,z+1/2,y
188 -x+1/4,z,-y+1/4
189 -z+3/4,-y+1/4,x+1/2
190 -z+1/4,y,-x+1/4
191 z,-y+3/4,-x+3/4
192 z+1/2,y+1/2,x
loop_
_atom_site_label
_atom_site_type_symbol
_atom_site_fract_x
_atom_site_fract_y
_atom_site_fract_z
_atom_site_adp_type
_atom_site_U_iso_or_equiv
_atom_site_symmetry_multiplicity
_atom_site_occupancy
_atom_site_calc_flag
Li11 Li 0.125 0.125 0.125 Uiso 0.0136 8 0.6751 d
Ti11 Ti 0.125 0.125 0.125 Uiso 0.0136 8 0.297(5) d
Li12 Li 0.5 0.5 0.5 Uiso 0.0137 16 0.1625 d
Ti12 Ti 0.5 0.5 0.5 Uiso 0.0137 16 0.351(3) d
Mn12 Mn 0.5 0.5 0.5 Uiso 0.0137 16 0.486(3) d
O1 O 0.26306(3) 0.26306(3) 0.26306(3) Uiso 0.01494(12) 32 1 d
Mn11 Mn 0.125 0.125 0.125 Uiso 0.0136 8 0.028(5) d
loop_
_atom_type_symbol
_atom_type_scat_length_neutron
_atom_type_scat_source
Li -1.900 International_Tables_Vol_C
Mn -3.730 International_Tables_Vol_C
Ti -3.438 International_Tables_Vol_C
O 5.803 International_Tables_Vol_C
loop_
_geom_angle_atom_site_label_1
_geom_angle_atom_site_label_2
_geom_angle_atom_site_label_3
_geom_angle_site_symmetry_1
_geom_angle_site_symmetry_3
_geom_angle
Ti11 Li11 O1 . . 0
Ti11 Li11 O1 . 98_555 0
Ti11 Li11 O1 . 51_555 0
Ti11 Li11 O1 . 148_555 0
Ti11 Li11 Mn11 . . 0
O1 Li11 O1 . 98_555 109.471(10)
O1 Li11 O1 . 51_555 109.471(10)
O1 Li11 O1 . 148_555 109.471(10)
O1 Li11 Mn11 . . 0
O1 Li11 O1 98_555 51_555 109.471(10)
O1 Li11 O1 98_555 148_555 109.471(10)
O1 Li11 Mn11 98_555 . 0
O1 Li11 O1 51_555 148_555 109.471(10)
O1 Li11 Mn11 51_555 . 0
O1 Li11 Mn11 148_555 . 0
Li11 Ti11 O1 . . 0
Li11 Ti11 O1 . 98_555 0
Li11 Ti11 O1 . 51_555 0
Li11 Ti11 O1 . 148_555 0
Li11 Ti11 Mn11 . . 0
O1 Ti11 O1 . 98_555 109.471(10)
O1 Ti11 O1 . 51_555 109.471(10)
O1 Ti11 O1 . 148_555 109.471(10)
O1 Ti11 Mn11 . . 0
O1 Ti11 O1 98_555 51_555 109.471(10)
O1 Ti11 O1 98_555 148_555 109.471(10)
O1 Ti11 Mn11 98_555 . 0
O1 Ti11 O1 51_555 148_555 109.471(10)
O1 Ti11 Mn11 51_555 . 0
O1 Ti11 Mn11 148_555 . 0
Li12 Li12 Li12 50_555 98_665 180.0(5)
Li12 Li12 Li12 50_555 51_656 120
Li12 Li12 Li12 50_555 147_555 60
Li12 Li12 Li12 50_555 100_555 60
Li12 Li12 Li12 50_555 148_566 120
Li12 Li12 Ti12 50_555 . 0
Li12 Li12 Ti12 50_555 50_555 0.0(5)
Li12 Li12 Ti12 50_555 98_665 180.0(5)
Li12 Li12 Ti12 50_555 51_656 120
Li12 Li12 Ti12 50_555 147_555 60
Li12 Li12 Ti12 50_555 100_555 60
Li12 Li12 Ti12 50_555 148_566 120
Li12 Li12 Mn12 50_555 . 0
Li12 Li12 Mn12 50_555 50_555 0.0(5)
Li12 Li12 Mn12 50_555 98_665 180.0(5)
Li12 Li12 Mn12 50_555 51_656 120
Li12 Li12 Mn12 50_555 147_555 60
Li12 Li12 Mn12 50_555 100_555 60
Li12 Li12 Mn12 50_555 148_566 120
Li12 Li12 O1 50_555 50_555 85.542(7)
Li12 Li12 O1 50_555 147_555 41.941(7)
Li12 Li12 O1 50_555 100_555 41.941(7)
Li12 Li12 O1 50_555 109_556 94.458(7)
Li12 Li12 O1 50_555 63_565 138.059(7)
Li12 Li12 O1 50_555 160_655 138.059(7)
Li12 Li12 Li12 98_665 51_656 60
Li12 Li12 Li12 98_665 147_555 120
Li12 Li12 Li12 98_665 100_555 120
Li12 Li12 Li12 98_665 148_566 60
Li12 Li12 Ti12 98_665 . 0
Li12 Li12 Ti12 98_665 50_555 180.0(5)
Li12 Li12 Ti12 98_665 98_665 0.0(5)
Li12 Li12 Ti12 98_665 51_656 60
Li12 Li12 Ti12 98_665 147_555 120
Li12 Li12 Ti12 98_665 100_555 120
Li12 Li12 Ti12 98_665 148_566 60
Li12 Li12 Mn12 98_665 . 0
Li12 Li12 Mn12 98_665 50_555 180.0(5)
Li12 Li12 Mn12 98_665 98_665 0.0(5)
Li12 Li12 Mn12 98_665 51_656 60
Li12 Li12 Mn12 98_665 147_555 120
Li12 Li12 Mn12 98_665 100_555 120
Li12 Li12 Mn12 98_665 148_566 60
Li12 Li12 O1 98_665 50_555 94.458(7)
Li12 Li12 O1 98_665 147_555 138.059(7)
Li12 Li12 O1 98_665 100_555 138.059(7)
Li12 Li12 O1 98_665 109_556 85.542(7)
Li12 Li12 O1 98_665 63_565 41.941(7)
Li12 Li12 O1 98_665 160_655 41.941(7)
Li12 Li12 Li12 51_656 147_555 180.0(5)
Li12 Li12 Li12 51_656 100_555 120
Li12 Li12 Li12 51_656 148_566 60
Li12 Li12 Ti12 51_656 . 0
Li12 Li12 Ti12 51_656 50_555 120
Li12 Li12 Ti12 51_656 98_665 60
Li12 Li12 Ti12 51_656 51_656 0.0(5)
Li12 Li12 Ti12 51_656 147_555 180.0(5)
Li12 Li12 Ti12 51_656 100_555 120
Li12 Li12 Ti12 51_656 148_566 60
Li12 Li12 Mn12 51_656 . 0
Li12 Li12 Mn12 51_656 50_555 120
Li12 Li12 Mn12 51_656 98_665 60
Li12 Li12 Mn12 51_656 51_656 0.0(5)
Li12 Li12 Mn12 51_656 147_555 180.0(5)
Li12 Li12 Mn12 51_656 100_555 120
Li12 Li12 Mn12 51_656 148_566 60
Li12 Li12 O1 51_656 50_555 138.059(7)
Li12 Li12 O1 51_656 147_555 94.458(7)
Li12 Li12 O1 51_656 100_555 138.059(7)
Li12 Li12 O1 51_656 109_556 41.941(7)
Li12 Li12 O1 51_656 63_565 85.542(7)
Li12 Li12 O1 51_656 160_655 41.941(7)
Li12 Li12 Li12 147_555 100_555 60
Li12 Li12 Li12 147_555 148_566 120
Li12 Li12 Ti12 147_555 . 0
Li12 Li12 Ti12 147_555 50_555 60
Li12 Li12 Ti12 147_555 98_665 120
Li12 Li12 Ti12 147_555 51_656 180.0(5)
Li12 Li12 Ti12 147_555 147_555 0.0(5)
Li12 Li12 Ti12 147_555 100_555 60
Li12 Li12 Ti12 147_555 148_566 120
Li12 Li12 Mn12 147_555 . 0
Li12 Li12 Mn12 147_555 50_555 60
Li12 Li12 Mn12 147_555 98_665 120
Li12 Li12 Mn12 147_555 51_656 180.0(5)
Li12 Li12 Mn12 147_555 147_555 0.0(5)
Li12 Li12 Mn12 147_555 100_555 60
Li12 Li12 Mn12 147_555 148_566 120
Li12 Li12 O1 147_555 50_555 41.941(7)
Li12 Li12 O1 147_555 147_555 85.542(7)
Li12 Li12 O1 147_555 100_555 41.941(7)
Li12 Li12 O1 147_555 109_556 138.059(7)
Li12 Li12 O1 147_555 63_565 94.458(7)
Li12 Li12 O1 147_555 160_655 138.059(7)
Li12 Li12 Li12 100_555 148_566 180.0(5)
Li12 Li12 Ti12 100_555 . 0
Li12 Li12 Ti12 100_555 50_555 60
Li12 Li12 Ti12 100_555 98_665 120
Li12 Li12 Ti12 100_555 51_656 120
Li12 Li12 Ti12 100_555 147_555 60
Li12 Li12 Ti12 100_555 100_555 0.0(5)
Li12 Li12 Ti12 100_555 148_566 180.0(5)
Li12 Li12 Mn12 100_555 . 0
Li12 Li12 Mn12 100_555 50_555 60
Li12 Li12 Mn12 100_555 98_665 120
Li12 Li12 Mn12 100_555 51_656 120
Li12 Li12 Mn12 100_555 147_555 60
Li12 Li12 Mn12 100_555 100_555 0.0(5)
Li12 Li12 Mn12 100_555 148_566 180.0(5)
Li12 Li12 O1 100_555 50_555 41.941(7)
Li12 Li12 O1 100_555 147_555 41.941(7)
Li12 Li12 O1 100_555 100_555 85.542(7)
Li12 Li12 O1 100_555 109_556 138.059(7)
Li12 Li12 O1 100_555 63_565 138.059(7)
Li12 Li12 O1 100_555 160_655 94.458(7)
Li12 Li12 Ti12 148_566 . 0
Li12 Li12 Ti12 148_566 50_555 120
Li12 Li12 Ti12 148_566 98_665 60
Li12 Li12 Ti12 148_566 51_656 60
Li12 Li12 Ti12 148_566 147_555 120
Li12 Li12 Ti12 148_566 100_555 180.0(5)
Li12 Li12 Ti12 148_566 148_566 0.0(5)
Li12 Li12 Mn12 148_566 . 0
Li12 Li12 Mn12 148_566 50_555 120
Li12 Li12 Mn12 148_566 98_665 60
Li12 Li12 Mn12 148_566 51_656 60
Li12 Li12 Mn12 148_566 147_555 120
Li12 Li12 Mn12 148_566 100_555 180.0(5)
Li12 Li12 Mn12 148_566 148_566 0.0(5)
Li12 Li12 O1 148_566 50_555 138.059(7)
Li12 Li12 O1 148_566 147_555 138.059(7)
Li12 Li12 O1 148_566 100_555 94.458(7)
Li12 Li12 O1 148_566 109_556 41.941(7)
Li12 Li12 O1 148_566 63_565 41.941(7)
Li12 Li12 O1 148_566 160_655 85.542(7)
Ti12 Li12 Ti12 . 50_555 0
Ti12 Li12 Ti12 . 98_665 0
Ti12 Li12 Ti12 . 51_656 0
Ti12 Li12 Ti12 . 147_555 0
Ti12 Li12 Ti12 . 100_555 0
Ti12 Li12 Ti12 . 148_566 0
Ti12 Li12 Mn12 . . 0
Ti12 Li12 Mn12 . 50_555 0
Ti12 Li12 Mn12 . 98_665 0
Ti12 Li12 Mn12 . 51_656 0
Ti12 Li12 Mn12 . 147_555 0
Ti12 Li12 Mn12 . 100_555 0
Ti12 Li12 Mn12 . 148_566 0
Ti12 Li12 O1 . 50_555 0
Ti12 Li12 O1 . 147_555 0
Ti12 Li12 O1 . 100_555 0
Ti12 Li12 O1 . 109_556 0
Ti12 Li12 O1 . 63_565 0
Ti12 Li12 O1 . 160_655 0
Ti12 Li12 Ti12 50_555 98_665 180.0(5)
Ti12 Li12 Ti12 50_555 51_656 120
Ti12 Li12 Ti12 50_555 147_555 60
Ti12 Li12 Ti12 50_555 100_555 60
Ti12 Li12 Ti12 50_555 148_566 120
Ti12 Li12 Mn12 50_555 . 0
Ti12 Li12 Mn12 50_555 50_555 0.0(5)
Ti12 Li12 Mn12 50_555 98_665 180.0(5)
Ti12 Li12 Mn12 50_555 51_656 120
Ti12 Li12 Mn12 50_555 147_555 60
Ti12 Li12 Mn12 50_555 100_555 60
Ti12 Li12 Mn12 50_555 148_566 120
Ti12 Li12 O1 50_555 50_555 85.542(7)
Ti12 Li12 O1 50_555 147_555 41.941(7)
Ti12 Li12 O1 50_555 100_555 41.941(7)
Ti12 Li12 O1 50_555 109_556 94.458(7)
Ti12 Li12 O1 50_555 63_565 138.059(7)
Ti12 Li12 O1 50_555 160_655 138.059(7)
Ti12 Li12 Ti12 98_665 51_656 60
Ti12 Li12 Ti12 98_665 147_555 120
Ti12 Li12 Ti12 98_665 100_555 120
Ti12 Li12 Ti12 98_665 148_566 60
Ti12 Li12 Mn12 98_665 . 0
Ti12 Li12 Mn12 98_665 50_555 180.0(5)
Ti12 Li12 Mn12 98_665 98_665 0.0(5)
Ti12 Li12 Mn12 98_665 51_656 60
Ti12 Li12 Mn12 98_665 147_555 120
Ti12 Li12 Mn12 98_665 100_555 120
Ti12 Li12 Mn12 98_665 148_566 60
Ti12 Li12 O1 98_665 50_555 94.458(7)
Ti12 Li12 O1 98_665 147_555 138.059(7)
Ti12 Li12 O1 98_665 100_555 138.059(7)
Ti12 Li12 O1 98_665 109_556 85.542(7)
Ti12 Li12 O1 98_665 63_565 41.941(7)
Ti12 Li12 O1 98_665 160_655 41.941(7)
Ti12 Li12 Ti12 51_656 147_555 180.0(5)
Ti12 Li12 Ti12 51_656 100_555 120
Ti12 Li12 Ti12 51_656 148_566 60
Ti12 Li12 Mn12 51_656 . 0
Ti12 Li12 Mn12 51_656 50_555 120
Ti12 Li12 Mn12 51_656 98_665 60
Ti12 Li12 Mn12 51_656 51_656 0.0(5)
Ti12 Li12 Mn12 51_656 147_555 180.0(5)
Ti12 Li12 Mn12 51_656 100_555 120
Ti12 Li12 Mn12 51_656 148_566 60
Ti12 Li12 O1 51_656 50_555 138.059(7)
Ti12 Li12 O1 51_656 147_555 94.458(7)
Ti12 Li12 O1 51_656 100_555 138.059(7)
Ti12 Li12 O1 51_656 109_556 41.941(7)
Ti12 Li12 O1 51_656 63_565 85.542(7)
Ti12 Li12 O1 51_656 160_655 41.941(7)
Ti12 Li12 Ti12 147_555 100_555 60
Ti12 Li12 Ti12 147_555 148_566 120
Ti12 Li12 Mn12 147_555 . 0
Ti12 Li12 Mn12 147_555 50_555 60
Ti12 Li12 Mn12 147_555 98_665 120
Ti12 Li12 Mn12 147_555 51_656 180.0(5)
Ti12 Li12 Mn12 147_555 147_555 0.0(5)
Ti12 Li12 Mn12 147_555 100_555 60
Ti12 Li12 Mn12 147_555 148_566 120
Ti12 Li12 O1 147_555 50_555 41.941(7)
Ti12 Li12 O1 147_555 147_555 85.542(7)
Ti12 Li12 O1 147_555 100_555 41.941(7)
Ti12 Li12 O1 147_555 109_556 138.059(7)
Ti12 Li12 O1 147_555 63_565 94.458(7)
Ti12 Li12 O1 147_555 160_655 138.059(7)
Ti12 Li12 Ti12 100_555 148_566 180.0(5)
Ti12 Li12 Mn12 100_555 . 0
Ti12 Li12 Mn12 100_555 50_555 60
Ti12 Li12 Mn12 100_555 98_665 120
Ti12 Li12 Mn12 100_555 51_656 120
Ti12 Li12 Mn12 100_555 147_555 60
Ti12 Li12 Mn12 100_555 100_555 0.0(5)
Ti12 Li12 Mn12 100_555 148_566 180.0(5)
Ti12 Li12 O1 100_555 50_555 41.941(7)
Ti12 Li12 O1 100_555 147_555 41.941(7)
Ti12 Li12 O1 100_555 100_555 85.542(7)
Ti12 Li12 O1 100_555 109_556 138.059(7)
Ti12 Li12 O1 100_555 63_565 138.059(7)
Ti12 Li12 O1 100_555 160_655 94.458(7)
Ti12 Li12 Mn12 148_566 . 0
Ti12 Li12 Mn12 148_566 50_555 120
Ti12 Li12 Mn12 148_566 98_665 60
Ti12 Li12 Mn12 148_566 51_656 60
Ti12 Li12 Mn12 148_566 147_555 120
Ti12 Li12 Mn12 148_566 100_555 180.0(5)
Ti12 Li12 Mn12 148_566 148_566 0.0(5)
Ti12 Li12 O1 148_566 50_555 138.059(7)
Ti12 Li12 O1 148_566 147_555 138.059(7)
Ti12 Li12 O1 148_566 100_555 94.458(7)
Ti12 Li12 O1 148_566 109_556 41.941(7)
Ti12 Li12 O1 148_566 63_565 41.941(7)
Ti12 Li12 O1 148_566 160_655 85.542(7)
Mn12 Li12 Mn12 . 50_555 0
Mn12 Li12 Mn12 . 98_665 0
Mn12 Li12 Mn12 . 51_656 0
Mn12 Li12 Mn12 . 147_555 0
Mn12 Li12 Mn12 . 100_555 0
Mn12 Li12 Mn12 . 148_566 0
Mn12 Li12 O1 . 50_555 0
Mn12 Li12 O1 . 147_555 0
Mn12 Li12 O1 . 100_555 0
Mn12 Li12 O1 . 109_556 0
Mn12 Li12 O1 . 63_565 0
Mn12 Li12 O1 . 160_655 0
Mn12 Li12 Mn12 50_555 98_665 180.0(5)
Mn12 Li12 Mn12 50_555 51_656 120
Mn12 Li12 Mn12 50_555 147_555 60
Mn12 Li12 Mn12 50_555 100_555 60
Mn12 Li12 Mn12 50_555 148_566 120
Mn12 Li12 O1 50_555 50_555 85.542(7)
Mn12 Li12 O1 50_555 147_555 41.941(7)
Mn12 Li12 O1 50_555 100_555 41.941(7)
Mn12 Li12 O1 50_555 109_556 94.458(7)
Mn12 Li12 O1 50_555 63_565 138.059(7)
Mn12 Li12 O1 50_555 160_655 138.059(7)
Mn12 Li12 Mn12 98_665 51_656 60
Mn12 Li12 Mn12 98_665 147_555 120
Mn12 Li12 Mn12 98_665 100_555 120
Mn12 Li12 Mn12 98_665 148_566 60
Mn12 Li12 O1 98_665 50_555 94.458(7)
Mn12 Li12 O1 98_665 147_555 138.059(7)
Mn12 Li12 O1 98_665 100_555 138.059(7)
Mn12 Li12 O1 98_665 109_556 85.542(7)
Mn12 Li12 O1 98_665 63_565 41.941(7)
Mn12 Li12 O1 98_665 160_655 41.941(7)
Mn12 Li12 Mn12 51_656 147_555 180.0(5)
Mn12 Li12 Mn12 51_656 100_555 120
Mn12 Li12 Mn12 51_656 148_566 60
Mn12 Li12 O1 51_656 50_555 138.059(7)
Mn12 Li12 O1 51_656 147_555 94.458(7)
Mn12 Li12 O1 51_656 100_555 138.059(7)
Mn12 Li12 O1 51_656 109_556 41.941(7)
Mn12 Li12 O1 51_656 63_565 85.542(7)
Mn12 Li12 O1 51_656 160_655 41.941(7)
Mn12 Li12 Mn12 147_555 100_555 60
Mn12 Li12 Mn12 147_555 148_566 120
Mn12 Li12 O1 147_555 50_555 41.941(7)
Mn12 Li12 O1 147_555 147_555 85.542(7)
Mn12 Li12 O1 147_555 100_555 41.941(7)
Mn12 Li12 O1 147_555 109_556 138.059(7)
Mn12 Li12 O1 147_555 63_565 94.458(7)
Mn12 Li12 O1 147_555 160_655 138.059(7)
Mn12 Li12 Mn12 100_555 148_566 180.0(5)
Mn12 Li12 O1 100_555 50_555 41.941(7)
Mn12 Li12 O1 100_555 147_555 41.941(7)
Mn12 Li12 O1 100_555 100_555 85.542(7)
Mn12 Li12 O1 100_555 109_556 138.059(7)
Mn12 Li12 O1 100_555 63_565 138.059(7)
Mn12 Li12 O1 100_555 160_655 94.458(7)
Mn12 Li12 O1 148_566 50_555 138.059(7)
Mn12 Li12 O1 148_566 147_555 138.059(7)
Mn12 Li12 O1 148_566 100_555 94.458(7)
Mn12 Li12 O1 148_566 109_556 41.941(7)
Mn12 Li12 O1 148_566 63_565 41.941(7)
Mn12 Li12 O1 148_566 160_655 85.542(7)
O1 Li12 O1 50_555 147_555 83.535(10)
O1 Li12 O1 50_555 100_555 83.535(10)
O1 Li12 O1 50_555 109_556 180.0(5)
O1 Li12 O1 50_555 63_565 96.465(10)
O1 Li12 O1 50_555 160_655 96.465(10)
O1 Li12 O1 147_555 100_555 83.535(10)
O1 Li12 O1 147_555 109_556 96.465(10)
O1 Li12 O1 147_555 63_565 180.0(5)
O1 Li12 O1 147_555 160_655 96.465(10)
O1 Li12 O1 100_555 109_556 96.465(10)
O1 Li12 O1 100_555 63_565 96.465(10)
O1 Li12 O1 100_555 160_655 180.0(5)
O1 Li12 O1 109_556 63_565 83.535(10)
O1 Li12 O1 109_556 160_655 83.535(10)
O1 Li12 O1 63_565 160_655 83.535(10)
Li12 Ti12 Li12 . 50_555 0
Li12 Ti12 Li12 . 98_665 0
Li12 Ti12 Li12 . 51_656 0
Li12 Ti12 Li12 . 147_555 0
Li12 Ti12 Li12 . 100_555 0
Li12 Ti12 Li12 . 148_566 0
Li12 Ti12 Ti12 . 50_555 0
Li12 Ti12 Ti12 . 98_665 0
Li12 Ti12 Ti12 . 51_656 0
Li12 Ti12 Ti12 . 147_555 0
Li12 Ti12 Ti12 . 100_555 0
Li12 Ti12 Ti12 . 148_566 0
Li12 Ti12 Mn12 . . 0
Li12 Ti12 Mn12 . 50_555 0
Li12 Ti12 Mn12 . 98_665 0
Li12 Ti12 Mn12 . 51_656 0
Li12 Ti12 Mn12 . 147_555 0
Li12 Ti12 Mn12 . 100_555 0
Li12 Ti12 Mn12 . 148_566 0
Li12 Ti12 O1 . 50_555 0
Li12 Ti12 O1 . 147_555 0
Li12 Ti12 O1 . 100_555 0
Li12 Ti12 O1 . 109_556 0
Li12 Ti12 O1 . 63_565 0
Li12 Ti12 O1 . 160_655 0
Li12 Ti12 Li12 50_555 98_665 180.0(5)
Li12 Ti12 Li12 50_555 51_656 120
Li12 Ti12 Li12 50_555 147_555 60
Li12 Ti12 Li12 50_555 100_555 60
Li12 Ti12 Li12 50_555 148_566 120
Li12 Ti12 Ti12 50_555 50_555 0.0(5)
Li12 Ti12 Ti12 50_555 98_665 180.0(5)
Li12 Ti12 Ti12 50_555 51_656 120
Li12 Ti12 Ti12 50_555 147_555 60
Li12 Ti12 Ti12 50_555 100_555 60
Li12 Ti12 Ti12 50_555 148_566 120
Li12 Ti12 Mn12 50_555 . 0
Li12 Ti12 Mn12 50_555 50_555 0.0(5)
Li12 Ti12 Mn12 50_555 98_665 180.0(5)
Li12 Ti12 Mn12 50_555 51_656 120
Li12 Ti12 Mn12 50_555 147_555 60
Li12 Ti12 Mn12 50_555 100_555 60
Li12 Ti12 Mn12 50_555 148_566 120
Li12 Ti12 O1 50_555 50_555 85.542(7)
Li12 Ti12 O1 50_555 147_555 41.941(7)
Li12 Ti12 O1 50_555 100_555 41.941(7)
Li12 Ti12 O1 50_555 109_556 94.458(7)
Li12 Ti12 O1 50_555 63_565 138.059(7)
Li12 Ti12 O1 50_555 160_655 138.059(7)
Li12 Ti12 Li12 98_665 51_656 60
Li12 Ti12 Li12 98_665 147_555 120
Li12 Ti12 Li12 98_665 100_555 120
Li12 Ti12 Li12 98_665 148_566 60
Li12 Ti12 Ti12 98_665 50_555 180.0(5)
Li12 Ti12 Ti12 98_665 98_665 0.0(5)
Li12 Ti12 Ti12 98_665 51_656 60
Li12 Ti12 Ti12 98_665 147_555 120
Li12 Ti12 Ti12 98_665 100_555 120
Li12 Ti12 Ti12 98_665 148_566 60
Li12 Ti12 Mn12 98_665 . 0
Li12 Ti12 Mn12 98_665 50_555 180.0(5)
Li12 Ti12 Mn12 98_665 98_665 0.0(5)
Li12 Ti12 Mn12 98_665 51_656 60
Li12 Ti12 Mn12 98_665 147_555 120
Li12 Ti12 Mn12 98_665 100_555 120
Li12 Ti12 Mn12 98_665 148_566 60
Li12 Ti12 O1 98_665 50_555 94.458(7)
Li12 Ti12 O1 98_665 147_555 138.059(7)
Li12 Ti12 O1 98_665 100_555 138.059(7)
Li12 Ti12 O1 98_665 109_556 85.542(7)
Li12 Ti12 O1 98_665 63_565 41.941(7)
Li12 Ti12 O1 98_665 160_655 41.941(7)
Li12 Ti12 Li12 51_656 147_555 180.0(5)
Li12 Ti12 Li12 51_656 100_555 120
Li12 Ti12 Li12 51_656 148_566 60
Li12 Ti12 Ti12 51_656 50_555 120
Li12 Ti12 Ti12 51_656 98_665 60
Li12 Ti12 Ti12 51_656 51_656 0.0(5)
Li12 Ti12 Ti12 51_656 147_555 180.0(5)
Li12 Ti12 Ti12 51_656 100_555 120
Li12 Ti12 Ti12 51_656 148_566 60
Li12 Ti12 Mn12 51_656 . 0
Li12 Ti12 Mn12 51_656 50_555 120
Li12 Ti12 Mn12 51_656 98_665 60
Li12 Ti12 Mn12 51_656 51_656 0.0(5)
Li12 Ti12 Mn12 51_656 147_555 180.0(5)
Li12 Ti12 Mn12 51_656 100_555 120
Li12 Ti12 Mn12 51_656 148_566 60
Li12 Ti12 O1 51_656 50_555 138.059(7)
Li12 Ti12 O1 51_656 147_555 94.458(7)
Li12 Ti12 O1 51_656 100_555 138.059(7)
Li12 Ti12 O1 51_656 109_556 41.941(7)
Li12 Ti12 O1 51_656 63_565 85.542(7)
Li12 Ti12 O1 51_656 160_655 41.941(7)
Li12 Ti12 Li12 147_555 100_555 60
Li12 Ti12 Li12 147_555 148_566 120
Li12 Ti12 Ti12 147_555 50_555 60
Li12 Ti12 Ti12 147_555 98_665 120
Li12 Ti12 Ti12 147_555 51_656 180.0(5)
Li12 Ti12 Ti12 147_555 147_555 0.0(5)
Li12 Ti12 Ti12 147_555 100_555 60
Li12 Ti12 Ti12 147_555 148_566 120
Li12 Ti12 Mn12 147_555 . 0
Li12 Ti12 Mn12 147_555 50_555 60
Li12 Ti12 Mn12 147_555 98_665 120
Li12 Ti12 Mn12 147_555 51_656 180.0(5)
Li12 Ti12 Mn12 147_555 147_555 0.0(5)
Li12 Ti12 Mn12 147_555 100_555 60
Li12 Ti12 Mn12 147_555 148_566 120
Li12 Ti12 O1 147_555 50_555 41.941(7)
Li12 Ti12 O1 147_555 147_555 85.542(7)
Li12 Ti12 O1 147_555 100_555 41.941(7)
Li12 Ti12 O1 147_555 109_556 138.059(7)
Li12 Ti12 O1 147_555 63_565 94.458(7)
Li12 Ti12 O1 147_555 160_655 138.059(7)
Li12 Ti12 Li12 100_555 148_566 180.0(5)
Li12 Ti12 Ti12 100_555 50_555 60
Li12 Ti12 Ti12 100_555 98_665 120
Li12 Ti12 Ti12 100_555 51_656 120
Li12 Ti12 Ti12 100_555 147_555 60
Li12 Ti12 Ti12 100_555 100_555 0.0(5)
Li12 Ti12 Ti12 100_555 148_566 180.0(5)
Li12 Ti12 Mn12 100_555 . 0
Li12 Ti12 Mn12 100_555 50_555 60
Li12 Ti12 Mn12 100_555 98_665 120
Li12 Ti12 Mn12 100_555 51_656 120
Li12 Ti12 Mn12 100_555 147_555 60
Li12 Ti12 Mn12 100_555 100_555 0.0(5)
Li12 Ti12 Mn12 100_555 148_566 180.0(5)
Li12 Ti12 O1 100_555 50_555 41.941(7)
Li12 Ti12 O1 100_555 147_555 41.941(7)
Li12 Ti12 O1 100_555 100_555 85.542(7)
Li12 Ti12 O1 100_555 109_556 138.059(7)
Li12 Ti12 O1 100_555 63_565 138.059(7)
Li12 Ti12 O1 100_555 160_655 94.458(7)
Li12 Ti12 Ti12 148_566 50_555 120
Li12 Ti12 Ti12 148_566 98_665 60
Li12 Ti12 Ti12 148_566 51_656 60
Li12 Ti12 Ti12 148_566 147_555 120
Li12 Ti12 Ti12 148_566 100_555 180.0(5)
Li12 Ti12 Ti12 148_566 148_566 0.0(5)
Li12 Ti12 Mn12 148_566 . 0
Li12 Ti12 Mn12 148_566 50_555 120
Li12 Ti12 Mn12 148_566 98_665 60
Li12 Ti12 Mn12 148_566 51_656 60
Li12 Ti12 Mn12 148_566 147_555 120
Li12 Ti12 Mn12 148_566 100_555 180.0(5)
Li12 Ti12 Mn12 148_566 148_566 0.0(5)
Li12 Ti12 O1 148_566 50_555 138.059(7)
Li12 Ti12 O1 148_566 147_555 138.059(7)
Li12 Ti12 O1 148_566 100_555 94.458(7)
Li12 Ti12 O1 148_566 109_556 41.941(7)
Li12 Ti12 O1 148_566 63_565 41.941(7)
Li12 Ti12 O1 148_566 160_655 85.542(7)
Ti12 Ti12 Ti12 50_555 98_665 180.0(5)
Ti12 Ti12 Ti12 50_555 51_656 120
Ti12 Ti12 Ti12 50_555 147_555 60
Ti12 Ti12 Ti12 50_555 100_555 60
Ti12 Ti12 Ti12 50_555 148_566 120
Ti12 Ti12 Mn12 50_555 . 0
Ti12 Ti12 Mn12 50_555 50_555 0.0(5)
Ti12 Ti12 Mn12 50_555 98_665 180.0(5)
Ti12 Ti12 Mn12 50_555 51_656 120
Ti12 Ti12 Mn12 50_555 147_555 60
Ti12 Ti12 Mn12 50_555 100_555 60
Ti12 Ti12 Mn12 50_555 148_566 120
Ti12 Ti12 O1 50_555 50_555 85.542(7)
Ti12 Ti12 O1 50_555 147_555 41.941(7)
Ti12 Ti12 O1 50_555 100_555 41.941(7)
Ti12 Ti12 O1 50_555 109_556 94.458(7)
Ti12 Ti12 O1 50_555 63_565 138.059(7)
Ti12 Ti12 O1 50_555 160_655 138.059(7)
Ti12 Ti12 Ti12 98_665 51_656 60
Ti12 Ti12 Ti12 98_665 147_555 120
Ti12 Ti12 Ti12 98_665 100_555 120
Ti12 Ti12 Ti12 98_665 148_566 60
Ti12 Ti12 Mn12 98_665 . 0
Ti12 Ti12 Mn12 98_665 50_555 180.0(5)
Ti12 Ti12 Mn12 98_665 98_665 0.0(5)
Ti12 Ti12 Mn12 98_665 51_656 60
Ti12 Ti12 Mn12 98_665 147_555 120
Ti12 Ti12 Mn12 98_665 100_555 120
Ti12 Ti12 Mn12 98_665 148_566 60
Ti12 Ti12 O1 98_665 50_555 94.458(7)
Ti12 Ti12 O1 98_665 147_555 138.059(7)
Ti12 Ti12 O1 98_665 100_555 138.059(7)
Ti12 Ti12 O1 98_665 109_556 85.542(7)
Ti12 Ti12 O1 98_665 63_565 41.941(7)
Ti12 Ti12 O1 98_665 160_655 41.941(7)
Ti12 Ti12 Ti12 51_656 147_555 180.0(5)
Ti12 Ti12 Ti12 51_656 100_555 120
Ti12 Ti12 Ti12 51_656 148_566 60
Ti12 Ti12 Mn12 51_656 . 0
Ti12 Ti12 Mn12 51_656 50_555 120
Ti12 Ti12 Mn12 51_656 98_665 60
Ti12 Ti12 Mn12 51_656 51_656 0.0(5)
Ti12 Ti12 Mn12 51_656 147_555 180.0(5)
Ti12 Ti12 Mn12 51_656 100_555 120
Ti12 Ti12 Mn12 51_656 148_566 60
Ti12 Ti12 O1 51_656 50_555 138.059(7)
Ti12 Ti12 O1 51_656 147_555 94.458(7)
Ti12 Ti12 O1 51_656 100_555 138.059(7)
Ti12 Ti12 O1 51_656 109_556 41.941(7)
Ti12 Ti12 O1 51_656 63_565 85.542(7)
Ti12 Ti12 O1 51_656 160_655 41.941(7)
Ti12 Ti12 Ti12 147_555 100_555 60
Ti12 Ti12 Ti12 147_555 148_566 120
Ti12 Ti12 Mn12 147_555 . 0
Ti12 Ti12 Mn12 147_555 50_555 60
Ti12 Ti12 Mn12 147_555 98_665 120
Ti12 Ti12 Mn12 147_555 51_656 180.0(5)
Ti12 Ti12 Mn12 147_555 147_555 0.0(5)
Ti12 Ti12 Mn12 147_555 100_555 60
Ti12 Ti12 Mn12 147_555 148_566 120
Ti12 Ti12 O1 147_555 50_555 41.941(7)
Ti12 Ti12 O1 147_555 147_555 85.542(7)
Ti12 Ti12 O1 147_555 100_555 41.941(7)
Ti12 Ti12 O1 147_555 109_556 138.059(7)
Ti12 Ti12 O1 147_555 63_565 94.458(7)
Ti12 Ti12 O1 147_555 160_655 138.059(7)
Ti12 Ti12 Ti12 100_555 148_566 180.0(5)
Ti12 Ti12 Mn12 100_555 . 0
Ti12 Ti12 Mn12 100_555 50_555 60
Ti12 Ti12 Mn12 100_555 98_665 120
Ti12 Ti12 Mn12 100_555 51_656 120
Ti12 Ti12 Mn12 100_555 147_555 60
Ti12 Ti12 Mn12 100_555 100_555 0.0(5)
Ti12 Ti12 Mn12 100_555 148_566 180.0(5)
Ti12 Ti12 O1 100_555 50_555 41.941(7)
Ti12 Ti12 O1 100_555 147_555 41.941(7)
Ti12 Ti12 O1 100_555 100_555 85.542(7)
Ti12 Ti12 O1 100_555 109_556 138.059(7)
Ti12 Ti12 O1 100_555 63_565 138.059(7)
Ti12 Ti12 O1 100_555 160_655 94.458(7)
Ti12 Ti12 Mn12 148_566 . 0
Ti12 Ti12 Mn12 148_566 50_555 120
Ti12 Ti12 Mn12 148_566 98_665 60
Ti12 Ti12 Mn12 148_566 51_656 60
Ti12 Ti12 Mn12 148_566 147_555 120
Ti12 Ti12 Mn12 148_566 100_555 180.0(5)
Ti12 Ti12 Mn12 148_566 148_566 0.0(5)
Ti12 Ti12 O1 148_566 50_555 138.059(7)
Ti12 Ti12 O1 148_566 147_555 138.059(7)
Ti12 Ti12 O1 148_566 100_555 94.458(7)
Ti12 Ti12 O1 148_566 109_556 41.941(7)
Ti12 Ti12 O1 148_566 63_565 41.941(7)
Ti12 Ti12 O1 148_566 160_655 85.542(7)
Mn12 Ti12 Mn12 . 50_555 0
Mn12 Ti12 Mn12 . 98_665 0
Mn12 Ti12 Mn12 . 51_656 0
Mn12 Ti12 Mn12 . 147_555 0
Mn12 Ti12 Mn12 . 100_555 0
Mn12 Ti12 Mn12 . 148_566 0
Mn12 Ti12 O1 . 50_555 0
Mn12 Ti12 O1 . 147_555 0
Mn12 Ti12 O1 . 100_555 0
Mn12 Ti12 O1 . 109_556 0
Mn12 Ti12 O1 . 63_565 0
Mn12 Ti12 O1 . 160_655 0
Mn12 Ti12 Mn12 50_555 98_665 180.0(5)
Mn12 Ti12 Mn12 50_555 51_656 120
Mn12 Ti12 Mn12 50_555 147_555 60
Mn12 Ti12 Mn12 50_555 100_555 60
Mn12 Ti12 Mn12 50_555 148_566 120
Mn12 Ti12 O1 50_555 50_555 85.542(7)
Mn12 Ti12 O1 50_555 147_555 41.941(7)
Mn12 Ti12 O1 50_555 100_555 41.941(7)
Mn12 Ti12 O1 50_555 109_556 94.458(7)
Mn12 Ti12 O1 50_555 63_565 138.059(7)
Mn12 Ti12 O1 50_555 160_655 138.059(7)
Mn12 Ti12 Mn12 98_665 51_656 60
Mn12 Ti12 Mn12 98_665 147_555 120
Mn12 Ti12 Mn12 98_665 100_555 120
Mn12 Ti12 Mn12 98_665 148_566 60
Mn12 Ti12 O1 98_665 50_555 94.458(7)
Mn12 Ti12 O1 98_665 147_555 138.059(7)
Mn12 Ti12 O1 98_665 100_555 138.059(7)
Mn12 Ti12 O1 98_665 109_556 85.542(7)
Mn12 Ti12 O1 98_665 63_565 41.941(7)
Mn12 Ti12 O1 98_665 160_655 41.941(7)
Mn12 Ti12 Mn12 51_656 147_555 180.0(5)
Mn12 Ti12 Mn12 51_656 100_555 120
Mn12 Ti12 Mn12 51_656 148_566 60
Mn12 Ti12 O1 51_656 50_555 138.059(7)
Mn12 Ti12 O1 51_656 147_555 94.458(7)
Mn12 Ti12 O1 51_656 100_555 138.059(7)
Mn12 Ti12 O1 51_656 109_556 41.941(7)
Mn12 Ti12 O1 51_656 63_565 85.542(7)
Mn12 Ti12 O1 51_656 160_655 41.941(7)
Mn12 Ti12 Mn12 147_555 100_555 60
Mn12 Ti12 Mn12 147_555 148_566 120
Mn12 Ti12 O1 147_555 50_555 41.941(7)
Mn12 Ti12 O1 147_555 147_555 85.542(7)
Mn12 Ti12 O1 147_555 100_555 41.941(7)
Mn12 Ti12 O1 147_555 109_556 138.059(7)
Mn12 Ti12 O1 147_555 63_565 94.458(7)
Mn12 Ti12 O1 147_555 160_655 138.059(7)
Mn12 Ti12 Mn12 100_555 148_566 180.0(5)
Mn12 Ti12 O1 100_555 50_555 41.941(7)
Mn12 Ti12 O1 100_555 147_555 41.941(7)
Mn12 Ti12 O1 100_555 100_555 85.542(7)
Mn12 Ti12 O1 100_555 109_556 138.059(7)
Mn12 Ti12 O1 100_555 63_565 138.059(7)
Mn12 Ti12 O1 100_555 160_655 94.458(7)
Mn12 Ti12 O1 148_566 50_555 138.059(7)
Mn12 Ti12 O1 148_566 147_555 138.059(7)
Mn12 Ti12 O1 148_566 100_555 94.458(7)
Mn12 Ti12 O1 148_566 109_556 41.941(7)
Mn12 Ti12 O1 148_566 63_565 41.941(7)
Mn12 Ti12 O1 148_566 160_655 85.542(7)
O1 Ti12 O1 50_555 147_555 83.535(10)
O1 Ti12 O1 50_555 100_555 83.535(10)
O1 Ti12 O1 50_555 109_556 180.0(5)
O1 Ti12 O1 50_555 63_565 96.465(10)
O1 Ti12 O1 50_555 160_655 96.465(10)
O1 Ti12 O1 147_555 100_555 83.535(10)
O1 Ti12 O1 147_555 109_556 96.465(10)
O1 Ti12 O1 147_555 63_565 180.0(5)
O1 Ti12 O1 147_555 160_655 96.465(10)
O1 Ti12 O1 100_555 109_556 96.465(10)
O1 Ti12 O1 100_555 63_565 96.465(10)
O1 Ti12 O1 100_555 160_655 180.0(5)
O1 Ti12 O1 109_556 63_565 83.535(10)
O1 Ti12 O1 109_556 160_655 83.535(10)
O1 Ti12 O1 63_565 160_655 83.535(10)
Li12 Mn12 Li12 . 50_555 0
Li12 Mn12 Li12 . 98_665 0
Li12 Mn12 Li12 . 51_656 0
Li12 Mn12 Li12 . 147_555 0
Li12 Mn12 Li12 . 100_555 0
Li12 Mn12 Li12 . 148_566 0
Li12 Mn12 Ti12 . . 0
Li12 Mn12 Ti12 . 50_555 0
Li12 Mn12 Ti12 . 98_665 0
Li12 Mn12 Ti12 . 51_656 0
Li12 Mn12 Ti12 . 147_555 0
Li12 Mn12 Ti12 . 100_555 0
Li12 Mn12 Ti12 . 148_566 0
Li12 Mn12 O1 . 50_555 0
Li12 Mn12 O1 . 147_555 0
Li12 Mn12 O1 . 100_555 0
Li12 Mn12 O1 . 109_556 0
Li12 Mn12 O1 . 63_565 0
Li12 Mn12 O1 . 160_655 0
Li12 Mn12 Li12 50_555 98_665 180.0(5)
Li12 Mn12 Li12 50_555 51_656 120
Li12 Mn12 Li12 50_555 147_555 60
Li12 Mn12 Li12 50_555 100_555 60
Li12 Mn12 Li12 50_555 148_566 120
Li12 Mn12 Ti12 50_555 . 0
Li12 Mn12 Ti12 50_555 50_555 0.0(5)
Li12 Mn12 Ti12 50_555 98_665 180.0(5)
Li12 Mn12 Ti12 50_555 51_656 120
Li12 Mn12 Ti12 50_555 147_555 60
Li12 Mn12 Ti12 50_555 100_555 60
Li12 Mn12 Ti12 50_555 148_566 120
Li12 Mn12 O1 50_555 50_555 85.542(7)
Li12 Mn12 O1 50_555 147_555 41.941(7)
Li12 Mn12 O1 50_555 100_555 41.941(7)
Li12 Mn12 O1 50_555 109_556 94.458(7)
Li12 Mn12 O1 50_555 63_565 138.059(7)
Li12 Mn12 O1 50_555 160_655 138.059(7)
Li12 Mn12 Li12 98_665 51_656 60
Li12 Mn12 Li12 98_665 147_555 120
Li12 Mn12 Li12 98_665 100_555 120
Li12 Mn12 Li12 98_665 148_566 60
Li12 Mn12 Ti12 98_665 . 0
Li12 Mn12 Ti12 98_665 50_555 180.0(5)
Li12 Mn12 Ti12 98_665 98_665 0.0(5)
Li12 Mn12 Ti12 98_665 51_656 60
Li12 Mn12 Ti12 98_665 147_555 120
Li12 Mn12 Ti12 98_665 100_555 120
Li12 Mn12 Ti12 98_665 148_566 60
Li12 Mn12 O1 98_665 50_555 94.458(7)
Li12 Mn12 O1 98_665 147_555 138.059(7)
Li12 Mn12 O1 98_665 100_555 138.059(7)
Li12 Mn12 O1 98_665 109_556 85.542(7)
Li12 Mn12 O1 98_665 63_565 41.941(7)
Li12 Mn12 O1 98_665 160_655 41.941(7)
Li12 Mn12 Li12 51_656 147_555 180.0(5)
Li12 Mn12 Li12 51_656 100_555 120
Li12 Mn12 Li12 51_656 148_566 60
Li12 Mn12 Ti12 51_656 . 0
Li12 Mn12 Ti12 51_656 50_555 120
Li12 Mn12 Ti12 51_656 98_665 60
Li12 Mn12 Ti12 51_656 51_656 0.0(5)
Li12 Mn12 Ti12 51_656 147_555 180.0(5)
Li12 Mn12 Ti12 51_656 100_555 120
Li12 Mn12 Ti12 51_656 148_566 60
Li12 Mn12 O1 51_656 50_555 138.059(7)
Li12 Mn12 O1 51_656 147_555 94.458(7)
Li12 Mn12 O1 51_656 100_555 138.059(7)
Li12 Mn12 O1 51_656 109_556 41.941(7)
Li12 Mn12 O1 51_656 63_565 85.542(7)
Li12 Mn12 O1 51_656 160_655 41.941(7)
Li12 Mn12 Li12 147_555 100_555 60
Li12 Mn12 Li12 147_555 148_566 120
Li12 Mn12 Ti12 147_555 . 0
Li12 Mn12 Ti12 147_555 50_555 60
Li12 Mn12 Ti12 147_555 98_665 120
Li12 Mn12 Ti12 147_555 51_656 180.0(5)
Li12 Mn12 Ti12 147_555 147_555 0.0(5)
Li12 Mn12 Ti12 147_555 100_555 60
Li12 Mn12 Ti12 147_555 148_566 120
Li12 Mn12 O1 147_555 50_555 41.941(7)
Li12 Mn12 O1 147_555 147_555 85.542(7)
Li12 Mn12 O1 147_555 100_555 41.941(7)
Li12 Mn12 O1 147_555 109_556 138.059(7)
Li12 Mn12 O1 147_555 63_565 94.458(7)
Li12 Mn12 O1 147_555 160_655 138.059(7)
Li12 Mn12 Li12 100_555 148_566 180.0(5)
Li12 Mn12 Ti12 100_555 . 0
Li12 Mn12 Ti12 100_555 50_555 60
Li12 Mn12 Ti12 100_555 98_665 120
Li12 Mn12 Ti12 100_555 51_656 120
Li12 Mn12 Ti12 100_555 147_555 60
Li12 Mn12 Ti12 100_555 100_555 0.0(5)
Li12 Mn12 Ti12 100_555 148_566 180.0(5)
Li12 Mn12 O1 100_555 50_555 41.941(7)
Li12 Mn12 O1 100_555 147_555 41.941(7)
Li12 Mn12 O1 100_555 100_555 85.542(7)
Li12 Mn12 O1 100_555 109_556 138.059(7)
Li12 Mn12 O1 100_555 63_565 138.059(7)
Li12 Mn12 O1 100_555 160_655 94.458(7)
Li12 Mn12 Ti12 148_566 . 0
Li12 Mn12 Ti12 148_566 50_555 120
Li12 Mn12 Ti12 148_566 98_665 60
Li12 Mn12 Ti12 148_566 51_656 60
Li12 Mn12 Ti12 148_566 147_555 120
Li12 Mn12 Ti12 148_566 100_555 180.0(5)
Li12 Mn12 Ti12 148_566 148_566 0.0(5)
Li12 Mn12 O1 148_566 50_555 138.059(7)
Li12 Mn12 O1 148_566 147_555 138.059(7)
Li12 Mn12 O1 148_566 100_555 94.458(7)
Li12 Mn12 O1 148_566 109_556 41.941(7)
Li12 Mn12 O1 148_566 63_565 41.941(7)
Li12 Mn12 O1 148_566 160_655 85.542(7)
Ti12 Mn12 Ti12 . 50_555 0
Ti12 Mn12 Ti12 . 98_665 0
Ti12 Mn12 Ti12 . 51_656 0
Ti12 Mn12 Ti12 . 147_555 0
Ti12 Mn12 Ti12 . 100_555 0
Ti12 Mn12 Ti12 . 148_566 0
Ti12 Mn12 O1 . 50_555 0
Ti12 Mn12 O1 . 147_555 0
Ti12 Mn12 O1 . 100_555 0
Ti12 Mn12 O1 . 109_556 0
Ti12 Mn12 O1 . 63_565 0
Ti12 Mn12 O1 . 160_655 0
Ti12 Mn12 Ti12 50_555 98_665 180.0(5)
Ti12 Mn12 Ti12 50_555 51_656 120
Ti12 Mn12 Ti12 50_555 147_555 60
Ti12 Mn12 Ti12 50_555 100_555 60
Ti12 Mn12 Ti12 50_555 148_566 120
Ti12 Mn12 O1 50_555 50_555 85.542(7)
Ti12 Mn12 O1 50_555 147_555 41.941(7)
Ti12 Mn12 O1 50_555 100_555 41.941(7)
Ti12 Mn12 O1 50_555 109_556 94.458(7)
Ti12 Mn12 O1 50_555 63_565 138.059(7)
Ti12 Mn12 O1 50_555 160_655 138.059(7)
Ti12 Mn12 Ti12 98_665 51_656 60
Ti12 Mn12 Ti12 98_665 147_555 120
Ti12 Mn12 Ti12 98_665 100_555 120
Ti12 Mn12 Ti12 98_665 148_566 60
Ti12 Mn12 O1 98_665 50_555 94.458(7)
Ti12 Mn12 O1 98_665 147_555 138.059(7)
Ti12 Mn12 O1 98_665 100_555 138.059(7)
Ti12 Mn12 O1 98_665 109_556 85.542(7)
Ti12 Mn12 O1 98_665 63_565 41.941(7)
Ti12 Mn12 O1 98_665 160_655 41.941(7)
Ti12 Mn12 Ti12 51_656 147_555 180.0(5)
Ti12 Mn12 Ti12 51_656 100_555 120
Ti12 Mn12 Ti12 51_656 148_566 60
Ti12 Mn12 O1 51_656 50_555 138.059(7)
Ti12 Mn12 O1 51_656 147_555 94.458(7)
Ti12 Mn12 O1 51_656 100_555 138.059(7)
Ti12 Mn12 O1 51_656 109_556 41.941(7)
Ti12 Mn12 O1 51_656 63_565 85.542(7)
Ti12 Mn12 O1 51_656 160_655 41.941(7)
Ti12 Mn12 Ti12 147_555 100_555 60
Ti12 Mn12 Ti12 147_555 148_566 120
Ti12 Mn12 O1 147_555 50_555 41.941(7)
Ti12 Mn12 O1 147_555 147_555 85.542(7)
Ti12 Mn12 O1 147_555 100_555 41.941(7)
Ti12 Mn12 O1 147_555 109_556 138.059(7)
Ti12 Mn12 O1 147_555 63_565 94.458(7)
Ti12 Mn12 O1 147_555 160_655 138.059(7)
Ti12 Mn12 Ti12 100_555 148_566 180.0(5)
Ti12 Mn12 O1 100_555 50_555 41.941(7)
Ti12 Mn12 O1 100_555 147_555 41.941(7)
Ti12 Mn12 O1 100_555 100_555 85.542(7)
Ti12 Mn12 O1 100_555 109_556 138.059(7)
Ti12 Mn12 O1 100_555 63_565 138.059(7)
Ti12 Mn12 O1 100_555 160_655 94.458(7)
Ti12 Mn12 O1 148_566 50_555 138.059(7)
Ti12 Mn12 O1 148_566 147_555 138.059(7)
Ti12 Mn12 O1 148_566 100_555 94.458(7)
Ti12 Mn12 O1 148_566 109_556 41.941(7)
Ti12 Mn12 O1 148_566 63_565 41.941(7)
Ti12 Mn12 O1 148_566 160_655 85.542(7)
O1 Mn12 O1 50_555 147_555 83.535(10)
O1 Mn12 O1 50_555 100_555 83.535(10)
O1 Mn12 O1 50_555 109_556 180.0(5)
O1 Mn12 O1 50_555 63_565 96.465(10)
O1 Mn12 O1 50_555 160_655 96.465(10)
O1 Mn12 O1 147_555 100_555 83.535(10)
O1 Mn12 O1 147_555 109_556 96.465(10)
O1 Mn12 O1 147_555 63_565 180.0(5)
O1 Mn12 O1 147_555 160_655 96.465(10)
O1 Mn12 O1 100_555 109_556 96.465(10)
O1 Mn12 O1 100_555 63_565 96.465(10)
O1 Mn12 O1 100_555 160_655 180.0(5)
O1 Mn12 O1 109_556 63_565 83.535(10)
O1 Mn12 O1 109_556 160_655 83.535(10)
O1 Mn12 O1 63_565 160_655 83.535(10)
Li11 O1 Ti11 . . 0.0(5)
Li11 O1 Li12 . 50_555 120.807(13)
Li11 O1 Li12 . 147_555 120.807(13)
Li11 O1 Li12 . 100_555 120.807(13)
Li11 O1 Ti12 . 50_555 120.807(13)
Li11 O1 Ti12 . 147_555 120.807(13)
Li11 O1 Ti12 . 100_555 120.807(13)
Li11 O1 Mn12 . 50_555 120.807(13)
Li11 O1 Mn12 . 147_555 120.807(13)
Li11 O1 Mn12 . 100_555 120.807(13)
Li11 O1 Mn11 . . 0.0(5)
Ti11 O1 Li12 . 50_555 120.807(13)
Ti11 O1 Li12 . 147_555 120.807(13)
Ti11 O1 Li12 . 100_555 120.807(13)
Ti11 O1 Ti12 . 50_555 120.807(13)
Ti11 O1 Ti12 . 147_555 120.807(13)
Ti11 O1 Ti12 . 100_555 120.807(13)
Ti11 O1 Mn12 . 50_555 120.807(13)
Ti11 O1 Mn12 . 147_555 120.807(13)
Ti11 O1 Mn12 . 100_555 120.807(13)
Ti11 O1 Mn11 . . 0.0(5)
Li12 O1 Li12 50_555 147_555 96.117(11)
Li12 O1 Li12 50_555 100_555 96.117(11)
Li12 O1 Ti12 50_555 50_555 0.0(5)
Li12 O1 Ti12 50_555 147_555 96.117(11)
Li12 O1 Ti12 50_555 100_555 96.117(11)
Li12 O1 Mn12 50_555 50_555 0.0(5)
Li12 O1 Mn12 50_555 147_555 96.117(11)
Li12 O1 Mn12 50_555 100_555 96.117(11)
Li12 O1 Mn11 50_555 . 120.807(13)
Li12 O1 Li12 147_555 100_555 96.117(11)
Li12 O1 Ti12 147_555 50_555 96.117(11)
Li12 O1 Ti12 147_555 147_555 0.0(5)
Li12 O1 Ti12 147_555 100_555 96.117(11)
Li12 O1 Mn12 147_555 50_555 96.117(11)
Li12 O1 Mn12 147_555 147_555 0.0(5)
Li12 O1 Mn12 147_555 100_555 96.117(11)
Li12 O1 Mn11 147_555 . 120.807(13)
Li12 O1 Ti12 100_555 50_555 96.117(11)
Li12 O1 Ti12 100_555 147_555 96.117(11)
Li12 O1 Ti12 100_555 100_555 0.0(5)
Li12 O1 Mn12 100_555 50_555 96.117(11)
Li12 O1 Mn12 100_555 147_555 96.117(11)
Li12 O1 Mn12 100_555 100_555 0.0(5)
Li12 O1 Mn11 100_555 . 120.807(13)
Ti12 O1 Ti12 50_555 147_555 96.117(11)
Ti12 O1 Ti12 50_555 100_555 96.117(11)
Ti12 O1 Mn12 50_555 50_555 0.0(5)
Ti12 O1 Mn12 50_555 147_555 96.117(11)
Ti12 O1 Mn12 50_555 100_555 96.117(11)
Ti12 O1 Mn11 50_555 . 120.807(13)
Ti12 O1 Ti12 147_555 100_555 96.117(11)
Ti12 O1 Mn12 147_555 50_555 96.117(11)
Ti12 O1 Mn12 147_555 147_555 0.0(5)
Ti12 O1 Mn12 147_555 100_555 96.117(11)
Ti12 O1 Mn11 147_555 . 120.807(13)
Ti12 O1 Mn12 100_555 50_555 96.117(11)
Ti12 O1 Mn12 100_555 147_555 96.117(11)
Ti12 O1 Mn12 100_555 100_555 0.0(5)
Ti12 O1 Mn11 100_555 . 120.807(13)
Mn12 O1 Mn12 50_555 147_555 96.117(11)
Mn12 O1 Mn12 50_555 100_555 96.117(11)
Mn12 O1 Mn11 50_555 . 120.807(13)
Mn12 O1 Mn12 147_555 100_555 96.117(11)
Mn12 O1 Mn11 147_555 . 120.807(13)
Mn12 O1 Mn11 100_555 . 120.807(13)
Li11 Mn11 Ti11 . . 0
Li11 Mn11 O1 . . 0
Li11 Mn11 O1 . 98_555 0
Li11 Mn11 O1 . 51_555 0
Li11 Mn11 O1 . 148_555 0
Ti11 Mn11 O1 . . 0
Ti11 Mn11 O1 . 98_555 0
Ti11 Mn11 O1 . 51_555 0
Ti11 Mn11 O1 . 148_555 0
O1 Mn11 O1 . 98_555 109.471(10)
O1 Mn11 O1 . 51_555 109.471(10)
O1 Mn11 O1 . 148_555 109.471(10)
O1 Mn11 O1 98_555 51_555 109.471(10)
O1 Mn11 O1 98_555 148_555 109.471(10)
O1 Mn11 O1 51_555 148_555 109.471(10)
loop_
_geom_bond_atom_site_label_1
_geom_bond_atom_site_label_2
_geom_bond_site_symmetry_2
_geom_bond_distance
Li11 Ti11 . 0
Li11 O1 . 2.0041(3)
Li11 O1 98_555 2.0041(3)
Li11 O1 51_555 2.0041(3)
Li11 O1 148_555 2.0041(3)
Li11 Mn11 . 0
Ti11 O1 . 2.0041(3)
Ti11 O1 98_555 2.0041(3)
Ti11 O1 51_555 2.0041(3)
Ti11 O1 148_555 2.0041(3)
Ti11 Mn11 . 0
Li12 Li12 50_555 2.9631
Li12 Li12 98_665 2.9631
Li12 Li12 51_656 2.9631
Li12 Li12 147_555 2.9631
Li12 Li12 100_555 2.9631
Li12 Li12 148_566 2.9631
Li12 Ti12 . 0
Li12 Ti12 50_555 2.9631
Li12 Ti12 98_665 2.9631
Li12 Ti12 51_656 2.9631
Li12 Ti12 147_555 2.9631
Li12 Ti12 100_555 2.9631
Li12 Ti12 148_566 2.9631
Li12 Mn12 . 0
Li12 Mn12 50_555 2.9631
Li12 Mn12 98_665 2.9631
Li12 Mn12 51_656 2.9631
Li12 Mn12 147_555 2.9631
Li12 Mn12 100_555 2.9631
Li12 Mn12 148_566 2.9631
Li12 O1 50_555 1.9918(3)
Li12 O1 147_555 1.9918(3)
Li12 O1 100_555 1.9918(3)
Li12 O1 109_556 1.9918(3)
Li12 O1 63_565 1.9918(3)
Li12 O1 160_655 1.9918(3)
Ti12 Ti12 50_555 2.9631
Ti12 Ti12 98_665 2.9631
Ti12 Ti12 51_656 2.9631
Ti12 Ti12 147_555 2.9631
Ti12 Ti12 100_555 2.9631
Ti12 Ti12 148_566 2.9631
Ti12 Mn12 . 0
Ti12 Mn12 50_555 2.9631
Ti12 Mn12 98_665 2.9631
Ti12 Mn12 51_656 2.9631
Ti12 Mn12 147_555 2.9631
Ti12 Mn12 100_555 2.9631
Ti12 Mn12 148_566 2.9631
Ti12 O1 50_555 1.9918(3)
Ti12 O1 147_555 1.9918(3)
Ti12 O1 100_555 1.9918(3)
Ti12 O1 109_556 1.9918(3)
Ti12 O1 63_565 1.9918(3)
Ti12 O1 160_655 1.9918(3)
Mn12 O1 50_555 1.9918(3)
Mn12 O1 147_555 1.9918(3)
Mn12 O1 100_555 1.9918(3)
Mn12 O1 109_556 1.9918(3)
Mn12 O1 63_565 1.9918(3)
Mn12 O1 160_655 1.9918(3)
O1 Mn11 . 2.0041(3)
loop_
_pd_proc_point_id
_pd_proc_2theta_corrected
_pd_proc_intensity_net
_pd_calc_intensity_net
_pd_proc_ls_weight
13 11.7002 546.49 530.74 14.25
14 11.7502 544.82 530.80 14.22
15 11.8002 508.21 530.86 13.78
16 11.8502 540.84 530.92 14.24
17 11.9002 547.52 530.96 14.32
18 11.9502 543.23 531.01 14.13
19 12.0002 532.93 531.05 14.10
20 12.0502 514.78 531.08 13.66
21 12.1002 516.50 531.11 13.81
22 12.1502 513.72 531.14 13.73
23 12.2002 543.25 531.16 14.10
24 12.2502 541.48 531.18 14.19
25 12.3002 515.55 531.19 13.83
26 12.3502 529.98 531.20 14.04
27 12.4002 543.20 531.20 14.14
28 12.4502 535.66 531.20 14.14
29 12.5002 509.33 531.20 13.78
30 12.5502 515.79 531.19 13.85
31 12.6002 524.82 531.18 13.14
32 12.6502 554.56 531.16 13.52
33 12.7002 542.80 531.14 13.38
34 12.7502 551.23 531.12 13.47
35 12.8002 548.94 531.09 13.44
36 12.8502 528.89 531.05 13.19
37 12.9002 512.92 531.02 12.99
38 12.9502 523.19 530.98 13.14
39 13.0002 548.48 530.93 13.46
40 13.0502 546.10 530.89 13.41
41 13.1002 537.23 530.83 13.29
42 13.1502 498.85 530.78 12.81
43 13.2002 525.89 530.72 13.12
44 13.2501 536.74 530.66 13.25
45 13.3002 530.48 530.59 13.14
46 13.3502 550.47 530.52 13.41
47 13.4002 536.06 530.45 13.24
48 13.4502 532.07 530.37 13.21
49 13.5002 536.83 530.29 13.28
50 13.5502 501.95 530.21 12.85
51 13.6002 543.07 530.12 13.35
52 13.6502 534.77 530.03 13.27
53 13.7002 518.07 529.93 13.06
54 13.7502 552.28 529.84 13.50
55 13.8002 523.51 529.73 13.12
56 13.8502 501.39 529.63 13.02
57 13.9002 542.43 529.52 13.53
58 13.9502 514.77 529.41 13.18
59 14.0002 554.71 529.30 13.68
60 14.0502 535.00 529.18 13.45
61 14.1002 524.33 529.15 13.29
62 14.1502 539.20 529.02 13.49
63 14.2002 526.36 528.90 13.33
64 14.2502 512.22 528.77 13.16
65 14.3002 531.28 528.64 13.39
66 14.3502 527.38 528.51 13.33
67 14.4002 540.74 528.37 13.52
68 14.4501 512.07 528.23 13.12
69 14.5001 510.93 528.09 13.10
70 14.5502 508.80 527.95 13.03
71 14.6002 534.42 527.80 13.38
72 14.6502 530.38 527.65 13.35
73 14.7002 521.89 527.49 13.25
74 14.7502 529.87 527.34 13.37
75 14.8002 532.02 527.18 13.38
76 14.8502 554.09 527.02 13.66
77 14.9002 534.78 526.85 13.43
78 14.9502 509.62 526.69 13.12
79 15.0002 532.49 526.52 13.42
80 15.0502 506.93 526.35 13.07
81 15.1002 527.73 526.18 13.45
82 15.1502 502.47 526.00 13.15
83 15.2002 533.93 525.82 13.55
84 15.2502 513.80 525.64 13.27
85 15.3002 520.53 525.46 13.35
86 15.3502 541.35 525.27 13.62
87 15.4002 522.92 525.09 13.39
88 15.4502 503.75 524.90 13.16
89 15.5002 521.78 524.71 13.38
90 15.5502 515.75 524.51 13.31
91 15.6002 518.50 524.32 13.33
92 15.6501 535.81 524.12 13.57
93 15.7001 521.64 523.92 13.34
94 15.7501 526.73 523.72 13.40
95 15.8001 564.98 523.51 13.85
96 15.8502 538.10 523.31 13.53
97 15.9002 518.19 523.10 13.28
98 15.9502 529.20 522.89 13.44
99 16.0002 530.51 522.68 13.48
100 16.0502 517.45 522.47 13.31
101 16.1002 516.41 522.26 13.28
102 16.1502 546.53 522.04 13.70
103 16.2002 531.21 521.83 13.51
104 16.2502 525.84 521.61 13.43
105 16.3002 522.62 521.39 13.38
106 16.3502 528.73 521.17 13.54
107 16.4002 493.55 520.96 13.07
108 16.4502 516.21 520.74 13.35
109 16.5002 515.37 520.52 13.33
110 16.5502 508.30 520.30 13.26
111 16.6002 522.11 520.08 13.43
112 16.6502 519.45 519.87 13.39
113 16.7002 523.21 519.66 13.46
114 16.7502 515.62 519.46 13.37
115 16.8002 518.62 519.27 13.40
116 16.8501 501.73 519.10 13.16
117 16.9001 520.69 518.94 13.40
118 16.9501 507.60 518.80 13.20
119 17.0001 524.10 518.70 13.41
120 17.0501 516.67 518.62 13.30
121 17.1002 518.92 518.58 13.33
122 17.1502 530.70 518.58 13.51
123 17.2001 532.73 518.63 13.55
124 17.2502 506.29 518.73 13.21
125 17.3002 529.30 518.87 13.52
126 17.3501 505.25 519.07 13.19
127 17.4002 525.80 519.32 13.50
128 17.4502 513.87 519.61 13.32
129 17.5002 527.78 519.96 13.53
130 17.5502 527.21 520.35 13.50
131 17.6002 523.56 520.80 13.46
132 17.6502 509.77 521.28 13.31
133 17.7002 530.09 521.82 13.57
134 17.7502 530.11 522.41 13.54
135 17.8002 508.79 523.04 13.27
136 17.8502 519.01 523.74 13.39
137 17.9002 524.24 524.49 13.46
138 17.9502 530.70 525.30 13.56
139 18.0002 545.04 526.19 13.76
140 18.0502 505.07 527.15 13.22
141 18.1001 524.10 528.20 13.47
142 18.1501 536.77 529.35 13.64
143 18.2001 539.17 530.61 13.63
144 18.2501 544.44 531.99 13.70
145 18.3001 520.67 533.52 13.36
146 18.3501 536.18 535.21 13.59
147 18.4002 518.64 537.09 13.37
148 18.4501 513.43 539.17 13.31
149 18.5001 535.63 541.48 13.60
150 18.5502 551.84 544.05 13.82
151 18.6001 546.38 546.88 13.75
152 18.6502 543.27 549.97 13.73
153 18.7002 548.20 553.31 13.78
154 18.7501 560.47 556.85 13.95
155 18.8002 548.46 560.51 13.78
156 18.8501 567.32 564.16 14.15
157 18.9002 581.24 567.64 14.34
158 18.9502 562.38 570.76 14.09
159 19.0002 551.18 573.26 13.92
160 19.0502 586.94 574.93 14.38
161 19.1002 589.66 575.52 14.41
162 19.1502 581.26 574.84 14.31
163 19.2001 573.47 572.78 14.23
164 19.2502 570.12 569.29 14.19
165 19.3002 571.38 564.51 14.18
166 19.3501 554.67 558.68 13.96
167 19.4001 562.24 552.13 14.08
168 19.4501 562.61 545.26 14.06
169 19.5001 555.60 538.41 13.96
170 19.5501 546.76 531.91 13.80
171 19.6001 541.72 525.97 13.78
172 19.6502 492.91 520.74 13.13
173 19.7001 507.74 516.27 13.35
174 19.7501 512.77 512.56 13.44
175 19.8002 507.36 509.56 13.36
176 19.8501 507.93 507.19 13.35
177 19.9001 486.35 505.33 13.09
178 19.9501 505.19 503.89 13.34
179 20.0001 476.68 502.76 12.94
180 20.0501 490.02 501.87 13.15
181 20.1001 530.04 501.14 13.79
182 20.1502 514.19 500.53 13.60
183 20.2002 485.56 500.00 13.22
184 20.2502 498.39 499.52 13.37
185 20.3002 498.17 499.07 13.38
186 20.3502 509.62 498.65 13.53
187 20.4002 503.34 498.24 13.45
188 20.4501 497.70 497.84 13.37
189 20.5002 513.45 497.45 13.58
190 20.5502 513.02 497.07 13.57
191 20.6001 496.30 496.69 13.34
192 20.6501 501.36 496.32 13.41
193 20.7001 524.79 495.95 13.72
194 20.7501 519.83 495.58 13.62
195 20.8001 486.81 495.21 13.16
196 20.8501 488.50 494.85 13.17
197 20.9001 512.68 494.49 13.54
198 20.9501 509.17 494.13 13.51
199 21.0001 493.27 493.78 13.30
200 21.0502 480.42 493.42 13.13
201 21.1001 469.98 493.07 12.98
202 21.1501 502.36 492.71 13.43
203 21.2001 512.38 492.36 13.55
204 21.2501 497.51 492.01 13.37
205 21.3001 517.05 491.66 13.63
206 21.3501 491.00 491.31 13.30
207 21.4002 494.81 490.96 13.34
208 21.4502 495.57 490.62 13.37
209 21.5001 450.00 490.27 12.70
210 21.5502 469.92 489.92 13.00
211 21.6002 492.43 489.58 13.29
212 21.6501 475.96 489.23 13.08
213 21.7001 492.36 488.89 13.33
214 21.7502 483.23 488.54 13.19
215 21.8002 512.64 488.20 13.57
216 21.8501 486.48 487.85 13.22
217 21.9001 492.81 487.51 13.32
218 21.9501 459.81 487.17 12.82
219 22.0001 482.88 486.82 13.13
220 22.0501 494.63 486.48 13.26
221 22.1001 480.00 486.14 13.06
222 22.1501 495.80 485.80 13.31
223 22.2001 514.48 485.45 13.58
224 22.2501 503.00 485.11 13.44
225 22.3002 500.35 484.77 13.41
226 22.3501 467.86 484.43 12.94
227 22.4001 485.42 484.09 13.22
228 22.4501 488.74 483.75 13.26
229 22.5001 505.29 483.41 13.48
230 22.5501 472.60 483.07 13.03
231 22.6001 482.60 482.73 13.59
232 22.6501 487.28 482.38 13.67
233 22.7002 470.98 482.04 13.42
234 22.7501 463.93 481.70 13.30
235 22.8001 468.47 481.36 13.40
236 22.8501 466.49 481.03 13.32
237 22.9001 486.61 480.69 13.68
238 22.9501 483.60 480.35 13.60
239 23.0002 486.33 480.01 13.66
240 23.0501 489.28 479.67 13.69
241 23.1001 479.52 479.33 13.54
242 23.1501 469.36 478.99 13.41
243 23.2001 477.14 478.66 13.48
244 23.2501 499.25 478.32 13.79
245 23.3001 466.68 477.98 13.30
246 23.3501 469.52 477.65 13.36
247 23.4001 487.12 477.31 13.60
248 23.4501 463.06 476.97 13.30
249 23.5001 497.60 476.64 13.86
250 23.5501 477.77 476.30 13.49
251 23.6001 468.66 475.96 13.36
252 23.6501 454.80 475.63 13.22
253 23.7001 468.73 475.30 13.35
254 23.7501 463.02 474.96 13.32
255 23.8001 470.16 474.63 13.40
256 23.8501 480.20 474.29 13.47
257 23.9001 496.82 473.96 13.69
258 23.9502 466.96 473.62 13.27
259 24.0001 474.84 473.29 13.35
260 24.0501 488.00 472.96 13.52
261 24.1001 472.10 472.63 13.37
262 24.1501 450.09 472.29 12.99
263 24.2001 469.70 471.96 13.34
264 24.2502 452.38 471.63 13.11
265 24.3001 466.70 471.30 13.27
266 24.3501 480.16 470.97 13.45
267 24.4001 474.18 470.64 13.39
268 24.4501 467.76 470.31 13.28
269 24.5001 467.73 469.98 13.27
270 24.5501 458.76 469.59 13.10
271 24.6001 477.23 469.26 13.36
272 24.6501 460.18 468.93 13.14
273 24.7001 489.76 468.61 13.55
274 24.7501 449.46 468.28 13.01
275 24.8001 475.88 467.96 13.35
276 24.8501 477.45 467.63 13.39
277 24.9001 478.75 467.31 13.48
278 24.9501 452.86 466.98 13.03
279 25.0001 467.33 466.66 13.25
280 25.0501 471.61 466.33 13.34
281 25.1001 485.25 466.01 16.85
282 25.1440 462.97 465.73 13.03
283 25.1940 471.77 465.40 13.20
284 25.2440 459.11 465.08 12.95
285 25.2940 452.43 464.76 12.87
286 25.3440 467.86 464.44 13.10
287 25.3940 462.74 464.12 13.04
288 25.4440 460.05 463.80 12.97
289 25.4940 475.72 463.48 13.24
290 25.5440 440.79 463.16 12.68
291 25.5940 481.58 462.84 13.30
292 25.6439 466.92 462.52 13.11
293 25.6940 459.67 462.21 12.91
294 25.7440 456.51 461.89 12.87
295 25.7940 459.98 461.57 12.90
296 25.8440 456.51 461.26 12.90
297 25.8940 461.62 460.94 12.94
298 25.9440 460.02 460.63 12.98
299 25.9940 451.30 460.31 12.89
300 26.0440 445.32 460.00 12.70
301 26.0940 460.03 459.68 13.00
302 26.1440 471.60 459.37 13.20
303 26.1940 454.04 459.06 12.88
304 26.2440 444.03 458.75 12.76
305 26.2940 452.11 458.44 12.90
306 26.3440 446.92 458.13 12.56
307 26.3940 445.23 457.82 12.57
308 26.4440 443.83 457.51 12.54
309 26.4940 438.06 457.20 12.42
310 26.5440 449.35 456.89 12.62
311 26.5940 447.32 456.58 12.61
312 26.6440 438.91 456.28 12.45
313 26.6940 432.16 455.97 12.41
314 26.7440 439.77 455.78 12.48
315 26.7940 444.42 455.47 12.55
316 26.8440 440.19 455.17 12.44
317 26.8940 452.71 454.87 12.67
318 26.9440 464.74 454.57 12.81
319 26.9939 457.68 454.27 12.71
320 27.0439 435.77 453.97 12.35
321 27.0940 444.79 453.67 12.49
322 27.1440 461.70 453.38 12.75
323 27.1940 437.78 453.08 12.42
324 27.2440 436.06 452.78 12.40
325 27.2940 455.60 452.49 12.71
326 27.3440 472.71 452.20 12.97
327 27.3940 446.73 451.90 12.57
328 27.4440 460.88 451.61 12.79
329 27.4940 441.94 451.32 12.55
330 27.5440 443.69 451.03 12.55
331 27.5940 446.42 450.74 12.70
332 27.6440 451.17 450.45 12.80
333 27.6940 449.89 450.16 12.79
334 27.7440 437.85 449.87 12.59
335 27.7940 440.60 449.58 12.64
336 27.8440 447.74 449.30 12.73
337 27.8940 440.27 449.01 12.62
338 27.9440 441.09 448.73 12.67
339 27.9940 451.62 448.45 12.83
340 28.0440 448.14 448.17 12.77
341 28.0940 443.02 447.88 12.69
342 28.1440 453.96 447.60 12.83
343 28.1939 450.04 447.33 12.80
344 28.2439 444.46 447.05 12.70
345 28.2939 440.41 446.77 12.60
346 28.3440 450.52 446.49 12.74
347 28.3940 439.44 446.22 12.58
348 28.4440 431.83 445.95 12.48
349 28.4939 422.31 445.67 12.36
350 28.5440 416.10 445.40 12.28
351 28.5940 444.75 445.13 12.70
352 28.6440 442.62 444.87 12.69
353 28.6940 440.78 444.60 12.66
354 28.7439 439.72 444.33 12.65
355 28.7940 435.77 444.07 12.57
356 28.8455 446.13 443.80 10.79
357 28.9001 451.88 443.51 12.68
358 28.9501 439.19 443.25 12.52
359 29.0001 446.64 442.99 12.62
360 29.0501 446.60 442.74 12.60
361 29.1001 457.73 442.48 12.77
362 29.1501 453.84 442.23 12.71
363 29.2001 429.16 441.98 12.39
364 29.2501 446.21 441.73 12.62
365 29.3001 444.32 441.49 12.56
366 29.3501 446.67 441.24 12.61
367 29.4001 434.00 441.00 12.42
368 29.4501 450.71 440.77 12.60
369 29.5001 435.29 440.53 12.42
370 29.5501 442.02 440.30 12.47
371 29.6001 443.28 440.07 12.49
372 29.6501 436.11 439.85 12.41
373 29.7001 447.71 439.63 12.59
374 29.7501 455.92 439.41 12.73
375 29.8001 436.02 439.20 12.45
376 29.8501 428.04 439.00 12.30
377 29.9001 463.38 438.80 12.84
378 29.9501 427.95 438.62 12.35
379 30.0001 437.53 438.45 12.44
380 30.0501 449.64 438.30 12.63
381 30.0997 443.27 438.17 12.24
382 30.1497 428.50 438.08 12.01
383 30.1997 425.91 438.03 11.98
384 30.2497 433.11 438.04 12.08
385 30.2997 445.01 438.13 12.26
386 30.3497 438.31 438.32 12.14
387 30.3997 425.84 438.63 11.97
388 30.4497 424.75 439.10 11.94
389 30.4997 460.61 439.74 12.44
390 30.5497 440.40 440.61 12.17
391 30.5997 443.97 441.71 12.21
392 30.6497 432.91 443.09 12.07
393 30.6997 439.98 444.79 12.13
394 30.7497 446.82 446.82 12.23
395 30.7997 465.06 449.22 12.45
396 30.8497 490.64 452.03 12.82
397 30.8997 492.34 455.29 12.84
398 30.9497 473.84 459.03 12.65
399 30.9997 497.64 463.32 12.94
400 31.0497 492.77 468.19 12.92
401 31.0997 510.85 473.67 13.09
402 31.1497 515.01 479.79 13.17
403 31.1997 531.15 486.51 13.43
404 31.2497 519.75 493.75 13.26
405 31.2997 542.49 501.36 13.56
406 31.3462 541.87 508.55 13.33
407 31.3962 561.02 516.09 13.56
408 31.4463 554.47 523.04 13.46
409 31.4962 565.28 528.90 13.59
410 31.5462 539.38 533.20 13.26
411 31.5962 595.66 535.46 13.96
412 31.6462 580.53 535.30 13.79
413 31.6962 561.30 532.51 13.52
414 31.7463 566.54 527.11 13.61
415 31.7962 545.88 519.41 13.36
416 31.8462 563.48 509.97 13.56
417 31.8962 532.91 499.46 13.16
418 31.9462 506.53 488.61 12.82
419 31.9962 491.56 478.05 12.64
420 32.0462 481.33 468.25 12.48
421 32.0962 447.71 459.55 12.02
422 32.1462 438.69 452.10 11.88
423 32.1962 459.77 445.95 12.25
424 32.2462 452.32 441.04 12.11
425 32.2962 443.16 437.21 11.96
426 32.3462 425.55 434.31 11.77
427 32.3962 410.84 432.15 11.56
428 32.4462 441.71 430.54 12.00
429 32.4962 415.76 431.26 11.62
430 32.5462 426.13 430.40 11.78
431 32.5922 408.52 429.80 11.71
432 32.6423 417.13 429.27 11.89
433 32.6923 435.04 428.83 12.13
434 32.7422 419.60 428.46 11.85
435 32.7923 427.50 428.14 12.00
436 32.8423 425.90 427.84 11.97
437 32.8923 431.08 427.56 12.05
438 32.9422 411.42 427.30 11.78
439 32.9923 412.65 427.06 11.78
440 33.0423 413.40 426.83 11.79
441 33.0922 422.13 426.61 11.91
442 33.1422 408.49 426.40 11.70
443 33.1922 426.12 426.20 11.95
444 33.2422 421.41 426.01 11.88
445 33.2922 433.76 425.82 12.01
446 33.3422 428.83 425.65 11.98
447 33.3922 438.34 425.48 12.14
448 33.4422 431.39 425.32 12.05
449 33.4922 442.28 425.16 12.19
450 33.5423 424.25 425.02 11.96
451 33.5922 425.25 424.87 11.95
452 33.6422 420.07 424.74 11.90
453 33.6922 424.45 424.61 11.95
454 33.7422 427.53 424.49 12.01
455 33.7922 414.17 424.38 11.82
456 33.8426 417.35 424.27 11.58
457 33.8926 445.86 424.17 12.01
458 33.9427 423.00 424.08 11.67
459 33.9926 423.15 423.99 11.64
460 34.0426 419.36 423.91 11.61
461 34.0927 425.41 423.84 11.70
462 34.1426 429.29 423.78 11.73
463 34.1926 421.47 423.73 11.64
464 34.2427 425.40 437.27 11.72
465 34.2926 436.27 437.53 11.86
466 34.3426 423.00 437.80 11.66
467 34.3926 432.52 438.10 11.80
468 34.4426 425.42 438.42 11.69
469 34.4926 451.83 438.76 12.04
470 34.5426 447.09 439.12 11.97
471 34.5926 448.93 439.51 11.98
472 34.6426 446.16 439.92 11.98
473 34.6926 460.42 440.37 12.20
474 34.7426 461.65 440.84 12.21
475 34.7926 469.20 441.35 12.33
476 34.8426 462.76 441.89 12.22
477 34.8926 471.39 442.46 12.37
478 34.9426 464.89 443.07 12.27
479 34.9926 481.92 443.73 12.53
480 35.0426 480.88 444.43 12.50
481 35.0961 465.46 445.23 12.06
482 35.1461 459.37 446.03 11.95
483 35.1961 461.19 446.88 12.00
484 35.2461 473.44 447.80 12.15
485 35.2961 483.43 448.78 12.26
486 35.3461 496.42 449.83 12.45
487 35.3961 496.18 450.96 12.40
488 35.4461 489.10 452.17 12.36
489 35.4961 506.08 453.48 12.57
490 35.5461 483.60 454.89 12.27
491 35.5961 465.64 456.42 12.02
492 35.6461 473.55 458.07 12.12
493 35.6961 443.12 459.88 11.68
494 35.7461 447.67 461.88 11.78
495 35.7961 467.68 464.09 12.01
496 35.8461 455.88 466.59 11.86
497 35.8961 432.39 469.46 11.56
498 35.9461 437.94 472.80 11.63
499 35.9961 436.17 476.81 11.64
500 36.0461 449.49 481.70 11.83
501 36.0961 461.80 487.78 11.96
502 36.1461 468.54 495.46 12.13
503 36.1961 480.11 505.25 12.23
504 36.2461 486.61 517.76 12.37
505 36.2961 524.99 533.74 12.86
506 36.3501 552.08 555.87 13.10
507 36.4001 557.01 581.93 13.18
508 36.4501 598.88 614.44 13.70
509 36.5001 611.45 654.50 13.83
510 36.5501 677.15 703.37 14.58
511 36.6001 716.68 762.21 15.02
512 36.6501 780.32 832.21 15.70
513 36.7001 842.28 914.58 16.38
514 36.7501 934.31 1010.34 17.25
515 36.8001 1011.36 1120.02 17.99
516 36.8500 1112.70 1243.57 18.92
517 36.9000 1246.56 1380.53 20.06
518 36.9500 1415.32 1528.65 21.45
519 37.0000 1557.25 1684.27 22.57
520 37.0500 1742.47 1842.02 24.00
521 37.1001 1964.33 1994.56 25.61
522 37.1501 2102.66 2133.14 26.49
523 37.2000 2181.67 2247.96 26.93
524 37.2500 2249.30 2329.37 27.38
525 37.3001 2271.09 2368.67 27.55
526 37.3500 2248.74 2359.74 27.36
527 37.4001 2164.90 2300.72 26.82
528 37.4501 2092.65 2195.15 26.33
529 37.5000 1991.16 2052.20 25.62
530 37.5501 1889.96 1884.64 24.89
531 37.6001 1682.37 1706.94 23.44
532 37.6501 1524.48 1532.21 22.27
533 37.7001 1355.83 1371.36 20.93
534 37.7500 1162.41 1232.78 19.29
535 37.8001 1080.29 1121.66 18.59
536 37.8501 994.15 1041.61 17.81
537 37.9001 969.92 994.53 17.64
538 37.9501 918.58 981.61 17.19
539 38.0001 944.26 1004.20 17.49
540 38.0501 1036.81 1064.27 18.41
541 38.1000 1219.27 1164.95 20.09
542 38.1500 1306.36 1310.99 20.89
543 38.2000 1526.90 1508.58 22.77
544 38.2500 1771.56 1765.23 24.76
545 38.3000 2077.41 2089.59 27.09
546 38.3500 2431.61 2490.95 29.51
547 38.4001 2805.01 2978.76 31.94
548 38.4500 3289.40 3561.63 34.90
549 38.5000 3802.18 4247.15 37.80
550 38.5501 4502.34 5039.87 41.60
551 38.6000 5212.34 5937.41 45.15
552 38.6500 6221.47 6932.73 49.84
553 38.7001 7315.36 8006.79 54.75
554 38.7500 8559.15 9127.74 60.07
555 38.8000 9862.01 10251.70 65.59
556 38.8500 10927.50 11319.90 72.69
557 38.9001 11885.60 12265.10 76.83
558 38.9501 12686.30 13012.80 80.48
559 39.0000 13059.50 13490.70 82.29
560 39.0501 13008.20 13639.70 81.98
561 39.1001 12916.10 13422.10 81.63
562 39.1501 12572.80 12836.10 80.33
563 39.2000 11693.50 11921.10 76.29
564 39.2501 10983.70 10753.80 73.35
565 39.3001 9807.87 9435.87 67.90
566 39.3500 8473.00 8067.14 61.72
567 39.4000 6972.70 6734.39 54.13
568 39.4500 5685.85 5503.39 47.73
569 39.5000 4491.08 4418.62 41.38
570 39.5500 3597.86 3501.26 36.29
571 39.6000 2811.20 2755.08 31.49
572 39.6501 2164.64 2169.73 27.12
573 39.7000 1590.98 1725.64 22.85
574 39.7500 1198.94 1398.14 19.64
575 39.8001 976.97 1162.53 17.65
576 39.8500 857.65 996.34 16.49
577 39.9000 832.81 880.02 16.25
578 39.9501 745.96 798.55 15.36
579 40.0000 713.36 740.68 15.00
580 40.0500 720.43 698.38 15.08
581 40.1056 657.48 663.28 14.48
582 40.1556 647.99 638.61 14.41
583 40.2056 614.24 618.31 13.96
584 40.2556 592.60 601.09 13.70
585 40.3056 577.33 586.13 13.52
586 40.3556 575.50 572.94 13.49
587 40.4056 573.24 561.17 13.50
588 40.4556 575.54 550.60 13.53
589 40.5056 559.86 541.03 13.34
590 40.5556 536.80 532.35 13.02
591 40.6056 528.88 524.46 12.93
592 40.6555 514.05 517.24 12.76
593 40.7056 540.26 513.63 13.04
594 40.7556 511.34 507.62 12.65
595 40.8056 511.16 502.10 12.66
596 40.8556 507.39 497.00 12.59
597 40.9056 490.41 492.30 12.39
598 40.9556 487.57 487.95 12.39
599 41.0056 476.21 483.92 12.24
600 41.0556 496.67 480.17 12.50
601 41.1056 480.47 476.69 12.32
602 41.1556 476.45 473.45 12.26
603 41.2056 464.86 470.42 12.10
604 41.2556 475.56 467.60 12.21
605 41.3056 485.38 464.96 12.38
606 41.3572 463.49 462.41 12.35
607 41.4072 462.73 460.10 12.32
608 41.4572 469.14 457.93 12.45
609 41.5072 480.46 455.90 12.57
610 41.5572 491.93 453.99 12.74
611 41.6072 454.77 452.19 12.20
612 41.6572 466.82 450.50 12.43
613 41.7072 457.05 448.91 12.26
614 41.7572 480.54 447.41 12.63
615 41.8072 475.62 446.00 12.53
616 41.8572 474.66 444.68 12.48
617 41.9072 494.56 443.43 12.78
618 41.9572 493.66 442.25 12.71
619 42.0072 490.20 441.14 12.68
620 42.0572 490.07 440.10 12.68
621 42.1072 504.66 439.12 12.89
622 42.1572 502.29 438.20 12.88
623 42.2072 496.16 437.34 12.77
624 42.2572 525.82 436.53 13.17
625 42.3072 519.37 435.77 13.16
626 42.3572 547.67 435.07 13.52
627 42.4072 546.71 432.77 13.49
628 42.4572 546.13 432.20 13.50
629 42.5072 531.79 431.67 13.25
630 42.5572 524.96 431.18 13.20
631 42.6072 519.84 430.74 13.30
632 42.6572 501.26 430.34 13.05
633 42.7072 516.52 429.99 13.26
634 42.7572 487.82 429.68 12.84
635 42.8072 494.72 429.42 12.93
636 42.8572 494.16 429.19 12.91
637 42.9072 487.40 429.02 12.82
638 42.9572 476.38 428.89 12.70
639 43.0072 457.41 428.80 12.44
640 43.0572 461.80 428.76 12.51
641 43.1072 457.55 428.78 12.44
642 43.1572 441.90 428.84 12.23
643 43.2072 438.25 428.96 12.12
644 43.2572 439.83 429.14 12.14
645 43.3072 428.67 429.38 11.98
646 43.3572 431.33 429.68 12.02
647 43.4072 431.79 430.05 12.05
648 43.4572 432.78 430.49 12.06
649 43.5072 433.89 431.02 12.09
650 43.5572 452.80 431.63 12.36
651 43.6072 426.40 432.33 11.98
652 43.6572 424.83 433.14 12.00
653 43.7072 438.34 434.06 12.18
654 43.7572 445.10 435.11 12.29
655 43.8072 447.60 436.30 12.30
656 43.8473 432.00 437.37 12.23
657 43.8973 431.61 438.86 12.25
658 43.9473 434.56 440.55 12.30
659 43.9973 433.47 442.48 12.28
660 44.0473 444.92 444.71 12.48
661 44.0973 434.53 447.28 12.30
662 44.1473 441.54 438.66 12.38
663 44.1973 435.35 442.54 12.32
664 44.2473 470.70 447.26 12.84
665 44.2973 464.47 453.14 12.73
666 44.3473 479.70 460.68 12.93
667 44.3972 498.02 470.57 13.20
668 44.4472 507.47 483.76 13.34
669 44.4972 515.95 501.51 13.46
670 44.5472 533.43 525.48 13.61
671 44.5973 594.38 557.73 14.47
672 44.6473 652.96 600.82 15.25
673 44.6973 696.85 657.68 15.82
674 44.7473 785.38 731.71 16.85
675 44.7973 833.86 826.52 17.48
676 44.8473 937.67 945.43 18.56
677 44.8973 994.68 1091.68 19.13
678 44.9473 1176.23 1267.26 20.92
679 44.9973 1347.80 1472.50 22.45
680 45.0473 1579.32 1705.66 24.39
681 45.0935 1840.65 1941.68 32.39
682 45.1369 2019.68 2176.94 28.48
683 45.1870 2293.69 2450.89 30.44
684 45.2369 2603.43 2715.04 32.71
685 45.2869 2793.37 2951.81 34.02
686 45.3369 2991.03 3142.15 35.38
687 45.3869 3025.83 3267.28 35.54
688 45.4369 3183.17 3311.48 36.67
689 45.4870 3158.85 3265.56 36.55
690 45.5369 3144.20 3130.05 36.45
691 45.5869 2967.13 2916.54 35.28
692 45.6369 2768.33 2645.83 33.85
693 45.6869 2418.75 2342.51 31.36
694 45.7369 2136.34 2031.76 29.30
695 45.7869 1834.49 1733.07 26.98
696 45.8369 1594.78 1461.63 24.92
697 45.8869 1285.05 1226.06 22.10
698 45.9369 1041.88 1030.13 19.78
699 45.9869 879.25 873.55 18.15
700 46.0370 762.40 752.73 16.83
701 46.0869 615.32 662.79 14.99
702 46.1369 519.92 597.51 13.77
703 46.1869 517.09 551.27 13.74
704 46.2369 459.97 518.93 12.93
705 46.2869 474.50 496.45 13.14
706 46.3369 452.11 480.69 12.66
707 46.3869 446.11 469.36 12.55
708 46.4369 464.83 460.97 12.87
709 46.4869 437.26 454.49 12.47
710 46.5369 447.74 449.28 12.59
711 46.5870 427.40 444.94 12.28
712 46.6369 436.96 441.25 12.39
713 46.6869 415.46 438.03 12.15
714 46.7369 417.68 435.20 12.12
715 46.7869 408.10 432.68 12.07
716 46.8369 416.42 430.44 12.06
717 46.8869 418.97 428.43 12.18
718 46.9369 421.19 426.62 12.17
719 46.9869 420.44 424.99 12.16
720 47.0369 408.30 423.53 11.99
721 47.0869 419.58 422.20 12.11
722 47.1369 408.80 421.00 11.97
723 47.1869 405.09 419.92 11.91
724 47.2369 390.71 418.95 11.74
725 47.2869 394.76 418.07 11.82
726 47.3369 397.07 417.29 11.81
727 47.3869 402.32 416.58 11.93
728 47.4369 409.05 415.95 12.01
729 47.4869 400.68 415.39 11.92
730 47.5369 413.44 414.90 12.10
731 47.5913 400.68 414.43 11.86
732 47.6413 421.29 414.07 12.11
733 47.6913 396.89 413.77 11.74
734 47.7413 401.14 413.53 11.80
735 47.7913 393.86 413.34 11.71
736 47.8413 413.03 413.21 11.98
737 47.8913 397.17 413.14 11.75
738 47.9413 412.73 413.12 11.99
739 47.9913 403.29 413.17 11.85
740 48.0413 401.91 413.27 11.84
741 48.0913 388.51 413.44 11.64
742 48.1413 407.48 413.68 11.93
743 48.1912 401.40 413.99 11.83
744 48.2412 393.89 414.38 11.71
745 48.2912 382.47 414.86 11.50
746 48.3413 401.97 415.43 11.76
747 48.3913 394.59 416.12 11.69
748 48.4413 395.48 416.93 11.70
749 48.4912 386.67 417.89 11.57
750 48.5413 406.05 419.03 11.89
751 48.5913 404.34 420.41 11.85
752 48.6413 407.02 422.09 11.88
753 48.6913 390.46 424.21 11.65
754 48.7412 416.17 426.93 12.04
755 48.7913 431.15 430.51 12.25
756 48.8435 424.63 435.58 10.64
757 48.9000 411.31 443.31 11.88
758 48.9500 458.73 452.92 12.56
759 49.0000 453.06 466.15 12.44
760 49.0500 461.80 484.28 12.59
761 49.1000 507.80 508.81 13.24
762 49.1500 523.69 541.47 13.42
763 49.2000 581.38 584.13 14.18
764 49.2500 613.88 638.66 14.61
765 49.3000 677.51 706.45 15.37
766 49.3500 754.72 788.36 16.28
767 49.4000 815.18 884.27 16.97
768 49.4500 965.87 992.56 18.50
769 49.5000 1084.20 1109.90 19.65
770 49.5500 1238.40 1231.15 21.24
771 49.6000 1316.73 1349.37 21.92
772 49.6500 1432.90 1456.20 22.85
773 49.7000 1513.70 1542.55 23.54
774 49.7500 1531.38 1599.57 23.77
775 49.8000 1546.74 1619.94 23.85
776 49.8500 1550.29 1599.54 23.86
777 49.9000 1529.16 1539.01 23.74
778 49.9500 1463.61 1444.36 23.20
779 50.0000 1359.68 1325.70 22.29
780 50.0500 1211.09 1194.50 20.94
781 50.1000 1124.73 1061.56 25.42
782 50.1450 1001.22 947.62 19.85
783 50.1950 876.05 832.89 18.50
784 50.2450 729.53 734.27 16.72
785 50.2950 697.03 653.06 16.33
786 50.3450 655.64 588.77 15.80
787 50.3950 526.66 536.99 14.12
788 50.4450 511.29 500.82 13.88
789 50.4950 463.62 474.82 13.20
790 50.5450 425.93 456.55 12.64
791 50.5950 438.42 443.84 12.81
792 50.6450 414.65 435.00 12.46
793 50.6950 399.01 428.75 12.22
794 50.7450 413.50 424.23 12.41
795 50.7950 397.05 420.82 12.14
796 50.8450 405.32 418.15 12.24
797 50.8950 435.95 415.97 12.77
798 50.9450 414.71 414.13 12.41
799 50.9950 401.54 412.54 12.25
800 51.0451 405.90 411.15 12.32
801 51.0950 423.29 409.92 12.59
802 51.1450 400.15 408.82 12.22
803 51.1950 388.76 407.83 12.05
804 51.2450 386.23 406.94 12.00
805 51.2950 374.70 406.14 11.82
806 51.3425 404.92 405.44 15.30
807 51.3892 426.66 404.81 12.77
808 51.4392 408.18 404.20 12.48
809 51.4892 379.61 403.64 12.02
810 51.5392 391.29 403.12 12.22
811 51.5892 383.86 402.65 12.09
812 51.6392 389.10 402.21 12.15
813 51.6892 422.78 401.81 12.74
814 51.7392 433.48 401.43 12.91
815 51.7892 384.09 401.09 12.09
816 51.8392 402.00 400.77 12.38
817 51.8892 383.89 400.47 12.08
818 51.9392 379.79 400.20 11.99
819 51.9892 389.57 400.21 12.14
820 52.0392 385.05 399.97 12.04
821 52.0892 382.33 399.76 12.01
822 52.1392 400.86 399.55 12.33
823 52.1892 399.97 399.36 12.32
824 52.2392 405.24 399.18 12.42
825 52.2892 380.91 399.02 12.01
826 52.3392 362.85 398.86 11.72
827 52.3892 423.22 398.72 12.71
828 52.4392 378.03 398.58 11.99
829 52.4892 391.60 398.45 12.24
830 52.5392 406.58 398.33 12.46
831 52.5902 402.78 398.22 12.28
832 52.6402 397.60 398.12 12.19
833 52.6902 392.81 398.02 12.10
834 52.7402 395.40 397.93 12.12
835 52.7902 405.60 397.84 12.31
836 52.8402 403.97 397.76 12.29
837 52.8902 388.96 397.69 12.05
838 52.9402 401.70 397.62 12.26
839 52.9902 393.66 397.56 12.09
840 53.0402 400.42 397.50 12.23
841 53.0902 392.37 397.44 12.10
842 53.1402 409.77 397.39 12.37
843 53.1902 397.85 397.34 12.19
844 53.2402 423.06 397.30 12.53
845 53.2901 362.72 397.26 11.55
846 53.3402 395.29 397.22 12.08
847 53.3902 412.96 397.19 12.35
848 53.4402 408.44 397.16 12.34
849 53.4902 380.50 397.14 11.89
850 53.5402 408.62 397.11 12.34
851 53.5902 416.42 397.10 12.49
852 53.6402 409.26 397.08 12.35
853 53.6902 407.89 397.07 12.33
854 53.7402 401.68 397.06 12.24
855 53.7902 403.33 397.05 12.26
856 53.8426 413.17 397.05 10.61
857 53.8952 394.51 397.05 11.78
858 53.9452 415.12 397.06 12.11
859 53.9952 410.59 397.06 12.02
860 54.0452 402.12 397.08 11.86
861 54.0952 412.40 397.09 12.03
862 54.1452 403.91 397.11 11.96
863 54.1951 389.79 397.13 11.72
864 54.2452 424.70 397.16 12.24
865 54.2952 399.21 397.19 11.86
866 54.3451 397.08 397.22 11.81
867 54.3951 396.00 397.26 11.77
868 54.4451 380.42 397.31 11.58
869 54.4951 413.54 397.36 12.06
870 54.5451 391.19 397.41 11.66
871 54.5951 392.60 397.47 11.66
872 54.6452 395.30 397.54 11.76
873 54.6952 377.65 396.46 11.48
874 54.7451 391.49 396.57 11.72
875 54.7951 408.71 396.69 12.01
876 54.8452 413.85 396.81 12.07
877 54.8951 375.51 396.95 11.46
878 54.9452 386.06 397.10 11.66
879 54.9951 397.43 397.25 11.82
880 55.0452 369.27 397.43 11.37
881 55.0952 370.52 397.62 11.41
882 55.1179 393.86 397.71 21.08
883 55.1570 379.55 397.88 11.54
884 55.2070 391.62 398.12 11.73
885 55.2570 408.83 398.39 11.96
886 55.3070 394.63 398.69 11.76
887 55.3570 405.15 399.03 11.95
888 55.4070 392.30 399.43 11.74
889 55.4570 403.21 399.90 11.94
890 55.5070 393.10 400.48 11.77
891 55.5570 399.81 401.21 11.86
892 55.6069 418.47 402.17 12.15
893 55.6569 406.36 403.46 11.96
894 55.7069 412.91 405.24 12.03
895 55.7569 403.50 407.72 11.89
896 55.8069 411.23 412.84 11.96
897 55.8569 425.06 417.71 12.18
898 55.9070 443.86 424.36 12.51
899 55.9569 436.53 433.25 12.42
900 56.0069 448.94 444.86 12.59
901 56.0570 461.31 459.56 12.76
902 56.1069 449.21 477.50 12.60
903 56.1570 493.26 498.62 13.25
904 56.2070 505.05 522.38 13.41
905 56.2569 557.06 547.77 14.12
906 56.3070 594.52 573.38 14.61
907 56.3629 612.98 599.96 14.67
908 56.4130 620.97 619.48 14.82
909 56.4630 660.14 632.80 15.29
910 56.5130 649.13 638.11 15.15
911 56.5630 617.73 634.45 14.74
912 56.6130 624.36 622.05 14.79
913 56.6629 655.15 602.41 15.19
914 56.7130 604.12 577.89 14.55
915 56.7630 585.76 551.09 14.33
916 56.8130 558.30 524.33 13.98
917 56.8629 515.36 499.37 13.38
918 56.9129 500.90 477.32 13.19
919 56.9629 453.77 458.79 12.52
920 57.0129 440.90 443.90 12.33
921 57.0629 429.05 432.41 12.11
922 57.1129 440.43 423.88 12.31
923 57.1629 417.10 417.75 11.98
924 57.2129 415.29 413.47 11.99
925 57.2629 423.29 410.55 12.10
926 57.3130 392.89 408.56 11.65
927 57.3629 394.58 407.23 11.65
928 57.4129 406.89 406.31 11.85
929 57.4630 378.11 405.68 11.43
930 57.5129 411.70 405.23 11.95
931 57.5629 420.13 404.91 12.05
932 57.6129 402.97 404.68 12.85
933 57.6629 407.16 404.52 12.90
934 57.7130 407.43 404.41 12.81
935 57.7629 377.04 404.35 12.25
936 57.8130 387.97 404.33 12.51
937 57.8630 401.25 404.35 12.70
938 57.9129 400.50 404.41 12.66
939 57.9629 380.12 404.49 12.38
940 58.0130 410.44 404.62 12.90
941 58.0630 420.33 404.77 13.06
942 58.1129 416.13 404.96 12.89
943 58.1629 412.59 405.18 12.91
944 58.2129 404.49 405.43 12.72
945 58.2629 398.19 405.72 12.64
946 58.3129 403.11 406.04 12.77
947 58.3629 405.63 406.40 12.67
948 58.4129 409.65 406.80 12.84
949 58.4629 414.05 407.25 12.93
950 58.5129 398.92 407.74 12.63
951 58.5630 407.79 408.28 12.83
952 58.6129 405.65 408.88 12.79
953 58.6629 421.33 409.54 13.07
954 58.7129 445.09 410.26 13.43
955 58.7629 409.09 411.07 12.86
956 58.8129 420.26 411.96 13.14
957 58.8569 425.49 412.82 12.76
958 58.9070 427.10 413.90 12.88
959 58.9570 414.48 415.11 12.59
960 59.0070 380.16 416.45 12.07
961 59.0570 414.15 417.96 12.69
962 59.1070 406.71 419.68 12.51
963 59.1569 425.80 421.63 12.78
964 59.2069 418.27 423.90 12.58
965 59.2570 402.55 426.58 12.47
966 59.3070 402.30 429.82 12.35
967 59.3569 444.16 433.89 13.09
968 59.4069 440.99 439.16 13.03
969 59.4569 418.85 446.27 12.76
970 59.5069 452.59 456.09 13.16
971 59.5569 437.77 469.93 13.03
972 59.6069 479.50 489.55 13.51
973 59.6570 518.85 517.23 14.09
974 59.7069 542.51 555.70 14.49
975 59.7569 601.12 608.11 15.23
976 59.8069 660.34 677.54 16.06
977 59.8569 757.39 766.44 17.22
978 59.9069 824.28 876.33 18.00
979 59.9570 928.50 1006.46 19.02
980 60.0069 1150.74 1153.35 21.24
981 60.0569 1330.96 1310.50 22.87
982 60.0999 1452.58 1446.19 25.58
983 60.1499 1632.67 1593.64 27.04
984 60.2000 1739.77 1716.31 27.77
985 60.2499 1839.67 1799.72 28.68
986 60.2999 1869.53 1832.18 28.85
987 60.3499 1833.72 1807.42 28.56
988 60.3999 1799.49 1727.67 28.34
989 60.4499 1746.43 1603.61 27.83
990 60.5000 1620.34 1450.96 26.86
991 60.5499 1423.30 1286.59 25.07
992 60.5999 1280.99 1124.60 23.85
993 60.6499 1129.69 975.17 22.37
994 60.6999 927.28 844.88 20.26
995 60.7499 773.45 736.76 18.48
996 60.7999 720.19 650.91 17.76
997 60.8499 642.52 585.45 16.81
998 60.8999 563.24 537.31 15.75
999 60.9499 538.70 502.93 15.35
1000 60.9999 471.96 478.91 14.39
1001 61.0499 480.93 462.30 14.63
1002 61.0999 460.76 450.82 14.19
1003 61.1499 458.60 442.72 14.19
1004 61.1999 428.45 436.84 13.70
1005 61.2499 452.54 432.39 14.05
1006 61.2999 419.89 428.64 13.59
1007 61.3499 439.63 425.76 13.19
1008 61.3999 435.74 423.33 13.16
1009 61.4500 434.86 421.24 13.12
1010 61.4999 441.88 419.41 13.29
1011 61.5499 424.94 417.79 12.93
1012 61.5999 468.65 416.35 13.59
1013 61.6499 433.64 415.06 13.04
1014 61.6999 435.71 413.91 13.21
1015 61.7500 439.20 412.87 13.20
1016 61.7999 435.68 411.93 13.11
1017 61.8499 434.46 411.08 13.11
1018 61.8999 437.61 410.30 13.19
1019 61.9499 475.78 411.30 13.76
1020 61.9999 449.48 410.70 13.37
1021 62.0499 420.86 410.15 12.85
1022 62.0999 415.74 409.65 12.77
1023 62.1499 417.73 409.20 12.85
1024 62.1999 433.71 408.79 13.06
1025 62.2499 412.99 408.42 12.74
1026 62.2999 416.26 408.08 12.85
1027 62.3499 418.56 407.77 12.87
1028 62.3999 413.49 407.49 12.75
1029 62.4499 424.38 407.24 12.93
1030 62.4999 419.48 407.01 12.89
1031 62.5499 412.16 406.80 12.78
1032 62.5999 411.75 406.62 13.26
1033 62.6499 392.50 406.45 12.97
1034 62.7000 436.03 406.30 13.72
1035 62.7499 429.58 406.17 13.59
1036 62.7999 409.00 406.05 13.28
1037 62.8499 429.59 405.96 13.63
1038 62.8999 406.86 405.87 13.22
1039 62.9499 414.02 405.80 13.43
1040 63.0000 425.03 405.74 13.50
1041 63.0499 400.95 405.70 13.15
1042 63.0999 411.67 405.67 13.27
1043 63.1499 393.25 405.65 12.91
1044 63.1999 396.67 405.64 12.99
1045 63.2499 415.56 405.64 13.30
1046 63.2999 405.86 405.66 13.09
1047 63.3499 418.42 405.69 13.33
1048 63.3999 400.43 405.73 13.07
1049 63.4499 385.56 405.78 12.77
1050 63.4999 422.76 405.84 13.46
1051 63.5499 413.23 405.92 13.33
1052 63.5999 415.64 406.01 13.31
1053 63.6499 400.71 406.11 13.11
1054 63.6999 399.66 406.22 13.11
1055 63.7499 395.20 406.35 12.98
1056 63.8064 408.74 406.51 11.23
1057 63.8586 410.92 406.68 12.49
1058 63.9086 410.24 406.86 12.46
1059 63.9586 398.90 407.05 12.29
1060 64.0086 392.68 407.26 12.16
1061 64.0586 389.38 407.49 12.10
1062 64.1086 409.74 407.74 12.42
1063 64.1586 392.62 408.02 12.19
1064 64.2086 392.33 408.31 12.18
1065 64.2586 409.00 408.63 12.47
1066 64.3086 402.77 408.98 12.30
1067 64.3586 393.11 409.36 12.15
1068 64.4085 425.83 409.78 12.67
1069 64.4586 414.12 410.23 12.49
1070 64.5085 400.34 410.72 12.25
1071 64.5586 407.51 411.25 12.34
1072 64.6086 429.88 411.83 12.66
1073 64.6586 396.77 412.47 12.23
1074 64.7086 424.87 413.17 12.65
1075 64.7586 408.69 413.94 12.42
1076 64.8086 430.42 414.78 12.75
1077 64.8586 404.51 415.72 12.34
1078 64.9086 407.07 416.75 12.40
1079 64.9586 424.45 417.89 12.69
1080 65.0086 397.46 417.67 12.29
1081 65.0586 386.90 419.13 12.09
1082 65.1086 416.08 420.75 12.58
1083 65.1586 406.96 422.58 12.37
1084 65.2086 406.34 424.65 12.37
1085 65.2586 403.23 427.04 12.32
1086 65.3086 406.94 429.82 12.36
1087 65.3586 424.58 433.15 12.68
1088 65.4086 421.59 437.24 12.61
1089 65.4586 416.56 442.54 12.53
1090 65.5086 415.64 449.54 12.55
1091 65.5586 466.92 459.20 13.29
1092 65.6086 442.64 472.88 12.92
1093 65.6585 465.19 492.52 13.29
1094 65.7086 491.53 520.64 13.62
1095 65.7586 526.11 560.38 14.09
1096 65.8086 552.57 615.22 14.44
1097 65.8586 604.91 688.64 15.18
1098 65.9086 709.93 783.47 16.54
1099 65.9586 817.86 900.74 17.85
1100 66.0086 968.82 1039.39 19.58
1101 66.0586 1137.15 1194.63 21.33
1102 66.1086 1256.62 1357.54 22.47
1103 66.1586 1454.03 1515.87 24.37
1104 66.2086 1575.07 1653.57 25.49
1105 66.2586 1646.16 1753.81 26.16
1106 66.3086 1684.56 1801.39 26.54
1107 66.3609 1729.75 1785.25 27.69
1108 66.4109 1663.11 1708.45 27.12
1109 66.4610 1659.19 1583.72 26.99
1110 66.5109 1512.66 1429.21 25.54
1111 66.5610 1352.30 1262.78 23.97
1112 66.6109 1184.12 1100.04 22.22
1113 66.6610 1012.30 951.59 20.35
1114 66.7110 851.99 823.64 18.50
1115 66.7610 764.42 718.91 17.44
1116 66.8110 641.26 637.03 15.81
1117 66.8609 593.24 575.62 15.16
1118 66.9109 521.33 531.07 14.15
1119 66.9609 503.78 499.71 13.95
1120 67.0109 483.11 478.00 13.57
1121 67.0609 463.89 463.08 13.31
1122 67.1109 436.86 452.71 12.90
1123 67.1609 434.87 445.32 12.93
1124 67.2109 402.60 439.86 12.36
1125 67.2610 408.23 435.63 12.47
1126 67.3109 415.01 432.23 12.63
1127 67.3609 453.72 429.41 13.26
1128 67.4109 409.09 427.00 12.53
1129 67.4610 418.51 424.91 12.65
1130 67.5109 416.80 423.08 12.65
1131 67.5534 410.78 421.69 15.73
1132 67.6034 445.37 420.23 16.45
1133 67.6459 420.35 419.11 12.94
1134 67.6960 414.58 417.93 12.89
1135 67.7460 419.77 416.87 12.93
1136 67.7959 428.41 415.91 13.08
1137 67.8459 406.31 415.05 12.72
1138 67.8960 426.43 414.27 13.04
1139 67.9460 419.66 413.57 12.91
1140 67.9960 394.51 412.93 12.50
1141 68.0460 409.18 412.36 12.74
1142 68.0959 416.01 411.83 12.86
1143 68.1459 417.65 411.36 12.93
1144 68.1959 399.11 410.92 12.56
1145 68.2459 395.58 410.53 12.51
1146 68.2959 400.60 410.17 12.56
1147 68.3459 403.05 409.85 12.62
1148 68.3959 410.61 409.55 12.72
1149 68.4459 391.20 409.29 12.48
1150 68.4959 407.36 409.05 12.75
1151 68.5460 396.48 408.84 12.56
1152 68.5959 392.91 408.65 12.47
1153 68.6459 398.58 408.49 12.62
1154 68.6959 390.70 408.36 12.46
1155 68.7459 393.01 408.24 12.48
1156 68.7959 392.62 408.15 12.48
1157 68.8459 427.27 408.10 12.97
1158 68.8960 388.57 408.07 12.35
1159 68.9460 425.01 408.09 12.98
1160 68.9959 393.61 408.16 12.45
1161 69.0459 424.66 408.32 12.94
1162 69.0960 415.65 408.59 12.76
1163 69.1459 383.76 409.02 12.26
1164 69.1959 414.74 409.70 12.82
1165 69.2459 412.41 410.70 12.78
1166 69.2960 402.52 412.14 12.60
1167 69.3459 411.57 414.11 12.72
1168 69.3959 405.64 416.69 12.63
1169 69.4459 413.88 419.93 12.77
1170 69.4959 415.36 423.80 12.76
1171 69.5459 418.07 428.16 12.77
1172 69.5959 435.59 432.76 13.09
1173 69.6460 472.62 437.22 13.67
1174 69.6959 437.39 441.06 13.12
1175 69.7459 442.60 443.78 13.23
1176 69.7959 447.18 444.93 13.26
1177 69.8459 487.21 444.30 13.87
1178 69.8959 468.02 442.01 13.64
1179 69.9459 462.37 438.48 13.51
1180 69.9959 470.42 434.27 13.64
1181 70.0459 436.59 429.92 13.10
1182 70.0885 454.70 426.42 14.08
1183 70.1385 422.63 422.85 13.63
1184 70.1885 444.84 420.07 13.90
1185 70.2385 444.50 418.23 13.92
1186 70.2885 441.03 417.46 13.89
1187 70.3385 441.82 417.86 13.85
1188 70.3885 462.61 419.60 14.25
1189 70.4385 464.78 422.85 14.31
1190 70.4885 449.35 427.80 14.11
1191 70.5385 458.70 434.64 14.12
1192 70.5885 469.64 443.42 14.34
1193 70.6385 462.01 454.02 14.15
1194 70.6885 453.00 466.05 14.08
1195 70.7385 490.88 478.79 14.63
1196 70.7885 488.72 491.16 14.54
1197 70.8385 495.26 501.77 14.57
1198 70.8885 501.90 507.57 14.79
1199 70.9385 459.53 510.44 14.09
1200 70.9885 466.79 508.17 14.24
1201 71.0385 489.07 501.14 14.66
1202 71.0885 475.16 490.56 14.40
1203 71.1385 464.85 478.04 14.24
1204 71.1885 454.28 465.01 14.13
1205 71.2385 439.09 453.05 13.88
1206 71.2885 427.39 442.05 13.69
1207 71.3413 439.13 432.36 11.80
1208 71.3948 413.73 424.67 13.36
1209 71.4448 411.33 419.27 13.22
1210 71.4948 400.43 415.35 13.07
1211 71.5448 411.75 412.57 13.34
1212 71.5948 388.74 410.67 12.88
1213 71.6448 406.21 409.37 13.22
1214 71.6948 393.52 408.48 13.04
1215 71.7448 414.11 407.86 13.36
1216 71.7948 413.14 407.42 13.28
1217 71.8448 407.17 407.09 13.24
1218 71.8948 379.23 406.84 12.78
1219 71.9448 413.00 406.64 13.38
1220 71.9948 395.97 406.47 13.03
1221 72.0448 404.91 406.33 13.07
1222 72.0948 414.71 406.22 13.32
1223 72.1448 400.68 406.13 13.09
1224 72.1948 396.14 406.05 13.01
1225 72.2448 418.65 405.99 13.45
1226 72.2948 412.10 405.95 13.28
1227 72.3448 417.24 405.91 13.38
1228 72.3948 419.68 405.88 13.48
1229 72.4448 421.17 405.87 13.44
1230 72.4948 430.87 405.86 13.76
1231 72.5448 416.40 405.86 13.38
1232 72.5948 396.11 405.86 13.23
1233 72.6448 415.83 405.88 13.51
1234 72.6948 400.42 405.89 13.33
1235 72.7448 412.50 405.92 13.43
1236 72.7948 411.07 405.95 13.36
1237 72.8448 424.45 405.99 13.71
1238 72.8948 405.33 406.03 13.40
1239 72.9448 407.28 406.08 13.36
1240 72.9948 415.65 406.13 13.49
1241 73.0448 418.37 406.18 13.57
1242 73.0948 429.42 406.25 13.78
1243 73.1448 406.96 406.31 13.42
1244 73.1948 423.69 406.39 13.60
1245 73.2448 421.43 406.46 13.55
1246 73.2948 375.74 406.55 12.70
1247 73.3448 430.69 406.64 13.72
1248 73.3948 394.22 406.74 13.09
1249 73.4448 383.56 406.85 12.97
1250 73.4948 377.56 406.96 12.84
1251 73.5448 418.74 407.08 13.70
1252 73.5948 408.75 407.21 13.42
1253 73.6448 405.39 407.35 13.35
1254 73.6948 422.61 407.50 13.68
1255 73.7448 438.66 407.67 13.99
1256 73.7948 435.01 407.85 13.86
1257 73.8499 417.54 408.06 12.52
1258 73.8999 419.54 408.27 12.57
1259 73.9499 399.08 408.50 12.22
1260 73.9999 425.77 408.75 12.62
1261 74.0499 420.99 409.02 12.56
1262 74.0999 422.66 409.32 12.60
1263 74.1499 399.89 409.66 12.22
1264 74.1999 429.26 410.03 12.73
1265 74.2499 418.86 410.39 12.56
1266 74.2999 414.09 410.86 12.43
1267 74.3498 430.15 411.38 12.70
1268 74.3998 424.50 411.96 12.68
1269 74.4498 417.57 412.64 12.49
1270 74.4998 432.51 413.43 12.71
1271 74.5498 411.74 414.38 12.33
1272 74.5999 430.29 416.24 12.67
1273 74.6499 449.79 417.76 12.98
1274 74.6998 442.88 419.79 12.87
1275 74.7498 420.69 422.64 12.54
1276 74.7999 463.88 426.72 13.18
1277 74.8499 428.49 432.63 12.68
1278 74.8998 462.50 441.17 13.18
1279 74.9499 463.12 453.23 13.18
1280 74.9998 464.27 469.77 13.20
1281 75.0547 478.76 493.99 11.76
1282 75.1064 503.19 523.00 14.06
1283 75.1564 547.68 556.46 14.64
1284 75.2064 587.03 593.82 15.18
1285 75.2564 614.74 632.58 15.58
1286 75.3064 666.03 668.98 16.22
1287 75.3564 672.47 698.12 16.31
1288 75.4064 675.17 715.38 16.31
1289 75.4564 742.90 717.09 17.12
1290 75.5064 702.74 702.76 16.71
1291 75.5564 676.66 675.37 16.33
1292 75.6064 687.03 639.79 16.42
1293 75.6563 626.10 601.09 15.67
1294 75.7063 591.38 563.22 15.17
1295 75.7563 558.67 545.46 14.73
1296 75.8064 537.01 516.76 14.42
1297 75.8564 513.78 493.80 14.05
1298 75.9064 508.07 476.34 14.02
1299 75.9563 480.49 463.67 13.64
1300 76.0063 463.38 454.86 13.44
1301 76.0564 499.18 448.94 13.94
1302 76.1063 466.02 445.10 13.49
1303 76.1564 470.15 442.67 13.56
1304 76.2063 464.15 441.18 13.48
1305 76.2563 474.23 440.30 13.56
1306 76.3064 459.92 439.82 13.40
1307 76.3544 450.09 439.62 12.88
1308 76.4045 456.92 439.61 13.02
1309 76.4545 441.27 439.75 12.77
1310 76.5045 452.51 440.03 12.90
1311 76.5545 455.86 440.42 12.93
1312 76.6045 466.16 440.91 13.13
1313 76.6545 461.98 441.50 13.06
1314 76.7045 456.82 442.18 13.00
1315 76.7545 457.29 442.96 13.00
1316 76.8045 435.39 443.82 12.68
1317 76.8544 442.21 444.76 12.76
1318 76.9044 449.14 445.80 12.86
1319 76.9544 453.39 446.92 12.89
1320 77.0044 446.90 448.14 12.77
1321 77.0545 426.11 449.46 12.44
1322 77.1044 461.54 450.88 13.02
1323 77.1545 449.54 452.41 12.85
1324 77.2044 466.67 454.05 13.15
1325 77.2545 449.27 455.81 12.90
1326 77.3045 449.01 457.71 12.82
1327 77.3544 471.28 459.75 13.21
1328 77.4045 465.70 461.95 13.10
1329 77.4544 472.54 464.31 13.23
1330 77.5044 478.94 466.86 13.31
1331 77.5545 482.32 469.62 13.37
1332 77.6044 459.24 472.60 12.84
1333 77.6545 445.61 475.84 12.63
1334 77.7045 458.49 479.36 12.81
1335 77.7544 486.46 483.21 13.23
1336 77.8045 473.80 487.45 13.04
1337 77.8545 448.62 492.13 12.72
1338 77.9045 492.58 497.37 13.34
1339 77.9545 491.38 503.35 13.32
1340 78.0045 488.67 510.33 13.22
1341 78.0545 526.84 518.74 13.76
1342 78.1044 509.42 529.22 13.56
1343 78.1544 522.93 542.70 13.72
1344 78.2044 526.07 560.42 13.74
1345 78.2544 566.21 583.91 14.27
1346 78.3044 566.68 614.87 14.22
1347 78.3544 646.51 654.85 15.31
1348 78.4044 675.98 704.89 15.69
1349 78.4545 773.48 765.14 16.87
1350 78.5045 870.05 834.14 17.99
1351 78.5544 951.16 908.55 18.85
1352 78.6044 1074.19 983.11 20.12
1353 78.6544 1088.71 1050.16 20.27
1354 78.7045 1146.74 1101.20 20.83
1355 78.7544 1222.79 1129.00 21.59
1356 78.8055 1160.24 1131.51 20.62
1357 78.8556 1164.26 1113.38 20.70
1358 78.9056 1128.10 1084.16 20.35
1359 78.9556 1098.29 1053.97 19.99
1360 79.0056 1020.84 1031.94 19.20
1361 79.0556 1010.10 1026.31 19.09
1362 79.1056 992.91 1045.42 18.89
1363 79.1556 1028.25 1099.37 19.40
1364 79.2056 1081.68 1202.02 19.91
1365 79.2556 1228.01 1373.21 21.38
1366 79.3056 1408.66 1639.01 23.13
1367 79.3556 1781.68 2032.91 26.58
1368 79.4055 2243.61 2590.84 30.41
1369 79.4555 2984.95 3347.68 36.24
1370 79.5055 3979.35 4322.89 43.30
1371 79.5555 5310.11 5515.60 52.21
1372 79.6056 6790.80 6885.91 61.46
1373 79.6556 8377.85 8349.35 71.11
1374 79.7056 9680.07 9769.81 78.97
1375 79.7555 10717.50 10959.80 85.30
1376 79.8056 11396.10 11708.90 89.43
1377 79.8556 11690.10 11848.70 91.10
1378 79.9056 11554.10 11343.40 90.15
1379 79.9556 11056.30 10311.20 87.10
1380 80.0055 10138.80 8956.95 81.31
1381 80.0556 8821.85 7485.03 73.28
1382 80.0881 8175.49 6545.67 85.44
1383 80.1330 6473.17 5335.62 60.05
1384 80.1830 4992.57 4167.53 50.16
1385 80.2330 3861.15 3216.83 42.41
1386 80.2830 3018.34 2481.93 36.34
1387 80.3330 2290.49 1939.66 30.79
1388 80.3830 1839.22 1554.04 27.05
1389 80.4330 1449.64 1287.09 23.57
1390 80.4830 1148.54 1104.49 20.65
1391 80.5330 1013.89 979.19 19.30
1392 80.5829 895.42 891.23 18.01
1393 80.6329 850.16 827.02 17.52
1394 80.6830 788.96 778.01 16.77
1395 80.7329 759.85 738.98 16.49
1396 80.7829 755.77 706.78 16.36
1397 80.8330 691.16 679.54 15.60
1398 80.8830 664.64 656.12 15.31
1399 80.9330 673.27 635.73 15.45
1400 80.9830 676.12 617.84 15.49
1401 81.0330 649.00 602.05 15.17
1402 81.0829 606.97 588.05 14.60
1403 81.1330 628.56 575.58 14.90
1404 81.1830 589.08 564.42 14.39
1405 81.2330 595.76 554.41 14.47
1406 81.2830 606.60 545.40 14.64
1407 81.3323 557.41 537.36 13.91
1408 81.3823 553.70 529.98 13.82
1409 81.4324 546.67 523.28 13.74
1410 81.4824 537.24 517.20 13.60
1411 81.5324 549.82 511.64 13.78
1412 81.5824 517.38 506.58 13.32
1413 81.6323 518.71 501.94 13.36
1414 81.6824 533.17 497.69 13.57
1415 81.7324 539.15 493.79 13.67
1416 81.7824 528.86 490.21 13.52
1417 81.8323 539.09 486.92 13.67
1418 81.8823 525.37 483.90 13.44
1419 81.9323 536.34 481.12 13.59
1420 81.9823 507.18 478.57 13.18
1421 82.0323 515.88 476.21 13.26
1422 82.0823 519.72 474.06 13.34
1423 82.1323 511.41 472.08 13.26
1424 82.1823 504.23 470.28 13.16
1425 82.2323 509.60 468.63 13.24
1426 82.2824 483.57 467.13 12.87
1427 82.3323 488.77 465.78 12.97
1428 82.3823 469.97 464.57 12.69
1429 82.4324 478.86 463.49 12.80
1430 82.4823 470.52 462.55 12.74
1431 82.5323 486.61 461.74 12.89
1432 82.5872 439.93 461.01 14.68
1433 82.6171 481.22 460.67 15.75
1434 82.6608 445.54 460.27 12.18
1435 82.7108 449.70 459.94 12.32
1436 82.7607 452.38 459.75 12.38
1437 82.8108 447.75 459.72 12.29
1438 82.8608 470.46 459.84 12.56
1439 82.9108 436.20 460.15 12.13
1440 82.9608 422.89 459.97 11.87
1441 83.0108 438.93 460.69 12.14
1442 83.0608 439.40 461.65 12.14
1443 83.1107 448.09 462.88 12.26
1444 83.1607 455.66 464.42 12.33
1445 83.2107 448.53 466.34 12.25
1446 83.2607 458.64 468.70 12.37
1447 83.3108 460.68 471.62 12.42
1448 83.3608 459.88 475.30 12.39
1449 83.4107 468.27 480.04 12.50
1450 83.4607 473.22 486.39 12.61
1451 83.5108 480.72 495.21 12.73
1452 83.5608 469.25 510.33 12.56
1453 83.6108 507.52 529.12 13.09
1454 83.6607 519.39 556.89 13.31
1455 83.7108 531.66 597.48 13.43
1456 83.7608 588.30 655.04 14.20
1457 83.8029 651.32 719.86 18.30
1458 83.8519 720.16 816.18 15.87
1459 83.9019 870.34 938.42 17.61
1460 83.9519 1004.72 1081.68 18.99
1461 84.0019 1180.36 1237.55 20.76
1462 84.0519 1367.28 1376.26 22.59
1463 84.1019 1462.67 1507.90 23.45
1464 84.1519 1504.52 1591.21 23.83
1465 84.2019 1584.58 1605.71 24.63
1466 84.2519 1497.55 1547.29 23.80
1467 84.3019 1517.84 1431.41 23.93
1468 84.3519 1416.30 1283.14 22.98
1469 84.4019 1262.53 1125.68 21.48
1470 84.4519 1079.25 976.21 19.65
1471 84.5019 957.77 845.26 18.37
1472 84.5519 833.17 737.71 17.01
1473 84.6019 724.11 654.22 15.75
1474 84.6519 631.34 592.52 14.63
1475 84.7019 594.42 548.74 14.20
1476 84.7519 546.78 518.56 13.58
1477 84.8019 501.10 498.05 13.00
1478 84.8519 502.82 484.10 13.03
1479 84.9019 459.11 474.40 12.41
1480 84.9519 461.01 467.40 12.51
1481 85.0019 461.85 462.14 12.51
1482 85.0567 460.48 457.66 11.17
1483 85.1096 435.06 454.22 12.80
1484 85.1596 423.17 451.55 12.56
1485 85.2096 444.91 449.32 12.98
1486 85.2596 401.83 447.45 12.24
1487 85.3096 452.69 445.89 13.06
1488 85.3596 435.40 444.58 12.76
1489 85.4096 414.41 443.51 12.47
1490 85.4596 435.94 442.63 12.80
1491 85.5096 429.31 441.94 12.69
1492 85.5596 438.92 441.41 12.88
1493 85.6096 426.35 441.04 12.66
1494 85.6596 419.63 440.80 12.52
1495 85.7096 459.01 440.71 13.13
1496 85.7595 441.92 440.75 12.86
1497 85.8096 417.10 440.92 12.40
1498 85.8596 432.00 441.22 12.65
1499 85.9096 446.18 441.66 12.86
1500 85.9596 419.18 442.24 12.54
1501 86.0096 430.69 442.96 12.68
1502 86.0596 432.53 443.86 12.73
1503 86.1096 427.36 444.92 12.70
1504 86.1596 436.24 446.18 12.87
1505 86.2096 461.95 447.65 13.25
1506 86.2596 435.81 449.37 12.75
1507 86.3096 416.05 451.37 12.46
1508 86.3444 427.23 452.95 14.48
1509 86.3867 439.18 455.10 12.55
1510 86.4367 441.20 458.04 12.57
1511 86.4867 460.38 461.48 12.87
1512 86.5367 474.30 465.54 13.08
1513 86.5867 443.24 470.42 12.54
1514 86.6367 456.79 476.40 12.82
1515 86.6867 469.96 483.99 13.06
1516 86.7367 488.76 494.06 13.36
1517 86.7867 463.93 507.99 12.93
1518 86.8366 523.01 527.99 13.73
1519 86.8866 522.77 557.35 13.73
1520 86.9366 555.03 600.50 14.15
1521 86.9866 633.91 662.77 15.17
1522 87.0366 679.83 749.74 15.64
1523 87.0866 785.07 866.03 16.89
1524 87.1367 922.77 1013.50 18.36
1525 87.1867 1153.98 1189.38 20.70
1526 87.2367 1288.14 1384.48 21.97
1527 87.2867 1507.30 1581.32 23.90
1528 87.3366 1681.34 1752.14 25.45
1529 87.3867 1721.08 1862.87 25.77
1530 87.4367 1795.98 1883.92 26.41
1531 87.4867 1795.53 1808.98 26.39
1532 87.5367 1766.18 1659.43 26.17
1533 87.5866 1581.77 1469.87 24.88
1534 87.6367 1394.71 1271.28 23.24
1535 87.6867 1189.45 1085.41 21.27
1536 87.7367 1059.76 925.20 19.95
1537 87.7867 893.43 795.51 18.21
1538 87.8367 810.91 696.38 17.33
1539 87.8867 737.81 624.15 16.57
1540 87.9367 625.45 573.44 15.17
1541 87.9867 605.12 538.68 14.94
1542 88.0367 554.49 515.06 14.24
1543 88.0866 521.94 498.77 13.81
1544 88.1366 510.38 487.18 13.64
1545 88.1866 498.55 478.56 13.43
1546 88.2366 460.25 470.09 12.90
1547 88.2866 447.52 464.71 12.67
1548 88.3366 475.78 460.23 13.06
1549 88.3867 462.19 456.44 12.91
1550 88.4367 453.05 453.18 12.80
1551 88.4866 442.42 450.35 12.61
1552 88.5367 461.45 447.88 12.93
1553 88.5866 427.08 445.72 12.43
1554 88.6367 432.91 443.81 12.54
1555 88.6867 431.13 442.12 12.52
1556 88.7366 422.56 440.61 12.36
1557 88.7867 430.94 439.27 12.47
1558 88.8462 440.88 437.86 12.24
1559 88.8962 433.30 436.80 12.13
1560 88.9463 432.29 435.85 12.11
1561 88.9962 423.95 435.00 11.99
1562 89.0462 427.31 434.22 12.05
1563 89.0962 415.52 433.55 11.84
1564 89.1462 422.33 432.91 11.98
1565 89.1962 406.99 432.33 11.77
1566 89.2462 431.69 431.80 12.12
1567 89.2962 422.31 431.32 11.99
1568 89.3462 431.20 430.88 12.11
1569 89.3962 423.52 430.47 11.98
1570 89.4462 428.14 430.10 12.04
1571 89.4962 427.99 429.77 12.06
1572 89.5462 433.06 429.45 12.06
1573 89.5962 424.74 429.17 11.99
1574 89.6462 421.29 428.91 11.92
1575 89.6962 420.41 428.67 11.93
1576 89.7462 422.54 428.45 11.99
1577 89.7962 417.17 428.25 11.93
1578 89.8462 409.93 428.06 11.82
1579 89.8962 420.84 427.89 11.93
1580 89.9462 420.50 427.73 11.95
1581 89.9962 408.40 427.59 11.80
1582 90.0462 406.54 427.46 11.71
1583 90.1039 427.60 427.32 12.40
1584 90.1539 434.42 427.22 12.49
1585 90.2039 416.92 427.12 12.25
1586 90.2539 442.72 427.03 12.63
1587 90.3039 416.68 426.95 12.24
1588 90.3539 406.99 426.88 12.04
1589 90.4039 404.42 426.81 12.04
1590 90.4539 428.65 426.75 12.43
1591 90.5039 418.22 426.70 12.24
1592 90.5539 432.57 426.65 12.48
1593 90.6039 415.97 426.61 12.19
1594 90.6538 438.77 426.58 12.60
1595 90.7038 436.60 426.55 12.50
1596 90.7538 432.18 426.53 12.44
1597 90.8038 430.52 426.51 12.40
1598 90.8539 428.85 426.49 12.36
1599 90.9039 434.40 426.48 12.49
1600 90.9539 416.73 426.48 12.21
1601 91.0039 429.08 426.47 12.43
1602 91.0539 414.62 426.48 12.19
1603 91.1039 409.22 426.48 12.11
1604 91.1538 415.28 426.49 12.22
1605 91.2039 413.72 426.50 12.21
1606 91.2539 429.80 426.52 12.46
1607 91.3039 432.36 426.54 12.46
1608 91.3539 411.85 424.23 12.08
1609 91.4039 405.36 424.31 11.94
1610 91.4539 426.67 424.40 12.27
1611 91.5039 408.89 424.49 11.99
1612 91.5539 397.83 424.58 11.83
1613 91.6039 416.81 424.67 12.12
1614 91.6539 421.65 424.76 12.19
1615 91.7039 414.95 424.86 12.12
1616 91.7539 416.17 424.96 12.11
1617 91.8039 426.91 425.06 12.29
1618 91.8539 438.57 425.17 12.45
1619 91.9038 420.36 425.29 12.16
1620 91.9538 423.94 425.41 12.19
1621 92.0038 419.86 425.55 12.11
1622 92.0538 430.45 425.70 12.25
1623 92.1039 412.06 425.86 11.99
1624 92.1539 438.90 426.06 12.39
1625 92.2038 400.83 426.31 11.87
1626 92.2539 433.07 426.63 12.35
1627 92.3039 428.89 427.07 12.30
1628 92.3539 403.62 427.69 11.90
1629 92.4038 432.80 428.54 12.35
1630 92.4539 410.95 438.12 12.03
1631 92.5039 432.85 439.88 12.34
1632 92.5539 438.38 442.01 12.44
1633 92.6039 462.04 444.46 12.73
1634 92.6539 455.83 447.06 12.66
1635 92.7039 454.11 449.55 12.63
1636 92.7539 475.94 451.48 12.92
1637 92.8039 477.90 452.43 12.94
1638 92.8539 469.53 452.20 12.83
1639 92.9039 486.22 451.01 13.09
1640 92.9539 472.75 449.29 12.87
1641 93.0039 466.91 447.48 12.80
1642 93.0539 430.34 445.84 12.30
1643 93.1038 441.18 444.54 12.44
1644 93.1538 449.45 443.62 12.56
1645 93.2038 445.66 443.08 12.51
1646 93.2538 439.02 442.87 12.39
1647 93.3038 420.05 442.92 12.04
1648 93.3539 420.02 443.17 12.08
1649 93.4038 409.78 443.57 11.94
1650 93.4538 396.20 444.07 11.76
1651 93.5039 412.21 444.65 12.00
1652 93.5539 430.89 445.31 12.30
1653 93.6039 405.44 446.02 11.91
1654 93.6538 432.41 446.79 12.30
1655 93.7039 410.36 447.62 11.99
1656 93.7539 434.43 448.52 12.35
1657 93.8039 430.34 449.48 12.27
1658 93.8459 431.24 450.33 12.28
1659 93.8960 429.79 451.42 12.26
1660 93.9460 430.98 452.59 12.28
1661 93.9960 425.02 453.83 12.18
1662 94.0460 440.08 455.18 12.41
1663 94.0960 430.44 456.62 12.26
1664 94.1460 431.23 458.18 12.27
1665 94.1960 435.98 459.85 12.35
1666 94.2460 422.78 461.67 12.16
1667 94.2960 437.63 463.64 12.40
1668 94.3459 415.89 465.77 12.03
1669 94.3959 415.10 468.09 12.04
1670 94.4459 426.41 470.62 12.16
1671 94.4959 437.56 473.40 12.34
1672 94.5459 454.82 476.44 12.57
1673 94.5959 454.92 479.79 12.56
1674 94.6460 431.02 483.48 12.25
1675 94.6959 426.45 487.58 12.20
1676 94.7459 462.18 492.13 12.72
1677 94.7960 447.49 497.22 12.51
1678 94.8459 432.13 502.91 12.28
1679 94.8960 445.67 509.33 12.49
1680 94.9460 461.84 516.60 12.72
1681 94.9959 449.11 524.86 12.52
1682 95.0460 469.72 534.32 12.81
1683 95.0789 491.16 541.32 16.06
1684 95.1096 475.48 548.46 15.82
1685 95.1441 478.17 557.32 16.09
1686 95.1790 480.47 567.32 15.93
1687 95.2096 511.25 577.10 16.39
1688 95.2441 507.11 589.44 16.52
1689 95.2790 562.72 603.67 17.27
1690 95.3096 561.83 617.95 17.22
1691 95.3441 551.39 636.58 17.25
1692 95.3789 601.81 659.03 17.95
1693 95.4096 626.77 682.77 18.27
1694 95.4441 660.36 715.56 18.97
1695 95.4789 678.21 757.64 19.12
1696 95.5096 756.74 804.78 20.18
1697 95.5441 776.51 872.77 20.61
1698 95.5789 877.98 962.66 22.02
1699 95.6096 1022.48 1064.63 23.79
1700 95.6440 1161.84 1210.06 25.41
1701 95.6789 1329.54 1397.79 27.81
1702 95.7096 1552.06 1601.41 30.06
1703 95.7440 1815.87 1876.54 32.25
1704 95.7789 2249.33 2206.30 37.93
1705 95.8096 2587.21 2537.51 40.99
1706 95.8441 3011.80 2947.65 42.86
1707 95.8789 3425.35 3386.71 49.51
1708 95.9096 3702.07 3774.99 51.13
1709 95.9440 4156.15 4178.83 51.56
1710 95.9789 4549.03 4509.76 60.22
1711 96.0096 4584.91 4697.30 58.65
1712 96.0441 4741.45 4758.51 55.86
1713 96.0789 4757.40 4649.79 62.51
1714 96.1096 4643.90 4427.50 58.59
1715 96.1441 4458.71 4074.05 53.81
1716 96.1789 4160.88 3652.64 57.17
1717 96.2096 3895.06 3263.39 51.78
1718 96.2440 3463.45 2833.93 46.22
1719 96.2789 3059.79 2430.05 46.30
1720 96.3096 2725.82 2110.07 41.29
1721 96.3502 2361.81 1748.03 40.26
1722 96.3789 1972.57 1534.24 35.26
1723 96.4234 1729.30 1268.31 27.27
1724 96.4734 1402.89 1050.97 24.01
1725 96.5234 1135.68 901.11 21.16
1726 96.5733 965.34 799.41 19.31
1727 96.6234 816.39 729.92 17.56
1728 96.6733 683.93 681.16 15.88
1729 96.7234 649.97 645.39 15.43
1730 96.7734 607.98 617.97 14.88
1731 96.8233 584.55 596.07 14.56
1732 96.8733 550.57 578.07 14.12
1733 96.9233 560.57 562.93 14.20
1734 96.9733 540.15 550.07 13.91
1735 97.0233 525.57 539.01 13.67
1736 97.0733 499.76 529.44 13.30
1737 97.1233 509.36 521.10 13.50
1738 97.1733 515.90 513.80 13.59
1739 97.2233 483.33 507.36 13.14
1740 97.2734 453.84 501.67 12.69
1741 97.3233 478.92 496.61 13.06
1742 97.3733 464.98 492.10 12.87
1743 97.4233 483.91 488.06 13.13
1744 97.4733 478.15 484.43 13.10
1745 97.5233 451.17 481.15 12.64
1746 97.5658 474.07 478.61 15.91
1747 97.6124 479.00 476.07 13.16
1748 97.6624 476.18 473.57 13.11
1749 97.7124 466.95 471.30 13.01
1750 97.7623 468.65 469.22 13.04
1751 97.8124 462.59 467.32 12.92
1752 97.8624 474.07 465.57 13.08
1753 97.9124 477.88 463.96 13.15
1754 97.9624 488.13 462.48 13.34
1755 98.0124 481.08 461.12 13.20
1756 98.0623 477.44 459.86 13.13
1757 98.1123 468.91 458.69 13.01
1758 98.1623 475.00 457.61 13.07
1759 98.2123 471.89 457.24 13.03
1760 98.2623 470.17 456.32 12.99
1761 98.3123 485.71 455.47 13.20
1762 98.3623 476.43 454.68 13.07
1763 98.4123 461.82 453.95 12.88
1764 98.4623 464.21 453.26 12.94
1765 98.5124 477.70 452.63 13.14
1766 98.5623 469.04 452.04 13.01
1767 98.6123 453.89 451.48 12.79
1768 98.6623 463.82 450.97 12.95
1769 98.7124 452.13 450.49 12.77
1770 98.7623 479.42 450.04 13.18
1771 98.8087 478.61 449.66 16.36
1772 98.8558 476.24 449.29 13.45
1773 98.9057 464.92 448.93 13.28
1774 98.9558 467.47 448.59 13.34
1775 99.0057 451.58 448.28 13.08
1776 99.0558 446.60 447.99 13.00
1777 99.1058 472.45 447.72 13.39
1778 99.1557 498.82 447.47 13.78
1779 99.2057 462.80 447.25 13.26
1780 99.2558 483.90 447.04 13.58
1781 99.3058 475.27 446.85 13.45
1782 99.3557 473.52 446.68 13.40
1783 99.4057 461.23 446.53 13.24
1784 99.4557 441.44 446.40 12.89
1785 99.5057 464.13 446.29 13.23
1786 99.5557 465.45 446.19 13.24
1787 99.6057 460.52 437.59 13.16
1788 99.6557 464.74 437.76 13.26
1789 99.7057 467.36 437.94 13.32
1790 99.7557 451.75 438.13 13.07
1791 99.8058 411.28 438.33 12.46
1792 99.8557 443.89 438.54 12.95
1793 99.9057 422.14 438.77 12.64
1794 99.9557 425.76 439.01 12.70
1795 100.0057 420.71 439.26 12.61
1796 100.0557 448.78 439.54 13.04
1797 100.1005 445.19 439.81 12.80
1798 100.1505 433.06 440.14 12.65
1799 100.2005 454.31 440.49 12.94
1800 100.2505 450.69 440.88 12.88
1801 100.3005 428.78 441.31 12.56
1802 100.3505 438.31 441.79 12.66
1803 100.4005 450.45 442.32 12.88
1804 100.4505 438.18 442.92 12.71
1805 100.5005 448.85 443.60 12.88
1806 100.5505 468.45 444.37 13.16
1807 100.6005 450.29 445.27 12.89
1808 100.6505 429.55 446.30 12.58
1809 100.7004 451.70 447.51 12.87
1810 100.7505 450.95 448.96 12.86
1811 100.8005 413.49 450.71 12.27
1812 100.8505 455.17 452.90 12.90
1813 100.9005 466.82 455.74 13.07
1814 100.9505 465.98 459.60 13.12
1815 101.0005 468.43 465.07 13.14
1816 101.0505 460.74 473.07 13.01
1817 101.1005 464.15 484.83 13.04
1818 101.1505 505.84 501.83 13.70
1819 101.2005 522.34 525.49 13.92
1820 101.2505 542.49 556.59 14.18
1821 101.3005 547.76 594.71 14.24
1822 101.3455 598.48 632.66 15.52
1823 101.3955 635.00 672.98 15.98
1824 101.4455 633.58 701.23 16.02
1825 101.4955 608.62 707.11 15.59
1826 101.5455 629.55 688.47 15.94
1827 101.5955 617.51 652.91 15.76
1828 101.6455 603.61 611.18 15.61
1829 101.6955 567.63 576.67 15.11
1830 101.7455 548.27 543.07 14.81
1831 101.7955 534.35 516.90 14.69
1832 101.8454 508.02 497.77 14.30
1833 101.8954 497.23 484.42 14.13
1834 101.9454 481.29 475.40 13.77
1835 101.9954 499.81 469.37 14.06
1836 102.0454 457.98 465.29 13.46
1837 102.0955 468.28 462.45 13.67
1838 102.1455 505.54 460.41 14.25
1839 102.1955 453.75 458.89 13.48
1840 102.2455 458.09 457.75 13.50
1841 102.2955 446.36 456.88 13.29
1842 102.3455 450.88 456.23 13.41
1843 102.3955 460.87 455.76 13.60
1844 102.4455 459.28 455.44 13.54
1845 102.4955 437.76 455.24 13.23
1846 102.5455 450.47 455.16 13.44
1847 102.5955 440.92 455.18 13.45
1848 102.6455 435.36 455.30 13.35
1849 102.6955 431.30 455.49 13.24
1850 102.7455 425.21 455.77 13.10
1851 102.7955 434.39 456.13 13.26
1852 102.8455 450.79 456.57 13.55
1853 102.8955 469.67 457.09 13.89
1854 102.9455 440.95 457.85 13.38
1855 102.9955 439.67 458.54 13.40
1856 103.0455 437.87 459.31 13.36
1857 103.0954 459.24 460.19 13.70
1858 103.1454 465.04 461.16 13.76
1859 103.1954 430.43 462.25 13.22
1860 103.2454 450.67 463.46 13.49
1861 103.2954 439.16 464.81 13.31
1862 103.3455 454.72 466.32 13.53
1863 103.3955 459.86 468.00 13.62
1864 103.4454 448.88 469.87 13.48
1865 103.4955 452.60 471.97 13.53
1866 103.5455 461.89 474.33 13.69
1867 103.5954 429.12 476.99 13.15
1868 103.6454 466.79 480.00 13.76
1869 103.6955 468.07 483.42 13.81
1870 103.7455 487.96 487.32 14.15
1871 103.8004 467.25 492.29 12.01
1872 103.8518 457.27 497.69 14.03
1873 103.9018 466.11 503.83 14.16
1874 103.9518 496.17 511.03 14.64
1875 104.0018 508.70 519.53 14.84
1876 104.0518 501.54 529.70 14.75
1877 104.1018 486.11 541.98 14.45
1878 104.1518 533.28 557.10 15.28
1879 104.2018 529.78 576.20 15.15
1880 104.2518 548.66 601.20 15.48
1881 104.3018 617.28 635.31 16.48
1882 104.3518 629.28 683.94 16.59
1883 104.4017 716.20 755.26 17.79
1884 104.4517 810.16 860.56 19.02
1885 104.5017 1056.68 1012.79 21.98
1886 104.5518 1267.49 1224.09 24.43
1887 104.6018 1479.40 1499.41 26.68
1888 104.6518 1832.27 1826.94 30.27
1889 104.7018 2021.84 2162.97 32.09
1890 104.7517 2133.22 2418.33 33.23
1891 104.8018 2248.77 2494.64 34.33
1892 104.8518 2259.36 2361.29 34.51
1893 104.9018 2122.94 2081.44 33.15
1894 104.9518 1864.47 1750.44 30.68
1895 105.0018 1654.45 1437.95 28.55
1896 105.0518 1415.09 1178.89 26.11
1897 105.1089 1188.54 958.82 22.74
1898 105.1589 1009.20 824.50 20.80
1899 105.2089 931.47 732.22 19.89
1900 105.2589 780.81 669.64 18.00
1901 105.3089 736.61 626.80 17.44
1902 105.3589 641.90 596.60 16.19
1903 105.4089 593.31 574.63 15.51
1904 105.4589 565.49 558.23 15.14
1905 105.5089 550.05 545.99 14.91
1906 105.5589 525.47 537.22 14.53
1907 105.6089 499.72 531.66 14.14
1908 105.6589 525.76 529.28 14.57
1909 105.7089 526.67 530.02 14.53
1910 105.7589 544.17 533.50 14.73
1911 105.8089 512.95 538.49 14.31
1912 105.8589 520.68 542.38 14.41
1913 105.9089 524.38 541.84 14.54
1914 105.9589 538.16 535.46 14.71
1915 106.0089 511.53 524.78 14.33
1916 106.0589 515.40 512.63 14.40
1917 106.1089 536.69 501.20 14.74
1918 106.1589 513.79 491.55 14.38
1919 106.2089 473.18 483.94 13.79
1920 106.2589 495.59 478.16 14.09
1921 106.3089 493.29 473.82 14.09
1922 106.3560 494.57 470.70 13.80
1923 106.4060 494.51 468.11 13.78
1924 106.4560 483.96 466.02 13.64
1925 106.5060 503.50 464.29 13.94
1926 106.5560 497.53 462.81 13.85
1927 106.6060 481.40 461.52 13.60
1928 106.6560 471.49 460.38 13.46
1929 106.7060 491.42 459.37 13.76
1930 106.7560 468.93 458.46 13.42
1931 106.8060 475.70 457.64 13.53
1932 106.8559 465.57 456.90 13.34
1933 106.9060 472.24 456.22 13.43
1934 106.9559 461.75 455.60 13.29
1935 107.0059 465.31 455.04 13.29
1936 107.0559 485.49 454.51 13.61
1937 107.1060 462.71 454.03 13.30
1938 107.1559 473.70 453.59 13.46
1939 107.2060 455.24 453.18 13.19
1940 107.2560 472.90 452.80 13.45
1941 107.3059 462.61 452.44 13.33
1942 107.3560 467.73 452.11 13.43
1943 107.4059 450.45 451.80 13.13
1944 107.4560 477.08 451.51 13.52
1945 107.5060 458.25 451.24 13.28
1946 107.5512 460.60 451.01 16.07
1947 107.5960 452.80 450.80 13.21
1948 107.6461 454.48 450.57 13.27
1949 107.6961 461.23 450.36 13.34
1950 107.7461 451.45 450.16 13.23
1951 107.7961 446.81 449.98 13.14
1952 107.8461 459.23 444.28 13.29
1953 107.8961 463.92 444.29 13.38
1954 107.9461 470.39 444.68 13.48
1955 107.9961 453.37 444.71 13.28
1956 108.0461 469.50 444.74 13.45
1957 108.0960 462.77 444.77 13.38
1958 108.1460 467.18 444.80 13.49
1959 108.1960 482.20 444.84 13.61
1960 108.2460 445.73 444.88 13.10
1961 108.2960 480.53 444.91 13.57
1962 108.3460 447.35 444.95 13.09
1963 108.3961 468.99 445.00 13.45
1964 108.4460 474.19 445.04 13.55
1965 108.4960 452.93 445.09 13.23
1966 108.5461 454.44 445.14 13.23
1967 108.5960 465.03 445.19 13.40
1968 108.6460 472.64 445.25 13.55
1969 108.6961 446.99 445.31 13.17
1970 108.7460 459.52 445.37 13.33
1971 108.7961 456.90 445.44 13.31
1972 108.8360 419.71 445.49 12.88
1973 108.8860 441.02 445.40 13.20
1974 108.9360 469.89 445.49 13.68
1975 108.9859 443.24 445.59 13.24
1976 109.0360 466.71 445.69 13.61
1977 109.0860 463.98 445.80 13.57
1978 109.1360 448.20 445.92 13.34
1979 109.1860 464.57 446.05 13.57
1980 109.2360 447.46 446.20 13.34
1981 109.2860 458.76 446.36 13.47
1982 109.3359 447.83 446.54 13.34
1983 109.3859 477.07 446.75 13.76
1984 109.4359 432.87 446.98 13.02
1985 109.4859 434.58 447.24 13.09
1986 109.5359 436.59 447.55 13.08
1987 109.5860 474.72 447.90 13.66
1988 109.6360 442.12 448.32 13.19
1989 109.6860 459.26 448.81 13.46
1990 109.7359 442.76 449.41 13.25
1991 109.7860 462.92 450.14 13.53
1992 109.8360 460.44 451.03 13.50
1993 109.8859 447.96 452.16 13.35
1994 109.9360 475.48 453.61 13.75
1995 109.9859 460.31 455.52 13.51
1996 110.0360 477.94 458.14 13.80
1997 110.0835 480.84 461.62 17.21
1998 110.1278 511.68 466.21 14.57
1999 110.1779 477.72 473.70 14.05
2000 110.2279 499.16 484.69 14.35
2001 110.2778 492.33 500.11 14.24
2002 110.3278 521.16 519.47 14.66
2003 110.3779 526.41 537.95 14.77
2004 110.4278 499.72 546.55 14.38
2005 110.4779 533.73 541.05 14.89
2006 110.5278 499.61 526.14 14.39
2007 110.5778 491.80 508.55 14.21
2008 110.6278 490.32 492.56 14.20
2009 110.6778 500.71 479.87 14.36
2010 110.7278 480.81 470.68 14.05
2011 110.7778 468.58 464.28 13.83
2012 110.8278 476.54 459.89 13.93
2013 110.8778 468.98 456.82 13.89
2014 110.9278 457.30 454.62 13.68
2015 110.9778 473.10 452.99 13.95
2016 111.0279 442.14 451.74 13.43
2017 111.0778 468.05 450.77 13.86
2018 111.1278 456.18 454.32 13.71
2019 111.1778 446.23 453.86 13.50
2020 111.2278 445.04 453.51 13.48
2021 111.2778 454.79 453.26 13.67
2022 111.3239 453.96 453.10 16.68
2023 111.3742 466.06 452.99 13.66
2024 111.4242 455.74 452.94 13.52
2025 111.4742 462.39 452.93 13.59
2026 111.5241 467.53 452.97 13.71
2027 111.5742 473.33 453.05 13.76
2028 111.6242 434.21 453.17 13.13
2029 111.6742 456.28 453.33 13.53
2030 111.7242 436.30 453.51 13.20
2031 111.7741 462.13 453.73 13.61
2032 111.8242 471.02 453.99 13.76
2033 111.8741 450.99 454.28 13.41
2034 111.9241 474.15 454.61 13.75
2035 111.9741 487.25 454.97 13.97
2036 112.0241 467.70 455.38 13.65
2037 112.0741 476.93 478.07 13.78
2038 112.1241 467.91 479.31 13.64
2039 112.1741 465.03 480.64 13.65
2040 112.2241 442.27 482.08 13.27
2041 112.2742 463.91 483.62 13.63
2042 112.3241 460.58 485.27 13.60
2043 112.3741 493.61 487.06 14.07
2044 112.4241 465.34 488.98 13.65
2045 112.4742 490.39 491.07 14.06
2046 112.5241 498.35 493.33 14.18
2047 112.5748 466.60 495.83 13.68
2048 112.6249 478.64 498.51 13.91
2049 112.6749 503.30 501.45 14.26
2050 112.7249 486.20 504.67 14.01
2051 112.7749 514.23 508.22 14.42
2052 112.8249 521.52 512.15 14.50
2053 112.8749 513.48 516.52 14.41
2054 112.9249 476.95 521.02 13.83
2055 112.9749 509.82 526.53 14.34
2056 113.0249 516.30 532.77 14.44
2057 113.0749 501.04 539.87 14.20
2058 113.1249 515.70 548.03 14.41
2059 113.1748 515.32 557.49 14.44
2060 113.2248 531.99 568.61 14.66
2061 113.2748 558.61 581.79 15.01
2062 113.3248 557.98 597.71 14.98
2063 113.3749 589.89 617.31 15.43
2064 113.4249 601.03 642.03 15.60
2065 113.4749 626.27 674.27 15.97
2066 113.5248 712.26 717.79 17.15
2067 113.5749 780.01 778.39 17.97
2068 113.6248 872.75 863.85 19.13
2069 113.6749 1015.70 984.05 20.85
2070 113.7249 1201.41 1147.54 22.91
2071 113.7748 1377.59 1355.02 24.73
2072 113.8249 1529.15 1580.47 26.37
2073 113.8636 1652.57 1725.41 33.42
2074 113.8932 1715.40 1792.44 34.46
2075 113.9370 1739.82 1803.18 28.26
2076 113.9869 1753.46 1704.99 28.34
2077 114.0370 1596.42 1544.15 26.75
2078 114.0869 1430.12 1372.78 25.12
2079 114.1369 1350.28 1221.67 24.32
2080 114.1869 1239.66 1105.39 23.17
2081 114.2370 1109.89 1026.76 21.75
2082 114.2870 1013.45 982.18 20.67
2083 114.3369 999.77 965.82 20.52
2084 114.3869 914.54 972.67 19.51
2085 114.4369 913.51 1000.02 19.48
2086 114.4869 995.73 1047.75 20.42
2087 114.5369 995.92 1118.68 20.40
2088 114.5869 1113.74 1219.43 21.70
2089 114.6369 1302.58 1362.18 23.78
2090 114.6869 1479.22 1566.32 25.54
2091 114.7369 1930.37 1860.59 29.85
2092 114.7869 2455.35 2283.19 34.65
2093 114.8370 3107.21 2877.26 40.12
2094 114.8869 4064.44 3678.21 47.90
2095 114.9370 5016.46 4688.89 55.37
2096 114.9869 5926.46 5807.55 62.39
2097 115.0369 6706.54 6776.14 68.30
2098 115.0865 7240.13 7244.15 61.50
2099 115.1405 7420.95 7025.18 71.99
2100 115.1905 7056.66 6302.51 69.29
2101 115.2405 6322.33 5346.63 63.94
2102 115.2905 5433.00 4365.28 57.45
2103 115.3405 4513.63 3485.11 50.74
2104 115.3905 3838.24 2763.97 45.80
2105 115.4405 3163.54 2210.50 40.66
2106 115.4905 2468.67 1803.65 34.91
2107 115.5405 2128.80 1511.13 32.03
2108 115.5904 1767.78 1301.16 28.73
2109 115.6404 1471.30 1148.23 25.73
2110 115.6904 1263.04 1034.27 23.50
2111 115.7404 1085.54 947.11 21.56
2112 115.7905 946.18 878.56 19.91
2113 115.8404 888.01 823.51 19.16
2114 115.8905 796.06 778.42 18.08
2115 115.9404 729.41 740.98 17.26
2116 115.9904 707.91 709.49 16.97
2117 116.0405 703.10 682.74 16.92
2118 116.0904 670.64 659.85 16.49
2119 116.1405 640.58 644.41 16.12
2120 116.1905 641.33 627.35 16.10
2121 116.2404 635.20 612.46 16.03
2122 116.2905 612.03 599.37 15.73
2123 116.3387 614.88 588.21 15.80
2124 116.3887 618.06 577.92 15.87
2125 116.4388 623.49 568.75 15.94
2126 116.4887 601.82 560.57 15.64
2127 116.5387 572.37 553.22 15.20
2128 116.5887 591.39 546.61 15.49
2129 116.6387 581.93 536.03 15.36
2130 116.6887 590.42 530.79 15.47
2131 116.7387 568.06 526.03 15.17
2132 116.7887 562.27 521.71 15.09
2133 116.8387 546.27 517.78 14.82
2134 116.8887 543.35 514.20 14.79
2135 116.9387 534.37 510.93 14.65
2136 116.9887 579.13 507.94 15.28
2137 117.0387 557.46 505.20 14.91
2138 117.0887 556.85 502.69 14.92
2139 117.1387 553.99 500.39 14.89
2140 117.1887 566.47 498.29 15.15
2141 117.2387 578.61 496.36 15.29
2142 117.2887 557.39 494.60 15.01
2143 117.3387 552.26 492.99 14.90
2144 117.3887 549.69 491.53 14.88
2145 117.4387 567.63 490.19 15.17
2146 117.4887 562.72 488.99 15.07
2147 117.5387 533.08 487.90 14.64
2148 117.5817 536.74 487.05 15.64
2149 117.6317 550.90 486.18 15.69
2150 117.6817 527.48 485.40 15.40
2151 117.7317 547.54 484.73 15.74
2152 117.7817 553.92 484.17 15.90
2153 117.8317 550.98 483.70 15.75
2154 117.8817 549.30 483.33 15.67
2155 117.9317 556.49 483.06 15.83
2156 117.9817 550.27 482.90 15.77
2157 118.0317 551.35 458.85 15.75
2158 118.0817 536.51 459.70 15.47
2159 118.1316 546.21 460.61 15.69
2160 118.1816 545.72 461.61 15.60
2161 118.2316 541.21 462.70 15.59
2162 118.2817 573.39 463.89 16.00
2163 118.3317 542.71 465.20 15.59
2164 118.3817 544.00 466.63 15.66
2165 118.4316 526.95 468.20 15.40
2166 118.4817 532.04 469.95 15.47
2167 118.5317 541.49 471.87 15.62
2168 118.5817 485.77 474.01 14.74
2169 118.6317 521.61 476.39 15.27
2170 118.6817 544.39 479.05 15.68
2171 118.7317 541.33 482.04 15.63
2172 118.7817 535.02 485.41 15.53
2173 118.8309 538.28 489.16 15.34
2174 118.8809 521.94 493.49 15.12
2175 118.9309 531.22 498.45 15.18
2176 118.9809 529.54 504.14 15.19
2177 119.0309 536.70 510.75 15.26
2178 119.0809 539.69 518.46 15.37
2179 119.1309 534.18 527.56 15.28
2180 119.1809 537.04 538.49 15.33
2181 119.2309 563.85 551.86 15.72
2182 119.2809 558.18 568.60 15.69
2183 119.3309 599.99 590.15 16.26
2184 119.3808 603.00 620.95 16.35
2185 119.4308 610.77 659.54 16.35
2186 119.4808 695.84 712.08 17.65
2187 119.5309 749.89 783.48 18.36
2188 119.5809 853.48 878.85 19.63
2189 119.6309 964.59 1002.89 21.10
2190 119.6808 1087.32 1158.11 22.52
2191 119.7309 1310.81 1342.98 25.11
2192 119.7809 1520.91 1547.24 27.35
2193 119.8309 1721.15 1747.30 29.44
2194 119.8809 1914.69 1907.10 31.33
2195 119.9309 2011.15 1989.69 32.31
2196 119.9809 1979.62 1978.33 32.02
2197 120.0309 1936.46 1883.49 31.57
2198 120.0846 1794.16 1719.24 29.79
2199 120.1346 1571.66 1538.31 27.49
2200 120.1846 1444.50 1354.08 26.31
2201 120.2346 1307.25 1182.65 24.90
2202 120.2846 1102.79 1032.93 22.56
2203 120.3346 1019.50 909.12 21.61
2204 120.3846 915.58 810.88 20.41
2205 120.4346 845.50 735.20 19.55
2206 120.4846 727.69 678.81 17.89
2207 120.5346 705.69 636.05 17.75
2208 120.5846 627.43 604.00 16.53
2209 120.6345 584.82 579.72 15.99
2210 120.6845 556.59 560.99 15.48
2211 120.7345 555.00 546.26 15.53
2212 120.7845 532.18 534.40 15.12
2213 120.8345 535.42 524.67 15.14
2214 120.8846 520.19 516.55 14.90
2215 120.9345 494.51 509.68 14.44
2216 120.9846 517.58 503.81 14.87
2217 121.0346 478.45 498.75 14.25
2218 121.0845 459.33 494.37 13.97
2219 121.1346 476.48 490.55 14.18
2220 121.1846 480.20 487.21 14.42
2221 121.2346 475.66 484.29 14.19
2222 121.2846 472.62 481.72 14.17
2223 121.3380 461.54 479.32 12.90
2224 121.3880 464.35 477.36 12.96
2225 121.4381 450.80 475.63 12.79
2226 121.4880 470.98 474.12 13.09
2227 121.5380 444.64 472.80 12.68
2228 121.5880 457.27 471.65 12.88
2229 121.6380 475.26 470.67 13.14
2230 121.6880 445.67 469.83 12.72
2231 121.7380 446.74 469.14 12.70
2232 121.7880 466.98 468.58 13.00
2233 121.8380 437.80 468.14 12.56
2234 121.8880 466.36 467.82 12.99
2235 121.9380 460.90 467.63 12.89
2236 121.9880 466.83 467.55 13.00
2237 122.0380 445.72 467.59 12.63
2238 122.0880 461.02 467.76 12.86
2239 122.1380 459.94 468.05 12.89
2240 122.1880 448.08 468.48 12.70
2241 122.2380 473.59 469.05 13.09
2242 122.2880 459.51 469.77 12.91
2243 122.3380 459.45 470.66 12.90
2244 122.3880 431.70 471.72 12.49
2245 122.4380 456.23 472.98 12.85
2246 122.4880 458.38 474.47 12.88
2247 122.5380 483.62 476.21 13.25
2248 122.5856 440.80 478.14 12.51
2249 122.6356 446.18 480.48 12.63
2250 122.6856 444.78 483.22 12.59
2251 122.7356 468.96 486.40 12.96
2252 122.7856 444.04 490.15 12.54
2253 122.8356 468.73 494.58 12.92
2254 122.8856 479.74 499.89 13.07
2255 122.9356 485.77 506.37 13.21
2256 122.9856 459.88 514.43 12.79
2257 123.0356 506.14 524.67 13.47
2258 123.0855 501.23 537.95 13.41
2259 123.1355 543.58 555.45 14.00
2260 123.1855 530.18 578.65 13.78
2261 123.2355 594.57 609.36 14.67
2262 123.2855 615.65 649.57 14.90
2263 123.3355 649.45 701.19 15.33
2264 123.3856 735.12 765.78 16.42
2265 123.4355 859.82 843.95 17.91
2266 123.4855 953.08 934.84 19.02
2267 123.5356 1133.37 1034.85 20.98
2268 123.5855 1323.31 1136.36 22.89
2269 123.6355 1460.83 1227.59 24.29
2270 123.6855 1578.75 1289.60 25.46
2271 123.7355 1631.38 1320.09 25.94
2272 123.7856 1620.86 1310.70 25.86
2273 123.8275 1529.75 1275.28 25.04
2274 123.8775 1505.21 1208.52 24.81
2275 123.9276 1332.75 1125.18 23.10
2276 123.9775 1193.32 1034.99 21.71
2277 124.0276 1092.29 945.50 20.63
2278 124.0776 961.85 862.28 19.25
2279 124.1275 867.86 788.87 18.16
2280 124.1775 763.97 726.87 16.98
2281 124.2276 723.97 676.59 16.46
2282 124.2776 629.53 637.44 15.22
2283 124.3275 609.47 608.19 14.98
2284 124.3775 577.51 587.50 14.54
2285 124.4275 560.54 574.26 14.28
2286 124.4775 529.27 567.61 13.85
2287 124.5275 501.41 567.03 13.42
2288 124.5775 517.24 572.28 13.63
2289 124.6275 491.88 583.30 13.29
2290 124.6775 510.45 600.03 13.55
2291 124.7275 512.29 622.31 13.60
2292 124.7775 531.71 649.54 13.84
2293 124.8275 525.67 680.27 13.77
2294 124.8775 553.24 712.08 14.14
2295 124.9275 581.19 741.12 14.54
2296 124.9775 562.60 762.81 14.29
2297 125.0275 613.30 773.26 14.99
2298 125.0687 577.69 772.12 14.16
2299 125.1187 577.30 760.44 14.18
2300 125.1688 567.94 738.02 14.09
2301 125.2187 526.72 709.09 13.43
2302 125.2688 559.29 676.76 13.94
2303 125.3188 524.31 643.76 13.46
2304 125.3687 501.95 612.12 13.12
2305 125.4187 494.78 583.17 13.05
2306 125.4688 476.93 557.76 12.79
2307 125.5188 459.83 536.20 12.54
2308 125.5687 464.99 518.41 12.58
2309 125.6187 426.08 504.01 12.02
2310 125.6687 427.92 492.54 12.02
2311 125.7187 453.30 483.47 12.42
2312 125.7687 455.47 476.30 12.40
2313 125.8187 430.94 470.63 12.00
2314 125.8687 431.47 466.08 12.05
2315 125.9187 427.73 462.39 12.00
2316 125.9687 426.38 459.33 12.00
2317 126.0188 433.32 456.76 12.15
2318 126.0687 430.98 454.57 12.11
2319 126.1187 422.45 452.66 11.95
2320 126.1687 410.07 450.98 11.82
2321 126.2187 433.86 449.48 12.12
2322 126.2687 413.27 448.15 11.83
2323 126.3155 409.01 447.01 14.50
2324 126.3589 423.06 446.05 12.12
2325 126.4089 409.24 445.03 11.84
2326 126.4589 397.89 444.10 11.69
2327 126.5089 409.07 443.24 11.85
2328 126.5589 422.92 442.46 12.06
2329 126.6089 405.73 441.73 11.84
2330 126.6589 416.96 441.05 12.01
2331 126.7089 420.83 440.43 12.09
2332 126.7589 407.45 439.84 11.82
2333 126.8089 428.82 439.30 12.21
2334 126.8588 426.75 438.79 12.14
2335 126.9089 407.64 438.31 11.81
2336 126.9588 428.42 437.86 12.12
2337 127.0089 404.39 437.45 11.75
2338 127.0589 422.48 437.05 12.02
2339 127.1089 428.94 436.68 12.12
2340 127.1589 410.73 436.33 11.88
2341 127.2089 417.16 436.00 12.00
2342 127.2589 389.06 435.69 11.52
2343 127.3089 417.46 435.40 12.01
2344 127.3589 424.92 435.13 12.09
2345 127.4089 417.89 434.87 11.99
2346 127.4589 411.05 434.63 11.93
2347 127.5089 400.48 434.40 11.79
2348 127.5557 439.19 434.20 14.61
2349 127.6105 413.28 433.99 11.68
2350 127.6605 423.10 433.81 11.89
2351 127.7105 408.82 433.64 11.68
2352 127.7605 402.68 433.48 11.54
2353 127.8105 409.33 433.34 11.65
2354 127.8605 394.22 433.21 11.42
2355 127.9105 401.92 433.10 11.55
2356 127.9605 408.48 433.00 11.63
2357 128.0105 434.51 430.48 12.07
2358 128.0605 427.97 430.47 11.94
2359 128.1105 413.04 430.47 11.73
2360 128.1605 414.48 430.48 11.72
2361 128.2105 423.08 430.51 11.89
2362 128.2605 406.51 430.56 11.58
2363 128.3105 430.74 430.62 11.90
2364 128.3605 411.25 430.70 11.69
2365 128.4105 438.37 430.80 12.10
2366 128.4605 425.10 430.91 11.91
2367 128.5105 425.69 431.06 11.94
2368 128.5605 423.94 431.22 11.88
2369 128.6105 428.31 431.42 11.93
2370 128.6605 418.74 431.64 11.82
2371 128.7105 403.98 431.90 11.59
2372 128.7605 413.39 432.21 11.75
2373 128.8080 422.85 432.52 14.95
2374 128.8576 452.99 432.90 12.72
2375 128.9076 450.26 433.32 12.68
2376 128.9577 430.91 433.80 12.38
2377 129.0076 440.82 434.34 12.54
2378 129.0576 442.73 434.96 12.54
2379 129.1076 409.53 435.65 12.03
2380 129.1576 447.52 436.43 12.64
2381 129.2076 429.03 437.33 12.34
2382 129.2576 432.01 438.34 12.39
2383 129.3076 439.72 439.51 12.51
2384 129.3576 433.07 440.85 12.39
2385 129.4076 431.54 442.42 12.37
2386 129.4576 438.91 444.28 12.48
2387 129.5076 448.90 445.64 12.61
2388 129.5576 441.08 448.38 12.47
2389 129.6076 433.52 451.75 12.35
2390 129.6576 454.45 455.98 12.69
2391 129.7076 431.11 461.33 12.35
2392 129.7576 439.16 468.15 12.48
2393 129.8076 433.06 476.83 12.40
2394 129.8576 457.23 487.81 12.73
2395 129.9076 462.02 501.58 12.84
2396 129.9576 487.80 518.58 13.22
2397 130.0076 486.55 539.17 13.21
2398 130.0576 520.49 563.62 13.67
2399 130.0942 537.21 583.92 17.06
2400 130.1258 553.55 603.03 17.34
2401 130.1695 565.00 631.55 14.31
2402 130.2195 642.89 666.22 15.33
2403 130.2695 679.65 701.42 15.78
2404 130.3195 693.69 734.58 15.96
2405 130.3695 759.49 762.51 16.77
2406 130.4195 772.72 782.16 16.94
2407 130.4695 807.78 791.31 17.36
2408 130.5196 810.99 789.32 17.40
2409 130.5695 785.14 777.12 17.08
2410 130.6195 778.83 756.61 17.00
2411 130.6694 740.44 730.19 16.58
2412 130.7195 719.26 700.08 16.28
2413 130.7695 685.18 668.41 15.85
2414 130.8195 636.69 636.77 15.20
2415 130.8695 588.42 606.50 14.62
2416 130.9195 546.27 578.55 14.04
2417 130.9695 533.64 553.46 13.89
2418 131.0195 535.23 531.51 13.91
2419 131.0695 510.13 512.73 13.55
2420 131.1195 478.44 496.98 13.12
2421 131.1695 486.78 483.95 13.25
2422 131.2195 454.65 473.32 12.78
2423 131.2695 475.77 464.69 13.09
2424 131.3195 456.45 457.71 12.80
2425 131.3487 453.82 454.28 15.83
2426 131.3930 442.85 449.81 12.68
2427 131.4430 453.51 445.65 12.88
2428 131.4930 459.89 442.24 12.93
2429 131.5430 451.17 439.40 12.80
2430 131.5930 457.48 437.02 12.89
2431 131.6430 436.32 434.98 12.57
2432 131.6930 454.41 433.21 12.84
2433 131.7430 466.04 431.66 13.03
2434 131.7930 440.38 430.29 12.63
2435 131.8430 451.55 429.07 12.81
2436 131.8930 429.82 427.96 12.48
2437 131.9429 428.19 426.95 12.42
2438 131.9930 420.33 426.04 12.30
2439 132.0430 426.89 425.19 12.39
2440 132.0930 452.77 424.41 12.76
2441 132.1430 401.76 423.69 12.02
2442 132.1930 422.64 423.02 12.35
2443 132.2430 424.66 422.39 12.39
2444 132.2930 416.17 421.81 12.24
2445 132.3430 439.73 421.26 12.63
2446 132.3930 413.17 420.75 12.21
2447 132.4430 433.06 420.26 12.54
2448 132.4930 416.88 419.80 12.27
2449 132.5430 426.57 419.36 12.45
2450 132.5927 411.86 418.95 12.28
2451 132.6427 412.19 418.56 12.27
2452 132.6927 408.27 418.19 12.21
2453 132.7427 422.29 417.83 12.43
2454 132.7927 421.08 417.49 12.46
2455 132.8427 444.06 417.16 12.75
2456 132.8927 428.14 416.84 12.50
2457 132.9427 427.69 416.54 12.56
2458 132.9927 408.78 416.25 12.23
2459 133.0427 421.33 415.97 12.42
2460 133.0926 412.46 415.70 12.27
2461 133.1426 421.57 415.44 12.42
2462 133.1926 424.84 415.18 12.41
2463 133.2426 425.38 414.94 12.46
2464 133.2926 404.83 414.70 12.12
2465 133.3427 414.34 414.47 12.26
2466 133.3927 432.05 414.25 12.59
2467 133.4427 412.90 414.04 12.25
2468 133.4927 441.10 413.83 12.72
2469 133.5427 432.02 413.63 12.56
2470 133.5927 436.98 413.44 12.62
2471 133.6427 416.39 413.26 12.34
2472 133.6927 438.18 413.08 12.67
2473 133.7427 431.01 412.92 12.55
2474 133.7927 438.88 412.76 12.70
2475 133.8456 406.72 412.61 12.02
2476 133.8956 423.99 412.48 12.32
2477 133.9457 419.85 412.37 12.26
2478 133.9956 438.75 412.28 12.51
2479 134.0456 407.33 412.21 12.02
2480 134.0957 435.42 412.18 12.48
2481 134.1456 414.92 412.19 12.17
2482 134.1956 419.62 412.24 12.24
2483 134.2457 417.93 412.34 12.22
2484 134.2957 410.89 412.50 12.13
2485 134.3456 431.18 412.73 12.41
2486 134.3956 423.66 413.01 12.31
2487 134.4456 429.03 413.36 12.38
2488 134.4956 417.59 413.77 12.19
2489 134.5456 410.51 414.23 12.07
2490 134.5956 427.64 414.71 12.27
2491 134.6456 426.94 415.20 12.30
2492 134.6956 427.28 415.64 12.34
2493 134.7456 421.74 415.99 12.26
2494 134.7957 420.53 416.21 12.25
2495 134.8456 433.57 416.27 12.40
2496 134.8956 420.54 416.16 12.26
2497 134.9456 416.96 415.87 12.19
2498 134.9956 429.45 415.43 12.39
2499 135.0456 421.79 414.88 12.26
2500 135.0959 419.23 414.23 12.10
2501 135.1459 444.70 413.53 12.48
2502 135.1959 444.10 412.80 12.45
2503 135.2458 412.59 412.07 11.97
2504 135.2959 424.25 411.36 12.16
2505 135.3459 425.48 410.67 12.20
2506 135.3958 416.77 410.04 12.04
2507 135.4459 429.45 410.07 12.26
2508 135.4959 417.79 409.54 12.08
2509 135.5459 425.97 409.06 12.19
2510 135.5958 427.79 408.64 12.22
2511 135.6458 413.04 408.25 12.02
2512 135.6958 432.14 407.91 12.26
2513 135.7458 418.13 406.66 12.05
2514 135.7959 441.63 406.40 12.33
2515 135.8458 428.20 406.17 12.12
2516 135.8959 418.13 405.96 12.01
2517 135.9458 425.10 405.77 12.13
2518 135.9958 432.36 405.59 12.28
2519 136.0459 432.68 405.42 12.30
2520 136.0958 409.20 405.27 11.92
2521 136.1459 415.83 405.11 12.04
2522 136.1958 450.28 404.97 12.59
2523 136.2458 423.50 404.83 12.19
2524 136.3003 422.88 404.68 10.47
2525 136.3485 426.38 404.55 11.98
2526 136.3985 418.58 404.42 11.85
2527 136.4485 429.97 404.30 12.02
2528 136.4985 419.87 404.17 11.87
2529 136.5485 443.40 404.05 12.20
2530 136.5985 434.12 403.93 12.07
2531 136.6485 408.34 403.81 11.67
2532 136.6985 439.80 403.69 12.16
2533 136.7485 429.12 403.58 12.00
2534 136.7985 426.56 403.46 11.97
2535 136.8485 425.72 403.35 11.95
2536 136.8984 441.39 403.23 12.19
2537 136.9484 440.54 403.12 12.14
2538 136.9984 428.73 403.01 11.96
2539 137.0484 448.92 402.90 12.25
2540 137.0985 455.56 402.80 12.33
2541 137.1485 439.89 402.69 12.11
2542 137.1984 434.38 402.58 12.06
2543 137.2484 408.83 402.48 11.69
2544 137.2985 435.23 402.38 12.09
2545 137.3484 424.70 402.27 11.91
2546 137.3985 431.68 402.17 12.03
2547 137.4485 433.40 402.07 12.05
2548 137.4985 424.93 401.97 11.92
2549 137.5475 430.90 401.88 10.57
2550 137.5998 420.73 401.77 12.15
2551 137.6499 402.36 401.68 11.87
2552 137.6998 422.98 401.58 12.19
2553 137.7499 415.69 401.49 12.03
2554 137.7998 423.25 401.39 12.19
2555 137.8498 437.20 401.30 12.38
2556 137.8998 450.83 401.21 12.61
2557 137.9499 421.39 401.12 12.14
2558 137.9999 426.36 401.03 12.24
2559 138.0498 419.30 400.95 12.12
2560 138.0998 408.38 400.86 11.93
2561 138.1498 426.30 400.77 12.23
2562 138.1998 422.95 400.69 12.16
2563 138.2498 413.79 400.61 11.96
2564 138.2998 420.06 400.53 12.05
2565 138.3498 428.26 400.45 12.17
2566 138.3998 423.74 400.37 12.19
2567 138.4498 417.01 400.29 12.07
2568 138.4998 423.30 400.22 12.15
2569 138.5499 416.59 400.14 12.02
2570 138.5998 428.90 400.07 12.27
2571 138.6499 408.82 400.00 11.96
2572 138.6998 420.24 399.93 12.10
2573 138.7498 427.64 399.87 12.22
2574 138.7999 433.03 399.80 12.30
2575 138.8484 420.54 399.74 13.57
2576 138.8985 422.02 399.68 13.47
2577 138.9484 404.69 399.62 13.17
2578 138.9984 433.66 399.56 13.69
2579 139.0484 404.33 399.51 13.13
2580 139.0984 414.41 399.46 13.68
2581 139.1484 424.84 399.41 13.74
2582 139.1984 428.28 399.36 13.76
2583 139.2484 402.53 399.32 13.28
2584 139.2984 405.48 399.27 13.46
2585 139.3484 403.48 399.23 13.39
2586 139.3984 429.63 399.20 13.86
2587 139.4484 415.35 399.17 13.37
2588 139.4984 413.57 399.14 13.37
2589 139.5484 445.67 399.11 13.92
2590 139.5984 406.83 399.09 13.23
2591 139.6484 417.65 399.07 13.58
2592 139.6984 419.61 399.06 13.61
2593 139.7484 396.34 399.05 13.11
2594 139.7984 425.16 399.04 13.71
2595 139.8484 410.49 399.04 13.24
2596 139.8984 390.79 400.63 13.14
2597 139.9484 433.60 400.66 13.98
2598 139.9984 406.52 400.69 13.41
2599 140.0407 386.77 400.72 16.73
2600 140.0858 412.10 400.76 13.62
2601 140.1358 414.52 400.82 13.69
2602 140.1858 400.74 400.88 13.36
2603 140.2358 404.71 400.94 13.54
2604 140.2858 401.09 401.02 13.33
2605 140.3358 410.73 401.10 13.37
2606 140.3858 416.65 401.20 13.78
2607 140.4358 407.23 401.30 13.46
2608 140.4858 393.68 401.42 13.16
2609 140.5358 418.40 401.54 13.53
2610 140.5858 397.97 401.68 13.26
2611 140.6358 418.08 401.84 13.59
2612 140.6858 428.29 402.00 13.95
2613 140.7358 399.24 402.19 13.12
2614 140.7858 407.27 402.39 13.34
2615 140.8358 430.21 402.58 13.92
2616 140.8858 427.36 402.82 14.00
2617 140.9358 400.82 403.08 13.44
2618 140.9858 391.75 403.37 13.29
2619 141.0358 394.59 403.67 13.31
2620 141.0858 403.23 404.01 13.35
2621 141.1357 411.72 404.38 13.52
2622 141.1858 412.88 404.78 13.53
2623 141.2358 405.51 405.21 13.28
2624 141.2814 427.57 405.65 17.82
2625 141.3331 411.52 406.19 13.19
2626 141.3832 436.83 406.77 13.83
2627 141.4332 398.72 407.41 13.27
2628 141.4832 375.81 408.11 12.56
2629 141.5332 412.77 408.91 13.48
2630 141.5832 406.98 409.79 13.09
2631 141.6332 431.39 410.80 13.65
2632 141.6832 408.44 411.95 13.20
2633 141.7332 424.51 413.27 13.54
2634 141.7832 414.24 414.81 13.34
2635 141.8331 408.09 416.60 13.06
2636 141.8831 423.65 418.72 13.59
2637 141.9331 411.58 421.23 13.50
2638 141.9831 429.47 424.21 13.47
2639 142.0331 416.27 427.77 13.15
2640 142.0831 414.28 432.00 13.35
2641 142.1332 431.96 437.03 13.48
2642 142.1831 414.95 442.97 13.40
2643 142.2332 421.04 449.95 13.46
2644 142.2832 432.55 458.10 13.79
2645 142.3332 459.04 467.51 14.20
2646 142.3832 444.48 478.29 14.14
2647 142.4332 456.52 490.48 14.13
2648 142.4832 453.84 504.10 14.02
2649 142.5332 483.44 519.12 14.55
2650 142.5819 460.16 534.99 12.31
2651 142.6320 485.14 552.34 12.70
2652 142.6820 512.67 570.44 13.07
2653 142.7319 519.11 588.82 13.14
2654 142.7820 552.18 606.93 13.58
2655 142.8320 558.66 624.01 13.66
2656 142.8820 565.90 639.27 13.75
2657 142.9319 579.80 651.89 13.98
2658 142.9820 585.14 661.21 14.04
2659 143.0320 586.98 666.75 14.05
2660 143.0819 624.13 668.34 14.51
2661 143.1319 603.28 666.05 14.24
2662 143.1819 590.69 660.22 14.06
2663 143.2319 606.62 651.30 14.26
2664 143.2819 575.67 639.86 13.86
2665 143.3319 562.10 626.47 13.67
2666 143.3819 557.21 611.68 13.63
2667 143.4319 513.76 596.02 13.08
2668 143.4819 529.72 579.93 13.30
2669 143.5320 518.01 563.81 13.15
2670 143.5819 499.71 548.03 12.92
2671 143.6319 484.85 532.81 12.73
2672 143.6820 462.76 518.38 12.39
2673 143.7319 465.75 504.92 12.45
2674 143.7819 483.35 492.50 12.72
2675 143.8436 470.51 478.71 12.43
2676 143.8936 466.14 468.79 12.34
2677 143.9437 411.70 459.96 11.60
2678 143.9936 417.13 452.19 11.66
2679 144.0436 421.59 445.40 11.74
2680 144.0936 437.94 439.50 11.93
2681 144.1436 430.11 434.40 11.82
2682 144.1936 435.55 430.03 11.93
2683 144.2437 429.86 426.28 11.82
2684 144.2936 428.89 423.08 11.81
2685 144.3436 410.21 420.34 11.50
2686 144.3936 426.17 418.01 11.78
2687 144.4436 411.80 416.02 11.53
2688 144.4936 423.15 414.32 11.72
2689 144.5436 407.84 412.86 11.42
2690 144.5936 420.71 411.61 11.63
2691 144.6436 409.32 410.53 11.47
2692 144.6936 418.05 409.59 11.62
2693 144.7436 414.51 408.78 11.60
2694 144.7936 414.71 408.08 11.61
2695 144.8436 425.10 407.46 11.72
2696 144.8936 424.02 406.93 11.73
2697 144.9436 427.69 406.46 11.80
2698 144.9936 407.73 406.05 11.49
2699 145.0436 428.86 405.70 11.80
2700 145.0811 404.04 405.47 13.68
2701 145.1244 424.29 405.24 11.61
2702 145.1744 394.70 405.01 11.14
2703 145.2244 400.63 404.82 11.23
2704 145.2744 416.83 404.66 11.47
2705 145.3245 420.26 404.54 11.54
2706 145.3744 418.68 404.46 11.46
2707 145.4244 410.11 404.41 11.40
2708 145.4744 412.49 404.39 11.40
2709 145.5244 410.37 404.40 11.42
2710 145.5744 412.37 404.44 11.38
2711 145.6244 432.87 404.51 11.72
2712 145.6744 418.70 404.61 11.47
2713 145.7244 416.31 404.74 11.44
2714 145.7744 414.91 404.90 11.38
2715 145.8244 438.77 405.09 11.74
2716 145.8744 427.17 405.32 11.59
2717 145.9244 416.60 405.57 11.46
2718 145.9744 428.82 405.86 11.64
2719 146.0244 425.71 406.17 11.61
2720 146.0744 403.84 406.53 11.26
2721 146.1244 435.15 406.92 11.73
2722 146.1744 413.50 407.35 11.42
2723 146.2244 424.52 407.81 11.61
2724 146.2744 430.37 408.32 11.68
2725 146.3200 430.78 408.82 14.29
2726 146.3516 418.19 409.19 14.06
2727 146.3857 417.65 409.61 13.70
2728 146.4200 417.83 410.06 14.09
2729 146.4516 407.77 410.49 13.84
2730 146.4857 437.21 410.99 14.04
2731 146.5200 430.53 411.51 14.26
2732 146.5516 435.20 412.02 14.35
2733 146.5857 430.53 412.59 13.94
2734 146.6200 436.40 413.20 14.44
2735 146.6516 432.85 413.79 14.30
2736 146.6856 414.42 414.46 13.64
2737 146.7200 448.72 415.18 14.63
2738 146.7516 406.97 415.87 13.87
2739 146.7857 435.80 416.65 14.00
2740 146.8200 428.42 417.49 14.26
2741 146.8515 439.70 418.30 14.42
2742 146.8857 430.96 419.23 13.93
2743 146.9199 433.90 420.23 14.36
2744 146.9516 428.37 421.20 14.15
2745 146.9856 433.46 422.31 13.99
2746 147.0200 428.24 423.50 14.19
2747 147.0515 426.42 424.67 14.11
2748 147.0856 408.70 426.02 13.54
2749 147.1200 431.74 427.49 14.24
2750 147.1516 401.14 428.93 13.70
2751 147.1856 407.01 430.61 13.53
2752 147.2199 438.58 432.44 14.41
2753 147.2516 450.63 434.27 14.61
2754 147.2856 443.77 436.40 14.16
2755 147.3200 433.10 438.76 14.36
2756 147.3516 429.73 441.12 14.24
2757 147.3856 417.37 443.90 13.68
2758 147.4200 434.21 446.99 14.38
2759 147.4516 428.14 450.11 14.21
2760 147.4856 443.65 453.81 14.12
2761 147.5200 444.07 457.92 14.55
2762 147.5516 458.25 462.10 14.77
2763 147.5833 468.10 466.70 12.03
2764 147.6334 445.84 474.89 11.72
2765 147.6834 458.87 484.37 11.94
2766 147.7334 451.13 495.32 11.79
2767 147.7834 458.89 507.93 11.90
2768 147.8334 493.85 522.39 12.37
2769 147.8834 505.84 539.27 12.54
2770 147.9333 522.09 557.96 12.76
2771 147.9834 517.09 579.03 12.67
2772 148.0334 559.84 602.55 13.21
2773 148.0833 575.36 628.59 13.40
2774 148.1333 636.90 657.21 14.14
2775 148.1833 656.25 688.33 14.32
2776 148.2333 709.86 721.79 14.95
2777 148.2833 762.22 757.33 15.54
2778 148.3334 817.52 794.55 16.14
2779 148.3834 861.55 832.85 16.57
2780 148.4333 917.01 871.49 17.18
2781 148.4834 958.14 909.55 17.63
2782 148.5334 1031.46 945.94 18.34
2783 148.5834 1074.69 979.38 18.76
2784 148.6333 1112.43 1008.69 19.15
2785 148.6834 1168.41 1032.73 19.70
2786 148.7334 1146.52 1050.57 19.48
2787 148.7834 1187.50 1061.64 19.86
2788 148.8287 1142.68 1065.62 19.21
2789 148.8788 1185.61 1063.44 19.63
2790 148.9288 1155.45 1054.76 19.33
2791 148.9788 1124.63 1040.22 19.04
2792 149.0288 1112.96 1020.57 18.96
2793 149.0788 1116.29 996.66 18.99
2794 149.1288 1023.05 969.35 18.08
2795 149.1787 1009.20 939.46 17.98
2796 149.2288 981.69 907.72 17.72
2797 149.2788 913.80 874.90 17.06
2798 149.3287 866.94 841.61 16.61
2799 149.3787 821.97 808.36 16.14
2800 149.4287 778.09 775.65 15.61
2801 149.4787 729.50 743.86 15.13
2802 149.5287 736.48 713.32 15.23
2803 149.5788 674.07 684.26 14.45
2804 149.6287 651.21 656.91 14.20
2805 149.6787 621.31 631.39 13.89
2806 149.7287 608.11 607.73 13.76
2807 149.7788 599.45 585.99 13.64
2808 149.8287 564.38 566.18 13.18
2809 149.8787 539.96 548.21 12.91
2810 149.9288 541.28 532.02 12.88
2811 149.9787 514.05 517.52 12.53
2812 150.0287 490.61 504.58 12.20
2813 150.0761 499.16 493.65 12.40
2814 150.1261 482.22 483.41 12.13
2815 150.1762 478.66 474.35 12.09
2816 150.2261 454.31 466.38 11.74
2817 150.2762 432.30 459.35 11.45
2818 150.3261 441.57 453.17 11.58
2819 150.3761 421.64 447.73 11.31
2820 150.4261 437.17 442.93 11.51
2821 150.4762 402.98 438.02 11.00
2822 150.5261 430.10 434.29 11.40
2823 150.5761 426.46 430.98 11.33
2824 150.6261 436.63 428.03 11.50
2825 150.6761 427.87 425.40 11.32
2826 150.7261 422.97 423.04 11.27
2827 150.7761 435.18 420.92 11.45
2828 150.8261 418.14 418.99 11.15
2829 150.8761 437.91 417.25 11.44
2830 150.9261 400.12 415.66 10.96
2831 150.9761 405.95 414.20 11.02
2832 151.0261 425.33 412.85 11.29
2833 151.0761 419.29 411.61 11.24
2834 151.1261 408.30 410.46 11.07
2835 151.1761 406.05 409.39 11.05
2836 151.2261 401.02 408.40 10.96
2837 151.2761 408.82 407.47 11.05
2838 151.3244 414.88 406.63 11.00
2839 151.3743 404.94 405.81 10.84
2840 151.4244 383.09 405.04 10.53
2841 151.4743 373.39 404.31 10.42
2842 151.5244 390.33 403.63 10.64
2843 151.5744 403.94 402.99 10.84
2844 151.6243 404.27 402.38 10.84
2845 151.6744 403.78 401.80 10.84
2846 151.7244 390.23 401.26 10.64
2847 151.7744 412.18 400.74 10.97
2848 151.8243 408.08 400.26 10.90
2849 151.8743 393.62 399.79 10.69
2850 151.9243 403.44 399.35 10.83
2851 151.9743 403.61 398.93 10.82
2852 152.0243 418.73 398.54 11.00
2853 152.0743 401.66 398.16 10.75
2854 152.1243 405.76 397.80 10.86
2855 152.1743 402.61 397.45 10.78
2856 152.2243 403.39 397.13 10.82
2857 152.2744 414.77 396.82 11.01
2858 152.3243 422.66 396.52 11.09
2859 152.3743 407.22 396.23 10.89
2860 152.4243 399.65 395.96 10.75
2861 152.4743 406.73 395.71 10.87
2862 152.5244 408.02 395.46 10.88
2863 152.5788 382.74 395.20 10.63
2864 152.6288 406.16 394.98 10.99
2865 152.6788 407.83 394.76 11.00
2866 152.7288 421.94 394.56 11.17
2867 152.7788 418.68 394.36 11.13
2868 152.8288 399.28 394.17 10.85
2869 152.8788 409.10 393.99 11.01
2870 152.9288 398.82 393.82 10.86
2871 152.9788 401.39 393.66 10.92
2872 153.0288 405.28 393.50 10.99
2873 153.0788 395.30 393.35 10.79
2874 153.1288 409.05 393.20 10.96
2875 153.1788 408.23 393.06 10.96
2876 153.2287 387.86 392.93 10.61
2877 153.2788 402.32 392.80 10.83
2878 153.3288 406.30 392.68 10.88
2879 153.3788 405.91 392.56 10.93
2880 153.4288 391.75 392.45 10.74
2881 153.4788 390.45 392.34 10.72
2882 153.5288 390.59 392.24 10.73
2883 153.5788 392.40 392.14 10.73
2884 153.6288 396.08 392.05 10.82
2885 153.6788 392.38 391.95 10.77
2886 153.7288 403.92 391.87 10.92
2887 153.7788 401.85 391.79 10.89
2888 153.8286 400.79 391.70 10.79
2889 153.8786 389.03 391.63 10.61
2890 153.9287 389.01 391.56 10.63
2891 153.9786 401.33 391.49 10.80
2892 154.0286 390.22 391.42 10.60
2893 154.0787 390.57 391.36 10.61
2894 154.1286 392.43 391.29 10.63
2895 154.1786 379.72 391.23 10.48
2896 154.2287 392.92 391.18 10.67
2897 154.2787 405.68 391.13 10.86
2898 154.3286 397.64 391.08 10.72
2899 154.3786 384.09 391.03 10.53
2900 154.4286 405.46 390.98 10.78
2901 154.4786 384.95 390.94 10.51
2902 154.5286 395.64 390.90 10.64
2903 154.5786 400.95 390.86 10.69
2904 154.6286 385.80 390.82 10.51
2905 154.6786 398.44 390.78 10.71
2906 154.7286 367.73 390.75 10.29
2907 154.7787 380.89 390.72 10.50
2908 154.8286 389.52 390.69 10.56
2909 154.8786 386.06 390.66 10.57
2910 154.9286 379.55 390.63 10.44
2911 154.9786 390.52 390.61 10.60
2912 155.0286 379.80 390.59 10.45
2913 155.0815 386.46 390.56 10.44
2914 155.1315 386.30 390.54 10.42
2915 155.1815 398.03 390.53 10.63
2916 155.2315 400.73 390.51 10.64
2917 155.2815 387.62 390.49 10.41
2918 155.3315 393.96 390.48 10.51
2919 155.3815 402.66 390.47 10.63
2920 155.4315 379.81 390.46 10.35
2921 155.4815 384.92 390.45 10.44
2922 155.5315 391.01 390.44 10.49
2923 155.5815 398.24 390.43 10.58
2924 155.6314 397.38 390.42 10.58
2925 155.6815 385.02 390.42 10.38
2926 155.7314 385.93 390.42 10.38
2927 155.7815 405.26 390.42 10.64
2928 155.8315 377.84 390.42 10.26
2929 155.8815 382.92 390.42 10.36
2930 155.9315 384.11 390.42 10.40
2931 155.9815 382.40 390.42 10.37
2932 156.0315 404.97 390.42 10.67
2933 156.0815 368.26 390.43 10.17
2934 156.1315 389.54 390.44 10.48
2935 156.1815 386.70 390.45 10.42
2936 156.2314 379.96 390.45 10.34
2937 156.2815 378.99 390.46 10.31
2938 156.3273 386.89 390.48 10.75
2939 156.3773 399.71 390.49 10.94
2940 156.4273 381.76 390.50 10.67
2941 156.4773 374.13 390.52 10.49
2942 156.5273 378.00 390.54 10.57
2943 156.5773 403.23 390.55 10.97
2944 156.6273 382.58 390.57 10.66
2945 156.6773 388.83 390.60 10.79
2946 156.7273 382.98 390.62 10.68
2947 156.7773 368.36 390.64 10.46
2948 156.8272 378.11 390.67 10.56
2949 156.8772 375.92 390.69 10.56
2950 156.9272 374.07 390.72 10.47
2951 156.9772 386.39 390.75 10.68
2952 157.0273 383.95 390.79 10.62
2953 157.0773 388.13 390.82 10.66
2954 157.1273 387.73 390.86 10.69
2955 157.1772 379.93 390.89 10.67
2956 157.2273 385.13 390.93 10.64
2957 157.2773 375.62 390.97 10.56
2958 157.3273 390.58 391.02 10.75
2959 157.3773 386.74 391.06 10.70
2960 157.4273 392.59 391.11 10.78
2961 157.4773 365.02 389.43 10.38
2962 157.5273 399.58 389.50 10.93
2963 157.5768 392.35 389.58 10.89
2964 157.6267 387.80 389.66 10.80
2965 157.6768 391.77 389.74 10.86
2966 157.7267 377.07 389.82 10.69
2967 157.7767 405.71 389.91 11.09
2968 157.8268 403.59 390.00 11.03
2969 157.8767 367.85 390.09 10.51
2970 157.9267 382.14 390.18 10.74
2971 157.9768 377.48 390.28 10.66
2972 158.0268 392.28 390.39 10.91
2973 158.0767 379.22 390.49 10.69
2974 158.1267 399.70 390.61 10.96
2975 158.1767 369.77 390.72 10.51
2976 158.2267 387.19 390.84 10.75
2977 158.2767 385.14 390.97 10.71
2978 158.3267 356.70 391.10 10.29
2979 158.3767 381.84 391.24 10.72
2980 158.4267 385.54 391.39 10.78
2981 158.4767 378.58 391.54 10.70
2982 158.5267 387.75 391.70 10.83
2983 158.5767 380.03 391.86 10.67
2984 158.6267 391.37 392.04 10.90
2985 158.6767 396.15 392.23 10.92
2986 158.7267 399.14 392.42 10.94
2987 158.7767 386.38 392.63 10.78
2988 158.8241 393.53 392.84 13.70
2989 158.8694 380.33 393.05 10.83
2990 158.9195 368.17 393.30 10.62
2991 158.9695 396.14 393.56 11.02
2992 159.0194 403.18 393.84 11.15
2993 159.0694 373.05 394.14 10.74
2994 159.1195 394.86 394.47 11.01
2995 159.1694 384.76 394.82 10.88
2996 159.2195 402.81 395.20 11.19
2997 159.2694 390.18 395.60 10.93
2998 159.3194 401.48 396.05 11.13
2999 159.3694 392.11 396.53 11.00
3000 159.4194 382.30 397.05 10.82
3001 159.4694 393.78 397.63 10.95
3002 159.5194 380.73 398.26 10.75
3003 159.5694 404.31 398.95 11.11
3004 159.6194 392.05 399.70 10.94
3005 159.6694 397.05 400.53 11.05
3006 159.7194 378.01 401.45 10.75
3007 159.7695 390.82 402.45 10.98
3008 159.8194 384.33 403.55 10.88
3009 159.8694 387.27 404.76 10.91
3010 159.9194 405.81 406.09 11.21
3011 159.9694 398.30 407.56 11.08
3012 160.0194 427.74 409.16 11.50
3013 160.0712 401.55 410.97 13.28
3014 160.1047 419.18 412.24 13.58
3015 160.1473 394.46 413.96 10.75
3016 160.1973 400.76 416.15 10.86
3017 160.2473 419.02 418.52 11.12
3018 160.2973 414.73 421.09 11.04
3019 160.3473 421.48 423.87 11.12
3020 160.3973 425.64 426.86 11.19
3021 160.4473 415.22 430.08 11.06
3022 160.4973 446.74 433.52 11.47
3023 160.5473 424.03 437.18 11.19
3024 160.5972 438.08 441.07 11.36
3025 160.6472 444.35 445.19 11.46
3026 160.6973 458.99 449.53 11.60
3027 160.7472 470.80 454.08 11.78
3028 160.7973 461.82 458.82 11.61
3029 160.8472 476.58 463.73 11.83
3030 160.8973 488.72 468.80 12.00
3031 160.9472 474.06 473.98 11.84
3032 160.9973 459.10 479.23 11.62
3033 161.0473 501.03 484.52 12.15
3034 161.0972 481.95 489.77 11.92
3035 161.1473 502.99 494.94 12.21
3036 161.1973 497.46 499.94 12.14
3037 161.2473 507.09 504.72 12.25
3038 161.2973 514.72 509.19 12.36
3039 161.3548 515.13 513.87 15.08
3040 161.4048 507.83 517.45 14.96
3041 161.4548 507.82 520.52 14.96
3042 161.5048 504.00 523.03 14.89
3043 161.5548 527.45 524.95 15.30
3044 161.6048 537.31 526.26 15.41
3045 161.6548 530.08 526.96 15.30
3046 161.7048 548.67 527.04 15.61
3047 161.7548 572.89 526.54 15.98
3048 161.8048 506.51 525.48 14.94
3049 161.8547 526.10 523.89 15.25
3050 161.9047 529.57 521.82 15.33
3051 161.9547 541.09 519.31 15.40
3052 162.0047 517.41 516.41 15.03
3053 162.0548 523.84 513.16 15.12
3054 162.1048 504.14 509.61 14.79
3055 162.1548 492.54 505.82 14.69
3056 162.2047 513.73 501.81 15.00
3057 162.2547 507.73 497.64 14.97
3058 162.3048 496.95 493.32 14.84
3059 162.3548 487.01 488.92 14.63
3060 162.4048 520.21 484.45 15.16
3061 162.4547 505.11 479.95 14.94
3062 162.5047 482.10 475.44 14.60
3063 162.5547 484.31 470.95 14.62
3064 162.5994 463.19 466.97 20.24
3065 162.6494 472.93 462.56 20.46
3066 162.6994 447.61 458.23 19.87
3067 162.7494 457.40 453.98 20.11
3068 162.7993 476.80 449.83 20.55
3069 162.8494 464.58 445.79 20.28
3070 162.8994 468.62 441.86 20.29
3071 162.9494 462.44 438.06 20.21
3072 162.9994 457.06 434.38 20.12
3073 163.0494 464.88 430.84 20.28
3074 163.0994 459.95 427.43 20.13
3075 163.1493 445.79 424.16 19.87
3076 163.1994 480.95 421.02 20.47
3077 163.2494 469.99 418.02 20.18
3078 163.2994 415.96 415.15 18.84
3079 163.3494 454.67 412.42 19.73
3080 163.3994 418.45 409.82 19.03
3081 163.4494 457.07 407.35 19.99
3082 163.4994 404.98 404.99 18.83
3083 163.5495 429.97 402.76 19.42
3084 163.5994 415.80 400.65 19.11
3085 163.6494 412.56 398.65 19.04
3086 163.6993 399.50 396.75 18.69
3087 163.7494 415.92 394.96 19.08
3088 163.7994 364.38 393.26 17.97
loop_
_pd_proc_info_excluded_regions
'from 1.501 to 11.826'
loop_
_refln_index_h
_refln_index_k
_refln_index_l
_refln_F_squared_calc
_refln_F_squared_meas
_refln_observed_status
_refln_d_spacing
1 1 1 91.66 89.38 o 4.838691
2 0 2 192.91 263.11 o 2.963081
1 1 3 2130.75 2001.83 o 2.526924
2 2 2 48591.56 46906.13 o 2.419345
0 0 4 17520.15 16996.79 o 2.095215
3 1 3 2067.16 2027.71 o 1.922701
2 2 4 475.96 501.74 o 1.710736
1 1 5 84.30 88.20 o 1.612897
3 3 3 8932.92 9346.70 o 1.612897
4 0 4 6609.16 6334.89 o 1.481540
3 1 5 47.28 53.57 o 1.416624
4 2 4 267.97 218.99 o 1.396810
2 0 6 821.12 819.45 o 1.325130
3 3 5 1356.24 1335.91 o 1.278069
2 2 6 31473.14 32220.71 o 1.263462
4 4 4 10092.50 9938.33 o 1.209673
5 1 5 2508.73 2457.07 o 1.173555
1 1 7 1693.00 1658.14 o 1.173555
4 2 6 23.20 26.40 o 1.119939
3 1 7 6293.58 6673.78 o 1.091095
5 3 5 2.70 2.86 o 1.091095
0 0 8 3098.06 2469.00 o 1.047607
3 3 7 5768.57 5671.80 o 1.023885
4 4 6 163.41 150.49 o 1.016328
2 2 8 137.42 112.03 o 0.987694
6 0 6 257.44 209.87 o 0.987694
5 5 5 1787.88 1800.16 o 0.967738
5 1 7 1456.76 1466.76 o 0.967738
6 2 6 20505.54 22686.91 o 0.961350
4 0 8 5548.21 5656.99 o 0.937009
1 1 9 1811.83 2172.06 o 0.919919
5 3 7 822.39 985.89 o 0.919919
4 2 8 641.78 290.82 o 0.914427
6 4 6 1672.95 1560.72 o 0.893402
3 1 9 18.61 29.09 < 0.878553
4 4 8 1433.38 1025.85 o 0.855368
3 3 9 119.52 127.69 o 0.842308
7 1 7 3549.77 3792.57 o 0.842308
5 5 7 20.81 22.23 o 0.842308
2 0 10 1.97 2.01 o 0.821811
6 2 8 411.30 419.49 o 0.821811
1 1 1 16108.85 17006.43 o 4.838691
2 0 2 3393.38 3409.62 o 2.963081
1 1 3 20915.51 21234.20 o 2.526924
2 2 2 4612.55 3900.89 o 2.419345
0 0 4 95087.80 90551.95 o 2.095215
3 1 3 1904.29 1795.41 o 1.922701
2 2 4 1353.86 1531.23 o 1.710736
3 3 3 5797.87 5639.17 o 1.612897
1 1 5 21576.06 20985.48 o 1.612897
4 0 4 85115.16 84881.79 o 1.481540
3 1 5 4373.61 4237.72 o 1.416624
4 2 4 92.22 40.34 < 1.396810
2 0 6 632.14 792.85 o 1.325130
3 3 5 8407.62 9195.55 o 1.278069
2 2 6 5137.41 5558.74 o 1.263462
4 4 4 28831.68 30259.31 o 1.209673
1 1 7 929.55 900.52 o 1.173555
5 1 5 5546.45 5373.22 o 1.173555
4 2 6 976.05 874.75 o 1.119939
5 3 5 8524.92 8735.94 o 1.091095
3 1 7 3180.79 3259.53 o 1.091095
0 0 8 34010.27 28795.46 o 1.047607
3 3 7 115.86 49.90 < 1.023885
4 4 6 27.48 21.09 < 1.016328
6 0 6 1192.55 986.12 o 0.987694
2 2 8 552.04 456.48 o 0.987694
5 5 5 8847.04 9382.25 o 0.967738
5 1 7 3940.34 4178.71 o 0.967738
6 2 6 3619.74 4088.17 o 0.961350
4 0 8 12803.01 11427.09 o 0.937009
5 3 7 655.53 589.26 o 0.919919
1 1 9 2691.75 2419.65 o 0.919919
4 2 8 86.26 70.72 o 0.914427
6 4 6 92.12 122.45 < 0.893402
3 1 9 4718.92 4308.49 o 0.878553
4 4 8 17552.34 16264.95 o 0.855368
3 3 9 1247.79 1320.32 o 0.842308
5 5 7 904.62 957.21 o 0.842308
7 1 7 130.98 138.60 o 0.842308
6 2 8 210.92 199.96 o 0.821811
2 0 10 471.08 446.59 o 0.821811
5 1 9 4822.92 4309.89 o 0.810208
7 3 7 810.10 723.93 o 0.810208
2 2 10 2615.95 2792.59 o 0.806449
6 6 6 2535.09 2706.26 o 0.806449
5 3 9 1387.38 1313.63 o 0.781519
6 4 8 39.06 38.80 o 0.778143
4 2 10 122.91 143.68 < 0.765064
7 5 7 1393.16 1443.62 o 0.755677
1 1 11 1096.94 1136.67 o 0.755677
8 0 8 10271.69 9150.58 o 0.740770
5 5 9 1788.92 1512.43 o 0.732239
3 1 11 83.10 70.26 o 0.732239
7 1 9 659.79 557.82 o 0.732239
4 4 10 5.14 2.85 o 0.729460
8 2 8 138.40 76.67 o 0.729460
6 0 10 7.24 4.73 < 0.718653
6 6 8 359.62 234.97 < 0.718653
3 3 11 566.00 524.95 o 0.710855
7 3 9 1738.17 1612.09 o 0.710855
6 2 10 1887.98 1830.23 o 0.708312
0 0 12 4020.08 3634.17 o 0.698405
8 4 8 4174.50 3773.76 o 0.698405
5 1 11 196.31 197.35 o 0.691242
7 7 7 2.54 2.55 o 0.691242
2 2 12 136.86 95.26 o 0.679777
6 4 10 452.63 315.03 o 0.679777
5 3 11 852.62 986.47 o 0.673167
7 5 9 1584.01 1832.69 o 0.673167
4 0 12 6344.97 5482.24 o 0.662565
9 1 9 1066.69 868.02 o 0.656439
8 6 8 72.57 49.10 < 0.654435
4 2 12 47.28 31.99 < 0.654435
8 2 10 178.17 103.78 < 0.646597
5 5 11 833.45 757.40 o 0.640900
9 3 9 1761.17 1600.46 o 0.640900
1 1 13 2012.30 1828.67 o 0.640900
7 1 11 467.63 424.96 o 0.640900
6 6 10 1399.30 1174.96 o 0.639034
4 4 12 2586.11 2560.24 o 0.631731
