#------------------------------------------------------------------------------
#$Date: 2016-02-13 21:28:24 +0200 (Sat, 13 Feb 2016) $
#$Revision: 176429 $
#$URL: svn://www.crystallography.net/cod/cif/4/34/31/4343132.cif $
#------------------------------------------------------------------------------
#
# This file is available in the Crystallography Open Database (COD),
# http://www.crystallography.net/
#
# All data on this site have been placed in the public domain by the
# contributors.
#
data_4343132
loop_
_publ_author_name
'Murphy, Denissa T.'
'Schmid, Siegbert'
'Hester, James R.'
'Blanchard, Peter E. R.'
'Miiller, Wojciech'
_publ_section_title
;
 Coordination Site Disorder in Spinel-Type LiMnTiO4.
;
_journal_issue                   10
_journal_name_full               'Inorganic chemistry'
_journal_page_first              4636
_journal_page_last               4643
_journal_paper_doi               10.1021/ic502747p
_journal_volume                  54
_journal_year                    2015
_chemical_formula_sum            'Li Mn O4 Ti'
_chemical_formula_weight         173.8
_chemical_name_common            Lithium_manganese_titanate_slowcooled_950C
_chemical_name_systematic        ' Lithium_manganese_titanate'
_space_group_IT_number           227
_symmetry_cell_setting           cubic
_symmetry_Int_Tables_number      227
_symmetry_space_group_name_Hall  '-F 4vw 2vw 3'
_symmetry_space_group_name_H-M   'F d -3 m :2'
_cell_angle_alpha                90
_cell_angle_beta                 90
_cell_angle_gamma                90
_cell_formula_units_Z            8
_cell_length_a                   8.3405(6)
_cell_length_b                   8.3405(6)
_cell_length_c                   8.3405(6)
_cell_measurement_temperature    293
_cell_volume                     580.20(7)
_diffrn_ambient_temperature      293
_diffrn_measurement_device_type  powder_diffraction
_diffrn_radiation_probe          neutron
_diffrn_radiation_type           neutron
_diffrn_radiation_wavelength     1.622
_exptl_absorpt_coefficient_mu    0.112
_exptl_crystal_density_diffrn    3.977
_exptl_crystal_F_000             656
_pd_char_colour                  black
_pd_instr_location               ' ?'
_pd_meas_2theta_range_max        163.950
_pd_meas_2theta_range_min        2.751
_pd_meas_number_of_points        3226
_pd_proc_2theta_range_max        163.95
_pd_proc_2theta_range_min        11.851
_pd_proc_ls_background_function  'Manual background'
_pd_proc_ls_pref_orient_corr     none
_pd_proc_ls_profile_function     Pseudo-Voigt
_pd_proc_ls_prof_R_factor        0.0496
_pd_proc_ls_prof_wR_expected     0.0238
_pd_proc_ls_prof_wR_factor       0.0648
_refine_ls_goodness_of_fit_all   2.72
_refine_ls_number_constraints    4
_refine_ls_number_parameters     18
_refine_ls_number_restraints     0
_refine_ls_R_factor_all          0.0517
_refine_ls_R_factor_gt           0.0517
_refine_ls_shift/su_max          0.0000
_refine_ls_shift/su_mean         0.0000
_refine_ls_weighting_scheme      sigma
_refine_ls_wR_factor_all         0.0853
_refine_ls_wR_factor_gt          0.0853
_cod_data_source_file            ic502747p_si_001.cif
_cod_data_source_block           I
_cod_original_cell_volume        580.21(7)
_cod_original_sg_symbol_Hall     '-F 4abvw;2abvw;3'
_cod_original_sg_symbol_H-M      'F d -3 m'
_cod_original_formula_sum        'Li1 Mn1 O4 Ti1'
_cod_database_code               4343132
loop_
_symmetry_equiv_pos_site_id
_symmetry_equiv_pos_as_xyz
1 x,y,z
2 -x+3/4,-y+1/4,z+1/2
3 -x+1/4,y+1/2,-z+3/4
4 x+1/2,-y+3/4,-z+1/4
5 z,x,y
6 z+1/2,-x+3/4,-y+1/4
7 -z+3/4,-x+1/4,y+1/2
8 -z+1/4,x+1/2,-y+3/4
9 y,z,x
10 -y+1/4,z+1/2,-x+3/4
11 y+1/2,-z+3/4,-x+1/4
12 -y+3/4,-z+1/4,x+1/2
13 y+3/4,x+1/4,-z+1/2
14 -y,-x,-z
15 y+1/4,-x+1/2,z+3/4
16 -y+1/2,x+3/4,z+1/4
17 x+3/4,z+1/4,-y+1/2
18 -x+1/2,z+3/4,y+1/4
19 -x,-z,-y
20 x+1/4,-z+1/2,y+3/4
21 z+3/4,y+1/4,-x+1/2
22 z+1/4,-y+1/2,x+3/4
23 -z+1/2,y+3/4,x+1/4
24 -z,-y,-x
25 -x,-y,-z
26 x+1/4,y+3/4,-z+1/2
27 x+3/4,-y+1/2,z+1/4
28 -x+1/2,y+1/4,z+3/4
29 -z,-x,-y
30 -z+1/2,x+1/4,y+3/4
31 z+1/4,x+3/4,-y+1/2
32 z+3/4,-x+1/2,y+1/4
33 -y,-z,-x
34 y+3/4,-z+1/2,x+1/4
35 -y+1/2,z+1/4,x+3/4
36 y+1/4,z+3/4,-x+1/2
37 -y+1/4,-x+3/4,z+1/2
38 y,x,z
39 -y+3/4,x+1/2,-z+1/4
40 y+1/2,-x+1/4,-z+3/4
41 -x+1/4,-z+3/4,y+1/2
42 x+1/2,-z+1/4,-y+3/4
43 x,z,y
44 -x+3/4,z+1/2,-y+1/4
45 -z+1/4,-y+3/4,x+1/2
46 -z+3/4,y+1/2,-x+1/4
47 z+1/2,-y+1/4,-x+3/4
48 z,y,x
49 x,y+1/2,z+1/2
50 -x+3/4,-y+3/4,z
51 -x+1/4,y,-z+1/4
52 x+1/2,-y+1/4,-z+3/4
53 z,x+1/2,y+1/2
54 z+1/2,-x+1/4,-y+3/4
55 -z+3/4,-x+3/4,y
56 -z+1/4,x,-y+1/4
57 y,z+1/2,x+1/2
58 -y+1/4,z,-x+1/4
59 y+1/2,-z+1/4,-x+3/4
60 -y+3/4,-z+3/4,x
61 y+3/4,x+3/4,-z
62 -y,-x+1/2,-z+1/2
63 y+1/4,-x,z+1/4
64 -y+1/2,x+1/4,z+3/4
65 x+3/4,z+3/4,-y
66 -x+1/2,z+1/4,y+3/4
67 -x,-z+1/2,-y+1/2
68 x+1/4,-z,y+1/4
69 z+3/4,y+3/4,-x
70 z+1/4,-y,x+1/4
71 -z+1/2,y+1/4,x+3/4
72 -z,-y+1/2,-x+1/2
73 -x,-y+1/2,-z+1/2
74 x+1/4,y+1/4,-z
75 x+3/4,-y,z+3/4
76 -x+1/2,y+3/4,z+1/4
77 -z,-x+1/2,-y+1/2
78 -z+1/2,x+3/4,y+1/4
79 z+1/4,x+1/4,-y
80 z+3/4,-x,y+3/4
81 -y,-z+1/2,-x+1/2
82 y+3/4,-z,x+3/4
83 -y+1/2,z+3/4,x+1/4
84 y+1/4,z+1/4,-x
85 -y+1/4,-x+1/4,z
86 y,x+1/2,z+1/2
87 -y+3/4,x,-z+3/4
88 y+1/2,-x+3/4,-z+1/4
89 -x+1/4,-z+1/4,y
90 x+1/2,-z+3/4,-y+1/4
91 x,z+1/2,y+1/2
92 -x+3/4,z,-y+3/4
93 -z+1/4,-y+1/4,x
94 -z+3/4,y,-x+3/4
95 z+1/2,-y+3/4,-x+1/4
96 z,y+1/2,x+1/2
97 x+1/2,y,z+1/2
98 -x+1/4,-y+1/4,z
99 -x+3/4,y+1/2,-z+1/4
100 x,-y+3/4,-z+3/4
101 z+1/2,x,y+1/2
102 z,-x+3/4,-y+3/4
103 -z+1/4,-x+1/4,y
104 -z+3/4,x+1/2,-y+1/4
105 y+1/2,z,x+1/2
106 -y+3/4,z+1/2,-x+1/4
107 y,-z+3/4,-x+3/4
108 -y+1/4,-z+1/4,x
109 y+1/4,x+1/4,-z
110 -y+1/2,-x,-z+1/2
111 y+3/4,-x+1/2,z+1/4
112 -y,x+3/4,z+3/4
113 x+1/4,z+1/4,-y
114 -x,z+3/4,y+3/4
115 -x+1/2,-z,-y+1/2
116 x+3/4,-z+1/2,y+1/4
117 z+1/4,y+1/4,-x
118 z+3/4,-y+1/2,x+1/4
119 -z,y+3/4,x+3/4
120 -z+1/2,-y,-x+1/2
121 -x+1/2,-y,-z+1/2
122 x+3/4,y+3/4,-z
123 x+1/4,-y+1/2,z+3/4
124 -x,y+1/4,z+1/4
125 -z+1/2,-x,-y+1/2
126 -z,x+1/4,y+1/4
127 z+3/4,x+3/4,-y
128 z+1/4,-x+1/2,y+3/4
129 -y+1/2,-z,-x+1/2
130 y+1/4,-z+1/2,x+3/4
131 -y,z+1/4,x+1/4
132 y+3/4,z+3/4,-x
133 -y+3/4,-x+3/4,z
134 y+1/2,x,z+1/2
135 -y+1/4,x+1/2,-z+3/4
136 y,-x+1/4,-z+1/4
137 -x+3/4,-z+3/4,y
138 x,-z+1/4,-y+1/4
139 x+1/2,z,y+1/2
140 -x+1/4,z+1/2,-y+3/4
141 -z+3/4,-y+3/4,x
142 -z+1/4,y+1/2,-x+3/4
143 z,-y+1/4,-x+1/4
144 z+1/2,y,x+1/2
145 x+1/2,y+1/2,z
146 -x+1/4,-y+3/4,z+1/2
147 -x+3/4,y,-z+3/4
148 x,-y+1/4,-z+1/4
149 z+1/2,x+1/2,y
150 z,-x+1/4,-y+1/4
151 -z+1/4,-x+3/4,y+1/2
152 -z+3/4,x,-y+3/4
153 y+1/2,z+1/2,x
154 -y+3/4,z,-x+3/4
155 y,-z+1/4,-x+1/4
156 -y+1/4,-z+3/4,x+1/2
157 y+1/4,x+3/4,-z+1/2
158 -y+1/2,-x+1/2,-z
159 y+3/4,-x,z+3/4
160 -y,x+1/4,z+1/4
161 x+1/4,z+3/4,-y+1/2
162 -x,z+1/4,y+1/4
163 -x+1/2,-z+1/2,-y
164 x+3/4,-z,y+3/4
165 z+1/4,y+3/4,-x+1/2
166 z+3/4,-y,x+3/4
167 -z,y+1/4,x+1/4
168 -z+1/2,-y+1/2,-x
169 -x+1/2,-y+1/2,-z
170 x+3/4,y+1/4,-z+1/2
171 x+1/4,-y,z+1/4
172 -x,y+3/4,z+3/4
173 -z+1/2,-x+1/2,-y
174 -z,x+3/4,y+3/4
175 z+3/4,x+1/4,-y+1/2
176 z+1/4,-x,y+1/4
177 -y+1/2,-z+1/2,-x
178 y+1/4,-z,x+1/4
179 -y,z+3/4,x+3/4
180 y+3/4,z+1/4,-x+1/2
181 -y+3/4,-x+1/4,z+1/2
182 y+1/2,x+1/2,z
183 -y+1/4,x,-z+1/4
184 y,-x+3/4,-z+3/4
185 -x+3/4,-z+1/4,y+1/2
186 x,-z+3/4,-y+3/4
187 x+1/2,z+1/2,y
188 -x+1/4,z,-y+1/4
189 -z+3/4,-y+1/4,x+1/2
190 -z+1/4,y,-x+1/4
191 z,-y+3/4,-x+3/4
192 z+1/2,y+1/2,x
loop_
_atom_site_label
_atom_site_type_symbol
_atom_site_fract_x
_atom_site_fract_y
_atom_site_fract_z
_atom_site_adp_type
_atom_site_U_iso_or_equiv
_atom_site_symmetry_multiplicity
_atom_site_occupancy
_atom_site_calc_flag
Li11 Li 0.125 0.125 0.125 Uiso 0.0226 8 0.7546 d
Ti11 Ti 0.125 0.125 0.125 Uiso 0.0226 8 0.2454 d
Li12 Li 0.5 0.5 0.5 Uiso 0.0136 16 0.1227 d
Ti12 Ti 0.5 0.5 0.5 Uiso 0.0136 16 0.3773 d
Mn12 Mn 0.5 0.5 0.5 Uiso 0.0136 16 0.5 d
O1 O 0.262488 0.262488 0.262488 Uiso 0.0304 32 1 d
loop_
_atom_type_symbol
_atom_type_scat_length_neutron
_atom_type_scat_source
Li -1.900 International_Tables_Vol_C
Mn -3.730 International_Tables_Vol_C
Ti -3.438 International_Tables_Vol_C
O 5.803 International_Tables_Vol_C
loop_
_geom_angle_atom_site_label_1
_geom_angle_atom_site_label_2
_geom_angle_atom_site_label_3
_geom_angle_site_symmetry_1
_geom_angle_site_symmetry_3
_geom_angle
Ti11 Li11 O1 . . 0
Ti11 Li11 O1 . 98_555 0
Ti11 Li11 O1 . 51_555 0
Ti11 Li11 O1 . 148_555 0
O1 Li11 O1 . 98_555 109.471(5)
O1 Li11 O1 . 51_555 109.471(5)
O1 Li11 O1 . 148_555 109.471(5)
O1 Li11 O1 98_555 51_555 109.471(5)
O1 Li11 O1 98_555 148_555 109.471(5)
O1 Li11 O1 51_555 148_555 109.471(5)
Li11 Ti11 O1 . . 0
Li11 Ti11 O1 . 98_555 0
Li11 Ti11 O1 . 51_555 0
Li11 Ti11 O1 . 148_555 0
O1 Ti11 O1 . 98_555 109.471(5)
O1 Ti11 O1 . 51_555 109.471(5)
O1 Ti11 O1 . 148_555 109.471(5)
O1 Ti11 O1 98_555 51_555 109.471(5)
O1 Ti11 O1 98_555 148_555 109.471(5)
O1 Ti11 O1 51_555 148_555 109.471(5)
Li12 Li12 Li12 50_555 98_665 180.0(5)
Li12 Li12 Li12 50_555 51_656 120.000(3)
Li12 Li12 Li12 50_555 147_555 60.000(3)
Li12 Li12 Li12 50_555 100_555 60.000(3)
Li12 Li12 Li12 50_555 148_566 120.000(3)
Li12 Li12 Ti12 50_555 . 0
Li12 Li12 Ti12 50_555 50_555 0.0(5)
Li12 Li12 Ti12 50_555 98_665 180.0(5)
Li12 Li12 Ti12 50_555 51_656 120.000(3)
Li12 Li12 Ti12 50_555 147_555 60.000(3)
Li12 Li12 Ti12 50_555 100_555 60.000(3)
Li12 Li12 Ti12 50_555 148_566 120.000(3)
Li12 Li12 Mn12 50_555 . 0
Li12 Li12 Mn12 50_555 50_555 0.0(5)
Li12 Li12 Mn12 50_555 98_665 180.0(5)
Li12 Li12 Mn12 50_555 51_656 120.000(3)
Li12 Li12 Mn12 50_555 147_555 60.000(3)
Li12 Li12 Mn12 50_555 100_555 60.000(3)
Li12 Li12 Mn12 50_555 148_566 120.000(3)
Li12 Li12 O1 50_555 50_555 85.7475(4)
Li12 Li12 O1 50_555 147_555 42.078(3)
Li12 Li12 O1 50_555 100_555 42.078(3)
Li12 Li12 O1 50_555 109_556 94.2525(4)
Li12 Li12 O1 50_555 63_565 137.922(3)
Li12 Li12 O1 50_555 160_655 137.922(3)
Li12 Li12 Li12 98_665 51_656 60.000(3)
Li12 Li12 Li12 98_665 147_555 120.000(3)
Li12 Li12 Li12 98_665 100_555 120.000(3)
Li12 Li12 Li12 98_665 148_566 60.000(3)
Li12 Li12 Ti12 98_665 . 0
Li12 Li12 Ti12 98_665 50_555 180.0(5)
Li12 Li12 Ti12 98_665 98_665 0.0(5)
Li12 Li12 Ti12 98_665 51_656 60.000(3)
Li12 Li12 Ti12 98_665 147_555 120.000(3)
Li12 Li12 Ti12 98_665 100_555 120.000(3)
Li12 Li12 Ti12 98_665 148_566 60.000(3)
Li12 Li12 Mn12 98_665 . 0
Li12 Li12 Mn12 98_665 50_555 180.0(5)
Li12 Li12 Mn12 98_665 98_665 0.0(5)
Li12 Li12 Mn12 98_665 51_656 60.000(3)
Li12 Li12 Mn12 98_665 147_555 120.000(3)
Li12 Li12 Mn12 98_665 100_555 120.000(3)
Li12 Li12 Mn12 98_665 148_566 60.000(3)
Li12 Li12 O1 98_665 50_555 94.2525(4)
Li12 Li12 O1 98_665 147_555 137.922(3)
Li12 Li12 O1 98_665 100_555 137.922(3)
Li12 Li12 O1 98_665 109_556 85.7475(4)
Li12 Li12 O1 98_665 63_565 42.078(3)
Li12 Li12 O1 98_665 160_655 42.078(3)
Li12 Li12 Li12 51_656 147_555 180.0(5)
Li12 Li12 Li12 51_656 100_555 120.000(3)
Li12 Li12 Li12 51_656 148_566 60.000(3)
Li12 Li12 Ti12 51_656 . 0
Li12 Li12 Ti12 51_656 50_555 120.000(3)
Li12 Li12 Ti12 51_656 98_665 60.000(3)
Li12 Li12 Ti12 51_656 51_656 0.0(5)
Li12 Li12 Ti12 51_656 147_555 180.0(5)
Li12 Li12 Ti12 51_656 100_555 120.000(3)
Li12 Li12 Ti12 51_656 148_566 60.000(3)
Li12 Li12 Mn12 51_656 . 0
Li12 Li12 Mn12 51_656 50_555 120.000(3)
Li12 Li12 Mn12 51_656 98_665 60.000(3)
Li12 Li12 Mn12 51_656 51_656 0.0(5)
Li12 Li12 Mn12 51_656 147_555 180.0(5)
Li12 Li12 Mn12 51_656 100_555 120.000(3)
Li12 Li12 Mn12 51_656 148_566 60.000(3)
Li12 Li12 O1 51_656 50_555 137.922(3)
Li12 Li12 O1 51_656 147_555 94.2525(4)
Li12 Li12 O1 51_656 100_555 137.922(3)
Li12 Li12 O1 51_656 109_556 42.078(3)
Li12 Li12 O1 51_656 63_565 85.7475(4)
Li12 Li12 O1 51_656 160_655 42.078(3)
Li12 Li12 Li12 147_555 100_555 60.000(3)
Li12 Li12 Li12 147_555 148_566 120.000(3)
Li12 Li12 Ti12 147_555 . 0
Li12 Li12 Ti12 147_555 50_555 60.000(3)
Li12 Li12 Ti12 147_555 98_665 120.000(3)
Li12 Li12 Ti12 147_555 51_656 180.0(5)
Li12 Li12 Ti12 147_555 147_555 0.0(5)
Li12 Li12 Ti12 147_555 100_555 60.000(3)
Li12 Li12 Ti12 147_555 148_566 120.000(3)
Li12 Li12 Mn12 147_555 . 0
Li12 Li12 Mn12 147_555 50_555 60.000(3)
Li12 Li12 Mn12 147_555 98_665 120.000(3)
Li12 Li12 Mn12 147_555 51_656 180.0(5)
Li12 Li12 Mn12 147_555 147_555 0.0(5)
Li12 Li12 Mn12 147_555 100_555 60.000(3)
Li12 Li12 Mn12 147_555 148_566 120.000(3)
Li12 Li12 O1 147_555 50_555 42.078(3)
Li12 Li12 O1 147_555 147_555 85.7475(4)
Li12 Li12 O1 147_555 100_555 42.078(3)
Li12 Li12 O1 147_555 109_556 137.922(3)
Li12 Li12 O1 147_555 63_565 94.2525(4)
Li12 Li12 O1 147_555 160_655 137.922(3)
Li12 Li12 Li12 100_555 148_566 180.0(5)
Li12 Li12 Ti12 100_555 . 0
Li12 Li12 Ti12 100_555 50_555 60.000(3)
Li12 Li12 Ti12 100_555 98_665 120.000(3)
Li12 Li12 Ti12 100_555 51_656 120.000(3)
Li12 Li12 Ti12 100_555 147_555 60.000(3)
Li12 Li12 Ti12 100_555 100_555 0.0(5)
Li12 Li12 Ti12 100_555 148_566 180.0(5)
Li12 Li12 Mn12 100_555 . 0
Li12 Li12 Mn12 100_555 50_555 60.000(3)
Li12 Li12 Mn12 100_555 98_665 120.000(3)
Li12 Li12 Mn12 100_555 51_656 120.000(3)
Li12 Li12 Mn12 100_555 147_555 60.000(3)
Li12 Li12 Mn12 100_555 100_555 0.0(5)
Li12 Li12 Mn12 100_555 148_566 180.0(5)
Li12 Li12 O1 100_555 50_555 42.078(3)
Li12 Li12 O1 100_555 147_555 42.078(3)
Li12 Li12 O1 100_555 100_555 85.7475(4)
Li12 Li12 O1 100_555 109_556 137.922(3)
Li12 Li12 O1 100_555 63_565 137.922(3)
Li12 Li12 O1 100_555 160_655 94.2525(4)
Li12 Li12 Ti12 148_566 . 0
Li12 Li12 Ti12 148_566 50_555 120.000(3)
Li12 Li12 Ti12 148_566 98_665 60.000(3)
Li12 Li12 Ti12 148_566 51_656 60.000(3)
Li12 Li12 Ti12 148_566 147_555 120.000(3)
Li12 Li12 Ti12 148_566 100_555 180.0(5)
Li12 Li12 Ti12 148_566 148_566 0.0(5)
Li12 Li12 Mn12 148_566 . 0
Li12 Li12 Mn12 148_566 50_555 120.000(3)
Li12 Li12 Mn12 148_566 98_665 60.000(3)
Li12 Li12 Mn12 148_566 51_656 60.000(3)
Li12 Li12 Mn12 148_566 147_555 120.000(3)
Li12 Li12 Mn12 148_566 100_555 180.0(5)
Li12 Li12 Mn12 148_566 148_566 0.0(5)
Li12 Li12 O1 148_566 50_555 137.922(3)
Li12 Li12 O1 148_566 147_555 137.922(3)
Li12 Li12 O1 148_566 100_555 94.2525(4)
Li12 Li12 O1 148_566 109_556 42.078(3)
Li12 Li12 O1 148_566 63_565 42.078(3)
Li12 Li12 O1 148_566 160_655 85.7475(4)
Ti12 Li12 Ti12 . 50_555 0
Ti12 Li12 Ti12 . 98_665 0
Ti12 Li12 Ti12 . 51_656 0
Ti12 Li12 Ti12 . 147_555 0
Ti12 Li12 Ti12 . 100_555 0
Ti12 Li12 Ti12 . 148_566 0
Ti12 Li12 Mn12 . . 0
Ti12 Li12 Mn12 . 50_555 0
Ti12 Li12 Mn12 . 98_665 0
Ti12 Li12 Mn12 . 51_656 0
Ti12 Li12 Mn12 . 147_555 0
Ti12 Li12 Mn12 . 100_555 0
Ti12 Li12 Mn12 . 148_566 0
Ti12 Li12 O1 . 50_555 0
Ti12 Li12 O1 . 147_555 0
Ti12 Li12 O1 . 100_555 0
Ti12 Li12 O1 . 109_556 0
Ti12 Li12 O1 . 63_565 0
Ti12 Li12 O1 . 160_655 0
Ti12 Li12 Ti12 50_555 98_665 180.0(5)
Ti12 Li12 Ti12 50_555 51_656 120.000(3)
Ti12 Li12 Ti12 50_555 147_555 60.000(3)
Ti12 Li12 Ti12 50_555 100_555 60.000(3)
Ti12 Li12 Ti12 50_555 148_566 120.000(3)
Ti12 Li12 Mn12 50_555 . 0
Ti12 Li12 Mn12 50_555 50_555 0.0(5)
Ti12 Li12 Mn12 50_555 98_665 180.0(5)
Ti12 Li12 Mn12 50_555 51_656 120.000(3)
Ti12 Li12 Mn12 50_555 147_555 60.000(3)
Ti12 Li12 Mn12 50_555 100_555 60.000(3)
Ti12 Li12 Mn12 50_555 148_566 120.000(3)
Ti12 Li12 O1 50_555 50_555 85.7475(4)
Ti12 Li12 O1 50_555 147_555 42.078(3)
Ti12 Li12 O1 50_555 100_555 42.078(3)
Ti12 Li12 O1 50_555 109_556 94.2525(4)
Ti12 Li12 O1 50_555 63_565 137.922(3)
Ti12 Li12 O1 50_555 160_655 137.922(3)
Ti12 Li12 Ti12 98_665 51_656 60.000(3)
Ti12 Li12 Ti12 98_665 147_555 120.000(3)
Ti12 Li12 Ti12 98_665 100_555 120.000(3)
Ti12 Li12 Ti12 98_665 148_566 60.000(3)
Ti12 Li12 Mn12 98_665 . 0
Ti12 Li12 Mn12 98_665 50_555 180.0(5)
Ti12 Li12 Mn12 98_665 98_665 0.0(5)
Ti12 Li12 Mn12 98_665 51_656 60.000(3)
Ti12 Li12 Mn12 98_665 147_555 120.000(3)
Ti12 Li12 Mn12 98_665 100_555 120.000(3)
Ti12 Li12 Mn12 98_665 148_566 60.000(3)
Ti12 Li12 O1 98_665 50_555 94.2525(4)
Ti12 Li12 O1 98_665 147_555 137.922(3)
Ti12 Li12 O1 98_665 100_555 137.922(3)
Ti12 Li12 O1 98_665 109_556 85.7475(4)
Ti12 Li12 O1 98_665 63_565 42.078(3)
Ti12 Li12 O1 98_665 160_655 42.078(3)
Ti12 Li12 Ti12 51_656 147_555 180.0(5)
Ti12 Li12 Ti12 51_656 100_555 120.000(3)
Ti12 Li12 Ti12 51_656 148_566 60.000(3)
Ti12 Li12 Mn12 51_656 . 0
Ti12 Li12 Mn12 51_656 50_555 120.000(3)
Ti12 Li12 Mn12 51_656 98_665 60.000(3)
Ti12 Li12 Mn12 51_656 51_656 0.0(5)
Ti12 Li12 Mn12 51_656 147_555 180.0(5)
Ti12 Li12 Mn12 51_656 100_555 120.000(3)
Ti12 Li12 Mn12 51_656 148_566 60.000(3)
Ti12 Li12 O1 51_656 50_555 137.922(3)
Ti12 Li12 O1 51_656 147_555 94.2525(4)
Ti12 Li12 O1 51_656 100_555 137.922(3)
Ti12 Li12 O1 51_656 109_556 42.078(3)
Ti12 Li12 O1 51_656 63_565 85.7475(4)
Ti12 Li12 O1 51_656 160_655 42.078(3)
Ti12 Li12 Ti12 147_555 100_555 60.000(3)
Ti12 Li12 Ti12 147_555 148_566 120.000(3)
Ti12 Li12 Mn12 147_555 . 0
Ti12 Li12 Mn12 147_555 50_555 60.000(3)
Ti12 Li12 Mn12 147_555 98_665 120.000(3)
Ti12 Li12 Mn12 147_555 51_656 180.0(5)
Ti12 Li12 Mn12 147_555 147_555 0.0(5)
Ti12 Li12 Mn12 147_555 100_555 60.000(3)
Ti12 Li12 Mn12 147_555 148_566 120.000(3)
Ti12 Li12 O1 147_555 50_555 42.078(3)
Ti12 Li12 O1 147_555 147_555 85.7475(4)
Ti12 Li12 O1 147_555 100_555 42.078(3)
Ti12 Li12 O1 147_555 109_556 137.922(3)
Ti12 Li12 O1 147_555 63_565 94.2525(4)
Ti12 Li12 O1 147_555 160_655 137.922(3)
Ti12 Li12 Ti12 100_555 148_566 180.0(5)
Ti12 Li12 Mn12 100_555 . 0
Ti12 Li12 Mn12 100_555 50_555 60.000(3)
Ti12 Li12 Mn12 100_555 98_665 120.000(3)
Ti12 Li12 Mn12 100_555 51_656 120.000(3)
Ti12 Li12 Mn12 100_555 147_555 60.000(3)
Ti12 Li12 Mn12 100_555 100_555 0.0(5)
Ti12 Li12 Mn12 100_555 148_566 180.0(5)
Ti12 Li12 O1 100_555 50_555 42.078(3)
Ti12 Li12 O1 100_555 147_555 42.078(3)
Ti12 Li12 O1 100_555 100_555 85.7475(4)
Ti12 Li12 O1 100_555 109_556 137.922(3)
Ti12 Li12 O1 100_555 63_565 137.922(3)
Ti12 Li12 O1 100_555 160_655 94.2525(4)
Ti12 Li12 Mn12 148_566 . 0
Ti12 Li12 Mn12 148_566 50_555 120.000(3)
Ti12 Li12 Mn12 148_566 98_665 60.000(3)
Ti12 Li12 Mn12 148_566 51_656 60.000(3)
Ti12 Li12 Mn12 148_566 147_555 120.000(3)
Ti12 Li12 Mn12 148_566 100_555 180.0(5)
Ti12 Li12 Mn12 148_566 148_566 0.0(5)
Ti12 Li12 O1 148_566 50_555 137.922(3)
Ti12 Li12 O1 148_566 147_555 137.922(3)
Ti12 Li12 O1 148_566 100_555 94.2525(4)
Ti12 Li12 O1 148_566 109_556 42.078(3)
Ti12 Li12 O1 148_566 63_565 42.078(3)
Ti12 Li12 O1 148_566 160_655 85.7475(4)
Mn12 Li12 Mn12 . 50_555 0
Mn12 Li12 Mn12 . 98_665 0
Mn12 Li12 Mn12 . 51_656 0
Mn12 Li12 Mn12 . 147_555 0
Mn12 Li12 Mn12 . 100_555 0
Mn12 Li12 Mn12 . 148_566 0
Mn12 Li12 O1 . 50_555 0
Mn12 Li12 O1 . 147_555 0
Mn12 Li12 O1 . 100_555 0
Mn12 Li12 O1 . 109_556 0
Mn12 Li12 O1 . 63_565 0
Mn12 Li12 O1 . 160_655 0
Mn12 Li12 Mn12 50_555 98_665 180.0(5)
Mn12 Li12 Mn12 50_555 51_656 120.000(3)
Mn12 Li12 Mn12 50_555 147_555 60.000(3)
Mn12 Li12 Mn12 50_555 100_555 60.000(3)
Mn12 Li12 Mn12 50_555 148_566 120.000(3)
Mn12 Li12 O1 50_555 50_555 85.7475(4)
Mn12 Li12 O1 50_555 147_555 42.078(3)
Mn12 Li12 O1 50_555 100_555 42.078(3)
Mn12 Li12 O1 50_555 109_556 94.2525(4)
Mn12 Li12 O1 50_555 63_565 137.922(3)
Mn12 Li12 O1 50_555 160_655 137.922(3)
Mn12 Li12 Mn12 98_665 51_656 60.000(3)
Mn12 Li12 Mn12 98_665 147_555 120.000(3)
Mn12 Li12 Mn12 98_665 100_555 120.000(3)
Mn12 Li12 Mn12 98_665 148_566 60.000(3)
Mn12 Li12 O1 98_665 50_555 94.2525(4)
Mn12 Li12 O1 98_665 147_555 137.922(3)
Mn12 Li12 O1 98_665 100_555 137.922(3)
Mn12 Li12 O1 98_665 109_556 85.7475(4)
Mn12 Li12 O1 98_665 63_565 42.078(3)
Mn12 Li12 O1 98_665 160_655 42.078(3)
Mn12 Li12 Mn12 51_656 147_555 180.0(5)
Mn12 Li12 Mn12 51_656 100_555 120.000(3)
Mn12 Li12 Mn12 51_656 148_566 60.000(3)
Mn12 Li12 O1 51_656 50_555 137.922(3)
Mn12 Li12 O1 51_656 147_555 94.2525(4)
Mn12 Li12 O1 51_656 100_555 137.922(3)
Mn12 Li12 O1 51_656 109_556 42.078(3)
Mn12 Li12 O1 51_656 63_565 85.7475(4)
Mn12 Li12 O1 51_656 160_655 42.078(3)
Mn12 Li12 Mn12 147_555 100_555 60.000(3)
Mn12 Li12 Mn12 147_555 148_566 120.000(3)
Mn12 Li12 O1 147_555 50_555 42.078(3)
Mn12 Li12 O1 147_555 147_555 85.7475(4)
Mn12 Li12 O1 147_555 100_555 42.078(3)
Mn12 Li12 O1 147_555 109_556 137.922(3)
Mn12 Li12 O1 147_555 63_565 94.2525(4)
Mn12 Li12 O1 147_555 160_655 137.922(3)
Mn12 Li12 Mn12 100_555 148_566 180.0(5)
Mn12 Li12 O1 100_555 50_555 42.078(3)
Mn12 Li12 O1 100_555 147_555 42.078(3)
Mn12 Li12 O1 100_555 100_555 85.7475(4)
Mn12 Li12 O1 100_555 109_556 137.922(3)
Mn12 Li12 O1 100_555 63_565 137.922(3)
Mn12 Li12 O1 100_555 160_655 94.2525(4)
Mn12 Li12 O1 148_566 50_555 137.922(3)
Mn12 Li12 O1 148_566 147_555 137.922(3)
Mn12 Li12 O1 148_566 100_555 94.2525(4)
Mn12 Li12 O1 148_566 109_556 42.078(3)
Mn12 Li12 O1 148_566 63_565 42.078(3)
Mn12 Li12 O1 148_566 160_655 85.7475(4)
O1 Li12 O1 50_555 147_555 83.84
O1 Li12 O1 50_555 100_555 83.84
O1 Li12 O1 50_555 109_556 180.0(5)
O1 Li12 O1 50_555 63_565 96.16
O1 Li12 O1 50_555 160_655 96.16
O1 Li12 O1 147_555 100_555 83.84
O1 Li12 O1 147_555 109_556 96.16
O1 Li12 O1 147_555 63_565 180.0(5)
O1 Li12 O1 147_555 160_655 96.16
O1 Li12 O1 100_555 109_556 96.16
O1 Li12 O1 100_555 63_565 96.16
O1 Li12 O1 100_555 160_655 180.0(5)
O1 Li12 O1 109_556 63_565 83.84
O1 Li12 O1 109_556 160_655 83.84
O1 Li12 O1 63_565 160_655 83.84
Li12 Ti12 Li12 . 50_555 0
Li12 Ti12 Li12 . 98_665 0
Li12 Ti12 Li12 . 51_656 0
Li12 Ti12 Li12 . 147_555 0
Li12 Ti12 Li12 . 100_555 0
Li12 Ti12 Li12 . 148_566 0
Li12 Ti12 Ti12 . 50_555 0
Li12 Ti12 Ti12 . 98_665 0
Li12 Ti12 Ti12 . 51_656 0
Li12 Ti12 Ti12 . 147_555 0
Li12 Ti12 Ti12 . 100_555 0
Li12 Ti12 Ti12 . 148_566 0
Li12 Ti12 Mn12 . . 0
Li12 Ti12 Mn12 . 50_555 0
Li12 Ti12 Mn12 . 98_665 0
Li12 Ti12 Mn12 . 51_656 0
Li12 Ti12 Mn12 . 147_555 0
Li12 Ti12 Mn12 . 100_555 0
Li12 Ti12 Mn12 . 148_566 0
Li12 Ti12 O1 . 50_555 0
Li12 Ti12 O1 . 147_555 0
Li12 Ti12 O1 . 100_555 0
Li12 Ti12 O1 . 109_556 0
Li12 Ti12 O1 . 63_565 0
Li12 Ti12 O1 . 160_655 0
Li12 Ti12 Li12 50_555 98_665 180.0(5)
Li12 Ti12 Li12 50_555 51_656 120.000(3)
Li12 Ti12 Li12 50_555 147_555 60.000(3)
Li12 Ti12 Li12 50_555 100_555 60.000(3)
Li12 Ti12 Li12 50_555 148_566 120.000(3)
Li12 Ti12 Ti12 50_555 50_555 0.0(5)
Li12 Ti12 Ti12 50_555 98_665 180.0(5)
Li12 Ti12 Ti12 50_555 51_656 120.000(3)
Li12 Ti12 Ti12 50_555 147_555 60.000(3)
Li12 Ti12 Ti12 50_555 100_555 60.000(3)
Li12 Ti12 Ti12 50_555 148_566 120.000(3)
Li12 Ti12 Mn12 50_555 . 0
Li12 Ti12 Mn12 50_555 50_555 0.0(5)
Li12 Ti12 Mn12 50_555 98_665 180.0(5)
Li12 Ti12 Mn12 50_555 51_656 120.000(3)
Li12 Ti12 Mn12 50_555 147_555 60.000(3)
Li12 Ti12 Mn12 50_555 100_555 60.000(3)
Li12 Ti12 Mn12 50_555 148_566 120.000(3)
Li12 Ti12 O1 50_555 50_555 85.7475(4)
Li12 Ti12 O1 50_555 147_555 42.078(3)
Li12 Ti12 O1 50_555 100_555 42.078(3)
Li12 Ti12 O1 50_555 109_556 94.2525(4)
Li12 Ti12 O1 50_555 63_565 137.922(3)
Li12 Ti12 O1 50_555 160_655 137.922(3)
Li12 Ti12 Li12 98_665 51_656 60.000(3)
Li12 Ti12 Li12 98_665 147_555 120.000(3)
Li12 Ti12 Li12 98_665 100_555 120.000(3)
Li12 Ti12 Li12 98_665 148_566 60.000(3)
Li12 Ti12 Ti12 98_665 50_555 180.0(5)
Li12 Ti12 Ti12 98_665 98_665 0.0(5)
Li12 Ti12 Ti12 98_665 51_656 60.000(3)
Li12 Ti12 Ti12 98_665 147_555 120.000(3)
Li12 Ti12 Ti12 98_665 100_555 120.000(3)
Li12 Ti12 Ti12 98_665 148_566 60.000(3)
Li12 Ti12 Mn12 98_665 . 0
Li12 Ti12 Mn12 98_665 50_555 180.0(5)
Li12 Ti12 Mn12 98_665 98_665 0.0(5)
Li12 Ti12 Mn12 98_665 51_656 60.000(3)
Li12 Ti12 Mn12 98_665 147_555 120.000(3)
Li12 Ti12 Mn12 98_665 100_555 120.000(3)
Li12 Ti12 Mn12 98_665 148_566 60.000(3)
Li12 Ti12 O1 98_665 50_555 94.2525(4)
Li12 Ti12 O1 98_665 147_555 137.922(3)
Li12 Ti12 O1 98_665 100_555 137.922(3)
Li12 Ti12 O1 98_665 109_556 85.7475(4)
Li12 Ti12 O1 98_665 63_565 42.078(3)
Li12 Ti12 O1 98_665 160_655 42.078(3)
Li12 Ti12 Li12 51_656 147_555 180.0(5)
Li12 Ti12 Li12 51_656 100_555 120.000(3)
Li12 Ti12 Li12 51_656 148_566 60.000(3)
Li12 Ti12 Ti12 51_656 50_555 120.000(3)
Li12 Ti12 Ti12 51_656 98_665 60.000(3)
Li12 Ti12 Ti12 51_656 51_656 0.0(5)
Li12 Ti12 Ti12 51_656 147_555 180.0(5)
Li12 Ti12 Ti12 51_656 100_555 120.000(3)
Li12 Ti12 Ti12 51_656 148_566 60.000(3)
Li12 Ti12 Mn12 51_656 . 0
Li12 Ti12 Mn12 51_656 50_555 120.000(3)
Li12 Ti12 Mn12 51_656 98_665 60.000(3)
Li12 Ti12 Mn12 51_656 51_656 0.0(5)
Li12 Ti12 Mn12 51_656 147_555 180.0(5)
Li12 Ti12 Mn12 51_656 100_555 120.000(3)
Li12 Ti12 Mn12 51_656 148_566 60.000(3)
Li12 Ti12 O1 51_656 50_555 137.922(3)
Li12 Ti12 O1 51_656 147_555 94.2525(4)
Li12 Ti12 O1 51_656 100_555 137.922(3)
Li12 Ti12 O1 51_656 109_556 42.078(3)
Li12 Ti12 O1 51_656 63_565 85.7475(4)
Li12 Ti12 O1 51_656 160_655 42.078(3)
Li12 Ti12 Li12 147_555 100_555 60.000(3)
Li12 Ti12 Li12 147_555 148_566 120.000(3)
Li12 Ti12 Ti12 147_555 50_555 60.000(3)
Li12 Ti12 Ti12 147_555 98_665 120.000(3)
Li12 Ti12 Ti12 147_555 51_656 180.0(5)
Li12 Ti12 Ti12 147_555 147_555 0.0(5)
Li12 Ti12 Ti12 147_555 100_555 60.000(3)
Li12 Ti12 Ti12 147_555 148_566 120.000(3)
Li12 Ti12 Mn12 147_555 . 0
Li12 Ti12 Mn12 147_555 50_555 60.000(3)
Li12 Ti12 Mn12 147_555 98_665 120.000(3)
Li12 Ti12 Mn12 147_555 51_656 180.0(5)
Li12 Ti12 Mn12 147_555 147_555 0.0(5)
Li12 Ti12 Mn12 147_555 100_555 60.000(3)
Li12 Ti12 Mn12 147_555 148_566 120.000(3)
Li12 Ti12 O1 147_555 50_555 42.078(3)
Li12 Ti12 O1 147_555 147_555 85.7475(4)
Li12 Ti12 O1 147_555 100_555 42.078(3)
Li12 Ti12 O1 147_555 109_556 137.922(3)
Li12 Ti12 O1 147_555 63_565 94.2525(4)
Li12 Ti12 O1 147_555 160_655 137.922(3)
Li12 Ti12 Li12 100_555 148_566 180.0(5)
Li12 Ti12 Ti12 100_555 50_555 60.000(3)
Li12 Ti12 Ti12 100_555 98_665 120.000(3)
Li12 Ti12 Ti12 100_555 51_656 120.000(3)
Li12 Ti12 Ti12 100_555 147_555 60.000(3)
Li12 Ti12 Ti12 100_555 100_555 0.0(5)
Li12 Ti12 Ti12 100_555 148_566 180.0(5)
Li12 Ti12 Mn12 100_555 . 0
Li12 Ti12 Mn12 100_555 50_555 60.000(3)
Li12 Ti12 Mn12 100_555 98_665 120.000(3)
Li12 Ti12 Mn12 100_555 51_656 120.000(3)
Li12 Ti12 Mn12 100_555 147_555 60.000(3)
Li12 Ti12 Mn12 100_555 100_555 0.0(5)
Li12 Ti12 Mn12 100_555 148_566 180.0(5)
Li12 Ti12 O1 100_555 50_555 42.078(3)
Li12 Ti12 O1 100_555 147_555 42.078(3)
Li12 Ti12 O1 100_555 100_555 85.7475(4)
Li12 Ti12 O1 100_555 109_556 137.922(3)
Li12 Ti12 O1 100_555 63_565 137.922(3)
Li12 Ti12 O1 100_555 160_655 94.2525(4)
Li12 Ti12 Ti12 148_566 50_555 120.000(3)
Li12 Ti12 Ti12 148_566 98_665 60.000(3)
Li12 Ti12 Ti12 148_566 51_656 60.000(3)
Li12 Ti12 Ti12 148_566 147_555 120.000(3)
Li12 Ti12 Ti12 148_566 100_555 180.0(5)
Li12 Ti12 Ti12 148_566 148_566 0.0(5)
Li12 Ti12 Mn12 148_566 . 0
Li12 Ti12 Mn12 148_566 50_555 120.000(3)
Li12 Ti12 Mn12 148_566 98_665 60.000(3)
Li12 Ti12 Mn12 148_566 51_656 60.000(3)
Li12 Ti12 Mn12 148_566 147_555 120.000(3)
Li12 Ti12 Mn12 148_566 100_555 180.0(5)
Li12 Ti12 Mn12 148_566 148_566 0.0(5)
Li12 Ti12 O1 148_566 50_555 137.922(3)
Li12 Ti12 O1 148_566 147_555 137.922(3)
Li12 Ti12 O1 148_566 100_555 94.2525(4)
Li12 Ti12 O1 148_566 109_556 42.078(3)
Li12 Ti12 O1 148_566 63_565 42.078(3)
Li12 Ti12 O1 148_566 160_655 85.7475(4)
Ti12 Ti12 Ti12 50_555 98_665 180.0(5)
Ti12 Ti12 Ti12 50_555 51_656 120.000(3)
Ti12 Ti12 Ti12 50_555 147_555 60.000(3)
Ti12 Ti12 Ti12 50_555 100_555 60.000(3)
Ti12 Ti12 Ti12 50_555 148_566 120.000(3)
Ti12 Ti12 Mn12 50_555 . 0
Ti12 Ti12 Mn12 50_555 50_555 0.0(5)
Ti12 Ti12 Mn12 50_555 98_665 180.0(5)
Ti12 Ti12 Mn12 50_555 51_656 120.000(3)
Ti12 Ti12 Mn12 50_555 147_555 60.000(3)
Ti12 Ti12 Mn12 50_555 100_555 60.000(3)
Ti12 Ti12 Mn12 50_555 148_566 120.000(3)
Ti12 Ti12 O1 50_555 50_555 85.7475(4)
Ti12 Ti12 O1 50_555 147_555 42.078(3)
Ti12 Ti12 O1 50_555 100_555 42.078(3)
Ti12 Ti12 O1 50_555 109_556 94.2525(4)
Ti12 Ti12 O1 50_555 63_565 137.922(3)
Ti12 Ti12 O1 50_555 160_655 137.922(3)
Ti12 Ti12 Ti12 98_665 51_656 60.000(3)
Ti12 Ti12 Ti12 98_665 147_555 120.000(3)
Ti12 Ti12 Ti12 98_665 100_555 120.000(3)
Ti12 Ti12 Ti12 98_665 148_566 60.000(3)
Ti12 Ti12 Mn12 98_665 . 0
Ti12 Ti12 Mn12 98_665 50_555 180.0(5)
Ti12 Ti12 Mn12 98_665 98_665 0.0(5)
Ti12 Ti12 Mn12 98_665 51_656 60.000(3)
Ti12 Ti12 Mn12 98_665 147_555 120.000(3)
Ti12 Ti12 Mn12 98_665 100_555 120.000(3)
Ti12 Ti12 Mn12 98_665 148_566 60.000(3)
Ti12 Ti12 O1 98_665 50_555 94.2525(4)
Ti12 Ti12 O1 98_665 147_555 137.922(3)
Ti12 Ti12 O1 98_665 100_555 137.922(3)
Ti12 Ti12 O1 98_665 109_556 85.7475(4)
Ti12 Ti12 O1 98_665 63_565 42.078(3)
Ti12 Ti12 O1 98_665 160_655 42.078(3)
Ti12 Ti12 Ti12 51_656 147_555 180.0(5)
Ti12 Ti12 Ti12 51_656 100_555 120.000(3)
Ti12 Ti12 Ti12 51_656 148_566 60.000(3)
Ti12 Ti12 Mn12 51_656 . 0
Ti12 Ti12 Mn12 51_656 50_555 120.000(3)
Ti12 Ti12 Mn12 51_656 98_665 60.000(3)
Ti12 Ti12 Mn12 51_656 51_656 0.0(5)
Ti12 Ti12 Mn12 51_656 147_555 180.0(5)
Ti12 Ti12 Mn12 51_656 100_555 120.000(3)
Ti12 Ti12 Mn12 51_656 148_566 60.000(3)
Ti12 Ti12 O1 51_656 50_555 137.922(3)
Ti12 Ti12 O1 51_656 147_555 94.2525(4)
Ti12 Ti12 O1 51_656 100_555 137.922(3)
Ti12 Ti12 O1 51_656 109_556 42.078(3)
Ti12 Ti12 O1 51_656 63_565 85.7475(4)
Ti12 Ti12 O1 51_656 160_655 42.078(3)
Ti12 Ti12 Ti12 147_555 100_555 60.000(3)
Ti12 Ti12 Ti12 147_555 148_566 120.000(3)
Ti12 Ti12 Mn12 147_555 . 0
Ti12 Ti12 Mn12 147_555 50_555 60.000(3)
Ti12 Ti12 Mn12 147_555 98_665 120.000(3)
Ti12 Ti12 Mn12 147_555 51_656 180.0(5)
Ti12 Ti12 Mn12 147_555 147_555 0.0(5)
Ti12 Ti12 Mn12 147_555 100_555 60.000(3)
Ti12 Ti12 Mn12 147_555 148_566 120.000(3)
Ti12 Ti12 O1 147_555 50_555 42.078(3)
Ti12 Ti12 O1 147_555 147_555 85.7475(4)
Ti12 Ti12 O1 147_555 100_555 42.078(3)
Ti12 Ti12 O1 147_555 109_556 137.922(3)
Ti12 Ti12 O1 147_555 63_565 94.2525(4)
Ti12 Ti12 O1 147_555 160_655 137.922(3)
Ti12 Ti12 Ti12 100_555 148_566 180.0(5)
Ti12 Ti12 Mn12 100_555 . 0
Ti12 Ti12 Mn12 100_555 50_555 60.000(3)
Ti12 Ti12 Mn12 100_555 98_665 120.000(3)
Ti12 Ti12 Mn12 100_555 51_656 120.000(3)
Ti12 Ti12 Mn12 100_555 147_555 60.000(3)
Ti12 Ti12 Mn12 100_555 100_555 0.0(5)
Ti12 Ti12 Mn12 100_555 148_566 180.0(5)
Ti12 Ti12 O1 100_555 50_555 42.078(3)
Ti12 Ti12 O1 100_555 147_555 42.078(3)
Ti12 Ti12 O1 100_555 100_555 85.7475(4)
Ti12 Ti12 O1 100_555 109_556 137.922(3)
Ti12 Ti12 O1 100_555 63_565 137.922(3)
Ti12 Ti12 O1 100_555 160_655 94.2525(4)
Ti12 Ti12 Mn12 148_566 . 0
Ti12 Ti12 Mn12 148_566 50_555 120.000(3)
Ti12 Ti12 Mn12 148_566 98_665 60.000(3)
Ti12 Ti12 Mn12 148_566 51_656 60.000(3)
Ti12 Ti12 Mn12 148_566 147_555 120.000(3)
Ti12 Ti12 Mn12 148_566 100_555 180.0(5)
Ti12 Ti12 Mn12 148_566 148_566 0.0(5)
Ti12 Ti12 O1 148_566 50_555 137.922(3)
Ti12 Ti12 O1 148_566 147_555 137.922(3)
Ti12 Ti12 O1 148_566 100_555 94.2525(4)
Ti12 Ti12 O1 148_566 109_556 42.078(3)
Ti12 Ti12 O1 148_566 63_565 42.078(3)
Ti12 Ti12 O1 148_566 160_655 85.7475(4)
Mn12 Ti12 Mn12 . 50_555 0
Mn12 Ti12 Mn12 . 98_665 0
Mn12 Ti12 Mn12 . 51_656 0
Mn12 Ti12 Mn12 . 147_555 0
Mn12 Ti12 Mn12 . 100_555 0
Mn12 Ti12 Mn12 . 148_566 0
Mn12 Ti12 O1 . 50_555 0
Mn12 Ti12 O1 . 147_555 0
Mn12 Ti12 O1 . 100_555 0
Mn12 Ti12 O1 . 109_556 0
Mn12 Ti12 O1 . 63_565 0
Mn12 Ti12 O1 . 160_655 0
Mn12 Ti12 Mn12 50_555 98_665 180.0(5)
Mn12 Ti12 Mn12 50_555 51_656 120.000(3)
Mn12 Ti12 Mn12 50_555 147_555 60.000(3)
Mn12 Ti12 Mn12 50_555 100_555 60.000(3)
Mn12 Ti12 Mn12 50_555 148_566 120.000(3)
Mn12 Ti12 O1 50_555 50_555 85.7475(4)
Mn12 Ti12 O1 50_555 147_555 42.078(3)
Mn12 Ti12 O1 50_555 100_555 42.078(3)
Mn12 Ti12 O1 50_555 109_556 94.2525(4)
Mn12 Ti12 O1 50_555 63_565 137.922(3)
Mn12 Ti12 O1 50_555 160_655 137.922(3)
Mn12 Ti12 Mn12 98_665 51_656 60.000(3)
Mn12 Ti12 Mn12 98_665 147_555 120.000(3)
Mn12 Ti12 Mn12 98_665 100_555 120.000(3)
Mn12 Ti12 Mn12 98_665 148_566 60.000(3)
Mn12 Ti12 O1 98_665 50_555 94.2525(4)
Mn12 Ti12 O1 98_665 147_555 137.922(3)
Mn12 Ti12 O1 98_665 100_555 137.922(3)
Mn12 Ti12 O1 98_665 109_556 85.7475(4)
Mn12 Ti12 O1 98_665 63_565 42.078(3)
Mn12 Ti12 O1 98_665 160_655 42.078(3)
Mn12 Ti12 Mn12 51_656 147_555 180.0(5)
Mn12 Ti12 Mn12 51_656 100_555 120.000(3)
Mn12 Ti12 Mn12 51_656 148_566 60.000(3)
Mn12 Ti12 O1 51_656 50_555 137.922(3)
Mn12 Ti12 O1 51_656 147_555 94.2525(4)
Mn12 Ti12 O1 51_656 100_555 137.922(3)
Mn12 Ti12 O1 51_656 109_556 42.078(3)
Mn12 Ti12 O1 51_656 63_565 85.7475(4)
Mn12 Ti12 O1 51_656 160_655 42.078(3)
Mn12 Ti12 Mn12 147_555 100_555 60.000(3)
Mn12 Ti12 Mn12 147_555 148_566 120.000(3)
Mn12 Ti12 O1 147_555 50_555 42.078(3)
Mn12 Ti12 O1 147_555 147_555 85.7475(4)
Mn12 Ti12 O1 147_555 100_555 42.078(3)
Mn12 Ti12 O1 147_555 109_556 137.922(3)
Mn12 Ti12 O1 147_555 63_565 94.2525(4)
Mn12 Ti12 O1 147_555 160_655 137.922(3)
Mn12 Ti12 Mn12 100_555 148_566 180.0(5)
Mn12 Ti12 O1 100_555 50_555 42.078(3)
Mn12 Ti12 O1 100_555 147_555 42.078(3)
Mn12 Ti12 O1 100_555 100_555 85.7475(4)
Mn12 Ti12 O1 100_555 109_556 137.922(3)
Mn12 Ti12 O1 100_555 63_565 137.922(3)
Mn12 Ti12 O1 100_555 160_655 94.2525(4)
Mn12 Ti12 O1 148_566 50_555 137.922(3)
Mn12 Ti12 O1 148_566 147_555 137.922(3)
Mn12 Ti12 O1 148_566 100_555 94.2525(4)
Mn12 Ti12 O1 148_566 109_556 42.078(3)
Mn12 Ti12 O1 148_566 63_565 42.078(3)
Mn12 Ti12 O1 148_566 160_655 85.7475(4)
O1 Ti12 O1 50_555 147_555 83.84
O1 Ti12 O1 50_555 100_555 83.84
O1 Ti12 O1 50_555 109_556 180.0(5)
O1 Ti12 O1 50_555 63_565 96.16
O1 Ti12 O1 50_555 160_655 96.16
O1 Ti12 O1 147_555 100_555 83.84
O1 Ti12 O1 147_555 109_556 96.16
O1 Ti12 O1 147_555 63_565 180.0(5)
O1 Ti12 O1 147_555 160_655 96.16
O1 Ti12 O1 100_555 109_556 96.16
O1 Ti12 O1 100_555 63_565 96.16
O1 Ti12 O1 100_555 160_655 180.0(5)
O1 Ti12 O1 109_556 63_565 83.84
O1 Ti12 O1 109_556 160_655 83.84
O1 Ti12 O1 63_565 160_655 83.84
Li12 Mn12 Li12 . 50_555 0
Li12 Mn12 Li12 . 98_665 0
Li12 Mn12 Li12 . 51_656 0
Li12 Mn12 Li12 . 147_555 0
Li12 Mn12 Li12 . 100_555 0
Li12 Mn12 Li12 . 148_566 0
Li12 Mn12 Ti12 . . 0
Li12 Mn12 Ti12 . 50_555 0
Li12 Mn12 Ti12 . 98_665 0
Li12 Mn12 Ti12 . 51_656 0
Li12 Mn12 Ti12 . 147_555 0
Li12 Mn12 Ti12 . 100_555 0
Li12 Mn12 Ti12 . 148_566 0
Li12 Mn12 O1 . 50_555 0
Li12 Mn12 O1 . 147_555 0
Li12 Mn12 O1 . 100_555 0
Li12 Mn12 O1 . 109_556 0
Li12 Mn12 O1 . 63_565 0
Li12 Mn12 O1 . 160_655 0
Li12 Mn12 Li12 50_555 98_665 180.0(5)
Li12 Mn12 Li12 50_555 51_656 120.000(3)
Li12 Mn12 Li12 50_555 147_555 60.000(3)
Li12 Mn12 Li12 50_555 100_555 60.000(3)
Li12 Mn12 Li12 50_555 148_566 120.000(3)
Li12 Mn12 Ti12 50_555 . 0
Li12 Mn12 Ti12 50_555 50_555 0.0(5)
Li12 Mn12 Ti12 50_555 98_665 180.0(5)
Li12 Mn12 Ti12 50_555 51_656 120.000(3)
Li12 Mn12 Ti12 50_555 147_555 60.000(3)
Li12 Mn12 Ti12 50_555 100_555 60.000(3)
Li12 Mn12 Ti12 50_555 148_566 120.000(3)
Li12 Mn12 O1 50_555 50_555 85.7475(4)
Li12 Mn12 O1 50_555 147_555 42.078(3)
Li12 Mn12 O1 50_555 100_555 42.078(3)
Li12 Mn12 O1 50_555 109_556 94.2525(4)
Li12 Mn12 O1 50_555 63_565 137.922(3)
Li12 Mn12 O1 50_555 160_655 137.922(3)
Li12 Mn12 Li12 98_665 51_656 60.000(3)
Li12 Mn12 Li12 98_665 147_555 120.000(3)
Li12 Mn12 Li12 98_665 100_555 120.000(3)
Li12 Mn12 Li12 98_665 148_566 60.000(3)
Li12 Mn12 Ti12 98_665 . 0
Li12 Mn12 Ti12 98_665 50_555 180.0(5)
Li12 Mn12 Ti12 98_665 98_665 0.0(5)
Li12 Mn12 Ti12 98_665 51_656 60.000(3)
Li12 Mn12 Ti12 98_665 147_555 120.000(3)
Li12 Mn12 Ti12 98_665 100_555 120.000(3)
Li12 Mn12 Ti12 98_665 148_566 60.000(3)
Li12 Mn12 O1 98_665 50_555 94.2525(4)
Li12 Mn12 O1 98_665 147_555 137.922(3)
Li12 Mn12 O1 98_665 100_555 137.922(3)
Li12 Mn12 O1 98_665 109_556 85.7475(4)
Li12 Mn12 O1 98_665 63_565 42.078(3)
Li12 Mn12 O1 98_665 160_655 42.078(3)
Li12 Mn12 Li12 51_656 147_555 180.0(5)
Li12 Mn12 Li12 51_656 100_555 120.000(3)
Li12 Mn12 Li12 51_656 148_566 60.000(3)
Li12 Mn12 Ti12 51_656 . 0
Li12 Mn12 Ti12 51_656 50_555 120.000(3)
Li12 Mn12 Ti12 51_656 98_665 60.000(3)
Li12 Mn12 Ti12 51_656 51_656 0.0(5)
Li12 Mn12 Ti12 51_656 147_555 180.0(5)
Li12 Mn12 Ti12 51_656 100_555 120.000(3)
Li12 Mn12 Ti12 51_656 148_566 60.000(3)
Li12 Mn12 O1 51_656 50_555 137.922(3)
Li12 Mn12 O1 51_656 147_555 94.2525(4)
Li12 Mn12 O1 51_656 100_555 137.922(3)
Li12 Mn12 O1 51_656 109_556 42.078(3)
Li12 Mn12 O1 51_656 63_565 85.7475(4)
Li12 Mn12 O1 51_656 160_655 42.078(3)
Li12 Mn12 Li12 147_555 100_555 60.000(3)
Li12 Mn12 Li12 147_555 148_566 120.000(3)
Li12 Mn12 Ti12 147_555 . 0
Li12 Mn12 Ti12 147_555 50_555 60.000(3)
Li12 Mn12 Ti12 147_555 98_665 120.000(3)
Li12 Mn12 Ti12 147_555 51_656 180.0(5)
Li12 Mn12 Ti12 147_555 147_555 0.0(5)
Li12 Mn12 Ti12 147_555 100_555 60.000(3)
Li12 Mn12 Ti12 147_555 148_566 120.000(3)
Li12 Mn12 O1 147_555 50_555 42.078(3)
Li12 Mn12 O1 147_555 147_555 85.7475(4)
Li12 Mn12 O1 147_555 100_555 42.078(3)
Li12 Mn12 O1 147_555 109_556 137.922(3)
Li12 Mn12 O1 147_555 63_565 94.2525(4)
Li12 Mn12 O1 147_555 160_655 137.922(3)
Li12 Mn12 Li12 100_555 148_566 180.0(5)
Li12 Mn12 Ti12 100_555 . 0
Li12 Mn12 Ti12 100_555 50_555 60.000(3)
Li12 Mn12 Ti12 100_555 98_665 120.000(3)
Li12 Mn12 Ti12 100_555 51_656 120.000(3)
Li12 Mn12 Ti12 100_555 147_555 60.000(3)
Li12 Mn12 Ti12 100_555 100_555 0.0(5)
Li12 Mn12 Ti12 100_555 148_566 180.0(5)
Li12 Mn12 O1 100_555 50_555 42.078(3)
Li12 Mn12 O1 100_555 147_555 42.078(3)
Li12 Mn12 O1 100_555 100_555 85.7475(4)
Li12 Mn12 O1 100_555 109_556 137.922(3)
Li12 Mn12 O1 100_555 63_565 137.922(3)
Li12 Mn12 O1 100_555 160_655 94.2525(4)
Li12 Mn12 Ti12 148_566 . 0
Li12 Mn12 Ti12 148_566 50_555 120.000(3)
Li12 Mn12 Ti12 148_566 98_665 60.000(3)
Li12 Mn12 Ti12 148_566 51_656 60.000(3)
Li12 Mn12 Ti12 148_566 147_555 120.000(3)
Li12 Mn12 Ti12 148_566 100_555 180.0(5)
Li12 Mn12 Ti12 148_566 148_566 0.0(5)
Li12 Mn12 O1 148_566 50_555 137.922(3)
Li12 Mn12 O1 148_566 147_555 137.922(3)
Li12 Mn12 O1 148_566 100_555 94.2525(4)
Li12 Mn12 O1 148_566 109_556 42.078(3)
Li12 Mn12 O1 148_566 63_565 42.078(3)
Li12 Mn12 O1 148_566 160_655 85.7475(4)
Ti12 Mn12 Ti12 . 50_555 0
Ti12 Mn12 Ti12 . 98_665 0
Ti12 Mn12 Ti12 . 51_656 0
Ti12 Mn12 Ti12 . 147_555 0
Ti12 Mn12 Ti12 . 100_555 0
Ti12 Mn12 Ti12 . 148_566 0
Ti12 Mn12 O1 . 50_555 0
Ti12 Mn12 O1 . 147_555 0
Ti12 Mn12 O1 . 100_555 0
Ti12 Mn12 O1 . 109_556 0
Ti12 Mn12 O1 . 63_565 0
Ti12 Mn12 O1 . 160_655 0
Ti12 Mn12 Ti12 50_555 98_665 180.0(5)
Ti12 Mn12 Ti12 50_555 51_656 120.000(3)
Ti12 Mn12 Ti12 50_555 147_555 60.000(3)
Ti12 Mn12 Ti12 50_555 100_555 60.000(3)
Ti12 Mn12 Ti12 50_555 148_566 120.000(3)
Ti12 Mn12 O1 50_555 50_555 85.7475(4)
Ti12 Mn12 O1 50_555 147_555 42.078(3)
Ti12 Mn12 O1 50_555 100_555 42.078(3)
Ti12 Mn12 O1 50_555 109_556 94.2525(4)
Ti12 Mn12 O1 50_555 63_565 137.922(3)
Ti12 Mn12 O1 50_555 160_655 137.922(3)
Ti12 Mn12 Ti12 98_665 51_656 60.000(3)
Ti12 Mn12 Ti12 98_665 147_555 120.000(3)
Ti12 Mn12 Ti12 98_665 100_555 120.000(3)
Ti12 Mn12 Ti12 98_665 148_566 60.000(3)
Ti12 Mn12 O1 98_665 50_555 94.2525(4)
Ti12 Mn12 O1 98_665 147_555 137.922(3)
Ti12 Mn12 O1 98_665 100_555 137.922(3)
Ti12 Mn12 O1 98_665 109_556 85.7475(4)
Ti12 Mn12 O1 98_665 63_565 42.078(3)
Ti12 Mn12 O1 98_665 160_655 42.078(3)
Ti12 Mn12 Ti12 51_656 147_555 180.0(5)
Ti12 Mn12 Ti12 51_656 100_555 120.000(3)
Ti12 Mn12 Ti12 51_656 148_566 60.000(3)
Ti12 Mn12 O1 51_656 50_555 137.922(3)
Ti12 Mn12 O1 51_656 147_555 94.2525(4)
Ti12 Mn12 O1 51_656 100_555 137.922(3)
Ti12 Mn12 O1 51_656 109_556 42.078(3)
Ti12 Mn12 O1 51_656 63_565 85.7475(4)
Ti12 Mn12 O1 51_656 160_655 42.078(3)
Ti12 Mn12 Ti12 147_555 100_555 60.000(3)
Ti12 Mn12 Ti12 147_555 148_566 120.000(3)
Ti12 Mn12 O1 147_555 50_555 42.078(3)
Ti12 Mn12 O1 147_555 147_555 85.7475(4)
Ti12 Mn12 O1 147_555 100_555 42.078(3)
Ti12 Mn12 O1 147_555 109_556 137.922(3)
Ti12 Mn12 O1 147_555 63_565 94.2525(4)
Ti12 Mn12 O1 147_555 160_655 137.922(3)
Ti12 Mn12 Ti12 100_555 148_566 180.0(5)
Ti12 Mn12 O1 100_555 50_555 42.078(3)
Ti12 Mn12 O1 100_555 147_555 42.078(3)
Ti12 Mn12 O1 100_555 100_555 85.7475(4)
Ti12 Mn12 O1 100_555 109_556 137.922(3)
Ti12 Mn12 O1 100_555 63_565 137.922(3)
Ti12 Mn12 O1 100_555 160_655 94.2525(4)
Ti12 Mn12 O1 148_566 50_555 137.922(3)
Ti12 Mn12 O1 148_566 147_555 137.922(3)
Ti12 Mn12 O1 148_566 100_555 94.2525(4)
Ti12 Mn12 O1 148_566 109_556 42.078(3)
Ti12 Mn12 O1 148_566 63_565 42.078(3)
Ti12 Mn12 O1 148_566 160_655 85.7475(4)
O1 Mn12 O1 50_555 147_555 83.84
O1 Mn12 O1 50_555 100_555 83.84
O1 Mn12 O1 50_555 109_556 180.0(5)
O1 Mn12 O1 50_555 63_565 96.16
O1 Mn12 O1 50_555 160_655 96.16
O1 Mn12 O1 147_555 100_555 83.84
O1 Mn12 O1 147_555 109_556 96.16
O1 Mn12 O1 147_555 63_565 180.0(5)
O1 Mn12 O1 147_555 160_655 96.16
O1 Mn12 O1 100_555 109_556 96.16
O1 Mn12 O1 100_555 63_565 96.16
O1 Mn12 O1 100_555 160_655 180.0(5)
O1 Mn12 O1 109_556 63_565 83.84
O1 Mn12 O1 109_556 160_655 83.84
O1 Mn12 O1 63_565 160_655 83.84
Li11 O1 Ti11 . . 0.0(5)
Li11 O1 Li12 . 50_555 121.012(3)
Li11 O1 Li12 . 147_555 121.012(3)
Li11 O1 Li12 . 100_555 121.012(3)
Li11 O1 Ti12 . 50_555 121.012(3)
Li11 O1 Ti12 . 147_555 121.012(3)
Li11 O1 Ti12 . 100_555 121.012(3)
Li11 O1 Mn12 . 50_555 121.012(3)
Li11 O1 Mn12 . 147_555 121.012(3)
Li11 O1 Mn12 . 100_555 121.012(3)
Ti11 O1 Li12 . 50_555 121.012(3)
Ti11 O1 Li12 . 147_555 121.012(3)
Ti11 O1 Li12 . 100_555 121.012(3)
Ti11 O1 Ti12 . 50_555 121.012(3)
Ti11 O1 Ti12 . 147_555 121.012(3)
Ti11 O1 Ti12 . 100_555 121.012(3)
Ti11 O1 Mn12 . 50_555 121.012(3)
Ti11 O1 Mn12 . 147_555 121.012(3)
Ti11 O1 Mn12 . 100_555 121.012(3)
Li12 O1 Li12 50_555 147_555 95.84
Li12 O1 Li12 50_555 100_555 95.84
Li12 O1 Ti12 50_555 50_555 0.0(5)
Li12 O1 Ti12 50_555 147_555 95.84
Li12 O1 Ti12 50_555 100_555 95.84
Li12 O1 Mn12 50_555 50_555 0.0(5)
Li12 O1 Mn12 50_555 147_555 95.84
Li12 O1 Mn12 50_555 100_555 95.84
Li12 O1 Li12 147_555 100_555 95.84
Li12 O1 Ti12 147_555 50_555 95.84
Li12 O1 Ti12 147_555 147_555 0.0(5)
Li12 O1 Ti12 147_555 100_555 95.84
Li12 O1 Mn12 147_555 50_555 95.84
Li12 O1 Mn12 147_555 147_555 0.0(5)
Li12 O1 Mn12 147_555 100_555 95.84
Li12 O1 Ti12 100_555 50_555 95.84
Li12 O1 Ti12 100_555 147_555 95.84
Li12 O1 Ti12 100_555 100_555 0.0(5)
Li12 O1 Mn12 100_555 50_555 95.84
Li12 O1 Mn12 100_555 147_555 95.84
Li12 O1 Mn12 100_555 100_555 0.0(5)
Ti12 O1 Ti12 50_555 147_555 95.84
Ti12 O1 Ti12 50_555 100_555 95.84
Ti12 O1 Mn12 50_555 50_555 0.0(5)
Ti12 O1 Mn12 50_555 147_555 95.84
Ti12 O1 Mn12 50_555 100_555 95.84
Ti12 O1 Ti12 147_555 100_555 95.84
Ti12 O1 Mn12 147_555 50_555 95.84
Ti12 O1 Mn12 147_555 147_555 0.0(5)
Ti12 O1 Mn12 147_555 100_555 95.84
Ti12 O1 Mn12 100_555 50_555 95.84
Ti12 O1 Mn12 100_555 147_555 95.84
Ti12 O1 Mn12 100_555 100_555 0.0(5)
Mn12 O1 Mn12 50_555 147_555 95.84
Mn12 O1 Mn12 50_555 100_555 95.84
Mn12 O1 Mn12 147_555 100_555 95.84
loop_
_geom_bond_atom_site_label_1
_geom_bond_atom_site_label_2
_geom_bond_site_symmetry_2
_geom_bond_distance
Li11 Ti11 . 0
Li11 O1 . 1.98619(16)
Li11 O1 98_555 1.98619(16)
Li11 O1 51_555 1.98619(16)
Li11 O1 148_555 1.98619(16)
Ti11 O1 . 1.98619(16)
Ti11 O1 98_555 1.98619(16)
Ti11 O1 51_555 1.98619(16)
Ti11 O1 148_555 1.98619(16)
Li12 Li12 50_555 2.9488(3)
Li12 Li12 98_665 2.9488(3)
Li12 Li12 51_656 2.9488(3)
Li12 Li12 147_555 2.9488(3)
Li12 Li12 100_555 2.9488(3)
Li12 Li12 148_566 2.9488(3)
Li12 Ti12 . 0
Li12 Ti12 50_555 2.9488(3)
Li12 Ti12 98_665 2.9488(3)
Li12 Ti12 51_656 2.9488(3)
Li12 Ti12 147_555 2.9488(3)
Li12 Ti12 100_555 2.9488(3)
Li12 Ti12 148_566 2.9488(3)
Li12 Mn12 . 0
Li12 Mn12 50_555 2.9488(3)
Li12 Mn12 98_665 2.9488(3)
Li12 Mn12 51_656 2.9488(3)
Li12 Mn12 147_555 2.9488(3)
Li12 Mn12 100_555 2.9488(3)
Li12 Mn12 148_566 2.9488(3)
Li12 O1 50_555 1.9864(3)
Li12 O1 147_555 1.9864(3)
Li12 O1 100_555 1.9864(3)
Li12 O1 109_556 1.9864(3)
Li12 O1 63_565 1.9864(3)
Li12 O1 160_655 1.9864(3)
Ti12 Ti12 50_555 2.9488(3)
Ti12 Ti12 98_665 2.9488(3)
Ti12 Ti12 51_656 2.9488(3)
Ti12 Ti12 147_555 2.9488(3)
Ti12 Ti12 100_555 2.9488(3)
Ti12 Ti12 148_566 2.9488(3)
Ti12 Mn12 . 0
Ti12 Mn12 50_555 2.9488(3)
Ti12 Mn12 98_665 2.9488(3)
Ti12 Mn12 51_656 2.9488(3)
Ti12 Mn12 147_555 2.9488(3)
Ti12 Mn12 100_555 2.9488(3)
Ti12 Mn12 148_566 2.9488(3)
Ti12 O1 50_555 1.9864(3)
Ti12 O1 147_555 1.9864(3)
Ti12 O1 100_555 1.9864(3)
Ti12 O1 109_556 1.9864(3)
Ti12 O1 63_565 1.9864(3)
Ti12 O1 160_655 1.9864(3)
Mn12 O1 50_555 1.9864(3)
Mn12 O1 147_555 1.9864(3)
Mn12 O1 100_555 1.9864(3)
Mn12 O1 109_556 1.9864(3)
Mn12 O1 63_565 1.9864(3)
Mn12 O1 160_655 1.9864(3)
loop_
_pd_proc_point_id
_pd_proc_2theta_corrected
_pd_proc_intensity_net
_pd_calc_intensity_net
_pd_proc_ls_weight
1 11.5597 965.17 954.25 27.43
2 11.6098 997.24 953.30 27.90
3 11.6598 958.02 952.36 27.40
4 11.7097 946.37 951.41 27.24
5 11.7597 952.24 950.47 27.38
6 11.8097 1001.90 949.52 28.04
7 11.8597 935.72 948.57 26.87
8 11.9097 925.99 947.63 26.80
9 11.9597 956.63 946.68 27.15
10 12.0097 969.80 945.73 27.67
11 12.0597 944.18 944.79 27.23
12 12.1096 964.39 943.84 27.28
13 12.1597 970.45 942.90 27.46
14 12.2097 973.21 941.95 27.44
15 12.2597 946.13 941.00 26.85
16 12.3097 993.54 940.06 27.72
17 12.3596 968.33 939.11 27.75
18 12.4097 891.66 938.16 26.05
19 12.4597 960.76 937.22 24.87
20 12.5098 912.26 936.27 24.25
21 12.5598 982.59 935.33 25.14
22 12.6098 968.93 934.38 25.01
23 12.6597 937.39 933.43 24.60
24 12.7098 916.89 932.49 24.31
25 12.7597 936.15 931.54 24.58
26 12.8097 933.81 930.60 24.53
27 12.8598 978.50 929.65 25.10
28 12.9098 927.84 928.70 24.44
29 12.9597 909.73 927.76 24.20
30 13.0097 923.72 926.81 24.41
31 13.0597 952.94 925.86 24.76
32 13.1097 916.68 924.92 24.29
33 13.1597 925.09 923.97 24.40
34 13.2097 910.56 923.03 24.24
35 13.2597 958.43 922.08 24.86
36 13.3097 920.73 921.14 24.32
37 13.3596 899.95 920.19 24.06
38 13.4097 904.07 919.24 24.04
39 13.4597 923.18 918.30 24.26
40 13.5097 944.70 917.35 24.53
41 13.5597 944.76 916.40 24.63
42 13.6096 904.02 915.46 24.21
43 13.6597 926.75 914.51 24.46
44 13.7097 923.12 913.57 24.07
45 13.7598 886.24 912.62 23.60
46 13.8098 913.30 911.67 23.96
47 13.8597 931.06 910.73 24.23
48 13.9097 868.03 909.78 23.37
49 13.9598 917.47 908.83 24.04
50 14.0097 875.78 907.89 23.48
51 14.0597 886.71 906.94 23.62
52 14.1098 888.94 905.99 23.65
53 14.1598 923.76 905.05 24.08
54 14.2097 911.72 904.10 23.96
55 14.2597 919.62 903.16 24.06
56 14.3097 916.21 902.21 24.01
57 14.3597 919.23 901.27 24.01
58 14.4097 872.37 900.32 23.41
59 14.4597 914.66 899.37 24.04
60 14.5097 903.79 898.43 23.85
61 14.5597 883.46 897.48 23.57
62 14.6096 897.02 896.54 23.75
63 14.6597 928.28 895.59 24.07
64 14.7097 876.46 894.64 23.35
65 14.7597 892.67 893.70 23.53
66 14.8097 851.13 892.75 23.09
67 14.8596 910.20 891.81 24.07
68 14.9097 906.96 890.86 23.87
69 14.9597 881.64 889.91 23.40
70 15.0097 877.33 888.97 23.40
71 15.0597 860.67 888.02 23.15
72 15.1097 910.06 888.29 23.84
73 15.1597 902.85 887.44 23.75
74 15.2098 869.12 886.61 23.26
75 15.2597 912.82 885.79 23.87
76 15.3097 864.14 885.00 23.21
77 15.3598 883.44 884.25 23.46
78 15.4097 871.38 883.55 23.29
79 15.4597 871.68 882.92 23.32
80 15.5097 907.79 882.44 23.78
81 15.5597 927.48 882.22 24.05
82 15.6097 897.23 882.72 23.63
83 15.6597 881.53 883.59 23.41
84 15.7097 846.03 878.52 22.95
85 15.7597 867.93 875.09 23.24
86 15.8096 920.91 873.94 23.97
87 15.8596 866.21 872.95 23.23
88 15.9097 887.73 871.98 23.43
89 15.9596 866.53 871.03 23.13
90 16.0097 848.33 870.07 22.87
91 16.0597 866.14 869.12 23.12
92 16.1096 854.03 868.17 23.19
93 16.1597 830.29 867.22 22.69
94 16.2097 911.02 866.27 24.13
95 16.2597 865.26 865.32 23.54
96 16.3098 861.08 864.36 23.48
97 16.3597 840.85 863.42 23.20
98 16.4097 808.65 862.94 22.75
99 16.4598 860.13 862.04 23.45
100 16.5097 849.17 861.15 23.31
101 16.5597 813.92 860.27 22.84
102 16.6098 869.01 859.40 23.60
103 16.6597 843.54 858.55 23.23
104 16.7097 823.09 857.71 22.95
105 16.7597 833.55 856.88 23.11
106 16.8097 850.48 856.13 23.33
107 16.8597 900.74 855.38 24.01
108 16.9097 845.17 854.64 23.25
109 16.9597 881.66 853.90 23.78
110 17.0097 834.50 853.18 23.10
111 17.0596 820.61 852.46 22.90
112 17.1096 872.70 851.75 23.63
113 17.1597 880.07 851.04 23.62
114 17.2096 840.39 850.34 23.09
115 17.2597 870.89 849.65 23.47
116 17.3097 816.47 848.97 22.79
117 17.3596 884.58 848.29 23.92
118 17.4097 832.83 847.62 23.08
119 17.4597 866.34 846.97 23.21
120 17.5097 877.79 846.32 23.43
121 17.5597 854.52 845.68 23.09
122 17.6097 849.51 845.05 23.05
123 17.6597 851.68 844.44 23.05
124 17.7097 898.73 847.85 23.70
125 17.7597 836.56 847.52 22.84
126 17.8097 855.68 847.21 23.09
127 17.8597 847.12 846.93 23.01
128 17.9097 856.92 846.69 23.11
129 17.9597 844.39 846.48 22.93
130 18.0097 845.95 846.32 22.97
131 18.0597 847.15 846.19 22.96
132 18.1097 866.88 846.11 23.29
133 18.1597 873.87 846.09 23.32
134 18.2097 888.21 846.12 23.55
135 18.2597 867.24 846.22 23.26
136 18.3096 839.11 846.40 22.87
137 18.3596 848.13 846.66 22.99
138 18.4097 890.34 847.01 23.49
139 18.4596 854.71 847.47 22.99
140 18.5096 907.32 848.05 23.62
141 18.5597 847.90 848.78 22.82
142 18.6096 862.47 849.68 23.26
143 18.6597 876.24 850.79 23.41
144 18.7097 853.86 852.16 22.82
145 18.7597 921.77 853.83 23.78
146 18.8097 894.54 855.89 23.39
147 18.8597 913.93 858.49 23.66
148 18.9097 908.12 861.81 23.59
149 18.9597 944.77 866.23 24.05
150 19.0097 910.74 872.37 23.60
151 19.0597 960.43 880.96 24.21
152 19.1097 908.63 891.49 23.57
153 19.1597 895.67 900.05 23.40
154 19.2097 875.84 899.92 23.14
155 19.2597 885.46 888.27 23.27
156 19.3097 929.08 871.00 23.83
157 19.3597 932.52 855.72 23.87
158 19.4097 885.87 844.51 23.28
159 19.4597 896.12 835.87 23.44
160 19.5096 902.50 828.66 23.46
161 19.5596 860.54 822.62 22.94
162 19.6096 822.76 817.73 22.40
163 19.6597 868.98 813.88 22.95
164 19.7096 835.21 810.89 22.49
165 19.7596 827.59 808.51 22.35
166 19.8097 854.80 806.57 22.77
167 19.8596 781.14 804.92 21.94
168 19.9097 821.10 803.46 22.39
169 19.9597 825.44 802.13 22.90
170 20.0097 852.39 800.88 23.32
171 20.0597 799.87 799.71 22.57
172 20.1097 818.43 798.57 22.82
173 20.1597 776.37 797.48 22.24
174 20.2097 786.62 796.42 22.37
175 20.2597 786.54 795.38 22.36
176 20.3097 800.59 794.37 22.57
177 20.3597 823.49 793.36 22.91
178 20.4097 814.37 792.38 22.76
179 20.4597 801.25 791.41 22.61
180 20.5097 801.63 790.44 22.60
181 20.5597 764.30 789.48 22.04
182 20.6097 800.25 788.54 22.56
183 20.6597 795.01 787.59 22.48
184 20.7097 811.22 786.66 22.73
185 20.7596 780.36 785.73 22.30
186 20.8096 791.75 784.77 22.44
187 20.8596 783.04 783.85 22.30
188 20.9097 770.52 782.93 22.06
189 20.9596 798.03 782.02 22.44
190 21.0096 755.58 781.10 21.81
191 21.0596 768.28 780.19 21.97
192 21.1096 796.63 779.28 22.58
193 21.1597 783.70 778.37 22.30
194 21.2097 843.48 777.46 23.00
195 21.2597 804.61 776.56 22.43
196 21.3097 805.87 775.66 22.48
197 21.3597 801.53 774.75 22.45
198 21.4097 771.69 773.85 22.04
199 21.4597 796.88 772.95 22.35
200 21.5097 793.23 772.05 22.29
201 21.5597 787.41 771.15 22.23
202 21.6097 817.72 770.26 22.72
203 21.6597 784.15 769.36 22.16
204 21.7097 742.38 768.46 21.56
205 21.7597 781.40 767.57 22.14
206 21.8097 768.24 766.67 22.00
207 21.8596 806.36 765.78 22.53
208 21.9097 773.16 764.88 22.05
209 21.9596 800.39 763.99 22.41
210 22.0096 770.44 763.10 22.00
211 22.0596 778.10 762.40 22.13
212 22.1096 752.09 761.69 21.72
213 22.1597 745.37 760.99 21.54
214 22.2096 736.10 760.29 21.41
215 22.2596 756.08 759.58 21.64
216 22.3096 737.86 758.88 21.37
217 22.3596 765.20 758.18 21.89
218 22.4097 775.08 757.48 22.01
219 22.4597 722.72 756.61 20.76
220 22.5097 799.23 755.91 21.93
221 22.5597 774.94 755.22 21.58
222 22.6097 763.71 754.54 21.39
223 22.6597 754.66 753.85 21.29
224 22.7097 764.58 753.17 21.40
225 22.7597 779.72 752.49 21.64
226 22.8097 741.88 751.83 21.10
227 22.8597 718.26 751.19 20.76
228 22.9097 778.21 750.56 21.60
229 22.9597 757.91 749.95 21.31
230 23.0097 752.14 749.35 21.27
231 23.0596 706.76 748.76 20.59
232 23.1096 770.01 748.19 21.51
233 23.1596 746.64 747.62 21.13
234 23.2096 735.88 747.05 20.95
235 23.2596 708.08 746.49 20.63
236 23.3096 726.37 745.94 20.87
237 23.3596 732.69 745.40 20.96
238 23.4097 757.32 744.86 21.21
239 23.4596 719.12 744.34 20.67
240 23.5096 750.83 743.82 21.09
241 23.5596 720.86 743.31 20.65
242 23.6096 730.36 742.82 20.97
243 23.6597 716.58 742.33 20.66
244 23.7096 768.79 741.86 22.22
245 23.7597 721.65 741.41 21.66
246 23.8097 736.82 740.97 21.84
247 23.8597 728.21 740.55 21.70
248 23.9097 695.49 740.16 21.20
249 23.9597 743.12 739.78 21.93
250 24.0097 708.82 739.44 21.39
251 24.0597 756.10 739.13 22.10
252 24.1097 726.27 738.85 21.68
253 24.1597 719.50 738.62 21.53
254 24.2097 721.03 738.45 21.62
255 24.2597 731.35 738.34 21.69
256 24.3096 718.56 738.30 21.59
257 24.3596 685.64 738.37 21.03
258 24.4096 713.10 738.58 21.47
259 24.4596 730.29 738.98 21.70
260 24.5096 720.07 739.64 21.64
261 24.5596 719.46 740.69 21.48
262 24.6096 724.88 742.27 21.68
263 24.6596 728.04 744.43 21.58
264 24.7096 698.08 747.01 21.11
265 24.7596 753.35 749.41 21.94
266 24.8096 719.44 750.66 21.36
267 24.8596 712.62 749.73 21.51
268 24.9096 746.63 746.17 21.95
269 24.9596 697.13 740.52 20.81
270 25.0097 709.97 734.11 21.04
271 25.0597 749.27 728.34 21.55
272 25.1097 729.45 723.96 21.26
273 25.1597 727.35 721.05 21.26
274 25.2097 737.26 719.22 21.35
275 25.2597 705.82 718.03 20.96
276 25.3097 721.15 717.15 21.06
277 25.3597 681.27 716.39 20.56
278 25.4097 723.03 715.68 21.11
279 25.4597 707.96 715.00 20.95
280 25.5097 708.76 714.33 21.03
281 25.5596 685.30 713.67 20.62
282 25.6096 709.43 713.03 21.00
283 25.6596 732.87 712.40 21.31
284 25.7096 723.93 711.78 21.18
285 25.7596 731.92 711.17 21.23
286 25.8096 674.71 710.56 20.47
287 25.8596 708.32 709.96 20.91
288 25.9096 682.04 709.37 20.40
289 25.9596 719.84 708.78 21.01
290 26.0096 705.91 708.20 20.67
291 26.0596 704.53 707.63 20.75
292 26.1096 679.84 707.07 20.44
293 26.1596 694.74 706.51 20.61
294 26.2096 731.14 705.97 28.14
295 26.2505 693.52 705.53 19.23
296 26.3005 745.05 705.01 19.94
297 26.3505 714.29 704.50 19.51
298 26.4005 702.10 704.01 19.35
299 26.4505 709.14 703.53 19.46
300 26.5005 703.70 703.08 19.36
301 26.5505 678.74 702.65 19.03
302 26.6005 684.98 702.26 19.11
303 26.6505 708.33 701.90 19.43
304 26.7005 716.40 701.58 19.55
305 26.7504 677.80 701.32 19.02
306 26.8005 706.06 701.14 19.37
307 26.8504 681.90 701.06 19.07
308 26.9004 700.19 701.13 19.32
309 26.9504 694.32 701.39 19.22
310 27.0004 716.49 701.91 19.58
311 27.0504 704.48 702.72 19.40
312 27.1004 711.96 703.73 19.53
313 27.1504 696.66 704.74 19.18
314 27.2004 657.24 705.34 18.65
315 27.2504 686.12 705.09 19.03
316 27.3004 677.71 703.77 18.89
317 27.3504 696.05 701.28 19.27
318 27.4004 684.26 697.98 19.06
319 27.4504 713.98 694.50 20.59
320 27.5005 688.36 691.35 20.15
321 27.5505 728.19 689.12 20.83
322 27.6005 672.10 687.31 19.94
323 27.6505 692.51 686.04 20.31
324 27.7005 688.41 685.12 20.24
325 27.7505 668.22 684.39 19.86
326 27.8005 661.64 683.74 19.76
327 27.8505 686.27 683.13 20.08
328 27.9005 657.89 682.53 19.78
329 27.9505 660.79 681.94 19.72
330 28.0005 700.42 681.34 20.39
331 28.0504 700.56 680.76 20.40
332 28.1004 712.52 680.17 20.53
333 28.1504 704.95 679.58 20.50
334 28.2005 686.69 678.99 20.13
335 28.2504 687.86 678.41 20.21
336 28.3004 692.01 677.83 20.28
337 28.3504 683.26 677.24 20.11
338 28.4004 657.42 676.66 19.74
339 28.4505 679.71 676.08 20.01
340 28.5004 661.61 675.50 19.70
341 28.5504 680.40 674.92 19.94
342 28.6004 685.58 674.34 20.09
343 28.6504 650.34 673.78 19.61
344 28.7035 678.97 673.17 16.34
345 28.7597 647.28 672.53 20.14
346 28.8097 672.82 671.95 20.53
347 28.8597 701.02 671.38 20.98
348 28.9097 688.84 670.81 20.78
349 28.9597 676.74 670.24 20.60
350 29.0097 680.59 669.67 20.66
351 29.0596 707.16 669.10 21.01
352 29.1097 687.92 668.54 20.74
353 29.1597 679.90 667.97 20.62
354 29.2096 664.73 667.41 20.39
355 29.2596 687.24 666.85 20.74
356 29.3096 668.20 666.30 20.45
357 29.3596 640.70 665.74 20.03
358 29.4096 698.90 665.19 20.94
359 29.4596 639.18 664.65 19.98
360 29.5096 667.37 664.10 20.43
361 29.5596 648.80 663.57 20.12
362 29.6095 679.16 663.03 20.64
363 29.6596 682.72 662.51 20.58
364 29.7096 624.36 661.98 19.67
365 29.7596 688.47 661.47 20.61
366 29.8096 670.90 660.98 20.33
367 29.8595 684.04 660.51 20.68
368 29.9096 666.07 660.06 20.31
369 29.9596 681.68 659.67 19.25
370 30.0097 682.05 659.34 19.34
371 30.0597 660.45 659.10 18.97
372 30.1097 707.87 658.98 19.69
373 30.1597 677.86 658.99 19.25
374 30.2097 665.72 659.15 19.02
375 30.2596 674.38 659.46 19.25
376 30.3096 668.68 659.93 19.10
377 30.3597 698.45 660.58 19.57
378 30.4097 682.46 661.39 19.30
379 30.4596 726.34 662.37 19.92
380 30.5096 722.47 663.53 19.86
381 30.5596 667.82 664.87 19.08
382 30.6096 725.06 666.40 19.94
383 30.6596 692.36 668.13 19.49
384 30.7096 695.26 670.07 19.46
385 30.7596 691.65 672.24 19.39
386 30.8096 686.61 674.67 19.34
387 30.8595 728.18 677.38 19.93
388 30.9096 705.26 680.44 19.52
389 30.9596 716.84 683.88 19.69
390 31.0096 749.53 687.79 20.11
391 31.0596 761.30 692.29 20.29
392 31.1095 785.91 697.52 20.89
393 31.1596 762.18 703.74 20.41
394 31.2090 774.32 711.10 20.01
395 31.2591 838.44 720.09 20.91
396 31.3091 800.27 730.84 20.39
397 31.3591 832.23 743.34 20.83
398 31.4090 802.08 757.07 20.41
399 31.4591 806.31 771.01 20.48
400 31.5090 817.62 783.35 20.64
401 31.5591 855.01 792.18 21.09
402 31.6091 870.72 795.76 21.28
403 31.6591 847.25 793.32 20.97
404 31.7090 843.47 785.32 20.93
405 31.7590 806.44 773.22 20.46
406 31.8090 767.03 758.85 19.96
407 31.8590 764.10 743.69 19.93
408 31.9090 792.78 728.67 20.33
409 31.9590 779.24 714.27 20.09
410 32.0090 723.73 700.82 19.37
411 32.0590 773.01 688.59 20.02
412 32.1089 690.69 677.76 18.92
413 32.1590 720.08 668.34 19.29
414 32.2090 664.64 660.35 18.44
415 32.2590 659.03 653.71 18.37
416 32.3090 647.66 648.32 18.27
417 32.3589 653.27 644.02 18.49
418 32.4090 665.27 640.62 18.59
419 32.4538 644.02 638.21 18.37
420 32.5039 639.63 636.06 18.35
421 32.5538 672.25 635.37 18.79
422 32.6038 635.43 634.99 18.28
423 32.6538 621.47 634.84 18.02
424 32.7039 642.08 634.85 18.37
425 32.7538 638.03 638.57 18.28
426 32.8038 620.95 638.87 18.07
427 32.8539 634.49 639.24 18.22
428 32.9038 622.37 639.68 18.10
429 32.9538 669.89 640.20 18.78
430 33.0038 641.29 640.77 18.38
431 33.0538 656.90 641.42 18.57
432 33.1038 649.73 642.16 18.48
433 33.1538 654.32 643.00 18.54
434 33.2038 640.12 643.97 18.33
435 33.2538 658.86 645.06 18.61
436 33.3038 637.93 646.29 18.32
437 33.3537 614.59 647.62 17.93
438 33.4038 646.59 648.98 18.38
439 33.4538 665.52 650.24 18.61
440 33.5038 633.04 651.26 18.10
441 33.5538 648.92 651.90 18.34
442 33.6037 630.24 652.06 18.25
443 33.6538 634.57 651.76 18.15
444 33.6984 673.07 651.19 18.49
445 33.7485 644.82 650.38 18.10
446 33.7985 649.46 649.79 18.24
447 33.8485 655.29 649.17 18.25
448 33.8985 664.12 648.82 18.39
449 33.9485 661.38 648.76 18.33
450 33.9985 656.48 648.95 18.31
451 34.0485 654.39 649.34 18.26
452 34.0985 654.33 649.88 18.29
453 34.1485 665.88 650.54 18.39
454 34.1984 629.43 651.27 17.90
455 34.2484 679.35 652.07 18.62
456 34.2984 671.46 652.92 18.46
457 34.3484 644.22 677.30 18.05
458 34.3984 642.25 678.77 18.09
459 34.4484 658.69 680.29 18.34
460 34.4984 677.91 681.89 18.60
461 34.5484 662.38 683.56 18.34
462 34.5984 696.56 685.31 18.88
463 34.6484 691.82 687.13 18.69
464 34.6984 725.25 689.05 19.12
465 34.7484 740.18 691.06 19.32
466 34.7984 738.59 693.20 19.35
467 34.8484 724.08 695.48 19.29
468 34.8984 738.14 697.94 19.44
469 34.9536 765.37 700.89 19.42
470 35.0037 751.19 703.84 19.23
471 35.0537 754.04 707.11 19.26
472 35.1037 766.64 710.75 19.40
473 35.1537 784.04 714.77 19.63
474 35.2037 799.62 719.12 19.83
475 35.2537 793.14 723.67 19.74
476 35.3037 747.12 728.17 19.13
477 35.3537 791.11 733.50 19.69
478 35.4037 765.09 736.92 19.36
479 35.4537 758.64 739.35 19.28
480 35.5037 748.72 740.69 19.14
481 35.5536 780.23 741.12 19.52
482 35.6036 757.33 741.00 19.23
483 35.6536 714.08 740.86 18.67
484 35.7036 710.13 741.19 18.60
485 35.7536 698.92 742.45 18.51
486 35.8036 710.69 744.93 18.66
487 35.8536 673.97 748.88 18.17
488 35.9036 689.37 754.46 18.29
489 35.9536 697.89 761.88 18.43
490 36.0036 707.32 771.39 18.53
491 36.0536 686.42 783.27 18.23
492 36.1036 692.40 797.85 18.57
493 36.1536 704.77 815.45 18.65
494 36.2096 817.33 839.15 19.78
495 36.2596 799.86 864.20 19.62
496 36.3096 840.39 893.26 20.08
497 36.3596 852.59 926.46 20.23
498 36.4096 942.66 964.60 21.27
499 36.4596 960.29 1007.91 21.44
500 36.5096 1022.46 1056.96 22.22
501 36.5596 1059.79 1112.44 22.57
502 36.6096 1128.74 1175.29 23.28
503 36.6596 1208.13 1246.75 24.13
504 36.7096 1340.19 1328.54 25.43
505 36.7596 1438.14 1422.84 26.34
506 36.8096 1539.40 1532.25 27.22
507 36.8596 1723.96 1659.40 28.83
508 36.9096 1765.13 1806.19 29.17
509 36.9596 1959.11 1972.71 30.76
510 37.0095 2059.30 2155.45 31.48
511 37.0595 2229.79 2347.77 32.81
512 37.1095 2401.41 2537.56 34.01
513 37.1596 2519.06 2710.11 34.96
514 37.2095 2643.48 2848.93 35.89
515 37.2595 2633.07 2942.44 35.78
516 37.3096 2680.83 2983.99 36.33
517 37.3595 2700.16 2974.88 36.67
518 37.4096 2590.77 2922.83 35.74
519 37.4596 2607.68 2838.54 36.86
520 37.5096 2506.54 2731.36 36.15
521 37.5596 2371.25 2607.97 35.09
522 37.6096 2222.40 2473.35 33.99
523 37.6596 2148.62 2333.46 33.41
524 37.7096 1971.23 2196.72 31.96
525 37.7596 1893.85 2073.14 31.33
526 37.8096 1847.44 1970.70 30.94
527 37.8596 1728.70 1899.07 29.91
528 37.9096 1685.69 1864.24 29.56
529 37.9596 1707.87 1870.40 29.79
530 38.0096 1741.71 1920.36 30.10
531 38.0596 1828.30 2015.85 30.86
532 38.1096 1973.59 2158.04 32.11
533 38.1596 2157.31 2347.97 33.59
534 38.2096 2505.89 2587.23 36.35
535 38.2595 2734.28 2877.71 37.99
536 38.3095 3227.01 3224.64 41.42
537 38.3595 3534.76 3633.83 43.35
538 38.4096 4169.65 4115.41 47.57
539 38.4595 4607.21 4678.35 50.17
540 38.5095 5412.90 5340.65 54.51
541 38.5596 6104.88 6118.45 58.42
542 38.6095 7086.51 7019.04 63.44
543 38.6596 7911.89 8052.68 67.01
544 38.7096 9306.69 9199.42 74.32
545 38.7596 10505.70 10423.60 79.46
546 38.8096 11553.90 11661.40 83.69
547 38.8596 12719.30 12827.20 88.28
548 38.9096 13679.30 13825.60 91.98
549 38.9596 14631.80 14570.40 95.75
550 39.0096 15066.10 15003.80 97.33
551 39.0596 15486.10 15109.30 98.89
552 39.1096 15398.70 14912.70 98.68
553 39.1596 15379.40 14466.20 98.61
554 39.2096 14636.00 13825.30 95.77
555 39.2596 14027.80 13032.00 93.46
556 39.3096 13065.10 12110.40 89.78
557 39.3596 11929.30 11078.80 85.13
558 39.4096 10574.00 9964.95 79.54
559 39.4596 9155.45 8811.97 73.36
560 39.5095 7867.06 7672.39 67.39
561 39.5595 6703.93 6587.31 61.73
562 39.6095 5464.82 5592.40 55.30
563 39.6596 4558.80 4706.78 50.45
564 39.7095 3708.65 3945.34 45.33
565 39.7595 3065.97 3304.29 40.99
566 39.8095 2557.15 2779.37 37.52
567 39.8595 2109.22 2359.69 34.22
568 39.9096 1847.16 2030.56 31.73
569 39.9596 1597.12 1777.77 28.12
570 40.0096 1414.87 1585.44 26.50
571 40.0596 1361.90 1439.87 25.96
572 40.1096 1297.91 1329.50 25.37
573 40.1596 1221.87 1245.14 24.63
574 40.2096 1131.22 1179.81 23.71
575 40.2596 1127.72 1131.89 23.63
576 40.3096 1109.81 1090.75 23.48
577 40.3596 1074.65 1057.17 23.08
578 40.4096 1032.36 1029.13 22.62
579 40.4596 976.85 1004.94 21.97
580 40.5096 970.14 983.17 21.94
581 40.5596 953.63 962.57 21.71
582 40.6095 986.84 942.17 22.12
583 40.6596 913.61 921.21 21.27
584 40.7096 871.44 899.57 20.81
585 40.7595 854.34 877.47 20.57
586 40.8095 859.34 855.36 20.64
587 40.8595 832.05 833.98 20.27
588 40.9096 827.19 813.81 20.15
589 40.9595 828.78 795.73 20.14
590 41.0095 789.87 779.71 19.63
591 41.0595 794.70 765.78 19.78
592 41.1095 791.08 753.75 19.95
593 41.1596 756.14 743.31 19.34
594 41.2179 748.60 732.98 19.31
595 41.2679 756.00 725.07 19.52
596 41.3179 725.58 717.96 19.06
597 41.3679 770.79 711.49 19.73
598 41.4179 777.56 705.57 19.76
599 41.4679 715.02 700.14 18.89
600 41.5179 755.95 695.16 19.47
601 41.5679 739.54 690.60 19.26
602 41.6179 710.10 686.48 18.84
603 41.6679 727.34 682.79 19.09
604 41.7179 761.39 679.56 19.48
605 41.7679 715.32 676.82 18.94
606 41.8179 736.40 674.59 19.23
607 41.8678 801.38 672.89 20.01
608 41.9179 771.61 671.67 19.68
609 41.9679 775.55 670.84 19.67
610 42.0178 756.00 670.22 19.44
611 42.0678 794.34 669.56 19.95
612 42.1178 831.34 668.54 20.39
613 42.1679 825.09 666.82 20.22
614 42.2178 825.87 664.14 20.24
615 42.2678 852.88 660.34 20.56
616 42.3179 835.44 655.41 20.48
617 42.3678 800.97 649.59 20.21
618 42.4179 797.32 643.17 20.08
619 42.4703 804.75 636.28 20.64
620 42.5204 831.36 629.92 21.01
621 42.5704 810.50 621.14 20.68
622 42.6204 794.59 617.18 20.54
623 42.6703 757.53 614.39 20.01
624 42.7204 729.93 612.29 19.66
625 42.7703 749.89 609.82 19.93
626 42.8203 716.58 608.78 19.45
627 42.8704 722.41 608.07 19.47
628 42.9204 692.52 607.62 19.11
629 42.9703 688.46 607.34 19.00
630 43.0203 676.16 607.19 18.86
631 43.0703 641.80 607.14 18.41
632 43.1203 699.34 607.18 19.20
633 43.1703 645.02 607.31 18.39
634 43.2203 639.12 607.51 18.34
635 43.2703 635.53 607.80 18.31
636 43.3203 653.21 608.17 18.56
637 43.3702 645.16 608.62 18.45
638 43.4203 657.26 609.17 18.50
639 43.4703 672.35 609.81 18.71
640 43.5203 642.65 610.55 18.28
641 43.5703 635.68 611.40 18.19
642 43.6202 618.64 612.36 18.09
643 43.6703 677.07 613.45 18.83
644 43.7120 655.50 614.46 18.25
645 43.7620 643.74 615.81 18.13
646 43.8120 636.69 617.34 18.01
647 43.8620 653.53 619.07 18.25
648 43.9120 665.15 621.07 18.43
649 43.9620 626.53 623.40 17.83
650 44.0120 654.58 626.19 18.28
651 44.0620 636.58 629.61 18.03
652 44.1120 660.19 633.92 18.34
653 44.1620 707.93 639.47 18.99
654 44.2120 736.47 646.70 19.41
655 44.2620 722.29 656.20 19.22
656 44.3120 766.02 670.08 19.78
657 44.3620 774.47 686.32 19.89
658 44.4120 848.20 707.23 20.84
659 44.4620 882.07 714.29 21.27
660 44.5119 871.36 747.96 21.14
661 44.5619 989.26 789.71 22.53
662 44.6119 1011.62 840.95 22.79
663 44.6620 1103.95 903.55 23.72
664 44.7119 1235.94 979.16 25.20
665 44.7619 1303.41 1070.61 25.91
666 44.8120 1424.65 1180.62 27.29
667 44.8619 1561.36 1310.98 28.77
668 44.9120 1659.91 1464.61 29.56
669 44.9530 1915.03 1607.69 31.60
670 45.0030 2003.54 1801.94 32.29
671 45.0530 2180.85 2013.75 33.72
672 45.1030 2315.78 2235.52 34.81
673 45.1530 2491.93 2456.37 36.06
674 45.2030 2652.93 2663.32 37.16
675 45.2530 2774.74 2843.03 37.99
676 45.3030 2896.50 2983.71 38.76
677 45.3530 2969.40 3077.68 39.30
678 45.4030 3074.70 3122.48 39.93
679 45.4530 3048.23 3121.08 39.83
680 45.5030 3041.96 3080.27 39.73
681 45.5530 2818.67 3008.11 38.09
682 45.6029 2827.68 2911.64 38.26
683 45.6530 2680.78 2794.38 37.24
684 45.7030 2533.76 2658.63 36.16
685 45.7529 2323.99 2505.28 34.60
686 45.8029 2100.72 2335.83 32.88
687 45.8529 2020.94 2155.16 32.24
688 45.9030 1792.75 1969.49 30.41
689 45.9529 1615.58 1787.04 28.86
690 46.0029 1512.39 1612.84 27.89
691 46.0530 1324.70 1451.65 26.24
692 46.1029 1206.08 1307.47 25.12
693 46.1530 1147.91 1180.85 24.45
694 46.1964 1040.31 1086.29 33.48
695 46.2399 1026.65 1005.33 24.07
696 46.2899 942.23 928.40 23.01
697 46.3400 919.03 866.98 22.70
698 46.3899 879.14 819.34 22.24
699 46.4400 860.08 782.90 22.01
700 46.4899 824.97 755.74 21.58
701 46.5399 834.92 735.64 21.63
702 46.5899 776.47 720.81 20.90
703 46.6400 813.90 709.65 21.43
704 46.6899 772.79 700.90 20.83
705 46.7399 743.27 693.47 20.39
706 46.7899 737.03 686.62 20.34
707 46.8399 725.45 679.85 20.14
708 46.8899 727.95 672.96 20.23
709 46.9399 691.29 665.91 19.69
710 46.9899 692.90 658.88 19.73
711 47.0399 700.29 652.07 19.84
712 47.0898 697.95 645.74 19.82
713 47.1399 666.95 640.05 19.28
714 47.1898 681.64 635.15 19.47
715 47.2399 608.75 631.04 18.37
716 47.2898 637.97 627.71 18.80
717 47.3399 637.97 625.06 18.99
718 47.3898 609.03 622.99 18.42
719 47.4464 627.71 621.20 18.09
720 47.4965 616.83 619.99 17.92
721 47.5465 603.63 619.08 17.76
722 47.5965 647.12 618.40 18.30
723 47.6465 605.76 617.90 17.70
724 47.6965 610.89 617.59 17.89
725 47.7465 612.33 617.42 17.76
726 47.7965 630.71 617.41 18.10
727 47.8465 617.55 617.55 17.89
728 47.8965 597.05 617.81 17.50
729 47.9465 603.54 618.20 17.74
730 47.9965 629.94 618.68 18.07
731 48.0464 616.10 619.23 17.85
732 48.0964 580.82 619.82 17.35
733 48.1464 580.48 620.41 17.32
734 48.1965 631.76 620.99 18.07
735 48.2464 597.70 621.55 17.63
736 48.2964 618.60 621.31 17.89
737 48.3464 600.09 621.09 17.63
738 48.3964 588.46 620.96 17.55
739 48.4465 592.52 621.01 17.46
740 48.4964 609.79 621.37 17.77
741 48.5464 603.53 622.19 17.59
742 48.5964 565.10 623.68 16.99
743 48.6464 585.59 626.07 17.34
744 48.7008 590.90 630.04 14.32
745 48.7596 619.45 636.45 17.55
746 48.8096 639.64 644.15 17.79
747 48.8596 632.65 654.47 17.76
748 48.9096 635.81 668.06 17.76
749 48.9596 650.70 685.63 17.98
750 49.0095 704.86 707.98 18.78
751 49.0595 722.49 736.13 18.90
752 49.1096 725.12 771.10 19.01
753 49.1596 821.73 813.71 20.22
754 49.2095 842.62 864.67 20.42
755 49.2595 888.57 924.58 21.01
756 49.3095 920.91 993.09 21.37
757 49.3595 982.73 1069.12 22.10
758 49.4095 1077.01 1150.61 23.19
759 49.4595 1149.29 1234.48 23.94
760 49.5095 1212.44 1316.91 24.60
761 49.5595 1303.01 1393.76 25.51
762 49.6094 1391.41 1460.79 26.35
763 49.6595 1430.55 1515.55 26.74
764 49.7095 1557.21 1555.66 28.03
765 49.7595 1601.58 1580.87 28.41
766 49.8095 1598.90 1592.14 28.51
767 49.8594 1579.29 1591.19 28.45
768 49.9095 1633.67 1579.73 28.86
769 49.9595 1643.38 1558.99 29.76
770 50.0096 1593.82 1529.22 29.35
771 50.0596 1585.22 1490.13 29.24
772 50.1096 1468.18 1441.15 28.14
773 50.1595 1407.94 1382.56 27.56
774 50.2096 1346.95 1315.32 26.92
775 50.2595 1255.46 1242.44 25.97
776 50.3095 1204.91 1166.63 25.45
777 50.3596 1084.03 1090.94 24.11
778 50.4096 1000.15 1018.32 23.14
779 50.4595 914.59 950.73 22.12
780 50.5095 840.18 889.24 21.20
781 50.5595 805.34 834.98 20.73
782 50.6095 792.68 787.86 20.56
783 50.6595 740.04 747.96 19.89
784 50.7095 702.64 714.83 19.38
785 50.7595 693.54 687.83 19.27
786 50.8095 653.03 666.14 18.67
787 50.8594 589.16 648.96 17.72
788 50.9095 595.32 635.37 17.75
789 50.9595 624.40 624.72 18.18
790 51.0095 617.71 616.31 18.05
791 51.0595 598.45 609.62 17.73
792 51.1094 589.84 604.22 17.78
793 51.1595 596.73 599.75 17.80
794 51.2095 603.16 596.00 25.39
795 51.2521 587.14 593.23 17.82
796 51.3021 577.47 590.37 17.69
797 51.3521 568.62 584.76 17.55
798 51.4021 540.45 582.55 17.11
799 51.4521 572.35 580.57 17.62
800 51.5021 576.02 578.80 17.68
801 51.5521 568.17 577.21 17.54
802 51.6021 555.01 575.80 17.37
803 51.6521 553.64 574.58 17.32
804 51.7021 546.69 573.56 17.20
805 51.7521 565.28 572.74 17.51
806 51.8021 526.43 572.15 16.89
807 51.8520 547.18 571.79 17.23
808 51.9020 537.17 571.68 17.04
809 51.9520 517.42 571.80 16.73
810 52.0020 529.06 572.16 16.93
811 52.0520 537.40 572.70 17.08
812 52.1020 535.43 573.37 17.02
813 52.1520 529.07 574.08 16.85
814 52.2020 535.89 574.70 16.97
815 52.2520 565.44 575.12 17.40
816 52.3020 541.18 575.21 16.96
817 52.3520 544.51 574.86 17.12
818 52.4020 565.47 574.01 17.43
819 52.4446 519.17 572.89 23.86
820 52.4933 556.71 571.17 17.25
821 52.5434 563.00 569.03 17.36
822 52.5934 527.05 566.65 16.75
823 52.6433 567.76 564.18 17.42
824 52.6933 555.68 561.78 17.25
825 52.7434 530.32 559.58 16.82
826 52.7933 542.71 557.73 17.05
827 52.8433 554.68 556.30 17.24
828 52.8934 536.43 555.38 16.93
829 52.9434 548.87 555.02 17.14
830 52.9933 576.45 555.26 17.55
831 53.0433 552.57 556.18 17.20
832 53.0933 542.85 557.83 17.03
833 53.1433 552.44 560.28 17.19
834 53.1933 561.53 563.59 17.31
835 53.2433 603.18 567.80 17.95
836 53.2933 583.10 572.90 17.69
837 53.3433 580.89 578.80 17.63
838 53.3932 551.12 585.30 17.15
839 53.4433 605.50 592.15 17.89
840 53.4933 641.10 598.89 18.44
841 53.5433 623.41 605.33 18.15
842 53.5933 626.93 610.63 18.17
843 53.6432 617.99 614.26 18.18
844 53.6997 616.93 615.85 14.56
845 53.7523 652.46 614.66 18.15
846 53.8024 651.08 611.15 18.14
847 53.8523 616.24 605.61 17.62
848 53.9023 657.41 598.49 18.23
849 53.9523 621.46 590.39 17.75
850 54.0023 588.12 581.93 17.21
851 54.0523 598.07 573.71 17.38
852 54.1023 579.34 567.27 17.10
853 54.1523 577.43 560.72 17.05
854 54.2023 607.93 555.29 17.50
855 54.2523 581.18 550.94 17.13
856 54.3022 607.61 547.68 17.50
857 54.3523 567.23 545.29 16.89
858 54.4022 544.96 543.61 16.59
859 54.4523 529.64 542.46 16.35
860 54.5022 531.18 541.68 16.34
861 54.5522 545.84 541.16 16.56
862 54.6022 556.92 540.80 16.78
863 54.6522 532.63 540.56 16.40
864 54.7023 530.10 540.38 16.26
865 54.7522 520.54 540.24 16.07
866 54.8023 529.51 540.13 16.22
867 54.8522 522.08 540.04 16.06
868 54.9022 518.07 539.96 16.10
869 54.9547 546.36 539.90 13.29
870 55.0110 546.36 539.91 16.14
871 55.0611 525.21 539.89 15.81
872 55.1110 537.32 539.91 16.03
873 55.1610 523.58 539.95 15.81
874 55.2111 536.27 540.06 15.97
875 55.2610 526.03 540.23 15.84
876 55.3110 534.78 540.52 16.00
877 55.3611 526.86 540.96 15.85
878 55.4110 526.38 541.61 15.85
879 55.4610 531.35 542.56 15.92
880 55.5110 555.43 543.91 16.33
881 55.5610 516.70 545.81 15.71
882 55.6110 573.41 548.40 16.57
883 55.6610 564.34 551.87 16.41
884 55.7110 562.58 556.41 16.41
885 55.7610 594.36 562.22 16.85
886 55.8110 575.13 569.47 16.58
887 55.8609 580.56 578.25 16.62
888 55.9110 608.64 588.66 16.95
889 55.9610 608.72 600.53 16.97
890 56.0110 605.39 613.66 16.91
891 56.0610 615.31 626.36 17.07
892 56.1109 614.93 640.66 17.22
893 56.1610 648.51 654.69 17.59
894 56.2185 659.59 669.52 17.97
895 56.2685 650.36 680.58 17.89
896 56.3185 660.26 689.42 18.03
897 56.3685 691.73 695.77 18.41
898 56.4185 727.81 699.59 18.93
899 56.4685 730.71 701.06 18.93
900 56.5185 687.89 700.57 18.38
901 56.5685 711.66 698.53 18.69
902 56.6185 711.93 695.35 18.70
903 56.6685 668.16 691.31 18.09
904 56.7185 673.55 686.51 18.19
905 56.7685 679.11 680.93 18.28
906 56.8185 664.42 674.44 18.03
907 56.8684 662.67 666.95 18.05
908 56.9185 639.08 658.42 17.70
909 56.9684 667.20 649.08 18.11
910 57.0184 592.76 639.18 17.06
911 57.0684 643.81 629.11 17.76
912 57.1184 571.94 619.26 16.74
913 57.1685 572.40 609.92 16.67
914 57.2184 581.75 601.39 16.82
915 57.2684 564.85 593.76 16.53
916 57.3184 544.83 587.09 16.20
917 57.3684 529.49 581.37 16.13
918 57.4185 566.01 576.49 16.60
919 57.4790 554.06 571.53 16.35
920 57.5290 550.94 568.00 16.32
921 57.5790 546.11 564.81 16.26
922 57.6290 547.00 561.81 16.28
923 57.6790 545.91 558.91 16.30
924 57.7290 533.22 556.08 16.05
925 57.7790 571.14 553.32 16.61
926 57.8290 574.26 550.69 16.69
927 57.8790 519.54 548.29 15.88
928 57.9290 536.02 546.20 16.08
929 57.9790 548.37 544.54 16.30
930 58.0290 530.12 543.40 16.01
931 58.0790 539.75 542.88 16.17
932 58.1289 548.27 543.07 16.30
933 58.1789 546.88 544.04 16.28
934 58.2290 549.48 545.87 16.31
935 58.2789 577.56 548.63 16.72
936 58.3289 565.13 552.36 16.54
937 58.3789 581.12 557.06 16.75
938 58.4290 562.40 562.69 16.45
939 58.4789 618.91 569.08 17.25
940 58.5289 611.43 576.04 17.07
941 58.5790 600.86 583.26 16.96
942 58.6289 640.26 590.30 17.67
943 58.6790 614.01 596.77 17.21
944 58.7200 630.33 601.28 19.03
945 58.7700 652.58 605.49 19.48
946 58.8200 670.95 607.95 19.69
947 58.8700 611.25 608.50 18.77
948 58.9200 639.21 607.18 19.25
949 58.9700 635.12 604.22 19.13
950 59.0200 629.56 600.05 19.02
951 59.0700 612.44 595.30 18.84
952 59.1200 640.69 590.69 19.30
953 59.1700 600.73 587.01 18.56
954 59.2200 586.25 585.10 18.48
955 59.2700 642.06 585.83 19.21
956 59.3200 599.69 590.08 18.56
957 59.3700 625.94 598.74 19.00
958 59.4200 636.34 612.73 19.09
959 59.4700 661.91 632.97 19.56
960 59.5199 710.73 660.25 20.30
961 59.5699 704.18 695.36 20.26
962 59.6199 717.83 738.67 20.39
963 59.6700 801.11 790.29 21.35
964 59.7199 789.43 850.05 21.25
965 59.7699 875.57 915.54 22.40
966 59.8200 914.75 985.63 22.93
967 59.8699 919.11 1057.35 23.14
968 59.9200 977.01 1128.35 23.80
969 59.9595 1074.12 1181.60 24.58
970 60.0095 1132.93 1243.15 25.30
971 60.0595 1203.13 1295.97 26.17
972 60.1095 1236.74 1338.48 26.31
973 60.1595 1271.98 1370.10 26.73
974 60.2095 1353.50 1391.27 27.43
975 60.2595 1374.30 1403.25 27.86
976 60.3095 1446.01 1407.75 28.38
977 60.3595 1475.92 1406.43 28.72
978 60.4095 1551.16 1400.57 29.49
979 60.4595 1477.13 1390.71 28.82
980 60.5095 1506.86 1376.59 29.04
981 60.5594 1492.77 1357.34 28.90
982 60.6094 1497.79 1331.55 28.84
983 60.6594 1473.37 1298.21 28.67
984 60.7095 1354.94 1256.82 27.40
985 60.7594 1305.90 1208.22 27.02
986 60.8094 1179.81 1153.58 25.71
987 60.8594 1161.96 1094.97 25.42
988 60.9095 1042.46 1034.45 24.10
989 60.9594 932.61 974.42 22.62
990 61.0094 909.59 916.25 22.37
991 61.0594 829.85 861.41 21.40
992 61.1094 778.44 810.90 20.92
993 61.1595 728.08 765.27 20.01
994 61.2095 710.39 725.05 19.66
995 61.2595 688.28 690.21 19.44
996 61.3095 654.93 660.55 18.84
997 61.3595 623.81 635.73 18.44
998 61.4095 602.79 615.30 18.13
999 61.4595 604.77 598.73 18.24
1000 61.5095 583.83 585.48 17.77
1001 61.5595 588.24 575.03 17.97
1002 61.6095 555.55 566.94 17.28
1003 61.6595 571.89 560.83 17.59
1004 61.7095 546.09 556.41 17.25
1005 61.7595 581.07 553.47 17.82
1006 61.8094 573.94 551.91 17.80
1007 61.8594 596.64 551.67 18.03
1008 61.9094 588.29 552.76 17.81
1009 61.9594 560.86 555.18 17.47
1010 62.0094 576.62 558.95 17.59
1011 62.0594 565.04 564.02 17.63
1012 62.1094 602.28 570.29 18.06
1013 62.1594 610.00 577.54 18.09
1014 62.2094 595.07 585.42 17.98
1015 62.2594 637.77 593.51 18.50
1016 62.3094 635.17 601.25 18.64
1017 62.3594 647.95 608.05 18.94
1018 62.4095 621.70 613.35 18.28
1019 62.4595 678.13 616.61 19.98
1020 62.5095 645.80 617.48 19.43
1021 62.5595 641.64 615.81 19.36
1022 62.6095 667.41 611.63 19.73
1023 62.6595 639.15 605.24 19.40
1024 62.7095 620.64 597.09 19.10
1025 62.7595 613.33 587.79 19.01
1026 62.8095 630.48 577.96 19.32
1027 62.8595 577.32 568.20 18.40
1028 62.9095 592.92 559.05 18.70
1029 62.9595 571.32 550.94 18.28
1030 63.0095 574.43 544.14 18.35
1031 63.0594 553.76 538.81 17.98
1032 63.1094 556.13 534.97 18.08
1033 63.1594 499.20 532.59 17.10
1034 63.2094 529.28 531.55 17.61
1035 63.2594 533.66 531.50 17.66
1036 63.3094 523.97 532.60 17.57
1037 63.3594 510.15 534.46 17.27
1038 63.4094 556.18 536.83 18.02
1039 63.4594 508.91 539.45 17.14
1040 63.5094 496.79 542.05 16.97
1041 63.5594 512.40 544.40 17.16
1042 63.6094 483.98 546.24 16.63
1043 63.6594 498.15 547.38 16.89
1044 63.7094 523.25 547.70 16.71
1045 63.7595 521.90 547.12 16.74
1046 63.8095 502.11 545.67 16.37
1047 63.8595 558.84 543.45 17.32
1048 63.9095 529.32 540.61 16.84
1049 63.9595 524.34 537.35 16.75
1050 64.0095 501.65 533.95 16.40
1051 64.0595 487.46 530.70 16.14
1052 64.1095 526.50 527.64 16.78
1053 64.1595 494.81 524.89 16.28
1054 64.2095 501.79 522.53 16.39
1055 64.2594 486.81 520.60 16.14
1056 64.3094 528.07 519.10 16.82
1057 64.3594 507.97 518.00 16.48
1058 64.4094 539.46 517.26 17.02
1059 64.4594 519.49 516.82 16.69
1060 64.5094 504.96 516.62 16.42
1061 64.5594 498.00 516.61 16.34
1062 64.6094 491.36 516.76 16.21
1063 64.6594 527.10 517.02 16.72
1064 64.7094 505.28 517.38 16.37
1065 64.7594 501.47 517.83 16.29
1066 64.8094 525.70 518.37 16.64
1067 64.8594 522.28 519.02 16.69
1068 64.9181 509.33 519.95 13.07
1069 64.9725 542.27 521.05 16.51
1070 65.0225 502.91 522.38 15.82
1071 65.0725 516.97 524.13 16.15
1072 65.1225 532.10 526.51 16.39
1073 65.1725 529.00 529.76 16.28
1074 65.2225 561.32 534.25 16.79
1075 65.2725 572.32 540.41 16.93
1076 65.3225 572.38 548.77 16.95
1077 65.3725 598.53 559.91 17.33
1078 65.4225 578.28 574.58 17.00
1079 65.4725 620.23 593.39 17.69
1080 65.5224 633.57 616.88 17.85
1081 65.5724 665.74 645.55 18.28
1082 65.6224 677.11 679.51 18.42
1083 65.6725 732.90 718.62 19.20
1084 65.7224 758.68 762.00 19.55
1085 65.7724 806.26 808.81 20.15
1086 65.8224 870.06 857.46 20.95
1087 65.8724 939.44 906.15 21.78
1088 65.9225 916.20 953.03 21.37
1089 65.9724 960.03 995.91 21.91
1090 66.0224 1021.55 1033.46 22.58
1091 66.0724 1080.19 1064.46 23.44
1092 66.1224 1081.00 1088.41 23.59
1093 66.1724 1102.98 1105.48 23.67
1094 66.2225 1177.06 1116.45 23.58
1095 66.2725 1201.33 1122.47 23.79
1096 66.3225 1200.80 1124.93 23.79
1097 66.3725 1235.15 1125.06 24.18
1098 66.4225 1244.53 1123.71 24.30
1099 66.4725 1324.16 1121.23 25.01
1100 66.5225 1246.27 1117.36 24.29
1101 66.5725 1262.70 1111.34 24.42
1102 66.6225 1282.31 1102.06 24.59
1103 66.6725 1245.17 1088.41 24.23
1104 66.7225 1214.95 1069.56 23.96
1105 66.7725 1195.40 1045.24 23.72
1106 66.8224 1071.77 1015.89 22.51
1107 66.8724 1086.74 982.28 22.62
1108 66.9224 1014.31 945.70 21.81
1109 66.9724 940.64 907.45 21.05
1110 67.0224 900.80 868.72 20.57
1111 67.0724 863.50 830.58 20.11
1112 67.1224 824.45 793.83 19.62
1113 67.1724 763.96 759.11 18.84
1114 67.2224 767.67 726.86 18.91
1115 67.2724 743.11 697.37 18.69
1116 67.3224 706.37 670.80 18.32
1117 67.3724 680.07 646.17 17.89
1118 67.4094 652.25 630.60 25.18
1119 67.4630 684.66 610.82 18.60
1120 67.5130 614.95 595.19 17.65
1121 67.5630 593.41 582.14 17.36
1122 67.6130 605.03 571.46 17.57
1123 67.6630 588.44 562.99 17.29
1124 67.7130 571.58 556.54 17.02
1125 67.7630 549.23 551.93 16.70
1126 67.8130 566.07 548.99 16.96
1127 67.8630 585.73 547.55 17.24
1128 67.9130 547.46 547.42 16.70
1129 67.9630 551.43 548.40 16.73
1130 68.0130 558.30 550.29 16.88
1131 68.0630 554.99 552.83 16.81
1132 68.1129 544.62 555.74 16.60
1133 68.1629 545.45 558.89 16.64
1134 68.2130 555.71 561.67 16.83
1135 68.2629 553.32 563.93 16.77
1136 68.3129 550.25 565.43 16.68
1137 68.3629 558.73 565.98 16.86
1138 68.4129 535.87 565.44 16.41
1139 68.4629 559.13 563.81 16.81
1140 68.5129 535.06 561.16 16.40
1141 68.5629 575.82 557.65 17.00
1142 68.6129 539.69 553.49 16.57
1143 68.6630 561.26 548.94 16.83
1144 68.7285 539.54 542.83 16.81
1145 68.7785 522.70 538.35 16.57
1146 68.8285 565.79 534.24 17.24
1147 68.8785 529.78 530.64 16.74
1148 68.9285 511.59 527.63 16.40
1149 68.9785 499.23 525.25 16.20
1150 69.0285 509.03 523.49 16.37
1151 69.0785 534.95 522.28 16.76
1152 69.1285 529.78 521.56 16.69
1153 69.1785 520.92 521.25 16.54
1154 69.2285 515.21 521.24 16.47
1155 69.2785 517.90 521.44 16.52
1156 69.3285 520.13 522.02 16.57
1157 69.3785 522.91 522.64 16.58
1158 69.4285 506.31 523.22 16.32
1159 69.4785 488.28 523.70 16.05
1160 69.5285 514.67 524.04 16.46
1161 69.5784 518.86 524.23 16.53
1162 69.6284 542.16 524.27 16.91
1163 69.6785 530.41 524.18 16.62
1164 69.7284 543.85 524.00 16.87
1165 69.7785 540.55 523.78 16.76
1166 69.8285 564.60 523.57 17.15
1167 69.8784 518.64 523.44 16.54
1168 69.9285 539.15 523.44 16.69
1169 69.9594 526.57 523.53 22.44
1170 70.0000 535.97 523.79 16.38
1171 70.0500 556.20 524.34 16.66
1172 70.1000 548.69 525.17 16.56
1173 70.1500 534.03 526.30 16.35
1174 70.2000 581.96 527.73 17.07
1175 70.2500 567.59 529.45 16.82
1176 70.2999 569.00 531.42 16.89
1177 70.3500 555.23 533.62 16.66
1178 70.4000 536.08 535.96 16.34
1179 70.4500 550.66 538.39 16.63
1180 70.5000 545.43 540.82 16.52
1181 70.5499 568.03 543.18 16.87
1182 70.5999 561.73 545.41 16.77
1183 70.6499 523.03 547.47 16.14
1184 70.6999 535.05 549.32 16.34
1185 70.7499 535.75 550.97 16.37
1186 70.7999 578.95 552.45 17.02
1187 70.8499 536.87 553.78 16.42
1188 70.8999 539.88 555.03 16.43
1189 70.9499 558.66 556.24 16.65
1190 70.9999 549.79 557.42 16.44
1191 71.0499 537.38 558.60 16.31
1192 71.0998 561.77 559.75 16.65
1193 71.1499 512.58 560.82 15.95
1194 71.1980 542.26 561.70 14.48
1195 71.2518 547.05 562.71 18.66
1196 71.3019 513.96 563.01 17.88
1197 71.3518 539.81 562.89 18.44
1198 71.4018 534.17 562.33 18.31
1199 71.4519 570.14 561.33 19.02
1200 71.5018 536.97 559.95 18.46
1201 71.5518 512.14 558.24 17.78
1202 71.6019 493.10 556.30 17.59
1203 71.6518 529.08 554.21 18.18
1204 71.7018 514.41 552.03 17.96
1205 71.7518 503.13 549.82 17.69
1206 71.8018 545.45 547.68 18.62
1207 71.8518 520.02 545.64 17.99
1208 71.9018 493.74 543.74 17.41
1209 71.9518 504.80 542.02 17.84
1210 72.0018 522.83 540.52 18.06
1211 72.0518 504.80 539.28 17.82
1212 72.1017 504.29 538.33 17.77
1213 72.1518 495.68 537.68 17.45
1214 72.2018 500.87 537.38 17.64
1215 72.2517 493.47 543.23 17.34
1216 72.3018 499.45 543.75 17.53
1217 72.3517 545.31 544.65 18.58
1218 72.4018 529.51 545.93 18.07
1219 72.4518 560.55 547.56 19.01
1220 72.5018 525.40 549.51 18.29
1221 72.5519 558.41 551.70 18.84
1222 72.6018 502.77 554.04 17.92
1223 72.6518 518.52 556.43 18.19
1224 72.7019 544.89 558.76 18.66
1225 72.7518 556.64 560.88 18.97
1226 72.8018 525.38 562.68 18.35
1227 72.8519 532.86 564.06 18.34
1228 72.9018 517.79 564.93 18.12
1229 72.9518 509.39 565.26 17.96
1230 73.0018 533.95 565.04 18.37
1231 73.0518 516.66 564.32 18.16
1232 73.1018 527.44 563.43 18.38
1233 73.1518 545.32 561.96 18.64
1234 73.2018 501.77 560.28 17.97
1235 73.2518 512.96 558.52 18.13
1236 73.3018 522.43 556.76 18.30
1237 73.3517 489.35 555.13 17.69
1238 73.4018 501.92 553.66 17.76
1239 73.4517 504.21 552.44 17.95
1240 73.5017 570.72 551.46 18.91
1241 73.5518 538.37 550.74 18.18
1242 73.6017 516.78 550.26 18.09
1243 73.6518 491.04 550.01 17.50
1244 73.7094 528.97 549.96 16.69
1245 73.7594 505.91 550.08 16.38
1246 73.8094 522.47 549.61 16.63
1247 73.8594 536.93 549.99 16.89
1248 73.9094 519.07 550.45 16.58
1249 73.9595 523.03 551.00 16.62
1250 74.0094 517.10 551.63 16.54
1251 74.0594 528.93 552.36 16.72
1252 74.1095 517.65 553.21 16.54
1253 74.1594 535.94 554.21 16.81
1254 74.2094 558.47 555.41 17.18
1255 74.2594 532.46 556.90 16.80
1256 74.3094 568.03 558.73 17.37
1257 74.3594 547.04 561.03 17.03
1258 74.4094 510.54 563.90 16.46
1259 74.4594 550.99 567.44 17.07
1260 74.5093 551.60 571.77 17.09
1261 74.5593 562.03 577.92 17.24
1262 74.6093 507.24 585.01 16.39
1263 74.6594 544.49 593.07 16.88
1264 74.7093 547.72 602.01 16.92
1265 74.7593 585.76 611.75 17.49
1266 74.8094 593.44 622.11 17.58
1267 74.8593 598.21 632.78 17.80
1268 74.9094 628.62 643.52 18.19
1269 74.9594 661.27 653.94 18.75
1270 75.0094 644.91 663.72 18.56
1271 75.0594 661.06 672.59 18.76
1272 75.1094 689.59 680.31 19.22
1273 75.1594 660.87 686.77 18.82
1274 75.2094 625.21 691.97 18.25
1275 75.2594 692.68 696.03 19.27
1276 75.3094 624.51 699.18 18.27
1277 75.3594 699.83 701.73 19.33
1278 75.4094 663.90 704.01 18.80
1279 75.4594 694.30 706.34 19.30
1280 75.5094 707.85 709.00 19.47
1281 75.5594 656.66 712.20 18.73
1282 75.6094 672.15 715.99 18.91
1283 75.6594 695.79 720.35 19.25
1284 75.7094 671.03 725.10 18.92
1285 75.7593 670.80 729.96 18.96
1286 75.8093 651.67 734.61 18.65
1287 75.8593 652.69 738.72 18.66
1288 75.9094 698.86 741.96 19.23
1289 75.9593 667.86 744.10 18.80
1290 76.0093 667.60 745.01 18.75
1291 76.0594 669.16 744.61 18.89
1292 76.1093 688.16 742.88 19.24
1293 76.1659 682.75 739.36 15.73
1294 76.2192 642.97 734.61 18.77
1295 76.2692 682.34 729.02 19.35
1296 76.3192 661.82 722.89 18.95
1297 76.3692 614.93 715.66 18.30
1298 76.4192 624.55 707.96 18.43
1299 76.4692 656.55 700.08 18.96
1300 76.5191 600.60 692.30 18.12
1301 76.5692 647.92 684.86 18.79
1302 76.6192 610.98 678.02 18.27
1303 76.6692 665.86 671.96 19.07
1304 76.7192 614.99 666.82 18.33
1305 76.7691 654.16 662.65 18.93
1306 76.8191 619.97 659.48 18.48
1307 76.8691 665.89 657.29 19.09
1308 76.9191 634.07 656.01 18.57
1309 76.9691 653.12 655.54 18.85
1310 77.0191 645.82 655.79 18.80
1311 77.0691 637.94 656.65 18.67
1312 77.1191 650.36 658.03 18.89
1313 77.1691 671.49 659.85 19.06
1314 77.2191 666.51 662.01 18.94
1315 77.2691 676.82 664.49 19.07
1316 77.3190 667.42 667.28 19.00
1317 77.3691 684.98 670.40 19.43
1318 77.4191 689.26 673.91 19.36
1319 77.4663 662.74 677.65 18.47
1320 77.5163 674.42 682.20 18.65
1321 77.5664 653.65 687.54 18.34
1322 77.6163 664.34 693.84 18.53
1323 77.6664 675.10 701.37 18.66
1324 77.7163 651.37 710.33 18.27
1325 77.7663 690.27 721.01 18.82
1326 77.8163 656.63 733.61 18.38
1327 77.8663 686.84 748.29 18.79
1328 77.9163 721.80 765.13 19.35
1329 77.9663 728.16 784.12 19.34
1330 78.0163 747.16 805.09 19.56
1331 78.0663 794.16 827.77 20.21
1332 78.1163 788.21 851.77 20.17
1333 78.1663 823.81 876.61 20.67
1334 78.2163 859.69 901.78 21.01
1335 78.2663 900.87 926.85 21.60
1336 78.3162 918.57 951.51 21.73
1337 78.3663 942.51 975.87 21.94
1338 78.4162 995.10 1000.15 22.57
1339 78.4663 1045.31 1025.45 23.15
1340 78.5162 1062.19 1053.10 23.48
1341 78.5663 1045.57 1085.53 23.51
1342 78.6162 1157.06 1125.33 24.68
1343 78.6537 1182.30 1162.26 33.15
1344 78.7065 1222.02 1227.95 23.87
1345 78.7566 1370.84 1309.22 25.33
1346 78.8066 1510.06 1413.06 26.55
1347 78.8566 1618.40 1543.72 27.51
1348 78.9065 1765.35 1704.16 28.76
1349 78.9566 1984.64 1897.56 30.47
1350 79.0065 2229.42 2123.01 32.33
1351 79.0566 2501.10 2380.75 34.26
1352 79.1066 2838.88 2665.62 36.56
1353 79.1566 3162.17 2972.13 38.58
1354 79.2065 3591.82 3291.38 41.19
1355 79.2565 3844.41 3614.96 42.62
1356 79.3065 4218.72 3931.81 44.67
1357 79.3565 4541.96 4229.98 46.37
1358 79.4065 4789.85 4499.76 47.66
1359 79.4565 5014.33 4732.62 48.77
1360 79.5065 5238.71 4922.83 49.86
1361 79.5565 5277.62 5067.94 50.05
1362 79.6064 5420.71 5169.16 50.71
1363 79.6565 5339.66 5231.87 50.58
1364 79.7065 5282.04 5263.32 50.34
1365 79.7565 5379.96 5273.27 50.81
1366 79.8065 5482.04 5270.90 51.61
1367 79.8564 5474.15 5266.54 51.83
1368 79.9151 5573.03 5268.76 43.74
1369 79.9708 5671.74 5284.06 54.47
1370 80.0209 5761.01 5309.15 54.92
1371 80.0708 5773.36 5340.82 55.06
1372 80.1209 5792.20 5371.78 55.10
1373 80.1708 5806.57 5391.58 55.15
1374 80.2208 5672.46 5388.97 54.42
1375 80.2708 5543.60 5353.11 53.87
1376 80.3208 5225.36 5275.75 52.13
1377 80.3709 5103.53 5152.32 51.49
1378 80.4208 4770.59 4983.86 49.66
1379 80.4708 4418.68 4773.72 47.65
1380 80.5208 4166.74 4529.36 46.27
1381 80.5708 3869.25 4259.38 44.48
1382 80.6208 3533.94 3972.91 42.48
1383 80.6708 3219.71 3678.46 40.44
1384 80.7208 2981.11 3383.80 38.89
1385 80.7708 2839.37 3095.66 37.89
1386 80.8207 2538.68 2819.84 35.80
1387 80.8707 2306.90 2559.73 34.07
1388 80.9208 2210.89 2318.41 33.51
1389 80.9707 2048.13 2099.48 32.20
1390 81.0208 1914.32 1902.16 31.14
1391 81.0707 1793.69 1728.31 30.32
1392 81.1208 1659.15 1575.99 29.25
1393 81.1758 1634.83 1432.99 23.43
1394 81.2341 1554.22 1306.83 28.22
1395 81.2841 1456.01 1217.24 27.29
1396 81.3341 1431.00 1142.67 27.10
1397 81.3841 1352.15 1081.09 26.26
1398 81.4341 1384.43 1030.54 26.60
1399 81.4841 1283.10 989.18 25.63
1400 81.5341 1252.76 955.41 25.31
1401 81.5841 1177.24 927.78 24.53
1402 81.6341 1180.24 905.08 24.57
1403 81.6841 1126.18 886.29 24.01
1404 81.7341 1078.11 870.59 23.48
1405 81.7841 1060.50 857.32 23.23
1406 81.8340 1107.37 845.97 23.78
1407 81.8840 1001.77 836.11 22.58
1408 81.9341 997.62 827.44 22.52
1409 81.9840 1011.15 819.77 22.71
1410 82.0340 942.09 812.89 21.85
1411 82.0840 941.39 806.68 21.89
1412 82.1341 938.86 801.04 21.75
1413 82.1840 911.33 795.93 21.44
1414 82.2340 907.53 791.26 21.38
1415 82.2841 882.41 786.99 21.15
1416 82.3340 806.16 783.11 20.37
1417 82.3841 831.32 779.55 20.61
1418 82.4467 795.75 775.56 19.26
1419 82.4968 796.84 772.72 19.33
1420 82.5467 801.80 770.18 19.37
1421 82.5967 775.91 767.96 19.06
1422 82.6467 717.03 766.09 18.32
1423 82.6967 744.41 764.59 18.63
1424 82.7467 736.61 763.55 18.53
1425 82.7967 753.62 763.07 18.79
1426 82.8467 729.37 763.27 18.48
1427 82.8967 738.85 764.32 18.56
1428 82.9467 740.76 766.42 18.62
1429 82.9967 756.57 769.82 18.81
1430 83.0467 759.15 774.76 18.86
1431 83.0967 740.08 781.53 18.62
1432 83.1467 765.75 790.37 18.93
1433 83.1967 749.81 801.53 18.74
1434 83.2467 737.07 815.16 18.56
1435 83.2966 753.49 831.28 18.79
1436 83.3466 777.01 849.89 19.10
1437 83.3967 799.20 870.79 19.25
1438 83.4466 867.32 893.46 20.05
1439 83.4967 867.40 917.51 20.03
1440 83.5467 890.71 942.11 20.45
1441 83.5966 931.47 966.44 21.09
1442 83.6467 969.24 989.64 21.44
1443 83.7125 1005.39 1017.23 21.99
1444 83.7625 1016.23 1034.90 22.20
1445 83.8125 1067.68 1049.12 22.78
1446 83.8625 992.80 1059.59 21.95
1447 83.9125 1074.79 1066.30 22.83
1448 83.9625 1007.84 1069.53 22.06
1449 84.0125 1010.47 1069.78 22.12
1450 84.0625 1024.50 1067.79 22.34
1451 84.1125 1042.64 1064.35 22.45
1452 84.1625 1043.65 1060.32 22.49
1453 84.2125 1030.51 1056.45 22.40
1454 84.2625 1055.27 1053.38 22.60
1455 84.3125 1079.47 1051.50 22.74
1456 84.3625 1089.90 1050.98 22.98
1457 84.4125 1136.32 1051.71 23.45
1458 84.4625 1168.76 1053.33 23.73
1459 84.5124 1149.56 1055.22 23.61
1460 84.5624 1219.74 1056.64 24.36
1461 84.6124 1209.27 1056.78 24.17
1462 84.6625 1201.26 1054.86 24.01
1463 84.7124 1200.00 1050.35 24.13
1464 84.7624 1145.72 1042.88 23.56
1465 84.8125 1150.76 1032.39 23.77
1466 84.8624 1125.22 1019.17 23.60
1467 84.9125 1082.48 1003.48 22.99
1468 84.9634 1041.59 985.61 23.20
1469 85.0135 1019.37 966.68 23.02
1470 85.0634 945.04 947.03 22.10
1471 85.1134 974.64 925.60 22.55
1472 85.1634 885.00 904.36 21.39
1473 85.2135 844.94 883.70 20.90
1474 85.2634 837.43 864.06 20.88
1475 85.3134 781.74 845.61 20.09
1476 85.3635 775.53 828.56 20.07
1477 85.4134 747.54 813.14 19.65
1478 85.4634 725.05 799.31 19.42
1479 85.5134 720.19 787.11 19.35
1480 85.5634 717.74 776.50 19.31
1481 85.6134 752.00 767.38 19.82
1482 85.6634 729.14 759.63 19.44
1483 85.7134 673.48 753.12 18.73
1484 85.7634 669.80 747.72 18.59
1485 85.8133 708.79 743.29 19.13
1486 85.8633 692.67 739.73 18.93
1487 85.9134 718.48 736.96 19.16
1488 85.9633 739.16 734.96 19.45
1489 86.0134 684.97 733.76 18.76
1490 86.0634 745.41 733.19 19.62
1491 86.1133 709.98 733.89 19.26
1492 86.1691 690.62 736.11 16.11
1493 86.2200 727.08 739.74 20.77
1494 86.2700 765.80 745.09 21.48
1495 86.3200 748.66 752.49 21.04
1496 86.3700 783.58 762.21 21.59
1497 86.4200 755.91 774.47 21.21
1498 86.4700 776.58 789.40 21.42
1499 86.5200 789.01 807.02 21.72
1500 86.5700 818.67 827.20 22.05
1501 86.6200 853.87 849.65 22.50
1502 86.6700 902.91 873.91 23.21
1503 86.7200 895.62 899.36 23.10
1504 86.7699 986.12 925.18 24.22
1505 86.8199 975.18 950.62 24.08
1506 86.8699 1003.98 974.74 24.40
1507 86.9200 1083.15 996.74 25.40
1508 86.9699 1087.67 1015.72 25.45
1509 87.0199 1120.28 1031.23 25.80
1510 87.0699 1122.22 1042.91 25.79
1511 87.1199 1127.95 1050.68 25.93
1512 87.1700 1122.50 1054.78 25.83
1513 87.2199 1119.50 1057.13 25.72
1514 87.2699 1139.32 1055.24 26.00
1515 87.3199 1105.31 1051.95 25.78
1516 87.3699 1065.01 1047.83 25.41
1517 87.4200 1091.64 1043.68 25.57
1518 87.4487 1102.90 1041.58 31.59
1519 87.4897 1127.15 1039.16 25.06
1520 87.5397 1113.96 1037.43 25.03
1521 87.5897 1109.14 1037.19 24.85
1522 87.6397 1146.53 1038.34 25.34
1523 87.6897 1159.39 1040.50 25.46
1524 87.7396 1165.81 1043.07 25.50
1525 87.7897 1119.49 1045.24 25.09
1526 87.8397 1130.04 1046.12 25.06
1527 87.8897 1137.29 1044.81 25.18
1528 87.9397 1169.72 1040.59 25.66
1529 87.9896 1091.56 1032.97 24.79
1530 88.0396 1072.93 1021.74 24.52
1531 88.0896 1069.22 1007.09 24.46
1532 88.1396 1009.72 989.30 23.85
1533 88.1896 1005.22 969.00 23.64
1534 88.2396 1003.06 946.85 23.76
1535 88.2896 904.51 923.55 22.54
1536 88.3395 931.19 899.81 22.89
1537 88.3896 863.84 876.08 21.82
1538 88.4396 876.25 847.36 22.03
1539 88.4896 852.67 825.47 21.61
1540 88.5396 807.34 805.01 21.00
1541 88.5896 804.77 786.24 21.21
1542 88.6396 789.18 769.37 20.94
1543 88.7040 790.65 750.53 19.60
1544 88.7540 795.41 738.14 19.66
1545 88.8040 784.57 727.61 19.55
1546 88.8540 756.49 718.78 19.20
1547 88.9040 756.14 711.42 19.17
1548 88.9540 739.05 705.28 18.94
1549 89.0040 744.37 700.11 19.04
1550 89.0540 736.13 695.61 18.97
1551 89.1041 730.97 691.55 18.88
1552 89.1540 725.73 687.71 18.77
1553 89.2040 712.14 683.90 18.57
1554 89.2540 685.08 680.02 18.28
1555 89.3040 689.27 676.02 18.27
1556 89.3540 701.63 671.91 18.53
1557 89.4040 702.81 667.75 18.46
1558 89.4540 693.67 663.65 18.42
1559 89.5040 694.25 659.74 18.33
1560 89.5539 682.46 656.18 18.24
1561 89.6039 660.00 653.09 17.89
1562 89.6540 691.86 650.59 18.28
1563 89.7039 636.31 648.78 17.50
1564 89.7539 654.25 647.68 17.77
1565 89.8040 643.19 647.30 17.63
1566 89.8539 661.45 647.56 18.04
1567 89.9040 669.26 648.36 18.03
1568 89.9593 664.23 649.66 18.58
1569 90.0093 666.63 651.02 18.68
1570 90.0594 704.35 652.33 19.18
1571 90.1093 671.77 653.36 18.79
1572 90.1593 680.44 653.91 18.87
1573 90.2094 688.06 653.81 18.96
1574 90.2593 647.81 652.91 18.42
1575 90.3093 637.16 652.08 18.29
1576 90.3594 659.11 650.34 18.57
1577 90.4093 630.27 647.75 18.17
1578 90.4593 654.58 644.37 18.49
1579 90.5093 630.30 640.35 18.15
1580 90.5593 644.22 635.83 18.29
1581 90.6093 632.40 630.98 18.17
1582 90.6593 619.81 625.97 17.97
1583 90.7093 584.67 621.00 17.47
1584 90.7593 590.81 616.18 17.54
1585 90.8093 576.22 611.64 17.32
1586 90.8592 592.06 607.47 17.56
1587 90.9093 588.32 603.71 17.50
1588 90.9593 616.92 600.40 17.86
1589 91.0092 555.59 597.56 16.91
1590 91.0593 559.47 595.15 16.93
1591 91.1092 536.69 593.15 16.69
1592 91.1593 550.30 591.51 16.85
1593 91.2154 555.96 590.06 17.14
1594 91.2655 542.16 589.06 16.97
1595 91.3155 574.46 588.30 17.43
1596 91.3655 575.91 587.74 17.48
1597 91.4155 592.31 587.36 17.75
1598 91.4655 550.04 587.14 17.05
1599 91.5155 552.94 587.06 17.13
1600 91.5655 545.18 587.13 17.00
1601 91.6155 561.34 587.33 17.26
1602 91.6655 553.49 587.67 17.16
1603 91.7155 541.86 588.16 16.96
1604 91.7655 581.78 588.78 17.57
1605 91.8154 550.20 589.55 17.09
1606 91.8654 526.79 590.45 16.70
1607 91.9154 541.30 591.47 16.96
1608 91.9654 576.95 592.58 17.51
1609 92.0154 566.51 593.76 17.36
1610 92.0654 560.50 594.97 17.25
1611 92.1154 536.88 596.16 16.83
1612 92.1654 562.29 597.30 17.18
1613 92.2154 568.46 598.38 17.26
1614 92.2654 539.65 599.26 16.79
1615 92.3154 575.88 599.96 17.33
1616 92.3654 590.22 600.45 17.67
1617 92.4154 544.26 600.69 16.88
1618 92.4654 593.16 600.70 17.45
1619 92.5155 603.46 600.48 17.63
1620 92.5655 584.54 600.05 17.34
1621 92.6155 588.49 599.45 17.38
1622 92.6655 584.31 598.72 17.34
1623 92.7155 546.30 597.91 16.76
1624 92.7655 602.14 597.08 17.60
1625 92.8155 574.31 596.26 17.19
1626 92.8655 612.39 595.51 17.77
1627 92.9155 568.42 594.85 17.10
1628 92.9655 592.14 594.30 17.46
1629 93.0154 611.39 593.89 17.74
1630 93.0654 612.08 593.60 17.72
1631 93.1154 612.62 593.44 17.77
1632 93.1654 610.13 593.00 17.74
1633 93.2154 591.46 593.03 17.47
1634 93.2654 604.81 593.11 17.61
1635 93.3154 621.45 593.22 17.92
1636 93.3654 679.97 593.34 18.73
1637 93.4154 644.04 593.45 18.12
1638 93.4654 631.52 593.54 17.94
1639 93.5154 654.48 593.62 18.21
1640 93.5654 633.20 593.71 17.88
1641 93.6154 664.64 593.81 18.54
1642 93.6654 638.28 593.97 18.16
1643 93.7093 588.81 594.18 17.34
1644 93.7593 608.55 594.53 17.65
1645 93.8093 614.61 595.04 17.74
1646 93.8593 610.86 595.73 17.69
1647 93.9093 594.62 596.64 17.45
1648 93.9593 620.64 597.78 17.79
1649 94.0093 595.06 599.19 17.45
1650 94.0593 640.45 600.84 18.10
1651 94.1093 585.39 602.80 17.31
1652 94.1593 627.82 605.05 17.93
1653 94.2093 575.46 607.62 17.17
1654 94.2593 634.31 610.55 18.00
1655 94.3093 617.79 613.91 17.78
1656 94.3593 625.48 617.81 17.88
1657 94.4093 630.85 622.41 17.97
1658 94.4593 642.32 627.95 18.14
1659 94.5092 647.19 634.72 18.20
1660 94.5592 670.59 643.16 18.51
1661 94.6092 670.97 653.76 18.51
1662 94.6593 711.87 667.14 19.02
1663 94.7092 721.32 683.85 19.12
1664 94.7592 709.92 704.71 18.93
1665 94.8093 749.12 730.45 19.54
1666 94.8592 781.61 761.58 20.17
1667 94.9093 800.98 798.90 20.37
1668 94.9536 845.44 837.31 20.84
1669 95.0036 933.19 886.90 21.94
1670 95.0536 1022.40 943.00 22.96
1671 95.1036 1058.60 1005.21 23.38
1672 95.1536 1176.52 1072.67 24.66
1673 95.2036 1244.55 1144.73 25.36
1674 95.2536 1396.73 1218.78 26.89
1675 95.3036 1456.94 1293.48 27.51
1676 95.3536 1658.57 1366.82 29.35
1677 95.4036 1703.38 1436.63 29.72
1678 95.4536 1837.13 1500.80 30.90
1679 95.5036 1905.25 1557.46 31.46
1680 95.5536 1910.21 1605.38 31.50
1681 95.6035 1995.14 1643.12 32.21
1682 95.6536 2017.25 1670.41 32.37
1683 95.7036 2002.44 1687.26 32.28
1684 95.7535 2016.74 1694.55 32.40
1685 95.8035 1999.72 1693.70 32.25
1686 95.8535 1923.27 1686.54 31.61
1687 95.9036 1845.30 1675.16 31.02
1688 95.9535 1852.86 1661.89 31.11
1689 96.0035 1773.24 1648.80 30.43
1690 96.0536 1742.49 1637.87 30.27
1691 96.1035 1702.61 1630.74 30.10
1692 96.1536 1727.58 1628.40 30.14
1693 96.1884 1738.84 1629.96 28.70
1694 96.2385 1748.45 1636.84 28.82
1695 96.2885 1761.15 1648.67 28.93
1696 96.3385 1842.18 1664.43 29.59
1697 96.3885 1840.74 1682.58 29.56
1698 96.4385 1866.74 1701.14 29.77
1699 96.4885 1848.04 1717.87 29.65
1700 96.5385 1831.31 1730.44 29.49
1701 96.5885 1829.83 1736.67 29.50
1702 96.6385 1758.05 1734.75 28.91
1703 96.6885 1702.07 1722.98 28.40
1704 96.7384 1709.18 1701.84 28.52
1705 96.7884 1549.74 1670.97 27.11
1706 96.8384 1572.16 1631.21 27.29
1707 96.8884 1451.99 1583.83 26.17
1708 96.9384 1492.09 1530.37 26.59
1709 96.9884 1380.62 1472.50 25.56
1710 97.0384 1318.54 1411.85 24.95
1711 97.0884 1299.69 1349.93 24.79
1712 97.1384 1174.58 1288.12 23.45
1713 97.1884 1130.63 1227.54 23.03
1714 97.2384 1117.01 1169.20 22.90
1715 97.2884 1092.55 1113.82 22.83
1716 97.3384 1019.73 1061.99 22.20
1717 97.3884 1009.88 1014.08 21.94
1718 97.4290 984.16 978.21 29.51
1719 97.4754 971.22 940.58 20.80
1720 97.5254 940.06 904.00 20.47
1721 97.5754 927.61 871.38 20.34
1722 97.6254 903.19 842.49 20.06
1723 97.6754 878.86 817.02 19.81
1724 97.7254 838.20 794.65 19.34
1725 97.7754 870.89 775.07 19.70
1726 97.8254 819.64 757.98 19.12
1727 97.8754 838.49 743.14 19.33
1728 97.9254 837.02 730.35 19.30
1729 97.9754 805.24 719.45 18.93
1730 98.0254 793.94 710.36 18.80
1731 98.0753 770.85 703.01 18.53
1732 98.1253 795.25 697.36 18.81
1733 98.1753 810.29 693.36 19.00
1734 98.2254 809.75 690.99 19.01
1735 98.2753 802.70 690.20 18.92
1736 98.3253 761.31 690.85 18.41
1737 98.3753 781.58 692.82 18.54
1738 98.4253 786.28 695.89 18.62
1739 98.4753 782.00 699.80 18.55
1740 98.5253 813.07 704.26 19.06
1741 98.5754 777.11 708.94 18.74
1742 98.6253 796.97 713.44 18.92
1743 98.6717 849.96 717.18 27.70
1744 98.7183 852.38 720.21 20.00
1745 98.7683 791.57 722.38 19.30
1746 98.8183 809.76 723.18 19.50
1747 98.8683 841.65 722.45 19.88
1748 98.9183 767.36 720.09 18.99
1749 98.9683 801.18 716.09 19.40
1750 99.0183 772.35 710.56 19.03
1751 99.0683 739.32 703.64 18.62
1752 99.1183 755.84 695.57 18.83
1753 99.1683 735.75 686.62 18.58
1754 99.2183 713.66 677.07 18.32
1755 99.2683 713.86 667.21 18.32
1756 99.3183 677.54 657.33 17.82
1757 99.3683 693.37 647.68 18.04
1758 99.4183 670.16 638.48 17.74
1759 99.4683 659.50 629.90 17.58
1760 99.5183 653.33 622.07 17.53
1761 99.5683 634.67 615.05 17.26
1762 99.6182 654.19 608.91 17.54
1763 99.6683 591.61 603.59 16.60
1764 99.7182 618.36 599.12 16.97
1765 99.7683 624.42 595.41 17.00
1766 99.8183 585.87 592.42 16.50
1767 99.8682 570.97 590.07 16.44
1768 99.9183 555.51 588.28 16.11
1769 99.9621 595.16 587.14 17.51
1770 100.0121 589.54 586.25 17.43
1771 100.0621 572.18 585.77 17.13
1772 100.1121 574.91 585.65 17.18
1773 100.1621 595.93 585.86 17.53
1774 100.2121 556.68 586.38 16.92
1775 100.2621 609.78 587.19 17.70
1776 100.3121 572.41 588.29 17.16
1777 100.3621 574.78 589.63 17.21
1778 100.4121 553.64 591.22 16.86
1779 100.4621 566.06 593.01 17.06
1780 100.5121 559.51 595.00 16.96
1781 100.5621 574.23 597.14 17.18
1782 100.6120 584.79 599.38 17.32
1783 100.6620 556.33 601.67 16.90
1784 100.7121 582.62 603.97 17.31
1785 100.7620 607.80 606.03 17.68
1786 100.8120 576.68 607.97 17.23
1787 100.8620 595.32 609.73 17.51
1788 100.9120 595.14 611.27 17.41
1789 100.9620 592.54 612.54 17.37
1790 101.0120 564.00 613.55 16.93
1791 101.0620 626.80 614.27 17.87
1792 101.1120 610.11 614.74 17.67
1793 101.1620 577.37 614.99 17.15
1794 101.2076 607.60 615.07 17.26
1795 101.2576 605.82 615.06 17.25
1796 101.3076 602.04 615.01 17.19
1797 101.3576 583.81 615.01 16.92
1798 101.4076 561.29 615.13 16.60
1799 101.4576 612.16 615.42 17.34
1800 101.5076 608.77 615.95 17.29
1801 101.5576 600.50 616.75 17.19
1802 101.6076 573.06 617.83 16.80
1803 101.6576 634.12 619.18 17.72
1804 101.7076 601.50 620.79 17.23
1805 101.7576 614.86 622.59 17.44
1806 101.8076 602.93 624.53 17.22
1807 101.8576 591.34 626.53 17.06
1808 101.9076 632.59 628.50 17.65
1809 101.9576 610.74 630.36 17.41
1810 102.0075 601.95 632.02 17.16
1811 102.0575 604.07 633.42 17.21
1812 102.1075 623.56 634.53 17.55
1813 102.1576 623.95 635.30 17.48
1814 102.2075 621.14 635.76 17.47
1815 102.2575 600.55 635.96 17.06
1816 102.3076 595.94 635.97 16.93
1817 102.3575 604.32 635.88 17.23
1818 102.4076 602.48 635.80 17.13
1819 102.4529 590.45 635.83 17.43
1820 102.5029 591.42 636.09 17.58
1821 102.5529 575.87 636.65 17.29
1822 102.6029 612.19 637.60 17.89
1823 102.6529 610.42 638.99 17.91
1824 102.7029 608.22 640.82 17.88
1825 102.7529 616.61 643.07 17.95
1826 102.8029 655.03 645.71 18.67
1827 102.8529 617.79 648.67 17.90
1828 102.9029 624.99 651.85 18.06
1829 102.9529 671.38 655.16 18.70
1830 103.0029 638.08 658.53 18.23
1831 103.0529 653.07 661.88 18.50
1832 103.1029 649.10 665.15 18.40
1833 103.1529 668.26 668.35 18.73
1834 103.2029 666.89 671.46 18.65
1835 103.2528 667.57 674.69 18.68
1836 103.3028 662.08 678.15 18.58
1837 103.3528 637.42 682.01 18.15
1838 103.4029 630.17 686.55 17.97
1839 103.4528 673.14 692.32 18.74
1840 103.5028 675.01 698.95 18.64
1841 103.5529 662.34 707.03 18.64
1842 103.6028 650.57 716.72 18.53
1843 103.6529 678.00 728.26 18.89
1844 103.7045 678.46 742.09 19.64
1845 103.7546 708.52 757.37 20.09
1846 103.8046 749.39 774.30 20.68
1847 103.8546 777.19 792.65 21.06
1848 103.9046 778.71 812.04 21.11
1849 103.9546 784.04 832.00 21.17
1850 104.0045 837.40 851.98 21.80
1851 104.0546 889.60 871.49 22.58
1852 104.1046 838.94 889.83 21.95
1853 104.1546 933.79 906.49 23.08
1854 104.2046 911.38 920.95 22.76
1855 104.2545 962.15 932.79 23.53
1856 104.3045 974.85 941.82 23.58
1857 104.3545 985.15 947.90 23.76
1858 104.4045 954.11 951.07 23.34
1859 104.4545 964.20 951.57 23.51
1860 104.5045 953.84 951.65 23.34
1861 104.5545 961.87 948.06 23.41
1862 104.6044 897.25 943.26 22.62
1863 104.6545 934.02 937.84 22.93
1864 104.7045 920.97 932.46 22.84
1865 104.7545 872.25 927.71 22.21
1866 104.8045 853.88 924.10 21.99
1867 104.8544 899.03 922.08 22.79
1868 104.9113 904.86 922.08 18.29
1869 104.9671 923.16 924.68 22.15
1870 105.0171 955.03 929.19 22.54
1871 105.0671 946.42 935.61 22.46
1872 105.1171 954.26 943.65 22.58
1873 105.1671 1046.25 952.90 23.58
1874 105.2171 1041.59 962.82 23.54
1875 105.2671 1016.00 972.82 23.26
1876 105.3171 1056.52 982.26 23.70
1877 105.3671 1054.44 990.47 23.69
1878 105.4171 1020.63 996.96 23.31
1879 105.4671 1037.92 1001.02 23.51
1880 105.5170 1019.64 1002.36 23.29
1881 105.5670 1023.32 1000.80 23.30
1882 105.6170 1014.55 996.30 23.25
1883 105.6670 1026.96 989.04 23.42
1884 105.7170 996.80 979.29 23.04
1885 105.7670 965.90 967.47 22.69
1886 105.8170 897.61 954.04 21.83
1887 105.8670 911.61 939.47 22.04
1888 105.9170 933.32 924.19 22.19
1889 105.9670 885.97 908.62 21.57
1890 106.0170 898.52 892.96 21.73
1891 106.0669 869.45 877.62 21.54
1892 106.1170 878.34 861.25 21.77
1893 106.1670 854.17 846.98 21.31
1894 106.2230 855.48 831.76 20.71
1895 106.2730 811.63 818.85 20.14
1896 106.3231 809.50 806.48 20.15
1897 106.3730 819.34 794.65 20.26
1898 106.4231 786.78 783.13 19.83
1899 106.4731 828.02 771.91 20.38
1900 106.5231 752.71 760.82 19.39
1901 106.5731 779.97 749.79 19.76
1902 106.6231 800.44 738.77 20.03
1903 106.6731 778.45 727.71 19.73
1904 106.7230 729.35 716.66 19.08
1905 106.7731 806.63 705.60 20.10
1906 106.8230 713.55 694.67 18.87
1907 106.8730 722.85 683.90 19.00
1908 106.9230 706.09 673.41 18.76
1909 106.9730 666.47 663.29 18.27
1910 107.0230 689.80 653.66 18.58
1911 107.0730 689.75 644.59 18.55
1912 107.1230 660.14 636.14 18.06
1913 107.1730 650.46 628.39 17.97
1914 107.2230 635.70 621.34 17.71
1915 107.2730 653.64 615.02 17.98
1916 107.3230 636.04 609.39 17.88
1917 107.3730 639.11 604.43 17.83
1918 107.4358 643.85 599.07 17.75
1919 107.4858 625.15 595.42 17.49
1920 107.5359 605.37 592.24 17.23
1921 107.5858 612.28 589.48 17.31
1922 107.6359 632.86 587.05 17.61
1923 107.6858 585.48 584.90 16.93
1924 107.7358 600.92 582.97 17.15
1925 107.7858 614.45 581.21 17.35
1926 107.8359 569.31 579.58 16.69
1927 107.8859 570.61 578.06 16.67
1928 107.9358 549.30 576.63 16.39
1929 107.9858 624.73 575.27 17.48
1930 108.0358 580.68 573.97 16.86
1931 108.0858 570.96 572.73 16.69
1932 108.1358 567.81 571.55 16.72
1933 108.1858 550.67 570.43 16.40
1934 108.2358 592.15 569.38 17.04
1935 108.2858 556.06 568.39 16.46
1936 108.3357 573.95 567.48 16.72
1937 108.3858 547.12 566.64 16.35
1938 108.4358 550.95 565.87 16.36
1939 108.4857 547.48 565.18 16.24
1940 108.5358 567.99 564.56 16.54
1941 108.5857 537.17 564.02 16.09
1942 108.6358 559.43 563.55 16.59
1943 108.6889 556.26 563.13 13.58
1944 108.7478 532.22 563.02 16.49
1945 108.7978 522.53 562.79 16.35
1946 108.8478 537.71 562.64 16.58
1947 108.8978 531.99 562.56 16.51
1948 108.9478 531.26 562.57 16.51
1949 108.9978 567.41 562.65 17.05
1950 109.0478 548.93 562.82 16.75
1951 109.0978 532.97 563.07 16.55
1952 109.1478 546.48 563.41 16.71
1953 109.1978 549.12 563.84 16.79
1954 109.2478 553.62 564.34 16.85
1955 109.2978 516.46 564.92 16.26
1956 109.3477 535.33 565.56 16.55
1957 109.3978 525.95 566.25 16.39
1958 109.4478 565.00 566.98 17.04
1959 109.4977 558.95 567.73 16.91
1960 109.5477 548.94 568.48 16.82
1961 109.5977 545.19 569.21 16.71
1962 109.6478 551.09 569.90 16.74
1963 109.6977 558.33 570.53 16.80
1964 109.7477 550.77 571.09 16.68
1965 109.7978 547.64 571.54 16.59
1966 109.8477 534.93 571.88 16.55
1967 109.8978 528.07 572.10 16.33
1968 109.9430 569.55 572.19 17.01
1969 109.9931 559.74 572.18 16.87
1970 110.0431 542.66 572.06 16.60
1971 110.0930 516.17 571.84 16.23
1972 110.1431 525.44 571.55 16.34
1973 110.1931 537.79 571.19 16.52
1974 110.2430 490.16 570.80 15.75
1975 110.2930 532.97 570.40 16.47
1976 110.3431 528.13 570.02 16.38
1977 110.3931 505.68 569.66 16.03
1978 110.4430 538.57 569.37 16.51
1979 110.4930 522.65 569.15 16.36
1980 110.5430 516.50 569.01 16.17
1981 110.5930 525.81 568.97 16.34
1982 110.6430 494.97 569.04 15.87
1983 110.6930 563.80 569.21 16.94
1984 110.7430 504.79 569.48 16.01
1985 110.7930 544.10 569.86 16.61
1986 110.8429 522.40 570.33 16.28
1987 110.8930 528.11 570.89 16.34
1988 110.9430 528.32 571.53 16.33
1989 110.9930 528.18 572.24 16.25
1990 111.0430 519.87 573.02 16.08
1991 111.0929 530.51 573.86 16.37
1992 111.1430 523.25 574.77 16.19
1993 111.1909 543.04 575.69 23.03
1994 111.2335 545.30 576.56 16.46
1995 111.2835 526.85 579.02 16.18
1996 111.3336 531.47 581.57 16.26
1997 111.3835 562.09 584.22 16.72
1998 111.4336 568.82 586.99 16.82
1999 111.4835 587.45 589.88 17.10
2000 111.5335 560.39 592.90 16.70
2001 111.5835 545.07 596.06 16.46
2002 111.6335 543.45 599.36 16.43
2003 111.6835 567.36 602.78 16.80
2004 111.7335 568.03 606.31 16.82
2005 111.7835 557.80 609.93 16.67
2006 111.8335 579.07 613.61 17.00
2007 111.8835 579.20 617.34 16.97
2008 111.9334 577.57 621.08 16.94
2009 111.9835 579.24 624.84 16.99
2010 112.0334 601.25 628.60 17.30
2011 112.0834 651.58 632.61 18.02
2012 112.1334 614.21 636.39 17.37
2013 112.1834 607.90 640.28 17.31
2014 112.2335 626.01 644.33 17.58
2015 112.2834 629.56 648.59 17.59
2016 112.3335 566.45 653.18 16.80
2017 112.3834 615.57 658.18 17.44
2018 112.4260 608.66 662.87 24.83
2019 112.4801 617.06 669.51 17.40
2020 112.5301 630.11 676.41 17.59
2021 112.5801 643.14 684.18 17.77
2022 112.6301 617.00 692.88 17.40
2023 112.6801 642.72 702.55 17.77
2024 112.7301 676.00 713.20 18.22
2025 112.7801 679.94 724.82 18.28
2026 112.8301 719.58 737.35 18.82
2027 112.8801 731.88 750.72 18.97
2028 112.9301 726.22 764.83 18.88
2029 112.9801 720.10 779.56 18.82
2030 113.0301 744.60 794.80 19.12
2031 113.0800 765.68 810.44 19.42
2032 113.1300 845.19 826.49 20.39
2033 113.1800 852.13 842.97 20.49
2034 113.2301 838.48 859.85 20.34
2035 113.2800 885.38 877.25 20.90
2036 113.3300 883.75 895.52 20.88
2037 113.3800 911.57 914.95 21.21
2038 113.4300 903.85 936.00 21.00
2039 113.4800 901.95 959.15 20.96
2040 113.5300 974.51 985.00 21.85
2041 113.5800 962.07 1014.14 21.83
2042 113.6300 948.40 1047.16 21.86
2043 113.6844 979.02 1088.15 17.92
2044 113.7386 1010.42 1134.77 22.02
2045 113.7886 1048.35 1183.22 22.45
2046 113.8386 1133.68 1237.03 23.34
2047 113.8886 1168.10 1296.04 23.72
2048 113.9385 1276.76 1359.81 24.75
2049 113.9886 1310.46 1428.09 25.07
2050 114.0385 1399.51 1499.47 26.00
2051 114.0886 1463.41 1573.45 26.53
2052 114.1386 1611.06 1648.25 27.89
2053 114.1886 1690.71 1722.56 28.55
2054 114.2386 1810.32 1794.83 29.57
2055 114.2885 1910.39 1863.30 30.37
2056 114.3385 2032.08 1926.68 31.34
2057 114.3885 2125.31 1983.39 32.08
2058 114.4385 2169.92 2032.20 32.42
2059 114.4885 2204.30 2072.09 32.66
2060 114.5385 2245.37 2102.43 32.96
2061 114.5885 2219.59 2122.94 32.80
2062 114.6385 2204.94 2133.73 32.69
2063 114.6885 2162.83 2135.31 32.45
2064 114.7385 2093.21 2128.55 31.93
2065 114.7885 2126.38 2114.66 32.20
2066 114.8384 1979.90 2095.17 31.22
2067 114.8885 1943.30 2071.60 31.10
2068 114.9465 1860.09 2041.64 24.41
2069 115.0027 1861.55 2012.38 29.63
2070 115.0527 1795.55 1988.14 29.07
2071 115.1027 1723.27 1967.14 28.48
2072 115.1527 1758.41 1950.65 28.79
2073 115.2027 1687.09 1939.65 28.17
2074 115.2527 1631.73 1934.81 27.70
2075 115.3027 1682.99 1936.45 28.13
2076 115.3527 1676.77 1944.55 28.10
2077 115.4027 1732.33 1958.78 28.54
2078 115.4527 1757.07 1978.49 28.75
2079 115.5027 1813.98 2002.75 29.22
2080 115.5527 1904.07 2030.38 29.93
2081 115.6026 1941.68 2059.96 30.22
2082 115.6527 1981.12 2090.14 30.56
2083 115.7027 2068.71 2119.07 31.25
2084 115.7526 2063.31 2145.14 31.18
2085 115.8026 2128.82 2166.24 31.69
2086 115.8526 2145.11 2181.92 31.81
2087 115.9027 2191.81 2190.34 32.28
2088 115.9526 2175.76 2190.47 32.18
2089 116.0026 2165.14 2181.67 32.07
2090 116.0527 2177.37 2163.64 32.34
2091 116.1026 2141.64 2136.60 32.30
2092 116.1527 2115.33 2100.80 31.97
2093 116.2035 2089.28 2056.45 31.11
2094 116.2535 2028.12 2005.83 30.66
2095 116.3035 2010.63 1949.44 30.56
2096 116.3535 1908.79 1888.47 29.75
2097 116.4035 1840.32 1824.08 29.21
2098 116.4535 1795.84 1757.42 28.83
2099 116.5035 1690.81 1689.54 27.98
2100 116.5535 1638.12 1620.52 27.54
2101 116.6035 1605.60 1552.12 27.28
2102 116.6535 1475.67 1485.09 26.08
2103 116.7035 1499.61 1420.04 26.33
2104 116.7535 1464.69 1357.53 26.04
2105 116.8035 1364.75 1297.94 25.10
2106 116.8534 1363.68 1241.70 25.08
2107 116.9035 1264.21 1188.72 24.15
2108 116.9535 1235.49 1139.44 23.86
2109 117.0034 1163.04 1093.94 23.15
2110 117.0534 1161.25 1051.99 23.17
2111 117.1034 1099.79 1013.67 22.49
2112 117.1535 1067.52 978.82 22.10
2113 117.2034 1048.62 947.46 21.92
2114 117.2534 1011.23 919.25 21.53
2115 117.3035 1033.47 894.00 21.92
2116 117.3534 952.47 871.65 21.18
2117 117.4035 907.01 851.82 20.55
2118 117.4412 901.08 838.47 20.51
2119 117.4913 927.35 822.67 20.84
2120 117.5413 907.33 808.91 20.59
2121 117.5912 854.23 796.98 20.00
2122 117.6412 838.24 786.66 19.82
2123 117.6913 893.31 777.79 20.43
2124 117.7412 842.40 770.28 19.85
2125 117.7912 795.72 764.04 19.29
2126 117.8413 804.31 758.79 19.39
2127 117.8913 757.82 754.55 18.84
2128 117.9412 805.66 751.27 19.43
2129 117.9912 794.85 748.89 19.29
2130 118.0412 782.06 747.39 19.08
2131 118.0912 745.25 746.77 18.64
2132 118.1412 747.21 747.03 18.67
2133 118.1912 746.83 748.20 18.67
2134 118.2412 724.99 750.31 18.39
2135 118.2912 737.37 753.40 18.56
2136 118.3411 755.65 757.47 18.76
2137 118.3912 699.97 762.60 18.02
2138 118.4411 724.00 768.76 18.28
2139 118.4912 779.13 776.00 18.97
2140 118.5412 734.59 784.25 18.51
2141 118.5911 748.97 793.47 18.85
2142 118.6412 769.07 803.65 19.03
2143 118.6895 825.72 814.22 21.56
2144 118.7395 827.25 825.83 21.56
2145 118.7895 824.95 837.93 21.57
2146 118.8395 855.54 850.33 21.93
2147 118.8895 903.87 862.81 22.59
2148 118.9395 892.34 875.11 22.41
2149 118.9895 878.50 886.97 22.23
2150 119.0395 881.43 898.14 22.29
2151 119.0895 924.46 908.34 22.82
2152 119.1395 967.29 917.36 23.31
2153 119.1895 939.67 924.98 22.94
2154 119.2395 967.98 931.04 23.37
2155 119.2895 995.77 935.41 23.64
2156 119.3395 979.39 938.04 23.44
2157 119.3895 967.98 938.92 23.36
2158 119.4395 977.33 938.12 23.57
2159 119.4894 967.01 935.75 23.34
2160 119.5394 971.48 931.99 23.27
2161 119.5894 909.65 927.04 22.56
2162 119.6395 895.27 921.16 22.35
2163 119.6894 860.36 914.64 22.05
2164 119.7394 885.45 907.75 22.28
2165 119.7895 850.31 900.75 21.85
2166 119.8394 852.99 893.97 22.09
2167 119.8895 820.62 887.59 21.59
2168 119.9417 800.92 881.66 20.76
2169 119.9918 826.07 876.82 21.18
2170 120.0418 811.01 872.97 20.93
2171 120.0918 818.26 870.20 21.14
2172 120.1417 838.47 868.54 21.36
2173 120.1918 807.40 867.99 20.90
2174 120.2417 804.31 868.53 20.73
2175 120.2917 802.13 870.05 20.82
2176 120.3418 851.99 872.45 21.55
2177 120.3918 789.95 875.58 20.61
2178 120.4417 878.40 879.26 21.89
2179 120.4917 825.05 883.33 21.10
2180 120.5417 831.72 887.57 21.25
2181 120.5917 849.41 891.79 21.46
2182 120.6417 838.38 895.78 21.28
2183 120.6917 837.69 899.34 21.28
2184 120.7417 854.37 902.29 21.52
2185 120.7917 849.61 904.47 21.44
2186 120.8416 865.46 905.75 21.75
2187 120.8917 825.72 906.02 21.03
2188 120.9417 820.22 905.24 20.88
2189 120.9917 853.90 903.39 21.29
2190 121.0417 823.17 900.48 20.99
2191 121.0916 797.55 896.59 20.74
2192 121.1417 884.32 891.79 21.89
2193 121.1955 829.61 885.76 19.35
2194 121.2456 818.57 879.45 19.26
2195 121.2956 787.48 872.65 18.86
2196 121.3456 783.16 865.46 18.87
2197 121.3956 817.01 858.02 19.26
2198 121.4456 783.47 850.47 18.83
2199 121.4956 756.35 842.92 18.48
2200 121.5456 768.39 835.47 18.64
2201 121.5956 768.20 828.24 18.66
2202 121.6456 757.51 821.32 18.52
2203 121.6956 755.03 814.80 18.48
2204 121.7455 789.87 808.78 18.90
2205 121.7955 745.39 801.88 18.35
2206 121.8455 731.47 795.62 18.21
2207 121.8955 730.66 790.05 18.19
2208 121.9455 730.23 785.24 18.21
2209 121.9955 777.64 781.24 18.81
2210 122.0455 755.11 778.09 18.49
2211 122.0955 679.92 775.82 17.50
2212 122.1455 704.40 774.48 17.81
2213 122.1955 730.61 774.08 18.10
2214 122.2455 699.60 774.59 17.71
2215 122.2955 733.45 775.98 18.24
2216 122.3455 746.02 778.24 18.54
2217 122.3955 728.95 781.29 18.23
2218 122.4502 733.42 785.43 18.37
2219 122.5002 812.26 789.84 19.39
2220 122.5502 757.48 794.70 18.71
2221 122.6002 808.07 799.88 19.32
2222 122.6502 814.79 805.22 19.42
2223 122.7002 767.50 810.55 18.85
2224 122.7502 799.81 815.72 19.23
2225 122.8002 777.95 820.54 18.96
2226 122.8502 833.77 824.86 19.64
2227 122.9002 823.70 828.54 19.53
2228 122.9502 846.82 831.46 19.81
2229 123.0002 844.09 833.52 19.78
2230 123.0502 838.82 834.65 19.69
2231 123.1002 862.67 834.83 20.01
2232 123.1502 856.65 834.06 19.90
2233 123.2002 838.48 832.39 19.71
2234 123.2502 830.52 829.89 19.61
2235 123.3001 815.30 826.67 19.43
2236 123.3501 844.14 822.86 19.76
2237 123.4002 802.44 818.60 19.20
2238 123.4501 808.46 814.08 19.27
2239 123.5001 780.08 809.45 18.88
2240 123.5502 746.19 804.79 18.54
2241 123.6001 771.08 800.48 19.07
2242 123.6502 728.27 796.52 18.37
2243 123.6932 751.40 793.54 18.10
2244 123.7433 745.26 790.64 18.04
2245 123.7933 722.14 788.45 17.75
2246 123.8432 745.65 787.02 18.04
2247 123.8932 728.35 786.39 17.84
2248 123.9433 735.95 786.56 17.91
2249 123.9932 763.50 787.53 18.23
2250 124.0432 741.15 789.23 17.99
2251 124.0933 742.25 791.63 18.01
2252 124.1433 770.67 794.61 18.33
2253 124.1932 766.74 798.07 18.31
2254 124.2432 761.29 801.91 18.22
2255 124.2932 796.85 806.00 18.65
2256 124.3432 762.87 810.21 18.23
2257 124.3932 770.05 814.39 18.34
2258 124.4432 803.47 818.40 18.72
2259 124.4932 787.81 822.11 18.54
2260 124.5432 844.20 825.39 19.21
2261 124.5931 799.08 828.10 18.67
2262 124.6432 795.21 830.16 18.55
2263 124.6932 822.52 831.46 18.86
2264 124.7432 779.75 831.93 18.36
2265 124.7932 828.09 831.55 19.07
2266 124.8431 789.60 830.30 18.69
2267 124.8932 801.39 828.20 18.82
2268 124.9298 828.54 826.15 19.73
2269 124.9799 829.95 822.68 19.79
2270 125.0299 845.69 818.53 19.94
2271 125.0799 806.71 813.79 19.48
2272 125.1299 809.40 808.55 19.51
2273 125.1799 796.17 802.90 19.35
2274 125.2299 774.98 796.94 19.14
2275 125.2798 769.92 790.78 19.07
2276 125.3299 782.99 784.45 19.23
2277 125.3799 770.31 778.08 19.06
2278 125.4298 729.35 771.72 18.57
2279 125.4798 778.83 765.40 19.13
2280 125.5298 737.00 759.17 18.61
2281 125.5798 740.18 753.08 18.66
2282 125.6298 772.99 747.14 19.09
2283 125.6798 718.92 741.38 18.38
2284 125.7298 752.99 735.80 18.85
2285 125.7798 738.91 730.41 18.65
2286 125.8297 689.49 725.22 17.99
2287 125.8798 689.82 720.20 17.93
2288 125.9298 662.41 715.36 17.53
2289 125.9798 671.67 710.69 17.67
2290 126.0298 683.94 706.17 17.96
2291 126.0798 675.05 701.46 17.92
2292 126.1298 668.64 697.23 17.79
2293 126.1750 674.89 693.52 17.48
2294 126.2250 655.85 689.53 17.26
2295 126.2750 647.58 685.65 17.09
2296 126.3250 621.38 681.88 16.77
2297 126.3750 630.37 678.21 16.87
2298 126.4250 642.45 674.64 17.04
2299 126.4750 650.57 671.16 17.16
2300 126.5250 620.16 667.74 16.73
2301 126.5750 622.36 664.38 16.77
2302 126.6250 629.92 661.06 16.92
2303 126.6750 613.96 657.75 16.64
2304 126.7249 623.01 654.45 16.73
2305 126.7749 603.98 651.12 16.47
2306 126.8249 621.04 647.73 16.70
2307 126.8749 579.28 644.29 16.14
2308 126.9249 603.21 640.77 16.49
2309 126.9749 624.69 637.15 16.71
2310 127.0249 581.76 633.96 16.21
2311 127.0749 600.63 630.68 16.44
2312 127.1249 584.84 627.29 16.19
2313 127.1749 590.58 623.83 16.22
2314 127.2249 585.99 620.28 16.17
2315 127.2749 559.11 616.68 15.76
2316 127.3249 589.07 613.05 16.37
2317 127.3749 583.73 609.41 16.10
2318 127.4251 577.69 603.85 21.13
2319 127.4652 563.69 600.98 15.21
2320 127.5153 576.70 597.44 15.38
2321 127.5653 548.80 593.99 15.02
2322 127.6152 564.41 590.65 15.18
2323 127.6653 535.69 587.42 14.83
2324 127.7153 523.80 584.35 14.65
2325 127.7653 548.73 581.43 14.98
2326 127.8153 544.77 578.70 14.97
2327 127.8653 556.58 576.13 15.11
2328 127.9153 573.67 573.74 15.33
2329 127.9652 573.89 571.56 15.37
2330 128.0153 537.43 569.56 14.84
2331 128.0652 559.38 567.77 15.12
2332 128.1152 549.78 566.18 15.03
2333 128.1652 566.04 564.79 15.22
2334 128.2152 528.11 563.60 14.72
2335 128.2652 526.25 562.63 14.70
2336 128.3152 553.59 561.86 15.04
2337 128.3652 520.54 561.30 14.55
2338 128.4152 505.08 560.96 14.32
2339 128.4652 510.81 560.84 14.44
2340 128.5152 517.84 560.95 14.49
2341 128.5652 544.67 561.29 14.99
2342 128.6152 544.50 561.87 14.93
2343 128.6553 505.22 562.51 20.94
2344 128.7175 548.34 563.81 15.56
2345 128.7675 547.17 565.13 15.56
2346 128.8175 530.93 566.66 15.30
2347 128.8675 550.82 568.43 15.59
2348 128.9175 535.75 570.42 15.42
2349 128.9676 572.87 572.60 15.87
2350 129.0175 574.34 574.95 15.94
2351 129.0675 561.70 577.43 15.77
2352 129.1175 569.49 580.02 15.86
2353 129.1675 567.45 582.67 15.83
2354 129.2175 562.98 585.34 15.78
2355 129.2675 605.90 587.98 16.36
2356 129.3175 587.79 590.55 16.07
2357 129.3675 578.42 593.00 16.01
2358 129.4175 613.07 595.27 16.47
2359 129.4675 621.70 597.33 16.61
2360 129.5174 579.24 599.13 15.98
2361 129.5675 595.21 600.66 16.24
2362 129.6174 581.75 601.87 16.05
2363 129.6675 620.92 602.77 16.50
2364 129.7174 590.98 603.35 16.10
2365 129.7674 608.60 603.61 16.28
2366 129.8175 606.94 603.59 16.29
2367 129.8674 627.32 603.30 16.77
2368 129.9175 609.45 602.78 16.47
2369 129.9730 583.15 602.02 16.31
2370 130.0231 616.11 601.21 16.78
2371 130.0731 619.99 600.34 16.84
2372 130.1231 621.75 599.49 16.85
2373 130.1731 608.75 598.70 16.72
2374 130.2231 584.06 598.04 16.33
2375 130.2731 616.76 597.55 16.79
2376 130.3231 596.07 597.28 16.53
2377 130.3731 603.79 597.27 16.63
2378 130.4231 642.90 597.54 17.16
2379 130.4731 623.25 598.10 16.86
2380 130.5230 626.68 598.96 16.94
2381 130.5730 617.61 600.12 16.81
2382 130.6230 621.03 601.54 16.86
2383 130.6730 624.56 603.20 16.88
2384 130.7230 644.51 605.07 17.19
2385 130.7730 677.86 607.09 17.60
2386 130.8230 657.58 609.22 17.34
2387 130.8730 682.39 611.40 17.66
2388 130.9230 666.76 613.56 17.38
2389 130.9730 679.51 615.66 17.55
2390 131.0230 714.64 617.63 17.95
2391 131.0730 670.49 619.42 17.47
2392 131.1230 668.53 620.98 17.63
2393 131.1790 682.82 622.41 14.43
2394 131.2288 665.63 623.35 17.51
2395 131.2788 686.93 623.94 17.81
2396 131.3287 687.70 624.17 17.82
2397 131.3788 677.87 624.01 17.69
2398 131.4287 712.71 623.46 18.13
2399 131.4788 691.83 622.49 17.86
2400 131.5287 644.81 621.13 17.26
2401 131.5788 676.64 619.36 17.66
2402 131.6288 676.51 617.21 17.65
2403 131.6788 667.49 614.70 17.56
2404 131.7288 624.07 611.84 16.97
2405 131.7787 647.96 608.68 17.29
2406 131.8287 650.92 605.56 17.31
2407 131.8787 662.14 601.88 17.48
2408 131.9287 648.86 598.00 17.29
2409 131.9787 648.37 593.95 17.28
2410 132.0287 622.16 589.79 16.93
2411 132.0787 625.04 585.54 16.97
2412 132.1287 604.10 581.23 16.69
2413 132.1787 617.90 576.91 16.82
2414 132.2287 632.36 572.59 16.99
2415 132.2787 595.49 568.78 16.47
2416 132.3286 641.62 565.04 17.13
2417 132.3787 612.83 561.34 16.92
2418 132.4287 606.02 557.72 16.67
2419 132.4501 607.30 556.20 24.08
2420 132.4956 584.20 553.03 16.53
2421 132.5456 609.41 549.64 16.92
2422 132.5956 602.02 546.35 16.83
2423 132.6456 595.72 543.18 16.75
2424 132.6956 586.02 540.13 16.53
2425 132.7456 572.24 537.20 16.40
2426 132.7956 583.90 534.39 16.54
2427 132.8456 569.81 531.71 16.33
2428 132.8956 565.69 529.16 16.33
2429 132.9456 562.20 526.74 16.21
2430 132.9956 562.17 524.21 16.26
2431 133.0456 550.82 522.07 16.08
2432 133.0955 519.45 520.06 15.60
2433 133.1455 528.00 518.18 15.72
2434 133.1955 530.42 516.44 15.77
2435 133.2455 540.85 514.83 15.90
2436 133.2955 507.88 513.34 15.41
2437 133.3455 539.70 511.96 15.89
2438 133.3955 484.12 510.71 15.00
2439 133.4455 543.65 509.56 15.90
2440 133.4955 508.11 508.52 15.35
2441 133.5455 529.66 507.56 15.59
2442 133.5955 531.84 506.70 15.81
2443 133.6455 509.42 505.90 15.37
2444 133.7078 511.48 505.02 15.62
2445 133.7578 504.44 504.37 15.49
2446 133.8078 505.74 503.77 15.56
2447 133.8578 515.72 503.22 15.64
2448 133.9078 518.15 502.70 15.71
2449 133.9578 520.11 502.20 15.74
2450 134.0078 523.92 501.74 15.79
2451 134.0578 509.32 501.29 15.60
2452 134.1078 505.76 500.87 15.54
2453 134.1578 472.77 500.44 14.96
2454 134.2078 493.64 500.02 15.32
2455 134.2578 492.26 499.61 15.34
2456 134.3078 470.12 499.20 14.92
2457 134.3578 517.37 498.80 15.69
2458 134.4078 511.19 498.40 15.57
2459 134.4578 495.76 498.01 15.36
2460 134.5077 454.05 497.63 14.74
2461 134.5577 481.11 497.26 15.11
2462 134.6077 482.40 496.90 15.18
2463 134.6578 463.06 496.55 14.76
2464 134.7077 478.16 496.21 15.00
2465 134.7577 495.64 495.90 15.27
2466 134.8078 488.42 495.60 15.06
2467 134.8577 483.09 495.31 15.19
2468 134.9078 510.06 495.05 15.54
2469 134.9577 511.51 494.82 15.13
2470 135.0077 517.34 494.60 15.25
2471 135.0577 485.81 494.41 14.77
2472 135.1077 507.95 494.24 15.12
2473 135.1577 492.61 494.10 14.86
2474 135.2077 516.29 493.99 15.15
2475 135.2577 493.57 493.90 14.87
2476 135.3077 490.24 493.84 14.83
2477 135.3577 473.50 493.81 14.51
2478 135.4077 467.07 493.81 14.44
2479 135.4577 469.53 493.84 14.50
2480 135.5077 487.62 493.89 14.79
2481 135.5577 460.94 493.98 14.38
2482 135.6077 495.67 494.10 14.86
2483 135.6577 480.57 494.25 14.62
2484 135.7077 466.15 494.43 14.42
2485 135.7577 527.29 494.65 15.31
2486 135.8076 486.94 494.89 14.77
2487 135.8576 512.41 495.17 15.16
2488 135.9077 501.28 495.48 14.87
2489 135.9576 473.08 495.83 14.47
2490 136.0076 510.83 496.20 15.05
2491 136.0577 499.64 496.60 14.84
2492 136.1076 482.09 497.02 14.65
2493 136.1577 479.71 497.46 14.50
2494 136.2003 477.48 497.86 14.30
2495 136.2504 494.81 498.34 14.59
2496 136.3004 478.59 498.83 14.34
2497 136.3504 515.70 499.32 14.90
2498 136.4004 513.74 499.82 14.87
2499 136.4504 499.89 500.31 14.66
2500 136.5004 468.12 500.80 14.18
2501 136.5504 513.45 501.26 14.87
2502 136.6004 474.40 501.71 14.26
2503 136.6504 514.89 502.22 14.86
2504 136.7004 491.94 502.60 14.55
2505 136.7503 494.60 502.95 14.57
2506 136.8003 491.93 503.25 14.53
2507 136.8503 511.90 503.51 14.86
2508 136.9003 493.96 503.72 14.55
2509 136.9503 489.35 503.89 14.51
2510 137.0003 503.90 504.00 14.70
2511 137.0503 491.16 504.08 14.54
2512 137.1002 487.40 504.12 14.47
2513 137.1503 478.83 504.13 14.27
2514 137.2003 512.89 504.12 14.80
2515 137.2503 462.13 504.09 13.98
2516 137.3003 498.35 504.08 14.53
2517 137.3503 509.67 504.07 14.84
2518 137.4080 506.03 503.86 11.85
2519 137.4621 494.08 503.95 14.40
2520 137.5121 486.86 504.55 14.30
2521 137.5621 520.98 505.22 14.78
2522 137.6121 507.74 505.96 14.61
2523 137.6620 492.85 506.80 14.37
2524 137.7121 506.63 507.73 14.57
2525 137.7620 484.94 508.76 14.29
2526 137.8121 499.69 509.89 14.46
2527 137.8621 515.02 511.11 14.69
2528 137.9121 495.22 512.43 14.43
2529 137.9620 517.42 513.82 14.73
2530 138.0120 531.69 515.27 14.94
2531 138.0620 495.06 516.78 14.39
2532 138.1120 520.74 518.31 14.79
2533 138.1620 538.88 519.85 15.03
2534 138.2120 491.54 521.38 14.35
2535 138.2620 497.32 522.87 14.44
2536 138.3119 519.95 524.28 14.75
2537 138.3620 508.84 525.62 14.60
2538 138.4120 498.25 526.83 14.39
2539 138.4620 511.23 527.91 14.55
2540 138.5120 502.85 528.83 14.42
2541 138.5619 540.25 529.58 14.96
2542 138.6120 517.02 530.14 14.81
2543 138.6594 523.97 530.48 12.32
2544 138.7137 517.43 530.65 14.97
2545 138.7637 499.95 530.59 14.74
2546 138.8137 522.08 530.33 15.06
2547 138.8637 522.25 529.87 15.06
2548 138.9137 514.85 529.22 14.91
2549 138.9637 501.84 528.33 14.73
2550 139.0137 526.32 527.35 15.09
2551 139.0637 518.91 526.24 14.99
2552 139.1137 532.12 525.01 15.22
2553 139.1637 516.16 523.68 14.95
2554 139.2136 509.24 522.30 14.86
2555 139.2637 477.44 520.85 14.42
2556 139.3136 485.89 519.37 14.51
2557 139.3636 484.16 517.89 14.49
2558 139.4136 476.09 516.42 14.39
2559 139.4636 468.85 514.97 14.26
2560 139.5136 512.06 513.58 14.93
2561 139.5636 475.00 512.24 14.34
2562 139.6136 479.12 510.97 14.32
2563 139.6636 491.49 509.79 14.51
2564 139.7136 485.92 508.70 14.37
2565 139.7636 478.98 507.70 14.34
2566 139.8136 493.61 506.80 14.69
2567 139.8636 487.25 506.00 14.48
2568 139.9040 507.76 505.42 21.76
2569 139.9503 486.07 504.85 17.73
2570 140.0003 509.93 504.33 17.86
2571 140.0503 501.60 503.90 17.78
2572 140.1002 488.45 503.56 17.71
2573 140.1503 479.90 503.32 17.47
2574 140.2003 467.05 503.17 17.10
2575 140.2503 464.16 503.09 17.29
2576 140.3003 476.15 503.10 17.48
2577 140.3503 496.01 503.18 17.90
2578 140.4003 473.66 503.34 17.14
2579 140.4502 469.54 503.56 16.87
2580 140.5003 459.39 503.86 16.98
2581 140.5502 483.53 504.22 17.76
2582 140.6002 454.20 504.65 16.84
2583 140.6502 470.62 505.14 17.30
2584 140.7002 474.35 505.68 17.29
2585 140.7502 444.03 506.29 16.68
2586 140.8002 477.47 506.96 17.48
2587 140.8502 444.82 507.69 16.56
2588 140.9002 490.33 508.47 17.42
2589 140.9502 481.49 509.30 17.30
2590 141.0002 491.00 510.18 17.82
2591 141.0503 504.71 511.11 18.17
2592 141.1002 485.07 512.09 17.32
2593 141.1464 487.67 513.02 27.82
2594 141.1910 508.98 513.95 17.91
2595 141.2410 492.17 515.02 17.38
2596 141.2910 493.72 516.11 17.38
2597 141.3410 524.90 517.22 18.23
2598 141.3910 515.50 518.33 18.30
2599 141.4410 465.66 519.43 17.16
2600 141.4910 516.98 520.53 17.96
2601 141.5410 499.50 521.61 17.82
2602 141.5910 497.97 522.65 17.51
2603 141.6410 516.15 523.66 18.35
2604 141.6910 513.00 524.62 17.83
2605 141.7409 506.72 525.52 17.75
2606 141.7909 490.62 526.36 17.68
2607 141.8409 516.42 527.12 17.74
2608 141.8909 530.89 527.82 18.36
2609 141.9409 524.47 528.43 18.46
2610 141.9909 471.63 528.97 17.02
2611 142.0409 513.23 529.43 18.13
2612 142.0909 486.59 529.80 17.42
2613 142.1409 515.89 530.10 17.89
2614 142.1909 500.80 530.33 17.64
2615 142.2409 511.22 530.50 17.48
2616 142.2909 502.42 530.60 17.27
2617 142.3409 506.01 530.66 17.60
2618 142.3909 499.56 530.67 17.17
2619 142.4408 506.31 530.66 14.90
2620 142.4908 522.38 530.62 15.15
2621 142.5408 511.44 530.57 14.96
2622 142.5908 497.20 530.52 14.78
2623 142.6408 521.23 530.48 15.14
2624 142.6909 517.00 530.46 15.06
2625 142.7408 499.01 530.66 14.81
2626 142.7908 528.98 530.90 15.26
2627 142.8408 499.08 531.18 14.80
2628 142.8908 507.12 531.51 14.90
2629 142.9408 528.73 531.88 15.24
2630 142.9908 504.39 532.31 14.88
2631 143.0408 510.02 532.80 14.96
2632 143.0908 542.27 533.34 15.42
2633 143.1408 541.12 533.95 15.44
2634 143.1908 506.81 534.60 14.93
2635 143.2407 499.84 535.30 14.79
2636 143.2907 534.66 536.06 15.33
2637 143.3407 491.08 536.86 14.66
2638 143.3908 498.54 537.70 14.70
2639 143.4407 535.73 538.57 15.26
2640 143.4907 538.43 539.48 15.27
2641 143.5408 526.10 540.43 15.08
2642 143.5907 519.22 541.39 15.12
2643 143.6408 524.76 542.39 15.12
2644 143.6945 559.27 543.48 15.27
2645 143.7446 532.66 544.52 14.91
2646 143.7946 517.71 545.57 14.69
2647 143.8445 547.25 546.65 15.13
2648 143.8945 539.96 547.76 15.03
2649 143.9446 567.92 548.89 15.40
2650 143.9945 550.77 550.05 15.18
2651 144.0445 541.06 551.24 15.03
2652 144.0946 561.86 552.48 15.32
2653 144.1446 562.25 553.76 15.31
2654 144.1945 536.82 555.08 14.97
2655 144.2445 559.11 556.46 15.29
2656 144.2945 552.78 557.89 15.18
2657 144.3445 572.09 559.39 15.47
2658 144.3945 574.59 560.95 15.50
2659 144.4445 561.58 562.57 15.33
2660 144.4945 559.64 564.26 15.30
2661 144.5445 570.53 566.01 15.44
2662 144.5944 585.56 567.82 15.64
2663 144.6445 575.45 569.70 15.44
2664 144.6945 561.09 571.62 15.25
2665 144.7445 584.29 573.58 15.52
2666 144.7945 548.13 575.59 15.04
2667 144.8444 612.67 577.61 16.18
2668 144.8945 606.65 579.66 15.91
2669 144.9566 587.50 582.21 15.86
2670 145.0067 595.73 584.25 15.96
2671 145.0567 596.22 586.27 15.97
2672 145.1067 599.15 588.24 16.01
2673 145.1567 571.13 590.16 15.65
2674 145.2067 593.81 592.02 15.93
2675 145.2567 604.96 593.80 16.09
2676 145.3067 614.62 595.50 16.20
2677 145.3567 602.94 597.10 16.03
2678 145.4067 631.37 598.60 16.44
2679 145.4566 619.80 599.89 16.29
2680 145.5066 595.77 601.19 15.96
2681 145.5566 619.19 602.39 16.29
2682 145.6066 630.87 603.50 16.43
2683 145.6566 591.67 604.53 15.90
2684 145.7066 585.06 605.51 15.85
2685 145.7566 590.26 606.45 15.87
2686 145.8066 623.82 607.37 16.33
2687 145.8565 574.99 608.30 15.65
2688 145.9066 616.93 609.28 16.21
2689 145.9566 574.92 610.33 15.60
2690 146.0066 602.17 611.48 15.97
2691 146.0566 611.69 612.78 16.13
2692 146.1066 580.82 614.26 15.83
2693 146.1566 624.95 615.95 16.36
2694 146.1886 630.24 617.16 22.22
2695 146.2295 601.47 618.85 15.80
2696 146.2796 611.44 621.19 15.98
2697 146.3295 612.22 623.83 15.97
2698 146.3796 653.63 626.79 16.55
2699 146.4295 623.49 630.08 16.13
2700 146.4795 627.95 633.72 16.18
2701 146.5295 669.89 637.70 16.73
2702 146.5796 634.11 642.02 16.24
2703 146.6295 662.56 646.63 16.63
2704 146.6795 647.80 651.55 16.42
2705 146.7295 653.43 656.73 16.50
2706 146.7794 640.96 662.12 16.36
2707 146.8295 655.91 667.71 16.53
2708 146.8795 647.17 673.41 16.45
2709 146.9295 679.70 679.18 16.84
2710 146.9795 629.47 684.95 16.23
2711 147.0294 627.46 690.66 16.17
2712 147.0794 697.13 696.24 17.05
2713 147.1294 691.59 701.64 17.00
2714 147.1795 719.18 706.77 17.22
2715 147.2294 668.66 711.55 16.59
2716 147.2795 676.56 715.96 16.69
2717 147.3294 694.51 719.90 17.03
2718 147.3795 693.08 723.35 17.11
2719 147.4295 688.12 726.25 16.93
2720 147.4518 671.39 727.35 23.16
2721 147.4952 694.23 729.16 16.62
2722 147.5452 699.90 730.67 16.66
2723 147.5952 696.85 731.54 16.64
2724 147.6452 687.46 731.78 16.52
2725 147.6952 682.20 731.40 16.47
2726 147.7452 670.95 730.41 16.32
2727 147.7952 668.62 728.84 16.31
2728 147.8452 660.71 726.72 16.20
2729 147.8952 654.37 724.08 16.13
2730 147.9452 656.07 720.28 16.15
2731 147.9952 652.58 716.07 16.09
2732 148.0452 683.48 711.51 16.48
2733 148.0951 633.75 706.67 15.87
2734 148.1452 648.12 701.58 16.04
2735 148.1952 638.96 696.34 15.93
2736 148.2451 647.16 691.01 16.03
2737 148.2951 649.29 685.63 16.06
2738 148.3451 642.89 680.28 15.97
2739 148.3952 653.17 674.99 16.02
2740 148.4451 591.92 669.86 15.26
2741 148.4951 611.08 664.90 15.48
2742 148.5452 603.17 660.15 15.47
2743 148.5951 603.55 655.70 15.62
2744 148.6452 616.37 651.53 15.69
2745 148.6950 604.83 647.72 15.91
2746 148.7451 586.51 644.26 15.71
2747 148.7951 617.96 641.18 16.12
2748 148.8451 605.30 638.50 15.94
2749 148.8951 580.13 636.23 15.56
2750 148.9451 569.81 634.39 15.45
2751 148.9951 581.13 632.97 15.63
2752 149.0451 601.65 631.97 15.87
2753 149.0951 568.38 631.41 15.40
2754 149.1451 581.30 631.26 15.60
2755 149.1951 581.14 631.53 15.65
2756 149.2451 574.54 632.20 15.50
2757 149.2951 568.29 633.28 15.44
2758 149.3450 570.32 634.74 15.45
2759 149.3950 562.34 636.57 15.36
2760 149.4450 590.63 638.77 15.74
2761 149.4950 570.83 641.32 15.48
2762 149.5450 597.40 644.21 15.86
2763 149.5950 594.40 647.41 15.79
2764 149.6450 590.67 650.92 15.66
2765 149.6950 599.12 654.72 15.75
2766 149.7450 586.66 658.80 15.59
2767 149.7950 580.46 663.13 15.55
2768 149.8450 585.74 667.70 15.74
2769 149.8950 576.92 672.49 15.54
2770 149.9315 614.01 676.12 15.79
2771 149.9816 633.35 681.26 16.04
2772 150.0316 611.43 686.55 15.75
2773 150.0815 615.77 691.97 15.80
2774 150.1315 640.65 697.52 16.12
2775 150.1816 610.00 703.17 15.75
2776 150.2315 625.38 708.86 15.97
2777 150.2815 641.39 714.60 16.15
2778 150.3316 637.81 720.33 16.04
2779 150.3816 659.72 726.02 16.37
2780 150.4315 653.25 731.62 16.26
2781 150.4815 676.07 737.12 16.58
2782 150.5315 635.18 742.48 16.01
2783 150.5815 699.46 747.65 16.83
2784 150.6315 675.49 752.59 16.53
2785 150.6815 660.94 757.27 16.37
2786 150.7315 701.19 761.66 16.87
2787 150.7815 666.45 765.73 16.46
2788 150.8314 718.19 769.43 17.09
2789 150.8815 705.16 772.78 16.90
2790 150.9315 702.00 775.71 16.80
2791 150.9815 691.89 778.24 16.67
2792 151.0315 692.59 780.33 16.72
2793 151.0814 735.06 781.98 17.46
2794 151.1315 711.62 783.18 17.13
2795 151.1843 708.97 783.96 16.74
2796 151.2344 717.64 784.22 16.90
2797 151.2844 740.53 784.03 17.12
2798 151.3344 716.67 783.38 16.90
2799 151.3844 713.32 782.27 16.86
2800 151.4344 736.12 780.73 17.07
2801 151.4844 717.13 778.74 16.89
2802 151.5344 708.71 776.33 16.76
2803 151.5844 742.63 773.51 17.21
2804 151.6344 737.33 770.28 17.09
2805 151.6843 733.64 766.68 17.11
2806 151.7343 741.90 762.71 17.16
2807 151.7843 748.69 758.40 17.21
2808 151.8343 692.25 753.77 16.58
2809 151.8843 717.32 748.86 16.89
2810 151.9343 705.87 743.68 16.71
2811 151.9843 707.29 738.29 16.77
2812 152.0343 696.29 732.70 16.63
2813 152.0843 709.02 726.96 16.74
2814 152.1343 690.36 721.09 16.49
2815 152.1843 704.26 715.15 16.68
2816 152.2343 701.34 709.16 16.60
2817 152.2843 681.09 703.17 16.49
2818 152.3343 686.95 697.22 16.67
2819 152.3843 689.83 691.33 16.65
2820 152.4385 681.70 685.07 16.70
2821 152.4885 679.92 679.45 16.72
2822 152.5385 641.32 674.31 16.23
2823 152.5885 678.77 669.07 16.76
2824 152.6385 640.56 664.05 16.22
2825 152.6885 627.13 659.30 16.03
2826 152.7385 649.91 654.82 16.39
2827 152.7885 649.21 650.63 16.32
2828 152.8385 630.55 646.75 16.11
2829 152.8885 625.63 643.18 16.05
2830 152.9385 647.52 639.93 16.32
2831 152.9885 632.86 637.01 16.12
2832 153.0384 625.55 634.41 16.04
2833 153.0884 633.93 632.11 16.16
2834 153.1384 598.00 630.13 15.68
2835 153.1884 645.97 628.31 16.29
2836 153.2384 629.21 626.77 16.10
2837 153.2884 651.14 625.49 16.37
2838 153.3384 639.34 624.44 16.19
2839 153.3884 617.24 623.61 15.86
2840 153.4384 610.19 622.96 15.78
2841 153.4884 621.21 622.47 15.88
2842 153.5384 589.15 622.12 15.47
2843 153.5884 627.70 621.86 16.16
2844 153.6385 618.02 621.68 15.98
2845 153.6855 601.66 621.55 15.64
2846 153.7355 629.32 621.42 16.03
2847 153.7856 613.81 621.28 15.87
2848 153.8355 575.53 621.11 15.30
2849 153.8855 609.83 620.87 15.80
2850 153.9356 621.48 620.54 15.93
2851 153.9855 568.73 620.11 15.24
2852 154.0355 590.81 619.56 15.56
2853 154.0856 580.92 618.86 15.41
2854 154.1356 600.32 618.02 15.64
2855 154.1855 604.01 617.02 15.69
2856 154.2355 573.32 615.85 15.31
2857 154.2855 596.19 614.52 15.60
2858 154.3355 615.84 613.02 15.83
2859 154.3855 598.94 611.36 15.62
2860 154.4355 552.12 609.54 15.02
2861 154.4855 561.01 607.56 15.14
2862 154.5355 585.50 605.45 15.54
2863 154.5854 573.54 603.21 15.28
2864 154.6355 552.55 600.84 14.95
2865 154.6854 546.11 598.38 14.84
2866 154.7355 562.63 595.82 15.07
2867 154.7855 565.99 593.19 15.15
2868 154.8354 574.37 590.51 15.41
2869 154.8855 556.23 587.77 15.08
2870 154.9407 583.28 584.72 15.42
2871 154.9908 543.21 581.95 14.94
2872 155.0408 564.89 579.17 15.19
2873 155.0908 547.75 576.42 14.95
2874 155.1408 541.99 573.69 14.85
2875 155.1908 575.37 571.01 15.32
2876 155.2408 558.68 568.37 15.15
2877 155.2908 539.84 565.79 14.88
2878 155.3408 553.36 563.28 15.00
2879 155.3908 549.06 560.84 14.97
2880 155.4408 551.08 558.48 15.00
2881 155.4907 549.09 556.22 15.00
2882 155.5407 553.71 554.03 15.06
2883 155.5907 542.46 551.93 14.86
2884 155.6407 536.15 549.92 14.82
2885 155.6907 556.55 548.01 15.06
2886 155.7407 536.47 546.19 14.83
2887 155.7907 555.65 544.45 15.01
2888 155.8407 523.80 542.81 14.60
2889 155.8907 539.78 541.25 14.75
2890 155.9407 531.65 539.78 14.61
2891 155.9907 531.24 538.39 14.64
2892 156.0407 532.31 537.08 14.70
2893 156.0907 518.27 535.84 14.59
2894 156.1407 528.43 534.67 14.69
2895 156.1925 544.79 533.54 14.80
2896 156.2425 494.56 532.51 14.10
2897 156.2925 518.38 531.54 14.41
2898 156.3425 496.34 530.63 14.15
2899 156.3925 503.52 529.77 14.23
2900 156.4425 535.40 528.97 14.69
2901 156.4925 548.47 528.21 14.86
2902 156.5425 514.25 527.51 14.37
2903 156.5926 531.11 526.84 14.60
2904 156.6425 540.13 526.22 14.74
2905 156.6925 497.88 525.64 14.18
2906 156.7425 509.58 525.09 14.30
2907 156.7925 520.39 524.59 14.45
2908 156.8425 515.99 524.12 14.39
2909 156.8925 508.00 523.68 14.30
2910 156.9425 539.55 523.28 14.74
2911 156.9925 477.99 522.92 13.87
2912 157.0424 528.17 522.60 14.55
2913 157.0924 526.48 522.31 14.53
2914 157.1425 515.91 522.05 14.32
2915 157.1924 498.27 521.84 14.05
2916 157.2425 524.02 521.67 14.42
2917 157.2925 523.69 521.53 14.44
2918 157.3424 498.82 521.45 14.20
2919 157.3925 510.91 521.41 14.33
2920 157.4335 505.69 521.42 14.87
2921 157.4835 512.77 521.47 15.04
2922 157.5335 492.17 521.58 14.69
2923 157.5835 478.85 521.74 14.44
2924 157.6335 490.09 521.97 14.63
2925 157.6835 474.58 522.26 14.38
2926 157.7335 521.24 522.61 15.13
2927 157.7835 516.24 523.03 14.99
2928 157.8335 517.60 523.53 15.09
2929 157.8835 509.47 524.09 14.93
2930 157.9335 499.39 524.73 14.84
2931 157.9835 501.85 525.44 14.81
2932 158.0335 502.39 526.23 14.80
2933 158.0834 510.67 527.09 14.98
2934 158.1334 522.89 528.02 15.11
2935 158.1834 494.34 529.03 14.68
2936 158.2334 482.67 530.11 14.57
2937 158.2834 528.63 531.25 15.19
2938 158.3334 504.54 532.46 14.85
2939 158.3835 498.14 533.72 14.75
2940 158.4334 543.06 535.80 15.41
2941 158.4834 517.23 537.93 14.95
2942 158.5335 533.68 540.09 15.17
2943 158.5834 530.46 542.28 15.28
2944 158.6335 534.68 544.50 15.28
2945 158.6836 497.58 546.73 14.87
2946 158.7337 504.66 548.96 14.99
2947 158.7837 514.00 551.18 15.05
2948 158.8337 504.77 553.37 14.97
2949 158.8837 526.75 555.53 15.33
2950 158.9337 515.29 557.64 15.11
2951 158.9837 512.25 559.70 15.06
2952 159.0337 529.93 561.69 15.38
2953 159.0837 548.46 563.59 15.62
2954 159.1337 505.87 565.41 14.99
2955 159.1836 517.46 567.12 15.19
2956 159.2336 534.89 568.72 15.42
2957 159.2836 535.35 570.20 15.42
2958 159.3336 561.49 571.55 15.80
2959 159.3836 538.38 572.77 15.53
2960 159.4336 527.76 573.85 15.35
2961 159.4836 531.89 574.78 15.39
2962 159.5336 514.76 575.57 15.10
2963 159.5836 543.46 576.22 15.53
2964 159.6336 522.37 576.72 15.20
2965 159.6836 526.71 577.07 15.26
2966 159.7336 548.80 577.28 15.53
2967 159.7836 492.81 577.36 14.66
2968 159.8336 521.51 577.31 15.23
2969 159.8836 545.26 577.14 15.51
2970 159.9557 523.06 576.69 14.72
2971 160.0058 513.31 576.25 14.64
2972 160.0558 529.17 575.72 14.83
2973 160.1058 563.28 575.10 15.31
2974 160.1558 503.31 574.42 14.46
2975 160.2058 535.51 573.67 14.90
2976 160.2557 507.16 572.88 14.49
2977 160.3058 538.18 572.05 14.92
2978 160.3558 537.98 571.19 14.95
2979 160.4058 546.91 570.33 15.07
2980 160.4557 543.76 569.46 15.04
2981 160.5057 529.45 568.59 14.80
2982 160.5557 528.35 567.75 14.81
2983 160.6057 543.81 566.93 14.99
2984 160.6557 533.50 566.16 14.84
2985 160.7057 525.33 565.41 14.75
2986 160.7557 540.76 564.73 14.95
2987 160.8057 564.46 564.12 15.30
2988 160.8556 514.30 563.58 14.61
2989 160.9057 535.97 563.11 14.86
2990 160.9557 543.72 562.73 14.94
2991 161.0057 538.44 562.43 14.81
2992 161.0557 522.07 562.22 14.65
2993 161.1057 562.26 562.11 15.38
2994 161.1557 524.14 562.09 14.74
2995 161.2143 541.34 562.19 15.01
2996 161.2643 544.01 562.39 15.11
2997 161.3143 518.74 562.68 14.72
2998 161.3643 531.14 563.07 14.94
2999 161.4143 540.43 563.56 15.05
3000 161.4643 553.65 564.11 15.22
3001 161.5143 535.61 564.79 14.99
3002 161.5643 543.72 565.55 15.10
3003 161.6143 537.80 566.39 15.03
3004 161.6643 527.01 567.32 14.87
3005 161.7143 519.56 568.32 14.76
3006 161.7643 541.45 569.39 15.07
3007 161.8143 535.11 570.52 14.95
3008 161.8642 555.65 571.71 15.31
3009 161.9142 580.16 572.95 15.57
3010 161.9643 524.79 574.23 14.82
3011 162.0142 561.93 575.55 15.37
3012 162.0642 548.61 576.90 15.15
3013 162.1142 550.31 578.26 15.19
3014 162.1643 524.70 579.65 14.76
3015 162.2142 528.95 581.03 14.80
3016 162.2642 540.75 582.41 14.96
3017 162.3142 566.18 583.78 15.35
3018 162.3642 533.77 585.13 14.94
3019 162.4143 524.78 586.46 14.84
3020 162.4589 554.10 587.61 21.62
3021 162.5089 536.61 588.88 21.30
3022 162.5589 520.48 590.10 20.96
3023 162.6089 559.70 591.27 21.74
3024 162.6588 528.09 592.39 21.11
3025 162.7089 532.86 593.45 21.19
3026 162.7589 522.82 594.46 21.03
3027 162.8089 530.79 595.41 21.19
3028 162.8589 569.10 596.29 21.96
3029 162.9089 581.46 597.11 22.19
3030 162.9589 532.43 597.87 21.23
3031 163.0089 583.90 598.57 22.20
3032 163.0589 558.85 599.20 21.71
3033 163.1089 578.82 599.78 22.20
3034 163.1589 549.04 600.31 21.47
3035 163.2089 557.91 600.78 21.76
3036 163.2589 531.39 601.21 21.17
3037 163.3089 534.13 601.59 21.21
3038 163.3589 569.62 601.93 21.91
3039 163.4089 565.51 602.24 21.62
3040 163.4588 560.86 602.53 21.55
3041 163.5089 561.47 602.79 21.52
3042 163.5589 567.12 603.03 21.65
3043 163.6089 574.73 603.27 22.14
3044 163.6589 566.54 603.50 21.79
loop_
_pd_proc_info_excluded_regions
'from 1.5 to 11.826'
loop_
_refln_index_h
_refln_index_k
_refln_index_l
_refln_F_squared_calc
_refln_F_squared_meas
_refln_observed_status
_refln_d_spacing
1 1 1 48.67 57.04 o 4.815419
2 0 2 170.96 238.09 o 2.948830
1 1 3 2015.98 1810.28 o 2.514770
2 2 2 45458.76 46133.02 o 2.407709
0 0 4 14218.18 13816.40 o 2.085137
3 1 3 1874.62 1828.36 o 1.913453
2 2 4 365.94 328.67 o 1.702508
1 1 5 11.85 11.70 o 1.605140
3 3 3 7210.19 7118.45 o 1.605140
4 0 4 4178.56 4698.80 o 1.474415
3 1 5 2.63 2.08 o 1.409810
4 2 4 164.28 91.03 o 1.390092
2 0 6 548.66 345.72 o 1.318757
3 3 5 1234.98 1312.96 o 1.271922
2 2 6 24433.54 24720.87 o 1.257385
4 4 4 5461.48 5634.35 o 1.203855
5 1 5 1142.98 1339.22 o 1.167911
1 1 7 1315.22 1541.02 o 1.167911
4 2 6 25.00 25.24 o 1.114553
3 1 7 4305.31 4624.71 o 1.085847
5 3 5 26.16 28.10 o 1.085847
0 0 8 1026.80 703.71 o 1.042569
3 3 7 3593.04 3686.56 o 1.018960
4 4 6 77.02 80.86 o 1.011440
2 2 8 90.48 41.01 o 0.982943
6 0 6 81.92 37.13 o 0.982943
5 5 5 486.23 454.47 o 0.963084
5 1 7 1130.95 1057.08 o 0.963084
6 2 6 13491.23 12831.09 o 0.956727
4 0 8 1827.60 1321.94 o 0.932502
1 1 9 515.83 437.30 o 0.915494
5 3 7 638.61 541.39 o 0.915494
4 2 8 259.81 215.15 o 0.910029
6 4 6 749.77 1053.35 o 0.889106
3 1 9 26.92 17.28 o 0.874327
4 4 8 146.12 129.39 o 0.851254
3 3 9 0.10 0.07 o 0.838257
7 1 7 1910.01 1313.72 o 0.838257
5 5 7 72.43 49.82 o 0.838257
