#------------------------------------------------------------------------------
#$Date: 2016-02-13 21:28:24 +0200 (Sat, 13 Feb 2016) $
#$Revision: 176429 $
#$URL: svn://www.crystallography.net/cod/cif/4/34/31/4343130.cif $
#------------------------------------------------------------------------------
#
# This file is available in the Crystallography Open Database (COD),
# http://www.crystallography.net/
#
# All data on this site have been placed in the public domain by the
# contributors.
#
data_4343130
loop_
_publ_author_name
'Murphy, Denissa T.'
'Schmid, Siegbert'
'Hester, James R.'
'Blanchard, Peter E. R.'
'Miiller, Wojciech'
_publ_section_title
;
 Coordination Site Disorder in Spinel-Type LiMnTiO4.
;
_journal_issue                   10
_journal_name_full               'Inorganic chemistry'
_journal_page_first              4636
_journal_page_last               4643
_journal_paper_doi               10.1021/ic502747p
_journal_volume                  54
_journal_year                    2015
_chemical_formula_sum            'Li Mn O4 Ti'
_chemical_formula_weight         173.8
_chemical_name_common            Lithium_manganese_titanate_quenched_900C
_chemical_name_systematic        ' Lithium_manganese_titanate'
_space_group_IT_number           227
_symmetry_cell_setting           cubic
_symmetry_Int_Tables_number      227
_symmetry_space_group_name_Hall  '-F 4vw 2vw 3'
_symmetry_space_group_name_H-M   'F d -3 m :2'
_cell_angle_alpha                90
_cell_angle_beta                 90
_cell_angle_gamma                90
_cell_formula_units_Z            8
_cell_length_a                   8.380858(15)
_cell_length_b                   8.380858(15)
_cell_length_c                   8.380858(15)
_cell_measurement_temperature    293
_cell_volume                     588.6612(18)
_diffrn_ambient_temperature      293
_diffrn_measurement_device_type  powder_diffraction
_diffrn_radiation_probe          x-ray
_diffrn_radiation_type           synchrotron_X-ray
_diffrn_radiation_wavelength     0.82657
_exptl_absorpt_coefficient_mu    10.187
_exptl_crystal_density_diffrn    3.9199
_exptl_crystal_F_000             656
_pd_char_colour                  black
_pd_instr_location               ' ?'
_pd_meas_2theta_range_max        82.007
_pd_meas_2theta_range_min        2.186
_pd_meas_number_of_points        21243
_pd_proc_2theta_range_max        82.007
_pd_proc_2theta_range_min        2.186
_pd_proc_ls_background_function  '9 Legendre polynoms'
_pd_proc_ls_pref_orient_corr     none
_pd_proc_ls_profile_function     Pseudo-Voigt
_pd_proc_ls_prof_R_factor        0.0319
_pd_proc_ls_prof_wR_expected     0.0199
_pd_proc_ls_prof_wR_factor       0.0434
_refine_ls_goodness_of_fit_all   2.14
_refine_ls_number_constraints    0
_refine_ls_number_parameters     36
_refine_ls_number_restraints     0
_refine_ls_R_factor_all          0.0348
_refine_ls_R_factor_gt           0.0343
_refine_ls_shift/su_max          0.0000
_refine_ls_shift/su_mean         0.0000
_refine_ls_weighting_scheme      sigma
_refine_ls_wR_factor_all         0.0670
_refine_ls_wR_factor_gt          0.0670
_cod_data_source_file            ic502747p_si_001.cif
_cod_data_source_block           I
_cod_depositor_comments
;
The following automatic conversions were performed:

'_diffrn_radiation_probe' value 'X-ray' changed to 'x-ray' according
to
/usr/data/users/saulius/crontab/automatic-downloads/current/ACS/lib/dictionaries/cif_core.dic
dictionary named 'cif_core.dic' version 2.4.2 from 2011-04-26.

Automatic conversion script
Id: cif_fix_values 3271 2015-04-21 07:52:19Z andrius 
;
_cod_original_cell_volume        588.6613(18)
_cod_original_sg_symbol_Hall     '-F 4abvw;2abvw;3'
_cod_original_sg_symbol_H-M      'F d -3 m'
_cod_original_formula_sum        'Li1 Mn1 O4 Ti1'
_cod_database_code               4343130
loop_
_symmetry_equiv_pos_site_id
_symmetry_equiv_pos_as_xyz
1 x,y,z
2 -x+3/4,-y+1/4,z+1/2
3 -x+1/4,y+1/2,-z+3/4
4 x+1/2,-y+3/4,-z+1/4
5 z,x,y
6 z+1/2,-x+3/4,-y+1/4
7 -z+3/4,-x+1/4,y+1/2
8 -z+1/4,x+1/2,-y+3/4
9 y,z,x
10 -y+1/4,z+1/2,-x+3/4
11 y+1/2,-z+3/4,-x+1/4
12 -y+3/4,-z+1/4,x+1/2
13 y+3/4,x+1/4,-z+1/2
14 -y,-x,-z
15 y+1/4,-x+1/2,z+3/4
16 -y+1/2,x+3/4,z+1/4
17 x+3/4,z+1/4,-y+1/2
18 -x+1/2,z+3/4,y+1/4
19 -x,-z,-y
20 x+1/4,-z+1/2,y+3/4
21 z+3/4,y+1/4,-x+1/2
22 z+1/4,-y+1/2,x+3/4
23 -z+1/2,y+3/4,x+1/4
24 -z,-y,-x
25 -x,-y,-z
26 x+1/4,y+3/4,-z+1/2
27 x+3/4,-y+1/2,z+1/4
28 -x+1/2,y+1/4,z+3/4
29 -z,-x,-y
30 -z+1/2,x+1/4,y+3/4
31 z+1/4,x+3/4,-y+1/2
32 z+3/4,-x+1/2,y+1/4
33 -y,-z,-x
34 y+3/4,-z+1/2,x+1/4
35 -y+1/2,z+1/4,x+3/4
36 y+1/4,z+3/4,-x+1/2
37 -y+1/4,-x+3/4,z+1/2
38 y,x,z
39 -y+3/4,x+1/2,-z+1/4
40 y+1/2,-x+1/4,-z+3/4
41 -x+1/4,-z+3/4,y+1/2
42 x+1/2,-z+1/4,-y+3/4
43 x,z,y
44 -x+3/4,z+1/2,-y+1/4
45 -z+1/4,-y+3/4,x+1/2
46 -z+3/4,y+1/2,-x+1/4
47 z+1/2,-y+1/4,-x+3/4
48 z,y,x
49 x,y+1/2,z+1/2
50 -x+3/4,-y+3/4,z
51 -x+1/4,y,-z+1/4
52 x+1/2,-y+1/4,-z+3/4
53 z,x+1/2,y+1/2
54 z+1/2,-x+1/4,-y+3/4
55 -z+3/4,-x+3/4,y
56 -z+1/4,x,-y+1/4
57 y,z+1/2,x+1/2
58 -y+1/4,z,-x+1/4
59 y+1/2,-z+1/4,-x+3/4
60 -y+3/4,-z+3/4,x
61 y+3/4,x+3/4,-z
62 -y,-x+1/2,-z+1/2
63 y+1/4,-x,z+1/4
64 -y+1/2,x+1/4,z+3/4
65 x+3/4,z+3/4,-y
66 -x+1/2,z+1/4,y+3/4
67 -x,-z+1/2,-y+1/2
68 x+1/4,-z,y+1/4
69 z+3/4,y+3/4,-x
70 z+1/4,-y,x+1/4
71 -z+1/2,y+1/4,x+3/4
72 -z,-y+1/2,-x+1/2
73 -x,-y+1/2,-z+1/2
74 x+1/4,y+1/4,-z
75 x+3/4,-y,z+3/4
76 -x+1/2,y+3/4,z+1/4
77 -z,-x+1/2,-y+1/2
78 -z+1/2,x+3/4,y+1/4
79 z+1/4,x+1/4,-y
80 z+3/4,-x,y+3/4
81 -y,-z+1/2,-x+1/2
82 y+3/4,-z,x+3/4
83 -y+1/2,z+3/4,x+1/4
84 y+1/4,z+1/4,-x
85 -y+1/4,-x+1/4,z
86 y,x+1/2,z+1/2
87 -y+3/4,x,-z+3/4
88 y+1/2,-x+3/4,-z+1/4
89 -x+1/4,-z+1/4,y
90 x+1/2,-z+3/4,-y+1/4
91 x,z+1/2,y+1/2
92 -x+3/4,z,-y+3/4
93 -z+1/4,-y+1/4,x
94 -z+3/4,y,-x+3/4
95 z+1/2,-y+3/4,-x+1/4
96 z,y+1/2,x+1/2
97 x+1/2,y,z+1/2
98 -x+1/4,-y+1/4,z
99 -x+3/4,y+1/2,-z+1/4
100 x,-y+3/4,-z+3/4
101 z+1/2,x,y+1/2
102 z,-x+3/4,-y+3/4
103 -z+1/4,-x+1/4,y
104 -z+3/4,x+1/2,-y+1/4
105 y+1/2,z,x+1/2
106 -y+3/4,z+1/2,-x+1/4
107 y,-z+3/4,-x+3/4
108 -y+1/4,-z+1/4,x
109 y+1/4,x+1/4,-z
110 -y+1/2,-x,-z+1/2
111 y+3/4,-x+1/2,z+1/4
112 -y,x+3/4,z+3/4
113 x+1/4,z+1/4,-y
114 -x,z+3/4,y+3/4
115 -x+1/2,-z,-y+1/2
116 x+3/4,-z+1/2,y+1/4
117 z+1/4,y+1/4,-x
118 z+3/4,-y+1/2,x+1/4
119 -z,y+3/4,x+3/4
120 -z+1/2,-y,-x+1/2
121 -x+1/2,-y,-z+1/2
122 x+3/4,y+3/4,-z
123 x+1/4,-y+1/2,z+3/4
124 -x,y+1/4,z+1/4
125 -z+1/2,-x,-y+1/2
126 -z,x+1/4,y+1/4
127 z+3/4,x+3/4,-y
128 z+1/4,-x+1/2,y+3/4
129 -y+1/2,-z,-x+1/2
130 y+1/4,-z+1/2,x+3/4
131 -y,z+1/4,x+1/4
132 y+3/4,z+3/4,-x
133 -y+3/4,-x+3/4,z
134 y+1/2,x,z+1/2
135 -y+1/4,x+1/2,-z+3/4
136 y,-x+1/4,-z+1/4
137 -x+3/4,-z+3/4,y
138 x,-z+1/4,-y+1/4
139 x+1/2,z,y+1/2
140 -x+1/4,z+1/2,-y+3/4
141 -z+3/4,-y+3/4,x
142 -z+1/4,y+1/2,-x+3/4
143 z,-y+1/4,-x+1/4
144 z+1/2,y,x+1/2
145 x+1/2,y+1/2,z
146 -x+1/4,-y+3/4,z+1/2
147 -x+3/4,y,-z+3/4
148 x,-y+1/4,-z+1/4
149 z+1/2,x+1/2,y
150 z,-x+1/4,-y+1/4
151 -z+1/4,-x+3/4,y+1/2
152 -z+3/4,x,-y+3/4
153 y+1/2,z+1/2,x
154 -y+3/4,z,-x+3/4
155 y,-z+1/4,-x+1/4
156 -y+1/4,-z+3/4,x+1/2
157 y+1/4,x+3/4,-z+1/2
158 -y+1/2,-x+1/2,-z
159 y+3/4,-x,z+3/4
160 -y,x+1/4,z+1/4
161 x+1/4,z+3/4,-y+1/2
162 -x,z+1/4,y+1/4
163 -x+1/2,-z+1/2,-y
164 x+3/4,-z,y+3/4
165 z+1/4,y+3/4,-x+1/2
166 z+3/4,-y,x+3/4
167 -z,y+1/4,x+1/4
168 -z+1/2,-y+1/2,-x
169 -x+1/2,-y+1/2,-z
170 x+3/4,y+1/4,-z+1/2
171 x+1/4,-y,z+1/4
172 -x,y+3/4,z+3/4
173 -z+1/2,-x+1/2,-y
174 -z,x+3/4,y+3/4
175 z+3/4,x+1/4,-y+1/2
176 z+1/4,-x,y+1/4
177 -y+1/2,-z+1/2,-x
178 y+1/4,-z,x+1/4
179 -y,z+3/4,x+3/4
180 y+3/4,z+1/4,-x+1/2
181 -y+3/4,-x+1/4,z+1/2
182 y+1/2,x+1/2,z
183 -y+1/4,x,-z+1/4
184 y,-x+3/4,-z+3/4
185 -x+3/4,-z+1/4,y+1/2
186 x,-z+3/4,-y+3/4
187 x+1/2,z+1/2,y
188 -x+1/4,z,-y+1/4
189 -z+3/4,-y+1/4,x+1/2
190 -z+1/4,y,-x+1/4
191 z,-y+3/4,-x+3/4
192 z+1/2,y+1/2,x
loop_
_atom_site_label
_atom_site_type_symbol
_atom_site_fract_x
_atom_site_fract_y
_atom_site_fract_z
_atom_site_adp_type
_atom_site_U_iso_or_equiv
_atom_site_symmetry_multiplicity
_atom_site_occupancy
_atom_site_calc_flag
Li11 Li 0.125 0.125 0.125 Uiso 0.0136 8 0.6751 d
Ti11 Ti 0.125 0.125 0.125 Uiso 0.0136 8 0.297(5) d
Li12 Li 0.5 0.5 0.5 Uiso 0.0137 16 0.1625 d
Ti12 Ti 0.5 0.5 0.5 Uiso 0.0137 16 0.351(3) d
Mn12 Mn 0.5 0.5 0.5 Uiso 0.0137 16 0.486(3) d
O1 O 0.26306(3) 0.26306(3) 0.26306(3) Uiso 0.01494(12) 32 1 d
Mn11 Mn 0.125 0.125 0.125 Uiso 0.0136 8 0.028(5) d
loop_
_atom_type_symbol
_atom_type_scat_dispersion_real
_atom_type_scat_dispersion_imag
_atom_type_scat_source
Li 0.0001 0.0001 'International Tables Vol C tables 4.2.6.8 and 6.1.1.1'
Mn 0.3616 0.9684 'International Tables Vol C tables 4.2.6.8 and 6.1.1.1'
O 0.0160 0.0088 'International Tables Vol C tables 4.2.6.8 and 6.1.1.1'
Ti 0.3254 0.5998 'International Tables Vol C tables 4.2.6.8 and 6.1.1.1'
loop_
_geom_angle_atom_site_label_1
_geom_angle_atom_site_label_2
_geom_angle_atom_site_label_3
_geom_angle_site_symmetry_1
_geom_angle_site_symmetry_3
_geom_angle
Ti11 Li11 O1 . . 0
Ti11 Li11 O1 . 98_555 0
Ti11 Li11 O1 . 51_555 0
Ti11 Li11 O1 . 148_555 0
Ti11 Li11 Mn11 . . 0
O1 Li11 O1 . 98_555 109.471(10)
O1 Li11 O1 . 51_555 109.471(10)
O1 Li11 O1 . 148_555 109.471(10)
O1 Li11 Mn11 . . 0
O1 Li11 O1 98_555 51_555 109.471(10)
O1 Li11 O1 98_555 148_555 109.471(10)
O1 Li11 Mn11 98_555 . 0
O1 Li11 O1 51_555 148_555 109.471(10)
O1 Li11 Mn11 51_555 . 0
O1 Li11 Mn11 148_555 . 0
Li11 Ti11 O1 . . 0
Li11 Ti11 O1 . 98_555 0
Li11 Ti11 O1 . 51_555 0
Li11 Ti11 O1 . 148_555 0
Li11 Ti11 Mn11 . . 0
O1 Ti11 O1 . 98_555 109.471(10)
O1 Ti11 O1 . 51_555 109.471(10)
O1 Ti11 O1 . 148_555 109.471(10)
O1 Ti11 Mn11 . . 0
O1 Ti11 O1 98_555 51_555 109.471(10)
O1 Ti11 O1 98_555 148_555 109.471(10)
O1 Ti11 Mn11 98_555 . 0
O1 Ti11 O1 51_555 148_555 109.471(10)
O1 Ti11 Mn11 51_555 . 0
O1 Ti11 Mn11 148_555 . 0
Li12 Li12 Li12 50_555 98_665 180.0(5)
Li12 Li12 Li12 50_555 51_656 120
Li12 Li12 Li12 50_555 147_555 60
Li12 Li12 Li12 50_555 100_555 60
Li12 Li12 Li12 50_555 148_566 120
Li12 Li12 Ti12 50_555 . 0
Li12 Li12 Ti12 50_555 50_555 0.0(5)
Li12 Li12 Ti12 50_555 98_665 180.0(5)
Li12 Li12 Ti12 50_555 51_656 120
Li12 Li12 Ti12 50_555 147_555 60
Li12 Li12 Ti12 50_555 100_555 60
Li12 Li12 Ti12 50_555 148_566 120
Li12 Li12 Mn12 50_555 . 0
Li12 Li12 Mn12 50_555 50_555 0.0(5)
Li12 Li12 Mn12 50_555 98_665 180.0(5)
Li12 Li12 Mn12 50_555 51_656 120
Li12 Li12 Mn12 50_555 147_555 60
Li12 Li12 Mn12 50_555 100_555 60
Li12 Li12 Mn12 50_555 148_566 120
Li12 Li12 O1 50_555 50_555 85.542(7)
Li12 Li12 O1 50_555 147_555 41.941(7)
Li12 Li12 O1 50_555 100_555 41.941(7)
Li12 Li12 O1 50_555 109_556 94.458(7)
Li12 Li12 O1 50_555 63_565 138.059(7)
Li12 Li12 O1 50_555 160_655 138.059(7)
Li12 Li12 Li12 98_665 51_656 60
Li12 Li12 Li12 98_665 147_555 120
Li12 Li12 Li12 98_665 100_555 120
Li12 Li12 Li12 98_665 148_566 60
Li12 Li12 Ti12 98_665 . 0
Li12 Li12 Ti12 98_665 50_555 180.0(5)
Li12 Li12 Ti12 98_665 98_665 0.0(5)
Li12 Li12 Ti12 98_665 51_656 60
Li12 Li12 Ti12 98_665 147_555 120
Li12 Li12 Ti12 98_665 100_555 120
Li12 Li12 Ti12 98_665 148_566 60
Li12 Li12 Mn12 98_665 . 0
Li12 Li12 Mn12 98_665 50_555 180.0(5)
Li12 Li12 Mn12 98_665 98_665 0.0(5)
Li12 Li12 Mn12 98_665 51_656 60
Li12 Li12 Mn12 98_665 147_555 120
Li12 Li12 Mn12 98_665 100_555 120
Li12 Li12 Mn12 98_665 148_566 60
Li12 Li12 O1 98_665 50_555 94.458(7)
Li12 Li12 O1 98_665 147_555 138.059(7)
Li12 Li12 O1 98_665 100_555 138.059(7)
Li12 Li12 O1 98_665 109_556 85.542(7)
Li12 Li12 O1 98_665 63_565 41.941(7)
Li12 Li12 O1 98_665 160_655 41.941(7)
Li12 Li12 Li12 51_656 147_555 180.0(5)
Li12 Li12 Li12 51_656 100_555 120
Li12 Li12 Li12 51_656 148_566 60
Li12 Li12 Ti12 51_656 . 0
Li12 Li12 Ti12 51_656 50_555 120
Li12 Li12 Ti12 51_656 98_665 60
Li12 Li12 Ti12 51_656 51_656 0.0(5)
Li12 Li12 Ti12 51_656 147_555 180.0(5)
Li12 Li12 Ti12 51_656 100_555 120
Li12 Li12 Ti12 51_656 148_566 60
Li12 Li12 Mn12 51_656 . 0
Li12 Li12 Mn12 51_656 50_555 120
Li12 Li12 Mn12 51_656 98_665 60
Li12 Li12 Mn12 51_656 51_656 0.0(5)
Li12 Li12 Mn12 51_656 147_555 180.0(5)
Li12 Li12 Mn12 51_656 100_555 120
Li12 Li12 Mn12 51_656 148_566 60
Li12 Li12 O1 51_656 50_555 138.059(7)
Li12 Li12 O1 51_656 147_555 94.458(7)
Li12 Li12 O1 51_656 100_555 138.059(7)
Li12 Li12 O1 51_656 109_556 41.941(7)
Li12 Li12 O1 51_656 63_565 85.542(7)
Li12 Li12 O1 51_656 160_655 41.941(7)
Li12 Li12 Li12 147_555 100_555 60
Li12 Li12 Li12 147_555 148_566 120
Li12 Li12 Ti12 147_555 . 0
Li12 Li12 Ti12 147_555 50_555 60
Li12 Li12 Ti12 147_555 98_665 120
Li12 Li12 Ti12 147_555 51_656 180.0(5)
Li12 Li12 Ti12 147_555 147_555 0.0(5)
Li12 Li12 Ti12 147_555 100_555 60
Li12 Li12 Ti12 147_555 148_566 120
Li12 Li12 Mn12 147_555 . 0
Li12 Li12 Mn12 147_555 50_555 60
Li12 Li12 Mn12 147_555 98_665 120
Li12 Li12 Mn12 147_555 51_656 180.0(5)
Li12 Li12 Mn12 147_555 147_555 0.0(5)
Li12 Li12 Mn12 147_555 100_555 60
Li12 Li12 Mn12 147_555 148_566 120
Li12 Li12 O1 147_555 50_555 41.941(7)
Li12 Li12 O1 147_555 147_555 85.542(7)
Li12 Li12 O1 147_555 100_555 41.941(7)
Li12 Li12 O1 147_555 109_556 138.059(7)
Li12 Li12 O1 147_555 63_565 94.458(7)
Li12 Li12 O1 147_555 160_655 138.059(7)
Li12 Li12 Li12 100_555 148_566 180.0(5)
Li12 Li12 Ti12 100_555 . 0
Li12 Li12 Ti12 100_555 50_555 60
Li12 Li12 Ti12 100_555 98_665 120
Li12 Li12 Ti12 100_555 51_656 120
Li12 Li12 Ti12 100_555 147_555 60
Li12 Li12 Ti12 100_555 100_555 0.0(5)
Li12 Li12 Ti12 100_555 148_566 180.0(5)
Li12 Li12 Mn12 100_555 . 0
Li12 Li12 Mn12 100_555 50_555 60
Li12 Li12 Mn12 100_555 98_665 120
Li12 Li12 Mn12 100_555 51_656 120
Li12 Li12 Mn12 100_555 147_555 60
Li12 Li12 Mn12 100_555 100_555 0.0(5)
Li12 Li12 Mn12 100_555 148_566 180.0(5)
Li12 Li12 O1 100_555 50_555 41.941(7)
Li12 Li12 O1 100_555 147_555 41.941(7)
Li12 Li12 O1 100_555 100_555 85.542(7)
Li12 Li12 O1 100_555 109_556 138.059(7)
Li12 Li12 O1 100_555 63_565 138.059(7)
Li12 Li12 O1 100_555 160_655 94.458(7)
Li12 Li12 Ti12 148_566 . 0
Li12 Li12 Ti12 148_566 50_555 120
Li12 Li12 Ti12 148_566 98_665 60
Li12 Li12 Ti12 148_566 51_656 60
Li12 Li12 Ti12 148_566 147_555 120
Li12 Li12 Ti12 148_566 100_555 180.0(5)
Li12 Li12 Ti12 148_566 148_566 0.0(5)
Li12 Li12 Mn12 148_566 . 0
Li12 Li12 Mn12 148_566 50_555 120
Li12 Li12 Mn12 148_566 98_665 60
Li12 Li12 Mn12 148_566 51_656 60
Li12 Li12 Mn12 148_566 147_555 120
Li12 Li12 Mn12 148_566 100_555 180.0(5)
Li12 Li12 Mn12 148_566 148_566 0.0(5)
Li12 Li12 O1 148_566 50_555 138.059(7)
Li12 Li12 O1 148_566 147_555 138.059(7)
Li12 Li12 O1 148_566 100_555 94.458(7)
Li12 Li12 O1 148_566 109_556 41.941(7)
Li12 Li12 O1 148_566 63_565 41.941(7)
Li12 Li12 O1 148_566 160_655 85.542(7)
Ti12 Li12 Ti12 . 50_555 0
Ti12 Li12 Ti12 . 98_665 0
Ti12 Li12 Ti12 . 51_656 0
Ti12 Li12 Ti12 . 147_555 0
Ti12 Li12 Ti12 . 100_555 0
Ti12 Li12 Ti12 . 148_566 0
Ti12 Li12 Mn12 . . 0
Ti12 Li12 Mn12 . 50_555 0
Ti12 Li12 Mn12 . 98_665 0
Ti12 Li12 Mn12 . 51_656 0
Ti12 Li12 Mn12 . 147_555 0
Ti12 Li12 Mn12 . 100_555 0
Ti12 Li12 Mn12 . 148_566 0
Ti12 Li12 O1 . 50_555 0
Ti12 Li12 O1 . 147_555 0
Ti12 Li12 O1 . 100_555 0
Ti12 Li12 O1 . 109_556 0
Ti12 Li12 O1 . 63_565 0
Ti12 Li12 O1 . 160_655 0
Ti12 Li12 Ti12 50_555 98_665 180.0(5)
Ti12 Li12 Ti12 50_555 51_656 120
Ti12 Li12 Ti12 50_555 147_555 60
Ti12 Li12 Ti12 50_555 100_555 60
Ti12 Li12 Ti12 50_555 148_566 120
Ti12 Li12 Mn12 50_555 . 0
Ti12 Li12 Mn12 50_555 50_555 0.0(5)
Ti12 Li12 Mn12 50_555 98_665 180.0(5)
Ti12 Li12 Mn12 50_555 51_656 120
Ti12 Li12 Mn12 50_555 147_555 60
Ti12 Li12 Mn12 50_555 100_555 60
Ti12 Li12 Mn12 50_555 148_566 120
Ti12 Li12 O1 50_555 50_555 85.542(7)
Ti12 Li12 O1 50_555 147_555 41.941(7)
Ti12 Li12 O1 50_555 100_555 41.941(7)
Ti12 Li12 O1 50_555 109_556 94.458(7)
Ti12 Li12 O1 50_555 63_565 138.059(7)
Ti12 Li12 O1 50_555 160_655 138.059(7)
Ti12 Li12 Ti12 98_665 51_656 60
Ti12 Li12 Ti12 98_665 147_555 120
Ti12 Li12 Ti12 98_665 100_555 120
Ti12 Li12 Ti12 98_665 148_566 60
Ti12 Li12 Mn12 98_665 . 0
Ti12 Li12 Mn12 98_665 50_555 180.0(5)
Ti12 Li12 Mn12 98_665 98_665 0.0(5)
Ti12 Li12 Mn12 98_665 51_656 60
Ti12 Li12 Mn12 98_665 147_555 120
Ti12 Li12 Mn12 98_665 100_555 120
Ti12 Li12 Mn12 98_665 148_566 60
Ti12 Li12 O1 98_665 50_555 94.458(7)
Ti12 Li12 O1 98_665 147_555 138.059(7)
Ti12 Li12 O1 98_665 100_555 138.059(7)
Ti12 Li12 O1 98_665 109_556 85.542(7)
Ti12 Li12 O1 98_665 63_565 41.941(7)
Ti12 Li12 O1 98_665 160_655 41.941(7)
Ti12 Li12 Ti12 51_656 147_555 180.0(5)
Ti12 Li12 Ti12 51_656 100_555 120
Ti12 Li12 Ti12 51_656 148_566 60
Ti12 Li12 Mn12 51_656 . 0
Ti12 Li12 Mn12 51_656 50_555 120
Ti12 Li12 Mn12 51_656 98_665 60
Ti12 Li12 Mn12 51_656 51_656 0.0(5)
Ti12 Li12 Mn12 51_656 147_555 180.0(5)
Ti12 Li12 Mn12 51_656 100_555 120
Ti12 Li12 Mn12 51_656 148_566 60
Ti12 Li12 O1 51_656 50_555 138.059(7)
Ti12 Li12 O1 51_656 147_555 94.458(7)
Ti12 Li12 O1 51_656 100_555 138.059(7)
Ti12 Li12 O1 51_656 109_556 41.941(7)
Ti12 Li12 O1 51_656 63_565 85.542(7)
Ti12 Li12 O1 51_656 160_655 41.941(7)
Ti12 Li12 Ti12 147_555 100_555 60
Ti12 Li12 Ti12 147_555 148_566 120
Ti12 Li12 Mn12 147_555 . 0
Ti12 Li12 Mn12 147_555 50_555 60
Ti12 Li12 Mn12 147_555 98_665 120
Ti12 Li12 Mn12 147_555 51_656 180.0(5)
Ti12 Li12 Mn12 147_555 147_555 0.0(5)
Ti12 Li12 Mn12 147_555 100_555 60
Ti12 Li12 Mn12 147_555 148_566 120
Ti12 Li12 O1 147_555 50_555 41.941(7)
Ti12 Li12 O1 147_555 147_555 85.542(7)
Ti12 Li12 O1 147_555 100_555 41.941(7)
Ti12 Li12 O1 147_555 109_556 138.059(7)
Ti12 Li12 O1 147_555 63_565 94.458(7)
Ti12 Li12 O1 147_555 160_655 138.059(7)
Ti12 Li12 Ti12 100_555 148_566 180.0(5)
Ti12 Li12 Mn12 100_555 . 0
Ti12 Li12 Mn12 100_555 50_555 60
Ti12 Li12 Mn12 100_555 98_665 120
Ti12 Li12 Mn12 100_555 51_656 120
Ti12 Li12 Mn12 100_555 147_555 60
Ti12 Li12 Mn12 100_555 100_555 0.0(5)
Ti12 Li12 Mn12 100_555 148_566 180.0(5)
Ti12 Li12 O1 100_555 50_555 41.941(7)
Ti12 Li12 O1 100_555 147_555 41.941(7)
Ti12 Li12 O1 100_555 100_555 85.542(7)
Ti12 Li12 O1 100_555 109_556 138.059(7)
Ti12 Li12 O1 100_555 63_565 138.059(7)
Ti12 Li12 O1 100_555 160_655 94.458(7)
Ti12 Li12 Mn12 148_566 . 0
Ti12 Li12 Mn12 148_566 50_555 120
Ti12 Li12 Mn12 148_566 98_665 60
Ti12 Li12 Mn12 148_566 51_656 60
Ti12 Li12 Mn12 148_566 147_555 120
Ti12 Li12 Mn12 148_566 100_555 180.0(5)
Ti12 Li12 Mn12 148_566 148_566 0.0(5)
Ti12 Li12 O1 148_566 50_555 138.059(7)
Ti12 Li12 O1 148_566 147_555 138.059(7)
Ti12 Li12 O1 148_566 100_555 94.458(7)
Ti12 Li12 O1 148_566 109_556 41.941(7)
Ti12 Li12 O1 148_566 63_565 41.941(7)
Ti12 Li12 O1 148_566 160_655 85.542(7)
Mn12 Li12 Mn12 . 50_555 0
Mn12 Li12 Mn12 . 98_665 0
Mn12 Li12 Mn12 . 51_656 0
Mn12 Li12 Mn12 . 147_555 0
Mn12 Li12 Mn12 . 100_555 0
Mn12 Li12 Mn12 . 148_566 0
Mn12 Li12 O1 . 50_555 0
Mn12 Li12 O1 . 147_555 0
Mn12 Li12 O1 . 100_555 0
Mn12 Li12 O1 . 109_556 0
Mn12 Li12 O1 . 63_565 0
Mn12 Li12 O1 . 160_655 0
Mn12 Li12 Mn12 50_555 98_665 180.0(5)
Mn12 Li12 Mn12 50_555 51_656 120
Mn12 Li12 Mn12 50_555 147_555 60
Mn12 Li12 Mn12 50_555 100_555 60
Mn12 Li12 Mn12 50_555 148_566 120
Mn12 Li12 O1 50_555 50_555 85.542(7)
Mn12 Li12 O1 50_555 147_555 41.941(7)
Mn12 Li12 O1 50_555 100_555 41.941(7)
Mn12 Li12 O1 50_555 109_556 94.458(7)
Mn12 Li12 O1 50_555 63_565 138.059(7)
Mn12 Li12 O1 50_555 160_655 138.059(7)
Mn12 Li12 Mn12 98_665 51_656 60
Mn12 Li12 Mn12 98_665 147_555 120
Mn12 Li12 Mn12 98_665 100_555 120
Mn12 Li12 Mn12 98_665 148_566 60
Mn12 Li12 O1 98_665 50_555 94.458(7)
Mn12 Li12 O1 98_665 147_555 138.059(7)
Mn12 Li12 O1 98_665 100_555 138.059(7)
Mn12 Li12 O1 98_665 109_556 85.542(7)
Mn12 Li12 O1 98_665 63_565 41.941(7)
Mn12 Li12 O1 98_665 160_655 41.941(7)
Mn12 Li12 Mn12 51_656 147_555 180.0(5)
Mn12 Li12 Mn12 51_656 100_555 120
Mn12 Li12 Mn12 51_656 148_566 60
Mn12 Li12 O1 51_656 50_555 138.059(7)
Mn12 Li12 O1 51_656 147_555 94.458(7)
Mn12 Li12 O1 51_656 100_555 138.059(7)
Mn12 Li12 O1 51_656 109_556 41.941(7)
Mn12 Li12 O1 51_656 63_565 85.542(7)
Mn12 Li12 O1 51_656 160_655 41.941(7)
Mn12 Li12 Mn12 147_555 100_555 60
Mn12 Li12 Mn12 147_555 148_566 120
Mn12 Li12 O1 147_555 50_555 41.941(7)
Mn12 Li12 O1 147_555 147_555 85.542(7)
Mn12 Li12 O1 147_555 100_555 41.941(7)
Mn12 Li12 O1 147_555 109_556 138.059(7)
Mn12 Li12 O1 147_555 63_565 94.458(7)
Mn12 Li12 O1 147_555 160_655 138.059(7)
Mn12 Li12 Mn12 100_555 148_566 180.0(5)
Mn12 Li12 O1 100_555 50_555 41.941(7)
Mn12 Li12 O1 100_555 147_555 41.941(7)
Mn12 Li12 O1 100_555 100_555 85.542(7)
Mn12 Li12 O1 100_555 109_556 138.059(7)
Mn12 Li12 O1 100_555 63_565 138.059(7)
Mn12 Li12 O1 100_555 160_655 94.458(7)
Mn12 Li12 O1 148_566 50_555 138.059(7)
Mn12 Li12 O1 148_566 147_555 138.059(7)
Mn12 Li12 O1 148_566 100_555 94.458(7)
Mn12 Li12 O1 148_566 109_556 41.941(7)
Mn12 Li12 O1 148_566 63_565 41.941(7)
Mn12 Li12 O1 148_566 160_655 85.542(7)
O1 Li12 O1 50_555 147_555 83.535(10)
O1 Li12 O1 50_555 100_555 83.535(10)
O1 Li12 O1 50_555 109_556 180.0(5)
O1 Li12 O1 50_555 63_565 96.465(10)
O1 Li12 O1 50_555 160_655 96.465(10)
O1 Li12 O1 147_555 100_555 83.535(10)
O1 Li12 O1 147_555 109_556 96.465(10)
O1 Li12 O1 147_555 63_565 180.0(5)
O1 Li12 O1 147_555 160_655 96.465(10)
O1 Li12 O1 100_555 109_556 96.465(10)
O1 Li12 O1 100_555 63_565 96.465(10)
O1 Li12 O1 100_555 160_655 180.0(5)
O1 Li12 O1 109_556 63_565 83.535(10)
O1 Li12 O1 109_556 160_655 83.535(10)
O1 Li12 O1 63_565 160_655 83.535(10)
Li12 Ti12 Li12 . 50_555 0
Li12 Ti12 Li12 . 98_665 0
Li12 Ti12 Li12 . 51_656 0
Li12 Ti12 Li12 . 147_555 0
Li12 Ti12 Li12 . 100_555 0
Li12 Ti12 Li12 . 148_566 0
Li12 Ti12 Ti12 . 50_555 0
Li12 Ti12 Ti12 . 98_665 0
Li12 Ti12 Ti12 . 51_656 0
Li12 Ti12 Ti12 . 147_555 0
Li12 Ti12 Ti12 . 100_555 0
Li12 Ti12 Ti12 . 148_566 0
Li12 Ti12 Mn12 . . 0
Li12 Ti12 Mn12 . 50_555 0
Li12 Ti12 Mn12 . 98_665 0
Li12 Ti12 Mn12 . 51_656 0
Li12 Ti12 Mn12 . 147_555 0
Li12 Ti12 Mn12 . 100_555 0
Li12 Ti12 Mn12 . 148_566 0
Li12 Ti12 O1 . 50_555 0
Li12 Ti12 O1 . 147_555 0
Li12 Ti12 O1 . 100_555 0
Li12 Ti12 O1 . 109_556 0
Li12 Ti12 O1 . 63_565 0
Li12 Ti12 O1 . 160_655 0
Li12 Ti12 Li12 50_555 98_665 180.0(5)
Li12 Ti12 Li12 50_555 51_656 120
Li12 Ti12 Li12 50_555 147_555 60
Li12 Ti12 Li12 50_555 100_555 60
Li12 Ti12 Li12 50_555 148_566 120
Li12 Ti12 Ti12 50_555 50_555 0.0(5)
Li12 Ti12 Ti12 50_555 98_665 180.0(5)
Li12 Ti12 Ti12 50_555 51_656 120
Li12 Ti12 Ti12 50_555 147_555 60
Li12 Ti12 Ti12 50_555 100_555 60
Li12 Ti12 Ti12 50_555 148_566 120
Li12 Ti12 Mn12 50_555 . 0
Li12 Ti12 Mn12 50_555 50_555 0.0(5)
Li12 Ti12 Mn12 50_555 98_665 180.0(5)
Li12 Ti12 Mn12 50_555 51_656 120
Li12 Ti12 Mn12 50_555 147_555 60
Li12 Ti12 Mn12 50_555 100_555 60
Li12 Ti12 Mn12 50_555 148_566 120
Li12 Ti12 O1 50_555 50_555 85.542(7)
Li12 Ti12 O1 50_555 147_555 41.941(7)
Li12 Ti12 O1 50_555 100_555 41.941(7)
Li12 Ti12 O1 50_555 109_556 94.458(7)
Li12 Ti12 O1 50_555 63_565 138.059(7)
Li12 Ti12 O1 50_555 160_655 138.059(7)
Li12 Ti12 Li12 98_665 51_656 60
Li12 Ti12 Li12 98_665 147_555 120
Li12 Ti12 Li12 98_665 100_555 120
Li12 Ti12 Li12 98_665 148_566 60
Li12 Ti12 Ti12 98_665 50_555 180.0(5)
Li12 Ti12 Ti12 98_665 98_665 0.0(5)
Li12 Ti12 Ti12 98_665 51_656 60
Li12 Ti12 Ti12 98_665 147_555 120
Li12 Ti12 Ti12 98_665 100_555 120
Li12 Ti12 Ti12 98_665 148_566 60
Li12 Ti12 Mn12 98_665 . 0
Li12 Ti12 Mn12 98_665 50_555 180.0(5)
Li12 Ti12 Mn12 98_665 98_665 0.0(5)
Li12 Ti12 Mn12 98_665 51_656 60
Li12 Ti12 Mn12 98_665 147_555 120
Li12 Ti12 Mn12 98_665 100_555 120
Li12 Ti12 Mn12 98_665 148_566 60
Li12 Ti12 O1 98_665 50_555 94.458(7)
Li12 Ti12 O1 98_665 147_555 138.059(7)
Li12 Ti12 O1 98_665 100_555 138.059(7)
Li12 Ti12 O1 98_665 109_556 85.542(7)
Li12 Ti12 O1 98_665 63_565 41.941(7)
Li12 Ti12 O1 98_665 160_655 41.941(7)
Li12 Ti12 Li12 51_656 147_555 180.0(5)
Li12 Ti12 Li12 51_656 100_555 120
Li12 Ti12 Li12 51_656 148_566 60
Li12 Ti12 Ti12 51_656 50_555 120
Li12 Ti12 Ti12 51_656 98_665 60
Li12 Ti12 Ti12 51_656 51_656 0.0(5)
Li12 Ti12 Ti12 51_656 147_555 180.0(5)
Li12 Ti12 Ti12 51_656 100_555 120
Li12 Ti12 Ti12 51_656 148_566 60
Li12 Ti12 Mn12 51_656 . 0
Li12 Ti12 Mn12 51_656 50_555 120
Li12 Ti12 Mn12 51_656 98_665 60
Li12 Ti12 Mn12 51_656 51_656 0.0(5)
Li12 Ti12 Mn12 51_656 147_555 180.0(5)
Li12 Ti12 Mn12 51_656 100_555 120
Li12 Ti12 Mn12 51_656 148_566 60
Li12 Ti12 O1 51_656 50_555 138.059(7)
Li12 Ti12 O1 51_656 147_555 94.458(7)
Li12 Ti12 O1 51_656 100_555 138.059(7)
Li12 Ti12 O1 51_656 109_556 41.941(7)
Li12 Ti12 O1 51_656 63_565 85.542(7)
Li12 Ti12 O1 51_656 160_655 41.941(7)
Li12 Ti12 Li12 147_555 100_555 60
Li12 Ti12 Li12 147_555 148_566 120
Li12 Ti12 Ti12 147_555 50_555 60
Li12 Ti12 Ti12 147_555 98_665 120
Li12 Ti12 Ti12 147_555 51_656 180.0(5)
Li12 Ti12 Ti12 147_555 147_555 0.0(5)
Li12 Ti12 Ti12 147_555 100_555 60
Li12 Ti12 Ti12 147_555 148_566 120
Li12 Ti12 Mn12 147_555 . 0
Li12 Ti12 Mn12 147_555 50_555 60
Li12 Ti12 Mn12 147_555 98_665 120
Li12 Ti12 Mn12 147_555 51_656 180.0(5)
Li12 Ti12 Mn12 147_555 147_555 0.0(5)
Li12 Ti12 Mn12 147_555 100_555 60
Li12 Ti12 Mn12 147_555 148_566 120
Li12 Ti12 O1 147_555 50_555 41.941(7)
Li12 Ti12 O1 147_555 147_555 85.542(7)
Li12 Ti12 O1 147_555 100_555 41.941(7)
Li12 Ti12 O1 147_555 109_556 138.059(7)
Li12 Ti12 O1 147_555 63_565 94.458(7)
Li12 Ti12 O1 147_555 160_655 138.059(7)
Li12 Ti12 Li12 100_555 148_566 180.0(5)
Li12 Ti12 Ti12 100_555 50_555 60
Li12 Ti12 Ti12 100_555 98_665 120
Li12 Ti12 Ti12 100_555 51_656 120
Li12 Ti12 Ti12 100_555 147_555 60
Li12 Ti12 Ti12 100_555 100_555 0.0(5)
Li12 Ti12 Ti12 100_555 148_566 180.0(5)
Li12 Ti12 Mn12 100_555 . 0
Li12 Ti12 Mn12 100_555 50_555 60
Li12 Ti12 Mn12 100_555 98_665 120
Li12 Ti12 Mn12 100_555 51_656 120
Li12 Ti12 Mn12 100_555 147_555 60
Li12 Ti12 Mn12 100_555 100_555 0.0(5)
Li12 Ti12 Mn12 100_555 148_566 180.0(5)
Li12 Ti12 O1 100_555 50_555 41.941(7)
Li12 Ti12 O1 100_555 147_555 41.941(7)
Li12 Ti12 O1 100_555 100_555 85.542(7)
Li12 Ti12 O1 100_555 109_556 138.059(7)
Li12 Ti12 O1 100_555 63_565 138.059(7)
Li12 Ti12 O1 100_555 160_655 94.458(7)
Li12 Ti12 Ti12 148_566 50_555 120
Li12 Ti12 Ti12 148_566 98_665 60
Li12 Ti12 Ti12 148_566 51_656 60
Li12 Ti12 Ti12 148_566 147_555 120
Li12 Ti12 Ti12 148_566 100_555 180.0(5)
Li12 Ti12 Ti12 148_566 148_566 0.0(5)
Li12 Ti12 Mn12 148_566 . 0
Li12 Ti12 Mn12 148_566 50_555 120
Li12 Ti12 Mn12 148_566 98_665 60
Li12 Ti12 Mn12 148_566 51_656 60
Li12 Ti12 Mn12 148_566 147_555 120
Li12 Ti12 Mn12 148_566 100_555 180.0(5)
Li12 Ti12 Mn12 148_566 148_566 0.0(5)
Li12 Ti12 O1 148_566 50_555 138.059(7)
Li12 Ti12 O1 148_566 147_555 138.059(7)
Li12 Ti12 O1 148_566 100_555 94.458(7)
Li12 Ti12 O1 148_566 109_556 41.941(7)
Li12 Ti12 O1 148_566 63_565 41.941(7)
Li12 Ti12 O1 148_566 160_655 85.542(7)
Ti12 Ti12 Ti12 50_555 98_665 180.0(5)
Ti12 Ti12 Ti12 50_555 51_656 120
Ti12 Ti12 Ti12 50_555 147_555 60
Ti12 Ti12 Ti12 50_555 100_555 60
Ti12 Ti12 Ti12 50_555 148_566 120
Ti12 Ti12 Mn12 50_555 . 0
Ti12 Ti12 Mn12 50_555 50_555 0.0(5)
Ti12 Ti12 Mn12 50_555 98_665 180.0(5)
Ti12 Ti12 Mn12 50_555 51_656 120
Ti12 Ti12 Mn12 50_555 147_555 60
Ti12 Ti12 Mn12 50_555 100_555 60
Ti12 Ti12 Mn12 50_555 148_566 120
Ti12 Ti12 O1 50_555 50_555 85.542(7)
Ti12 Ti12 O1 50_555 147_555 41.941(7)
Ti12 Ti12 O1 50_555 100_555 41.941(7)
Ti12 Ti12 O1 50_555 109_556 94.458(7)
Ti12 Ti12 O1 50_555 63_565 138.059(7)
Ti12 Ti12 O1 50_555 160_655 138.059(7)
Ti12 Ti12 Ti12 98_665 51_656 60
Ti12 Ti12 Ti12 98_665 147_555 120
Ti12 Ti12 Ti12 98_665 100_555 120
Ti12 Ti12 Ti12 98_665 148_566 60
Ti12 Ti12 Mn12 98_665 . 0
Ti12 Ti12 Mn12 98_665 50_555 180.0(5)
Ti12 Ti12 Mn12 98_665 98_665 0.0(5)
Ti12 Ti12 Mn12 98_665 51_656 60
Ti12 Ti12 Mn12 98_665 147_555 120
Ti12 Ti12 Mn12 98_665 100_555 120
Ti12 Ti12 Mn12 98_665 148_566 60
Ti12 Ti12 O1 98_665 50_555 94.458(7)
Ti12 Ti12 O1 98_665 147_555 138.059(7)
Ti12 Ti12 O1 98_665 100_555 138.059(7)
Ti12 Ti12 O1 98_665 109_556 85.542(7)
Ti12 Ti12 O1 98_665 63_565 41.941(7)
Ti12 Ti12 O1 98_665 160_655 41.941(7)
Ti12 Ti12 Ti12 51_656 147_555 180.0(5)
Ti12 Ti12 Ti12 51_656 100_555 120
Ti12 Ti12 Ti12 51_656 148_566 60
Ti12 Ti12 Mn12 51_656 . 0
Ti12 Ti12 Mn12 51_656 50_555 120
Ti12 Ti12 Mn12 51_656 98_665 60
Ti12 Ti12 Mn12 51_656 51_656 0.0(5)
Ti12 Ti12 Mn12 51_656 147_555 180.0(5)
Ti12 Ti12 Mn12 51_656 100_555 120
Ti12 Ti12 Mn12 51_656 148_566 60
Ti12 Ti12 O1 51_656 50_555 138.059(7)
Ti12 Ti12 O1 51_656 147_555 94.458(7)
Ti12 Ti12 O1 51_656 100_555 138.059(7)
Ti12 Ti12 O1 51_656 109_556 41.941(7)
Ti12 Ti12 O1 51_656 63_565 85.542(7)
Ti12 Ti12 O1 51_656 160_655 41.941(7)
Ti12 Ti12 Ti12 147_555 100_555 60
Ti12 Ti12 Ti12 147_555 148_566 120
Ti12 Ti12 Mn12 147_555 . 0
Ti12 Ti12 Mn12 147_555 50_555 60
Ti12 Ti12 Mn12 147_555 98_665 120
Ti12 Ti12 Mn12 147_555 51_656 180.0(5)
Ti12 Ti12 Mn12 147_555 147_555 0.0(5)
Ti12 Ti12 Mn12 147_555 100_555 60
Ti12 Ti12 Mn12 147_555 148_566 120
Ti12 Ti12 O1 147_555 50_555 41.941(7)
Ti12 Ti12 O1 147_555 147_555 85.542(7)
Ti12 Ti12 O1 147_555 100_555 41.941(7)
Ti12 Ti12 O1 147_555 109_556 138.059(7)
Ti12 Ti12 O1 147_555 63_565 94.458(7)
Ti12 Ti12 O1 147_555 160_655 138.059(7)
Ti12 Ti12 Ti12 100_555 148_566 180.0(5)
Ti12 Ti12 Mn12 100_555 . 0
Ti12 Ti12 Mn12 100_555 50_555 60
Ti12 Ti12 Mn12 100_555 98_665 120
Ti12 Ti12 Mn12 100_555 51_656 120
Ti12 Ti12 Mn12 100_555 147_555 60
Ti12 Ti12 Mn12 100_555 100_555 0.0(5)
Ti12 Ti12 Mn12 100_555 148_566 180.0(5)
Ti12 Ti12 O1 100_555 50_555 41.941(7)
Ti12 Ti12 O1 100_555 147_555 41.941(7)
Ti12 Ti12 O1 100_555 100_555 85.542(7)
Ti12 Ti12 O1 100_555 109_556 138.059(7)
Ti12 Ti12 O1 100_555 63_565 138.059(7)
Ti12 Ti12 O1 100_555 160_655 94.458(7)
Ti12 Ti12 Mn12 148_566 . 0
Ti12 Ti12 Mn12 148_566 50_555 120
Ti12 Ti12 Mn12 148_566 98_665 60
Ti12 Ti12 Mn12 148_566 51_656 60
Ti12 Ti12 Mn12 148_566 147_555 120
Ti12 Ti12 Mn12 148_566 100_555 180.0(5)
Ti12 Ti12 Mn12 148_566 148_566 0.0(5)
Ti12 Ti12 O1 148_566 50_555 138.059(7)
Ti12 Ti12 O1 148_566 147_555 138.059(7)
Ti12 Ti12 O1 148_566 100_555 94.458(7)
Ti12 Ti12 O1 148_566 109_556 41.941(7)
Ti12 Ti12 O1 148_566 63_565 41.941(7)
Ti12 Ti12 O1 148_566 160_655 85.542(7)
Mn12 Ti12 Mn12 . 50_555 0
Mn12 Ti12 Mn12 . 98_665 0
Mn12 Ti12 Mn12 . 51_656 0
Mn12 Ti12 Mn12 . 147_555 0
Mn12 Ti12 Mn12 . 100_555 0
Mn12 Ti12 Mn12 . 148_566 0
Mn12 Ti12 O1 . 50_555 0
Mn12 Ti12 O1 . 147_555 0
Mn12 Ti12 O1 . 100_555 0
Mn12 Ti12 O1 . 109_556 0
Mn12 Ti12 O1 . 63_565 0
Mn12 Ti12 O1 . 160_655 0
Mn12 Ti12 Mn12 50_555 98_665 180.0(5)
Mn12 Ti12 Mn12 50_555 51_656 120
Mn12 Ti12 Mn12 50_555 147_555 60
Mn12 Ti12 Mn12 50_555 100_555 60
Mn12 Ti12 Mn12 50_555 148_566 120
Mn12 Ti12 O1 50_555 50_555 85.542(7)
Mn12 Ti12 O1 50_555 147_555 41.941(7)
Mn12 Ti12 O1 50_555 100_555 41.941(7)
Mn12 Ti12 O1 50_555 109_556 94.458(7)
Mn12 Ti12 O1 50_555 63_565 138.059(7)
Mn12 Ti12 O1 50_555 160_655 138.059(7)
Mn12 Ti12 Mn12 98_665 51_656 60
Mn12 Ti12 Mn12 98_665 147_555 120
Mn12 Ti12 Mn12 98_665 100_555 120
Mn12 Ti12 Mn12 98_665 148_566 60
Mn12 Ti12 O1 98_665 50_555 94.458(7)
Mn12 Ti12 O1 98_665 147_555 138.059(7)
Mn12 Ti12 O1 98_665 100_555 138.059(7)
Mn12 Ti12 O1 98_665 109_556 85.542(7)
Mn12 Ti12 O1 98_665 63_565 41.941(7)
Mn12 Ti12 O1 98_665 160_655 41.941(7)
Mn12 Ti12 Mn12 51_656 147_555 180.0(5)
Mn12 Ti12 Mn12 51_656 100_555 120
Mn12 Ti12 Mn12 51_656 148_566 60
Mn12 Ti12 O1 51_656 50_555 138.059(7)
Mn12 Ti12 O1 51_656 147_555 94.458(7)
Mn12 Ti12 O1 51_656 100_555 138.059(7)
Mn12 Ti12 O1 51_656 109_556 41.941(7)
Mn12 Ti12 O1 51_656 63_565 85.542(7)
Mn12 Ti12 O1 51_656 160_655 41.941(7)
Mn12 Ti12 Mn12 147_555 100_555 60
Mn12 Ti12 Mn12 147_555 148_566 120
Mn12 Ti12 O1 147_555 50_555 41.941(7)
Mn12 Ti12 O1 147_555 147_555 85.542(7)
Mn12 Ti12 O1 147_555 100_555 41.941(7)
Mn12 Ti12 O1 147_555 109_556 138.059(7)
Mn12 Ti12 O1 147_555 63_565 94.458(7)
Mn12 Ti12 O1 147_555 160_655 138.059(7)
Mn12 Ti12 Mn12 100_555 148_566 180.0(5)
Mn12 Ti12 O1 100_555 50_555 41.941(7)
Mn12 Ti12 O1 100_555 147_555 41.941(7)
Mn12 Ti12 O1 100_555 100_555 85.542(7)
Mn12 Ti12 O1 100_555 109_556 138.059(7)
Mn12 Ti12 O1 100_555 63_565 138.059(7)
Mn12 Ti12 O1 100_555 160_655 94.458(7)
Mn12 Ti12 O1 148_566 50_555 138.059(7)
Mn12 Ti12 O1 148_566 147_555 138.059(7)
Mn12 Ti12 O1 148_566 100_555 94.458(7)
Mn12 Ti12 O1 148_566 109_556 41.941(7)
Mn12 Ti12 O1 148_566 63_565 41.941(7)
Mn12 Ti12 O1 148_566 160_655 85.542(7)
O1 Ti12 O1 50_555 147_555 83.535(10)
O1 Ti12 O1 50_555 100_555 83.535(10)
O1 Ti12 O1 50_555 109_556 180.0(5)
O1 Ti12 O1 50_555 63_565 96.465(10)
O1 Ti12 O1 50_555 160_655 96.465(10)
O1 Ti12 O1 147_555 100_555 83.535(10)
O1 Ti12 O1 147_555 109_556 96.465(10)
O1 Ti12 O1 147_555 63_565 180.0(5)
O1 Ti12 O1 147_555 160_655 96.465(10)
O1 Ti12 O1 100_555 109_556 96.465(10)
O1 Ti12 O1 100_555 63_565 96.465(10)
O1 Ti12 O1 100_555 160_655 180.0(5)
O1 Ti12 O1 109_556 63_565 83.535(10)
O1 Ti12 O1 109_556 160_655 83.535(10)
O1 Ti12 O1 63_565 160_655 83.535(10)
Li12 Mn12 Li12 . 50_555 0
Li12 Mn12 Li12 . 98_665 0
Li12 Mn12 Li12 . 51_656 0
Li12 Mn12 Li12 . 147_555 0
Li12 Mn12 Li12 . 100_555 0
Li12 Mn12 Li12 . 148_566 0
Li12 Mn12 Ti12 . . 0
Li12 Mn12 Ti12 . 50_555 0
Li12 Mn12 Ti12 . 98_665 0
Li12 Mn12 Ti12 . 51_656 0
Li12 Mn12 Ti12 . 147_555 0
Li12 Mn12 Ti12 . 100_555 0
Li12 Mn12 Ti12 . 148_566 0
Li12 Mn12 O1 . 50_555 0
Li12 Mn12 O1 . 147_555 0
Li12 Mn12 O1 . 100_555 0
Li12 Mn12 O1 . 109_556 0
Li12 Mn12 O1 . 63_565 0
Li12 Mn12 O1 . 160_655 0
Li12 Mn12 Li12 50_555 98_665 180.0(5)
Li12 Mn12 Li12 50_555 51_656 120
Li12 Mn12 Li12 50_555 147_555 60
Li12 Mn12 Li12 50_555 100_555 60
Li12 Mn12 Li12 50_555 148_566 120
Li12 Mn12 Ti12 50_555 . 0
Li12 Mn12 Ti12 50_555 50_555 0.0(5)
Li12 Mn12 Ti12 50_555 98_665 180.0(5)
Li12 Mn12 Ti12 50_555 51_656 120
Li12 Mn12 Ti12 50_555 147_555 60
Li12 Mn12 Ti12 50_555 100_555 60
Li12 Mn12 Ti12 50_555 148_566 120
Li12 Mn12 O1 50_555 50_555 85.542(7)
Li12 Mn12 O1 50_555 147_555 41.941(7)
Li12 Mn12 O1 50_555 100_555 41.941(7)
Li12 Mn12 O1 50_555 109_556 94.458(7)
Li12 Mn12 O1 50_555 63_565 138.059(7)
Li12 Mn12 O1 50_555 160_655 138.059(7)
Li12 Mn12 Li12 98_665 51_656 60
Li12 Mn12 Li12 98_665 147_555 120
Li12 Mn12 Li12 98_665 100_555 120
Li12 Mn12 Li12 98_665 148_566 60
Li12 Mn12 Ti12 98_665 . 0
Li12 Mn12 Ti12 98_665 50_555 180.0(5)
Li12 Mn12 Ti12 98_665 98_665 0.0(5)
Li12 Mn12 Ti12 98_665 51_656 60
Li12 Mn12 Ti12 98_665 147_555 120
Li12 Mn12 Ti12 98_665 100_555 120
Li12 Mn12 Ti12 98_665 148_566 60
Li12 Mn12 O1 98_665 50_555 94.458(7)
Li12 Mn12 O1 98_665 147_555 138.059(7)
Li12 Mn12 O1 98_665 100_555 138.059(7)
Li12 Mn12 O1 98_665 109_556 85.542(7)
Li12 Mn12 O1 98_665 63_565 41.941(7)
Li12 Mn12 O1 98_665 160_655 41.941(7)
Li12 Mn12 Li12 51_656 147_555 180.0(5)
Li12 Mn12 Li12 51_656 100_555 120
Li12 Mn12 Li12 51_656 148_566 60
Li12 Mn12 Ti12 51_656 . 0
Li12 Mn12 Ti12 51_656 50_555 120
Li12 Mn12 Ti12 51_656 98_665 60
Li12 Mn12 Ti12 51_656 51_656 0.0(5)
Li12 Mn12 Ti12 51_656 147_555 180.0(5)
Li12 Mn12 Ti12 51_656 100_555 120
Li12 Mn12 Ti12 51_656 148_566 60
Li12 Mn12 O1 51_656 50_555 138.059(7)
Li12 Mn12 O1 51_656 147_555 94.458(7)
Li12 Mn12 O1 51_656 100_555 138.059(7)
Li12 Mn12 O1 51_656 109_556 41.941(7)
Li12 Mn12 O1 51_656 63_565 85.542(7)
Li12 Mn12 O1 51_656 160_655 41.941(7)
Li12 Mn12 Li12 147_555 100_555 60
Li12 Mn12 Li12 147_555 148_566 120
Li12 Mn12 Ti12 147_555 . 0
Li12 Mn12 Ti12 147_555 50_555 60
Li12 Mn12 Ti12 147_555 98_665 120
Li12 Mn12 Ti12 147_555 51_656 180.0(5)
Li12 Mn12 Ti12 147_555 147_555 0.0(5)
Li12 Mn12 Ti12 147_555 100_555 60
Li12 Mn12 Ti12 147_555 148_566 120
Li12 Mn12 O1 147_555 50_555 41.941(7)
Li12 Mn12 O1 147_555 147_555 85.542(7)
Li12 Mn12 O1 147_555 100_555 41.941(7)
Li12 Mn12 O1 147_555 109_556 138.059(7)
Li12 Mn12 O1 147_555 63_565 94.458(7)
Li12 Mn12 O1 147_555 160_655 138.059(7)
Li12 Mn12 Li12 100_555 148_566 180.0(5)
Li12 Mn12 Ti12 100_555 . 0
Li12 Mn12 Ti12 100_555 50_555 60
Li12 Mn12 Ti12 100_555 98_665 120
Li12 Mn12 Ti12 100_555 51_656 120
Li12 Mn12 Ti12 100_555 147_555 60
Li12 Mn12 Ti12 100_555 100_555 0.0(5)
Li12 Mn12 Ti12 100_555 148_566 180.0(5)
Li12 Mn12 O1 100_555 50_555 41.941(7)
Li12 Mn12 O1 100_555 147_555 41.941(7)
Li12 Mn12 O1 100_555 100_555 85.542(7)
Li12 Mn12 O1 100_555 109_556 138.059(7)
Li12 Mn12 O1 100_555 63_565 138.059(7)
Li12 Mn12 O1 100_555 160_655 94.458(7)
Li12 Mn12 Ti12 148_566 . 0
Li12 Mn12 Ti12 148_566 50_555 120
Li12 Mn12 Ti12 148_566 98_665 60
Li12 Mn12 Ti12 148_566 51_656 60
Li12 Mn12 Ti12 148_566 147_555 120
Li12 Mn12 Ti12 148_566 100_555 180.0(5)
Li12 Mn12 Ti12 148_566 148_566 0.0(5)
Li12 Mn12 O1 148_566 50_555 138.059(7)
Li12 Mn12 O1 148_566 147_555 138.059(7)
Li12 Mn12 O1 148_566 100_555 94.458(7)
Li12 Mn12 O1 148_566 109_556 41.941(7)
Li12 Mn12 O1 148_566 63_565 41.941(7)
Li12 Mn12 O1 148_566 160_655 85.542(7)
Ti12 Mn12 Ti12 . 50_555 0
Ti12 Mn12 Ti12 . 98_665 0
Ti12 Mn12 Ti12 . 51_656 0
Ti12 Mn12 Ti12 . 147_555 0
Ti12 Mn12 Ti12 . 100_555 0
Ti12 Mn12 Ti12 . 148_566 0
Ti12 Mn12 O1 . 50_555 0
Ti12 Mn12 O1 . 147_555 0
Ti12 Mn12 O1 . 100_555 0
Ti12 Mn12 O1 . 109_556 0
Ti12 Mn12 O1 . 63_565 0
Ti12 Mn12 O1 . 160_655 0
Ti12 Mn12 Ti12 50_555 98_665 180.0(5)
Ti12 Mn12 Ti12 50_555 51_656 120
Ti12 Mn12 Ti12 50_555 147_555 60
Ti12 Mn12 Ti12 50_555 100_555 60
Ti12 Mn12 Ti12 50_555 148_566 120
Ti12 Mn12 O1 50_555 50_555 85.542(7)
Ti12 Mn12 O1 50_555 147_555 41.941(7)
Ti12 Mn12 O1 50_555 100_555 41.941(7)
Ti12 Mn12 O1 50_555 109_556 94.458(7)
Ti12 Mn12 O1 50_555 63_565 138.059(7)
Ti12 Mn12 O1 50_555 160_655 138.059(7)
Ti12 Mn12 Ti12 98_665 51_656 60
Ti12 Mn12 Ti12 98_665 147_555 120
Ti12 Mn12 Ti12 98_665 100_555 120
Ti12 Mn12 Ti12 98_665 148_566 60
Ti12 Mn12 O1 98_665 50_555 94.458(7)
Ti12 Mn12 O1 98_665 147_555 138.059(7)
Ti12 Mn12 O1 98_665 100_555 138.059(7)
Ti12 Mn12 O1 98_665 109_556 85.542(7)
Ti12 Mn12 O1 98_665 63_565 41.941(7)
Ti12 Mn12 O1 98_665 160_655 41.941(7)
Ti12 Mn12 Ti12 51_656 147_555 180.0(5)
Ti12 Mn12 Ti12 51_656 100_555 120
Ti12 Mn12 Ti12 51_656 148_566 60
Ti12 Mn12 O1 51_656 50_555 138.059(7)
Ti12 Mn12 O1 51_656 147_555 94.458(7)
Ti12 Mn12 O1 51_656 100_555 138.059(7)
Ti12 Mn12 O1 51_656 109_556 41.941(7)
Ti12 Mn12 O1 51_656 63_565 85.542(7)
Ti12 Mn12 O1 51_656 160_655 41.941(7)
Ti12 Mn12 Ti12 147_555 100_555 60
Ti12 Mn12 Ti12 147_555 148_566 120
Ti12 Mn12 O1 147_555 50_555 41.941(7)
Ti12 Mn12 O1 147_555 147_555 85.542(7)
Ti12 Mn12 O1 147_555 100_555 41.941(7)
Ti12 Mn12 O1 147_555 109_556 138.059(7)
Ti12 Mn12 O1 147_555 63_565 94.458(7)
Ti12 Mn12 O1 147_555 160_655 138.059(7)
Ti12 Mn12 Ti12 100_555 148_566 180.0(5)
Ti12 Mn12 O1 100_555 50_555 41.941(7)
Ti12 Mn12 O1 100_555 147_555 41.941(7)
Ti12 Mn12 O1 100_555 100_555 85.542(7)
Ti12 Mn12 O1 100_555 109_556 138.059(7)
Ti12 Mn12 O1 100_555 63_565 138.059(7)
Ti12 Mn12 O1 100_555 160_655 94.458(7)
Ti12 Mn12 O1 148_566 50_555 138.059(7)
Ti12 Mn12 O1 148_566 147_555 138.059(7)
Ti12 Mn12 O1 148_566 100_555 94.458(7)
Ti12 Mn12 O1 148_566 109_556 41.941(7)
Ti12 Mn12 O1 148_566 63_565 41.941(7)
Ti12 Mn12 O1 148_566 160_655 85.542(7)
O1 Mn12 O1 50_555 147_555 83.535(10)
O1 Mn12 O1 50_555 100_555 83.535(10)
O1 Mn12 O1 50_555 109_556 180.0(5)
O1 Mn12 O1 50_555 63_565 96.465(10)
O1 Mn12 O1 50_555 160_655 96.465(10)
O1 Mn12 O1 147_555 100_555 83.535(10)
O1 Mn12 O1 147_555 109_556 96.465(10)
O1 Mn12 O1 147_555 63_565 180.0(5)
O1 Mn12 O1 147_555 160_655 96.465(10)
O1 Mn12 O1 100_555 109_556 96.465(10)
O1 Mn12 O1 100_555 63_565 96.465(10)
O1 Mn12 O1 100_555 160_655 180.0(5)
O1 Mn12 O1 109_556 63_565 83.535(10)
O1 Mn12 O1 109_556 160_655 83.535(10)
O1 Mn12 O1 63_565 160_655 83.535(10)
Li11 O1 Ti11 . . 0.0(5)
Li11 O1 Li12 . 50_555 120.807(13)
Li11 O1 Li12 . 147_555 120.807(13)
Li11 O1 Li12 . 100_555 120.807(13)
Li11 O1 Ti12 . 50_555 120.807(13)
Li11 O1 Ti12 . 147_555 120.807(13)
Li11 O1 Ti12 . 100_555 120.807(13)
Li11 O1 Mn12 . 50_555 120.807(13)
Li11 O1 Mn12 . 147_555 120.807(13)
Li11 O1 Mn12 . 100_555 120.807(13)
Li11 O1 Mn11 . . 0.0(5)
Ti11 O1 Li12 . 50_555 120.807(13)
Ti11 O1 Li12 . 147_555 120.807(13)
Ti11 O1 Li12 . 100_555 120.807(13)
Ti11 O1 Ti12 . 50_555 120.807(13)
Ti11 O1 Ti12 . 147_555 120.807(13)
Ti11 O1 Ti12 . 100_555 120.807(13)
Ti11 O1 Mn12 . 50_555 120.807(13)
Ti11 O1 Mn12 . 147_555 120.807(13)
Ti11 O1 Mn12 . 100_555 120.807(13)
Ti11 O1 Mn11 . . 0.0(5)
Li12 O1 Li12 50_555 147_555 96.117(11)
Li12 O1 Li12 50_555 100_555 96.117(11)
Li12 O1 Ti12 50_555 50_555 0.0(5)
Li12 O1 Ti12 50_555 147_555 96.117(11)
Li12 O1 Ti12 50_555 100_555 96.117(11)
Li12 O1 Mn12 50_555 50_555 0.0(5)
Li12 O1 Mn12 50_555 147_555 96.117(11)
Li12 O1 Mn12 50_555 100_555 96.117(11)
Li12 O1 Mn11 50_555 . 120.807(13)
Li12 O1 Li12 147_555 100_555 96.117(11)
Li12 O1 Ti12 147_555 50_555 96.117(11)
Li12 O1 Ti12 147_555 147_555 0.0(5)
Li12 O1 Ti12 147_555 100_555 96.117(11)
Li12 O1 Mn12 147_555 50_555 96.117(11)
Li12 O1 Mn12 147_555 147_555 0.0(5)
Li12 O1 Mn12 147_555 100_555 96.117(11)
Li12 O1 Mn11 147_555 . 120.807(13)
Li12 O1 Ti12 100_555 50_555 96.117(11)
Li12 O1 Ti12 100_555 147_555 96.117(11)
Li12 O1 Ti12 100_555 100_555 0.0(5)
Li12 O1 Mn12 100_555 50_555 96.117(11)
Li12 O1 Mn12 100_555 147_555 96.117(11)
Li12 O1 Mn12 100_555 100_555 0.0(5)
Li12 O1 Mn11 100_555 . 120.807(13)
Ti12 O1 Ti12 50_555 147_555 96.117(11)
Ti12 O1 Ti12 50_555 100_555 96.117(11)
Ti12 O1 Mn12 50_555 50_555 0.0(5)
Ti12 O1 Mn12 50_555 147_555 96.117(11)
Ti12 O1 Mn12 50_555 100_555 96.117(11)
Ti12 O1 Mn11 50_555 . 120.807(13)
Ti12 O1 Ti12 147_555 100_555 96.117(11)
Ti12 O1 Mn12 147_555 50_555 96.117(11)
Ti12 O1 Mn12 147_555 147_555 0.0(5)
Ti12 O1 Mn12 147_555 100_555 96.117(11)
Ti12 O1 Mn11 147_555 . 120.807(13)
Ti12 O1 Mn12 100_555 50_555 96.117(11)
Ti12 O1 Mn12 100_555 147_555 96.117(11)
Ti12 O1 Mn12 100_555 100_555 0.0(5)
Ti12 O1 Mn11 100_555 . 120.807(13)
Mn12 O1 Mn12 50_555 147_555 96.117(11)
Mn12 O1 Mn12 50_555 100_555 96.117(11)
Mn12 O1 Mn11 50_555 . 120.807(13)
Mn12 O1 Mn12 147_555 100_555 96.117(11)
Mn12 O1 Mn11 147_555 . 120.807(13)
Mn12 O1 Mn11 100_555 . 120.807(13)
Li11 Mn11 Ti11 . . 0
Li11 Mn11 O1 . . 0
Li11 Mn11 O1 . 98_555 0
Li11 Mn11 O1 . 51_555 0
Li11 Mn11 O1 . 148_555 0
Ti11 Mn11 O1 . . 0
Ti11 Mn11 O1 . 98_555 0
Ti11 Mn11 O1 . 51_555 0
Ti11 Mn11 O1 . 148_555 0
O1 Mn11 O1 . 98_555 109.471(10)
O1 Mn11 O1 . 51_555 109.471(10)
O1 Mn11 O1 . 148_555 109.471(10)
O1 Mn11 O1 98_555 51_555 109.471(10)
O1 Mn11 O1 98_555 148_555 109.471(10)
O1 Mn11 O1 51_555 148_555 109.471(10)
loop_
_geom_bond_atom_site_label_1
_geom_bond_atom_site_label_2
_geom_bond_site_symmetry_2
_geom_bond_distance
Li11 Ti11 . 0
Li11 O1 . 2.0041(3)
Li11 O1 98_555 2.0041(3)
Li11 O1 51_555 2.0041(3)
Li11 O1 148_555 2.0041(3)
Li11 Mn11 . 0
Ti11 O1 . 2.0041(3)
Ti11 O1 98_555 2.0041(3)
Ti11 O1 51_555 2.0041(3)
Ti11 O1 148_555 2.0041(3)
Ti11 Mn11 . 0
Li12 Li12 50_555 2.9631
Li12 Li12 98_665 2.9631
Li12 Li12 51_656 2.9631
Li12 Li12 147_555 2.9631
Li12 Li12 100_555 2.9631
Li12 Li12 148_566 2.9631
Li12 Ti12 . 0
Li12 Ti12 50_555 2.9631
Li12 Ti12 98_665 2.9631
Li12 Ti12 51_656 2.9631
Li12 Ti12 147_555 2.9631
Li12 Ti12 100_555 2.9631
Li12 Ti12 148_566 2.9631
Li12 Mn12 . 0
Li12 Mn12 50_555 2.9631
Li12 Mn12 98_665 2.9631
Li12 Mn12 51_656 2.9631
Li12 Mn12 147_555 2.9631
Li12 Mn12 100_555 2.9631
Li12 Mn12 148_566 2.9631
Li12 O1 50_555 1.9918(3)
Li12 O1 147_555 1.9918(3)
Li12 O1 100_555 1.9918(3)
Li12 O1 109_556 1.9918(3)
Li12 O1 63_565 1.9918(3)
Li12 O1 160_655 1.9918(3)
Ti12 Ti12 50_555 2.9631
Ti12 Ti12 98_665 2.9631
Ti12 Ti12 51_656 2.9631
Ti12 Ti12 147_555 2.9631
Ti12 Ti12 100_555 2.9631
Ti12 Ti12 148_566 2.9631
Ti12 Mn12 . 0
Ti12 Mn12 50_555 2.9631
Ti12 Mn12 98_665 2.9631
Ti12 Mn12 51_656 2.9631
Ti12 Mn12 147_555 2.9631
Ti12 Mn12 100_555 2.9631
Ti12 Mn12 148_566 2.9631
Ti12 O1 50_555 1.9918(3)
Ti12 O1 147_555 1.9918(3)
Ti12 O1 100_555 1.9918(3)
Ti12 O1 109_556 1.9918(3)
Ti12 O1 63_565 1.9918(3)
Ti12 O1 160_655 1.9918(3)
Mn12 O1 50_555 1.9918(3)
Mn12 O1 147_555 1.9918(3)
Mn12 O1 100_555 1.9918(3)
Mn12 O1 109_556 1.9918(3)
Mn12 O1 63_565 1.9918(3)
Mn12 O1 160_655 1.9918(3)
O1 Mn11 . 2.0041(3)
loop_
_pd_proc_point_id
_pd_proc_2theta_corrected
_pd_proc_intensity_net
_pd_calc_intensity_net
_pd_proc_ls_weight
13 2.1844 15702.30 15458.80 136.80
14 2.1882 15143.60 15448.00 136.40
15 2.1920 15815.40 15437.30 145.20
16 2.1957 15181.80 15426.60 143.60
17 2.1995 15730.00 15415.90 148.80
18 2.2032 15281.50 15405.20 146.60
19 2.2070 15636.10 15394.50 149.00
20 2.2107 15351.10 15383.80 148.10
21 2.2145 15440.00 15373.20 146.20
22 2.2182 15115.60 15362.60 146.90
23 2.2220 15324.10 15352.00 146.40
24 2.2257 15187.90 15341.40 146.20
25 2.2295 15705.30 15330.90 149.40
26 2.2333 15014.00 15320.30 145.80
27 2.2370 15271.90 15309.80 147.40
28 2.2408 15129.20 15299.30 147.30
29 2.2445 15536.20 15288.80 148.20
30 2.2483 14787.50 15278.30 143.70
31 2.2520 15404.60 15267.90 147.50
32 2.2558 15140.20 15257.50 146.70
33 2.2595 15390.30 15247.00 150.00
34 2.2633 14889.80 15236.70 145.70
35 2.2671 15174.90 15226.30 145.10
36 2.2708 14988.60 15215.90 145.30
37 2.2745 15202.30 15205.60 147.90
38 2.2783 15071.40 15195.30 147.50
39 2.2821 15313.10 15185.00 148.70
40 2.2858 14716.80 15174.70 144.40
41 2.2896 15217.50 15164.40 147.60
42 2.2933 14804.60 15154.20 143.70
43 2.2971 15328.70 15144.00 147.80
44 2.3008 14804.40 15133.70 143.10
45 2.3046 15269.90 15123.60 148.40
46 2.3083 14908.50 15113.40 143.70
47 2.3121 15196.40 15103.20 147.30
48 2.3159 14629.70 15093.10 143.90
49 2.3196 15188.80 15083.00 145.50
50 2.3234 14663.30 15072.90 144.70
51 2.3271 15066.90 15062.80 145.70
52 2.3309 14606.20 15052.80 143.90
53 2.3346 15040.90 15042.70 144.70
54 2.3384 14703.20 15032.70 144.90
55 2.3421 15076.40 15022.70 145.80
56 2.3459 14758.20 15012.70 143.10
57 2.3496 15175.90 15002.70 148.90
58 2.3534 14476.90 14992.80 143.10
59 2.3572 14904.20 14982.80 144.90
60 2.3609 14998.30 14972.90 146.40
61 2.3647 15099.40 14963.00 147.60
62 2.3684 14577.80 14953.10 144.30
63 2.3722 14829.90 14943.20 145.30
64 2.3759 14514.50 14933.40 142.30
65 2.3797 14964.30 14923.50 145.30
66 2.3834 14621.30 14913.70 142.40
67 2.3872 14813.70 14903.90 144.60
68 2.3909 14821.40 14894.20 146.10
69 2.3947 14800.70 14884.40 143.70
70 2.3985 14637.50 14874.70 143.90
71 2.4022 14900.00 14864.90 145.00
72 2.4060 14435.20 14855.20 142.50
73 2.4097 14746.10 14845.50 143.70
74 2.4135 14384.10 14835.90 142.90
75 2.4172 15077.80 14826.20 146.30
76 2.4210 14633.50 14816.60 144.10
77 2.4248 14745.70 14806.90 143.60
78 2.4285 14417.20 14797.40 142.40
79 2.4323 14715.90 14787.80 145.00
80 2.4360 14469.60 14778.20 143.40
81 2.4398 14872.20 14768.60 143.90
82 2.4435 14443.10 14759.10 142.80
83 2.4473 14697.40 14749.60 142.70
84 2.4510 14433.20 14740.10 142.80
85 2.4548 14846.40 14730.60 145.80
86 2.4585 14383.10 14721.10 140.80
87 2.4623 14371.90 14711.70 143.60
88 2.4661 14357.70 14702.20 140.90
89 2.4698 14877.20 14692.80 145.70
90 2.4736 14324.90 14683.40 141.10
91 2.4773 14581.70 14674.10 142.90
92 2.4811 14326.90 14664.70 143.10
93 2.4848 14587.90 14655.30 144.40
94 2.4886 14250.20 14646.00 143.00
95 2.4924 14714.60 14636.70 145.50
96 2.4961 14408.80 14627.40 143.10
97 2.4999 14480.80 14618.10 144.00
98 2.5036 14085.10 14608.90 140.80
99 2.5074 14411.40 14599.60 143.30
100 2.5111 14206.70 14590.40 141.40
101 2.5149 14674.80 14581.20 145.00
102 2.5186 14396.20 14572.00 142.10
103 2.5224 14590.30 14562.80 144.10
104 2.5261 14320.30 14553.60 143.60
105 2.5299 14504.10 14544.50 143.70
106 2.5337 14311.20 14535.30 142.00
107 2.5374 14582.60 14526.20 144.10
108 2.5412 14015.80 14517.10 142.10
109 2.5449 14262.70 14508.00 142.00
110 2.5487 14005.20 14499.00 140.10
111 2.5524 14533.70 14489.90 142.70
112 2.5562 14202.20 14480.90 143.20
113 2.5600 14444.30 14471.90 143.30
114 2.5637 14091.60 14462.90 141.10
115 2.5675 14458.00 14453.90 143.30
116 2.5712 14197.80 14444.90 141.60
117 2.5750 14596.80 14436.00 143.40
118 2.5787 14186.30 14427.10 141.90
119 2.5825 14480.20 14418.10 145.00
120 2.5862 13888.30 14409.20 141.20
121 2.5900 14353.60 14400.30 142.60
122 2.5938 14218.90 14391.50 143.20
123 2.5975 14508.10 14382.60 142.70
124 2.6013 13906.20 14373.80 138.90
125 2.6050 14567.90 14365.00 144.60
126 2.6088 14130.80 14356.20 142.00
127 2.6125 14727.30 14347.40 144.90
128 2.6163 13950.20 14338.60 140.30
129 2.6200 14486.70 14329.80 143.60
130 2.6238 14232.30 14321.10 142.60
131 2.6276 14248.30 14312.40 141.90
132 2.6313 13909.20 14303.70 140.00
133 2.6351 14183.30 14295.00 140.20
134 2.6388 14155.60 14286.30 141.10
135 2.6426 14259.90 14277.60 142.20
136 2.6463 13822.30 14269.00 138.30
137 2.6501 14246.20 14260.30 141.90
138 2.6539 14057.90 14251.70 141.50
139 2.6576 14468.60 14243.10 143.80
140 2.6614 13842.40 14234.50 141.90
141 2.6651 14366.00 14226.00 145.30
142 2.6689 14025.60 14217.40 141.50
143 2.6726 14347.90 14208.90 145.50
144 2.6764 14065.60 14200.40 143.20
145 2.6802 14102.10 14191.90 143.80
146 2.6839 13681.30 14183.40 140.90
147 2.6877 14442.60 14174.90 147.10
148 2.6914 13762.60 14166.40 139.10
149 2.6952 14126.80 14158.00 142.60
150 2.6989 13737.20 14149.60 142.10
151 2.7027 14110.90 14141.10 143.60
152 2.7064 13882.70 14132.80 142.40
153 2.7102 14239.30 14124.40 140.00
154 2.7140 13799.50 14116.00 142.20
155 2.7177 14300.60 14107.70 145.90
156 2.7215 13765.60 14099.30 140.80
157 2.7252 14043.30 14091.00 143.60
158 2.7290 13723.50 14082.70 142.70
159 2.7327 14210.60 14074.40 140.60
160 2.7365 14115.50 14066.10 143.30
161 2.7403 14116.60 14057.90 144.20
162 2.7440 13721.40 14049.60 141.00
163 2.7478 13970.70 14041.40 140.30
164 2.7515 13770.10 14033.20 142.40
165 2.7553 14124.40 14025.00 143.60
166 2.7590 13841.80 14016.80 141.20
167 2.7628 14033.90 14008.60 143.90
168 2.7666 13796.90 14000.40 141.50
169 2.7703 13989.40 13992.30 143.00
170 2.7741 13694.20 13984.20 141.30
171 2.7778 14180.90 13976.10 144.90
172 2.7816 13743.80 13967.90 142.10
173 2.7853 14128.70 13959.90 145.30
174 2.7891 13782.40 13951.80 141.30
175 2.7929 14051.90 13943.80 142.40
176 2.7966 13466.70 13935.70 139.20
177 2.8004 13992.60 13927.70 140.90
178 2.8041 13483.30 13919.70 141.20
179 2.8079 14055.80 13911.70 145.40
180 2.8116 13555.60 13903.70 140.70
181 2.8154 14042.80 13895.70 141.90
182 2.8191 13667.30 13887.80 140.40
183 2.8229 13988.50 13879.90 142.20
184 2.8267 13638.50 13871.90 139.20
185 2.8304 13927.70 13864.00 141.70
186 2.8342 13592.00 13856.10 140.10
187 2.8379 13790.40 13848.30 139.80
188 2.8417 13489.20 13840.40 139.20
189 2.8454 13916.30 13832.50 141.80
190 2.8492 13476.60 13824.70 139.20
191 2.8530 13856.20 13816.90 139.40
192 2.8567 13726.00 13809.10 140.80
193 2.8605 13804.70 13801.30 139.80
194 2.8642 13397.90 13793.50 138.70
195 2.8680 13846.10 13785.80 140.90
196 2.8718 13396.80 13778.00 136.20
197 2.8755 13770.00 13770.30 140.70
198 2.8793 13357.70 13762.60 138.70
199 2.8830 13684.00 13754.80 138.60
200 2.8868 13388.70 13747.10 138.90
201 2.8905 13664.40 13739.50 136.70
202 2.8943 13517.30 13731.80 139.50
203 2.8981 13799.60 13724.20 139.50
204 2.9018 13414.70 13716.50 136.20
205 2.9056 13782.90 13708.90 140.50
206 2.9093 13393.30 13701.30 137.60
207 2.9131 13819.80 13693.70 141.30
208 2.9168 13446.90 13686.10 138.80
209 2.9206 13592.20 13678.60 138.60
210 2.9244 13565.60 13671.00 138.50
211 2.9281 13612.70 13663.50 140.70
212 2.9319 13416.00 13655.90 138.00
213 2.9356 13912.40 13648.40 143.10
214 2.9394 13317.70 13640.90 139.80
215 2.9431 13771.70 13633.40 140.10
216 2.9469 13180.10 13626.00 136.70
217 2.9506 13699.20 13618.50 139.90
218 2.9544 13336.60 13611.10 137.30
219 2.9582 13610.30 13603.60 139.70
220 2.9619 13177.10 13596.20 135.10
221 2.9657 13698.20 13588.80 141.50
222 2.9694 13441.30 13581.50 140.10
223 2.9732 13523.60 13574.10 140.00
224 2.9770 13206.30 13566.70 137.00
225 2.9807 13608.20 13559.40 139.10
226 2.9845 12966.60 13552.00 135.40
227 2.9882 13564.30 13544.70 138.80
228 2.9920 12983.20 13537.40 135.50
229 2.9957 13627.20 13530.10 138.50
230 2.9995 13262.40 13522.80 137.20
231 3.0033 13582.90 13515.60 137.40
232 3.0070 13084.80 13508.30 136.70
233 3.0108 13501.40 13501.10 138.90
234 3.0145 12945.30 13493.90 134.40
235 3.0183 13515.50 13486.60 139.10
236 3.0220 13112.20 13479.40 136.50
237 3.0258 13331.80 13472.30 138.20
238 3.0296 12992.40 13465.10 134.90
239 3.0333 13641.60 13457.90 139.30
240 3.0371 13236.90 13450.80 138.80
241 3.0408 13168.80 13443.60 134.50
242 3.0446 13157.60 13436.50 137.60
243 3.0484 13730.30 13429.40 141.40
244 3.0521 13201.60 13422.30 137.50
245 3.0559 13321.00 13415.20 138.00
246 3.0596 13188.30 13408.20 137.10
247 3.0634 13845.20 13401.10 141.00
248 3.0671 13169.80 13394.10 137.00
249 3.0709 13502.50 13387.10 138.20
250 3.0747 13213.10 13380.00 137.80
251 3.0784 13446.20 13373.00 138.00
252 3.0822 13021.10 13366.00 137.30
253 3.0859 13521.90 13359.10 138.70
254 3.0897 13225.90 13352.10 138.00
255 3.0935 13308.60 13345.20 137.50
256 3.0972 13055.30 13338.20 136.90
257 3.1010 13384.80 13331.30 135.00
258 3.1047 13098.70 13324.40 135.20
259 3.1085 13379.40 13317.50 139.40
260 3.1122 13027.60 13310.60 137.90
261 3.1160 13501.60 13303.70 138.10
262 3.1198 13002.10 13296.90 135.30
263 3.1235 13531.90 13290.00 138.00
264 3.1273 13098.70 13283.20 135.00
265 3.1310 13499.40 13276.40 138.30
266 3.1348 13040.60 13269.50 137.50
267 3.1386 13272.20 13262.70 138.40
268 3.1423 13229.60 13256.00 138.30
269 3.1461 13433.20 13249.20 141.20
270 3.1498 13117.80 13242.40 137.80
271 3.1536 13128.90 13235.70 137.90
272 3.1573 12916.00 13228.90 136.40
273 3.1611 13328.80 13222.20 137.70
274 3.1649 13241.30 13215.50 136.00
275 3.1686 13377.60 13208.80 139.10
276 3.1724 13120.50 13202.10 135.20
277 3.1761 13529.60 13195.50 140.30
278 3.1799 12958.20 13188.80 132.90
279 3.1837 13473.00 13182.10 139.90
280 3.1874 13088.10 13175.50 139.00
281 3.1912 13433.30 13168.90 138.50
282 3.1949 12886.40 13162.30 135.40
283 3.1987 13407.90 13155.70 141.00
284 3.2024 12996.90 13149.10 136.70
285 3.2062 13303.70 13142.50 139.50
286 3.2100 13225.70 13135.90 138.20
287 3.2137 13081.00 13129.40 136.30
288 3.2175 13056.50 13122.90 136.20
289 3.2212 13202.60 13116.30 136.80
290 3.2250 12947.30 13109.80 136.80
291 3.2287 13239.40 13103.30 138.90
292 3.2325 12932.30 13096.80 137.10
293 3.2363 13379.80 13090.40 139.50
294 3.2400 12944.00 13083.90 136.40
295 3.2438 13261.10 13077.40 138.30
296 3.2475 12700.00 13071.00 134.50
297 3.2513 13366.00 13064.50 140.20
298 3.2551 12998.70 13058.10 137.50
299 3.2588 13245.00 13051.70 138.50
300 3.2626 12813.10 13045.30 137.30
301 3.2663 13453.80 13039.00 140.80
302 3.2701 12716.90 13032.60 136.80
303 3.2738 13386.00 13026.20 139.70
304 3.2776 12906.40 13019.90 138.00
305 3.2814 13181.30 13013.50 134.80
306 3.2851 12850.10 13007.20 135.30
307 3.2889 13265.90 13000.90 138.60
308 3.2926 12988.50 12994.60 136.30
309 3.2964 13231.30 12988.30 138.60
310 3.3002 12862.80 12982.00 136.70
311 3.3039 13257.00 12975.80 138.30
312 3.3077 12653.00 12969.50 133.50
313 3.3114 13503.90 12963.30 140.60
314 3.3152 12610.60 12957.00 135.00
315 3.3190 13072.90 12950.80 137.20
316 3.3227 12811.50 12944.60 136.70
317 3.3265 13154.70 12938.40 137.30
318 3.3302 12942.50 12932.20 136.30
319 3.3340 13312.30 12926.10 139.10
320 3.3377 12964.70 12919.90 138.30
321 3.3415 13324.50 12913.70 138.40
322 3.3453 12836.20 12907.60 138.10
323 3.3490 13141.70 12901.50 136.90
324 3.3528 12975.10 12895.40 138.10
325 3.3565 12995.60 12889.30 135.40
326 3.3603 13134.00 12883.20 138.70
327 3.3641 13186.20 12877.10 136.30
328 3.3678 12942.10 12871.00 136.90
329 3.3716 13271.30 12865.00 139.10
330 3.3753 12906.40 12858.90 136.40
331 3.3791 13191.30 12852.90 138.00
332 3.3829 12643.10 12846.80 136.30
333 3.3866 13049.30 12840.80 136.70
334 3.3904 12634.30 12834.80 135.10
335 3.3941 13276.90 12828.80 140.40
336 3.3979 12842.60 12822.90 136.40
337 3.4016 13109.90 12816.90 137.80
338 3.4054 12838.40 12810.90 137.00
339 3.4092 13121.80 12805.00 139.50
340 3.4129 12768.90 12799.00 136.20
341 3.4167 13064.00 12793.10 137.90
342 3.4204 12565.90 12787.20 133.50
343 3.4242 13030.00 12781.30 134.70
344 3.4280 12801.00 12775.40 135.50
345 3.4317 13113.90 12769.50 140.10
346 3.4355 12780.30 12763.60 134.00
347 3.4392 12952.30 12757.80 136.20
348 3.4430 12860.20 12751.90 137.20
349 3.4468 13151.20 12746.10 138.90
350 3.4505 12825.90 12740.30 137.20
351 3.4543 13122.30 12734.50 139.10
352 3.4580 12710.30 12728.60 136.20
353 3.4618 13037.10 12722.90 138.50
354 3.4656 12794.90 12717.10 136.10
355 3.4693 13219.50 12711.30 139.80
356 3.4731 12914.20 12705.50 135.90
357 3.4768 12890.50 12699.80 136.60
358 3.4806 12695.60 12694.00 136.50
359 3.4843 12972.80 12688.30 136.90
360 3.4881 12781.50 12682.60 136.50
361 3.4919 12975.70 12676.90 137.60
362 3.4956 12678.00 12671.20 137.80
363 3.4994 12912.70 12665.50 137.50
364 3.5031 12674.90 12659.80 136.10
365 3.5069 13152.00 12654.10 139.70
366 3.5107 12841.70 12648.50 136.70
367 3.5144 13208.60 12642.80 140.50
368 3.5182 12742.30 12637.20 137.30
369 3.5219 13198.80 12631.60 138.50
370 3.5257 12520.10 12626.00 134.70
371 3.5295 13089.30 12620.40 140.30
372 3.5332 12808.60 12614.80 135.20
373 3.5370 13181.30 12609.20 138.10
374 3.5407 12379.60 12603.60 132.60
375 3.5445 13166.30 12598.00 138.60
376 3.5483 12614.20 12592.50 134.40
377 3.5520 12848.30 12586.90 137.20
378 3.5558 12867.90 12581.40 136.70
379 3.5595 13008.40 12575.90 138.00
380 3.5633 12779.90 12570.40 135.70
381 3.5671 12893.30 12564.90 138.00
382 3.5708 12840.20 12559.40 138.50
383 3.5746 12915.00 12553.90 135.90
384 3.5783 12598.20 12548.40 134.30
385 3.5821 13129.80 12543.00 141.90
386 3.5859 12727.00 12537.50 135.00
387 3.5896 13056.10 12532.10 137.20
388 3.5934 12566.80 12526.70 135.70
389 3.5971 12800.80 12521.20 136.20
390 3.6009 12660.50 12515.80 136.80
391 3.6047 13028.50 12510.40 140.10
392 3.6084 12797.10 12505.00 138.50
393 3.6122 13139.60 12499.70 138.70
394 3.6159 12473.30 12494.30 135.00
395 3.6197 13239.60 12488.90 140.90
396 3.6235 12923.10 12483.60 140.50
397 3.6272 12907.90 12478.20 137.50
398 3.6310 12631.20 12472.90 134.90
399 3.6347 12788.00 12467.60 136.50
400 3.6385 12755.80 12462.30 134.40
401 3.6423 12929.90 12457.00 134.60
402 3.6460 12542.00 12451.70 131.60
403 3.6498 12942.20 12446.40 136.70
404 3.6535 12908.90 12441.10 135.70
405 3.6573 13204.90 12435.90 137.60
406 3.6610 12659.10 12430.60 133.80
407 3.6648 13096.20 12425.40 137.10
408 3.6686 12603.40 12420.20 135.90
409 3.6723 13124.00 12414.90 137.20
410 3.6761 12545.20 12409.70 133.60
411 3.6798 12909.30 12404.50 135.10
412 3.6836 12470.90 12399.30 134.50
413 3.6874 13066.90 12394.10 132.70
414 3.6911 12705.80 12389.00 134.50
415 3.6949 13042.50 12383.80 137.70
416 3.6986 12473.40 12378.60 132.50
417 3.7024 12869.30 12373.50 136.00
418 3.7062 12808.20 12368.40 137.30
419 3.7099 13135.90 12363.20 138.60
420 3.7137 12690.30 12358.10 134.80
421 3.7174 13065.70 12353.00 137.70
422 3.7212 12787.60 12347.90 136.60
423 3.7250 12945.90 12342.80 138.30
424 3.7287 12595.90 12337.70 134.20
425 3.7325 13169.10 12332.70 139.60
426 3.7362 12568.00 12327.60 134.20
427 3.7400 12907.80 12322.60 134.50
428 3.7438 12578.70 12317.50 134.90
429 3.7475 12941.90 12312.50 135.60
430 3.7513 12548.10 12307.50 132.60
431 3.7550 12977.00 12302.50 136.40
432 3.7588 12911.30 12297.40 137.40
433 3.7626 13266.50 12292.40 138.70
434 3.7663 12744.20 12287.50 135.60
435 3.7701 13008.60 12282.50 137.70
436 3.7738 12769.00 12277.50 136.60
437 3.7776 12957.60 12272.60 136.60
438 3.7814 12553.60 12267.60 134.50
439 3.7851 12864.90 12262.70 136.70
440 3.7889 12538.70 12257.80 135.20
441 3.7926 12881.00 12252.80 136.80
442 3.7964 12645.60 12247.90 134.90
443 3.8002 12783.30 12243.00 135.00
444 3.8039 12278.80 12238.10 133.40
445 3.8077 12798.30 12233.20 135.40
446 3.8114 12640.30 12228.40 135.20
447 3.8152 12925.20 12223.50 136.70
448 3.8190 12591.50 12218.60 134.00
449 3.8227 12906.80 12213.80 137.90
450 3.8265 12483.90 12208.90 133.50
451 3.8302 12744.70 12204.10 134.10
452 3.8340 12423.30 12199.30 132.90
453 3.8378 12657.80 12194.50 136.90
454 3.8415 12261.90 12189.70 129.20
455 3.8453 12749.90 12184.90 134.80
456 3.8490 12325.00 12180.10 132.20
457 3.8528 12528.10 12175.30 133.10
458 3.8565 12259.20 12170.50 130.60
459 3.8603 12785.60 12165.80 136.20
460 3.8641 12611.70 12161.00 135.00
461 3.8678 12766.60 12156.30 135.50
462 3.8716 12308.10 12151.50 131.40
463 3.8753 12637.30 12146.80 135.10
464 3.8791 12365.80 12142.10 133.80
465 3.8829 12487.40 12137.40 133.50
466 3.8866 12220.80 12132.70 132.10
467 3.8904 12419.70 12128.00 132.10
468 3.8942 12321.70 12123.30 131.80
469 3.8979 12604.00 12118.70 135.20
470 3.9017 12137.70 12114.00 131.60
471 3.9054 12638.30 12109.30 135.50
472 3.9092 11994.10 12104.70 129.70
473 3.9130 12540.30 12100.10 133.10
474 3.9167 11985.80 12095.40 130.50
475 3.9205 12392.00 12090.80 133.90
476 3.9242 12271.10 12086.20 132.30
477 3.9280 12599.30 12081.60 133.10
478 3.9318 12170.60 12077.00 130.80
479 3.9355 12492.00 12072.40 131.60
480 3.9393 12180.20 12067.80 131.20
481 3.9430 12731.30 12063.20 136.10
482 3.9468 11993.00 12058.70 131.00
483 3.9506 12480.50 12054.10 133.50
484 3.9543 12133.70 12049.60 133.00
485 3.9581 12210.10 12045.10 132.10
486 3.9618 12164.80 12040.50 131.20
487 3.9656 12343.30 12036.00 131.80
488 3.9694 12277.70 12031.50 133.30
489 3.9731 12479.90 12027.00 133.40
490 3.9769 12123.40 12022.50 132.30
491 3.9806 12445.70 12018.00 131.90
492 3.9844 12136.80 12013.50 132.20
493 3.9882 12266.60 12009.10 131.90
494 3.9919 12196.90 12004.60 134.10
495 3.9957 12627.70 12000.10 135.50
496 3.9994 11837.80 11995.70 129.50
497 4.0032 12355.10 11991.30 132.00
498 4.0070 11890.80 11986.80 130.10
499 4.0107 12376.70 11982.40 133.50
500 4.0145 12053.60 11978.00 131.60
501 4.0182 12479.30 11973.60 135.60
502 4.0220 11959.10 11969.20 131.10
503 4.0258 12256.20 11964.80 133.80
504 4.0295 11941.30 11960.40 130.20
505 4.0333 12262.80 11956.00 133.10
506 4.0370 12215.10 11951.70 132.80
507 4.0408 12231.50 11947.30 131.90
508 4.0446 12060.80 11943.00 132.80
509 4.0483 12404.50 11938.60 133.30
510 4.0521 12130.40 11934.30 133.40
511 4.0558 12464.00 11930.00 134.80
512 4.0596 12052.30 11925.70 130.70
513 4.0634 12355.50 11921.30 131.70
514 4.0671 11800.20 11917.00 129.20
515 4.0709 12386.50 11912.80 134.30
516 4.0746 11979.80 11908.50 131.60
517 4.0784 12050.40 11904.20 131.40
518 4.0822 11970.20 11899.90 130.50
519 4.0859 12459.80 11895.70 131.90
520 4.0897 11835.10 11891.40 128.30
521 4.0935 12156.70 11887.10 132.00
522 4.0972 11922.50 11882.90 130.90
523 4.1010 12086.40 11878.70 132.30
524 4.1047 11944.20 11874.50 132.60
525 4.1085 12253.20 11870.20 130.90
526 4.1122 11912.50 11866.00 128.20
527 4.1160 12124.10 11861.80 129.00
528 4.1198 11909.90 11857.60 127.40
529 4.1235 12105.40 11853.50 127.70
530 4.1273 11880.30 11849.30 127.30
531 4.1311 12141.40 11845.10 128.30
532 4.1348 11937.60 11840.90 127.30
533 4.1386 12040.90 11836.80 126.90
534 4.1423 11780.50 11832.60 126.70
535 4.1461 12115.90 11828.50 129.10
536 4.1498 11677.20 11824.40 126.90
537 4.1536 12114.60 11820.20 128.90
538 4.1574 11788.20 11816.10 127.00
539 4.1611 12141.80 11812.00 128.70
540 4.1649 11860.50 11807.90 126.70
541 4.1687 11831.70 11803.80 126.70
542 4.1724 11877.00 11799.70 128.10
543 4.1762 12133.10 11795.70 128.70
544 4.1799 11912.10 11791.60 126.80
545 4.1837 12190.50 11787.50 129.00
546 4.1875 11901.60 11783.50 128.50
547 4.1912 12199.90 11779.40 130.50
548 4.1950 11737.10 11775.40 127.20
549 4.1987 11937.70 11771.30 126.40
550 4.2025 11839.40 11767.30 127.80
551 4.2063 11843.60 11763.30 127.00
552 4.2100 11734.50 11759.30 126.30
553 4.2138 12083.20 11755.30 130.00
554 4.2175 11644.00 11751.30 125.70
555 4.2213 12066.90 11747.30 128.80
556 4.2251 11882.30 11743.30 128.00
557 4.2288 12053.20 11739.30 128.80
558 4.2326 11695.90 11735.30 124.80
559 4.2363 11790.50 11731.40 126.90
560 4.2401 11551.00 11727.40 125.10
561 4.2439 12143.90 11723.50 129.50
562 4.2476 11805.20 11719.50 127.60
563 4.2514 11866.30 11715.60 127.20
564 4.2551 11584.80 11711.70 125.70
565 4.2589 11928.10 11707.80 128.70
566 4.2627 11671.80 11703.80 126.60
567 4.2664 12013.70 11699.90 128.60
568 4.2702 11702.10 11696.00 126.50
569 4.2740 11959.00 11692.10 127.80
570 4.2777 11768.70 11688.30 126.60
571 4.2815 11803.20 11684.40 126.10
572 4.2852 11484.40 11680.50 126.00
573 4.2890 12108.20 11676.60 128.90
574 4.2927 11794.70 11672.80 128.20
575 4.2965 11961.50 11668.90 127.20
576 4.3003 11896.30 11665.10 128.90
577 4.3040 12110.00 11661.30 130.10
578 4.3078 11665.30 11657.40 126.10
579 4.3116 11779.40 11653.60 127.30
580 4.3153 11750.00 11649.80 124.40
581 4.3191 11862.40 11646.00 126.20
582 4.3228 11526.20 11642.20 125.90
583 4.3266 11740.10 11638.40 126.60
584 4.3303 11537.50 11634.60 125.70
585 4.3341 11862.00 11630.80 127.00
586 4.3379 11503.20 11627.00 124.00
587 4.3416 11812.80 11623.30 127.70
588 4.3454 11674.80 11619.50 127.10
589 4.3492 11853.40 11615.80 127.40
590 4.3529 11643.00 11612.00 125.90
591 4.3567 12035.50 11608.30 128.50
592 4.3604 11438.90 11604.50 125.30
593 4.3642 11781.70 11600.80 128.20
594 4.3680 11647.10 11597.10 126.70
595 4.3717 11936.00 11593.40 129.00
596 4.3755 11526.90 11589.70 125.50
597 4.3792 11750.60 11586.00 127.50
598 4.3830 11492.70 11582.30 125.90
599 4.3868 11703.90 11578.60 126.50
600 4.3905 11537.30 11574.90 126.40
601 4.3943 11622.70 11571.20 126.70
602 4.3980 11323.30 11567.60 124.30
603 4.4018 11725.60 11563.90 126.30
604 4.4056 11494.10 11560.20 125.50
605 4.4093 11701.90 11556.60 127.00
606 4.4131 11463.20 11552.90 125.10
607 4.4169 11876.10 11549.30 128.30
608 4.4206 11166.90 11545.70 123.40
609 4.4244 11798.20 11542.10 127.30
610 4.4281 11478.80 11538.40 126.20
611 4.4319 11817.20 11534.80 127.30
612 4.4356 11376.50 11531.20 124.50
613 4.4394 11727.30 11527.60 127.90
614 4.4432 11274.50 11524.10 123.80
615 4.4469 11798.60 11520.50 127.30
616 4.4507 11459.00 11516.90 126.80
617 4.4545 11830.70 11513.30 128.00
618 4.4582 11406.90 11509.80 124.70
619 4.4620 11516.20 11506.20 125.50
620 4.4657 11378.50 11502.60 124.90
621 4.4695 11873.70 11499.10 128.70
622 4.4733 11473.20 11495.60 123.90
623 4.4770 11742.30 11492.00 127.60
624 4.4808 11504.40 11488.50 125.50
625 4.4845 11561.70 11485.00 126.40
626 4.4883 11331.10 11481.50 124.50
627 4.4921 11769.80 11477.90 127.20
628 4.4958 11336.40 11474.40 125.80
629 4.4996 11621.50 11471.00 124.40
630 4.5033 11351.50 11467.50 124.40
631 4.5071 11668.20 11464.00 126.90
632 4.5109 11387.00 11460.50 125.60
633 4.5146 11826.80 11457.00 127.00
634 4.5184 11268.00 11453.60 124.80
635 4.5221 11592.20 11450.10 125.80
636 4.5259 11303.60 11446.70 123.70
637 4.5297 11581.80 11443.20 125.90
638 4.5334 11303.20 11439.80 123.90
639 4.5372 11421.20 11436.30 123.30
640 4.5409 11212.80 11432.90 122.90
641 4.5447 11704.20 11429.50 127.40
642 4.5485 11243.20 11426.10 123.10
643 4.5522 11530.10 11422.60 125.20
644 4.5560 11327.70 11419.20 125.10
645 4.5598 11479.30 11415.80 127.30
646 4.5635 11425.00 11412.40 125.30
647 4.5673 11719.40 11409.10 127.20
648 4.5710 11088.40 11405.70 124.70
649 4.5748 11716.70 11402.30 126.60
650 4.5785 11413.10 11398.90 124.60
651 4.5823 11665.60 11395.60 127.40
652 4.5861 11271.00 11392.20 126.50
653 4.5898 11659.30 11388.90 127.20
654 4.5936 11191.60 11385.50 123.70
655 4.5974 11556.20 11382.20 124.70
656 4.6011 11245.50 11378.80 121.60
657 4.6049 11705.30 11375.50 126.90
658 4.6086 11038.30 11372.20 123.00
659 4.6124 11531.60 11368.90 126.40
660 4.6162 11058.70 11365.60 122.70
661 4.6199 11490.80 11362.20 124.50
662 4.6237 11413.70 11358.90 124.50
663 4.6274 11615.10 11355.70 126.40
664 4.6312 11364.00 11352.40 123.50
665 4.6350 11511.60 11349.10 124.40
666 4.6387 11304.40 11345.80 123.10
667 4.6425 11592.00 11342.50 125.70
668 4.6462 11250.20 11339.30 124.60
669 4.6500 11464.40 11336.00 125.10
670 4.6538 11210.60 11332.80 123.40
671 4.6575 11542.30 11329.50 125.00
672 4.6613 11485.30 11326.30 125.70
673 4.6651 11524.80 11323.00 126.20
674 4.6688 11451.00 11319.80 124.80
675 4.6726 11420.40 11316.60 125.00
676 4.6763 11198.00 11313.30 122.20
677 4.6801 11535.30 11310.10 125.40
678 4.6838 11164.40 11306.90 123.60
679 4.6876 11485.80 11303.70 126.20
680 4.6914 11324.30 11300.50 125.30
681 4.6951 11498.10 11297.30 125.90
682 4.6989 11345.10 11294.10 125.70
683 4.7027 11477.90 11291.00 123.90
684 4.7064 11427.50 11287.80 122.60
685 4.7102 11457.90 11284.60 125.80
686 4.7139 11211.20 11281.40 120.90
687 4.7177 11611.00 11278.30 127.00
688 4.7214 11103.40 11275.10 121.70
689 4.7290 11419.10 11268.80 125.40
690 4.7365 11366.80 11262.50 125.20
691 4.7403 11514.80 11259.40 126.80
692 4.7440 11241.20 11256.30 124.10
693 4.7478 11573.80 11253.20 126.70
694 4.7515 11196.90 11250.10 123.00
695 4.7553 11405.60 11247.00 125.60
696 4.7591 11126.10 11243.90 124.00
697 4.7628 11477.50 11240.80 125.80
698 4.7666 11336.30 11237.70 125.10
699 4.7703 11584.90 11234.60 126.60
700 4.7741 11026.40 11231.50 123.10
701 4.7779 11491.10 11228.40 126.40
702 4.7816 11056.00 11225.40 122.10
703 4.7854 11458.00 11222.30 125.00
704 4.7891 11071.50 11219.20 122.30
705 4.7929 11500.20 11216.20 126.50
706 4.7967 11200.10 11213.10 124.30
707 4.8004 11352.40 11210.10 126.50
708 4.8042 11001.40 11207.00 123.20
709 4.8080 11348.60 11204.00 126.30
710 4.8117 10987.90 11201.00 122.30
711 4.8155 11410.90 11197.90 125.10
712 4.8192 11157.20 11194.90 124.70
713 4.8230 11347.10 11191.90 125.10
714 4.8267 11096.80 11188.90 124.10
715 4.8305 11267.20 11185.90 126.30
716 4.8343 10956.00 11182.90 122.90
717 4.8380 11282.40 11179.90 123.80
718 4.8418 11082.30 11176.90 123.50
719 4.8456 11413.10 11173.90 125.50
720 4.8493 10926.40 11171.00 122.40
721 4.8531 11526.90 11168.00 126.40
722 4.8568 11080.00 11165.00 124.20
723 4.8606 11260.20 11162.00 124.30
724 4.8644 10990.40 11159.10 123.70
725 4.8681 11335.40 11156.10 124.70
726 4.8719 11131.50 11153.20 123.20
727 4.8756 11320.50 11150.20 123.60
728 4.8794 11189.60 11147.30 125.10
729 4.8832 11437.00 11144.40 124.70
730 4.8869 11116.20 11141.40 123.50
731 4.8907 11176.50 11138.50 124.50
732 4.8944 11154.40 11135.60 124.60
733 4.8982 11475.70 11132.70 125.80
734 4.9020 10925.90 11129.80 123.10
735 4.9057 11125.40 11126.90 122.80
736 4.9095 10937.60 11124.00 122.30
737 4.9132 11204.80 11121.10 122.50
738 4.9170 10969.10 11118.20 123.00
739 4.9208 11370.90 11115.30 124.90
740 4.9245 10859.60 11112.40 122.20
741 4.9283 11210.30 11109.50 125.10
742 4.9320 11031.30 11106.70 122.90
743 4.9358 11487.60 11103.80 126.30
744 4.9396 11039.60 11100.90 122.90
745 4.9433 11117.80 11098.10 124.00
746 4.9471 11154.20 11095.20 123.90
747 4.9509 11311.30 11092.40 124.60
748 4.9546 10999.30 11089.50 123.00
749 4.9584 11210.80 11086.70 124.90
750 4.9621 10835.80 11083.80 120.90
751 4.9659 11348.00 11081.00 124.30
752 4.9696 10915.70 11078.20 121.90
753 4.9734 11395.60 11075.40 124.70
754 4.9772 11085.60 11072.50 121.80
755 4.9809 10843.60 11069.70 121.90
756 4.9847 10807.20 11066.90 121.60
757 4.9885 11357.60 11064.10 125.70
758 4.9922 10967.70 11061.30 123.20
759 4.9960 11164.20 11058.50 124.20
760 4.9997 10701.40 11055.70 120.70
761 5.0035 11316.70 11053.00 126.10
762 5.0072 11136.60 11050.20 124.40
763 5.0110 11092.80 11047.40 124.20
764 5.0148 11097.00 11044.60 123.20
765 5.0185 11183.20 11041.90 124.70
766 5.0223 11032.60 11039.10 124.20
767 5.0261 11175.50 11036.30 124.80
768 5.0298 11074.50 11033.60 124.20
769 5.0336 11197.80 11030.80 124.70
770 5.0373 10900.60 11028.10 123.60
771 5.0411 11344.80 11025.30 126.90
772 5.0449 10748.10 11022.60 122.10
773 5.0486 11183.90 11019.90 123.50
774 5.0524 10967.80 11017.10 122.40
775 5.0561 11131.70 11014.40 123.00
776 5.0599 10858.50 11011.70 122.40
777 5.0637 11314.70 11009.00 125.20
778 5.0674 10763.40 11006.30 121.60
779 5.0712 11146.00 11003.60 125.20
780 5.0749 10924.30 11000.90 122.90
781 5.0787 11142.30 10998.20 124.50
782 5.0825 11034.30 10995.50 123.60
783 5.0862 11236.00 10992.80 122.90
784 5.0900 10850.30 10990.10 123.70
785 5.0937 11151.30 10987.40 124.80
786 5.0975 11006.00 10984.80 125.80
787 5.1013 11198.40 10982.10 124.30
788 5.1050 10809.50 10979.40 122.10
789 5.1088 11191.20 10976.80 125.30
790 5.1125 10992.90 10974.10 122.50
791 5.1163 11094.20 10971.40 124.70
792 5.1201 10937.20 10968.80 123.80
793 5.1238 11117.90 10966.10 125.80
794 5.1276 10912.70 10963.50 123.70
795 5.1314 10991.80 10960.90 123.00
796 5.1351 10808.10 10958.20 121.40
797 5.1389 10774.10 10955.60 122.20
798 5.1426 10833.30 10953.00 124.00
799 5.1464 11148.10 10950.30 125.50
800 5.1501 11060.30 10947.70 124.20
801 5.1539 11202.60 10945.10 124.90
802 5.1577 11046.30 10942.50 125.70
803 5.1614 11349.90 10939.90 127.60
804 5.1652 11062.30 10937.30 123.00
805 5.1690 11142.70 10934.70 125.90
806 5.1727 10734.00 10932.10 122.90
807 5.1765 11115.10 10929.50 125.60
808 5.1802 10812.80 10926.90 123.40
809 5.1840 11276.60 10924.30 127.60
810 5.1877 10754.70 10921.80 122.10
811 5.1915 11354.40 10919.20 128.40
812 5.1953 10738.00 10916.60 121.70
813 5.1990 11199.60 10914.10 124.70
814 5.2028 10932.90 10911.50 122.60
815 5.2066 11281.10 10908.90 126.60
816 5.2103 10785.80 10906.40 122.60
817 5.2141 11176.10 10903.80 125.60
818 5.2178 10827.00 10901.30 122.60
819 5.2216 11303.30 10898.70 126.90
820 5.2253 11013.30 10896.20 124.90
821 5.2291 11144.40 10893.70 122.70
822 5.2329 10962.80 10891.10 121.60
823 5.2366 11023.70 10888.60 124.70
824 5.2404 11015.10 10886.10 124.80
825 5.2442 11157.90 10883.60 123.70
826 5.2479 10800.40 10881.10 122.60
827 5.2517 11153.90 10878.50 125.80
828 5.2554 10765.80 10876.00 121.90
829 5.2592 11048.80 10873.50 124.20
830 5.2629 10845.30 10871.00 123.00
831 5.2667 10970.40 10868.50 123.70
832 5.2705 10640.40 10866.00 121.40
833 5.2742 11157.40 10863.60 124.80
834 5.2780 10714.60 10861.10 123.60
835 5.2818 11013.70 10858.60 121.20
836 5.2855 10676.00 10856.10 121.70
837 5.2893 11153.40 10853.60 125.20
838 5.2930 10831.50 10851.20 122.80
839 5.2968 10933.20 10848.70 121.70
840 5.3005 10620.50 10846.20 120.50
841 5.3043 11223.60 10843.80 125.50
842 5.3081 10744.40 10841.30 121.40
843 5.3118 11115.70 10838.90 123.70
844 5.3156 10875.60 10836.40 123.70
845 5.3193 11073.50 10834.00 122.20
846 5.3231 10652.50 10831.50 120.60
847 5.3269 10873.00 10829.10 123.40
848 5.3306 10777.60 10826.70 123.00
849 5.3344 11252.60 10824.20 126.30
850 5.3382 10811.50 10821.80 123.60
851 5.3419 10953.10 10819.40 123.00
852 5.3457 10847.50 10817.00 122.60
853 5.3494 11204.40 10814.50 125.80
854 5.3532 10910.00 10812.10 123.60
855 5.3569 11217.80 10809.70 125.00
856 5.3607 10887.60 10807.30 124.10
857 5.3645 11000.40 10804.90 124.90
858 5.3682 10919.60 10802.50 124.20
859 5.3720 10980.40 10800.10 124.50
860 5.3758 10747.70 10797.70 122.60
861 5.3795 11153.60 10795.30 123.40
862 5.3833 10781.60 10793.00 121.40
863 5.3870 10979.90 10790.60 126.20
864 5.3908 10633.60 10788.20 122.50
865 5.3945 10887.90 10785.80 122.90
866 5.3983 10725.90 10783.40 121.30
867 5.4021 10752.90 10781.10 120.70
868 5.4058 10576.20 10778.70 121.50
869 5.4096 11156.80 10776.40 126.20
870 5.4134 10833.80 10774.00 122.60
871 5.4171 11064.20 10771.60 124.70
872 5.4209 10600.30 10769.30 119.50
873 5.4246 10814.00 10766.90 119.50
874 5.4284 10512.70 10764.60 120.60
875 5.4321 10793.50 10762.30 122.00
876 5.4359 10626.10 10759.90 123.00
877 5.4397 10979.00 10757.60 122.60
878 5.4434 10866.70 10755.30 122.20
879 5.4472 11033.20 10752.90 124.70
880 5.4510 10527.10 10750.60 121.30
881 5.4547 11018.80 10748.30 124.50
882 5.4585 10633.20 10746.00 120.80
883 5.4622 11025.70 10743.60 124.70
884 5.4660 10856.60 10741.30 122.60
885 5.4697 10977.40 10739.00 122.40
886 5.4735 10718.00 10736.70 122.70
887 5.4773 10762.20 10734.40 122.10
888 5.4810 10563.00 10732.10 119.80
889 5.4848 10993.20 10729.80 126.00
890 5.4885 10695.90 10727.50 121.70
891 5.4923 10694.10 10725.20 120.40
892 5.4961 10699.60 10723.00 123.10
893 5.4998 10830.00 10720.70 121.10
894 5.5036 10540.20 10718.40 121.10
895 5.5073 10831.90 10716.10 123.60
896 5.5111 10655.70 10713.80 120.50
897 5.5149 10828.90 10711.60 124.30
898 5.5186 10745.20 10709.30 123.90
899 5.5224 11014.10 10707.00 124.40
900 5.5261 10707.30 10704.80 121.80
901 5.5299 10762.00 10702.50 123.50
902 5.5337 10422.60 10700.30 118.40
903 5.5374 10917.50 10698.00 121.90
904 5.5412 10703.90 10695.80 122.00
905 5.5449 10852.40 10693.50 123.50
906 5.5487 10648.40 10691.30 122.50
907 5.5525 10753.70 10689.00 121.70
908 5.5562 10636.90 10686.80 120.80
909 5.5600 10773.60 10684.60 119.10
910 5.5637 10597.00 10682.30 120.20
911 5.5675 10991.00 10680.10 122.40
912 5.5713 10506.40 10677.90 120.50
913 5.5750 10877.30 10675.70 121.10
914 5.5788 10632.40 10673.50 119.80
915 5.5825 10667.30 10671.20 119.70
916 5.5863 10398.50 10669.00 118.50
917 5.5901 10859.00 10666.80 121.30
918 5.5938 10543.40 10664.60 119.40
919 5.5976 10946.70 10662.40 120.60
920 5.6013 10462.80 10660.20 118.60
921 5.6051 10856.90 10658.00 121.20
922 5.6089 10599.90 10655.80 120.30
923 5.6126 10617.30 10653.60 119.90
924 5.6164 10378.60 10651.40 118.30
925 5.6201 10864.80 10649.20 121.00
926 5.6239 10650.20 10647.10 120.40
927 5.6276 10866.10 10644.90 121.30
928 5.6314 10482.80 10642.70 119.60
929 5.6352 10735.50 10640.50 120.80
930 5.6389 10475.20 10638.40 118.60
931 5.6427 10824.10 10636.20 121.40
932 5.6464 10502.00 10634.00 118.20
933 5.6502 10743.80 10631.90 121.30
934 5.6540 10649.10 10629.70 120.00
935 5.6577 10826.70 10627.50 121.50
936 5.6615 10638.80 10625.40 119.60
937 5.6652 10597.70 10623.20 121.10
938 5.6690 10609.10 10621.10 120.70
939 5.6728 10609.10 10618.90 119.10
940 5.6765 10619.20 10616.80 120.30
941 5.6803 10804.70 10614.70 121.00
942 5.6840 10459.70 10612.50 120.70
943 5.6878 10652.50 10610.40 121.20
944 5.6915 10465.30 10608.20 118.80
945 5.6953 10917.80 10606.10 120.80
946 5.6991 10441.80 10604.00 118.20
947 5.7028 10751.60 10601.90 119.80
948 5.7066 10447.90 10599.70 120.70
949 5.7104 10855.60 10597.60 122.50
950 5.7141 10479.90 10595.50 119.60
951 5.7179 10669.80 10593.40 120.70
952 5.7216 10410.20 10591.30 119.30
953 5.7254 10796.00 10589.20 118.80
954 5.7291 10425.60 10587.10 120.20
955 5.7329 10835.30 10585.00 121.00
956 5.7367 10475.00 10582.90 119.40
957 5.7404 10651.70 10580.80 118.90
958 5.7442 10460.10 10578.70 117.70
959 5.7479 10840.70 10576.60 122.10
960 5.7517 10491.20 10574.50 119.40
961 5.7555 10674.50 10572.40 121.70
962 5.7592 10334.70 10570.30 119.70
963 5.7630 10774.10 10568.20 121.50
964 5.7667 10440.10 10566.10 120.40
965 5.7705 10756.00 10564.10 121.20
966 5.7743 10345.10 10562.00 117.20
967 5.7780 10700.20 10559.90 121.60
968 5.7818 10580.70 10557.80 121.50
969 5.7855 10778.80 10555.80 121.90
970 5.7893 10564.00 10553.70 120.20
971 5.7930 10821.40 10551.60 120.50
972 5.7968 10228.70 10549.60 117.20
973 5.8006 10714.70 10547.50 120.50
974 5.8043 10187.70 10545.50 118.10
975 5.8081 10732.50 10543.40 120.30
976 5.8118 10311.60 10541.40 119.10
977 5.8156 10439.50 10539.30 118.50
978 5.8194 10362.30 10537.30 118.90
979 5.8231 10526.10 10535.20 117.40
980 5.8269 10348.80 10533.20 117.20
981 5.8306 10508.40 10531.20 119.60
982 5.8344 10655.60 10529.10 121.90
983 5.8382 10705.50 10527.10 122.00
984 5.8419 10245.30 10525.10 119.00
985 5.8457 10647.20 10523.00 121.30
986 5.8494 10350.40 10521.00 118.40
987 5.8532 10557.00 10519.00 119.30
988 5.8569 10300.60 10516.90 116.90
989 5.8607 10720.60 10514.90 121.70
990 5.8645 10121.40 10512.90 114.70
991 5.8682 10626.10 10510.90 119.70
992 5.8720 10280.60 10508.90 118.90
993 5.8757 10723.40 10506.90 121.60
994 5.8795 10332.70 10504.90 118.30
995 5.8833 10474.10 10502.90 119.50
996 5.8870 10304.70 10500.90 118.60
997 5.8908 10511.50 10498.90 120.50
998 5.8945 10446.50 10496.90 120.70
999 5.8983 10592.10 10494.90 118.80
1000 5.9021 10423.20 10492.90 120.10
1001 5.9058 10460.20 10490.90 119.00
1002 5.9096 10426.90 10488.90 119.80
1003 5.9133 10567.80 10486.90 120.80
1004 5.9171 10351.30 10484.90 118.20
1005 5.9208 10639.70 10482.90 120.80
1006 5.9246 10284.20 10481.00 118.40
1007 5.9284 10602.90 10479.00 120.50
1008 5.9321 10225.40 10477.00 118.80
1009 5.9359 10430.40 10475.00 119.70
1010 5.9396 10423.70 10473.10 120.10
1011 5.9434 10493.30 10471.10 120.10
1012 5.9472 10324.00 10469.10 118.20
1013 5.9509 10553.30 10467.10 119.80
1014 5.9547 10401.60 10465.20 118.90
1015 5.9584 10499.60 10463.20 118.80
1016 5.9622 10275.40 10461.30 119.40
1017 5.9660 10535.20 10459.30 120.30
1018 5.9697 10321.30 10457.40 118.70
1019 5.9735 10480.60 10455.40 119.20
1020 5.9772 10226.60 10453.50 119.20
1021 5.9810 10408.60 10451.50 119.70
1022 5.9847 10293.10 10449.60 119.60
1023 5.9885 10375.90 10447.60 117.40
1024 5.9923 10166.90 10445.70 117.60
1025 5.9960 10540.50 10443.70 120.30
1026 5.9998 10161.30 10441.80 118.90
1027 6.0035 10532.40 10439.90 120.00
1028 6.0073 10200.70 10437.90 119.40
1029 6.0111 10496.20 10436.00 121.90
1030 6.0148 10081.80 10434.10 118.20
1031 6.0186 10546.70 10432.10 120.70
1032 6.0223 10057.50 10430.20 116.30
1033 6.0261 10565.80 10428.30 120.30
1034 6.0298 10263.40 10426.40 119.60
1035 6.0336 10442.80 10424.50 119.00
1036 6.0374 10187.40 10422.50 115.70
1037 6.0411 10354.50 10420.60 115.00
1038 6.0449 9944.60 10418.70 115.20
1039 6.0486 10207.90 10416.80 117.50
1040 6.0524 10140.80 10414.90 116.00
1041 6.0561 10621.10 10413.00 120.40
1042 6.0599 10377.90 10411.10 117.40
1043 6.0637 10605.20 10409.20 119.90
1044 6.0674 10172.10 10407.30 117.20
1045 6.0712 10609.10 10405.40 120.20
1046 6.0749 10089.80 10403.50 116.10
1047 6.0787 10248.20 10401.60 118.60
1048 6.0825 10267.30 10399.70 117.10
1049 6.0862 10555.10 10397.80 119.30
1050 6.0900 10102.70 10395.90 118.00
1051 6.0937 10455.80 10394.00 118.90
1052 6.0975 9978.60 10392.10 114.90
1053 6.1012 10428.20 10390.20 119.10
1054 6.1050 10038.20 10388.40 116.70
1055 6.1088 10570.80 10386.50 119.10
1056 6.1125 10261.40 10384.60 118.70
1057 6.1163 10377.80 10382.70 118.70
1058 6.1200 10232.10 10380.80 118.90
1059 6.1238 10729.80 10379.00 121.00
1060 6.1276 10357.80 10377.10 118.50
1061 6.1313 10426.60 10375.20 117.50
1062 6.1351 10102.10 10373.40 116.50
1063 6.1388 10451.20 10371.50 119.00
1064 6.1426 10252.40 10369.60 118.60
1065 6.1463 10625.70 10367.80 119.70
1066 6.1501 10009.90 10365.90 116.30
1067 6.1539 10182.80 10364.00 116.90
1068 6.1576 10142.60 10362.20 118.10
1069 6.1614 10476.10 10360.30 117.20
1070 6.1651 10383.40 10358.50 120.30
1071 6.1689 10472.80 10356.60 118.70
1072 6.1726 10116.90 10354.80 116.60
1073 6.1764 10171.60 10352.90 116.60
1074 6.1802 10279.20 10351.10 119.40
1075 6.1839 10477.70 10349.20 120.10
1076 6.1877 10191.10 10347.40 116.90
1077 6.1914 10382.30 10345.60 119.50
1078 6.1952 10237.60 10343.70 117.20
1079 6.1989 10538.80 10341.90 119.20
1080 6.2027 10160.60 10340.00 116.00
1081 6.2065 10429.30 10338.20 121.70
1082 6.2102 10254.10 10336.40 119.40
1083 6.2140 10306.80 10334.50 117.40
1084 6.2177 10172.90 10332.70 118.20
1085 6.2215 10423.80 10330.90 118.40
1086 6.2252 10299.90 10329.10 118.50
1087 6.2290 10199.60 10327.20 118.20
1088 6.2328 10089.30 10325.40 117.80
1089 6.2365 10280.90 10323.60 117.80
1090 6.2403 10334.50 10321.80 118.40
1091 6.2440 10566.50 10320.00 119.20
1092 6.2478 10124.50 10318.10 118.20
1093 6.2516 10572.10 10316.30 120.70
1094 6.2553 10332.80 10314.50 118.70
1095 6.2591 10531.80 10312.70 119.90
1096 6.2628 10197.50 10310.90 118.40
1097 6.2666 10266.80 10309.10 118.40
1098 6.2703 10016.30 10307.30 116.30
1099 6.2741 10439.80 10305.50 118.30
1100 6.2779 10176.80 10303.70 117.80
1101 6.2816 10407.80 10301.90 119.10
1102 6.2854 10084.10 10300.10 117.20
1103 6.2891 10355.50 10298.30 119.60
1104 6.2929 10007.30 10296.50 116.00
1105 6.2966 10533.70 10294.70 120.60
1106 6.3004 10208.80 10292.90 117.70
1107 6.3042 10288.80 10291.10 117.50
1108 6.3079 10059.20 10289.30 116.80
1109 6.3117 10378.60 10287.50 118.30
1110 6.3154 10122.10 10285.70 118.10
1111 6.3192 10206.90 10283.90 116.40
1112 6.3229 10047.40 10282.10 117.50
1113 6.3267 10335.50 10280.40 118.70
1114 6.3305 10081.50 10278.60 116.50
1115 6.3342 10463.00 10276.80 118.60
1116 6.3380 9890.90 10275.00 115.40
1117 6.3417 10325.70 10273.20 118.20
1118 6.3455 9968.70 10271.50 116.20
1119 6.3492 10365.90 10269.70 119.00
1120 6.3530 10021.70 10267.90 117.20
1121 6.3568 10406.80 10266.10 120.30
1122 6.3605 10037.90 10264.40 117.10
1123 6.3643 10331.40 10262.60 118.80
1124 6.3680 9934.20 10260.80 115.00
1125 6.3718 10181.80 10259.10 118.40
1126 6.3755 9758.70 10257.30 114.70
1127 6.3793 10411.40 10255.50 119.20
1128 6.3831 10206.20 10253.80 117.80
1129 6.3868 10347.30 10252.00 118.80
1130 6.3906 10117.10 10250.30 116.70
1131 6.3943 10304.10 10248.50 119.80
1132 6.3981 10174.00 10246.80 118.10
1133 6.4018 10266.40 10245.00 119.00
1134 6.4056 9953.00 10243.20 116.30
1135 6.4093 10219.90 10241.50 115.50
1136 6.4131 10033.30 10239.70 117.00
1137 6.4169 10340.00 10238.00 120.00
1138 6.4206 9810.30 10236.20 115.70
1139 6.4244 10423.80 10234.50 119.00
1140 6.4281 10024.80 10232.70 116.90
1141 6.4319 10257.50 10231.00 119.20
1142 6.4356 9954.70 10229.30 115.80
1143 6.4394 10185.90 10227.50 117.50
1144 6.4432 10034.00 10225.80 117.40
1145 6.4469 10474.20 10224.00 120.40
1146 6.4507 10177.20 10222.30 118.00
1147 6.4544 10308.40 10220.60 119.20
1148 6.4582 9977.50 10218.80 116.30
1149 6.4619 10169.10 10217.10 117.90
1150 6.4657 10061.70 10215.40 117.40
1151 6.4695 10274.20 10213.60 118.70
1152 6.4732 9958.90 10211.90 116.40
1153 6.4770 10261.80 10210.20 118.70
1154 6.4807 9968.90 10208.40 116.50
1155 6.4845 10140.10 10206.70 117.00
1156 6.4882 10083.40 10205.00 117.80
1157 6.4920 10049.90 10203.30 116.50
1158 6.4958 9857.30 10201.50 115.80
1159 6.4995 10082.70 10199.80 116.50
1160 6.5033 9793.90 10198.10 115.80
1161 6.5070 10093.70 10196.40 116.60
1162 6.5108 9958.50 10194.70 117.00
1163 6.5145 10172.50 10192.90 116.30
1164 6.5183 9944.80 10191.20 116.00
1165 6.5220 10142.10 10189.50 117.10
1166 6.5258 9918.20 10187.80 115.80
1167 6.5296 10166.60 10186.10 116.40
1168 6.5333 9986.20 10184.40 115.70
1169 6.5371 10345.20 10182.70 118.50
1170 6.5408 9989.10 10181.00 116.00
1171 6.5446 10255.60 10179.30 117.60
1172 6.5483 9947.00 10177.50 115.40
1173 6.5521 10369.70 10175.80 119.20
1174 6.5559 10159.00 10174.10 117.00
1175 6.5596 10166.50 10172.40 117.30
1176 6.5634 9688.50 10170.70 113.90
1177 6.5671 10135.50 10169.00 117.40
1178 6.5709 9933.40 10167.30 115.80
1179 6.5746 10241.10 10165.60 118.70
1180 6.5784 9969.20 10163.90 116.00
1181 6.5821 10196.40 10162.20 117.10
1182 6.5859 9999.80 10160.50 116.30
1183 6.5897 10080.60 10158.90 117.10
1184 6.5934 9880.00 10157.20 115.90
1185 6.5972 9972.20 10155.50 115.20
1186 6.6009 9842.60 10153.80 116.00
1187 6.6047 10188.80 10152.10 118.20
1188 6.6084 10024.50 10150.40 116.80
1189 6.6122 10115.50 10148.70 116.10
1190 6.6160 9835.50 10147.00 116.10
1191 6.6197 10022.50 10145.30 115.70
1192 6.6235 9885.50 10143.70 115.20
1193 6.6272 10094.60 10142.00 116.90
1194 6.6310 9805.80 10140.30 115.60
1195 6.6347 10106.60 10138.60 117.30
1196 6.6385 9980.40 10136.90 116.60
1197 6.6422 9874.80 10135.20 114.40
1198 6.6460 9733.60 10133.60 115.00
1199 6.6498 9935.30 10131.90 115.80
1200 6.6535 9859.90 10130.20 114.70
1201 6.6573 10137.40 10128.50 119.10
1202 6.6648 10029.70 10125.20 116.30
1203 6.6685 9722.60 10123.50 113.40
1204 6.6723 10157.80 10121.80 116.80
1205 6.6760 9825.70 10120.20 115.80
1206 6.6798 9943.60 10118.50 116.00
1207 6.6835 9855.60 10116.80 115.70
1208 6.6873 9955.10 10115.20 116.50
1209 6.6911 9657.80 10113.50 113.60
1210 6.6948 10440.50 10111.80 119.70
1211 6.6986 9910.40 10110.20 115.10
1212 6.7023 10129.50 10108.50 117.00
1213 6.7061 9903.70 10106.80 115.70
1214 6.7098 10125.50 10105.20 117.00
1215 6.7136 9653.70 10103.50 114.30
1216 6.7174 10188.50 10101.90 118.40
1217 6.7211 9833.40 10100.20 115.50
1218 6.7249 9827.00 10098.50 113.70
1219 6.7286 9910.80 10096.90 116.40
1220 6.7324 10184.50 10095.20 117.70
1221 6.7361 9813.40 10093.60 115.30
1222 6.7399 9936.30 10091.90 116.10
1223 6.7436 9817.70 10090.30 116.80
1224 6.7474 10131.30 10088.60 118.10
1225 6.7512 9781.20 10087.00 114.50
1226 6.7549 10106.60 10085.30 117.20
1227 6.7587 9824.00 10083.60 114.80
1228 6.7624 10119.10 10082.00 117.80
1229 6.7662 9718.40 10080.30 115.40
1230 6.7699 10126.10 10078.70 118.50
1231 6.7737 9813.80 10077.10 116.00
1232 6.7774 9975.50 10075.40 113.20
1233 6.7812 9727.10 10073.80 115.20
1234 6.7849 10133.50 10072.10 117.30
1235 6.7887 9750.70 10070.50 113.30
1236 6.7925 9739.20 10068.80 114.40
1237 6.7962 9650.50 10067.20 113.10
1238 6.8000 9980.50 10065.50 116.30
1239 6.8037 9697.70 10063.90 115.70
1240 6.8075 10018.20 10062.30 116.90
1241 6.8112 9750.30 10060.60 115.70
1242 6.8150 9943.10 10059.00 116.20
1243 6.8187 9712.80 10057.30 115.30
1244 6.8225 10116.40 10055.70 117.50
1245 6.8263 9673.00 10054.10 114.00
1246 6.8300 9973.90 10052.40 116.30
1247 6.8338 9722.00 10050.80 113.00
1248 6.8375 9973.50 10049.20 117.40
1249 6.8413 9654.60 10047.50 115.30
1250 6.8450 9951.90 10045.90 113.80
1251 6.8488 9718.40 10044.30 114.10
1252 6.8525 9940.70 10042.60 116.00
1253 6.8563 9802.30 10041.00 115.30
1254 6.8601 9903.60 10039.40 113.90
1255 6.8638 9857.50 10037.70 116.70
1256 6.8676 10115.10 10036.10 118.30
1257 6.8713 9753.80 10034.50 115.70
1258 6.8751 9995.20 10032.90 117.30
1259 6.8788 9665.50 10031.20 113.90
1260 6.8826 9984.50 10029.60 115.70
1261 6.8863 9816.80 10028.00 116.10
1262 6.8901 10287.80 10026.40 118.70
1263 6.8938 9919.80 10024.70 116.50
1264 6.8976 10039.70 10023.10 117.30
1265 6.9014 9668.10 10021.50 115.30
1266 6.9051 9635.70 10019.90 111.80
1267 6.9089 9692.90 10018.20 114.90
1268 6.9126 9850.00 10016.60 116.20
1269 6.9164 9569.30 10015.00 115.30
1270 6.9201 9966.60 10013.40 116.80
1271 6.9239 9826.30 10011.80 115.70
1272 6.9276 9984.20 10010.20 115.60
1273 6.9314 9560.50 10008.50 115.00
1274 6.9351 9927.20 10006.90 117.30
1275 6.9426 9808.10 10003.70 116.60
1276 6.9502 9902.60 10000.50 116.40
1277 6.9539 9606.00 9998.85 114.40
1278 6.9577 9971.20 9997.24 116.50
1279 6.9614 9589.00 9995.62 113.40
1280 6.9652 9774.20 9994.01 114.00
1281 6.9689 9567.50 9992.41 114.40
1282 6.9705 9935.00 9991.71 115.90
1283 6.9743 9700.10 9990.10 115.50
1284 6.9781 9832.50 9988.49 115.30
1285 6.9818 9705.80 9986.88 115.10
1286 6.9856 10005.10 9985.27 116.30
1287 6.9893 9748.00 9983.66 115.80
1288 6.9931 9923.90 9982.06 115.80
1289 6.9968 9560.80 9980.45 114.60
1290 7.0006 9907.30 9978.84 114.90
1291 7.0043 9602.00 9977.23 113.90
1292 7.0081 9967.90 9975.63 116.20
1293 7.0119 9636.20 9974.02 114.20
1294 7.0156 10040.90 9972.42 115.90
1295 7.0194 9462.70 9970.81 112.50
1296 7.0231 9952.30 9969.21 116.20
1297 7.0269 9368.10 9967.60 112.20
1298 7.0306 9968.60 9966.00 116.00
1299 7.0344 9760.30 9964.40 114.50
1300 7.0381 9960.60 9962.80 116.80
1301 7.0419 9596.40 9961.19 113.50
1302 7.0457 9714.20 9959.60 114.60
1303 7.0494 9636.10 9957.99 113.80
1304 7.0532 9892.40 9956.40 116.10
1305 7.0569 9531.10 9954.79 113.40
1306 7.0607 10159.60 9953.19 118.50
1307 7.0644 9637.60 9951.60 114.10
1308 7.0682 9742.20 9950.00 114.40
1309 7.0720 9760.10 9948.40 115.00
1310 7.0757 9896.20 9946.80 116.20
1311 7.0795 9548.70 9945.21 113.90
1312 7.0832 9883.20 9943.61 114.90
1313 7.0870 9656.20 9942.02 115.00
1314 7.0907 9899.90 9940.42 116.50
1315 7.0945 9506.80 9938.83 113.60
1316 7.0982 9814.50 9937.23 114.40
1317 7.1020 9577.10 9935.64 114.60
1318 7.1058 9798.80 9934.04 114.50
1319 7.1095 9464.80 9932.45 112.70
1320 7.1133 9883.20 9930.86 115.80
1321 7.1170 9656.70 9929.27 114.90
1322 7.1208 9700.40 9927.68 114.90
1323 7.1245 9565.20 9926.08 114.10
1324 7.1283 9751.80 9924.49 113.90
1325 7.1321 9586.70 9922.90 114.30
1326 7.1358 9778.00 9921.31 115.10
1327 7.1396 9506.20 9919.72 112.60
1328 7.1433 9774.60 9918.13 116.90
1329 7.1508 9801.50 9914.95 115.10
1330 7.1546 9547.70 9913.37 112.50
1331 7.1583 9773.60 9911.78 114.60
1332 7.1621 9470.70 9910.19 113.70
1333 7.1659 9590.50 9908.60 113.90
1334 7.1696 9523.70 9907.02 113.70
1335 7.1734 9865.70 9905.43 116.20
1336 7.1771 9474.20 9903.84 112.60
1337 7.1809 9820.50 9902.26 115.80
1338 7.1846 9319.70 9900.67 111.50
1339 7.1884 9848.60 9899.09 115.40
1340 7.1921 9381.70 9897.50 112.40
1341 7.1959 9866.00 9895.92 115.50
1342 7.1996 9555.80 9894.34 113.90
1343 7.2034 9821.90 9892.75 116.20
1344 7.2072 9668.10 9891.17 114.70
1345 7.2074 9579.70 9891.07 113.60
1346 7.2112 9751.90 9889.48 116.40
1347 7.2149 9668.60 9887.90 115.00
1348 7.2187 9963.30 9886.32 118.20
1349 7.2224 9598.90 9884.74 113.40
1350 7.2262 9837.10 9883.16 116.70
1351 7.2299 9567.90 9881.57 114.90
1352 7.2337 9788.70 9879.99 116.40
1353 7.2375 9691.10 9878.41 116.00
1354 7.2412 9925.70 9876.83 116.00
1355 7.2449 9467.30 9875.26 112.60
1356 7.2487 9887.10 9873.67 116.80
1357 7.2525 9575.90 9872.10 115.50
1358 7.2562 9899.50 9870.52 116.60
1359 7.2600 9572.60 9868.94 115.40
1360 7.2637 9963.80 9867.36 118.20
1361 7.2675 9602.70 9865.78 115.00
1362 7.2712 9793.50 9864.20 116.30
1363 7.2750 9648.30 9862.63 116.30
1364 7.2787 9658.60 9861.05 113.90
1365 7.2825 9474.20 9859.47 113.00
1366 7.2863 9821.20 9857.90 117.10
1367 7.2900 9609.80 9856.32 114.90
1368 7.2938 9711.10 9854.74 113.80
1369 7.2975 9589.50 9853.16 116.30
1370 7.3013 9596.50 9851.59 114.90
1371 7.3050 9455.80 9850.01 113.40
1372 7.3088 9877.50 9848.44 116.20
1373 7.3125 9571.10 9846.86 115.40
1374 7.3163 9704.20 9845.29 114.60
1375 7.3200 9565.30 9843.71 113.30
1376 7.3238 9745.20 9842.14 115.90
1377 7.3276 9539.80 9840.56 114.40
1378 7.3313 9904.70 9838.99 116.90
1379 7.3351 9526.90 9837.41 113.80
1380 7.3388 9742.70 9835.84 115.20
1381 7.3426 9409.50 9834.27 113.60
1382 7.3463 9977.90 9832.69 117.60
1383 7.3501 9444.40 9831.11 114.90
1384 7.3538 9652.60 9829.54 115.10
1385 7.3576 9505.60 9827.97 114.90
1386 7.3614 9714.30 9826.40 116.10
1387 7.3651 9584.80 9824.82 112.30
1388 7.3689 9983.00 9823.25 117.40
1389 7.3726 9396.20 9821.68 112.00
1390 7.3764 9676.90 9820.11 116.00
1391 7.3801 9388.30 9818.54 113.40
1392 7.3839 9556.60 9816.96 114.80
1393 7.3876 9507.50 9815.39 112.40
1394 7.3914 9765.90 9813.82 115.30
1395 7.3952 9504.30 9812.24 113.50
1396 7.3989 9697.50 9810.67 115.30
1397 7.4027 9568.90 9809.10 114.30
1398 7.4064 9558.00 9807.53 115.00
1399 7.4102 9422.30 9805.96 114.50
1400 7.4139 9763.50 9804.39 115.30
1401 7.4177 9597.50 9802.82 114.60
1402 7.4214 9597.00 9801.25 112.90
1403 7.4252 9498.90 9799.67 115.20
1404 7.4289 9759.10 9798.10 113.70
1405 7.4327 9546.00 9796.53 113.40
1406 7.4365 9634.50 9794.96 115.30
1407 7.4402 9434.00 9793.39 112.80
1408 7.4440 9669.20 9791.82 114.80
1409 7.4477 9398.80 9790.25 113.60
1410 7.4515 9773.60 9788.68 115.90
1411 7.4552 9459.30 9787.11 115.80
1412 7.4590 9619.30 9785.54 111.90
1413 7.4627 9524.80 9783.97 115.10
1414 7.4665 9593.80 9782.40 112.80
1415 7.4703 9239.50 9780.83 112.10
1416 7.4740 9506.80 9779.26 111.60
1417 7.4778 9183.80 9777.69 108.70
1418 7.4815 9286.40 9776.12 111.40
1419 7.4853 9189.40 9774.55 109.30
1420 7.4890 9515.60 9772.98 114.20
1421 7.4928 9118.60 9771.41 110.40
1422 7.4965 9587.30 9769.84 113.90
1423 7.5003 9356.80 9768.27 111.50
1424 7.5040 9501.50 9766.71 114.00
1425 7.5078 9180.40 9765.13 112.00
1426 7.5116 9529.10 9763.57 112.80
1427 7.5153 9130.70 9762.00 110.40
1428 7.5191 9417.70 9760.43 113.00
1429 7.5228 9467.90 9758.86 113.90
1430 7.5266 9585.80 9757.29 114.90
1431 7.5303 9292.80 9755.72 113.10
1432 7.5341 9379.00 9754.15 113.30
1433 7.5379 9472.40 9752.58 114.10
1434 7.5416 9546.40 9751.01 114.90
1435 7.5454 9219.80 9749.44 112.00
1436 7.5491 9571.60 9747.87 115.00
1437 7.5529 9197.60 9746.30 112.00
1438 7.5566 9643.50 9744.74 115.20
1439 7.5604 9184.80 9743.17 111.90
1440 7.5641 9691.90 9741.59 115.20
1441 7.5679 9458.40 9740.03 113.00
1442 7.5717 9502.20 9738.46 114.40
1443 7.5754 9383.70 9736.89 114.50
1444 7.5792 9575.00 9735.32 115.60
1445 7.5829 9334.40 9733.75 112.90
1446 7.5867 9508.20 9732.18 115.10
1447 7.5904 9314.20 9730.61 112.30
1448 7.5942 9383.30 9729.04 112.50
1449 7.5979 9514.90 9727.47 114.60
1450 7.6017 9597.80 9725.90 115.30
1451 7.6055 9439.90 9724.33 114.50
1452 7.6092 9661.20 9722.76 114.80
1453 7.6130 9363.30 9721.20 114.30
1454 7.6167 9424.10 9719.62 112.80
1455 7.6205 9524.70 9718.05 114.50
1456 7.6242 9431.50 9716.49 114.80
1457 7.6280 9393.00 9714.92 113.40
1458 7.6318 9735.60 9713.34 115.90
1459 7.6355 9332.10 9711.78 112.10
1460 7.6393 9660.00 9710.20 116.10
1461 7.6430 9127.10 9708.64 110.10
1462 7.6468 9728.90 9707.06 115.80
1463 7.6505 9206.10 9705.49 112.00
1464 7.6543 9642.70 9703.92 117.20
1465 7.6581 9394.40 9702.35 112.80
1466 7.6618 9651.20 9700.78 114.50
1467 7.6656 9218.90 9699.21 113.10
1468 7.6693 9518.00 9697.64 114.20
1469 7.6731 9336.30 9696.07 111.90
1470 7.6768 9507.40 9694.50 114.00
1471 7.6806 9313.80 9692.93 111.40
1472 7.6844 9470.30 9691.35 112.10
1473 7.6881 9262.10 9689.79 111.20
1474 7.6919 9476.60 9688.21 113.20
1475 7.6956 9300.50 9686.64 112.10
1476 7.6994 9494.30 9685.07 112.50
1477 7.7031 9223.50 9683.50 112.60
1478 7.7069 9621.90 9681.92 113.00
1479 7.7106 9356.90 9680.35 111.60
1480 7.7144 9610.40 9678.78 114.60
1481 7.7182 9217.60 9677.21 110.40
1482 7.7219 9570.20 9675.64 113.60
1483 7.7257 9077.40 9674.06 110.50
1484 7.7294 9614.30 9672.50 113.10
1485 7.7332 9338.60 9670.92 113.10
1486 7.7369 9730.70 9669.35 114.40
1487 7.7407 9319.60 9667.78 111.10
1488 7.7445 9507.20 9666.20 113.70
1489 7.7482 9413.50 9664.63 112.20
1490 7.7520 9656.80 9663.06 114.70
1491 7.7557 9364.00 9661.48 112.10
1492 7.7595 9531.20 9659.91 113.60
1493 7.7632 9482.50 9658.33 113.80
1494 7.7670 9454.10 9656.76 112.60
1495 7.7708 9332.80 9655.18 112.90
1496 7.7745 9566.30 9653.61 114.20
1497 7.7783 9221.20 9652.04 111.30
1498 7.7820 9565.00 9650.46 114.30
1499 7.7858 9179.90 9648.88 110.80
1500 7.7895 9526.10 9647.31 113.50
1501 7.7933 9288.70 9645.73 112.10
1502 7.7970 9527.20 9644.16 113.20
1503 7.8008 9337.10 9642.58 113.10
1504 7.8046 9508.90 9641.01 112.90
1505 7.8083 9259.30 9639.43 111.60
1506 7.8121 9409.60 9637.85 111.70
1507 7.8158 9329.80 9636.28 112.60
1508 7.8196 9589.20 9634.70 112.10
1509 7.8233 9392.90 9633.12 113.40
1510 7.8271 9561.70 9631.55 114.30
1511 7.8309 9280.10 9629.97 112.10
1512 7.8346 9398.00 9628.39 112.10
1513 7.8384 9150.60 9626.81 110.90
1514 7.8421 9327.80 9625.24 112.20
1515 7.8459 9221.50 9623.66 111.40
1516 7.8496 9563.00 9622.08 114.10
1517 7.8534 9029.60 9620.50 109.90
1518 7.8572 9433.90 9618.92 111.70
1519 7.8609 9209.10 9617.34 111.30
1520 7.8647 9233.80 9615.76 111.40
1521 7.8684 9275.10 9614.18 111.60
1522 7.8722 9485.50 9612.60 113.30
1523 7.8759 9149.40 9611.02 110.50
1524 7.8797 9208.70 9609.44 111.70
1525 7.8835 9136.20 9607.86 110.20
1526 7.8872 9405.90 9606.28 112.70
1527 7.8910 9147.20 9604.70 110.60
1528 7.8947 9364.10 9603.12 111.80
1529 7.8985 9063.70 9601.54 110.70
1530 7.9022 9508.10 9599.95 113.20
1531 7.9060 9194.30 9598.37 111.50
1532 7.9098 9337.90 9596.79 112.00
1533 7.9135 9104.40 9595.21 109.40
1534 7.9173 9362.00 9593.62 113.30
1535 7.9210 9111.10 9592.04 111.20
1536 7.9248 9307.40 9590.46 110.40
1537 7.9285 9227.00 9588.88 110.60
1538 7.9323 9277.40 9587.29 110.90
1539 7.9361 9277.70 9585.71 111.80
1540 7.9398 9444.20 9584.12 112.30
1541 7.9436 9110.80 9582.54 111.10
1542 7.9473 9479.50 9580.95 114.40
1543 7.9511 9012.40 9579.36 109.30
1544 7.9549 9461.90 9577.78 113.00
1545 7.9586 9165.90 9576.20 110.70
1546 7.9624 9279.30 9574.61 110.20
1547 7.9661 9206.70 9573.02 111.70
1548 7.9699 9295.80 9571.43 111.60
1549 7.9736 9036.10 9569.85 110.50
1550 7.9774 9338.90 9568.26 110.90
1551 7.9812 9202.10 9566.67 111.10
1552 7.9849 9439.80 9565.08 112.60
1553 7.9887 9280.20 9563.50 112.50
1554 7.9924 9416.80 9561.91 112.70
1555 7.9962 9194.00 9560.32 111.90
1556 7.9999 9411.50 9558.73 112.40
1557 8.0037 8990.40 9557.14 109.00
1558 8.0075 9497.80 9555.55 114.60
1559 8.0112 8986.50 9553.96 109.90
1560 8.0150 9275.50 9552.37 112.10
1561 8.0187 9043.50 9550.78 109.90
1562 8.0225 9449.90 9549.19 112.90
1563 8.0262 9106.40 9547.60 111.00
1564 8.0300 9354.30 9546.00 110.70
1565 8.0338 9274.20 9544.41 112.40
1566 8.0375 9352.30 9542.82 112.80
1567 8.0413 9118.30 9541.23 109.80
1568 8.0450 9240.10 9539.63 110.60
1569 8.0488 9056.70 9538.04 110.60
1570 8.0526 9530.60 9536.44 114.50
1571 8.0563 9154.10 9534.85 111.50
1572 8.0601 9478.30 9533.26 113.10
1573 8.0638 9314.10 9531.66 113.20
1574 8.0676 9292.00 9530.07 109.70
1575 8.0714 9051.30 9528.47 111.10
1576 8.0751 9367.60 9526.88 113.70
1577 8.0789 9103.10 9525.28 110.70
1578 8.0826 9238.80 9523.68 112.90
1579 8.0864 9301.50 9522.08 113.00
1580 8.0901 9417.50 9520.49 112.00
1581 8.0939 8983.60 9518.89 110.70
1582 8.0976 9503.50 9517.29 113.60
1583 8.1014 8995.70 9515.69 110.40
1584 8.1052 9447.30 9514.09 114.10
1585 8.1089 9180.50 9512.49 112.40
1586 8.1127 9345.50 9510.89 112.50
1587 8.1164 9130.60 9509.30 112.00
1588 8.1202 9256.20 9507.69 110.40
1589 8.1240 9278.20 9506.09 111.20
1590 8.1277 9228.70 9504.49 112.40
1591 8.1315 9029.10 9502.89 109.90
1592 8.1352 9291.30 9501.29 114.50
1593 8.1390 9041.70 9499.69 110.20
1594 8.1427 9266.70 9498.08 113.40
1595 8.1465 8902.80 9496.48 111.90
1596 8.1503 9212.50 9494.87 107.20
1597 8.1540 9003.70 9493.27 106.50
1598 8.1578 9497.60 9491.67 110.30
1599 8.1615 9003.80 9490.06 107.50
1600 8.1653 9089.70 9488.46 107.30
1601 8.1691 8939.30 9486.85 105.70
1602 8.1728 9225.60 9485.25 106.40
1603 8.1766 8980.50 9483.64 105.60
1604 8.1803 9371.00 9482.03 109.70
1605 8.1841 9227.20 9480.43 108.70
1606 8.1878 9285.80 9478.82 107.60
1607 8.1916 8949.00 9477.21 105.10
1608 8.1954 9315.70 9475.60 109.00
1609 8.1991 8898.50 9473.99 104.70
1610 8.2029 9311.20 9472.38 107.50
1611 8.2066 8966.50 9470.77 107.00
1612 8.2104 9275.10 9469.16 108.70
1613 8.2142 9163.80 9467.55 107.50
1614 8.2179 9261.60 9465.94 108.50
1615 8.2217 9052.10 9464.33 105.80
1616 8.2254 9367.50 9462.71 108.30
1617 8.2292 9073.70 9461.11 106.80
1618 8.2330 9281.20 9459.49 109.30
1619 8.2367 9000.50 9457.88 107.50
1620 8.2405 9243.70 9456.26 108.90
1621 8.2442 8931.70 9454.65 106.10
1622 8.2480 9072.10 9453.04 107.50
1623 8.2517 9053.70 9451.42 105.70
1624 8.2555 9305.00 9449.80 107.60
1625 8.2593 9034.80 9448.19 106.50
1626 8.2630 9206.40 9446.57 108.70
1627 8.2668 8838.30 9444.96 106.60
1628 8.2705 9278.50 9443.34 109.20
1629 8.2743 8844.90 9441.72 105.20
1630 8.2781 9164.60 9440.10 108.10
1631 8.2818 8948.00 9438.48 107.00
1632 8.2856 9263.00 9436.87 109.00
1633 8.2893 9016.70 9435.25 107.10
1634 8.2931 9132.40 9433.63 107.90
1635 8.2969 9251.60 9432.01 109.30
1636 8.3006 9179.40 9430.38 107.20
1637 8.3044 8957.00 9428.76 105.30
1638 8.3081 9290.20 9427.14 109.90
1639 8.3119 9092.60 9425.52 107.90
1640 8.3156 9073.70 9423.90 107.50
1641 8.3194 8989.40 9422.27 108.00
1642 8.3232 9219.80 9420.65 108.60
1643 8.3269 9013.80 9419.02 107.70
1644 8.3307 9254.30 9417.40 108.40
1645 8.3344 9062.70 9415.77 107.60
1646 8.3382 9147.90 9414.15 108.90
1647 8.3420 8997.30 9412.52 106.40
1648 8.3457 9197.00 9410.89 108.70
1649 8.3495 8969.10 9409.27 105.50
1650 8.3532 9037.50 9407.64 106.60
1651 8.3570 9011.60 9406.01 106.10
1652 8.3608 9124.30 9404.38 106.70
1653 8.3645 8832.60 9402.75 105.20
1654 8.3683 9236.40 9401.12 109.00
1655 8.3720 9046.30 9399.49 107.70
1656 8.3758 9089.20 9397.86 108.90
1657 8.3795 9037.30 9396.23 107.60
1658 8.3833 9283.80 9394.60 109.10
1659 8.3871 8933.40 9392.97 107.40
1660 8.3908 9065.90 9391.33 106.50
1661 8.3946 8914.50 9389.70 106.90
1662 8.3983 9154.30 9388.07 107.70
1663 8.4021 8949.00 9386.43 106.80
1664 8.4059 9153.80 9384.80 107.30
1665 8.4096 8977.80 9383.16 107.10
1666 8.4134 9089.50 9381.52 107.70
1667 8.4171 8932.20 9379.89 107.40
1668 8.4209 9293.20 9378.25 108.90
1669 8.4247 8953.60 9376.62 107.50
1670 8.4284 9181.40 9374.98 108.50
1671 8.4322 8870.10 9373.34 106.50
1672 8.4359 9181.00 9371.70 108.60
1673 8.4397 8942.80 9370.06 107.00
1674 8.4434 9132.10 9368.42 108.90
1675 8.4472 8842.30 9366.78 104.90
1676 8.4510 9054.60 9365.14 106.40
1677 8.4547 8974.50 9363.50 106.00
1678 8.4585 9067.40 9361.85 107.20
1679 8.4622 9024.10 9360.21 106.90
1680 8.4660 9061.40 9358.57 107.90
1681 8.4698 8946.10 9356.93 105.20
1682 8.4735 8993.70 9355.28 108.40
1683 8.4773 8693.30 9353.63 104.40
1684 8.4810 9078.50 9351.99 107.60
1685 8.4848 8878.30 9350.34 107.10
1686 8.4886 9075.40 9348.70 108.40
1687 8.4923 8884.70 9347.05 106.90
1688 8.4961 8933.00 9345.40 107.70
1689 8.4998 8770.30 9343.75 105.20
1690 8.5036 9135.20 9342.10 108.90
1691 8.5074 8895.20 9340.45 104.70
1692 8.5111 9153.40 9338.80 107.20
1693 8.5149 8689.60 9337.15 105.60
1694 8.5186 8984.40 9335.50 105.60
1695 8.5224 8851.40 9333.85 105.90
1696 8.5261 9288.10 9332.20 108.30
1697 8.5299 8768.70 9330.55 104.50
1698 8.5337 8929.70 9328.89 107.10
1699 8.5374 9028.70 9327.24 108.20
1700 8.5412 9191.40 9325.59 107.20
1701 8.5449 8897.10 9323.93 106.80
1702 8.5487 9023.20 9322.27 107.60
1703 8.5525 8800.50 9320.62 105.70
1704 8.5562 8863.20 9318.96 106.40
1705 8.5600 8855.00 9317.30 106.20
1706 8.5638 8892.80 9315.65 106.40
1707 8.5675 8954.30 9313.99 107.30
1708 8.5713 9077.70 9312.33 107.50
1709 8.5750 8840.80 9310.67 106.30
1710 8.5788 9123.30 9309.01 108.80
1711 8.5826 8821.80 9307.35 105.70
1712 8.5863 9258.80 9305.68 109.40
1713 8.5901 9145.60 9304.03 108.10
1714 8.5938 9041.40 9302.36 107.40
1715 8.5976 9044.20 9300.70 107.00
1716 8.6013 9234.00 9299.04 109.00
1717 8.6051 8667.80 9297.37 104.90
1718 8.6089 9154.30 9295.71 110.30
1719 8.6126 8806.50 9294.04 106.50
1720 8.6164 9122.30 9292.38 107.80
1721 8.6201 8854.80 9290.71 107.10
1722 8.6239 8976.40 9289.04 107.60
1723 8.6277 8831.90 9287.37 107.90
1724 8.6314 8990.90 9285.70 108.30
1725 8.6352 8726.40 9284.03 105.10
1726 8.6389 9165.50 9282.37 108.70
1727 8.6427 8906.20 9280.69 107.30
1728 8.6465 9005.70 9279.02 107.80
1729 8.6502 8900.20 9277.35 106.90
1730 8.6540 8885.70 9275.68 107.40
1731 8.6577 8852.70 9274.01 107.70
1732 8.6615 8977.20 9272.33 108.00
1733 8.6653 8827.30 9270.66 107.60
1734 8.6690 9118.00 9268.98 108.40
1735 8.6728 8898.10 9267.31 108.20
1736 8.6765 8996.90 9265.63 107.30
1737 8.6803 8894.10 9263.96 109.50
1738 8.6841 9222.70 9262.28 110.00
1739 8.6878 8944.10 9260.61 107.20
1740 8.6916 8967.30 9258.93 106.90
1741 8.6953 9039.80 9257.25 107.50
1742 8.6991 9234.70 9255.57 109.80
1743 8.7029 8965.60 9253.89 106.00
1744 8.7066 9137.10 9252.21 108.40
1745 8.7104 8917.00 9250.53 107.70
1746 8.7141 9124.70 9248.84 108.60
1747 8.7179 8867.60 9247.16 108.60
1748 8.7217 8967.70 9245.48 106.90
1749 8.7254 8863.00 9243.79 107.20
1750 8.7292 9283.00 9242.11 109.60
1751 8.7329 8914.00 9240.42 108.30
1752 8.7367 9053.10 9238.74 108.60
1753 8.7404 8870.80 9237.05 105.10
1754 8.7442 9010.50 9235.37 108.80
1755 8.7480 8914.20 9233.68 106.50
1756 8.7517 9002.50 9231.99 107.50
1757 8.7555 8933.00 9230.30 108.50
1758 8.7592 9032.50 9228.61 108.50
1759 8.7630 8841.00 9226.92 107.60
1760 8.7668 9037.90 9225.23 108.60
1761 8.7705 8959.10 9223.54 107.40
1762 8.7743 9016.50 9221.85 108.00
1763 8.7781 8947.30 9220.15 108.30
1764 8.7818 8890.20 9218.46 106.40
1765 8.7856 8953.00 9216.77 108.10
1766 8.7893 9083.50 9215.07 108.20
1767 8.7931 8761.20 9213.38 106.80
1768 8.7969 8984.30 9211.68 108.90
1769 8.8006 8881.50 9209.98 105.80
1770 8.8044 9063.40 9208.29 109.40
1771 8.8081 8931.20 9206.59 108.10
1772 8.8119 9014.40 9204.89 108.20
1773 8.8156 8856.00 9203.19 106.70
1774 8.8194 8928.80 9201.49 107.70
1775 8.8232 8821.20 9199.79 106.20
1776 8.8269 9034.50 9198.09 107.90
1777 8.8307 8781.10 9196.39 106.70
1778 8.8344 8772.20 9194.68 106.50
1779 8.8382 8870.90 9192.98 106.70
1780 8.8420 9130.10 9191.28 108.80
1781 8.8457 8731.20 9189.57 106.00
1782 8.8495 8992.30 9187.87 107.70
1783 8.8532 8829.40 9186.16 106.50
1784 8.8570 8903.60 9184.46 106.30
1785 8.8608 8659.10 9182.75 105.10
1786 8.8645 9133.00 9181.04 109.30
1787 8.8683 8606.40 9179.33 104.90
1788 8.8721 8936.60 9177.62 106.40
1789 8.8758 8831.00 9175.91 106.70
1790 8.8796 8916.30 9174.20 106.70
1791 8.8833 8650.50 9172.49 105.20
1792 8.8871 8899.90 9170.78 107.10
1793 8.8909 8652.20 9169.07 104.80
1794 8.8946 8939.00 9167.35 106.60
1795 8.8984 8728.70 9165.64 105.10
1796 8.9021 9001.20 9163.92 106.60
1797 8.9059 8494.00 9162.21 104.70
1798 8.9096 9024.50 9160.49 106.80
1799 8.9134 8784.10 9158.78 105.30
1800 8.9172 8951.80 9157.06 108.00
1801 8.9209 8724.90 9155.34 105.30
1802 8.9247 8807.90 9153.62 105.70
1803 8.9284 8795.80 9151.91 104.90
1804 8.9322 8918.00 9150.19 105.50
1805 8.9360 8790.90 9148.46 105.20
1806 8.9397 8829.30 9146.74 104.60
1807 8.9435 8534.30 9145.02 102.80
1808 8.9473 8859.50 9143.30 105.40
1809 8.9510 8722.20 9141.58 103.80
1810 8.9548 8875.90 9139.85 105.70
1811 8.9585 8858.40 9138.13 105.60
1812 8.9623 8970.60 9136.40 106.30
1813 8.9661 8845.20 9134.68 104.70
1814 8.9698 8955.70 9132.95 106.30
1815 8.9736 8817.20 9131.22 105.10
1816 8.9773 8985.40 9129.49 107.90
1817 8.9811 8788.90 9127.76 105.70
1818 8.9849 8859.20 9126.03 107.60
1819 8.9886 8878.50 9124.31 107.80
1820 8.9924 8813.80 9122.57 103.90
1821 8.9961 8525.70 9120.84 102.70
1822 8.9999 9053.70 9119.11 106.30
1823 9.0037 8723.90 9117.37 104.70
1824 9.0074 9049.10 9115.64 106.30
1825 9.0112 8639.40 9113.91 103.60
1826 9.0149 8948.70 9112.17 105.80
1827 9.0187 8815.20 9110.43 105.10
1828 9.0225 9039.10 9108.70 106.70
1829 9.0262 8662.70 9106.96 105.40
1830 9.0300 8818.90 9105.22 105.70
1831 9.0337 8551.60 9103.49 103.50
1832 9.0375 8918.10 9101.75 106.50
1833 9.0413 8781.20 9100.01 105.20
1834 9.0450 8903.70 9098.26 105.90
1835 9.0488 8734.00 9096.52 105.80
1836 9.0525 8881.30 9094.78 106.50
1837 9.0563 8919.20 9093.04 105.50
1838 9.0601 8901.90 9091.29 107.50
1839 9.0638 8550.00 9089.55 104.20
1840 9.0676 8894.60 9087.81 107.60
1841 9.0713 8722.00 9086.06 105.80
1842 9.0751 8847.00 9084.31 106.80
1843 9.0789 8786.30 9082.57 105.60
1844 9.0826 8846.30 9080.82 106.60
1845 9.0864 8738.60 9079.07 105.60
1846 9.0901 9068.80 9077.32 108.20
1847 9.0939 8689.30 9075.57 105.20
1848 9.0977 8869.70 9073.82 106.00
1849 9.1014 8768.90 9072.07 106.30
1850 9.1052 9027.10 9070.31 108.40
1851 9.1089 8711.70 9068.56 106.90
1852 9.1127 8887.30 9066.81 109.10
1853 9.1165 8796.70 9065.05 105.80
1854 9.1202 8992.70 9063.30 107.40
1855 9.1240 8771.40 9061.54 106.30
1856 9.1278 9000.60 9059.79 106.20
1857 9.1315 8614.50 9058.03 104.80
1858 9.1353 8929.90 9056.27 107.00
1859 9.1390 8823.20 9054.51 105.70
1860 9.1428 9017.10 9052.76 108.60
1861 9.1466 8664.10 9051.00 105.20
1862 9.1503 8911.70 9049.24 107.40
1863 9.1541 8593.30 9047.47 104.40
1864 9.1578 8852.40 9045.71 106.60
1865 9.1616 8632.30 9043.95 104.70
1866 9.1653 8919.90 9042.19 107.30
1867 9.1691 8721.10 9040.42 105.50
1868 9.1729 9028.70 9038.66 107.80
1869 9.1766 8791.30 9036.89 105.90
1870 9.1804 8927.90 9035.12 106.70
1871 9.1841 8722.70 9033.36 106.30
1872 9.1879 8929.40 9031.59 108.20
1873 9.1917 8984.00 9029.82 107.80
1874 9.1954 8954.30 9028.05 108.30
1875 9.1992 9047.00 9026.28 107.30
1876 9.2030 8954.30 9024.51 107.00
1877 9.2067 8806.10 9022.74 106.80
1878 9.2105 8956.20 9020.96 108.00
1879 9.2142 8770.70 9019.19 104.90
1880 9.2180 9020.20 9017.42 107.40
1881 9.2218 8858.20 9015.64 107.50
1882 9.2255 8945.80 9013.87 107.00
1883 9.2293 8946.50 9012.09 107.40
1884 9.2330 8846.60 9010.32 106.20
1885 9.2368 8823.50 9008.54 106.10
1886 9.2406 8910.60 9006.76 107.70
1887 9.2443 8807.70 9004.98 106.40
1888 9.2481 8920.20 9003.20 106.20
1889 9.2518 8848.20 9001.42 106.60
1890 9.2556 8899.50 8999.64 106.60
1891 9.2594 8747.20 8997.86 105.30
1892 9.2631 9093.00 8996.07 109.80
1893 9.2669 8750.60 8994.29 107.60
1894 9.2706 8899.70 8992.51 107.40
1895 9.2744 8895.20 8990.72 107.20
1896 9.2782 8997.40 8988.94 108.20
1897 9.2819 8894.60 8987.15 108.10
1898 9.2857 8918.20 8985.36 108.00
1899 9.2894 8674.90 8983.58 106.00
1900 9.2932 9006.80 8981.79 108.30
1901 9.2970 8942.20 8980.00 107.50
1902 9.3007 9039.50 8978.21 108.10
1903 9.3045 8937.00 8976.42 107.90
1904 9.3083 8955.80 8974.63 107.20
1905 9.3120 8745.80 8972.83 106.40
1906 9.3158 8867.60 8971.04 107.80
1907 9.3195 8781.00 8969.25 106.00
1908 9.3233 8876.40 8967.45 106.70
1909 9.3271 8926.50 8965.66 107.90
1910 9.3308 9104.20 8963.86 108.70
1911 9.3346 8757.30 8962.06 106.90
1912 9.3383 9062.90 8960.26 108.00
1913 9.3421 8565.60 8958.47 104.60
1914 9.3459 8998.50 8956.67 108.60
1915 9.3496 8731.70 8954.87 106.80
1916 9.3534 9085.40 8953.07 107.40
1917 9.3571 8716.60 8951.27 106.50
1918 9.3609 9021.50 8949.47 107.70
1919 9.3647 9016.10 8947.66 108.30
1920 9.3684 9008.20 8945.86 107.60
1921 9.3722 8670.10 8944.06 106.90
1922 9.3759 8770.30 8942.25 106.40
1923 9.3797 8719.00 8940.45 106.90
1924 9.3835 8896.70 8938.64 109.50
1925 9.3872 8634.10 8936.83 105.50
1926 9.3910 8821.00 8935.02 107.40
1927 9.3947 8683.10 8933.21 106.80
1928 9.3985 9142.10 8931.40 109.80
1929 9.4023 8751.60 8929.59 104.60
1930 9.4060 8893.20 8927.78 107.90
1931 9.4098 8738.80 8925.97 107.40
1932 9.4136 9040.10 8924.16 108.20
1933 9.4173 8710.80 8922.35 106.20
1934 9.4211 8960.50 8920.53 107.30
1935 9.4248 8703.70 8918.72 105.30
1936 9.4286 9032.30 8916.90 108.80
1937 9.4324 8724.90 8915.09 104.90
1938 9.4361 8895.20 8913.27 107.60
1939 9.4399 8690.10 8911.45 106.30
1940 9.4436 8918.30 8909.63 107.30
1941 9.4474 8805.70 8907.81 107.10
1942 9.4512 8974.80 8905.99 107.90
1943 9.4549 8553.10 8904.17 105.20
1944 9.4587 8938.00 8902.35 107.80
1945 9.4624 8773.70 8900.53 106.80
1946 9.4662 8911.80 8898.70 105.90
1947 9.4700 8682.30 8896.88 105.30
1948 9.4737 8974.20 8895.06 109.50
1949 9.4775 8793.70 8893.23 106.80
1950 9.4812 8989.00 8891.41 108.20
1951 9.4850 8651.40 8889.58 106.10
1952 9.4888 9002.40 8887.75 108.80
1953 9.4925 8475.50 8885.92 105.10
1954 9.4963 8890.00 8884.09 107.60
1955 9.5000 8642.90 8882.26 105.30
1956 9.5038 8900.80 8880.43 109.10
1957 9.5076 8699.80 8878.60 106.60
1958 9.5113 8883.60 8876.77 107.70
1959 9.5151 8918.30 8874.93 108.70
1960 9.5189 8998.90 8873.10 108.80
1961 9.5226 8729.00 8871.27 106.40
1962 9.5264 9059.60 8869.43 108.80
1963 9.5301 8752.20 8867.60 107.40
1964 9.5339 9022.80 8865.76 108.30
1965 9.5377 8904.40 8863.92 107.40
1966 9.5414 8782.70 8862.08 106.50
1967 9.5452 8831.90 8860.25 107.20
1968 9.5489 9042.80 8858.41 108.90
1969 9.5527 8758.70 8856.57 107.30
1970 9.5564 8982.20 8854.72 108.70
1971 9.5602 8813.40 8852.88 106.90
1972 9.5640 8853.50 8851.04 107.00
1973 9.5677 8900.70 8849.19 107.40
1974 9.5715 8998.40 8847.35 107.60
1975 9.5753 8775.40 8845.50 107.50
1976 9.5790 8834.00 8843.66 106.90
1977 9.5828 8690.50 8841.81 106.30
1978 9.5865 8865.60 8839.96 106.90
1979 9.5903 8866.20 8838.12 107.90
1980 9.5941 8992.80 8836.27 112.10
1981 9.5978 8846.10 8834.42 108.50
1982 9.6016 8965.90 8832.57 108.90
1983 9.6053 8976.30 8830.72 112.90
1984 9.6091 9227.20 8828.87 113.00
1985 9.6129 8771.50 8827.01 108.60
1986 9.6166 8870.60 8825.16 109.40
1987 9.6204 8858.50 8823.30 110.30
1988 9.6242 9083.80 8821.45 112.40
1989 9.6279 8938.80 8819.59 110.20
1990 9.6317 9124.90 8817.74 110.80
1991 9.6354 8981.20 8815.88 111.20
1992 9.6392 9134.60 8814.02 111.00
1993 9.6430 8772.30 9076.72 109.10
1994 9.6467 9065.80 9087.85 110.30
1995 9.6505 8979.60 9099.95 110.60
1996 9.6542 8944.80 9113.14 110.00
1997 9.6580 8943.70 9127.52 109.50
1998 9.6617 9155.50 9143.21 109.20
1999 9.6655 9120.60 9160.39 110.90
2000 9.6693 9180.50 9179.20 111.30
2001 9.6730 8985.40 9199.83 112.20
2002 9.6768 9172.00 9222.54 109.70
2003 9.6806 8912.10 9247.61 109.40
2004 9.6843 9142.50 9275.24 109.60
2005 9.6881 9058.10 9305.83 111.60
2006 9.6918 9356.50 9339.79 112.50
2007 9.6956 9082.60 9377.60 112.30
2008 9.6994 9330.40 9419.84 113.40
2009 9.7031 9359.40 9467.18 112.60
2010 9.7069 9336.10 9520.44 113.00
2011 9.7106 9438.60 9580.62 113.70
2012 9.7144 9699.40 9648.90 116.40
2013 9.7182 9601.70 9726.74 115.90
2014 9.7219 9893.70 9816.01 116.30
2015 9.7257 9878.10 9918.92 115.80
2016 9.7294 9982.70 10038.30 118.00
2017 9.7332 9938.80 10177.90 117.70
2018 9.7370 10415.60 10342.80 119.60
2019 9.7407 10272.70 10538.30 118.80
2020 9.7445 10945.90 10772.80 124.00
2021 9.7483 10854.10 11057.30 123.20
2022 9.7520 11484.90 11406.80 125.40
2023 9.7558 11694.00 11841.90 129.20
2024 9.7595 12521.60 12392.80 133.00
2025 9.7633 13004.80 13104.80 137.60
2026 9.7670 14560.10 14051.40 145.70
2027 9.7708 15533.50 15374.80 150.60
2028 9.7746 18312.70 17383.10 164.40
2029 9.7783 21852.30 20747.30 186.10
2030 9.7821 28484.40 26759.30 214.20
2031 9.7858 38235.80 37352.10 259.80
2032 9.7896 56676.40 54403.30 332.40
2033 9.7934 79987.80 77977.00 412.00
2034 9.7971 109154.00 102855.00 515.60
2035 9.8009 120480.00 115210.00 541.90
2036 9.8047 117184.00 105166.00 530.70
2037 9.8084 89288.10 81420.60 446.20
2038 9.8122 60228.30 57427.00 341.90
2039 9.8159 38216.70 39455.60 256.00
2040 9.8197 27344.20 28036.70 209.60
2041 9.8235 20585.80 21463.50 180.30
2042 9.8272 17746.30 17778.40 164.20
2043 9.8310 15134.90 15602.70 146.40
2044 9.8347 14240.80 14191.50 144.10
2045 9.8385 12987.00 13193.20 136.90
2046 9.8423 12379.80 12447.00 133.00
2047 9.8460 11833.50 11871.30 127.10
2048 9.8498 11331.60 11416.90 125.60
2049 9.8535 10986.60 11052.30 123.70
2050 9.8573 10828.00 10754.70 123.00
2051 9.8611 10730.50 10509.80 123.40
2052 9.8648 10518.20 10305.40 121.20
2053 9.8686 10178.80 10133.00 118.20
2054 9.8723 10417.60 9986.22 118.30
2055 9.8761 9899.60 9860.26 115.60
2056 9.8799 9933.40 9751.30 115.80
2057 9.8836 9819.90 9656.39 116.10
2058 9.8874 9962.20 9573.17 116.30
2059 9.8912 9626.70 9499.79 114.50
2060 9.8949 9890.00 9434.71 117.10
2061 9.8987 9427.70 9376.70 113.00
2062 9.9024 9616.10 9324.75 112.90
2063 9.9062 9168.20 9278.01 112.10
2064 9.9100 9282.20 9235.80 110.30
2065 9.9137 9161.10 9197.51 111.60
2066 9.9175 9262.90 9162.67 112.70
2067 9.9212 9202.50 9130.84 111.30
2068 9.9250 9330.00 9101.60 113.60
2069 9.9288 9048.70 9074.79 112.20
2070 9.9325 9357.80 9050.08 112.60
2071 9.9363 9057.80 9027.23 110.40
2072 9.9400 9169.00 9006.04 111.70
2073 9.9438 8955.00 8986.35 109.20
2074 9.9476 9140.10 8968.00 110.80
2075 9.9513 8993.30 8950.87 110.40
2076 9.9551 9074.30 8934.82 111.50
2077 9.9588 9068.10 8919.77 111.70
2078 9.9626 9089.60 8905.62 111.30
2079 9.9664 8750.00 8649.44 107.50
2080 9.9701 9163.00 8647.51 111.60
2081 9.9739 8876.40 8645.59 109.20
2082 9.9776 8989.50 8643.66 109.60
2083 9.9814 8932.00 8641.73 110.50
2084 9.9852 9031.10 8639.80 112.30
2085 9.9889 8607.60 8637.87 106.60
2086 9.9927 8995.50 8635.94 110.70
2087 9.9964 8693.10 8634.01 107.50
2088 10.0002 8921.70 8632.06 109.70
2089 10.0040 8936.00 8630.16 110.60
2090 10.0077 9082.80 8628.20 111.50
2091 10.0114 8852.10 8626.30 109.00
2092 10.0153 8935.70 8624.34 108.40
2093 10.0190 8833.70 8622.39 109.30
2094 10.0227 9021.80 8620.48 109.80
2095 10.0266 8813.80 8618.53 110.00
2096 10.0302 8889.50 8616.62 109.80
2097 10.0340 8631.40 8614.66 109.60
2098 10.0379 8802.80 8612.70 109.40
2099 10.0415 8712.10 8610.79 108.30
2100 10.0454 8873.60 8608.83 107.90
2101 10.0491 8742.00 8606.92 108.50
2102 10.0528 9137.60 8604.96 112.80
2103 10.0567 8820.70 8603.00 108.00
2104 10.0604 8816.50 8601.08 109.70
2105 10.0641 8684.40 8599.12 108.80
2106 10.0679 8996.40 8597.20 112.40
2107 10.0716 8882.30 8595.24 112.10
2108 10.0754 8879.00 8593.27 109.70
2109 10.0792 8768.50 8591.36 109.20
2110 10.0829 8947.30 8589.39 110.70
2111 10.0866 8729.90 8587.47 108.10
2112 10.0905 8897.30 8585.50 109.80
2113 10.0942 8695.40 8583.53 108.30
2114 10.0979 8967.80 8581.61 111.30
2115 10.1018 8724.20 8579.64 109.30
2116 10.1054 9183.70 8577.71 111.80
2117 10.1093 8784.90 8575.74 108.30
2118 10.1131 8942.30 8573.77 110.60
2119 10.1167 8745.90 8571.84 109.70
2120 10.1206 8955.80 8569.87 111.10
2121 10.1243 8642.70 8567.94 107.30
2122 10.1280 8901.20 8565.96 109.50
2123 10.1319 8488.80 8563.98 106.00
2124 10.1355 8804.10 8562.06 110.00
2125 10.1393 8731.40 8560.08 109.20
2126 10.1432 8898.10 8558.09 110.20
2127 10.1468 8573.70 8556.17 107.30
2128 10.1507 8900.10 8554.18 112.30
2129 10.1544 8716.50 8552.25 109.60
2130 10.1581 8783.20 8550.27 108.30
2131 10.1620 8768.30 8548.28 110.20
2132 10.1657 8735.50 8546.35 109.30
2133 10.1694 8623.00 8544.36 109.80
2134 10.1732 8786.90 8542.43 110.10
2135 10.1770 8686.70 8540.44 108.80
2136 10.1807 8985.50 8538.45 110.80
2137 10.1845 8761.00 8536.52 109.20
2138 10.1882 8863.40 8534.53 109.80
2139 10.1919 8825.20 8532.59 109.00
2140 10.1958 8914.40 8530.60 110.30
2141 10.1995 8757.60 8528.61 109.30
2142 10.2032 8872.30 8526.66 110.10
2143 10.2071 8641.40 8524.67 109.00
2144 10.2107 9016.90 8522.73 111.30
2145 10.2146 8672.70 8520.73 109.70
2146 10.2184 8852.20 8518.74 109.70
2147 10.2220 8699.40 8516.79 107.60
2148 10.2259 8814.70 8514.79 110.60
2149 10.2296 8564.90 8512.85 107.00
2150 10.2333 9033.20 8510.85 112.40
2151 10.2372 8770.90 8508.85 108.70
2152 10.2409 9011.60 8506.90 110.20
2153 10.2446 8790.70 8504.90 111.20
2154 10.2484 8888.90 8502.95 109.90
2155 10.2521 8661.80 8500.95 107.00
2156 10.2559 8796.10 8498.95 110.30
2157 10.2597 8667.10 8496.99 107.40
2158 10.2634 8683.90 8494.99 108.50
2159 10.2671 8643.70 8493.04 109.10
2160 10.2710 8976.70 8491.03 108.50
2161 10.2747 8828.60 8489.02 109.40
2162 10.2785 8901.10 8487.07 111.40
2163 10.2823 8688.50 8485.06 110.50
2164 10.2859 8948.20 8483.10 110.20
2165 10.2898 8782.20 8481.09 110.40
2166 10.2935 8971.30 8479.08 111.90
2167 10.2972 8558.00 8477.12 105.90
2168 10.3011 8869.90 8475.11 110.30
2169 10.3048 8466.00 8473.15 108.00
2170 10.3085 8790.60 8471.13 109.80
2171 10.3124 8860.10 8469.12 109.70
2172 10.3160 8879.90 8467.16 110.70
2173 10.3198 8626.60 8465.14 109.10
2174 10.3236 8791.50 8463.18 110.30
2175 10.3273 8543.10 8461.16 107.70
2176 10.3312 8983.00 8459.14 112.30
2177 10.3349 8795.50 8457.17 110.10
2178 10.3386 8827.00 8455.16 111.50
2179 10.3424 8586.20 8453.19 108.20
2180 10.3462 8783.90 8451.16 109.20
2181 10.3499 8552.80 8449.14 108.20
2182 10.3537 8953.20 8447.17 112.50
2183 10.3574 8629.80 8445.15 108.50
2184 10.3611 8789.50 8443.18 110.20
2185 10.3650 8693.50 8441.15 107.30
2186 10.3687 8895.70 8439.13 111.40
2187 10.3724 8693.10 8437.15 109.20
2188 10.3763 8722.60 8435.13 110.40
2189 10.3799 8783.10 8433.15 110.20
2190 10.3837 8898.10 8431.12 110.60
2191 10.3876 8649.40 8429.09 110.60
2192 10.3912 8911.50 8427.12 111.10
2193 10.3951 8711.50 8425.09 110.70
2194 10.3988 8931.10 8423.11 111.10
2195 10.4025 8659.60 8421.07 109.10
2196 10.4064 8838.10 8419.04 110.20
2197 10.4101 8618.20 8417.06 110.20
2198 10.4138 9100.70 8415.03 112.10
2199 10.4176 8525.20 8413.04 108.80
2200 10.4213 9019.80 8411.01 112.40
2201 10.4251 8620.50 8408.97 110.10
2202 10.4289 8723.00 8406.99 107.70
2203 10.4326 8566.10 8404.95 108.50
2204 10.4363 8607.80 8402.96 110.10
2205 10.4402 8653.20 8400.92 108.00
2206 10.4439 8883.80 8398.88 109.40
2207 10.4476 8684.70 8396.89 109.80
2208 10.4515 8895.50 8394.85 112.40
2209 10.4551 8724.60 8392.86 109.00
2210 10.4590 8822.00 8390.82 110.30
2211 10.4628 8522.20 8388.78 108.80
2212 10.4664 8878.40 8386.78 111.20
2213 10.4703 8664.60 8384.74 108.70
2214 10.4740 8831.60 8382.75 110.00
2215 10.4777 8601.40 8380.70 109.80
2216 10.4816 8705.70 8378.65 109.00
2217 10.4853 8678.60 8376.66 109.80
2218 10.4890 8770.00 8374.61 111.80
2219 10.4928 8567.60 8372.61 109.40
2220 10.4965 8818.10 8370.56 109.50
2221 10.5003 8557.10 8368.51 110.50
2222 10.5041 8804.80 8366.51 110.20
2223 10.5078 8771.20 8364.46 109.10
2224 10.5115 8965.00 8362.46 112.10
2225 10.5154 8431.40 8360.40 106.90
2226 10.5191 8763.70 8358.35 109.00
2227 10.5229 8667.60 8356.35 111.00
2228 10.5267 8792.60 8354.29 112.00
2229 10.5303 8642.50 8352.29 109.00
2230 10.5342 8977.50 8350.23 112.70
2231 10.5379 8644.70 8348.17 111.20
2232 10.5416 8705.50 8346.16 110.20
2233 10.5455 8517.30 8344.10 106.90
2234 10.5492 8975.20 8342.10 112.50
2235 10.5529 8532.00 8340.04 109.20
2236 10.5567 8799.30 8338.03 108.20
2237 10.5604 8624.50 8335.96 106.20
2238 10.5642 8705.50 8333.90 107.30
2239 10.5680 8570.70 8331.89 106.70
2240 10.5717 8746.50 8329.83 107.40
2241 10.5754 8557.20 8327.82 106.20
2242 10.5793 8747.20 8325.75 108.00
2243 10.5830 8363.00 8323.68 104.50
2244 10.5868 8798.20 8321.67 107.40
2245 10.5906 8889.40 8319.60 108.90
2246 10.5942 8895.20 8317.58 107.60
2247 10.5981 8450.30 8315.51 104.10
2248 10.6018 8715.70 8313.44 108.20
2249 10.6055 8613.00 8311.43 104.40
2250 10.6094 8837.00 8309.35 108.50
2251 10.6131 8504.40 8307.33 105.30
2252 10.6168 8721.00 8305.26 108.20
2253 10.6207 8476.40 8303.19 105.20
2254 10.6243 8650.20 8301.17 107.00
2255 10.6281 8699.00 8299.09 108.30
2256 10.6319 8774.50 8297.07 107.70
2257 10.6356 8679.00 8294.99 107.50
2258 10.6395 8792.60 8292.91 108.90
2259 10.6432 8601.80 8290.89 106.60
2260 10.6469 8812.50 8288.81 108.00
2261 10.6507 8321.50 8286.79 104.30
2262 10.6545 8766.30 8284.71 107.40
2263 10.6582 8589.80 8282.62 106.20
2264 10.6620 8708.90 8280.60 108.00
2265 10.6657 8703.30 8278.51 107.60
2266 10.6694 8828.20 8276.48 106.30
2267 10.6733 8660.30 8274.40 105.10
2268 10.6770 8576.80 8272.32 105.30
2269 10.6807 8606.10 8270.29 107.40
2270 10.6846 8596.20 8268.20 105.80
2271 10.6882 8400.60 8266.17 105.40
2272 10.6920 8796.50 8264.08 107.10
2273 10.6958 8592.80 8262.04 106.50
2274 10.6995 8700.90 8259.96 105.90
2275 10.7034 8590.60 8257.87 106.30
2276 10.7071 8813.70 8255.83 108.10
2277 10.7108 8506.00 8253.74 106.20
2278 10.7146 8826.20 8251.70 108.10
2279 10.7184 8639.60 8249.61 106.90
2280 10.7221 8913.80 8247.52 109.00
2281 10.7259 8576.10 8245.48 105.30
2282 10.7296 8829.80 8243.38 108.00
2283 10.7333 8603.80 8241.34 107.10
2284 10.7372 8821.40 8239.25 107.50
2285 10.7409 8653.30 8237.15 106.90
2286 10.7446 8840.80 8235.11 107.80
2287 10.7485 8542.20 8233.01 106.10
2288 10.7521 8781.90 8230.97 106.40
2289 10.7559 8636.10 8228.87 108.30
2290 10.7598 8770.10 8226.77 107.40
2291 10.7634 8519.30 8224.72 107.80
2292 10.7673 8760.30 8222.62 107.20
2293 10.7710 8508.30 8220.58 106.20
2294 10.7747 8838.20 8218.47 107.40
2295 10.7785 8498.40 8216.42 105.40
2296 10.7823 8552.30 8214.32 105.90
2297 10.7860 8599.20 8212.21 104.30
2298 10.7898 8670.00 8210.17 107.40
2299 10.7935 8705.40 8208.06 107.00
2300 10.7972 8750.10 8206.01 107.20
2301 10.8011 8447.30 8203.90 106.40
2302 10.8048 8806.10 8201.79 109.70
2303 10.8085 8455.90 8199.74 104.10
2304 10.8124 8694.70 8197.63 108.10
2305 10.8160 8569.60 8195.57 106.30
2306 10.8198 8759.90 8193.46 108.00
2307 10.8237 8510.00 8191.35 106.10
2308 10.8273 8734.50 8189.29 107.60
2309 10.8312 8415.00 8187.18 104.90
2310 10.8349 8789.70 8185.12 106.80
2311 10.8386 8765.30 8183.01 107.20
2312 10.8425 8438.30 8180.89 104.20
2313 10.8462 8621.70 8178.83 107.30
2314 10.8499 8828.30 8176.72 108.10
2315 10.8537 8595.60 8174.66 106.00
2316 10.8574 8820.40 8172.54 107.00
2317 10.8611 8582.20 8170.48 106.50
2318 10.8650 8709.90 8168.36 107.40
2319 10.8687 8404.20 8166.24 105.80
2320 10.8724 8803.00 8164.17 107.90
2321 10.8763 8412.50 8162.05 103.90
2322 10.8799 8740.60 8159.99 107.90
2323 10.8837 8562.20 8157.86 106.80
2324 10.8876 8815.20 8155.74 108.50
2325 10.8912 8499.20 8153.67 105.20
2326 10.8951 8807.40 8151.55 109.10
2327 10.8988 8520.10 8149.48 106.40
2328 10.9025 8692.40 8147.35 108.40
2329 10.9064 8635.10 8145.23 105.90
2330 10.9101 8781.10 8143.16 108.70
2331 10.9138 8625.70 8141.03 107.00
2332 10.9176 8880.10 8138.96 109.50
2333 10.9213 8405.80 8136.83 104.60
2334 10.9250 8900.30 8134.76 108.90
2335 10.9289 8367.40 8132.63 104.60
2336 10.9326 8555.20 8130.50 106.80
2337 10.9363 8333.40 8128.42 104.50
2338 10.9402 8737.30 8126.29 107.20
2339 10.9438 8523.90 8124.21 107.20
2340 10.9476 8580.90 8122.08 106.90
2341 10.9515 8474.80 8119.94 107.00
2342 10.9551 8642.10 8117.86 108.20
2343 10.9590 8498.50 8115.73 105.70
2344 10.9627 8685.20 8113.65 107.40
2345 10.9664 8465.60 8111.51 106.10
2346 10.9701 8637.30 8109.43 108.30
2347 10.9740 8424.40 8107.29 107.10
2348 10.9777 8736.20 8105.16 106.10
2349 10.9815 8471.40 8103.07 107.40
2350 10.9853 8845.60 8100.93 109.10
2351 10.9889 8514.20 8098.85 106.50
2352 10.9928 8657.10 8096.71 106.60
2353 10.9965 8520.10 8094.57 107.90
2354 11.0002 8719.70 8092.48 109.90
2355 11.0041 8653.60 8090.34 108.50
2356 11.0077 8653.50 8088.25 108.20
2357 11.0115 8503.60 8086.11 107.00
2358 11.0153 8574.90 8084.02 106.70
2359 11.0190 8537.20 8081.87 107.30
2360 11.0229 8834.80 8079.73 109.40
2361 11.0266 8539.80 8077.63 106.70
2362 11.0303 8640.00 8075.49 108.60
2363 11.0340 8607.80 8073.40 109.40
2364 11.0379 8610.00 8071.25 106.20
2365 11.0416 8578.40 8069.10 106.30
2366 11.0454 8670.40 8067.00 106.90
2367 11.0492 8505.70 8064.85 105.70
2368 11.0528 8634.10 8062.76 105.50
2369 11.0567 8520.90 8060.61 106.70
2370 11.0604 8770.60 8058.51 107.20
2371 11.0641 8441.60 8056.36 104.70
2372 11.0680 8653.80 8054.20 105.90
2373 11.0716 8529.90 8052.10 105.70
2374 11.0754 8431.40 8049.95 103.90
2375 11.0792 8361.60 8047.85 105.30
2376 11.0829 8661.20 8045.69 106.90
2377 11.0868 8444.20 8043.54 106.50
2378 11.0905 8652.40 8041.44 107.30
2379 11.0942 8458.20 8039.28 106.10
2380 11.0979 8659.50 8037.18 109.10
2381 11.1018 8495.30 8035.02 106.60
2382 11.1054 8626.90 8032.92 106.50
2383 11.1093 8511.30 8030.75 106.60
2384 11.1131 8567.20 8028.59 105.70
2385 11.1167 8301.40 8026.49 101.50
2386 11.1206 8592.10 8024.33 108.90
2387 11.1243 8415.90 8022.22 105.80
2388 11.1280 8621.30 8020.06 106.50
2389 11.1319 8520.50 8017.89 106.60
2390 11.1355 8632.90 8015.78 107.90
2391 11.1393 8425.40 8013.62 105.70
2392 11.1431 8946.60 8011.51 108.50
2393 11.1468 8441.50 8009.34 105.50
2394 11.1505 8552.10 8007.23 105.80
2395 11.1544 8561.50 8005.06 107.40
2396 11.1581 8463.50 8002.90 105.60
2397 11.1618 8509.70 8000.78 107.50
2398 11.1657 8641.30 7998.61 107.40
2399 11.1693 8494.60 7996.50 106.50
2400 11.1732 8629.30 7994.33 107.80
2401 11.1769 8502.00 7992.22 106.10
2402 11.1806 8643.60 7990.04 107.50
2403 11.1845 8544.50 7987.87 105.60
2404 11.1882 8866.30 7985.75 110.30
2405 11.1919 8609.20 7983.58 107.80
2406 11.1957 8542.30 7981.46 107.20
2407 11.1994 8523.00 7979.29 105.50
2408 11.2031 8327.00 7977.17 105.10
2409 11.2070 8538.40 7974.99 107.40
2410 11.2107 8661.20 7972.81 107.50
2411 11.2144 8361.50 7970.69 105.30
2412 11.2183 8660.70 7968.52 107.00
2413 11.2219 8710.00 7966.40 108.30
2414 11.2257 8728.10 7964.22 108.20
2415 11.2296 8409.90 7962.04 107.20
2416 11.2332 8680.90 7959.91 109.30
2417 11.2371 8527.80 7957.73 106.60
2418 11.2408 8646.30 7955.61 108.60
2419 11.2445 8419.00 7953.43 106.30
2420 11.2483 8661.20 7951.30 108.70
2421 11.2521 8411.80 7949.12 106.80
2422 11.2558 8742.50 7946.93 108.60
2423 11.2596 8296.40 7944.80 106.10
2424 11.2633 8779.10 7942.62 109.70
2425 11.2670 8610.30 7940.49 107.00
2426 11.2709 8620.20 7938.30 107.80
2427 11.2746 8380.20 7936.17 105.30
2428 11.2783 8544.20 7933.99 106.80
2429 11.2822 8405.20 7931.80 106.60
2430 11.2858 8601.20 7929.67 108.20
2431 11.2896 8505.70 7927.48 106.70
2432 11.2934 8581.10 7925.35 106.50
2433 11.2971 8328.70 7923.16 105.70
2434 11.3008 8369.60 7921.02 106.20
2435 11.3047 8521.10 7918.83 107.30
2436 11.3084 8519.40 7916.64 108.30
2437 11.3122 8490.40 7914.50 107.50
2438 11.3160 8653.90 7912.31 108.20
2439 11.3196 8424.60 7910.17 106.60
2440 11.3235 8532.70 7907.98 107.40
2441 11.3272 8523.90 7905.84 107.50
2442 11.3309 8498.30 7903.65 105.40
2443 11.3348 8350.60 7901.45 105.40
2444 11.3385 8651.80 7899.31 108.30
2445 11.3422 8413.30 7897.12 107.30
2446 11.3460 8599.10 7894.97 107.50
2447 11.3497 8488.40 7892.78 107.20
2448 11.3534 8455.90 7890.64 107.20
2449 11.3573 8253.50 7888.44 104.70
2450 11.3610 8476.30 7886.23 107.20
2451 11.3647 8429.10 7884.09 106.10
2452 11.3686 8453.40 7881.89 105.30
2453 11.3722 8317.70 7879.75 106.10
2454 11.3760 8502.50 7877.55 106.40
2455 11.3798 8253.90 7875.40 105.00
2456 11.3835 8531.60 7873.20 106.50
2457 11.3874 8296.40 7870.99 106.40
2458 11.3911 8430.40 7868.85 104.10
2459 11.3948 8288.90 7866.64 106.30
2460 11.3986 8427.20 7864.49 105.80
2461 11.4024 8326.80 7862.29 106.10
2462 11.4060 8614.80 7860.14 108.20
2463 11.4099 8304.00 7857.93 106.50
2464 11.4136 8559.80 7855.72 106.80
2465 11.4173 8352.00 7853.57 107.00
2466 11.4212 8544.10 7851.36 107.20
2467 11.4249 8413.20 7849.21 106.50
2468 11.4286 8628.20 7847.00 107.40
2469 11.4324 8325.30 7844.85 104.70
2470 11.4361 8638.10 7842.64 108.90
2471 11.4399 8496.80 7840.43 107.00
2472 11.4437 8540.10 7838.27 106.50
2473 11.4474 8118.10 7836.06 103.70
2474 11.4511 8674.60 7833.91 108.70
2475 11.4550 8220.90 7831.69 104.80
2476 11.4586 8654.80 7829.53 108.90
2477 11.4625 8464.50 7827.32 107.90
2478 11.4663 8521.10 7825.11 108.00
2479 11.4699 8333.30 7822.95 107.00
2480 11.4738 8452.30 7820.73 105.60
2481 11.4775 8393.30 7818.57 107.00
2482 11.4812 8564.50 7816.35 107.90
2483 11.4850 8345.40 7814.19 106.50
2484 11.4888 8429.00 7811.98 102.50
2485 11.4924 8227.50 7809.81 106.50
2486 11.4963 8518.30 7807.60 105.40
2487 11.5000 8302.80 7805.37 106.30
2488 11.5037 8524.70 7803.21 108.70
2489 11.5076 8375.80 7800.99 106.60
2490 11.5112 8324.90 7798.83 106.30
2491 11.5150 8326.50 7796.61 114.50
2492 11.5188 8400.80 7794.44 103.50
2493 11.5225 8305.50 7792.22 103.10
2494 11.5264 8517.70 7789.99 105.80
2495 11.5301 8257.00 7787.83 102.20
2496 11.5338 8407.40 7785.60 105.30
2497 11.5375 8278.70 7783.44 102.00
2498 11.5414 8458.20 7781.21 105.50
2499 11.5450 8086.90 7779.04 101.70
2500 11.5489 8353.20 7776.81 102.50
2501 11.5526 8082.80 7774.65 101.00
2502 11.5563 8159.90 7772.42 103.70
2503 11.5602 8374.60 7770.19 102.90
2504 11.5639 8416.40 7768.02 103.10
2505 11.5676 8208.50 7765.79 103.20
2506 11.5714 8357.70 7763.62 104.80
2507 11.5751 8216.60 7761.39 103.30
2508 11.5788 8408.60 7759.21 103.70
2509 11.5827 8177.50 7756.98 102.90
2510 11.5864 8336.60 7754.75 104.20
2511 11.5901 8458.10 7752.58 104.60
2512 11.5940 8531.50 7750.34 104.40
2513 11.5976 8263.50 7748.17 102.50
2514 11.6014 8397.30 7745.93 105.30
2515 11.6052 8222.30 7743.76 104.10
2516 11.6089 8485.20 7741.52 103.80
2517 11.6126 8266.60 7739.35 102.40
2518 11.6165 8337.30 7737.11 104.10
2519 11.6202 8172.70 7734.87 102.50
2520 11.6240 8467.90 7732.70 105.10
2521 11.6278 8449.40 7730.46 106.10
2522 11.6314 8667.90 7728.28 107.40
2523 11.6353 8221.50 7726.04 103.90
2524 11.6390 8449.80 7723.86 105.00
2525 11.6427 8103.10 7721.62 102.60
2526 11.6466 8436.30 7719.38 103.70
2527 11.6503 8123.80 7717.20 101.70
2528 11.6540 8257.80 7714.96 104.30
2529 11.6578 8241.10 7712.77 104.00
2530 11.6615 8476.00 7710.53 105.60
2531 11.6652 8204.60 7708.35 103.40
2532 11.6691 8364.20 7706.10 104.30
2533 11.6728 8268.70 7703.92 104.10
2534 11.6765 8475.50 7701.68 105.60
2535 11.6804 8203.20 7699.43 103.10
2536 11.6840 8472.10 7697.25 104.60
2537 11.6878 8271.20 7695.00 103.90
2538 11.6916 8539.40 7692.81 104.80
2539 11.6953 8164.10 7690.57 103.10
2540 11.6990 8355.20 7688.38 103.90
2541 11.7029 8319.30 7686.13 104.20
2542 11.7065 8279.10 7683.94 103.90
2543 11.7104 8159.80 7681.69 103.60
2544 11.7142 8240.20 7679.44 103.00
2545 11.7178 8172.00 7677.26 103.90
2546 11.7217 8418.40 7675.00 104.90
2547 11.7254 8206.80 7672.81 102.40
2548 11.7291 8442.50 7670.56 105.00
2549 11.7329 8303.50 7668.37 103.80
2550 11.7367 8351.10 7666.12 104.80
2551 11.7403 8209.80 7663.93 102.60
2552 11.7442 8512.10 7661.67 104.20
2553 11.7479 8053.80 7659.42 102.40
2554 11.7516 8236.20 7657.23 102.40
2555 11.7555 8337.50 7654.97 103.70
2556 11.7591 8371.70 7652.78 104.40
2557 11.7629 8033.60 7650.52 102.40
2558 11.7667 8341.80 7648.33 104.10
2559 11.7704 8150.90 7646.07 101.70
2560 11.7741 8289.80 7643.87 103.80
2561 11.7780 8160.10 7641.62 102.20
2562 11.7816 8223.40 7639.42 103.00
2563 11.7854 8177.70 7637.16 102.90
2564 11.7893 8320.30 7634.90 103.20
2565 11.7929 8235.90 7632.70 104.00
2566 11.7968 8175.70 7630.44 102.70
2567 11.8005 8089.00 7628.24 101.70
2568 11.8042 8170.60 7625.98 101.30
2569 11.8080 8054.10 7623.78 101.60
2570 11.8118 8265.70 7621.52 102.70
2571 11.8154 8153.10 7619.32 102.40
2572 11.8193 8269.80 7617.06 103.00
2573 11.8230 8070.10 7614.80 101.60
2574 11.8267 8175.90 7612.59 103.00
2575 11.8306 8194.50 7610.33 102.80
2576 11.8343 8149.20 7608.13 103.30
2577 11.8380 7992.40 7605.86 100.80
2578 11.8418 8150.70 7603.66 102.20
2579 11.8455 7996.40 7601.39 100.90
2580 11.8492 8159.50 7599.19 102.40
2581 11.8531 8047.00 7596.92 101.70
2582 11.8567 8050.10 7594.71 101.50
2583 11.8605 7901.80 7592.45 100.50
2584 11.8644 8209.30 7590.18 102.30
2585 11.8680 7947.40 7587.97 100.80
2586 11.8719 8160.40 7585.70 102.60
2587 11.8756 7977.00 7583.50 101.40
2588 11.8793 8066.50 7581.23 101.60
2589 11.8830 7951.20 7579.02 101.60
2590 11.8869 8065.90 7576.75 101.20
2591 11.8905 8024.10 7574.54 100.90
2592 11.8944 7956.70 7572.27 101.20
2593 11.8981 8000.50 7570.06 102.00
2594 11.9018 8144.70 7567.78 100.80
2595 11.9057 7921.50 7565.51 102.00
2596 11.9094 8099.50 7563.30 101.60
2597 11.9131 7840.00 7561.03 99.20
2598 11.9169 8027.50 7558.81 101.20
2599 11.9206 7920.60 7556.54 101.70
2600 11.9243 8041.20 7554.33 101.30
2601 11.9282 7850.90 7552.05 100.20
2602 11.9319 8005.70 7549.84 101.10
2603 11.9356 7911.10 7547.56 100.20
2604 11.9394 8013.00 7545.35 102.00
2605 11.9431 8049.50 7543.07 101.30
2606 11.9469 8095.30 7540.79 102.50
2607 11.9507 8005.20 7538.58 101.40
2608 11.9544 8187.70 7536.30 102.20
2609 11.9581 7791.70 7534.08 99.60
2610 11.9620 8049.70 7531.80 100.90
2611 11.9656 7668.70 7529.58 99.40
2612 11.9694 8046.40 7527.31 102.10
2613 11.9732 7948.50 7525.09 100.70
2614 11.9769 8035.00 7522.81 100.50
2615 11.9785 7848.90 7521.85 104.00
2616 11.9824 8129.50 7519.57 102.90
2617 11.9860 7856.30 7517.35 103.30
2618 11.9899 8111.10 7515.06 105.90
2619 11.9936 7928.00 7512.84 103.60
2620 11.9973 7860.00 7510.56 103.20
2621 12.0010 8002.60 7508.34 112.30
2622 12.0049 8041.10 7506.06 101.20
2623 12.0086 7885.70 7503.77 100.40
2624 12.0124 8091.70 7501.55 103.00
2625 12.0162 8010.20 7499.27 100.70
2626 12.0198 8068.60 7497.04 103.10
2627 12.0237 7911.60 7494.76 99.70
2628 12.0274 8068.10 7492.53 103.00
2629 12.0311 7934.00 7490.25 100.90
2630 12.0349 8093.80 7488.02 100.90
2631 12.0386 7834.20 7485.73 99.40
2632 12.0424 8092.20 7483.45 103.50
2633 12.0462 7874.40 7481.22 99.60
2634 12.0499 8123.10 7478.93 101.30
2635 12.0536 8059.90 7476.71 102.40
2636 12.0575 7870.20 7474.42 101.50
2637 12.0611 8012.80 7472.19 102.10
2638 12.0649 8086.50 7469.90 101.70
2639 12.0687 7776.70 7467.67 100.30
2640 12.0724 7954.20 7465.38 101.80
2641 12.0763 7917.70 7463.09 101.00
2642 12.0800 8123.20 7460.86 101.90
2643 12.0837 7803.30 7458.57 99.50
2644 12.0875 7922.40 7456.34 102.20
2645 12.0913 7714.80 7454.05 100.70
2646 12.0949 7915.80 7451.82 100.10
2647 12.0988 7767.10 7449.52 99.10
2648 12.1025 7965.40 7447.23 101.70
2649 12.1062 7859.30 7445.00 100.60
2650 12.1101 7962.30 7442.70 101.80
2651 12.1138 8096.40 7440.47 103.90
2652 12.1175 8123.00 7438.18 103.80
2653 12.1213 8027.20 7435.94 102.70
2654 12.1250 8224.00 7433.65 103.60
2655 12.1287 7850.00 7431.41 101.00
2656 12.1326 7982.50 7429.12 100.70
2657 12.1363 7939.60 7426.82 100.70
2658 12.1400 7931.90 7424.58 102.20
2659 12.1439 7953.60 7422.29 102.20
2660 12.1475 8091.60 7420.05 103.10
2661 12.1514 8025.90 7417.75 102.40
2662 12.1551 7917.50 7415.52 101.40
2663 12.1588 7857.60 7413.22 101.40
2664 12.1625 7887.50 7410.98 101.70
2665 12.1664 7843.30 7408.68 100.80
2666 12.1701 7944.50 7406.38 101.10
2667 12.1739 7803.00 7404.14 100.80
2668 12.1777 7890.30 7401.84 100.50
2669 12.1813 7895.70 7399.60 101.40
2670 12.1852 8127.90 7397.30 102.60
2671 12.1889 7814.00 7395.06 100.90
2672 12.1926 7810.80 7392.76 100.80
2673 12.1964 7801.70 7390.52 101.30
2674 12.2001 7879.50 7388.22 100.70
2675 12.2039 7764.70 7385.91 101.20
2676 12.2077 8019.00 7383.67 102.30
2677 12.2086 7863.10 7383.07 99.90
2678 12.2123 8078.20 7380.82 100.30
2679 12.2162 7667.10 7378.52 98.50
2680 12.2198 8085.10 7376.28 102.90
2681 12.2236 7832.20 7373.97 100.10
2682 12.2274 8042.10 7371.73 102.00
2683 12.2311 7593.30 7369.42 98.70
2684 12.2348 7843.60 7367.18 100.80
2685 12.2387 7822.20 7364.87 100.30
2686 12.2423 8018.70 7362.63 100.80
2687 12.2462 7765.00 7360.32 100.70
2688 12.2500 7981.40 7358.02 101.20
2689 12.2536 7755.10 7355.77 99.30
2690 12.2575 7932.70 7353.46 102.20
2691 12.2612 7713.10 7351.22 98.80
2692 12.2649 8022.50 7348.91 102.70
2693 12.2687 7886.50 7346.66 101.00
2694 12.2725 7882.00 7344.35 100.70
2695 12.2761 7709.40 7342.10 99.10
2696 12.2800 7741.60 7339.79 96.80
2697 12.2837 7793.20 7337.48 100.60
2698 12.2874 7847.60 7335.24 100.70
2699 12.2913 7645.00 7332.93 99.50
2700 12.2949 8063.50 7330.68 102.90
2701 12.2987 7727.70 7328.36 99.50
2702 12.3025 7815.60 7326.11 99.50
2703 12.3062 7729.80 7323.80 99.40
2704 12.3099 7771.20 7321.55 99.80
2705 12.3138 7729.90 7319.24 99.10
2706 12.3174 7877.60 7316.99 100.60
2707 12.3212 7646.50 7314.68 100.80
2708 12.3251 7821.80 7312.36 100.30
2709 12.3287 7670.50 7310.11 100.50
2710 12.3326 7865.90 7307.80 99.60
2711 12.3363 7427.00 7305.54 97.60
2712 12.3400 7808.50 7303.23 100.60
2713 12.3438 7647.90 7300.98 99.70
2714 12.3476 7795.50 7298.66 100.10
2715 12.3512 7667.60 7296.41 98.80
2716 12.3551 8005.80 7294.09 102.10
2717 12.3588 7620.60 7291.78 98.80
2718 12.3625 7842.40 7289.52 97.90
2719 12.3664 7686.30 7287.20 99.40
2720 12.3701 7816.90 7284.95 99.80
2721 12.3738 7707.50 7282.63 99.30
2722 12.3776 7887.50 7280.38 101.30
2723 12.3813 7716.90 7278.06 99.60
2724 12.3850 7661.90 7275.80 97.80
2725 12.3889 7493.50 7273.48 98.20
2726 12.3926 7620.60 7271.16 98.60
2727 12.3963 7462.50 7268.91 98.10
2728 12.4002 7790.80 7266.59 100.70
2729 12.4038 7674.40 7264.33 99.20
2730 12.4076 7894.20 7262.01 100.10
2731 12.4114 7661.00 7259.75 99.50
2732 12.4151 7707.90 7257.43 99.20
2733 12.4188 7571.60 7255.17 98.50
2734 12.4227 7790.70 7252.85 100.00
2735 12.4264 7720.80 7250.53 99.30
2736 12.4302 7640.10 7248.27 99.30
2737 12.4340 7603.10 7245.95 99.30
2738 12.4376 7597.00 7243.69 98.30
2739 12.4415 7607.40 7241.37 98.00
2740 12.4452 7688.50 7239.10 99.10
2741 12.4489 7353.80 7236.78 97.00
2742 12.4527 7817.70 7234.52 100.40
2743 12.4565 7739.00 7232.20 99.80
2744 12.4602 7858.00 7229.87 101.30
2745 12.4640 7556.40 7227.61 99.00
2746 12.4677 7735.30 7225.29 100.00
2747 12.4714 7579.60 7223.02 98.10
2748 12.4753 7667.10 7220.70 98.60
2749 12.4789 7496.30 7218.44 98.60
2750 12.4827 7879.00 7216.11 101.20
2751 12.4865 7330.90 7213.85 97.00
2752 12.4902 7487.90 7211.52 97.80
2753 12.4941 7373.90 7209.19 97.90
2754 12.4978 7604.90 7206.93 100.00
2755 12.5015 7527.80 7204.60 97.90
2756 12.5052 7779.90 7202.34 100.70
2757 12.5091 7453.80 7200.01 97.30
2758 12.5127 7756.90 7197.75 99.70
2759 12.5166 7500.90 7195.42 98.70
2760 12.5203 7695.30 7193.15 99.30
2761 12.5240 7410.50 7190.82 98.00
2762 12.5279 7697.60 7188.50 99.10
2763 12.5316 7587.40 7186.23 99.30
2764 12.5353 7680.20 7183.90 99.60
2765 12.5391 7416.10 7181.63 97.60
2766 12.5428 7737.40 7179.30 100.20
2767 12.5465 7409.40 7177.04 98.10
2768 12.5504 7533.80 7174.70 98.50
2769 12.5541 7536.10 7172.38 98.70
2770 12.5578 7664.70 7170.11 100.00
2771 12.5617 7489.20 7167.78 98.50
2772 12.5653 7695.30 7165.51 100.00
2773 12.5691 7415.10 7163.17 97.80
2774 12.5729 7606.30 7160.91 99.80
2775 12.5766 7592.80 7158.57 99.50
2776 12.5803 7725.10 7156.30 99.60
2777 12.5842 7462.70 7153.97 98.10
2778 12.5879 7666.70 7151.64 99.80
2779 12.5917 7452.40 7149.37 98.10
2780 12.5955 7696.20 7147.04 99.50
2781 12.5991 7459.50 7144.76 98.40
2782 12.6030 7535.00 7142.43 98.00
2783 12.6067 7358.50 7140.16 97.30
2784 12.6104 7471.30 7137.83 98.60
2785 12.6143 7429.30 7135.49 97.80
2786 12.6180 7620.50 7133.22 100.40
2787 12.6217 7441.80 7130.89 98.40
2788 12.6255 7630.10 7128.61 100.20
2789 12.6292 7345.30 7126.28 97.30
2790 12.6329 7646.40 7124.00 99.80
2791 12.6368 7355.90 7121.67 98.10
2792 12.6405 7571.80 7119.33 98.90
2793 12.6442 7514.50 7117.06 99.30
2794 12.6481 7436.80 7114.72 97.90
2795 12.6517 7380.60 7112.45 96.60
2796 12.6556 7530.50 7110.11 97.90
2797 12.6593 7294.90 7107.84 95.80
2798 12.6630 7596.10 7105.50 99.00
2799 12.6667 7283.30 7103.23 96.80
2800 12.6706 7464.00 7100.89 99.10
2801 12.6743 7302.50 7098.55 95.90
2802 12.6781 7389.20 7096.28 96.10
2803 12.6819 7320.00 7093.94 99.00
2804 12.6855 7564.30 7091.66 98.80
2805 12.6894 7278.80 7089.32 96.00
2806 12.6931 7345.00 7087.05 97.00
2807 12.6968 7387.60 7084.71 98.10
2808 12.7007 7398.80 7082.37 97.10
2809 12.7044 7009.90 7080.09 95.40
2810 12.7081 7564.00 7077.75 99.20
2811 12.7119 7333.00 7075.48 96.60
2812 12.7156 7593.60 7073.14 100.40
2813 12.7193 7381.80 7070.86 95.80
2814 12.7232 7527.10 7068.52 99.30
2815 12.7269 7449.40 7066.18 98.60
2816 12.7306 7520.80 7063.90 100.90
2817 12.7345 7363.50 7061.56 98.30
2818 12.7381 7730.70 7059.28 99.60
2819 12.7420 7394.00 7056.94 99.20
2820 12.7457 7355.50 7054.66 98.10
2821 12.7494 7333.80 7052.32 98.00
2822 12.7533 7400.30 7049.98 98.60
2823 12.7570 7185.50 7047.70 96.10
2824 12.7607 7327.10 7045.36 98.20
2825 12.7645 7202.50 7043.07 96.70
2826 12.7683 7406.90 7040.73 96.10
2827 12.7719 7213.50 7038.45 96.30
2828 12.7758 7474.60 7036.11 99.40
2829 12.7795 7322.50 7033.77 96.20
2830 12.7832 7537.70 7031.48 98.90
2831 12.7871 7157.00 7029.14 93.90
2832 12.7907 7423.20 7026.86 98.70
2833 12.7945 7317.60 7024.52 98.20
2834 12.7983 7459.10 7022.24 98.40
2835 12.8020 7249.30 7019.89 96.40
2836 12.8059 7360.60 7017.55 97.70
2837 12.8096 7297.40 7015.27 97.00
2838 12.8133 7378.60 7012.92 98.30
2839 12.8170 7080.70 7010.64 96.10
2840 12.8209 7373.50 7008.29 97.80
2841 12.8245 7180.40 7006.01 96.80
2842 12.8284 7411.70 7003.67 99.00
2843 12.8322 7118.10 7001.32 97.00
2844 12.8358 7417.80 6999.04 98.80
2845 12.8397 7193.70 6996.69 95.50
2846 12.8434 7270.90 6994.41 97.70
2847 12.8471 7098.70 6992.06 96.40
2848 12.8509 7325.70 6989.78 98.10
2849 12.8546 6930.40 6987.43 94.10
2850 12.8584 7210.70 6985.08 97.00
2851 12.8622 7078.40 6982.80 95.60
2852 12.8659 7189.30 6980.45 96.70
2853 12.8696 7230.90 6978.17 96.60
2854 12.8735 7249.20 6975.82 96.70
2855 12.8772 7180.20 6973.47 97.30
2856 12.8809 7346.20 6971.19 97.80
2857 12.8848 7293.30 6968.84 97.60
2858 12.8884 7433.80 6966.56 99.10
2859 12.8923 7035.10 6964.21 95.30
2860 12.8960 7269.00 6961.92 96.90
2861 12.8997 7164.40 6959.57 95.30
2862 12.9036 7311.00 6957.22 96.70
2863 12.9073 7182.30 6954.94 97.00
2864 12.9110 7352.70 6952.59 98.40
2865 12.9148 7035.70 6950.30 95.00
2866 12.9185 7257.20 6947.95 96.10
2867 12.9222 7102.00 6945.67 97.00
2868 12.9261 7231.40 6943.32 96.40
2869 12.9298 7105.90 6940.97 96.00
2870 12.9335 7363.10 6938.68 97.00
2871 12.9374 7027.00 6936.33 95.60
2872 12.9410 7244.80 6934.04 97.70
2873 12.9448 6944.70 6931.69 95.50
2874 12.9487 7093.40 6929.34 95.70
2875 12.9523 7144.50 6927.06 96.60
2876 12.9562 7206.90 6924.71 96.60
2877 12.9599 6975.40 6922.42 95.00
2878 12.9636 7114.00 6920.07 95.00
2879 12.9674 6952.30 6917.78 94.10
2880 12.9712 7136.00 6915.43 95.50
2881 12.9749 6976.30 6913.08 93.90
2882 12.9787 7183.20 6910.79 96.20
2883 12.9824 7081.10 6908.44 95.60
2884 12.9861 7027.60 6906.15 94.50
2885 12.9900 6927.50 6903.80 93.60
2886 12.9937 7141.20 6901.51 94.90
2887 12.9974 6950.50 6899.16 92.90
2888 13.0013 7047.90 6896.81 91.80
2889 13.0049 6836.80 6894.51 93.10
2890 13.0087 7267.00 6892.16 97.20
2891 13.0125 7001.20 6889.87 96.90
2892 13.0162 7178.40 6887.52 95.60
2893 13.0201 7109.90 6885.17 95.40
2894 13.0238 7085.30 6882.88 94.80
2895 13.0275 6865.50 6880.53 92.60
2896 13.0312 6756.30 6878.24 91.10
2897 13.0351 6843.60 6875.88 93.30
2898 13.0387 7131.20 6873.59 95.50
2899 13.0426 7013.10 6871.24 94.00
2900 13.0463 7023.50 6868.89 94.80
2901 13.0500 6895.90 6866.60 94.30
2902 13.0539 7295.40 6864.24 97.00
2903 13.0576 6935.50 6861.95 94.90
2904 13.0613 7077.90 6859.60 95.70
2905 13.0652 6962.80 6857.24 95.50
2906 13.0688 7195.80 6854.95 97.50
2907 13.0726 7098.60 6852.60 97.20
2908 13.0764 6938.50 6850.31 95.10
2909 13.0801 6915.30 6847.95 94.00
2910 13.0838 7015.80 6845.66 95.50
2911 13.0877 6955.60 6843.31 96.00
2912 13.0914 6936.20 6840.95 95.00
2913 13.0951 6854.40 6838.66 94.30
2914 13.0990 7293.50 6836.31 97.50
2915 13.1026 6789.10 6834.01 93.40
2916 13.1065 7211.40 6831.66 98.70
2917 13.1103 6876.60 6829.30 94.80
2918 13.1139 7011.10 6827.01 95.90
2919 13.1178 6961.00 6824.66 95.10
2920 13.1215 7173.60 6822.36 96.40
2921 13.1252 6963.30 6820.01 94.80
2922 13.1290 7176.90 6817.72 97.40
2923 13.1327 7003.90 6815.36 95.20
2924 13.1365 7095.10 6813.01 96.00
2925 13.1403 6888.70 6810.71 94.30
2926 13.1440 7040.50 6808.36 95.10
2927 13.1477 6838.60 6806.07 99.00
2928 13.1516 7065.90 6803.71 95.00
2929 13.1553 7037.60 6801.35 93.20
2930 13.1590 6908.30 6799.06 91.90
2931 13.1629 6904.70 6796.71 92.60
2932 13.1665 6942.10 6794.41 93.60
2933 13.1704 6921.90 6792.06 93.00
2934 13.1741 6979.20 6789.76 93.90
2935 13.1778 6862.40 6787.41 92.50
2936 13.1817 6945.80 6785.05 92.90
2937 13.1854 6911.20 6782.76 91.90
2938 13.1891 6996.40 6780.40 93.00
2939 13.1929 6941.40 6778.11 93.10
2940 13.1966 6989.70 6775.75 93.00
2941 13.2004 6781.50 6773.39 90.50
2942 13.2042 6839.80 6771.10 92.20
2943 13.2079 6899.10 6768.74 92.70
2944 13.2116 7154.60 6766.45 94.40
2945 13.2155 6799.50 6764.09 92.40
2946 13.2192 6993.70 6761.73 93.90
2947 13.2229 6870.80 6759.44 92.80
2948 13.2268 7029.70 6757.08 93.10
2949 13.2304 6706.20 6754.79 90.70
2950 13.2343 6919.60 6752.43 93.10
2951 13.2380 6824.80 6750.14 93.00
2952 13.2417 6999.60 6747.78 94.40
2953 13.2456 6859.50 6745.42 92.70
2954 13.2493 6877.60 6743.13 93.10
2955 13.2530 6787.30 6740.77 92.40
2956 13.2568 7032.30 6738.48 94.20
2957 13.2605 6714.40 6736.12 90.30
2958 13.2643 7014.70 6733.76 93.50
2959 13.2681 6793.30 6731.47 92.70
2960 13.2718 6956.40 6729.11 93.70
2961 13.2755 6821.00 6726.81 92.90
2962 13.2794 6864.50 6724.46 92.70
2963 13.2831 6555.70 6722.10 89.50
2964 13.2868 6808.20 6719.80 93.10
2965 13.2907 6774.60 6717.45 91.90
2966 13.2943 6765.20 6715.15 91.80
2967 13.2982 6748.90 6712.79 92.10
2968 13.3020 6755.80 6710.44 91.00
2969 13.3056 6591.00 6708.14 91.30
2970 13.3095 6755.20 6705.78 91.60
2971 13.3132 6683.70 6703.49 91.60
2972 13.3169 6733.10 6701.13 91.60
2973 13.3207 6821.80 6698.83 91.90
2974 13.3244 7009.30 6696.48 94.20
2975 13.3282 6774.80 6694.12 92.80
2976 13.3320 6876.90 6691.82 92.50
2977 13.3357 6672.60 6689.47 93.20
2978 13.3394 6957.30 6687.17 93.50
2979 13.3433 6715.30 6684.81 92.00
2980 13.3470 6796.00 6682.45 92.00
2981 13.3507 6544.40 6680.16 89.40
2982 13.3546 6896.10 6677.80 92.50
2983 13.3582 6775.60 6675.50 92.10
2984 13.3621 6773.40 6673.15 90.90
2985 13.3659 6673.30 6670.79 92.20
2986 13.3695 6785.00 6668.49 91.00
2987 13.3734 6668.30 6666.13 91.10
2988 13.3771 6892.60 6663.84 93.80
2989 13.3808 6491.90 6661.48 89.60
2990 13.3847 6803.70 6659.12 90.80
2991 13.3883 6589.40 6656.83 90.70
2992 13.3921 6691.20 6654.47 91.70
2993 13.3959 6560.40 6652.17 91.40
2994 13.3996 6875.10 6649.81 93.50
2995 13.4035 6659.80 6647.46 92.40
2996 13.4072 6708.00 6645.16 92.10
2997 13.4109 6602.80 6642.80 91.20
2998 13.4146 6717.60 6640.51 91.30
2999 13.4185 6573.20 6638.15 91.00
3000 13.4222 6804.00 6635.79 92.40
3001 13.4260 6514.10 6633.50 89.60
3002 13.4298 6701.60 6631.14 92.20
3003 13.4334 6496.50 6628.84 89.60
3004 13.4373 6739.30 6626.48 92.20
3005 13.4410 6652.60 6624.19 91.20
3006 13.4447 6787.40 6621.83 91.70
3007 13.4486 6599.80 6619.47 91.00
3008 13.4522 6597.40 6617.18 91.10
3009 13.4560 6466.40 6614.82 89.00
3010 13.4598 6643.10 6612.52 91.40
3011 13.4635 6481.10 6610.16 90.20
3012 13.4674 6753.80 6607.81 92.00
3013 13.4711 6799.20 6605.51 92.10
3014 13.4748 6556.80 6603.15 90.30
3015 13.4785 6528.70 6600.86 90.00
3016 13.4824 6627.60 6598.50 91.60
3017 13.4861 6630.40 6596.14 91.20
3018 13.4899 6617.70 6593.85 91.50
3019 13.4937 6389.20 6591.49 89.70
3020 13.4973 6654.60 6589.19 90.30
3021 13.5012 6420.20 6586.83 89.30
3022 13.5049 6629.80 6584.48 91.80
3023 13.5086 6524.10 6582.18 89.50
3024 13.5125 6753.00 6579.82 91.80
3025 13.5162 6504.10 6577.53 91.30
3026 13.5199 6765.50 6575.17 91.70
3027 13.5238 6520.50 6572.81 90.10
3028 13.5274 6610.20 6570.52 91.60
3029 13.5312 6369.40 6568.16 88.70
3030 13.5350 6579.40 6565.87 92.70
3031 13.5387 6516.10 6563.51 90.30
3032 13.5426 6570.60 6561.15 91.10
3033 13.5463 6498.30 6558.85 90.40
3034 13.5500 6627.70 6556.50 90.50
3035 13.5538 6537.30 6554.20 89.60
3036 13.5576 6514.50 6551.84 90.60
3037 13.5613 6383.50 6549.49 90.30
3038 13.5651 6600.10 6547.19 91.40
3039 13.5688 6465.60 6544.84 90.40
3040 13.5725 6689.20 6542.54 91.50
3041 13.5764 6354.30 6540.18 88.90
3042 13.5801 6539.60 6537.83 91.00
3043 13.5838 6404.00 6535.53 91.00
3044 13.5877 6638.40 6533.17 91.60
3045 13.5913 6462.60 6530.88 90.70
3046 13.5951 6592.60 6528.52 91.80
3047 13.5990 6340.90 6526.17 89.90
3048 13.6026 6566.10 6523.87 91.20
3049 13.6065 6499.70 6521.52 90.90
3050 13.6102 6579.00 6519.22 90.30
3051 13.6139 6295.90 6516.87 89.00
3052 13.6178 6512.70 6514.51 91.30
3053 13.6215 6439.00 6512.21 90.70
3054 13.6252 6536.70 6509.86 91.10
3055 13.6290 6311.70 6507.56 89.90
3056 13.6327 6501.50 6505.21 91.40
3057 13.6365 6430.60 6502.85 91.20
3058 13.6403 6623.80 6500.56 92.40
3059 13.6440 6484.30 6498.20 90.70
3060 13.6477 6573.30 6495.91 91.70
3061 13.6516 6519.20 6493.55 91.60
3062 13.6553 6471.00 6491.20 90.90
3063 13.6590 6335.40 6488.90 90.10
3064 13.6629 6478.80 6486.55 91.80
3065 13.6665 6414.30 6484.25 90.70
3066 13.6704 6522.30 6481.90 92.00
3067 13.6742 6208.50 6479.54 89.60
3068 13.6778 6337.10 6477.25 90.10
3069 13.6817 6503.00 6474.89 91.50
3070 13.6854 6275.60 6472.60 88.90
3071 13.6891 6323.30 6470.25 90.20
3072 13.6930 6447.00 6467.89 91.30
3073 13.6966 6275.60 6465.60 88.40
3074 13.7004 6419.00 6463.24 92.10
3075 13.7042 6366.20 6460.95 90.50
3076 13.7079 6345.10 6458.59 90.00
3077 13.7118 6589.90 6456.24 93.50
3078 13.7155 6472.80 6453.95 90.80
3079 13.7192 6264.50 6451.59 90.70
3080 13.7229 6414.20 6449.30 92.70
3081 13.7268 6362.80 6446.95 91.20
3082 13.7305 6578.80 6444.59 93.10
3083 13.7343 6454.60 6442.30 92.00
3084 13.7381 6475.60 6439.94 91.30
3085 13.7417 6454.90 6437.65 91.40
3086 13.7456 6359.90 6435.30 90.40
3087 13.7493 6334.40 6432.94 90.30
3088 13.7530 6573.50 6430.65 93.00
3089 13.7569 6250.20 6428.30 88.40
3090 13.7605 6436.10 6426.01 89.90
3091 13.7643 6237.20 6423.66 90.20
3092 13.7682 6573.90 6421.30 93.30
3093 13.7718 6362.60 6419.01 90.50
3094 13.7757 6461.90 6416.66 90.00
3095 13.7794 6354.10 6414.37 90.90
3096 13.7831 6518.60 6412.01 92.60
3097 13.7870 6161.50 6409.66 88.80
3098 13.7907 6418.90 6407.37 90.20
3099 13.7944 6421.90 6405.02 92.80
3100 13.7982 6521.00 6402.73 93.30
3101 13.8020 6387.40 6400.38 90.40
3102 13.8057 6423.30 6398.02 92.10
3103 13.8095 6167.30 6395.73 89.10
3104 13.8132 6340.00 6393.38 90.70
3105 13.8169 6268.50 6391.09 89.90
3106 13.8208 6373.50 6388.74 90.90
3107 13.8245 6210.50 6386.39 90.00
3108 13.8282 6426.80 6384.10 91.20
3109 13.8321 6248.20 6381.75 90.70
3110 13.8357 6364.30 6379.46 91.20
3111 13.8396 6225.70 6377.11 89.20
3112 13.8434 6478.90 6374.76 91.10
3113 13.8470 6278.70 6372.47 89.60
3114 13.8509 6388.10 6370.11 91.30
3115 13.8546 6230.50 6367.83 90.90
3116 13.8583 6426.50 6365.48 90.10
3117 13.8622 6201.90 6363.12 89.90
3118 13.8659 6461.00 6360.84 91.50
3119 13.8696 6350.70 6358.49 90.80
3120 13.8734 6280.80 6356.20 91.00
3121 13.8771 6194.70 6353.85 89.00
3122 13.8809 6399.50 6351.50 90.60
3123 13.8847 6101.50 6349.21 88.60
3124 13.8884 6283.60 6346.86 90.00
3125 13.8921 6330.30 6344.57 91.10
3126 13.8960 6291.30 6342.22 90.00
3127 13.8997 6312.30 6339.88 90.90
3128 13.9035 6281.30 6337.59 90.10
3129 13.9073 6236.20 6335.24 89.70
3130 13.9110 6303.20 6332.89 90.20
3131 13.9148 6082.50 6330.60 88.40
3132 13.9185 6258.10 6328.25 89.90
3133 13.9222 6214.10 6325.97 89.80
3134 13.9261 6313.10 6323.62 91.40
3135 13.9298 6247.80 6321.27 90.00
3136 13.9335 6282.30 6318.99 88.40
3137 13.9374 6253.50 6316.64 90.60
3138 13.9410 6247.00 6314.35 89.90
3139 13.9448 6253.00 6312.00 90.90
3140 13.9487 6307.80 6309.66 89.60
3141 13.9523 6077.20 6307.37 88.10
3142 13.9562 6256.80 6305.03 89.20
3143 13.9599 6092.50 6302.74 89.30
3144 13.9636 6185.90 6300.39 89.40
3145 13.9675 6032.30 6298.05 88.30
3146 13.9712 6257.40 6295.76 91.20
3147 13.9749 6194.10 6293.42 89.80
3148 13.9787 6196.90 6291.13 89.60
3149 13.9824 6036.50 6288.79 88.90
3150 13.9862 6241.90 6286.44 89.30
3151 13.9900 6180.10 6284.16 89.60
3152 13.9937 6144.80 6281.81 88.90
3153 13.9974 6071.00 6279.53 88.50
3154 14.0013 6028.00 6277.18 87.20
3155 14.0050 6071.30 6274.84 89.40
3156 14.0087 6136.90 6272.55 88.80
3157 14.0126 6083.10 6270.21 88.20
3158 14.0162 6235.20 6267.93 89.60
3159 14.0201 6084.20 6265.58 88.40
3160 14.0239 6283.50 6263.24 91.10
3161 14.0275 6045.20 6260.96 89.60
3162 14.0314 6286.00 6258.61 91.10
3163 14.0351 5993.80 6256.33 87.00
3164 14.0388 6179.70 6253.99 89.30
3165 14.0427 6106.70 6251.64 88.70
3166 14.0463 6104.50 6249.36 87.00
3167 14.0501 6106.30 6247.02 88.00
3168 14.0540 6206.50 6244.68 89.20
3169 14.0576 6112.70 6242.40 89.40
3170 14.0615 6179.90 6240.05 89.60
3171 14.0652 6009.80 6237.77 88.90
3172 14.0689 6328.70 6235.43 90.20
3173 14.0728 5918.60 6233.09 85.80
3174 14.0765 6347.40 6230.81 91.10
3175 14.0802 6059.40 6228.47 88.00
3176 14.0840 6047.80 6226.19 88.00
3177 14.0878 5919.60 6223.85 87.40
3178 14.0915 6048.60 6221.51 88.50
3179 14.0953 5913.10 6219.23 87.50
3180 14.0990 6228.90 6216.89 90.30
3181 14.1027 6203.20 6214.61 90.00
3182 14.1066 6246.90 6212.27 89.60
3183 14.1103 6038.10 6209.93 89.20
3184 14.1140 6273.30 6207.65 91.00
3185 14.1179 6097.10 6205.31 89.60
3186 14.1215 6236.70 6203.03 91.80
3187 14.1253 6023.20 6200.69 88.80
3188 14.1292 6044.00 6198.35 88.30
3189 14.1328 6118.90 6196.08 89.80
3190 14.1367 6051.80 6193.74 88.80
3191 14.1404 5937.30 6191.46 86.60
3192 14.1441 6096.50 6189.12 88.40
3193 14.1480 6001.10 6186.78 89.40
3194 14.1517 5999.40 6184.51 86.70
3195 14.1554 5990.50 6182.17 89.20
3196 14.1593 6246.10 6179.83 90.50
3197 14.1629 5942.80 6177.56 89.10
3198 14.1667 6113.00 6175.22 90.20
3199 14.1705 6030.70 6172.95 89.70
3200 14.1742 6090.60 6170.61 90.10
3201 14.1781 5914.50 6168.27 87.10
3202 14.1818 6173.60 6166.00 90.90
3203 14.1855 5926.20 6163.66 87.90
3204 14.1892 5946.10 6161.39 87.60
3205 14.1931 5937.20 6159.05 88.70
3206 14.1968 6121.60 6156.72 90.00
3207 14.2006 5921.40 6154.44 88.30
3208 14.2044 6141.50 6152.11 89.30
3209 14.2080 6004.10 6149.84 89.00
3210 14.2119 6178.60 6147.50 90.60
3211 14.2156 6049.40 6145.17 89.80
3212 14.2193 6075.20 6142.90 90.40
3213 14.2232 5760.50 6140.56 86.20
3214 14.2268 6005.70 6138.29 89.00
3215 14.2306 5919.60 6135.96 89.30
3216 14.2345 6035.80 6133.62 90.00
3217 14.2381 6009.20 6131.35 88.80
3218 14.2420 6045.90 6129.02 89.30
3219 14.2458 5921.60 6126.69 86.90
3220 14.2494 6015.40 6124.42 89.00
3221 14.2533 6019.50 6122.08 89.40
3222 14.2570 6166.70 6119.81 90.90
3223 14.2607 5755.20 6117.48 86.90
3224 14.2646 6070.60 6115.15 89.80
3225 14.2683 5872.70 6112.88 88.20
3226 14.2720 6056.70 6110.55 89.30
3227 14.2758 5778.20 6108.28 88.60
3228 14.2795 6060.80 6105.95 88.20
3229 14.2833 5967.20 6103.62 87.90
3230 14.2871 5974.80 6101.35 88.70
3231 14.2908 6032.10 6099.02 90.80
3232 14.2945 5992.30 6096.75 88.00
3233 14.2984 5782.10 6094.43 86.20
3234 14.3021 6208.10 6092.10 90.30
3235 14.3059 5965.40 6089.83 88.60
3236 14.3097 6041.10 6087.50 88.30
3237 14.3133 5969.30 6085.23 88.70
3238 14.3172 6055.50 6082.91 89.30
3239 14.3209 5736.70 6080.58 86.50
3240 14.3246 5907.80 6078.31 88.50
3241 14.3285 5960.40 6075.98 89.40
3242 14.3322 6062.80 6073.66 89.70
3243 14.3359 5859.80 6071.39 88.90
3244 14.3398 6038.00 6069.07 89.30
3245 14.3434 5848.20 6066.80 87.40
3246 14.3472 6055.70 6064.48 89.70
3247 14.3511 6081.30 6062.15 89.30
3248 14.3547 5945.10 6059.89 87.90
3249 14.3586 5825.50 6057.56 88.20
3250 14.3623 5954.40 6055.30 88.20
3251 14.3660 5852.70 6052.97 88.50
3252 14.3699 6023.90 6050.65 88.90
3253 14.3736 5906.40 6048.39 87.20
3254 14.3773 6081.00 6046.06 89.80
3255 14.3811 5808.50 6043.80 87.60
3256 14.3848 6005.50 6041.47 88.90
3257 14.3886 5814.70 6039.15 86.70
3258 14.3924 5735.50 6036.89 87.20
3259 14.3961 5803.50 6034.57 86.80
3260 14.4000 6000.00 6032.25 89.10
3261 14.4037 5806.60 6029.99 86.80
3262 14.4074 5923.90 6027.66 89.80
3263 14.4111 5845.20 6025.40 87.50
3264 14.4150 5831.50 6023.08 87.40
3265 14.4187 5778.40 6020.76 87.50
3266 14.4225 5883.30 6018.50 87.90
3267 14.4263 5884.10 6016.18 88.10
3268 14.4299 6000.10 6013.92 89.10
3269 14.4338 5800.70 6011.60 86.90
3270 14.4375 5946.40 6009.28 89.00
3271 14.4412 5822.20 6007.03 88.00
3272 14.4451 5856.00 6004.71 87.80
3273 14.4487 5852.20 6002.45 87.30
3274 14.4525 5804.70 6000.13 87.10
3275 14.4564 5695.10 5997.81 86.60
3276 14.4600 5887.90 5995.56 89.50
3277 14.4639 5656.30 5993.24 87.00
3278 14.4676 5823.90 5990.98 87.30
3279 14.4713 5789.20 5988.67 86.70
3280 14.4752 5841.40 5986.35 87.30
3281 14.4789 5726.10 5984.09 87.20
3282 14.4826 5904.90 5981.78 87.70
3283 14.4865 5747.00 5979.46 86.90
3284 14.4902 5963.30 5977.21 88.00
3285 14.4939 5682.30 5974.89 87.40
3286 14.4977 5780.10 5972.64 87.40
3287 14.5014 5795.10 5970.32 87.40
3288 14.5052 5747.80 5968.01 85.70
3289 14.5090 5596.70 5965.75 86.80
3290 14.5127 5837.40 5963.44 87.80
3291 14.5164 5732.90 5961.19 86.70
3292 14.5203 5641.80 5958.88 85.80
3293 14.5240 5627.70 5956.56 86.40
3294 14.5278 5848.10 5954.31 87.00
3295 14.5316 5562.50 5952.00 84.40
3296 14.5352 5899.80 5949.75 89.10
3297 14.5391 5624.00 5947.44 85.30
3298 14.5428 5936.60 5945.12 88.80
3299 14.5465 5726.90 5942.87 86.90
3300 14.5504 5853.10 5940.56 88.30
3301 14.5541 5704.60 5938.25 87.50
3302 14.5578 5731.40 5936.00 86.70
3303 14.5617 5610.30 5933.69 85.70
3304 14.5653 5600.30 5931.44 84.30
3305 14.5691 5710.90 5929.14 86.40
3306 14.5730 5772.40 5926.83 86.80
3307 14.5766 5788.10 5924.58 87.50
3308 14.5805 5950.30 5922.27 88.70
3309 14.5842 5596.90 5920.02 86.30
3310 14.5879 5785.90 5917.72 87.10
3311 14.5918 5845.80 5915.41 90.40
3312 14.5955 5837.10 5913.16 85.40
3313 14.5992 5537.50 5910.86 83.10
3314 14.6030 5676.80 5908.61 85.40
3315 14.6067 5741.30 5906.30 84.90
3316 14.6105 5879.50 5904.00 86.20
3317 14.6143 5679.40 5901.75 84.70
3318 14.6180 5689.50 5899.45 84.90
3319 14.6217 5658.30 5897.20 84.30
3320 14.6256 5775.90 5894.90 84.90
3321 14.6293 5624.60 5892.60 83.90
3322 14.6330 5645.00 5890.35 84.90
3323 14.6369 5557.60 5888.05 84.10
3324 14.6406 5731.30 5885.74 85.10
3325 14.6444 5603.40 5883.50 84.20
3326 14.6482 5779.30 5881.20 85.80
3327 14.6518 5667.50 5878.96 84.70
3328 14.6557 5806.60 5876.66 86.00
3329 14.6594 5699.50 5874.35 84.60
3330 14.6631 5782.70 5872.12 85.60
3331 14.6670 5640.10 5869.81 84.90
3332 14.6706 5774.80 5867.57 85.80
3333 14.6744 5709.20 5865.27 85.50
3334 14.6783 5749.50 5862.97 86.80
3335 14.6819 5461.20 5860.74 82.60
3336 14.6858 5706.50 5858.44 84.30
3337 14.6895 5585.30 5856.20 83.60
3338 14.6932 5714.10 5853.90 85.80
3339 14.6971 5619.00 5851.60 83.90
3340 14.7008 5737.40 5849.36 85.50
3341 14.7045 5576.40 5847.07 82.80
3342 14.7084 5710.40 5844.77 84.50
3343 14.7121 5476.10 5842.53 83.40
3344 14.7158 5574.40 5840.24 84.20
3345 14.7196 5554.10 5838.00 82.90
3346 14.7233 5636.20 5835.70 84.40
3347 14.7271 5484.90 5833.41 84.00
3348 14.7346 5678.90 5828.88 85.20
3349 14.7422 5605.80 5824.35 84.70
3350 14.7459 5567.90 5822.06 84.30
3351 14.7497 5588.00 5819.83 85.50
3352 14.7535 5524.90 5817.53 81.90
3353 14.7571 5510.90 5815.30 84.30
3354 14.7610 5720.20 5813.01 85.70
3355 14.7647 5459.50 5810.72 84.30
3356 14.7684 5589.10 5808.49 83.20
3357 14.7723 5672.10 5806.19 85.00
3358 14.7760 5645.30 5803.96 84.10
3359 14.7797 5523.30 5801.67 82.60
3360 14.7836 5631.60 5799.38 83.50
3361 14.7872 5488.50 5797.15 83.00
3362 14.7910 5677.50 5794.86 84.90
3363 14.7949 5557.40 5792.58 83.90
3364 14.7985 5614.00 5790.35 84.70
3365 14.8024 5534.80 5788.06 84.50
3366 14.8061 5500.90 5785.83 84.00
3367 14.8098 5526.20 5783.54 83.90
3368 14.8137 5641.60 5781.26 84.60
3369 14.8174 5464.50 5779.03 83.20
3370 14.8211 5651.80 5776.74 85.50
3371 14.8249 5465.00 5774.52 81.70
3372 14.8287 5477.50 5772.23 83.10
3373 14.8324 5648.20 5769.95 85.10
3374 14.8362 5594.10 5767.72 84.10
3375 14.8399 5471.00 5765.44 83.70
3376 14.8436 5556.80 5763.21 84.60
3377 14.8475 5407.60 5760.93 82.50
3378 14.8512 5431.70 5758.65 83.30
3379 14.8549 5525.70 5756.42 83.90
3380 14.8588 5536.00 5754.14 83.50
3381 14.8625 5518.40 5751.86 83.80
3382 14.8663 5590.90 5749.64 84.60
3383 14.8701 5373.20 5747.35 83.10
3384 14.8737 5498.10 5745.13 83.30
3385 14.8776 5393.60 5742.85 82.60
3386 14.8813 5522.70 5740.57 84.10
3387 14.8850 5449.70 5738.35 82.50
3388 14.8889 5518.30 5736.07 84.30
3389 14.8926 5453.80 5733.85 83.90
3390 14.8963 5536.50 5731.58 83.60
3391 14.9002 5456.20 5729.30 83.00
3392 14.9038 5420.30 5727.08 83.10
3393 14.9076 5377.20 5724.80 82.00
3394 14.9114 5662.10 5722.58 84.50
3395 14.9151 5295.90 5720.31 81.40
3396 14.9190 5649.40 5718.03 85.10
3397 14.9227 5430.00 5715.81 81.80
3398 14.9264 5492.70 5713.54 83.40
3399 14.9302 5284.20 5711.32 81.60
3400 14.9340 5494.10 5709.05 83.50
3401 14.9377 5335.80 5706.78 81.70
3402 14.9415 5581.60 5704.56 83.30
3403 14.9452 5433.20 5702.29 82.30
3404 14.9490 5490.00 5700.01 83.40
3405 14.9528 5313.40 5697.80 81.60
3406 14.9565 5511.20 5695.53 83.70
3407 14.9602 5337.80 5693.32 82.40
3408 14.9641 5335.60 5691.04 82.00
3409 14.9678 5393.00 5688.77 83.50
3410 14.9715 5516.80 5686.56 83.70
3411 14.9754 5352.70 5684.29 82.30
3412 14.9790 5591.90 5682.08 83.90
3413 14.9829 5313.40 5679.81 81.80
3414 14.9867 5492.90 5677.54 83.50
3415 14.9903 5422.70 5675.33 82.80
3416 14.9942 5509.60 5673.07 83.80
3417 14.9979 5320.70 5670.86 83.00
3418 15.0016 5465.80 5668.59 83.50
3419 15.0055 5484.50 5666.32 83.30
3420 15.0091 5576.50 5664.11 85.10
3421 15.0129 5389.00 5661.85 82.10
3422 15.0167 5482.00 5659.64 83.90
3423 15.0204 5541.10 5657.38 84.70
3424 15.0243 5395.00 5655.11 82.10
3425 15.0280 5353.70 5652.91 83.00
3426 15.0317 5465.40 5650.64 82.40
3427 15.0356 5344.90 5648.38 81.80
3428 15.0393 5463.20 5646.17 83.10
3429 15.0430 5304.40 5643.91 81.90
3430 15.0468 5508.90 5641.71 83.50
3431 15.0506 5370.40 5639.45 82.70
3432 15.0543 5453.50 5637.18 84.00
3433 15.0581 5331.60 5634.98 81.60
3434 15.0618 5477.10 5632.72 84.10
3435 15.0655 5375.10 5630.52 80.70
3436 15.0694 5461.70 5628.26 82.80
3437 15.0731 5337.20 5626.00 82.60
3438 15.0768 5586.80 5623.80 84.40
3439 15.0807 5309.80 5621.54 80.80
3440 15.0843 5490.10 5619.34 84.20
3441 15.0882 5384.20 5617.09 82.90
3442 15.0920 5619.70 5614.83 83.50
3443 15.0956 5372.70 5612.63 82.60
3444 15.0995 5398.50 5610.38 83.10
3445 15.1032 5340.50 5608.18 82.00
3446 15.1069 5534.90 5605.92 84.40
3447 15.1108 5446.50 5603.67 84.10
3448 15.1145 5457.60 5601.47 83.10
3449 15.1182 5419.20 5599.22 81.90
3450 15.1220 5378.10 5597.02 82.20
3451 15.1257 5291.30 5594.77 82.30
3452 15.1295 5437.50 5592.52 83.00
3453 15.1333 5338.50 5590.32 82.60
3454 15.1370 5425.80 5588.07 82.70
3455 15.1409 5290.60 5585.82 81.40
3456 15.1446 5340.90 5583.63 83.10
3457 15.1483 5262.20 5581.38 81.40
3458 15.1521 5325.30 5579.19 82.10
3459 15.1559 5297.50 5576.94 81.50
3460 15.1596 5239.50 5574.69 78.80
3461 15.1634 5175.90 5572.50 81.30
3462 15.1671 5307.70 5570.25 81.90
3463 15.1708 5209.90 5568.06 81.20
3464 15.1747 5359.90 5565.81 81.90
3465 15.1784 5246.60 5563.56 82.50
3466 15.1821 5347.10 5561.38 83.40
3467 15.1860 5334.50 5559.13 82.70
3468 15.1896 5403.00 5556.94 83.30
3469 15.1934 5303.60 5554.70 83.80
3470 15.1973 5579.10 5552.45 85.60
3471 15.2009 5240.40 5550.27 81.10
3472 15.2048 5258.70 5548.02 81.70
3473 15.2085 5239.60 5545.84 81.60
3474 15.2122 5465.80 5543.60 84.00
3475 15.2161 5268.80 5541.35 83.10
3476 15.2198 5399.90 5539.17 83.90
3477 15.2235 5141.20 5536.93 80.70
3478 15.2273 5369.80 5534.75 82.00
3479 15.2310 5333.20 5532.50 82.80
3480 15.2348 5467.90 5530.27 84.30
3481 15.2386 5431.20 5528.08 83.40
3482 15.2423 5257.70 5525.84 83.20
3483 15.2460 5289.60 5523.67 83.10
3484 15.2499 5321.80 5521.43 82.30
3485 15.2536 5251.10 5519.19 82.40
3486 15.2573 5376.70 5517.01 82.90
3487 15.2612 5311.40 5514.77 82.40
3488 15.2649 5358.50 5512.54 83.30
3489 15.2687 5200.50 5510.36 80.80
3490 15.2725 5350.40 5508.12 84.00
3491 15.2761 5221.50 5505.95 82.50
3492 15.2800 5432.80 5503.71 83.30
3493 15.2837 5192.70 5501.48 81.80
3494 15.2874 5316.90 5499.30 83.20
3495 15.2913 5176.80 5497.07 81.60
3496 15.2949 5275.10 5494.89 81.80
3497 15.2987 5124.20 5492.66 80.90
3498 15.3026 5094.80 5490.43 79.70
3499 15.3062 5206.20 5488.26 82.60
3500 15.3101 5326.40 5486.03 82.00
3501 15.3138 5221.60 5483.85 82.20
3502 15.3175 5227.30 5481.63 81.40
3503 15.3214 5252.90 5479.40 83.60
3504 15.3251 5411.50 5477.23 83.50
3505 15.3288 5229.60 5475.00 82.60
3506 15.3326 5443.10 5472.83 84.00
3507 15.3364 5220.60 5470.60 80.70
3508 15.3401 5276.70 5468.37 83.10
3509 15.3439 5174.30 5466.21 80.40
3510 15.3476 5239.90 5463.98 82.70
3511 15.3513 5190.40 5461.81 80.60
3512 15.3552 5296.20 5459.59 82.90
3513 15.3589 5158.40 5457.36 82.50
3514 15.3626 5240.40 5455.20 81.60
3515 15.3665 5307.30 5452.97 82.70
3516 15.3701 5247.30 5450.81 82.90
3517 15.3740 5105.00 5448.59 80.80
3518 15.3778 5162.10 5446.36 82.50
3519 15.3814 5098.60 5444.20 81.70
3520 15.3853 5254.10 5441.98 82.60
3521 15.3890 5253.60 5439.82 82.00
3522 15.3927 5162.80 5437.60 81.20
3523 15.3966 5293.10 5435.38 83.40
3524 15.4003 5365.00 5433.22 83.30
3525 15.4040 5217.20 5431.00 80.10
3526 15.4078 5242.90 5428.84 82.60
3527 15.4115 5205.70 5426.62 81.10
3528 15.4153 5154.20 5424.40 81.80
3529 15.4191 5248.30 5422.25 82.50
3530 15.4228 5447.80 5420.03 84.80
3531 15.4265 5127.90 5417.87 81.20
3532 15.4304 5229.90 5415.66 83.00
3533 15.4341 5210.80 5413.44 81.40
3534 15.4378 5163.00 5411.29 81.70
3535 15.4417 5065.30 5409.07 80.60
3536 15.4453 5288.70 5406.92 83.90
3537 15.4492 5069.10 5404.71 80.80
3538 15.4529 5241.60 5402.49 83.10
3539 15.4566 5145.60 5400.34 81.60
3540 15.4605 5151.00 5398.13 82.40
3541 15.4642 4985.20 5395.98 78.70
3542 15.4679 5216.50 5393.77 82.40
3543 15.4718 5081.40 5391.56 80.20
3544 15.4754 5104.00 5389.41 81.30
3545 15.4792 5217.70 5387.20 82.00
3546 15.4830 5272.40 5385.05 83.20
3547 15.4867 5198.60 5382.84 82.30
3548 15.4906 5175.80 5380.63 81.80
3549 15.4943 5098.00 5378.49 80.40
3550 15.4980 5089.10 5376.28 80.40
3551 15.5017 5150.60 5374.13 80.90
3552 15.5056 5045.50 5371.93 80.00
3553 15.5093 4945.80 5369.72 78.00
3554 15.5131 5144.80 5367.58 81.70
3555 15.5169 4922.40 5365.37 80.00
3556 15.5205 5145.90 5363.23 81.40
3557 15.5244 5115.40 5361.03 81.90
3558 15.5281 5179.60 5358.83 81.10
3559 15.5318 5115.10 5356.68 82.20
3560 15.5357 5115.00 5354.48 81.80
3561 15.5393 4988.60 5352.34 81.00
3562 15.5431 5223.10 5350.14 81.60
3563 15.5470 5154.30 5347.94 82.30
3564 15.5506 5144.20 5345.80 81.70
3565 15.5545 5091.50 5343.60 81.70
3566 15.5582 5200.20 5341.46 79.50
3567 15.5619 5003.90 5339.27 78.10
3568 15.5658 5081.40 5337.07 77.70
3569 15.5695 4996.70 5334.93 77.60
3570 15.5732 5200.60 5332.74 80.10
3571 15.5770 5063.40 5330.60 78.30
3572 15.5808 5282.50 5328.41 80.60
3573 15.5845 5081.50 5326.21 78.30
3574 15.5883 5012.30 5324.08 78.20
3575 15.5920 5023.20 5321.88 77.20
3576 15.5957 5136.90 5319.75 79.50
3577 15.5996 5047.70 5317.56 78.30
3578 15.6033 5236.30 5315.37 80.80
3579 15.6070 5051.60 5313.23 78.30
3580 15.6109 5244.10 5311.04 80.30
3581 15.6145 4940.00 5308.91 77.30
3582 15.6184 5086.60 5306.72 78.50
3583 15.6222 5030.50 5304.53 77.10
3584 15.6258 4946.30 5302.40 76.90
3585 15.6297 5084.20 5300.22 78.20
3586 15.6334 5050.40 5298.09 78.70
3587 15.6371 4943.10 5295.90 77.40
3588 15.6410 4994.60 5293.72 77.50
3589 15.6447 5021.10 5291.59 78.10
3590 15.6484 5044.80 5289.40 78.40
3591 15.6522 5077.50 5287.28 78.50
3592 15.6559 5042.30 5285.09 78.20
3593 15.6597 4944.10 5282.91 76.60
3594 15.6635 5009.60 5280.79 78.00
3595 15.6672 4857.00 5278.60 76.00
3596 15.6709 4990.60 5276.48 76.90
3597 15.6748 5092.30 5274.30 78.70
3598 15.6785 4957.60 5272.12 77.20
3599 15.6823 4958.40 5270.00 77.70
3600 15.6861 4980.00 5267.82 78.00
3601 15.6897 4999.70 5265.70 78.20
3602 15.6936 4975.20 5263.52 77.70
3603 15.6973 4878.60 5261.34 77.30
3604 15.7010 5008.70 5259.22 77.60
3605 15.7049 4963.70 5257.05 77.30
3606 15.7086 5129.10 5254.93 80.30
3607 15.7123 4937.10 5252.75 77.20
3608 15.7162 5096.40 5250.58 78.90
3609 15.7198 4891.50 5248.46 75.70
3610 15.7236 4876.50 5246.29 77.30
3611 15.7274 5069.40 5244.17 79.50
3612 15.7311 5185.10 5242.00 79.40
3613 15.7350 4967.70 5239.83 78.30
3614 15.7387 5146.40 5237.71 79.40
3615 15.7424 4966.40 5235.54 77.70
3616 15.7462 4954.70 5233.43 77.20
3617 15.7500 4935.50 5231.26 77.20
3618 15.7537 5015.50 5229.09 77.60
3619 15.7575 4964.70 5226.98 77.80
3620 15.7612 5056.70 5224.81 79.90
3621 15.7649 4942.70 5222.71 77.90
3622 15.7688 4900.10 5220.54 77.10
3623 15.7725 4929.60 5218.37 78.00
3624 15.7762 5171.80 5216.26 79.90
3625 15.7801 5004.40 5214.10 78.70
3626 15.7837 4989.90 5211.99 78.30
3627 15.7875 4952.90 5209.83 78.40
3628 15.7913 5069.00 5207.72 78.60
3629 15.7950 5115.40 5205.56 78.80
3630 15.7989 4884.90 5203.40 77.00
3631 15.8026 4971.00 5201.29 77.80
3632 15.8063 4953.80 5199.13 77.80
3633 15.8101 4889.10 5197.03 77.40
3634 15.8139 5059.40 5194.87 78.10
3635 15.8176 4957.10 5220.55 78.20
3636 15.8214 5029.20 5219.41 78.70
3637 15.8251 4919.40 5218.29 77.40
3638 15.8288 5054.80 5217.26 78.70
3639 15.8327 4968.20 5216.26 77.90
3640 15.8364 5021.40 5215.33 78.40
3641 15.8401 4855.10 5214.50 77.20
3642 15.8440 4952.30 5213.72 76.80
3643 15.8476 5011.80 5213.03 78.20
3644 15.8514 5098.30 5212.42 79.30
3645 15.8553 4981.80 5211.91 77.50
3646 15.8589 5003.50 5211.51 77.90
3647 15.8628 4999.20 5211.22 77.60
3648 15.8665 5002.10 5211.06 78.40
3649 15.8702 4953.10 5211.02 77.90
3650 15.8741 5041.50 5211.14 78.30
3651 15.8778 5031.10 5211.41 78.40
3652 15.8815 5061.00 5211.86 78.60
3653 15.8853 4767.40 5212.50 76.80
3654 15.8890 4881.90 5213.36 76.70
3655 15.8927 5035.30 5214.43 79.10
3656 15.8966 4918.40 5215.79 76.90
3657 15.9003 5028.30 5217.46 78.80
3658 15.9040 5114.30 5219.39 79.60
3659 15.9079 4966.50 5221.73 78.30
3660 15.9115 5026.60 5224.41 78.90
3661 15.9153 4930.80 5227.61 77.50
3662 15.9192 4942.40 5231.34 76.90
3663 15.9228 4903.20 5235.54 77.20
3664 15.9267 5056.90 5240.50 78.90
3665 15.9304 4943.80 5246.08 77.00
3666 15.9341 5127.80 5252.66 79.60
3667 15.9380 4894.40 5260.25 77.00
3668 15.9417 4989.30 5268.76 78.20
3669 15.9454 5115.80 5278.83 79.90
3670 15.9492 5088.10 5290.16 79.00
3671 15.9529 5011.00 5303.63 78.90
3672 15.9566 5117.70 5318.86 79.70
3673 15.9605 5043.50 5337.10 78.20
3674 15.9642 5187.60 5358.51 80.40
3675 15.9679 5166.10 5383.03 79.90
3676 15.9718 5187.50 5412.84 79.70
3677 15.9754 5193.60 5447.44 80.20
3678 15.9792 5383.10 5490.10 82.10
3679 15.9831 5250.40 5541.97 80.10
3680 15.9867 5474.00 5603.85 82.40
3681 15.9906 5468.40 5682.83 82.90
3682 15.9943 5681.70 5780.31 84.60
3683 15.9980 5831.30 5910.64 85.30
3684 16.0019 6179.40 6086.97 88.20
3685 16.0056 6429.80 6326.69 90.80
3686 16.0093 6707.30 6680.50 92.90
3687 16.0131 7282.70 7180.86 95.20
3688 16.0168 8055.20 7918.68 102.90
3689 16.0205 8835.80 8915.93 107.50
3690 16.0243 10326.10 10255.90 118.10
3691 16.0282 11603.10 11837.50 126.10
3692 16.0319 13250.70 13291.60 136.30
3693 16.0357 14050.40 14074.90 146.10
3694 16.0394 14045.60 13693.80 138.80
3695 16.0431 12766.30 12375.40 133.30
3696 16.0469 11404.40 10770.00 122.70
3697 16.0506 9357.40 9360.03 111.00
3698 16.0544 8231.60 8217.05 104.20
3699 16.0581 6921.20 7400.39 93.80
3700 16.0620 6535.30 6808.61 89.70
3701 16.0658 6076.90 6401.35 86.60
3702 16.0695 5776.20 6125.77 84.60
3703 16.0732 5652.90 5924.15 84.90
3704 16.0770 5499.30 5779.20 83.40
3705 16.0807 5141.20 5665.14 79.60
3706 16.0844 5323.40 5577.39 81.00
3707 16.0882 5142.30 5504.51 79.90
3708 16.0921 5303.10 5444.64 81.00
3709 16.0958 5013.70 5396.00 78.90
3710 16.0996 5158.20 5353.81 80.30
3711 16.1033 5059.70 5318.76 78.50
3712 16.1070 5124.50 5287.76 79.60
3713 16.1108 5035.40 5260.86 79.40
3714 16.1145 4986.20 5237.93 78.00
3715 16.1183 4874.70 5217.14 78.20
3716 16.1220 4937.90 5199.16 78.50
3717 16.1259 5036.60 5182.64 79.70
3718 16.1296 4966.40 5168.17 78.30
3719 16.1334 4873.80 5154.73 77.00
3720 16.1371 5101.40 5142.51 79.90
3721 16.1409 4807.70 5131.62 76.90
3722 16.1446 4966.20 5121.36 78.20
3723 16.1483 4894.70 5112.13 78.40
3724 16.1521 4850.10 5103.34 77.40
3725 16.1560 4794.80 5095.17 76.90
3726 16.1597 4991.80 5087.74 79.30
3727 16.1635 4870.60 5080.58 77.50
3728 16.1672 4807.90 5074.02 76.80
3729 16.1709 4917.60 5067.66 78.60
3730 16.1747 4936.70 5061.80 77.80
3731 16.1784 4672.50 5056.08 75.40
3732 16.1822 4932.60 5050.64 77.60
3733 16.1859 4743.00 5045.58 76.50
3734 16.1898 4771.70 5040.61 77.30
3735 16.1935 4752.40 5035.96 76.90
3736 16.1973 4859.00 5031.38 77.30
3737 16.2010 4846.10 5026.96 77.90
3738 16.2048 4920.90 5022.81 77.90
3739 16.2085 4661.20 5018.68 75.20
3740 16.2122 4737.30 5014.79 77.10
3741 16.2160 4841.10 5010.91 77.80
3742 16.2197 4932.50 5007.24 78.20
3743 16.2236 4736.70 5003.56 76.10
3744 16.2274 4864.00 4999.98 77.00
3745 16.2311 4739.00 4996.58 76.20
3746 16.2348 5022.30 4993.17 79.20
3747 16.2386 4817.40 4989.92 76.60
3748 16.2423 4692.40 4986.64 76.10
3749 16.2460 4732.70 4983.52 77.00
3750 16.2498 4789.20 4980.37 77.20
3751 16.2537 4667.80 4977.27 76.10
3752 16.2574 4695.10 4947.03 75.10
3753 16.2612 4750.00 4944.94 76.50
3754 16.2649 4590.10 4942.91 75.80
3755 16.2687 4768.20 4940.83 75.70
3756 16.2724 4847.70 4938.80 77.40
3757 16.2761 4647.90 4936.72 75.80
3758 16.2799 4799.80 4934.63 76.70
3759 16.2836 4696.20 4932.61 76.30
3760 16.2875 4771.90 4930.52 75.80
3761 16.2911 4694.90 4928.50 76.50
3762 16.2950 4753.90 4926.42 76.10
3763 16.2987 4670.00 4924.34 76.90
3764 16.3025 4634.30 4922.31 75.10
3765 16.3062 4676.10 4920.24 76.50
3766 16.3099 4709.10 4918.22 75.10
3767 16.3137 4649.00 4916.14 75.70
3768 16.3174 4742.40 4914.12 76.20
3769 16.3213 4632.70 4912.04 75.50
3770 16.3251 4633.70 4909.97 76.20
3771 16.3288 4742.80 4907.95 76.40
3772 16.3326 4770.70 4905.87 76.60
3773 16.3363 4656.30 4903.86 75.30
3774 16.3400 4658.80 4901.78 75.50
3775 16.3438 4722.60 4899.77 76.60
3776 16.3475 4702.50 4897.70 75.70
3777 16.3514 4602.00 4895.63 75.40
3778 16.3550 4572.20 4893.61 74.20
3779 16.3589 4620.40 4891.54 75.30
3780 16.3626 4724.50 4889.53 77.10
3781 16.3664 4765.40 4887.46 76.50
3782 16.3701 4680.30 4885.45 75.80
3783 16.3738 4714.60 4883.38 76.20
3784 16.3776 4589.20 4881.32 75.40
3785 16.3813 4595.30 4879.31 74.40
3786 16.3852 4590.50 4877.24 75.50
3787 16.3888 4645.70 4875.24 75.50
3788 16.3927 4526.20 4873.17 74.30
3789 16.3964 4678.80 4871.16 76.70
3790 16.4002 4566.40 4869.10 74.30
3791 16.4039 4605.00 4867.04 74.80
3792 16.4076 4862.70 4865.04 78.20
3793 16.4114 4588.50 4862.98 75.10
3794 16.4151 4749.80 4860.98 76.90
3795 16.4189 4663.50 4858.92 75.20
3796 16.4226 4610.10 4856.91 76.20
3797 16.4265 4581.50 4854.86 74.70
3798 16.4303 4833.50 4852.80 77.80
3799 16.4340 4615.10 4850.80 74.50
3800 16.4377 4729.40 4848.75 76.40
3801 16.4415 4564.70 4846.75 74.40
3802 16.4452 4702.30 4844.69 75.30
3803 16.4489 4530.30 4842.69 74.60
3804 16.4527 4515.70 4840.64 74.40
3805 16.4566 4600.00 4838.59 75.40
3806 16.4603 4660.50 4836.60 75.30
3807 16.4641 4522.20 4834.55 73.50
3808 16.4678 4576.90 4832.55 75.00
3809 16.4715 4580.00 4830.50 75.60
3810 16.4753 4576.40 4828.51 74.90
3811 16.4790 4571.60 4826.46 75.30
3812 16.4828 4476.50 4824.42 74.20
3813 16.4865 4494.90 4822.43 74.00
3814 16.4904 4719.80 4820.38 75.80
3815 16.4940 4533.50 4818.39 74.40
3816 16.4979 4631.20 4816.35 74.90
3817 16.5016 4579.00 4814.36 75.10
3818 16.5054 4684.30 4812.32 76.20
3819 16.5091 4546.30 4810.27 75.30
3820 16.5128 4706.60 4808.29 76.70
3821 16.5166 4542.40 4806.25 74.50
3822 16.5203 4565.70 4804.26 76.60
3823 16.5242 4612.90 4802.22 76.30
3824 16.5278 4623.40 4800.24 75.10
3825 16.5317 4520.20 4798.20 75.70
3826 16.5354 4626.60 4796.17 76.10
3827 16.5392 4583.60 4794.18 75.70
3828 16.5429 4564.40 4792.15 76.00
3829 16.5466 4490.90 4790.17 75.20
3830 16.5504 4553.80 4788.13 75.00
3831 16.5541 4579.80 4786.16 75.70
3832 16.5579 4500.10 4784.12 73.20
3833 16.5618 4454.40 4782.09 74.40
3834 16.5655 4690.90 4780.11 77.40
3835 16.5693 4519.00 4778.08 75.00
3836 16.5730 4535.60 4776.11 74.40
3837 16.5767 4517.80 4774.08 75.40
3838 16.5805 4423.30 4772.10 74.00
3839 16.5842 4561.50 4770.08 76.10
3840 16.5879 4504.10 4768.10 74.40
3841 16.5917 4421.60 4766.08 74.50
3842 16.5956 4644.50 4764.05 76.50
3843 16.5993 4453.50 4762.08 74.80
3844 16.6031 4505.10 4760.06 75.90
3845 16.6068 4642.20 4758.09 76.50
3846 16.6105 4596.30 4756.07 75.80
3847 16.6143 4619.30 4754.10 76.20
3848 16.6180 4606.20 4752.08 76.20
3849 16.6218 4365.90 4750.06 74.30
3850 16.6255 4502.60 4748.09 75.10
3851 16.6294 4579.00 4746.07 76.20
3852 16.6331 4450.30 4744.11 74.30
3853 16.6369 4484.30 4742.09 75.80
3854 16.6406 4501.00 4740.12 74.40
3855 16.6444 4553.90 4738.11 75.90
3856 16.6481 4574.70 4736.15 76.70
3857 16.6518 4474.30 4734.13 73.90
3858 16.6556 4603.20 4732.12 76.20
3859 16.6593 4523.60 4730.16 76.00
3860 16.6632 4466.20 4728.15 75.40
3861 16.6668 4501.40 4726.19 75.70
3862 16.6707 4500.20 4724.18 75.00
3863 16.6744 4507.60 4722.22 76.30
3864 16.6782 4535.90 4720.21 75.30
3865 16.6819 4539.90 4718.20 76.00
3866 16.6856 4630.80 4716.25 75.70
3867 16.6894 4610.50 4714.24 76.60
3868 16.6931 4407.00 4712.28 74.20
3869 16.6970 4586.70 4710.28 74.10
3870 16.7006 4609.60 4708.33 76.70
3871 16.7045 4507.90 4706.32 74.80
3872 16.7082 4635.90 4704.37 75.90
3873 16.7120 4302.80 4702.37 73.60
3874 16.7157 4456.80 4700.37 74.00
3875 16.7194 4403.60 4698.42 75.10
3876 16.7232 4561.90 4696.42 76.50
3877 16.7269 4444.90 4694.47 74.50
3878 16.7307 4580.50 4692.47 76.80
3879 16.7344 4388.60 4690.52 73.40
3880 16.7383 4353.60 4688.52 74.00
3881 16.7419 4472.70 4686.58 74.90
3882 16.7458 4534.90 4684.58 75.00
3883 16.7495 4484.90 4682.59 74.90
3884 16.7533 4447.20 4680.65 74.50
3885 16.7570 4543.90 4678.65 76.50
3886 16.7607 4407.20 4676.71 74.80
3887 16.7645 4404.40 4674.72 74.90
3888 16.7682 4506.30 4672.78 76.00
3889 16.7721 4413.50 4670.79 74.40
3890 16.7757 4346.80 4668.85 74.00
3891 16.7796 4516.90 4666.86 76.10
3892 16.7833 4586.10 4664.87 76.00
3893 16.7871 4437.10 4662.93 74.60
3894 16.7908 4481.70 4660.94 75.30
3895 16.7945 4407.00 4659.01 74.30
3896 16.7983 4623.80 4657.02 75.70
3897 16.8020 4470.30 4655.09 74.90
3898 16.8058 4378.10 4653.10 73.80
3899 16.8095 4390.70 4651.17 74.00
3900 16.8134 4558.40 4649.19 75.30
3901 16.8172 4309.90 4647.21 72.60
3902 16.8209 4448.50 4645.28 74.80
3903 16.8246 4455.80 4643.30 76.00
3904 16.8284 4486.40 4641.37 75.10
3905 16.8321 4316.70 4639.39 73.70
3906 16.8358 4458.70 4637.46 75.30
3907 16.8396 4470.50 4635.48 75.10
3908 16.8433 4455.40 4633.56 74.10
3909 16.8472 4234.60 4631.58 73.20
3910 16.8510 4454.30 4629.61 75.40
3911 16.8547 4434.30 4627.68 75.20
3912 16.8584 4516.30 4625.71 76.90
3913 16.8622 4388.40 4623.79 73.70
3914 16.8659 4376.00 4621.81 74.40
3915 16.8696 4479.50 4619.89 75.40
3916 16.8734 4479.90 4617.92 75.40
3917 16.8771 4305.70 4616.00 73.90
3918 16.8810 4367.20 4614.03 74.90
3919 16.8848 4232.40 4612.06 72.70
3920 16.8885 4356.20 4610.15 73.40
3921 16.8923 4340.00 4608.18 74.30
3922 16.8960 4279.00 4606.26 74.10
3923 16.8997 4335.00 4604.30 73.90
3924 16.9035 4270.60 4602.38 71.10
3925 16.9072 4440.10 4600.42 75.50
3926 16.9109 4457.60 4598.51 75.90
3927 16.9147 4430.40 4596.54 74.70
3928 16.9184 4405.40 4594.63 74.40
3929 16.9223 4313.10 4592.67 74.20
3930 16.9261 4354.40 4590.71 75.00
3931 16.9298 4334.40 4588.80 72.60
3932 16.9335 4495.90 4586.84 74.30
3933 16.9373 4350.80 4584.93 73.60
3934 16.9410 4397.60 4582.98 74.80
3935 16.9447 4300.60 4581.07 73.90
3936 16.9485 4335.40 4579.11 74.20
3937 16.9522 4404.80 4577.21 74.50
3938 16.9561 4421.00 4575.25 74.40
3939 16.9597 4387.30 4573.35 74.50
3940 16.9636 4440.90 4571.40 74.10
3941 16.9674 4293.50 4569.44 73.20
3942 16.9711 4394.10 4567.54 74.90
3943 16.9748 4338.20 4565.59 73.30
3944 16.9785 4399.40 4563.69 74.50
3945 16.9802 4362.70 4562.87 73.00
3946 16.9839 4342.50 4560.97 72.50
3947 16.9876 4330.10 4559.02 73.00
3948 16.9914 4330.90 4557.08 73.20
3949 16.9951 4257.70 4555.18 72.80
3950 16.9989 4535.90 4553.23 75.30
3951 17.0026 4258.90 4551.34 72.10
3952 17.0065 4338.60 4549.40 74.60
3953 17.0102 4265.20 4547.50 73.30
3954 17.0140 4498.70 4545.56 74.20
3955 17.0177 4356.40 4543.62 74.40
3956 17.0215 4457.00 4541.73 74.70
3957 17.0252 4311.00 4539.79 73.40
3958 17.0289 4362.50 4537.90 74.40
3959 17.0327 4361.30 4535.96 74.20
3960 17.0364 4340.40 4534.07 73.20
3961 17.0403 4358.20 4532.13 73.90
3962 17.0439 4556.50 4530.24 73.80
3963 17.0478 4318.00 4528.31 73.40
3964 17.0515 4373.90 4526.37 74.70
3965 17.0553 4291.60 4524.49 73.10
3966 17.0590 4453.20 4522.55 73.80
3967 17.0627 4325.40 4520.67 73.80
3968 17.0665 4336.30 4518.74 73.40
3969 17.0702 4400.00 4516.86 74.80
3970 17.0741 4322.60 4514.92 72.90
3971 17.0779 4250.10 4513.00 73.10
3972 17.0816 4425.80 4511.12 74.70
3973 17.0854 4263.50 4509.19 73.30
3974 17.0891 4303.90 4507.31 74.20
3975 17.0928 4294.90 4505.38 73.50
3976 17.0965 4550.90 4503.51 75.60
3977 17.1003 4243.80 4501.58 73.00
3978 17.1042 4207.10 4499.66 72.70
3979 17.1078 4322.20 4497.78 74.10
3980 17.1117 4360.60 4495.86 73.90
3981 17.1154 4250.60 4493.99 73.40
3982 17.1192 4317.40 4492.06 73.30
3983 17.1229 4254.80 4490.19 73.80
3984 17.1266 4288.70 4488.27 72.70
3985 17.1304 4160.50 4486.40 72.40
3986 17.1341 4525.10 4484.49 76.40
3987 17.1380 4222.30 4482.57 71.80
3988 17.1416 4453.50 4480.70 75.00
3989 17.1455 4365.70 4478.78 74.70
3990 17.1492 4367.30 4476.92 74.60
3991 17.1530 4334.30 4475.00 74.40
3992 17.1567 4294.30 4473.14 73.30
3993 17.1604 4185.90 4471.23 73.40
3994 17.1642 4297.60 4469.36 73.30
3995 17.1679 4373.20 4467.45 74.70
3996 17.1717 4411.40 4465.54 73.90
3997 17.1754 4086.40 4463.68 71.80
3998 17.1793 4326.30 4461.77 73.60
3999 17.1829 4291.00 4459.91 71.70
4000 17.1868 4352.90 4458.00 74.50
4001 17.1905 4252.70 4456.15 72.60
4002 17.1943 4216.00 4454.24 72.30
4003 17.1980 4299.60 4452.34 73.70
4004 17.2017 4213.90 4450.48 72.00
4005 17.2055 4248.40 4448.58 73.80
4006 17.2092 4249.70 4446.72 73.70
4007 17.2131 4286.20 4444.82 73.20
4008 17.2132 4189.10 4444.77 70.70
4009 17.2169 4312.70 4442.92 72.50
4010 17.2206 4235.40 4441.02 70.70
4011 17.2243 4306.70 4439.17 72.10
4012 17.2281 4298.20 4437.27 72.20
4013 17.2320 4227.80 4435.37 71.80
4014 17.2356 4306.10 4433.52 72.10
4015 17.2395 4337.60 4431.63 72.60
4016 17.2432 4133.00 4429.78 71.20
4017 17.2470 4316.50 4427.88 72.20
4018 17.2507 4257.00 4426.04 71.80
4019 17.2544 4193.20 4424.15 71.30
4020 17.2582 4203.50 4422.30 71.20
4021 17.2619 4236.20 4420.41 71.30
4022 17.2656 4292.10 4418.57 71.70
4023 17.2694 4317.90 4416.68 72.90
4024 17.2733 4274.40 4414.79 71.20
4025 17.2770 4127.30 4412.95 69.50
4026 17.2808 4233.50 4411.06 72.10
4027 17.2845 4266.40 4409.22 72.00
4028 17.2882 4272.90 4407.33 71.50
4029 17.2920 4235.10 4405.50 71.60
4030 17.2957 4256.90 4403.61 72.20
4031 17.2994 4231.60 4401.78 70.20
4032 17.3032 4125.90 4399.90 70.70
4033 17.3069 4276.60 4398.06 71.50
4034 17.3107 4298.70 4396.18 71.60
4035 17.3146 4264.60 4394.30 72.30
4036 17.3183 4137.00 4392.47 70.70
4037 17.3221 4256.90 4390.59 71.60
4038 17.3258 4231.00 4388.76 71.20
4039 17.3295 4253.70 4386.88 72.70
4040 17.3333 4214.00 4385.05 71.30
4041 17.3370 4163.00 4383.18 71.10
4042 17.3407 4166.40 4381.35 71.50
4043 17.3445 4191.10 4379.47 71.20
4044 17.3484 4234.00 4377.60 71.70
4045 17.3521 4181.50 4375.78 71.90
4046 17.3559 4134.60 4373.90 70.80
4047 17.3596 4086.00 4372.08 71.00
4048 17.3633 4280.20 4370.21 72.70
4049 17.3671 4229.60 4368.39 71.40
4050 17.3708 4066.80 4366.52 70.30
4051 17.3745 4240.60 4364.70 71.90
4052 17.3783 4171.30 4362.83 71.50
4053 17.3820 4210.80 4361.02 72.00
4054 17.3859 4156.60 4359.15 70.90
4055 17.3897 4251.20 4357.28 72.30
4056 17.3934 4148.40 4355.47 71.90
4057 17.3972 4257.80 4353.60 72.50
4058 17.4009 4059.90 4351.79 70.40
4059 17.4046 4148.40 4349.93 70.70
4060 17.4083 4173.20 4348.12 71.00
4061 17.4121 4183.30 4346.26 70.70
4062 17.4158 4130.90 4344.44 70.60
4063 17.4196 4132.80 4342.58 70.70
4064 17.4235 4224.00 4340.73 72.00
4065 17.4272 4140.60 4338.92 69.80
4066 17.4310 4073.40 4337.06 70.60
4067 17.4347 4140.70 4335.25 71.10
4068 17.4384 4181.30 4333.40 71.80
4069 17.4422 4158.30 4331.59 71.10
4070 17.4459 4167.30 4329.74 70.90
4071 17.4496 4155.10 4327.94 71.30
4072 17.4534 4119.20 4326.09 71.00
4073 17.4573 4195.90 4324.23 71.70
4074 17.4610 4211.70 4322.43 71.60
4075 17.4648 4143.80 4320.58 71.10
4076 17.4685 4185.20 4318.78 71.40
4077 17.4722 4020.70 4316.94 69.10
4078 17.4760 4153.60 4315.14 71.70
4079 17.4797 4219.00 4313.29 72.90
4080 17.4834 4121.50 4311.50 71.10
4081 17.4872 4134.20 4309.65 71.30
4082 17.4911 4131.70 4307.81 71.70
4083 17.4947 4063.20 4306.01 70.30
4084 17.4986 4294.60 4304.17 72.50
4085 17.5023 4039.40 4302.38 70.60
4086 17.5061 4091.40 4300.54 71.20
4087 17.5098 4162.00 4298.75 72.00
4088 17.5135 4151.50 4296.91 71.30
4089 17.5173 4187.70 4295.07 72.40
4090 17.5210 4238.60 4293.28 72.20
4091 17.5249 4107.60 4291.44 70.60
4092 17.5285 4204.00 4289.66 72.10
4093 17.5324 4148.70 4287.82 71.10
4094 17.5361 4121.50 4286.04 71.30
4095 17.5399 4083.90 4284.20 70.50
4096 17.5436 4289.10 4282.42 73.00
4097 17.5473 4199.60 4280.59 71.90
4098 17.5511 4085.70 4278.76 70.50
4099 17.5548 4248.80 4276.98 72.40
4100 17.5586 4093.20 4275.15 70.70
4101 17.5623 4025.70 4273.37 70.90
4102 17.5662 4103.50 4271.54 70.80
4103 17.5699 4196.20 4269.76 72.00
4104 17.5737 4050.50 4267.94 71.10
4105 17.5774 4127.80 4266.16 71.00
4106 17.5812 4055.00 4264.33 69.90
4107 17.5849 4098.90 4262.51 69.90
4108 17.5886 3994.40 4260.74 70.20
4109 17.5924 4133.30 4258.91 71.60
4110 17.5961 4089.90 4257.14 70.90
4111 17.6000 4007.40 4255.32 70.90
4112 17.6036 4079.10 4253.55 71.10
4113 17.6075 4122.10 4251.73 71.20
4114 17.6112 4038.40 4249.91 70.70
4115 17.6150 4122.40 4248.15 71.60
4116 17.6187 4066.30 4246.33 71.30
4117 17.6224 4095.00 4244.56 71.90
4118 17.6262 3978.80 4242.75 70.10
4119 17.6299 4081.40 4240.98 71.60
4120 17.6338 4094.40 4239.17 72.20
4121 17.6376 4039.00 4237.36 69.80
4122 17.6413 4087.50 4235.59 71.00
4123 17.6451 4102.80 4233.78 71.10
4124 17.6488 4054.40 4232.02 70.90
4125 17.6525 4157.20 4230.21 72.40
4126 17.6562 4022.70 4228.45 71.00
4127 17.6600 4095.10 4226.65 71.80
4128 17.6637 4036.70 4224.89 70.90
4129 17.6675 4063.40 4223.08 71.00
4130 17.6714 4016.10 4221.28 70.70
4131 17.6751 4160.20 4219.52 71.00
4132 17.6789 4035.70 4217.72 69.80
4133 17.6826 4106.20 4215.96 70.50
4134 17.6863 3994.50 4214.16 69.70
4135 17.6901 4091.50 4212.41 70.30
4136 17.6938 4059.10 4210.61 69.80
4137 17.6977 4075.80 4208.81 69.70
4138 17.7013 4025.60 4207.06 69.30
4139 17.7052 4009.90 4205.26 69.60
4140 17.7089 4063.60 4203.51 70.40
4141 17.7127 4034.50 4201.72 70.40
4142 17.7164 4013.40 4199.97 69.90
4143 17.7201 4053.30 4198.18 69.80
4144 17.7239 4146.50 4196.39 70.90
4145 17.7276 4090.50 4194.64 71.10
4146 17.7314 4132.30 4192.85 70.40
4147 17.7351 4172.60 4191.11 71.60
4148 17.7390 4133.90 4189.32 71.50
4149 17.7426 4072.10 4187.58 69.90
4150 17.7465 4072.90 4185.79 70.00
4151 17.7502 4076.10 4184.00 70.60
4152 17.7540 4111.10 4182.26 70.80
4153 17.7577 3986.10 4180.48 70.00
4154 17.7614 4009.60 4178.74 69.50
4155 17.7652 4072.20 4176.95 69.80
4156 17.7689 3998.40 4175.22 69.90
4157 17.7728 4027.60 4173.44 70.30
4158 17.7766 4043.30 4171.66 70.20
4159 17.7803 3988.50 4169.92 69.40
4160 17.7840 4071.50 4168.14 69.20
4161 17.7878 4084.10 4166.41 69.90
4162 17.7915 4075.50 4164.63 70.40
4163 17.7952 4097.50 4162.90 70.80
4164 17.7990 4064.70 4161.13 69.20
4165 17.8029 4100.60 4159.35 70.70
4166 17.8065 3849.10 4157.62 68.90
4167 17.8104 4040.30 4155.85 69.90
4168 17.8141 4013.30 4154.12 69.90
4169 17.8179 4049.10 4152.35 70.10
4170 17.8216 4127.10 4150.62 70.80
4171 17.8253 4127.00 4148.85 69.90
4172 17.8291 3974.30 4147.09 69.10
4173 17.8328 4098.20 4145.36 71.30
4174 17.8367 3836.20 4143.59 68.50
4175 17.8403 4035.30 4141.88 70.40
4176 17.8442 3923.00 4140.11 69.00
4177 17.8479 4030.30 4138.39 69.60
4178 17.8517 3930.70 4136.62 67.90
4179 17.8554 4025.20 4134.86 70.20
4180 17.8591 3972.20 4133.14 69.80
4181 17.8629 4003.60 4131.38 69.40
4182 17.8666 3962.60 4129.67 69.10
4183 17.8704 3942.00 4127.91 69.20
4184 17.8741 3946.60 4126.19 70.00
4185 17.8780 3779.40 4124.43 67.30
4186 17.8818 4084.20 4122.68 70.50
4187 17.8855 3969.10 4120.96 69.50
4188 17.8892 3881.60 4119.21 68.30
4189 17.8930 3928.10 4117.50 67.50
4190 17.8967 3975.40 4115.75 69.50
4191 17.9004 3905.60 4114.04 68.50
4192 17.9042 3991.90 4112.29 69.40
4193 17.9081 3966.10 4110.53 68.50
4194 17.9118 3961.60 4108.83 69.00
4195 17.9156 3976.20 4107.08 68.90
4196 17.9193 3893.30 4105.37 68.40
4197 17.9230 4062.00 4103.63 70.00
4198 17.9268 4075.20 4101.92 70.20
4199 17.9305 4141.40 4100.18 70.80
4200 17.9343 3888.80 4098.43 68.70
4201 17.9380 3959.90 4096.73 68.70
4202 17.9419 3850.90 4094.99 68.00
4203 17.9456 4095.70 4093.29 70.70
4204 17.9494 4043.20 4091.55 69.90
4205 17.9531 3928.20 4089.81 68.40
4206 17.9569 3863.20 4088.11 68.50
4207 17.9606 3942.20 4086.37 69.70
4208 17.9643 3953.20 4084.68 68.70
4209 17.9681 3884.40 4082.94 68.10
4210 17.9718 3939.90 4081.25 68.40
4211 17.9757 4010.40 4079.51 70.50
4212 17.9795 3917.60 4077.77 68.90
4213 17.9832 4049.40 4076.08 70.30
4214 17.9869 3966.90 4074.35 69.30
4215 17.9907 3928.30 4072.66 69.50
4216 17.9944 3912.90 4070.93 69.00
4217 17.9981 3963.30 4069.24 69.30
4218 18.0019 3887.40 4067.51 69.50
4219 18.0058 3957.40 4065.78 69.60
4220 18.0095 3974.20 4064.10 69.80
4221 18.0133 3980.90 4062.37 69.70
4222 18.0170 3753.00 4060.69 66.50
4223 18.0208 3981.10 4058.96 68.90
4224 18.0245 3875.50 4057.23 68.50
4225 18.0282 3976.20 4055.55 70.10
4226 18.0320 3874.30 4053.83 68.50
4227 18.0357 3951.30 4052.15 69.40
4228 18.0396 3844.10 4050.43 68.70
4229 18.0432 4062.70 4048.75 71.10
4230 18.0471 3940.70 4047.03 69.50
4231 18.0508 3920.40 4045.31 67.90
4232 18.0546 3993.90 4043.64 68.70
4233 18.0583 3897.10 4041.92 68.90
4234 18.0620 3953.10 4040.25 70.10
4235 18.0658 4016.50 4038.53 70.40
4236 18.0697 4004.40 4036.82 70.20
4237 18.0734 3918.30 4035.15 69.30
4238 18.0772 3849.50 4033.43 68.50
4239 18.0809 3844.70 4031.77 69.00
4240 18.0847 3874.10 4030.05 68.50
4241 18.0884 3980.30 4028.39 70.00
4242 18.0921 4036.70 4026.68 70.50
4243 18.0959 3905.10 4024.97 68.50
4244 18.0996 3947.60 4023.30 69.00
4245 18.1035 3874.60 4021.59 68.90
4246 18.1071 3889.30 4019.93 69.00
4247 18.1110 3900.60 4018.23 69.50
4248 18.1147 3962.00 4016.52 69.30
4249 18.1185 3921.40 4014.86 69.80
4250 18.1222 3838.30 4013.16 68.00
4251 18.1259 3913.30 4011.50 68.50
4252 18.1297 3968.70 4009.80 69.70
4253 18.1334 3889.80 4008.14 69.50
4254 18.1373 3845.00 4006.44 68.60
4255 18.1411 3909.20 4004.74 69.10
4256 18.1448 3795.00 4003.09 67.70
4257 18.1486 4006.30 4001.39 70.40
4258 18.1523 3877.30 3999.74 69.90
4259 18.1560 3930.60 3998.04 69.90
4260 18.1598 3842.30 3996.35 67.80
4261 18.1635 3962.10 3994.70 69.60
4262 18.1674 3961.20 3993.00 69.10
4263 18.1710 3841.40 3991.36 68.50
4264 18.1749 3904.50 3989.66 68.40
4265 18.1786 3799.40 3988.02 66.70
4266 18.1824 3894.20 3986.33 68.50
4267 18.1861 3879.10 3984.64 67.60
4268 18.1898 3778.90 3982.99 67.70
4269 18.1936 3936.80 3981.31 69.10
4270 18.1973 3891.40 3979.67 68.80
4271 18.2012 3961.80 3977.98 69.50
4272 18.2050 3962.20 3976.29 69.70
4273 18.2087 4002.60 3974.65 70.10
4274 18.2125 3955.50 3972.97 69.60
4275 18.2162 3927.00 3971.33 69.00
4276 18.2199 3886.70 3969.65 68.50
4277 18.2236 3950.60 3968.02 69.20
4278 18.2274 3871.70 3966.34 68.90
4279 18.2313 3911.90 3964.66 68.50
4280 18.2349 3845.00 3963.02 68.90
4281 18.2388 3847.20 3961.35 67.40
4282 18.2425 3856.50 3959.71 67.00
4283 18.2463 3971.00 3958.04 69.30
4284 18.2500 3852.20 3956.36 68.30
4285 18.2537 3873.80 3954.73 68.70
4286 18.2575 3776.60 3953.06 67.50
4287 18.2612 3952.00 3951.43 69.60
4288 18.2651 3803.70 3949.76 67.80
4289 18.2689 3926.30 3948.09 69.50
4290 18.2726 3828.20 3946.47 68.80
4291 18.2764 3900.70 3944.80 67.90
4292 18.2801 3888.70 3943.17 67.30
4293 18.2838 3882.40 3941.51 69.10
4294 18.2875 3776.80 3939.89 67.70
4295 18.2913 3903.70 3938.22 69.50
4296 18.2952 3833.80 3936.56 67.80
4297 18.2988 3857.90 3934.94 68.30
4298 18.3027 3805.80 3933.27 67.50
4299 18.3064 3888.00 3931.66 67.70
4300 18.3102 3958.60 3930.00 69.70
4301 18.3139 4020.30 3928.34 69.80
4302 18.3176 3975.00 3926.72 69.20
4303 18.3214 3848.30 3925.06 68.00
4304 18.3251 3833.30 3923.45 67.60
4305 18.3290 3873.80 3921.79 68.60
4306 18.3328 3808.40 3920.14 68.50
4307 18.3365 3868.20 3918.53 68.50
4308 18.3403 3972.60 3916.87 69.30
4309 18.3440 3934.80 3915.26 69.00
4310 18.3477 3831.80 3913.61 68.00
4311 18.3515 3801.50 3911.96 67.60
4312 18.3552 3821.50 3910.35 67.70
4313 18.3591 3943.60 3908.70 68.70
4314 18.3627 3896.60 3907.10 67.50
4315 18.3666 3876.80 3905.45 67.60
4316 18.3703 3999.40 3903.84 69.70
4317 18.3741 3928.40 3902.20 69.30
4318 18.3778 3856.80 3900.55 66.80
4319 18.3815 3816.70 3898.95 68.10
4320 18.3853 3904.80 3897.31 68.60
4321 18.3890 3842.60 3895.71 67.80
4322 18.3929 3953.40 3894.07 68.40
4323 18.3967 3853.60 3892.43 67.90
4324 18.4004 3784.10 3890.83 66.80
4325 18.4042 3970.10 3889.19 68.90
4326 18.4079 3882.60 3887.60 68.40
4327 18.4116 3946.70 3885.96 68.40
4328 18.4154 3895.60 3884.32 67.90
4329 18.4191 3923.00 3882.73 69.10
4330 18.4230 3783.40 3881.09 67.40
4331 18.4266 3946.60 3879.50 69.30
4332 18.4305 3885.70 3877.87 68.70
4333 18.4342 3830.40 3876.24 66.90
4334 18.4380 3883.90 3874.65 68.60
4335 18.4417 3992.90 3873.02 69.90
4336 18.4454 3863.80 3871.43 68.30
4337 18.4492 3880.70 3869.81 68.70
4338 18.4531 3881.40 3868.18 67.00
4339 18.4568 3934.00 3866.59 69.20
4340 18.4606 3938.80 3864.97 69.40
4341 18.4643 3926.20 3863.38 68.60
4342 18.4681 3824.50 3861.76 67.90
4343 18.4718 3870.80 3860.18 68.00
4344 18.4755 3867.90 3858.56 69.10
4345 18.4793 3969.20 3856.93 68.80
4346 18.4830 3950.20 3855.36 69.10
4347 18.4869 3931.20 3853.74 68.70
4348 18.4905 3904.80 3852.16 69.10
4349 18.4944 3967.20 3850.54 69.60
4350 18.4981 3998.20 3848.92 69.50
4351 18.5019 3959.90 3847.35 68.80
4352 18.5056 3988.10 3845.74 69.10
4353 18.5093 3862.30 3844.16 68.20
4354 18.5131 3914.70 3842.55 68.40
4355 18.5170 3985.50 3840.94 69.60
4356 18.5207 3963.20 3839.37 68.80
4357 18.5245 4074.40 3837.75 69.30
4358 18.5282 3919.20 3836.19 69.10
4359 18.5319 3974.10 3834.58 69.50
4360 18.5357 3936.50 3832.97 68.80
4361 18.5394 4084.10 3831.40 70.30
4362 18.5432 3944.10 3829.79 68.70
4363 18.5469 3982.00 3828.23 69.70
4364 18.5508 3999.60 3826.63 68.70
4365 18.5546 4096.80 3825.02 68.90
4366 18.5583 3879.60 3823.46 68.10
4367 18.5620 4089.80 3821.86 70.00
4368 18.5658 3984.40 3820.30 69.60
4369 18.5695 4000.30 3818.70 69.70
4370 18.5734 4003.80 3817.10 70.00
4371 18.5770 4098.80 3815.54 71.00
4372 18.5809 4033.80 4050.83 69.60
4373 18.5846 4019.70 4056.53 69.80
4374 18.5884 3983.40 4062.74 68.80
4375 18.5921 4064.00 4069.32 69.50
4376 18.5958 4044.40 4076.12 69.60
4377 18.5996 4157.10 4083.53 71.20
4378 18.6033 4142.20 4091.19 70.60
4379 18.6071 4289.30 4099.54 71.80
4380 18.6110 4129.80 4108.42 70.10
4381 18.6147 4205.80 4117.61 71.10
4382 18.6185 4103.00 4127.63 70.50
4383 18.6222 4219.10 4138.02 71.00
4384 18.6259 4159.10 4149.38 70.60
4385 18.6297 4218.70 4161.48 71.50
4386 18.6334 4154.00 4174.05 72.30
4387 18.6373 4298.50 4187.81 71.30
4388 18.6409 4229.90 4202.11 70.80
4389 18.6448 4171.40 4217.82 70.60
4390 18.6486 4402.60 4234.62 72.30
4391 18.6523 4401.60 4252.14 70.80
4392 18.6560 4375.00 4271.41 71.90
4393 18.6597 4389.50 4291.55 72.40
4394 18.6635 4457.60 4313.75 73.60
4395 18.6674 4652.40 4337.66 74.80
4396 18.6710 4523.80 4362.73 73.70
4397 18.6749 4650.30 4390.48 74.20
4398 18.6786 4651.40 4419.67 75.00
4399 18.6824 4768.70 4452.09 74.80
4400 18.6861 4765.90 4487.24 76.30
4401 18.6898 4923.10 4524.41 76.60
4402 18.6936 4885.40 4565.91 76.20
4403 18.6973 4932.00 4609.94 76.90
4404 18.7012 4908.30 4659.36 77.10
4405 18.7050 5043.30 4713.47 77.60
4406 18.7087 5028.10 4771.27 77.50
4407 18.7125 5184.80 4836.56 79.80
4408 18.7162 5306.60 4906.69 80.50
4409 18.7199 5426.00 4986.34 80.80
4410 18.7237 5411.70 5074.89 82.00
4411 18.7274 5464.40 5170.83 82.00
4412 18.7313 5544.90 5281.01 82.20
4413 18.7349 5768.40 5401.33 83.30
4414 18.7388 5991.10 5540.50 85.10
4415 18.7425 6187.60 5698.23 86.40
4416 18.7463 6305.90 5872.92 88.20
4417 18.7500 6448.60 6077.96 89.90
4418 18.7537 6657.50 6307.54 91.10
4419 18.7575 7038.00 6580.26 94.70
4420 18.7614 7300.30 6898.87 96.40
4421 18.7651 7741.70 7262.76 99.50
4422 18.7689 8140.30 7705.07 102.50
4423 18.7726 8882.70 8220.07 107.20
4424 18.7764 9330.60 8860.08 108.90
4425 18.7801 10469.00 9648.90 117.10
4426 18.7838 11483.60 10611.80 123.90
4427 18.7876 12953.50 11881.90 134.20
4428 18.7913 14570.00 13509.20 142.80
4429 18.7952 17468.10 15763.80 156.20
4430 18.7990 20487.20 18860.00 173.50
4431 18.8027 24409.90 22995.70 189.60
4432 18.8064 29255.10 28756.40 215.60
4433 18.8102 36230.10 36169.90 244.60
4434 18.8139 44134.70 45778.40 276.50
4435 18.8178 54421.10 56961.10 315.40
4436 18.8214 64326.40 67620.40 349.20
4437 18.8253 72613.10 74873.60 381.10
4438 18.8290 74864.90 75009.30 383.20
4439 18.8328 72567.90 67970.70 380.70
4440 18.8365 62229.20 57078.80 342.20
4441 18.8403 51423.20 46175.90 304.60
4442 18.8440 39335.60 36493.30 258.30
4443 18.8477 30060.70 29002.50 219.30
4444 18.8515 22774.60 23169.90 184.90
4445 18.8554 18468.60 18885.20 162.20
4446 18.8591 15529.20 15842.40 146.70
4447 18.8629 13140.40 13558.10 133.20
4448 18.8666 11453.60 11908.20 124.60
4449 18.8703 10236.40 10622.20 116.80
4450 18.8741 9344.00 9623.46 110.10
4451 18.8778 8727.40 8847.88 106.50
4452 18.8817 8055.80 8199.44 101.60
4453 18.8853 7627.80 7677.90 98.20
4454 18.8892 7226.00 7229.24 96.20
4455 18.8930 6996.20 6850.89 92.80
4456 18.8967 6612.80 6536.57 92.00
4457 18.9004 6399.10 6259.11 90.10
4458 18.9042 6174.00 6025.19 88.00
4459 18.9079 6141.40 5815.91 88.00
4460 18.9118 5778.50 5632.73 83.80
4461 18.9154 5696.60 5475.57 84.20
4462 18.9193 5422.00 5332.63 81.70
4463 18.9230 5606.00 5208.73 82.80
4464 18.9268 5322.10 5095.00 81.20
4465 18.9305 5350.00 4993.02 79.80
4466 18.9342 5164.60 4903.56 79.80
4467 18.9380 5241.90 4820.48 79.80
4468 18.9417 4920.50 4747.06 77.70
4469 18.9456 5051.70 4678.39 78.40
4470 18.9494 4821.40 4615.79 76.90
4471 18.9531 4809.20 4559.96 76.70
4472 18.9569 4696.10 4507.31 75.60
4473 18.9606 4791.10 4460.11 76.70
4474 18.9643 4623.20 4415.38 74.80
4475 18.9681 4628.60 4374.02 74.70
4476 18.9718 4586.40 4336.71 74.70
4477 18.9757 4552.10 4301.08 74.40
4478 18.9795 4280.40 4267.95 71.50
4479 18.9832 4443.10 4237.86 73.00
4480 18.9869 4372.90 4208.97 72.60
4481 18.9907 4396.90 4182.64 72.80
4482 18.9944 4163.40 4157.28 70.60
4483 18.9982 4334.70 4133.46 72.10
4484 19.0019 4254.30 4111.66 71.60
4485 19.0058 4206.30 4090.55 70.80
4486 19.0095 4226.50 4071.15 71.50
4487 19.0133 4142.30 4052.32 70.70
4488 19.0170 4100.00 4034.52 70.60
4489 19.0208 4179.40 4018.08 71.20
4490 19.0245 4140.20 4002.07 70.60
4491 19.0282 4049.90 3987.26 68.50
4492 19.0320 3931.50 3972.78 68.60
4493 19.0359 3967.00 3959.01 69.50
4494 19.0396 3876.30 3946.22 68.80
4495 19.0434 3907.70 3933.68 68.50
4496 19.0471 3930.50 3922.02 68.60
4497 19.0508 3962.10 3910.56 68.70
4498 19.0546 3895.10 3899.60 67.90
4499 19.0583 3773.20 3889.37 67.40
4500 19.0621 4013.70 3879.28 69.70
4501 19.0658 3834.10 3869.86 68.00
4502 19.0697 3892.40 3860.55 68.30
4503 19.0735 3883.70 3851.60 68.80
4504 19.0772 3811.00 3612.83 66.90
4505 19.0809 3848.40 3611.35 68.20
4506 19.0847 3916.30 3609.91 68.80
4507 19.0884 3815.50 3608.43 67.90
4508 19.0923 3865.40 3606.95 68.20
4509 19.0959 3925.80 3605.51 69.30
4510 19.0998 3806.20 3604.03 67.40
4511 19.1035 3810.70 3602.60 68.10
4512 19.1073 3760.40 3601.12 67.40
4513 19.1110 3773.20 3599.65 67.40
4514 19.1147 3776.90 3598.21 68.60
4515 19.1185 3693.60 3596.74 65.90
4516 19.1224 3779.10 3595.27 67.60
4517 19.1261 3811.80 3593.84 68.10
4518 19.1299 3807.20 3592.37 67.10
4519 19.1336 3754.20 3590.94 65.70
4520 19.1374 3763.70 3589.47 67.10
4521 19.1411 3816.00 3588.00 67.90
4522 19.1448 3726.80 3586.57 66.80
4523 19.1486 3708.60 3585.11 66.20
4524 19.1523 3624.50 3583.68 65.30
4525 19.1562 3857.50 3582.22 67.60
4526 19.1600 3678.10 3580.76 64.80
4527 19.1637 3833.40 3579.33 67.60
4528 19.1674 3701.20 3577.87 67.30
4529 19.1712 3762.10 3576.45 67.30
4530 19.1749 3797.80 3574.99 67.90
4531 19.1787 3707.20 3573.53 66.30
4532 19.1824 3658.00 3572.11 66.60
4533 19.1863 3718.80 3570.66 65.70
4534 19.1900 3646.90 3569.24 66.60
4535 19.1938 3622.30 3567.78 65.90
4536 19.1975 3571.40 3566.33 65.90
4537 19.2013 3598.50 3564.92 65.70
4538 19.2050 3622.90 3563.46 65.90
4539 19.2087 3722.00 3562.05 66.70
4540 19.2125 3631.70 3560.60 66.20
4541 19.2164 3775.50 3559.15 67.70
4542 19.2201 3566.50 3557.74 65.00
4543 19.2239 3621.50 3556.29 65.20
4544 19.2276 3734.00 3554.88 66.90
4545 19.2313 3590.30 3553.44 65.50
4546 19.2351 3545.10 3551.99 65.50
4547 19.2388 3692.70 3550.59 66.80
4548 19.2426 3619.00 3549.14 65.20
4549 19.2465 3607.40 3547.70 65.50
4550 19.2502 3569.40 3546.30 65.30
4551 19.2540 3618.70 3544.86 65.20
4552 19.2577 3529.70 3543.46 64.60
4553 19.2614 3574.40 3542.02 65.90
4554 19.2652 3475.30 3540.58 64.70
4555 19.2689 3506.80 3539.18 64.60
4556 19.2728 3606.70 3537.74 66.00
4557 19.2764 3657.00 3536.34 66.70
4558 19.2803 3520.70 3534.91 63.80
4559 19.2840 3641.50 3533.48 66.40
4560 19.2878 3640.90 3532.08 66.50
4561 19.2915 3548.60 3530.65 65.30
4562 19.2952 3514.10 3529.26 64.70
4563 19.2990 3612.70 3527.83 66.80
4564 19.3029 3526.40 3526.40 65.70
4565 19.3065 3605.70 3525.01 66.60
4566 19.3104 3482.30 3523.58 63.80
4567 19.3141 3542.40 3522.19 65.50
4568 19.3179 3551.70 3520.76 65.90
4569 19.3216 3484.20 3519.34 64.60
4570 19.3253 3532.10 3517.95 65.70
4571 19.3291 3476.10 3516.53 64.80
4572 19.3330 3575.40 3515.11 66.30
4573 19.3367 3486.40 3513.72 64.60
4574 19.3405 3445.60 3512.30 65.30
4575 19.3442 3706.90 3510.92 67.80
4576 19.3479 3630.00 3509.50 66.20
4577 19.3517 3572.00 3508.09 66.00
4578 19.3554 3491.80 3506.71 64.60
4579 19.3592 3522.60 3505.29 64.20
4580 19.3629 3562.30 3503.91 65.70
4581 19.3668 3655.60 3502.50 66.20
4582 19.3706 3380.00 3501.09 63.40
4583 19.3743 3531.80 3499.71 65.60
4584 19.3780 3409.30 3498.30 63.50
4585 19.3818 3483.00 3496.93 64.20
4586 19.3855 3565.60 3495.52 65.70
4587 19.3894 3458.70 3494.11 63.90
4588 19.3930 3564.60 3492.74 65.40
4589 19.3969 3530.70 3491.33 65.10
4590 19.4006 3416.60 3489.96 64.30
4591 19.4044 3521.30 3488.55 65.30
4592 19.4081 3405.10 3487.15 64.30
4593 19.4118 3505.80 3485.78 65.50
4594 19.4156 3478.80 3484.38 63.40
4595 19.4195 3610.80 3500.42 65.10
4596 19.4231 3396.60 3499.58 63.40
4597 19.4270 3371.60 3498.74 63.20
4598 19.4307 3375.60 3497.94 63.10
4599 19.4345 3516.30 3497.16 64.50
4600 19.4382 3504.30 3496.40 64.40
4601 19.4419 3370.00 3495.70 63.20
4602 19.4457 3407.90 3495.01 64.20
4603 19.4494 3481.90 3494.38 65.40
4604 19.4533 3448.70 3493.76 62.60
4605 19.4571 3515.50 3493.19 64.80
4606 19.4608 3332.80 3492.68 62.70
4607 19.4646 3549.30 3492.20 65.30
4608 19.4683 3482.20 3491.79 64.40
4609 19.4720 3574.90 3491.41 64.60
4610 19.4758 3403.60 3491.10 63.60
4611 19.4795 3469.10 3490.86 64.80
4612 19.4834 3439.40 3490.68 64.20
4613 19.4870 3503.30 3490.58 64.40
4614 19.4909 3279.90 3490.55 63.10
4615 19.4946 3609.30 3490.62 65.30
4616 19.4984 3382.70 3490.77 62.80
4617 19.5021 3439.70 3491.03 63.70
4618 19.5060 3350.10 3491.40 62.50
4619 19.5096 3494.30 3491.89 64.30
4620 19.5135 3421.50 3492.51 64.40
4621 19.5172 3364.10 3493.27 63.50
4622 19.5210 3481.50 3494.20 63.90
4623 19.5247 3363.00 3495.32 63.10
4624 19.5285 3468.10 3496.59 65.00
4625 19.5322 3520.90 3498.12 65.50
4626 19.5359 3360.10 3499.84 64.00
4627 19.5397 3377.10 3501.87 64.30
4628 19.5436 3479.60 3504.20 64.90
4629 19.5473 3449.60 3506.79 64.50
4630 19.5511 3335.40 3509.83 63.20
4631 19.5548 3510.70 3513.19 64.90
4632 19.5585 3480.50 3517.11 65.30
4633 19.5623 3517.20 3521.58 64.50
4634 19.5660 3425.10 3526.53 63.90
4635 19.5699 3479.10 3532.31 64.50
4636 19.5735 3348.80 3538.72 62.90
4637 19.5774 3518.40 3546.23 65.70
4638 19.5812 3447.50 3554.82 64.30
4639 19.5849 3410.30 3564.42 64.40
4640 19.5886 3433.00 3575.73 63.00
4641 19.5924 3634.00 3588.82 66.60
4642 19.5961 3529.00 3603.56 66.70
4643 19.6000 3528.50 3621.18 66.20
4644 19.6036 3422.20 3641.24 64.40
4645 19.6075 3732.70 3665.46 67.50
4646 19.6112 3410.80 3694.21 63.60
4647 19.6150 3622.90 3727.63 66.90
4648 19.6187 3657.90 3769.00 66.50
4649 19.6224 3661.60 3818.19 66.60
4650 19.6262 3598.70 3880.84 67.00
4651 19.6301 3800.40 3960.40 68.00
4652 19.6338 3769.10 4060.59 66.90
4653 19.6376 3965.50 4196.65 68.70
4654 19.6413 4015.20 4374.86 69.30
4655 19.6451 4227.90 4622.98 72.30
4656 19.6488 4469.60 4959.57 74.60
4657 19.6525 4949.90 5395.43 79.40
4658 19.6563 5270.50 5973.47 81.90
4659 19.6600 6082.60 6661.31 88.20
4660 19.6639 6658.50 7445.64 92.00
4661 19.6677 7468.90 8152.92 99.20
4662 19.6714 7835.90 8528.34 102.70
4663 19.6751 7991.20 8407.35 104.60
4664 19.6789 7648.50 7837.28 100.60
4665 19.6826 6969.50 7085.30 95.70
4666 19.6864 6159.90 6322.08 89.60
4667 19.6901 5471.30 5686.19 83.30
4668 19.6940 4787.50 5166.17 75.10
4669 19.6978 4428.80 4770.41 73.20
4670 19.7015 4036.70 4482.50 70.50
4671 19.7052 3927.70 4263.62 69.70
4672 19.7090 3870.50 4105.38 68.80
4673 19.7127 3849.00 3983.06 68.80
4674 19.7166 3724.80 3889.27 67.60
4675 19.7202 3699.80 3817.43 67.20
4676 19.7241 3518.10 3758.03 66.00
4677 19.7278 3506.90 3710.54 65.90
4678 19.7316 3543.90 3669.89 65.00
4679 19.7353 3497.30 3635.63 65.20
4680 19.7390 3431.10 3607.16 64.50
4681 19.7428 3504.50 3581.98 65.20
4682 19.7465 3456.00 3560.69 64.80
4683 19.7504 3512.70 3541.55 66.10
4684 19.7542 3363.70 3524.73 63.80
4685 19.7579 3413.50 3510.20 63.80
4686 19.7617 3393.60 3496.89 63.50
4687 19.7654 3369.30 3484.96 63.50
4688 19.7691 3328.80 3474.48 62.60
4689 19.7729 3374.90 3464.72 64.30
4690 19.7766 3439.60 3456.06 64.00
4691 19.7805 3359.20 3447.92 63.80
4692 19.7843 3354.90 3440.45 63.90
4693 19.7880 3404.10 3433.74 63.20
4694 19.7917 3273.70 3427.34 61.90
4695 19.7955 3379.20 3421.56 63.30
4696 19.7992 3286.30 3416.01 61.70
4697 19.8030 3445.70 3410.82 63.00
4698 19.8067 3262.40 3406.08 62.70
4699 19.8106 3356.00 3401.48 64.30
4700 19.8143 3353.60 3397.26 63.20
4701 19.8181 3395.30 3393.15 63.90
4702 19.8218 3248.20 3389.25 62.50
4703 19.8256 3394.60 3385.63 63.80
4704 19.8293 3205.30 3382.08 62.60
4705 19.8330 3422.20 3378.78 63.60
4706 19.8368 3266.90 3375.53 62.80
4707 19.8407 3414.20 3372.40 63.10
4708 19.8444 3225.50 3369.48 62.80
4709 19.8482 3283.70 3366.58 63.20
4710 19.8519 3220.90 3363.78 62.40
4711 19.8556 3311.50 3361.15 62.60
4712 19.8594 3219.00 3358.53 62.20
4713 19.8631 3360.50 3356.05 63.10
4714 19.8669 3307.30 3353.57 63.40
4715 19.8708 3281.90 3351.17 62.30
4716 19.8745 3277.60 3348.88 61.50
4717 19.8783 3353.10 3346.60 63.30
4718 19.8820 3289.30 3344.42 62.60
4719 19.8857 3276.70 3342.24 62.70
4720 19.8895 3196.60 3340.10 62.10
4721 19.8932 3161.60 3338.06 61.60
4722 19.8971 3251.50 3336.00 62.40
4723 19.9007 3325.90 3334.04 63.30
4724 19.9046 3181.50 3332.06 61.90
4725 19.9083 3290.30 3330.11 63.30
4726 19.9121 3210.60 3328.25 61.70
4727 19.9158 3209.90 3326.36 62.10
4728 19.9195 3319.40 3324.55 63.40
4729 19.9233 3284.00 3322.72 63.30
4730 19.9272 3162.40 3320.92 61.30
4731 19.9308 3238.70 3302.44 62.70
4732 19.9347 3272.20 3301.16 62.50
4733 19.9384 3108.80 3299.88 60.50
4734 19.9422 3265.30 3298.63 63.30
4735 19.9459 3288.40 3297.35 62.30
4736 19.9496 3179.70 3296.11 61.90
4737 19.9534 3253.90 3294.83 62.70
4738 19.9573 3154.50 3293.55 61.30
4739 19.9610 3288.00 3292.31 63.40
4740 19.9648 3198.40 3291.04 61.00
4741 19.9685 3226.20 3289.80 61.30
4742 19.9722 3172.40 3288.53 60.70
4743 19.9760 3328.60 3287.25 63.30
4744 19.9797 3228.40 3286.02 62.50
4745 19.9835 3312.40 3284.75 63.40
4746 19.9872 3270.60 3283.51 63.10
4747 19.9911 3317.60 3282.24 62.70
4748 19.9949 3276.90 3280.97 62.90
4749 19.9986 3385.40 3279.74 63.70
4750 20.0023 3210.70 3278.48 60.90
4751 20.0061 3334.50 3277.24 63.30
4752 20.0098 3138.90 3275.98 61.70
4753 20.0137 3272.80 3274.72 63.40
4754 20.0173 3212.60 3273.49 62.00
4755 20.0212 3243.90 3272.22 62.50
4756 20.0249 3286.80 3271.00 62.30
4757 20.0287 3261.90 3269.74 62.80
4758 20.0324 3123.40 3268.48 61.30
4759 20.0361 3203.90 3267.25 62.50
4760 20.0399 3231.00 3266.00 62.30
4761 20.0438 3286.90 3264.74 62.90
4762 20.0474 3208.60 3263.52 61.60
4763 20.0513 3222.30 3262.26 61.60
4764 20.0550 3098.80 3261.04 61.30
4765 20.0588 3209.50 3259.79 62.10
4766 20.0625 3124.40 3258.54 60.40
4767 20.0662 3248.50 3257.32 62.50
4768 20.0700 3157.70 3256.07 61.60
4769 20.0737 3182.00 3254.85 62.40
4770 20.0776 3213.30 3253.61 63.20
4771 20.0814 3239.30 3252.36 63.00
4772 20.0851 3203.30 3251.15 61.30
4773 20.0889 3302.50 3249.90 62.80
4774 20.0926 3153.10 3248.69 60.80
4775 20.0963 3361.00 3247.44 63.40
4776 20.1001 3213.20 3246.20 61.40
4777 20.1038 3148.00 3244.99 61.40
4778 20.1077 3169.60 3243.75 61.40
4779 20.1113 3124.50 3242.54 61.00
4780 20.1152 3168.20 3241.30 61.00
4781 20.1189 3200.20 3240.06 61.80
4782 20.1227 3147.10 3238.86 60.70
4783 20.1264 3295.90 3237.62 62.30
4784 20.1301 3189.70 3236.42 60.80
4785 20.1339 3153.80 3235.18 60.40
4786 20.1378 3179.80 3233.95 60.50
4787 20.1415 3200.20 3232.74 61.90
4788 20.1453 3170.80 3231.51 61.80
4789 20.1490 3265.10 3230.31 62.80
4790 20.1528 3159.90 3229.08 61.30
4791 20.1565 3099.70 3227.85 60.30
4792 20.1602 3118.80 3226.65 61.00
4793 20.1640 3230.80 3225.43 61.60
4794 20.1679 3144.00 3224.20 60.90
4795 20.1716 3253.50 3223.00 62.00
4796 20.1754 3146.70 3221.78 61.10
4797 20.1791 3222.70 3220.59 61.90
4798 20.1828 3139.20 3219.36 61.40
4799 20.1866 3147.00 3218.14 61.10
4800 20.1903 3166.60 3216.95 61.10
4801 20.1942 3104.10 3215.73 60.70
4802 20.1978 3181.30 3214.54 60.00
4803 20.2017 3254.90 3213.32 62.10
4804 20.2055 3088.20 3212.10 59.80
4805 20.2092 3181.40 3210.91 61.70
4806 20.2129 3067.90 3209.70 60.40
4807 20.2167 3175.50 3208.51 61.20
4808 20.2204 3215.20 3207.30 62.10
4809 20.2243 3234.90 3206.08 62.30
4810 20.2279 3255.50 3204.90 62.70
4811 20.2318 3188.20 3203.69 61.80
4812 20.2355 3194.80 3202.51 61.80
4813 20.2393 3192.10 3201.29 62.40
4814 20.2430 3080.80 3200.08 60.10
4815 20.2467 3213.90 3198.91 61.60
4816 20.2505 3037.20 3197.70 60.20
4817 20.2542 3284.40 3196.52 62.90
4818 20.2581 3297.70 3195.32 62.90
4819 20.2619 3258.50 3194.11 62.70
4820 20.2656 3229.10 3192.94 62.00
4821 20.2694 3090.80 3191.73 60.60
4822 20.2731 3122.10 3190.56 61.50
4823 20.2768 3167.10 3189.36 60.90
4824 20.2806 3113.40 3188.15 61.20
4825 20.2843 3143.20 3186.99 61.30
4826 20.2882 3113.50 3185.79 60.70
4827 20.2918 3223.70 3184.62 61.90
4828 20.2957 3230.30 3183.42 62.30
4829 20.2994 3135.90 3182.22 61.10
4830 20.3032 3111.10 3181.06 60.40
4831 20.3069 3222.10 3179.86 62.40
4832 20.3106 3127.50 3178.70 60.90
4833 20.3144 3109.50 3177.51 61.10
4834 20.3183 3115.10 3176.31 61.30
4835 20.3220 3152.60 3175.15 61.40
4836 20.3258 3115.40 3173.96 60.50
4837 20.3295 3213.90 3172.80 63.00
4838 20.3333 3132.50 3171.61 61.80
4839 20.3370 3145.80 3170.42 61.70
4840 20.3407 3067.10 3169.26 60.50
4841 20.3445 3092.20 3168.08 60.90
4842 20.3482 3023.40 3166.92 60.60
4843 20.3521 3246.80 3165.74 62.60
4844 20.3559 3135.80 3164.55 61.20
4845 20.3596 3105.40 3163.40 60.70
4846 20.3633 3050.20 3162.22 60.10
4847 20.3671 3120.60 3161.07 61.50
4848 20.3708 3058.60 3159.89 60.40
4849 20.3746 3084.30 3158.70 59.60
4850 20.3783 2971.80 3157.56 59.10
4851 20.3822 3022.20 3156.38 60.10
4852 20.3860 3112.10 3155.20 61.50
4853 20.3897 3194.60 3154.05 62.20
4854 20.3934 3087.10 3152.88 60.70
4855 20.3972 3277.10 3151.73 62.10
4856 20.4009 3232.10 3150.56 62.00
4857 20.4048 3189.90 3149.39 60.80
4858 20.4084 2990.80 3148.24 59.90
4859 20.4123 3262.90 3147.07 61.70
4860 20.4160 3056.30 3145.93 61.10
4861 20.4198 3114.80 3144.76 61.10
4862 20.4235 3083.70 3143.59 61.30
4863 20.4272 3109.90 3142.46 61.00
4864 20.4310 3053.90 3141.29 60.10
4865 20.4347 3126.40 3140.15 61.30
4866 20.4386 3097.70 3138.99 60.70
4867 20.4424 3134.30 3137.82 61.60
4868 20.4461 3102.70 3136.69 60.90
4869 20.4499 3165.30 3135.52 62.00
4870 20.4536 3039.50 3134.39 59.70
4871 20.4573 3017.40 3133.23 59.20
4872 20.4611 2986.30 3132.07 58.80
4873 20.4648 3059.30 3130.94 61.50
4874 20.4687 3039.10 3129.78 60.80
4875 20.4723 3243.10 3128.65 62.70
4876 20.4762 3143.40 3127.50 62.00
4877 20.4799 3139.60 3126.34 62.20
4878 20.4837 3047.80 3125.22 60.50
4879 20.4874 3214.10 3124.06 62.40
4880 20.4911 3064.00 3122.94 61.00
4881 20.4949 3015.10 3121.79 60.20
4882 20.4988 3072.60 3120.63 60.40
4883 20.5025 3070.60 3119.51 61.60
4884 20.5063 3121.60 3118.36 62.00
4885 20.5100 3106.30 3117.24 62.20
4886 20.5138 2990.20 3116.09 60.40
4887 20.5175 3071.80 3114.95 60.00
4888 20.5212 3011.20 3113.83 60.30
4889 20.5250 3130.70 3112.68 62.10
4890 20.5287 3001.10 3111.57 60.40
4891 20.5326 3179.80 3110.42 61.90
4892 20.5364 2922.90 3109.28 59.10
4893 20.5401 3140.90 3108.17 61.50
4894 20.5438 3065.40 3107.02 60.30
4895 20.5476 3160.80 3105.91 62.10
4896 20.5513 2981.80 3104.77 59.60
4897 20.5551 3010.40 3103.63 60.40
4898 20.5588 3160.40 3102.53 62.60
4899 20.5627 3060.60 3101.39 62.50
4900 20.5664 3132.90 3100.28 61.70
4901 20.5702 3173.00 3099.14 62.50
4902 20.5739 3054.10 3098.01 62.00
4903 20.5777 3140.40 3096.90 62.60
4904 20.5814 3014.30 3095.77 59.40
4905 20.5851 3105.30 3094.67 61.60
4906 20.5889 2924.80 3093.54 58.70
4907 20.5926 3002.50 3092.44 61.60
4908 20.5965 3080.80 3091.31 61.60
4909 20.6003 3103.70 3090.18 61.90
4910 20.6040 2946.10 3089.08 60.70
4911 20.6077 3088.90 3087.95 62.00
4912 20.6115 3083.90 3086.85 62.70
4913 20.6152 3160.50 3085.73 62.70
4914 20.6190 3004.20 3084.60 61.50
4915 20.6227 3082.20 3083.51 62.50
4916 20.6266 3001.80 3082.38 61.70
4917 20.6303 3054.60 3081.29 60.80
4918 20.6341 2923.50 3080.17 59.80
4919 20.6378 3043.50 3079.05 61.60
4920 20.6416 2945.00 3077.96 60.50
4921 20.6453 3009.90 3076.84 60.80
4922 20.6490 3040.70 3075.75 61.40
4923 20.6528 3098.70 3074.63 62.30
4924 20.6567 2938.00 3073.52 60.90
4925 20.6604 3031.60 3072.43 62.00
4926 20.6642 2991.90 3071.31 62.20
4927 20.6679 3120.30 3070.23 62.30
4928 20.6716 2951.10 3069.12 60.40
4929 20.6754 3113.90 3068.00 62.30
4930 20.6791 3000.00 3066.92 60.80
4931 20.6829 3061.30 3065.81 61.80
4932 20.6866 2950.90 3064.73 60.50
4933 20.6905 3106.10 3063.62 61.00
4934 20.6943 2953.70 3062.51 60.50
4935 20.6980 3057.00 3061.43 61.10
4936 20.7017 2907.20 3060.33 60.70
4937 20.7055 3137.90 3059.25 63.30
4938 20.7092 3006.90 3058.15 60.60
4939 20.7131 3021.80 3057.04 61.70
4940 20.7167 3004.40 3055.97 61.50
4941 20.7206 3025.30 3054.87 61.20
4942 20.7243 2989.40 3053.79 60.30
4943 20.7281 2952.20 3052.69 59.90
4944 20.7318 3039.90 3051.59 61.20
4945 20.7355 3038.80 3050.52 61.60
4946 20.7393 3030.30 3049.42 61.30
4947 20.7430 3090.90 3048.36 61.70
4948 20.7468 2869.90 3047.26 58.80
4949 20.7507 3095.10 3046.16 61.60
4950 20.7544 2918.60 3045.10 60.20
4951 20.7582 3087.30 3044.00 62.00
4952 20.7619 3003.00 3042.94 61.70
4953 20.7656 2922.00 3041.85 60.50
4954 20.7694 2903.10 3040.78 59.90
4955 20.7731 2972.00 3039.69 59.50
4956 20.7770 2979.20 3038.60 59.50
4957 20.7806 2978.40 3037.54 59.30
4958 20.7845 2916.20 3036.45 59.50
4959 20.7882 3032.10 3035.40 61.40
4960 20.7920 2867.60 3034.31 59.50
4961 20.7957 2986.00 3033.22 61.30
4962 20.7994 2938.40 3032.17 60.30
4963 20.8032 2974.90 3031.08 60.70
4964 20.8069 2891.80 3030.03 59.40
4965 20.8107 3040.50 3028.95 61.50
4966 20.8146 2952.30 3027.87 59.40
4967 20.8183 3059.90 3026.81 61.80
4968 20.8221 2898.20 3025.73 58.60
4969 20.8258 3030.30 3024.68 62.00
4970 20.8295 2976.60 3023.60 60.30
4971 20.8333 3018.80 3022.53 60.70
4972 20.8370 2976.70 3021.48 60.90
4973 20.8409 3010.40 3020.40 60.70
4974 20.8445 2947.30 3019.36 60.30
4975 20.8484 2962.80 3018.28 60.10
4976 20.8521 2980.20 3017.21 61.10
4977 20.8559 2955.80 3016.17 61.10
4978 20.8596 2941.30 3015.09 60.20
4979 20.8633 3023.60 3014.05 61.80
4980 20.8671 2851.70 3012.98 59.00
4981 20.8708 3040.00 3011.94 61.00
4982 20.8746 2962.80 3010.87 60.70
4983 20.8785 3006.60 3009.81 61.40
4984 20.8822 2981.80 3008.77 61.50
4985 20.8860 3021.70 3007.70 61.10
4986 20.8897 2905.70 3006.66 60.10
4987 20.8934 3049.40 3005.60 60.30
4988 20.8972 2825.40 3004.54 59.90
4989 20.9009 2983.10 3003.50 60.70
4990 20.9048 2985.60 3002.44 59.60
4991 20.9084 3092.40 3001.41 62.10
4992 20.9123 2885.30 3000.35 59.50
4993 20.9160 3016.40 2999.29 60.90
4994 20.9198 2900.50 2998.26 60.40
4995 20.9235 2993.90 2997.20 60.70
4996 20.9272 2918.90 2996.17 60.30
4997 20.9310 3047.40 2995.12 61.40
4998 20.9347 2964.80 2994.09 60.90
4999 20.9386 2981.60 2993.04 60.60
5000 20.9424 2828.90 2991.98 59.40
5001 20.9461 3015.20 2990.96 61.60
5002 20.9499 2832.60 2989.91 59.00
5003 20.9536 3045.80 2988.88 61.90
5004 20.9573 2866.80 2987.83 59.40
5005 20.9611 3007.10 2986.78 59.70
5006 20.9648 2828.10 2985.76 59.90
5007 20.9687 2934.40 2984.71 60.50
5008 20.9723 2859.00 2983.70 59.40
5009 20.9762 2948.20 2982.65 60.80
5010 20.9799 2890.30 2981.60 59.80
5011 20.9837 2936.50 2980.59 59.70
5012 20.9874 2956.00 2979.54 60.90
5013 20.9911 3082.40 2978.53 62.00
5014 20.9949 2835.90 2977.49 59.70
5015 20.9986 2992.40 2976.47 60.00
5016 21.0025 2938.40 2975.43 59.10
5017 21.0063 2903.00 2974.39 61.00
5018 21.0100 2847.60 2973.38 58.90
5019 21.0138 3075.90 2972.35 62.00
5020 21.0175 2839.00 2971.34 58.60
5021 21.0212 2996.10 2970.30 60.80
5022 21.0250 2840.60 2969.26 59.70
5023 21.0287 2963.80 2968.26 61.10
5024 21.0326 2868.10 2967.22 59.70
5025 21.0362 3057.00 2966.22 62.10
5026 21.0401 2832.30 2965.19 59.20
5027 21.0438 2960.60 2964.16 59.30
5028 21.0476 2844.00 2963.15 57.00
5029 21.0513 2993.20 2962.12 59.70
5030 21.0550 2905.30 2961.12 58.60
5031 21.0588 2944.20 2960.09 58.90
5032 21.0625 2867.60 2959.09 57.40
5033 21.0664 3005.20 2958.07 59.60
5034 21.0702 2882.10 2957.04 57.70
5035 21.0739 2868.20 2956.04 57.70
5036 21.0777 2833.40 2955.02 57.30
5037 21.0814 2960.10 2954.02 59.00
5038 21.0851 2924.00 2953.00 58.20
5039 21.0889 3021.10 2952.01 60.10
5040 21.0926 3033.50 2950.99 59.70
5041 21.0965 2898.40 2949.97 58.00
5042 21.1001 2893.50 2948.97 58.80
5043 21.1040 2986.90 2947.96 59.40
5044 21.1077 2873.10 2946.97 58.30
5045 21.1115 2932.10 2945.95 59.10
5046 21.1152 2935.00 2944.93 59.00
5047 21.1189 3028.80 2943.95 58.90
5048 21.1227 2931.30 2942.93 58.80
5049 21.1264 2949.10 2941.94 59.20
5050 21.1303 2840.90 2940.93 58.40
5051 21.1339 2953.00 2939.95 59.30
5052 21.1378 2915.30 2938.94 59.00
5053 21.1416 2974.90 2937.93 59.10
5054 21.1453 2848.30 2936.94 58.30
5055 21.1490 2947.70 2935.94 59.90
5056 21.1528 2907.60 2934.95 58.40
5057 21.1565 2965.50 2933.95 59.20
5058 21.1604 2881.00 2932.94 58.60
5059 21.1640 2993.90 2931.96 60.40
5060 21.1679 2853.10 2930.96 58.00
5061 21.1716 3012.80 2929.98 58.60
5062 21.1754 2954.60 2928.98 59.10
5063 21.1791 2814.30 2928.00 58.00
5064 21.1828 2839.60 2927.00 58.00
5065 21.1866 2769.50 2926.00 56.80
5066 21.1903 2849.80 2925.03 58.30
5067 21.1942 2895.40 2924.03 58.50
5068 21.1978 2883.20 2923.06 57.80
5069 21.2017 2901.20 2922.06 58.70
5070 21.2055 2846.80 2921.07 58.00
5071 21.2092 3028.00 2920.10 60.20
5072 21.2129 2893.10 2919.10 58.80
5073 21.2167 2932.80 2918.13 58.70
5074 21.2204 2795.10 2917.14 57.80
5075 21.2241 2991.50 2916.17 59.70
5076 21.2279 2856.30 2915.18 58.80
5077 21.2318 2990.40 2914.19 59.80
5078 21.2355 2843.30 2913.23 57.80
5079 21.2393 2956.70 2912.24 58.40
5080 21.2430 2798.20 2911.28 57.70
5081 21.2467 2877.50 2910.29 58.20
5082 21.2505 2760.50 2909.33 57.10
5083 21.2542 2822.40 2908.34 57.30
5084 21.2581 2826.30 2907.36 58.30
5085 21.2617 2914.00 2906.40 58.20
5086 21.2656 2885.40 2905.42 58.80
5087 21.2693 2876.90 2904.46 57.60
5088 21.2731 2895.60 2903.48 58.60
5089 21.2768 2812.80 2902.50 57.60
5090 21.2806 2791.30 2901.54 57.50
5091 21.2843 2960.50 2900.56 59.50
5092 21.2880 2854.30 2899.61 58.30
5093 21.2918 2905.90 2898.63 58.80
5094 21.2955 2829.30 2897.68 58.30
5095 21.2994 2910.10 2896.71 58.40
5096 21.3032 2857.90 2895.73 58.10
5097 21.3069 2872.10 2894.78 58.60
5098 21.3106 2783.20 2893.81 56.60
5099 21.3144 2978.10 2892.86 59.80
5100 21.3181 2842.20 2891.89 57.70
5101 21.3218 2911.90 2890.94 58.00
5102 21.3256 2835.50 2889.97 58.20
5103 21.3295 2947.10 2889.00 59.40
5104 21.3332 2793.20 2888.06 58.00
5105 21.3370 2894.80 2887.09 58.30
5106 21.3407 2837.60 2886.15 57.80
5107 21.3444 2862.10 2885.18 58.60
5108 21.3482 2765.80 2884.24 57.80
5109 21.3519 2984.70 2883.28 59.70
5110 21.3557 2892.50 2882.31 58.90
5111 21.3594 2878.00 2881.37 58.40
5112 21.3633 2744.10 2880.41 56.90
5113 21.3669 2844.40 2879.47 57.00
5114 21.3708 2821.40 2878.51 57.00
5115 21.3745 2946.00 2877.58 59.60
5116 21.3783 2805.60 2876.62 58.10
5117 21.3820 2823.50 2875.66 58.70
5118 21.3857 2766.00 2874.73 57.50
5119 21.3895 2851.90 2873.77 57.40
5120 21.3932 2794.80 2872.84 58.30
5121 21.3971 2891.30 2871.88 58.20
5122 21.4007 2845.20 2870.95 59.10
5123 21.4046 2799.20 2870.00 57.80
5124 21.4083 2824.30 2869.05 57.00
5125 21.4121 2976.50 2868.12 59.60
5126 21.4158 2815.80 2867.17 57.90
5127 21.4195 2939.10 2866.24 58.60
5128 21.4233 2827.60 2865.29 58.00
5129 21.4270 2859.60 2864.37 57.70
5130 21.4308 2880.30 2863.42 59.40
5131 21.4347 2875.30 2862.47 58.10
5132 21.4384 2727.90 2861.55 56.70
5133 21.4422 2955.80 2860.61 59.20
5134 21.4459 2882.50 2859.68 58.10
5135 21.4496 2898.20 2858.74 59.20
5136 21.4534 2836.40 2857.82 58.60
5137 21.4571 2908.50 2856.88 59.10
5138 21.4610 2820.30 2855.94 57.70
5139 21.4646 2869.50 2855.02 58.20
5140 21.4685 2910.10 2854.08 60.00
5141 21.4722 2807.10 2853.16 57.50
5142 21.4760 2762.50 2852.23 57.40
5143 21.4797 2879.10 2851.31 58.10
5144 21.4834 2754.90 2850.37 57.50
5145 21.4872 2928.60 2849.44 59.30
5146 21.4909 2731.40 2848.53 55.30
5147 21.4947 2846.40 2847.59 58.80
5148 21.4984 2733.00 2846.68 57.40
5149 21.5023 2738.60 2845.75 57.10
5150 21.5060 2690.70 2844.84 56.90
5151 21.5098 2932.40 2843.91 59.90
5152 21.5135 2811.60 2842.98 57.90
5153 21.5173 2901.40 2842.07 57.50
5154 21.5210 2777.20 2841.14 58.30
5155 21.5247 2853.70 2840.24 58.70
5156 21.5285 2873.80 2839.31 58.30
5157 21.5322 2811.80 2838.41 55.80
5158 21.5361 2817.00 2837.48 57.50
5159 21.5399 2892.60 2836.56 58.30
5160 21.5436 2784.00 2835.66 57.10
5161 21.5473 2877.40 2834.73 57.80
5162 21.5511 2757.80 2833.83 56.70
5163 21.5548 3010.20 2832.91 59.70
5164 21.5585 2789.80 2832.01 57.60
5165 21.5623 2907.80 2831.09 57.70
5166 21.5660 2842.60 2830.20 57.70
5167 21.5699 2895.60 2829.28 58.20
5168 21.5737 2748.70 2828.36 57.00
5169 21.5774 2876.20 2827.46 58.30
5170 21.5812 2769.10 2826.55 56.50
5171 21.5849 2825.90 2825.65 57.70
5172 21.5886 2789.00 2824.74 57.20
5173 21.5924 2792.10 2823.85 56.80
5174 21.5961 2771.90 2822.94 56.90
5175 21.6000 2869.80 2822.02 58.10
5176 21.6036 2773.20 2821.13 57.30
5177 21.6075 2894.40 2820.22 58.10
5178 21.6112 2781.60 2819.33 57.50
5179 21.6150 2920.30 2818.42 58.60
5180 21.6187 2716.70 2817.54 56.30
5181 21.6224 2835.40 2816.63 57.60
5182 21.6262 2750.30 2815.75 56.60
5183 21.6299 2919.30 2814.84 58.60
5184 21.6338 2809.80 2813.93 57.40
5185 21.6374 2831.80 2813.05 57.10
5186 21.6413 2817.70 2812.15 58.20
5187 21.6450 2848.90 2811.27 57.50
5188 21.6488 2787.00 2810.36 57.70
5189 21.6525 2901.30 2809.49 58.50
5190 21.6562 2807.20 2808.58 56.50
5191 21.6600 2890.20 2807.68 58.10
5192 21.6637 2814.30 2806.81 56.90
5193 21.6675 2821.80 2805.91 57.70
5194 21.6712 2846.70 2805.03 57.90
5195 21.6751 2804.20 2804.14 57.40
5196 21.6787 2860.90 2803.26 57.90
5197 21.6826 2762.90 2802.37 57.40
5198 21.6863 2725.80 2801.49 56.70
5199 21.6901 2986.00 2800.60 59.80
5200 21.6938 2791.70 2799.71 56.60
5201 21.6975 2892.10 2798.84 58.10
5202 21.7013 2799.80 2797.94 57.70
5203 21.7050 2888.00 2797.08 57.90
5204 21.7089 2785.10 2796.19 57.40
5205 21.7125 2842.30 2795.32 58.10
5206 21.7164 2764.50 2794.43 56.20
5207 21.7201 2787.90 2793.56 56.60
5208 21.7239 2805.80 2792.68 57.10
5209 21.7276 2897.40 2791.79 58.60
5210 21.7313 2789.70 2790.93 56.80
5211 21.7351 2891.70 2790.04 59.30
5212 21.7388 2820.90 2789.18 58.00
5213 21.7426 2906.00 2788.30 58.50
5214 21.7463 2739.50 2787.44 57.50
5215 21.7502 2851.20 2786.55 58.30
5216 21.7539 2688.40 2785.70 56.40
5217 21.7577 2847.30 2784.81 57.80
5218 21.7614 2722.90 2783.93 57.20
5219 21.7652 2870.20 2783.08 58.30
5220 21.7689 2831.70 2782.20 58.50
5221 21.7726 2844.80 2781.35 57.50
5222 21.7764 2783.60 2780.47 58.00
5223 21.7801 2898.90 2779.61 58.50
5224 21.7840 2816.60 2778.74 57.50
5225 21.7876 2925.70 2777.89 58.80
5226 21.7915 2734.20 2777.01 55.50
5227 21.7952 2817.90 2776.14 58.20
5228 21.7990 2789.70 2775.29 56.30
5229 21.8027 2857.40 2774.42 58.50
5230 21.8064 2786.20 2773.57 57.50
5231 21.8102 2819.30 2772.70 57.80
5232 21.8139 2751.90 2771.85 56.60
5233 21.8178 2882.60 2770.99 58.30
5234 21.8214 2687.90 2770.14 56.10
5235 21.8253 2819.00 2769.27 58.10
5236 21.8291 2789.00 2768.41 57.60
5237 21.8328 2815.80 2767.56 57.20
5238 21.8365 2754.50 2766.70 57.40
5239 21.8403 2803.20 2765.86 57.50
5240 21.8440 2753.40 2764.99 58.00
5241 21.8477 2911.50 2764.15 59.10
5242 21.8515 2702.40 2763.29 57.40
5243 21.8552 2822.70 2762.45 57.70
5244 21.8591 2727.80 2761.59 56.30
5245 21.8627 2827.80 2760.76 57.40
5246 21.8666 2811.30 2759.90 56.40
5247 21.8703 2781.60 2759.04 57.10
5248 21.8741 2775.00 2758.21 56.50
5249 21.8778 2726.70 2757.35 56.50
5250 21.8815 2815.50 2756.52 57.30
5251 21.8853 2866.50 2755.66 58.30
5252 21.8890 2675.10 2754.83 56.30
5253 21.8929 2837.40 2753.97 57.80
5254 21.8965 2838.00 2753.14 57.90
5255 21.9004 2783.40 2752.29 57.40
5256 21.9042 2736.40 2751.44 56.50
5257 21.9079 2784.00 2750.61 57.90
5258 21.9116 2667.40 2749.76 56.00
5259 21.9153 2853.80 2748.94 58.30
5260 21.9191 2687.40 2748.09 56.00
5261 21.9228 2774.60 2747.26 57.40
5262 21.9266 2727.50 2746.42 57.40
5263 21.9303 2739.20 2745.59 56.80
5264 21.9342 2797.40 2744.75 57.50
5265 21.9379 2769.60 2743.92 57.30
5266 21.9417 2719.60 2743.08 57.20
5267 21.9454 2732.60 2742.24 56.40
5268 21.9492 2705.80 2741.42 56.40
5269 21.9529 2901.90 2740.58 59.10
5270 21.9566 2725.30 2739.76 57.10
5271 21.9604 2799.60 2738.92 57.10
5272 21.9641 2804.50 2738.10 57.60
5273 21.9680 2663.90 2737.26 56.50
5274 21.9716 2702.40 2736.44 56.40
5275 21.9755 2833.00 2735.61 57.50
5276 21.9792 2704.10 2734.79 56.50
5277 21.9807 2643.30 2734.44 56.70
5278 21.9846 2766.90 2733.61 58.00
5279 21.9883 2781.40 2732.79 57.70
5280 21.9921 2786.50 2731.96 58.20
5281 21.9958 2846.30 2731.15 59.10
5282 21.9995 2719.90 2730.32 57.00
5283 22.0033 2838.40 2729.48 57.00
5284 22.0070 2771.60 2728.68 58.40
5285 22.0109 2895.30 2727.84 59.30
5286 22.0145 2697.20 2727.04 56.50
5287 22.0184 2773.30 2726.21 55.50
5288 22.0221 2689.60 2725.40 56.30
5289 22.0259 2998.20 2724.58 59.60
5290 22.0296 2678.90 2723.75 56.10
5291 22.0333 2823.90 2722.95 57.30
5292 22.0371 2726.10 2722.12 56.50
5293 22.0408 2784.50 2721.32 57.40
5294 22.0446 2807.40 2720.49 58.00
5295 22.0483 2743.60 2719.69 56.10
5296 22.0522 2749.10 2718.87 56.80
5297 22.0560 2777.60 2718.05 57.00
5298 22.0597 2845.30 2717.25 58.20
5299 22.0634 2942.80 2716.43 59.20
5300 22.0672 2723.10 2715.63 56.10
5301 22.0709 2734.70 2714.82 56.80
5302 22.0746 2735.00 2714.02 56.70
5303 22.0784 2795.70 2713.20 56.90
5304 22.0821 2796.30 2712.41 57.40
5305 22.0860 2788.90 2711.59 57.40
5306 22.0898 2631.30 2710.78 55.80
5307 22.0935 2707.90 2709.98 56.20
5308 22.0972 2830.70 2709.17 58.20
5309 22.1010 2861.00 2708.38 58.10
5310 22.1047 2746.80 2707.57 56.80
5311 22.1084 2747.90 2706.78 56.80
5312 22.1122 2626.60 2705.97 55.30
5313 22.1161 2859.20 2705.16 58.00
5314 22.1197 2791.20 2704.37 57.30
5315 22.1236 2810.10 2703.56 57.00
5316 22.1273 2707.80 2702.78 57.10
5317 22.1311 2743.50 2701.97 56.50
5318 22.1348 2819.90 2701.19 58.20
5319 22.1385 2864.00 2700.38 58.20
5320 22.1423 2816.00 2699.60 56.70
5321 22.1460 2877.20 2698.79 58.10
5322 22.1499 2699.90 2697.99 55.80
5323 22.1535 2758.40 2697.21 57.20
5324 22.1574 2700.10 2696.41 56.40
5325 22.1611 2770.50 2695.63 57.10
5326 22.1649 2780.50 2694.83 57.20
5327 22.1686 2824.30 2694.05 58.20
5328 22.1723 2825.00 2693.25 57.90
5329 22.1761 2898.20 2692.48 59.00
5330 22.1798 2771.80 2691.68 56.50
5331 22.1836 2833.30 2690.88 57.60
5332 22.1873 2774.50 2690.11 57.60
5333 22.1912 2846.60 2689.31 57.50
5334 22.1949 2732.50 2688.54 57.00
5335 22.1987 2717.40 2687.75 56.90
5336 22.2024 2700.50 2686.97 55.60
5337 22.2062 2976.20 2686.18 58.80
5338 22.2099 2800.40 2685.39 57.20
5339 22.2136 2791.70 2684.62 57.60
5340 22.2153 2818.80 2684.27 56.70
5341 22.2190 2875.20 2683.50 57.70
5342 22.2229 2731.90 2682.71 55.90
5343 22.2265 2838.80 2681.94 57.30
5344 22.2304 2825.70 2681.15 57.50
5345 22.2341 2903.50 2680.39 57.80
5346 22.2379 2770.60 2679.60 57.00
5347 22.2416 2830.20 2678.84 57.30
5348 22.2453 2851.60 2678.05 57.00
5349 22.2491 2890.20 2677.27 58.10
5350 22.2528 2769.60 2676.51 57.00
5351 22.2567 2848.00 2675.72 57.00
5352 22.2603 2857.70 2674.96 57.50
5353 22.2642 2872.20 2674.18 57.60
5354 22.2679 2742.70 2673.42 56.40
5355 22.2717 2776.10 2672.64 57.20
5356 22.2754 2765.10 2671.88 56.70
5357 22.2792 2824.80 2671.11 57.10
5358 22.2829 2778.10 2670.35 57.10
5359 22.2866 2971.30 2669.57 58.10
5360 22.2904 2711.50 2668.80 56.10
5361 22.2941 2836.00 2668.04 57.70
5362 22.2980 2818.90 2667.27 57.50
5363 22.3016 2884.30 2666.51 57.80
5364 22.3055 2868.80 2665.74 57.90
5365 22.3092 2723.60 2664.99 56.50
5366 22.3130 2927.90 2664.22 58.30
5367 22.3167 2785.80 2663.47 56.40
5368 22.3204 2839.20 2662.70 57.80
5369 22.3242 2899.00 2661.95 58.60
5370 22.3279 2821.20 2661.18 57.90
5371 22.3318 2933.60 2660.41 58.60
5372 22.3354 2892.00 2659.66 57.80
5373 22.3393 2917.10 2658.90 58.00
5374 22.3430 2790.20 2658.15 57.10
5375 22.3468 2901.40 2657.39 58.50
5376 22.3505 2846.90 2656.64 57.10
5377 22.3542 2857.40 2655.88 58.20
5378 22.3580 2873.10 2655.13 58.00
5379 22.3617 2867.50 2654.37 58.30
5380 22.3655 2809.90 2653.61 57.30
5381 22.3692 2883.80 2652.87 58.20
5382 22.3731 2938.90 2652.11 58.40
5383 22.3768 2939.20 2651.37 57.80
5384 22.3806 2815.20 2650.61 56.80
5385 22.3843 2900.60 2649.87 58.90
5386 22.3881 2792.40 2649.11 57.20
5387 22.3918 2823.50 2648.38 57.20
5388 22.3955 2869.80 2647.62 58.50
5389 22.3993 2916.10 2646.89 59.00
5390 22.4030 2763.20 2646.13 56.70
5391 22.4069 2936.00 2645.38 58.80
5392 22.4105 2839.10 2644.64 57.60
5393 22.4144 2976.30 2643.89 59.20
5394 22.4181 2806.60 2643.16 55.90
5395 22.4219 2991.60 2642.41 59.00
5396 22.4256 2855.60 2641.68 58.10
5397 22.4293 2904.20 2640.93 58.50
5398 22.4331 2870.40 2640.20 58.30
5399 22.4368 2918.50 2639.45 58.10
5400 22.4407 2852.40 2638.70 57.20
5401 22.4443 3064.20 2637.98 60.00
5402 22.4482 2909.30 2637.23 58.00
5403 22.4519 3052.10 2636.50 59.80
5404 22.4557 2953.30 2635.76 59.30
5405 22.4594 2964.50 2635.03 59.00
5406 22.4632 3025.10 2634.29 59.20
5407 22.4669 3058.30 2801.21 60.10
5408 22.4706 2878.20 2804.99 57.90
5409 22.4744 2967.40 2808.95 59.00
5410 22.4781 3020.00 2813.00 59.80
5411 22.4820 3019.40 2817.37 59.70
5412 22.4856 2976.50 2821.83 59.50
5413 22.4895 3037.60 2826.63 59.90
5414 22.4932 2917.80 2831.55 58.30
5415 22.4970 3079.80 2836.85 60.10
5416 22.5007 2974.90 2842.28 58.70
5417 22.5044 3042.20 2848.14 58.80
5418 22.5082 3090.80 2854.30 60.30
5419 22.5119 3098.40 2860.62 60.60
5420 22.5158 3129.60 2867.45 61.30
5421 22.5194 3182.70 2874.46 61.40
5422 22.5233 3117.50 2882.05 61.40
5423 22.5270 3099.10 2889.84 60.10
5424 22.5308 3156.30 2898.28 60.70
5425 22.5345 3175.90 2906.95 61.90
5426 22.5382 3066.50 2916.37 60.00
5427 22.5420 3279.00 2926.34 62.20
5428 22.5457 3189.80 2936.61 61.20
5429 22.5495 3267.40 2947.78 62.60
5430 22.5532 3242.40 2959.30 62.00
5431 22.5571 3276.40 2971.87 62.80
5432 22.5607 3187.20 2984.85 62.10
5433 22.5646 3328.10 2999.02 62.70
5434 22.5683 3311.80 3014.10 62.80
5435 22.5721 3350.10 3029.75 62.70
5436 22.5758 3282.90 3046.87 63.10
5437 22.5795 3513.30 3064.68 64.90
5438 22.5833 3515.40 3084.21 65.20
5439 22.5870 3496.00 3104.56 65.00
5440 22.5909 3416.80 3126.96 64.60
5441 22.5945 3501.00 3150.35 64.50
5442 22.5984 3586.90 3176.16 65.60
5443 22.6021 3615.30 3203.95 66.30
5444 22.6059 3569.00 3233.13 65.60
5445 22.6096 3907.60 3265.47 69.20
5446 22.6133 3746.30 3299.53 67.30
5447 22.6171 3889.90 3337.45 69.00
5448 22.6208 3741.90 3377.52 67.40
5449 22.6246 3829.80 3422.31 68.60
5450 22.6283 3873.50 3469.83 68.20
5451 22.6322 3959.30 3523.21 68.50
5452 22.6360 3962.90 3581.74 68.60
5453 22.6397 4102.40 3644.37 70.30
5454 22.6434 4086.90 3715.21 70.40
5455 22.6472 4310.10 3791.44 72.60
5456 22.6509 4253.50 3878.21 71.90
5457 22.6546 4456.40 3972.19 73.70
5458 22.6584 4387.40 4079.97 73.60
5459 22.6623 4689.00 4200.87 76.30
5460 22.6660 4784.00 4333.37 77.00
5461 22.6698 4973.90 4487.16 79.00
5462 22.6735 5138.30 4657.25 81.80
5463 22.6772 5270.30 4856.75 80.60
5464 22.6810 5455.80 5079.72 82.50
5465 22.6847 5896.70 5344.23 85.00
5466 22.6886 6062.60 5652.76 88.30
5467 22.6922 6462.50 6004.87 90.80
5468 22.6961 6760.00 6433.44 93.70
5469 22.6998 7351.40 6933.18 97.50
5470 22.7036 8058.40 7556.28 103.30
5471 22.7073 8876.60 8304.51 107.30
5472 22.7111 9871.00 9267.66 115.40
5473 22.7148 11510.20 10461.60 126.20
5474 22.7185 12886.70 12041.50 133.90
5475 22.7223 14833.30 14099.40 144.70
5476 22.7260 16741.40 16696.70 155.00
5477 22.7299 19959.00 20132.80 173.20
5478 22.7335 23046.40 24364.70 189.80
5479 22.7374 27464.30 29697.40 210.60
5480 22.7411 31919.50 35722.60 230.10
5481 22.7449 37319.70 42191.40 249.70
5482 22.7486 41521.10 47677.20 270.40
5483 22.7523 45369.70 50411.40 286.00
5484 22.7561 45074.90 49409.80 283.60
5485 22.7598 44246.50 45136.40 279.30
5486 22.7637 39273.30 38949.10 261.10
5487 22.7673 34214.50 32680.70 239.20
5488 22.7712 27840.30 26880.90 209.90
5489 22.7750 22935.60 22053.80 188.20
5490 22.7787 18145.10 18289.00 165.00
5491 22.7824 14892.50 15263.50 146.40
5492 22.7861 12565.50 12985.60 130.40
5493 22.7899 10909.00 11183.90 121.30
5494 22.7936 9311.00 9827.67 109.80
5495 22.7974 8542.40 8739.70 107.40
5496 22.8013 7764.20 7881.80 100.50
5497 22.8050 7051.40 7209.43 96.80
5498 22.8088 6491.80 6644.70 90.50
5499 22.8125 6288.90 6188.27 89.90
5500 22.8162 5778.00 5794.38 85.00
5501 22.8200 5794.00 5468.60 86.50
5502 22.8237 5262.20 5181.99 81.00
5503 22.8276 5196.90 4934.93 80.40
5504 22.8312 4846.20 4725.99 78.00
5505 22.8351 4880.30 4538.22 78.30
5506 22.8388 4543.50 4377.53 74.40
5507 22.8426 4525.40 4231.72 74.40
5508 22.8463 4447.30 4105.65 74.80
5509 22.8500 4363.80 3990.21 71.90
5510 22.8538 4171.20 3886.99 71.50
5511 22.8575 4150.00 3796.62 70.10
5512 22.8613 4017.40 3712.84 69.70
5513 22.8650 4125.00 3639.08 70.50
5514 22.8689 4005.40 3570.24 70.70
5515 22.8725 4000.20 3509.20 70.00
5516 22.8764 3774.90 3451.95 67.10
5517 22.8801 3772.90 3399.57 67.70
5518 22.8839 3746.80 3352.73 67.20
5519 22.8876 3762.50 3308.45 66.80
5520 22.8913 3571.90 3268.67 64.90
5521 22.8951 3635.60 3230.89 65.80
5522 22.8988 3480.70 3196.81 64.70
5523 22.9027 3560.80 3164.30 65.00
5524 22.9065 3509.60 3134.10 65.00
5525 22.9102 3667.10 3106.69 66.30
5526 22.9139 3445.90 3080.42 64.60
5527 22.9177 3496.90 3056.50 64.60
5528 22.9214 3413.60 3033.48 64.70
5529 22.9251 3423.00 3012.46 64.50
5530 22.9289 3498.20 2992.18 64.90
5531 22.9328 3475.40 2973.12 64.90
5532 22.9364 3302.20 2955.63 61.50
5533 22.9403 3334.60 2938.70 63.60
5534 22.9440 3188.10 2923.12 61.50
5535 22.9478 3285.80 2907.99 63.00
5536 22.9515 3277.90 2894.05 62.80
5537 22.9552 3356.80 2880.47 64.00
5538 22.9590 3185.00 2867.60 61.50
5539 22.9627 3304.70 2855.69 63.20
5540 22.9666 3243.60 2844.06 62.10
5541 22.9702 3212.20 2833.28 61.90
5542 22.9741 3227.60 2822.73 61.80
5543 22.9778 3083.60 2812.68 61.10
5544 22.9816 3068.30 2803.33 61.10
5545 22.9853 3149.40 2794.17 60.90
5546 22.9890 3041.70 2785.63 60.10
5547 22.9928 3201.90 2777.24 62.10
5548 22.9965 3084.80 2769.41 59.90
5549 23.0004 3065.50 2761.70 60.30
5550 23.0042 3099.60 2754.31 60.60
5551 23.0079 3096.40 2747.40 61.30
5552 23.0117 3066.90 2740.58 60.50
5553 23.0154 3059.40 2734.20 60.40
5554 23.0191 2975.90 2727.89 59.40
5555 23.0229 3078.90 2721.98 61.00
5556 23.0266 3080.10 2716.12 60.00
5557 23.0305 3045.40 2710.48 60.30
5558 23.0341 2956.00 2705.18 59.90
5559 23.0380 3097.90 2699.92 60.10
5560 23.0417 3034.10 2694.98 59.70
5561 23.0455 3013.60 2528.49 59.70
5562 23.0492 3018.40 2527.85 60.40
5563 23.0529 3048.90 2527.23 60.40
5564 23.0567 3037.70 2526.59 59.80
5565 23.0604 3045.40 2525.97 60.80
5566 23.0643 2857.70 2525.34 58.50
5567 23.0679 2931.70 2524.72 59.40
5568 23.0718 2868.10 2524.08 57.40
5569 23.0756 2903.50 2523.45 58.60
5570 23.0793 2897.40 2522.83 58.90
5571 23.0830 3070.40 2522.20 60.30
5572 23.0868 2930.90 2521.58 59.50
5573 23.0905 2905.70 2520.95 59.30
5574 23.0942 2832.60 2520.34 57.90
5575 23.0980 2939.80 2519.71 59.20
5576 23.1019 2831.90 2519.08 58.00
5577 23.1056 2869.80 2518.46 59.30
5578 23.1094 2874.40 2517.83 57.90
5579 23.1131 2944.50 2517.22 59.40
5580 23.1168 2752.40 2516.59 57.60
5581 23.1206 2985.60 2515.97 60.50
5582 23.1243 2898.60 2515.36 58.70
5583 23.1282 2975.30 2514.73 60.50
5584 23.1318 2822.30 2514.12 58.10
5585 23.1357 2894.90 2513.50 59.40
5586 23.1394 2766.60 2512.89 57.40
5587 23.1432 2945.10 2512.27 60.00
5588 23.1469 2786.30 2511.65 57.70
5589 23.1507 2832.30 2511.04 58.40
5590 23.1544 2807.20 2510.42 58.50
5591 23.1581 2877.30 2509.82 59.40
5592 23.1619 2765.50 2509.20 58.20
5593 23.1658 2856.20 2508.58 58.80
5594 23.1695 2719.00 2507.97 57.80
5595 23.1733 2855.90 2507.36 59.50
5596 23.1770 2738.40 2506.76 57.40
5597 23.1807 2868.10 2506.14 57.60
5598 23.1845 2673.40 2505.54 56.50
5599 23.1882 2785.50 2504.92 57.10
5600 23.1921 2713.20 2504.31 57.70
5601 23.1957 2855.80 2503.71 58.60
5602 23.1996 2800.50 2503.10 58.40
5603 23.2033 2742.60 2502.50 57.60
5604 23.2071 2667.70 2501.89 56.00
5605 23.2108 2823.70 2501.28 59.00
5606 23.2146 2741.90 2500.68 57.80
5607 23.2183 2776.70 2500.07 58.30
5608 23.2220 2648.90 2499.48 56.30
5609 23.2258 2774.50 2498.87 58.00
5610 23.2295 2735.00 2498.27 57.90
5611 23.2334 2668.80 2497.67 57.70
5612 23.2372 2677.70 2497.06 57.10
5613 23.2409 2710.50 2496.47 57.40
5614 23.2446 2679.10 2495.86 56.20
5615 23.2484 2739.90 2495.27 57.30
5616 23.2521 2555.10 2494.67 55.50
5617 23.2560 2687.40 2494.06 57.20
5618 23.2596 2589.80 2493.47 56.60
5619 23.2635 2682.20 2492.87 57.80
5620 23.2672 2638.00 2492.28 56.60
5621 23.2710 2758.40 2491.68 56.70
5622 23.2747 2559.90 2491.08 55.90
5623 23.2785 2653.10 2490.50 57.20
5624 23.2822 2618.50 2489.90 56.60
5625 23.2859 2683.60 2489.31 56.60
5626 23.2897 2542.10 2488.71 55.90
5627 23.2934 2602.60 2488.13 56.30
5628 23.2973 2582.40 2487.53 55.90
5629 23.3011 2649.40 2486.94 56.00
5630 23.3048 2644.10 2486.36 56.10
5631 23.3085 2714.40 2485.76 57.30
5632 23.3123 2593.10 2485.18 56.00
5633 23.3160 2769.20 2484.59 58.00
5634 23.3199 2626.10 2483.99 56.90
5635 23.3235 2655.70 2483.42 56.60
5636 23.3274 2583.70 2482.82 55.70
5637 23.3311 2547.10 2482.25 54.30
5638 23.3349 2523.40 2481.65 54.90
5639 23.3386 2779.60 2481.06 57.80
5640 23.3424 2590.00 2480.49 55.90
5641 23.3461 2610.30 2479.90 56.30
5642 23.3498 2558.80 2479.33 55.80
5643 23.3536 2703.90 2478.74 57.80
5644 23.3573 2618.00 2478.17 56.50
5645 23.3612 2626.10 2477.58 56.20
5646 23.3650 2608.70 2476.99 55.60
5647 23.3687 2598.20 2476.42 56.50
5648 23.3724 2624.80 2475.84 56.40
5649 23.3762 2644.90 2475.27 56.70
5650 23.3799 2539.40 2474.68 55.40
5651 23.3838 2574.70 2474.10 56.00
5652 23.3874 2503.10 2473.53 54.90
5653 23.3913 2613.00 2472.95 56.30
5654 23.3950 2585.60 2472.38 56.20
5655 23.3988 2556.40 2471.80 55.50
5656 23.4025 2579.10 2471.22 55.80
5657 23.4062 2509.30 2470.66 54.70
5658 23.4100 2509.90 2470.08 54.90
5659 23.4137 2607.10 2469.51 56.30
5660 23.4175 2551.70 2468.93 55.00
5661 23.4214 2666.50 2468.36 56.80
5662 23.4251 2627.10 2467.80 56.70
5663 23.4289 2636.70 2467.22 57.30
5664 23.4326 2571.00 2466.66 56.20
5665 23.4363 2617.30 2466.08 57.00
5666 23.4401 2494.90 2465.52 54.80
5667 23.4438 2587.60 2464.95 55.80
5668 23.4477 2582.20 2464.38 56.60
5669 23.4513 2574.10 2463.82 55.70
5670 23.4552 2518.40 2463.25 55.10
5671 23.4589 2622.90 2462.69 55.60
5672 23.4627 2549.30 2462.12 55.00
5673 23.4664 2600.60 2461.55 56.20
5674 23.4701 2458.80 2460.99 54.70
5675 23.4739 2552.50 2460.43 54.20
5676 23.4776 2529.00 2459.87 54.60
5677 23.4814 2562.70 2459.30 55.70
5678 23.4853 2531.00 2458.74 54.60
5679 23.4890 2598.30 2458.18 56.40
5680 23.4928 2581.40 2457.62 55.70
5681 23.4965 2600.70 2457.07 55.50
5682 23.5002 2413.00 2456.50 52.90
5683 23.5040 2567.20 2455.94 55.20
5684 23.5077 2505.70 2455.39 54.90
5685 23.5116 2665.90 2454.83 56.80
5686 23.5152 2496.60 2454.28 54.40
5687 23.5191 2542.80 2453.72 55.60
5688 23.5229 2492.40 2453.15 54.70
5689 23.5266 2474.40 2452.61 55.40
5690 23.5303 2468.20 2452.05 54.60
5691 23.5340 2622.00 2451.50 56.10
5692 23.5378 2475.30 2450.94 55.10
5693 23.5415 2636.10 2450.40 56.60
5694 23.5453 2617.80 2449.84 56.10
5695 23.5492 2535.20 2449.28 54.60
5696 23.5529 2487.60 2448.74 54.90
5697 23.5567 2660.20 2448.19 56.50
5698 23.5604 2543.30 2447.65 55.60
5699 23.5641 2551.90 2447.09 55.80
5700 23.5679 2467.10 2446.54 54.60
5701 23.5716 2534.00 2446.00 55.70
5702 23.5755 2583.20 2445.44 55.60
5703 23.5791 2614.60 2444.91 55.50
5704 23.5830 2552.10 2444.35 55.80
5705 23.5868 2497.00 2443.80 55.50
5706 23.5905 2548.00 2443.27 56.00
5707 23.5942 2546.50 2442.72 55.30
5708 23.5979 2417.90 2442.18 53.80
5709 23.6017 2648.90 2441.63 56.80
5710 23.6056 2462.70 2441.08 54.30
5711 23.6092 2531.70 2440.55 55.50
5712 23.6131 2481.20 2440.00 54.40
5713 23.6168 2518.80 2439.47 53.80
5714 23.6206 2463.00 2438.92 54.50
5715 23.6243 2603.20 2438.38 56.50
5716 23.6280 2464.50 2437.85 54.80
5717 23.6318 2527.60 2437.30 55.10
5718 23.6355 2520.80 2436.77 54.90
5719 23.6394 2588.70 2436.23 55.10
5720 23.6432 2476.60 2435.69 53.10
5721 23.6469 2581.30 2435.16 55.00
5722 23.6507 2507.40 2434.62 54.00
5723 23.6544 2509.00 2434.09 53.60
5724 23.6581 2453.50 2433.55 53.30
5725 23.6619 2519.30 2433.01 53.60
5726 23.6656 2470.00 2432.48 53.00
5727 23.6695 2588.70 2431.95 54.90
5728 23.6731 2503.00 2431.42 54.10
5729 23.6770 2495.20 2430.88 54.00
5730 23.6807 2404.20 2430.35 52.10
5731 23.6845 2468.00 2429.82 53.70
5732 23.6882 2506.80 2429.29 53.80
5733 23.6919 2444.30 2428.77 53.60
5734 23.6957 2446.90 2428.23 53.00
5735 23.6996 2596.60 2427.70 55.20
5736 23.7033 2548.50 2427.18 54.10
5737 23.7071 2571.10 2426.65 54.30
5738 23.7108 2548.80 2426.13 54.20
5739 23.7146 2512.50 2425.60 53.90
5740 23.7183 2535.70 2425.06 54.50
5741 23.7220 2497.80 2424.55 54.60
5742 23.7258 2463.10 2424.02 52.90
5743 23.7295 2577.70 2423.50 54.20
5744 23.7334 2446.10 2422.97 53.70
5745 23.7372 2518.10 2422.44 54.30
5746 23.7409 2527.80 2421.93 54.60
5747 23.7446 2532.80 2421.40 54.30
5748 23.7484 2468.60 2420.89 53.10
5749 23.7521 2573.50 2420.36 55.00
5750 23.7560 2457.40 2419.84 53.30
5751 23.7596 2488.20 2419.33 53.40
5752 23.7635 2453.90 2418.80 53.10
5753 23.7672 2590.10 2418.29 55.00
5754 23.7710 2522.60 2417.77 54.00
5755 23.7747 2615.60 2417.25 55.00
5756 23.7785 2438.20 2416.74 53.30
5757 23.7822 2611.30 2416.22 54.60
5758 23.7859 2500.40 2415.71 54.20
5759 23.7897 2571.70 2415.19 55.20
5760 23.7936 2447.90 2414.67 53.20
5761 23.7973 2494.30 2414.16 54.20
5762 23.8011 2521.10 2413.64 53.80
5763 23.8048 2612.10 2413.14 55.20
5764 23.8085 2417.00 2412.62 53.30
5765 23.8123 2407.80 2412.12 53.00
5766 23.8160 2497.00 2411.60 54.10
5767 23.8199 2441.20 2411.08 53.50
5768 23.8235 2436.50 2410.58 53.60
5769 23.8274 2577.60 2410.07 55.30
5770 23.8312 2537.40 2409.55 54.50
5771 23.8349 2538.70 2409.05 54.40
5772 23.8386 2436.90 2408.54 53.30
5773 23.8424 2517.80 2408.04 54.30
5774 23.8461 2482.80 2407.53 54.20
5775 23.8500 2438.30 2407.02 53.10
5776 23.8536 2452.80 2406.52 53.40
5777 23.8575 2489.60 2406.01 53.80
5778 23.8612 2384.00 2405.51 52.50
5779 23.8650 2424.20 2405.00 53.10
5780 23.8687 2503.50 2404.49 53.90
5781 23.8724 2430.20 2404.00 53.70
5782 23.8762 2441.90 2403.49 53.40
5783 23.8799 2524.10 2403.00 54.00
5784 23.8838 2421.40 2402.49 52.50
5785 23.8876 2534.60 2401.98 47.80
5786 23.8951 2476.40 2400.99 48.20
5787 23.8988 2464.20 2400.49 53.50
5788 23.9025 2472.00 2399.99 53.90
5789 23.9063 2391.30 2399.49 52.50
5790 23.9100 2528.30 2399.00 54.10
5791 23.9139 2382.10 2398.49 52.80
5792 23.9175 2538.40 2398.01 54.80
5793 23.9214 2344.20 2397.50 52.30
5794 23.9251 2491.20 2397.00 53.50
5795 23.9289 2417.60 2396.52 53.00
5796 23.9326 2524.90 2396.02 54.30
5797 23.9363 2527.40 2395.53 54.60
5798 23.9401 2499.90 2395.03 54.10
5799 23.9440 2456.00 2394.54 53.50
5800 23.9477 2514.80 2394.05 53.90
5801 23.9515 2439.00 2393.55 53.20
5802 23.9552 2557.00 2393.07 54.70
5803 23.9590 2409.30 2392.58 53.20
5804 23.9627 2463.90 2392.08 53.30
5805 23.9664 2449.10 2391.60 53.20
5806 23.9702 2569.10 2391.10 54.40
5807 23.9739 2491.00 2390.62 54.00
5808 23.9778 2467.80 2390.13 53.20
5809 23.9816 2460.50 2389.64 54.20
5810 23.9853 2463.80 2389.16 52.90
5811 23.9890 2439.30 2388.67 53.30
5812 23.9928 2481.10 2388.19 53.10
5813 23.9965 2455.60 2387.70 53.20
5814 24.0004 2436.50 2387.21 53.40
5815 24.0040 2436.20 2386.73 53.20
5816 24.0079 2403.00 2386.24 52.50
5817 24.0116 2378.90 2385.77 53.30
5818 24.0154 2460.40 2385.28 53.20
5819 24.0191 2390.10 2384.79 52.70
5820 24.0229 2442.90 2384.32 53.80
5821 24.0266 2415.10 2383.83 53.00
5822 24.0303 2436.30 2383.36 53.50
5823 24.0341 2465.30 2382.88 54.40
5824 24.0380 2400.30 2382.39 52.80
5825 24.0417 2403.40 2381.92 52.90
5826 24.0455 2509.80 2381.44 54.00
5827 24.0492 2401.10 2380.97 53.40
5828 24.0529 2479.50 2380.48 54.00
5829 24.0567 2459.40 2380.00 54.00
5830 24.0604 2450.10 2379.53 53.60
5831 24.0643 2386.20 2379.05 52.20
5832 24.0679 2456.60 2378.59 53.50
5833 24.0718 2460.00 2378.11 53.70
5834 24.0756 2472.40 2377.63 53.80
5835 24.0793 2407.70 2377.16 53.30
5836 24.0830 2407.60 2376.68 53.40
5837 24.0868 2403.80 2376.22 53.30
5838 24.0905 2388.90 2375.74 52.80
5839 24.0944 2405.90 2375.26 52.90
5840 24.0980 2511.90 2374.80 54.20
5841 24.1019 2410.60 2374.33 53.00
5842 24.1056 2480.90 2373.85 54.00
5843 24.1094 2401.70 2373.39 53.10
5844 24.1131 2380.40 2372.91 52.50
5845 24.1168 2361.60 2372.45 53.10
5846 24.1206 2442.00 2371.98 51.50
5847 24.1245 2406.20 2371.51 51.20
5848 24.1282 2355.20 2371.05 50.60
5849 24.1320 2482.90 2370.58 52.70
5850 24.1357 2421.70 2370.12 50.90
5851 24.1395 2437.30 2369.65 51.80
5852 24.1432 2474.70 2369.18 52.30
5853 24.1469 2517.30 2368.72 52.70
5854 24.1507 2559.70 2368.25 53.40
5855 24.1544 2402.10 2367.80 51.70
5856 24.1583 2478.00 2367.33 52.00
5857 24.1621 2490.90 2366.86 52.70
5858 24.1658 2602.10 2366.41 53.50
5859 24.1695 2353.30 2365.94 50.40
5860 24.1733 2530.10 2365.49 52.90
5861 24.1770 2410.00 2365.03 51.50
5862 24.1808 2495.90 2364.56 52.10
5863 24.1845 2462.50 2364.11 52.40
5864 24.1884 2427.80 2363.65 52.00
5865 24.1921 2364.10 2363.19 50.90
5866 24.1959 2478.90 2362.73 52.70
5867 24.1996 2348.50 2362.27 50.90
5868 24.2034 2554.40 2361.82 53.00
5869 24.2071 2419.70 2361.36 51.80
5870 24.2108 2485.00 2360.91 52.80
5871 24.2146 2385.60 2360.45 51.30
5872 24.2185 2541.70 2359.99 53.50
5873 24.2222 2365.30 2359.55 51.00
5874 24.2260 2531.10 2359.09 52.80
5875 24.2297 2397.80 2358.64 51.20
5876 24.2334 2405.90 2358.19 51.70
5877 24.2372 2404.90 2357.73 51.60
5878 24.2409 2499.10 2357.28 52.90
5879 24.2447 2370.80 2356.83 51.80
5880 24.2484 2355.90 2356.39 51.40
5881 24.2523 2356.20 2355.93 51.30
5882 24.2561 2406.80 2355.48 51.90
5883 24.2598 2378.60 2355.03 51.70
5884 24.2635 2428.50 2354.58 50.90
5885 24.2673 2404.40 2354.13 51.60
5886 24.2710 2444.20 2353.69 52.20
5887 24.2749 2396.00 2353.24 51.90
5888 24.2785 2428.60 2352.80 51.50
5889 24.2824 2466.70 2352.35 52.50
5890 24.2861 2445.90 2351.90 52.70
5891 24.2899 2399.30 2351.46 51.70
5892 24.2936 2561.60 2351.01 53.00
5893 24.2973 2410.60 2350.57 51.90
5894 24.3011 2380.30 2350.12 51.10
5895 24.3050 2403.30 2349.68 51.70
5896 24.3086 2491.90 2349.24 52.90
5897 24.3125 2332.60 2348.79 50.40
5898 24.3162 2472.80 2348.36 52.00
5899 24.3200 2419.10 2347.91 52.00
5900 24.3237 2450.90 2347.47 52.10
5901 24.3274 2362.40 2347.04 51.30
5902 24.3312 2477.30 2346.59 52.80
5903 24.3349 2382.10 2346.16 51.70
5904 24.3388 2413.40 2345.72 52.20
5905 24.3426 2446.20 2345.27 51.70
5906 24.3463 2456.20 2344.84 51.90
5907 24.3500 2318.20 2344.40 51.10
5908 24.3538 2468.60 2343.97 52.60
5909 24.3575 2524.20 2343.53 53.40
5910 24.3613 2447.10 2343.09 52.00
5911 24.3650 2462.80 2342.66 52.40
5912 24.3689 2521.90 2342.23 53.00
5913 24.3727 2456.40 2341.79 52.60
5914 24.3764 2425.90 2341.36 52.00
5915 24.3801 2427.40 2340.92 52.40
5916 24.3839 2409.10 2340.50 51.70
5917 24.3876 2381.60 2340.06 51.50
5918 24.3915 2421.80 2339.62 51.60
5919 24.3951 2383.20 2339.20 51.60
5920 24.3990 2401.00 2338.77 51.70
5921 24.4027 2327.30 2338.34 51.20
5922 24.4065 2467.30 2337.91 52.70
5923 24.4102 2378.20 2337.47 51.80
5924 24.4139 2423.70 2337.05 51.60
5925 24.4177 2453.40 2336.62 52.50
5926 24.4214 2393.30 2336.20 51.50
5927 24.4252 2454.80 2335.77 51.90
5928 24.4291 2383.80 2335.34 51.30
5929 24.4328 2343.80 2334.92 51.50
5930 24.4366 2476.80 2334.49 53.00
5931 24.4403 2316.20 2334.07 50.70
5932 24.4440 2491.60 2333.64 52.80
5933 24.4478 2359.40 2333.21 51.10
5934 24.4515 2398.50 2332.79 51.80
5935 24.4554 2360.20 2332.36 51.50
5936 24.4590 2454.20 2331.95 52.60
5937 24.4629 2324.40 2331.52 50.90
5938 24.4667 2368.20 2331.10 51.20
5939 24.4704 2376.30 2330.68 51.40
5940 24.4741 2424.80 2330.26 51.70
5941 24.4778 2294.40 2329.84 50.80
5942 24.4816 2443.80 2329.42 52.20
5943 24.4855 2297.40 2328.99 50.80
5944 24.4891 2443.70 2328.58 52.20
5945 24.4930 2414.70 2328.16 51.20
5946 24.4967 2401.00 2327.74 52.60
5947 24.5005 2351.00 2327.33 51.30
5948 24.5042 2365.80 2326.90 51.70
5949 24.5079 2418.00 2326.49 51.90
5950 24.5117 2372.10 2326.07 51.00
5951 24.5156 2352.50 2336.87 51.50
5952 24.5193 2361.90 2336.73 51.90
5953 24.5231 2315.80 2336.60 50.90
5954 24.5268 2343.10 2336.49 51.20
5955 24.5306 2376.80 2336.38 51.80
5956 24.5343 2379.90 2336.29 51.80
5957 24.5380 2358.90 2336.21 51.30
5958 24.5418 2352.10 2336.14 51.20
5959 24.5455 2364.40 2336.09 51.10
5960 24.5494 2452.70 2336.06 52.20
5961 24.5532 2428.60 2336.03 51.90
5962 24.5569 2404.00 2336.03 52.10
5963 24.5606 2311.90 2336.04 50.80
5964 24.5644 2468.60 2336.08 52.40
5965 24.5681 2295.00 2336.13 50.40
5966 24.5720 2414.40 2336.20 52.70
5967 24.5756 2353.70 2336.30 51.10
5968 24.5795 2408.20 2336.42 51.90
5969 24.5832 2361.10 2336.56 51.50
5970 24.5870 2451.70 2336.73 53.10
5971 24.5907 2251.50 2336.93 50.30
5972 24.5944 2413.70 2337.16 52.00
5973 24.5982 2347.70 2337.42 51.60
5974 24.6021 2438.30 2337.72 54.50
5975 24.6057 2381.60 2338.05 52.70
5976 24.6096 2423.60 2338.42 53.00
5977 24.6133 2284.20 2338.82 51.80
5978 24.6171 2480.50 2339.28 53.80
5979 24.6208 2398.50 2339.79 52.30
5980 24.6245 2455.50 2340.34 53.40
5981 24.6283 2398.90 2340.95 52.50
5982 24.6320 2445.30 2341.61 52.60
5983 24.6359 2305.80 2342.35 51.80
5984 24.6397 2442.80 2343.16 53.40
5985 24.6434 2282.30 2344.02 51.20
5986 24.6472 2523.90 2344.99 54.10
5987 24.6509 2333.90 2346.01 52.40
5988 24.6546 2428.00 2347.16 52.70
5989 24.6584 2430.60 2348.42 53.20
5990 24.6621 2338.10 2349.75 52.00
5991 24.6660 2321.30 2351.24 51.60
5992 24.6696 2414.00 2352.82 53.30
5993 24.6735 2345.50 2354.60 52.30
5994 24.6772 2419.50 2356.54 53.60
5995 24.6810 2372.80 2358.61 52.40
5996 24.6847 2473.50 2360.93 54.10
5997 24.6884 2428.90 2363.41 53.40
5998 24.6922 2382.90 2366.19 53.20
5999 24.6961 2410.20 2369.26 53.10
6000 24.6998 2523.40 2372.54 54.10
6001 24.7036 2445.60 2376.25 53.00
6002 24.7073 2339.20 2380.34 52.40
6003 24.7111 2299.90 2384.75 51.50
6004 24.7148 2482.40 2389.77 53.80
6005 24.7185 2437.10 2395.19 53.80
6006 24.7223 2422.40 2401.39 53.50
6007 24.7262 2504.10 2408.32 54.10
6008 24.7299 2472.70 2415.88 53.70
6009 24.7337 2415.70 2424.60 52.90
6010 24.7374 2554.30 2434.18 55.50
6011 24.7411 2366.30 2445.31 53.00
6012 24.7449 2479.80 2457.99 54.30
6013 24.7486 2470.00 2472.09 54.40
6014 24.7525 2660.40 2488.72 56.10
6015 24.7561 2426.20 2507.40 52.80
6016 24.7600 2582.70 2529.72 54.70
6017 24.7638 2577.10 2555.91 54.80
6018 24.7675 2646.00 2586.06 55.70
6019 24.7712 2571.70 2623.04 54.20
6020 24.7750 2729.30 2666.58 56.70
6021 24.7787 2613.70 2721.35 55.70
6022 24.7826 2688.40 2789.54 56.20
6023 24.7862 2821.60 2872.84 57.90
6024 24.7901 2918.40 2981.09 59.10
6025 24.7938 2937.30 3115.01 58.50
6026 24.7976 3173.20 3289.48 61.60
6027 24.8013 3406.00 3509.83 63.40
6028 24.8050 3542.90 3775.88 64.90
6029 24.8088 3839.00 4105.31 68.00
6030 24.8127 4307.40 4484.40 72.90
6031 24.8164 4509.40 4871.23 74.80
6032 24.8202 4997.20 5222.46 78.60
6033 24.8239 5120.40 5431.80 79.30
6034 24.8277 5303.30 5436.77 81.40
6035 24.8314 5155.10 5227.54 79.70
6036 24.8351 5150.90 4887.67 81.00
6037 24.8389 4739.10 4490.28 76.20
6038 24.8426 4304.40 4119.38 73.00
6039 24.8465 3836.00 3786.39 68.50
6040 24.8503 3516.90 3510.51 64.90
6041 24.8540 3176.00 3293.47 61.40
6042 24.8577 3064.60 3116.23 59.60
6043 24.8615 2887.80 2980.00 59.40
6044 24.8652 2860.10 2869.72 58.40
6045 24.8690 2701.10 2782.63 56.40
6046 24.8727 2715.60 2715.03 56.40
6047 24.8766 2581.80 2658.90 55.90
6048 24.8803 2553.50 2614.19 54.40
6049 24.8841 2435.40 2576.11 53.00
6050 24.8878 2593.90 2544.20 54.80
6051 24.8916 2427.90 2517.80 53.40
6052 24.8953 2493.50 2494.56 54.30
6053 24.8990 2427.90 2474.99 52.70
6054 24.9028 2507.50 2457.49 53.90
6055 24.9067 2377.00 2442.16 52.00
6056 24.9104 2428.40 2429.02 53.10
6057 24.9142 2358.50 2417.05 52.30
6058 24.9179 2397.40 2406.67 52.90
6059 24.9216 2343.90 2397.13 52.60
6060 24.9254 2381.90 2388.57 51.90
6061 24.9291 2330.30 2381.05 51.80
6062 24.9329 2440.50 2374.04 53.30
6063 24.9368 2399.40 2367.69 53.00
6064 24.9405 2482.10 2362.04 54.20
6065 24.9443 2340.10 2356.73 51.90
6066 24.9480 2483.40 2351.98 53.70
6067 24.9517 2397.10 2347.49 52.90
6068 24.9555 2430.80 2343.35 53.20
6069 24.9592 2247.60 2339.61 50.60
6070 24.9631 2361.60 2336.04 52.50
6071 24.9667 2306.90 2332.81 51.40
6072 24.9706 2372.80 2329.72 52.50
6073 24.9743 2455.00 2326.82 54.30
6074 24.9781 2444.50 2324.18 53.70
6075 24.9818 2341.20 2321.63 51.90
6076 24.9855 2437.60 2319.29 53.70
6077 24.9893 2377.00 2317.03 52.40
6078 24.9932 2418.80 2314.89 53.50
6079 24.9968 2351.20 2312.92 52.00
6080 25.0007 2268.00 2311.00 51.20
6081 25.0044 2280.30 2309.23 50.80
6082 25.0082 2315.40 2307.49 51.90
6083 25.0119 2330.20 2305.84 51.50
6084 25.0156 2436.40 2304.30 53.10
6085 25.0194 2348.60 2302.80 51.70
6086 25.0231 2378.50 2301.39 52.50
6087 25.0270 2394.60 2300.01 52.90
6088 25.0308 2378.40 2298.68 53.10
6089 25.0345 2340.00 2297.44 51.80
6090 25.0382 2259.40 2296.21 50.80
6091 25.0420 2250.40 2295.06 51.20
6092 25.0457 2436.40 2293.92 53.10
6093 25.0495 2295.10 2292.82 51.50
6094 25.0532 2334.50 2291.78 51.50
6095 25.0571 2327.40 2290.75 51.80
6096 25.0609 2439.60 2289.75 53.50
6097 25.0646 2278.60 2288.81 51.90
6098 25.0683 2440.20 2287.87 53.40
6099 25.0721 2323.90 2286.98 51.60
6100 25.0758 2408.60 2286.10 53.10
6101 25.0797 2298.90 2285.23 51.70
6102 25.0833 2328.70 2284.42 52.10
6103 25.0872 2344.30 2283.60 51.90
6104 25.0909 2389.60 2282.82 52.30
6105 25.0947 2449.00 2282.04 53.20
6106 25.0984 2380.00 2281.27 52.50
6107 25.1021 2298.10 2280.55 51.10
6108 25.1059 2399.50 2279.82 52.20
6109 25.1096 2299.30 2279.12 50.70
6110 25.1134 2371.60 2278.42 52.00
6111 25.1173 2281.50 2277.74 50.00
6112 25.1210 2448.00 2277.08 53.00
6113 25.1248 2315.50 2276.42 51.70
6114 25.1285 2304.90 2275.79 51.60
6115 25.1322 2268.40 2275.16 51.40
6116 25.1360 2383.90 2274.53 52.00
6117 25.1397 2353.10 2262.94 52.10
6118 25.1436 2335.60 2262.59 51.60
6119 25.1472 2316.50 2262.26 51.90
6120 25.1511 2318.80 2261.91 50.40
6121 25.1549 2377.20 2261.57 52.10
6122 25.1586 2315.20 2261.23 51.70
6123 25.1623 2333.00 2260.89 52.20
6124 25.1660 2307.30 2260.55 51.30
6125 25.1698 2270.80 2260.21 51.30
6126 25.1737 2303.60 2259.87 51.80
6127 25.1773 2266.00 2259.54 51.10
6128 25.1812 2351.20 2259.20 52.60
6129 25.1849 2342.60 2258.86 52.10
6130 25.1887 2350.00 2258.52 52.30
6131 25.1924 2160.50 2258.18 49.90
6132 25.1961 2320.00 2257.85 51.70
6133 25.1999 2344.20 2257.51 51.90
6134 25.2036 2363.90 2257.18 51.90
6135 25.2075 2239.10 2256.84 51.10
6136 25.2113 2352.30 2256.51 52.30
6137 25.2150 2282.90 2256.18 51.40
6138 25.2188 2343.40 2255.84 51.90
6139 25.2225 2326.40 2255.51 52.30
6140 25.2262 2375.60 2255.17 52.90
6141 25.2300 2272.60 2254.84 51.20
6142 25.2337 2362.90 2254.51 52.50
6143 25.2376 2357.60 2254.18 52.10
6144 25.2412 2392.20 2253.85 52.20
6145 25.2451 2275.20 2253.52 51.10
6146 25.2488 2355.80 2253.18 52.20
6147 25.2526 2264.80 2252.86 50.50
6148 25.2563 2351.30 2252.52 51.80
6149 25.2600 2283.30 2252.20 51.20
6150 25.2638 2336.00 2251.87 51.90
6151 25.2677 2242.60 2251.53 49.70
6152 25.2714 2313.00 2251.21 51.50
6153 25.2752 2325.10 2250.88 52.10
6154 25.2789 2326.70 2250.55 51.90
6155 25.2826 2276.60 2250.23 50.80
6156 25.2864 2312.10 2249.90 51.20
6157 25.2901 2220.70 2249.58 51.30
6158 25.2939 2365.50 2249.25 52.20
6159 25.2978 2227.50 2248.92 50.40
6160 25.3015 2316.60 2248.60 51.50
6161 25.3053 2246.50 2248.27 50.90
6162 25.3090 2316.60 2247.95 51.30
6163 25.3127 2238.30 2247.62 50.80
6164 25.3165 2337.50 2247.30 51.80
6165 25.3202 2222.40 2246.98 50.60
6166 25.3241 2296.00 2246.65 52.00
6167 25.3277 2328.60 2246.33 51.70
6168 25.3316 2259.80 2246.01 50.90
6169 25.3354 2311.40 2245.68 51.60
6170 25.3391 2338.50 2245.37 52.00
6171 25.3428 2228.60 2245.04 50.60
6172 25.3465 2326.30 2244.73 51.90
6173 25.3503 2319.00 2244.40 51.50
6174 25.3542 2349.50 2244.08 51.80
6175 25.3578 2160.70 2243.77 49.80
6176 25.3617 2367.20 2243.45 52.40
6177 25.3654 2262.80 2243.13 50.70
6178 25.3692 2344.90 2242.81 52.00
6179 25.3729 2221.20 2242.49 50.50
6180 25.3766 2321.40 2242.18 51.50
6181 25.3804 2211.10 2241.86 50.30
6182 25.3841 2348.00 2241.54 52.30
6183 25.3880 2240.90 2241.23 50.30
6184 25.3918 2321.50 2240.91 51.80
6185 25.3955 2224.50 2240.60 50.70
6186 25.3993 2357.70 2240.28 52.30
6187 25.4030 2284.20 2239.97 51.20
6188 25.4067 2271.40 2239.65 51.70
6189 25.4105 2265.30 2239.33 51.10
6190 25.4142 2344.20 2239.02 52.10
6191 25.4181 2289.10 2238.71 51.10
6192 25.4217 2314.10 2238.40 51.20
6193 25.4256 2155.20 2238.08 49.70
6194 25.4293 2272.50 2237.77 51.20
6195 25.4331 2224.70 2237.46 51.00
6196 25.4368 2371.90 2237.15 52.40
6197 25.4405 2252.20 2236.84 51.20
6198 25.4443 2299.30 2236.53 51.20
6199 25.4482 2264.40 2236.21 51.00
6200 25.4519 2318.10 2235.91 51.60
6201 25.4557 2280.60 2235.60 50.80
6202 25.4594 2252.60 2235.29 51.20
6203 25.4632 2323.80 2234.98 51.50
6204 25.4669 2316.00 2234.67 51.90
6205 25.4706 2205.70 2234.37 50.20
6206 25.4744 2369.10 2234.05 51.70
6207 25.4781 2263.60 2233.75 51.00
6208 25.4820 2313.80 2233.44 51.50
6209 25.4858 2181.20 2233.13 49.90
6210 25.4895 2272.20 2232.83 51.40
6211 25.4932 2246.40 2232.52 50.30
6212 25.4970 2441.30 2232.22 53.60
6213 25.5007 2194.50 2231.91 50.00
6214 25.5046 2354.60 2231.61 52.40
6215 25.5082 2295.60 2231.31 51.20
6216 25.5121 2418.00 2231.00 53.10
6217 25.5158 2254.00 2230.70 50.80
6218 25.5196 2290.80 2230.39 51.30
6219 25.5233 2254.70 2230.09 50.80
6220 25.5271 2218.10 2229.79 50.00
6221 25.5308 2319.70 2229.49 51.80
6222 25.5345 2355.40 2229.19 52.00
6223 25.5383 2254.40 2228.88 50.80
6224 25.5420 2325.40 2228.59 51.80
6225 25.5459 2262.50 2228.28 51.10
6226 25.5497 2310.60 2227.98 51.70
6227 25.5534 2183.50 2227.69 50.10
6228 25.5571 2264.80 2227.38 51.20
6229 25.5609 2162.40 2227.09 50.00
6230 25.5646 2294.50 2226.79 52.40
6231 25.5685 2236.40 2226.49 51.40
6232 25.5721 2291.70 2226.19 51.80
6233 25.5760 2227.90 2225.89 51.00
6234 25.5797 2205.50 2225.60 50.40
6235 25.5835 2193.60 2225.30 50.60
6236 25.5872 2332.60 2225.00 52.40
6237 25.5910 2295.90 2224.71 52.20
6238 25.5947 2334.20 2224.41 51.70
6239 25.5984 2239.10 2224.12 51.20
6240 25.6022 2210.10 2223.82 51.00
6241 25.6061 2218.90 2223.52 51.40
6242 25.6098 2286.40 2223.23 51.80
6243 25.6136 2187.40 2222.93 49.50
6244 25.6173 2287.50 2222.65 51.80
6245 25.6210 2204.90 2222.35 50.80
6246 25.6248 2310.10 2222.05 52.30
6247 25.6285 2287.90 2221.76 51.70
6248 25.6324 2315.00 2221.47 52.30
6249 25.6360 2210.90 2221.18 51.10
6250 25.6399 2329.80 2220.89 52.50
6251 25.6437 2229.50 2220.59 50.90
6252 25.6474 2196.80 2220.31 50.30
6253 25.6511 2257.20 2220.01 52.10
6254 25.6549 2388.90 2219.73 52.50
6255 25.6586 2251.80 2219.43 51.80
6256 25.6625 2242.50 2219.14 51.40
6257 25.6661 2229.50 2218.86 51.50
6258 25.6700 2329.30 2218.57 52.80
6259 25.6737 2224.70 2218.28 51.00
6260 25.6775 2156.30 2217.99 50.50
6261 25.6812 2189.00 2217.70 50.50
6262 25.6849 2352.50 2217.42 52.60
6263 25.6887 2309.80 2217.13 52.80
6264 25.6924 2364.50 2216.84 53.20
6265 25.6963 2261.50 2216.56 51.00
6266 25.6999 2336.30 2216.27 52.80
6267 25.7038 2217.90 2215.99 50.60
6268 25.7076 2330.60 2215.70 52.50
6269 25.7113 2253.40 2215.42 51.40
6270 25.7150 2307.00 2215.13 52.80
6271 25.7188 2151.40 2214.85 50.50
6272 25.7225 2351.80 2214.56 52.70
6273 25.7264 2285.80 2214.28 51.70
6274 25.7300 2206.40 2214.00 51.20
6275 25.7339 2229.80 2213.71 51.00
6276 25.7376 2204.50 2213.43 50.70
6277 25.7414 2231.40 2213.15 50.80
6278 25.7451 2222.30 2212.86 51.20
6279 25.7488 2239.40 2212.59 51.20
6280 25.7526 2274.60 2212.30 52.60
6281 25.7563 2123.60 2212.03 49.20
6282 25.7602 2255.90 2211.74 51.50
6283 25.7640 2249.40 2211.46 51.40
6284 25.7677 2288.80 2211.18 51.80
6285 25.7715 2258.80 2210.90 51.60
6286 25.7752 2327.00 2210.63 52.70
6287 25.7789 2260.70 2210.35 51.30
6288 25.7827 2274.20 2210.06 51.20
6289 25.7864 2249.80 2209.79 51.30
6290 25.7903 2317.10 2209.51 52.40
6291 25.7939 2155.10 2209.24 50.50
6292 25.7978 2247.70 2208.96 51.70
6293 25.8015 2165.20 2208.68 50.30
6294 25.8053 2195.60 2208.41 51.20
6295 25.8090 2178.70 2208.13 50.90
6296 25.8127 2220.80 2207.86 51.10
6297 25.8165 2206.10 2207.58 51.90
6298 25.8202 2365.00 2207.31 53.00
6299 25.8241 2172.50 2207.03 50.60
6300 25.8279 2286.30 2206.75 51.50
6301 25.8316 2202.30 2206.48 51.00
6302 25.8354 2240.70 2206.21 51.20
6303 25.8391 2187.10 2205.94 50.60
6304 25.8428 2285.80 2205.66 52.60
6305 25.8466 2160.90 2205.38 50.50
6306 25.8503 2291.50 2205.12 51.90
6307 25.8542 2288.90 2204.84 52.50
6308 25.8578 2252.70 2204.57 51.10
6309 25.8617 2063.10 2204.30 49.30
6310 25.8654 2191.60 2204.03 50.80
6311 25.8692 2132.60 2203.76 49.90
6312 25.8729 2355.00 2203.49 53.00
6313 25.8766 2220.20 2203.22 51.20
6314 25.8804 2257.70 2202.95 50.90
6315 25.8841 2182.00 2202.68 50.60
6316 25.8880 2212.10 2202.41 50.90
6317 25.8918 2246.50 2202.14 52.10
6318 25.8955 2152.30 2201.88 50.50
6319 25.8993 2134.40 2201.60 49.80
6320 25.9030 2303.60 2201.34 52.50
6321 25.9067 2184.60 2201.07 50.50
6322 25.9105 2222.60 2200.80 51.00
6323 25.9142 2180.80 2200.54 50.90
6324 25.9181 2175.90 2200.27 50.60
6325 25.9217 2173.10 2200.01 50.40
6326 25.9256 2215.00 2199.74 50.90
6327 25.9293 2061.50 2199.48 49.30
6328 25.9331 2174.60 2199.21 49.90
6329 25.9368 2185.30 2198.94 50.30
6330 25.9405 2181.00 2198.68 50.70
6331 25.9443 2109.30 2198.42 49.90
6332 25.9480 2244.20 2198.16 51.40
6333 25.9519 2198.60 2197.89 51.20
6334 25.9557 2226.40 2197.62 51.00
6335 25.9594 2256.60 2197.36 51.60
6336 25.9632 2155.90 2197.10 50.20
6337 25.9669 2122.50 2196.84 50.90
6338 25.9706 2177.40 2196.58 50.70
6339 25.9744 2177.40 2196.31 50.50
6340 25.9781 2259.60 2196.05 52.30
6341 25.9820 2138.90 2195.79 49.80
6342 25.9856 2158.80 2195.53 50.60
6343 25.9895 2176.50 2195.27 50.50
6344 25.9932 2190.10 2195.02 51.70
6345 25.9970 2175.60 2194.75 50.90
6346 26.0007 2227.80 2194.49 51.60
6347 26.0044 2205.20 2194.24 51.40
6348 26.0082 2270.80 2193.97 52.10
6349 26.0119 2149.50 2193.72 50.90
6350 26.0158 2164.40 2193.46 51.70
6351 26.0196 2218.30 2193.20 51.50
6352 26.0233 2187.50 2192.95 50.80
6353 26.0271 2159.20 2192.69 50.90
6354 26.0308 2190.80 2192.43 51.50
6355 26.0345 2231.60 2192.17 51.70
6356 26.0382 2169.00 2191.92 50.90
6357 26.0420 2186.60 2191.66 51.30
6358 26.0459 2250.70 2191.40 51.10
6359 26.0495 2215.70 2191.15 51.00
6360 26.0534 2192.10 2190.90 49.40
6361 26.0571 2218.80 2190.65 50.30
6362 26.0609 2257.10 2190.39 51.50
6363 26.0646 2254.10 2190.13 51.40
6364 26.0683 2320.40 2189.88 52.00
6365 26.0721 2148.80 2189.63 50.30
6366 26.0758 2268.40 2189.38 51.80
6367 26.0797 2157.20 2189.12 50.30
6368 26.0833 2199.20 2188.87 50.60
6369 26.0872 2202.00 2188.62 50.70
6370 26.0910 2271.50 2188.36 51.40
6371 26.0947 2175.50 2188.12 50.30
6372 26.0984 2224.50 2187.86 51.60
6373 26.1021 2223.80 2187.62 51.00
6374 26.1059 2288.50 2187.36 52.30
6375 26.1098 2182.10 2187.11 49.90
6376 26.1134 2214.10 2186.86 50.60
6377 26.1173 2160.40 2186.61 50.30
6378 26.1210 2116.10 2186.37 50.00
6379 26.1248 2142.10 2186.11 50.50
6380 26.1285 2195.30 2185.87 50.90
6381 26.1322 2200.30 2185.62 51.00
6382 26.1360 2291.40 2185.37 52.00
6383 26.1397 2236.90 2185.12 51.10
6384 26.1436 2186.70 2184.87 50.30
6385 26.1472 2167.80 2184.63 50.50
6386 26.1511 2266.60 2184.38 50.70
6387 26.1548 2185.60 2184.14 50.70
6388 26.1586 2252.90 2183.89 51.40
6389 26.1623 2209.90 2183.64 51.10
6390 26.1660 2194.50 2183.40 51.60
6391 26.1698 2137.70 2183.15 50.10
6392 26.1735 2153.80 2182.91 50.00
6393 26.1773 2154.10 2182.66 50.70
6394 26.1812 2203.40 2182.41 50.70
6395 26.1849 2218.80 2182.17 51.00
6396 26.1887 2325.60 2181.93 52.10
6397 26.1924 2139.50 2181.69 50.50
6398 26.1961 2224.60 2181.44 51.20
6399 26.1999 2227.20 2181.20 51.20
6400 26.2036 2159.10 2180.96 50.40
6401 26.2075 2221.70 2180.71 51.70
6402 26.2111 2255.80 2180.47 52.00
6403 26.2150 2166.40 2180.23 51.40
6404 26.2187 2214.20 2179.99 51.00
6405 26.2225 2082.60 2179.75 49.70
6406 26.2262 2259.00 2179.51 52.00
6407 26.2299 2197.50 2179.27 51.40
6408 26.2337 2210.80 2179.02 51.50
6409 26.2374 2207.60 2178.79 51.20
6410 26.2412 2202.00 2178.54 51.00
6411 26.2449 2226.10 2178.31 51.60
6412 26.2488 2285.90 2178.07 51.80
6413 26.2526 2160.40 2177.83 50.30
6414 26.2563 2279.10 2177.59 51.70
6415 26.2600 2147.90 2177.35 50.00
6416 26.2638 2178.90 2177.12 50.90
6417 26.2675 2130.90 2176.88 50.20
6418 26.2712 2181.00 2176.64 49.80
6419 26.2750 2079.60 2176.40 49.90
6420 26.2789 2232.30 2176.16 51.60
6421 26.2826 2119.20 2175.93 49.40
6422 26.2864 2268.30 2175.69 51.30
6423 26.2901 2178.60 2175.46 51.00
6424 26.2938 2151.80 2175.22 50.90
6425 26.2976 2166.70 2174.99 50.10
6426 26.3013 2160.20 2174.75 50.40
6427 26.3051 2151.00 2174.51 50.30
6428 26.3088 2184.80 2174.28 51.00
6429 26.3127 2061.50 2174.05 49.30
6430 26.3164 2237.60 2173.81 51.20
6431 26.3202 2234.20 2173.58 50.80
6432 26.3239 2195.60 2173.35 51.10
6433 26.3277 2072.90 2173.11 49.80
6434 26.3314 2222.90 2172.88 51.80
6435 26.3351 2104.30 2172.65 50.40
6436 26.3389 2248.70 2172.41 51.90
6437 26.3426 2171.70 2172.19 50.50
6438 26.3465 2212.10 2171.95 51.10
6439 26.3501 2028.90 2171.72 49.20
6440 26.3540 2258.70 2171.49 52.00
6441 26.3577 2074.00 2171.26 49.20
6442 26.3615 2218.10 2171.03 51.70
6443 26.3652 2145.70 2170.80 50.70
6444 26.3689 2122.10 2170.57 49.80
6445 26.3727 2138.20 2170.34 50.60
6446 26.3764 2144.00 2170.11 50.00
6447 26.3803 2132.10 2169.88 50.30
6448 26.3841 2196.00 2169.65 51.20
6449 26.3878 2203.10 2169.42 50.60
6450 26.3916 2244.80 2169.19 51.20
6451 26.3953 2164.40 2168.97 50.30
6452 26.3990 2179.10 2168.74 50.60
6453 26.4028 2076.30 2168.51 49.50
6454 26.4065 2192.60 2168.28 51.30
6455 26.4104 2228.50 2168.06 51.30
6456 26.4140 2217.30 2167.83 51.20
6457 26.4179 2123.40 2167.60 49.30
6458 26.4216 2213.60 2167.38 51.60
6459 26.4254 2212.30 2167.15 51.50
6460 26.4291 2192.30 2166.93 51.50
6461 26.4328 2127.40 2166.70 50.60
6462 26.4366 2172.50 2166.48 51.00
6463 26.4403 2260.30 2166.25 52.20
6464 26.4442 2134.30 2166.03 50.50
6465 26.4478 2186.10 2165.81 51.90
6466 26.4517 2218.20 2165.58 51.70
6467 26.4554 2139.00 2165.36 50.00
6468 26.4592 2217.20 2165.13 51.50
6469 26.4629 2134.80 2164.91 50.40
6470 26.4667 2184.10 2164.69 50.80
6471 26.4704 2141.40 2164.46 50.50
6472 26.4741 2230.00 2164.24 51.40
6473 26.4779 2213.60 2164.02 51.50
6474 26.4816 2157.50 2163.80 50.90
6475 26.4855 2164.10 2163.58 50.40
6476 26.4891 2167.60 2163.36 51.30
6477 26.4930 2240.80 2163.14 52.20
6478 26.4967 2199.80 2162.91 51.70
6479 26.5005 2034.80 2162.70 49.10
6480 26.5042 2200.50 2162.47 51.20
6481 26.5079 2104.60 2162.26 49.20
6482 26.5117 2175.80 2162.04 51.00
6483 26.5154 2149.20 2161.82 50.50
6484 26.5193 2122.10 2161.60 50.60
6485 26.5231 2125.70 2161.38 50.90
6486 26.5268 2134.70 2161.16 50.70
6487 26.5306 2233.50 2160.94 51.50
6488 26.5343 2148.00 2160.73 50.50
6489 26.5380 2125.40 2160.51 49.70
6490 26.5417 2204.50 2160.29 50.60
6491 26.5455 2047.80 2160.07 48.90
6492 26.5494 2137.10 2159.85 49.70
6493 26.5530 2088.80 2159.64 49.60
6494 26.5569 2147.50 2159.42 50.40
6495 26.5606 2207.30 2159.21 50.50
6496 26.5644 2201.60 2158.99 50.80
6497 26.5681 2178.00 2158.78 50.40
6498 26.5718 2156.60 2158.56 50.20
6499 26.5756 2218.40 2158.35 51.30
6500 26.5793 2108.90 2158.13 49.80
6501 26.5832 2143.40 2157.91 50.00
6502 26.5868 2155.80 2157.70 50.20
6503 26.5907 2089.90 2157.49 49.60
6504 26.5944 2174.50 2157.28 50.50
6505 26.5982 2193.80 2157.06 51.00
6506 26.6019 2229.80 2156.85 50.60
6507 26.6056 2113.80 2156.63 50.30
6508 26.6094 2241.00 2156.42 51.10
6509 26.6131 2149.60 2156.21 50.60
6510 26.6169 2193.70 2155.99 51.00
6511 26.6206 2175.90 2155.79 50.50
6512 26.6245 2175.50 2155.57 50.40
6513 26.6282 2139.80 2155.36 50.70
6514 26.6320 2200.40 2155.15 51.20
6515 26.6357 2157.60 2154.94 50.50
6516 26.6395 2152.10 2154.73 50.40
6517 26.6432 2108.90 2154.52 49.80
6518 26.6469 2061.60 2154.31 49.00
6519 26.6507 2165.50 2154.10 50.00
6520 26.6544 2161.70 2153.89 50.40
6521 26.6583 2166.20 2153.68 50.70
6522 26.6619 2122.00 2153.47 49.30
6523 26.6658 2082.00 2153.26 49.50
6524 26.6695 2157.00 2153.06 50.50
6525 26.6733 2090.00 2152.84 49.30
6526 26.6770 2179.30 2152.63 50.70
6527 26.6807 2092.00 2152.43 50.00
6528 26.6845 2184.10 2152.22 51.00
6529 26.6882 2160.60 2152.01 50.70
6530 26.6921 2168.20 2151.81 50.60
6531 26.6957 2131.30 2151.60 49.90
6532 26.6996 2194.90 2151.39 51.10
6533 26.7033 2163.50 2151.19 50.80
6534 26.7071 2207.80 2150.98 51.40
6535 26.7108 2039.70 2150.77 49.30
6536 26.7146 2152.10 2150.57 50.50
6537 26.7183 2170.70 2150.36 50.70
6538 26.7220 2077.10 2150.16 49.60
6539 26.7258 2068.90 2149.95 48.80
6540 26.7295 2177.40 2149.75 50.10
6541 26.7334 2134.20 2149.54 50.20
6542 26.7370 2268.80 2149.34 52.40
6543 26.7409 2131.30 2149.14 50.20
6544 26.7446 2160.80 2148.93 50.10
6545 26.7484 2124.60 2148.73 50.00
6546 26.7521 2199.20 2148.52 50.90
6547 26.7558 2192.60 2148.32 50.60
6548 26.7596 2172.10 2148.12 51.00
6549 26.7633 2105.30 2147.92 50.00
6550 26.7672 2151.30 2147.72 50.80
6551 26.7708 2082.10 2147.52 49.10
6552 26.7747 2160.30 2147.31 50.10
6553 26.7785 2056.60 2147.11 49.10
6554 26.7822 2121.90 2146.91 49.90
6555 26.7859 2135.40 2146.71 49.90
6556 26.7896 2110.80 2146.51 50.00
6557 26.7934 2044.90 2146.31 49.50
6558 26.7971 2169.20 2146.11 50.90
6559 26.8009 2073.90 2145.91 50.10
6560 26.8046 2217.60 2145.71 51.40
6561 26.8085 2078.60 2145.51 49.70
6562 26.8123 2065.00 2145.31 49.50
6563 26.8160 2094.40 2145.11 49.80
6564 26.8197 2069.20 2144.91 49.70
6565 26.8235 2165.00 2144.71 50.30
6566 26.8272 2143.20 2144.51 50.20
6567 26.8309 2106.10 2144.32 49.80
6568 26.8347 2148.50 2144.12 50.40
6569 26.8384 2037.00 2143.92 49.10
6570 26.8423 2150.10 2143.72 50.40
6571 26.8461 2048.50 2143.52 49.20
6572 26.8498 2119.30 2143.33 50.00
6573 26.8535 2088.00 2143.13 49.80
6574 26.8573 2142.60 2142.94 50.20
6575 26.8610 2047.80 2142.74 48.90
6576 26.8647 2153.50 2142.54 50.70
6577 26.8685 2085.10 2142.35 49.60
6578 26.8722 2178.60 2142.15 50.60
6579 26.8761 2041.00 2141.95 49.10
6580 26.8797 2161.30 2141.76 50.00
6581 26.8836 2127.40 2141.57 49.30
6582 26.8874 2174.30 2141.37 50.00
6583 26.8911 2138.60 2141.18 49.90
6584 26.8948 2204.00 2140.98 51.00
6585 26.8986 2163.40 2140.79 50.30
6586 26.9023 2154.60 2140.59 50.70
6587 26.9060 2068.90 2140.40 49.40
6588 26.9098 2178.20 2140.21 50.40
6589 26.9135 2091.20 2140.02 49.80
6590 26.9174 2138.30 2139.82 50.10
6591 26.9210 2094.40 2139.63 49.50
6592 26.9249 2090.20 2139.44 49.20
6593 26.9286 2145.90 2139.24 49.10
6594 26.9324 2157.30 2139.05 50.10
6595 26.9361 2054.20 2138.86 49.00
6596 26.9398 2075.50 2138.67 49.20
6597 26.9436 2144.50 2138.48 50.30
6598 26.9473 2138.20 2138.29 50.00
6599 26.9512 2018.90 2138.10 48.70
6600 26.9548 2111.30 2137.91 49.20
6601 26.9587 2028.80 2137.72 48.60
6602 26.9624 2170.70 2137.53 50.40
6603 26.9662 2170.70 2137.34 50.70
6604 26.9699 2190.20 2137.14 50.80
6605 26.9736 2091.90 2136.96 49.80
6606 26.9774 2213.80 2136.77 50.10
6607 26.9811 2020.00 2136.58 48.30
6608 26.9849 2131.20 2136.39 49.80
6609 26.9865 2068.90 2136.31 49.70
6610 26.9902 2049.60 2136.12 49.40
6611 26.9940 2039.60 2135.93 48.50
6612 26.9977 2217.10 2135.75 51.70
6613 27.0016 2147.60 2135.56 50.60
6614 27.0054 2123.30 2135.37 50.70
6615 27.0091 2093.80 2135.18 50.60
6616 27.0128 2178.20 2134.99 51.40
6617 27.0166 2090.80 2134.81 49.80
6618 27.0203 2137.10 2134.62 50.50
6619 27.0240 2080.20 2134.44 49.30
6620 27.0278 2161.00 2134.25 50.20
6621 27.0315 2106.30 2134.06 49.80
6622 27.0354 2088.20 2133.88 49.20
6623 27.0392 2068.30 2133.69 49.50
6624 27.0429 2097.40 2133.51 49.90
6625 27.0466 2070.40 2133.32 48.90
6626 27.0504 2170.90 2133.14 50.60
6627 27.0541 2114.70 2132.95 49.70
6628 27.0578 2210.50 2132.77 51.00
6629 27.0616 2057.90 2132.58 49.40
6630 27.0655 2118.50 2132.39 50.00
6631 27.0692 2118.50 2132.21 49.90
6632 27.0730 2164.70 2132.03 50.50
6633 27.0767 2019.10 2131.85 48.80
6634 27.0805 2113.70 2131.66 49.90
6635 27.0842 2100.40 2131.48 49.90
6636 27.0879 2123.90 2131.30 49.50
6637 27.0917 2123.50 2131.12 50.60
6638 27.0954 2167.00 2130.93 50.30
6639 27.0993 2050.10 2130.75 49.50
6640 27.1029 2232.80 2130.57 51.60
6641 27.1068 2086.70 2130.38 49.50
6642 27.1105 2176.30 2130.20 50.60
6643 27.1143 2156.90 2130.02 51.00
6644 27.1180 2143.90 2129.84 50.60
6645 27.1217 2007.30 2129.66 48.70
6646 27.1255 2138.20 2129.48 50.40
6647 27.1292 2092.70 2129.30 49.80
6648 27.1331 2064.90 2129.12 49.20
6649 27.1367 2020.00 2128.94 48.30
6650 27.1406 2210.80 2128.76 51.20
6651 27.1443 2122.30 2128.58 50.30
6652 27.1481 2113.80 2128.40 49.30
6653 27.1518 2101.80 2128.22 49.80
6654 27.1556 2134.90 2128.04 50.40
6655 27.1593 2115.90 2127.86 49.80
6656 27.1630 2125.40 2127.68 50.20
6657 27.1668 2126.60 2127.50 50.60
6658 27.1705 2032.70 2127.33 49.20
6659 27.1744 2097.90 2127.15 50.00
6660 27.1780 2055.60 2126.97 49.30
6661 27.1819 2090.00 2126.79 49.50
6662 27.1856 2262.10 2126.62 52.00
6663 27.1894 2103.40 2126.44 50.20
6664 27.1931 2082.40 2126.26 49.90
6665 27.1968 1942.10 2126.08 48.20
6666 27.2006 2129.90 2125.91 50.30
6667 27.2043 2068.80 2125.73 49.60
6668 27.2082 2149.90 2125.55 50.70
6669 27.2118 2028.00 2125.38 48.40
6670 27.2157 2040.20 2125.20 48.60
6671 27.2164 2128.60 2125.16 49.50
6672 27.2201 2064.10 2124.99 48.80
6673 27.2239 2017.10 2124.81 48.10
6674 27.2276 2128.20 2124.64 49.80
6675 27.2314 2061.40 2124.46 49.30
6676 27.2351 2097.90 2124.29 49.30
6677 27.2390 2043.60 2124.11 49.00
6678 27.2426 2170.60 2123.94 49.90
6679 27.2465 1985.90 2123.77 48.30
6680 27.2502 2127.20 2123.59 50.00
6681 27.2540 2116.40 2123.42 49.90
6682 27.2577 2210.40 2123.24 50.90
6683 27.2614 2071.60 2123.07 49.60
6684 27.2652 2165.40 2122.90 50.20
6685 27.2689 2079.20 2122.73 49.30
6686 27.2728 2068.40 2122.55 48.80
6687 27.2764 2052.90 2122.38 49.00
6688 27.2803 2135.10 2122.21 50.00
6689 27.2840 2123.50 2122.04 49.30
6690 27.2878 2094.60 2121.86 49.70
6691 27.2915 1983.30 2121.69 48.00
6692 27.2952 2080.10 2121.52 49.20
6693 27.2990 2124.00 2121.35 49.90
6694 27.3027 2064.00 2121.18 48.90
6695 27.3065 2065.90 2121.01 49.50
6696 27.3102 2111.70 2120.84 49.70
6697 27.3141 2168.20 2120.66 50.90
6698 27.3178 2152.80 2120.50 50.40
6699 27.3216 2031.00 2120.32 48.20
6700 27.3253 2129.90 2120.16 49.60
6701 27.3291 2093.20 2119.98 49.20
6702 27.3328 2124.60 2119.82 50.00
6703 27.3365 2079.70 2119.65 48.60
6704 27.3403 2139.30 2119.48 50.00
6705 27.3440 2099.30 2119.31 50.00
6706 27.3477 2089.50 2119.14 49.40
6707 27.3515 2043.20 2118.97 49.00
6708 27.3554 2108.50 2118.80 49.50
6709 27.3591 2006.20 2118.63 47.80
6710 27.3629 2112.80 2118.46 49.40
6711 27.3666 2170.10 2118.30 50.10
6712 27.3703 2110.80 2118.13 49.40
6713 27.3741 2036.30 2117.96 48.70
6714 27.3778 2150.90 2117.79 50.30
6715 27.3815 2083.90 2117.63 49.20
6716 27.3853 2151.30 2117.46 50.80
6717 27.3890 2053.00 2117.29 48.90
6718 27.3929 2144.80 2117.13 50.70
6719 27.3967 1999.00 2116.96 48.80
6720 27.4004 2139.70 2116.79 50.10
6721 27.4042 2072.20 2116.62 48.70
6722 27.4079 2161.10 2116.46 50.00
6723 27.4116 2038.00 2116.29 49.10
6724 27.4153 2129.00 2116.13 50.10
6725 27.4191 2099.20 2115.96 49.90
6726 27.4228 1975.20 2115.80 48.40
6727 27.4266 1944.60 2115.63 47.70
6728 27.4303 2057.10 2115.47 49.20
6729 27.4342 2145.80 2115.30 50.90
6730 27.4380 2106.40 2115.14 49.30
6731 27.4417 2005.30 2114.98 48.50
6732 27.4454 2064.30 2114.81 49.20
6733 27.4492 2075.40 2114.65 49.60
6734 27.4529 2106.90 2114.48 50.00
6735 27.4566 2086.10 2114.32 49.60
6736 27.4604 2158.00 2114.16 50.10
6737 27.4641 2035.20 2113.99 48.40
6738 27.4680 2118.40 2113.83 50.00
6739 27.4716 2049.00 2113.67 49.00
6740 27.4755 2000.20 2113.50 48.00
6741 27.4792 2056.80 2113.34 49.20
6742 27.4830 2095.60 2113.18 50.30
6743 27.4867 2000.20 2113.02 48.90
6744 27.4904 2170.90 2112.86 50.30
6745 27.4942 2120.40 2112.69 50.10
6746 27.4979 2151.70 2112.53 50.40
6747 27.5018 2029.00 2112.37 48.90
6748 27.5054 2086.60 2112.21 49.20
6749 27.5093 2023.60 2112.05 49.10
6750 27.5130 2105.40 2111.89 50.40
6751 27.5168 1988.00 2111.73 48.10
6752 27.5205 2105.80 2111.56 49.80
6753 27.5243 2036.90 2111.40 49.30
6754 27.5280 2067.40 2111.24 49.40
6755 27.5317 2092.00 2111.08 49.60
6756 27.5355 2106.50 2110.92 49.40
6757 27.5392 2054.80 2110.77 49.10
6758 27.5431 2067.30 2110.60 49.60
6759 27.5467 2116.30 2110.45 49.80
6760 27.5506 2103.50 2110.29 50.00
6761 27.5543 2092.40 2110.12 49.80
6762 27.5581 2139.20 2109.97 50.50
6763 27.5618 1997.30 2109.81 48.90
6764 27.5655 2104.60 2109.65 49.40
6765 27.5693 2094.20 2109.49 49.30
6766 27.5730 2161.50 2109.33 50.30
6767 27.5769 2042.90 2109.17 49.30
6768 27.5805 2170.00 2109.02 50.80
6769 27.5844 2070.30 2108.86 49.50
6770 27.5882 2069.90 2108.70 49.40
6771 27.5919 2069.50 2108.55 49.50
6772 27.5956 2095.90 2108.39 50.10
6773 27.5993 1991.50 2108.23 48.90
6774 27.6031 2003.20 2108.07 48.30
6775 27.6068 2044.90 2107.92 49.10
6776 27.6106 2080.70 2107.76 50.00
6777 27.6143 2091.50 2113.28 49.10
6778 27.6182 2125.10 2113.25 50.30
6779 27.6220 2016.20 2113.22 49.10
6780 27.6257 2055.90 2113.20 48.60
6781 27.6294 2034.40 2113.18 48.80
6782 27.6332 2146.30 2113.17 50.20
6783 27.6369 1995.10 2113.16 48.80
6784 27.6406 2175.80 2113.16 51.20
6785 27.6444 2035.50 2113.16 47.90
6786 27.6481 2124.00 2113.17 49.90
6787 27.6520 2077.20 2113.18 50.00
6788 27.6556 2032.60 2113.20 49.20
6789 27.6595 2059.80 2113.23 49.30
6790 27.6632 2056.70 2113.27 49.20
6791 27.6670 2077.00 2113.31 49.60
6792 27.6707 2087.70 2113.36 50.00
6793 27.6744 2088.90 2113.42 49.90
6794 27.6782 2148.60 2113.49 49.60
6795 27.6819 2052.90 2113.56 48.70
6796 27.6857 2070.90 2113.65 48.20
6797 27.6896 2161.00 2113.75 50.20
6798 27.6933 2121.60 2113.85 49.30
6799 27.6971 2027.50 2113.97 48.20
6800 27.7008 2109.80 2114.10 49.10
6801 27.7045 2084.90 2114.25 48.90
6802 27.7083 2092.90 2114.40 49.10
6803 27.7120 2077.80 2114.57 48.70
6804 27.7157 2121.50 2114.75 49.40
6805 27.7195 2091.40 2114.96 48.90
6806 27.7234 2147.00 2115.18 49.90
6807 27.7271 2105.90 2115.41 49.30
6808 27.7309 2131.00 2115.67 48.90
6809 27.7346 2048.40 2115.94 48.80
6810 27.7383 2011.00 2116.24 47.90
6811 27.7421 2166.20 2116.55 50.10
6812 27.7458 2034.40 2116.90 48.70
6813 27.7495 2102.10 2117.27 49.90
6814 27.7533 2043.60 2117.67 48.10
6815 27.7572 2073.80 2118.10 48.40
6816 27.7609 2095.20 2118.56 49.30
6817 27.7647 2009.50 2119.06 48.30
6818 27.7684 2133.20 2119.59 49.60
6819 27.7722 2096.70 2120.18 49.00
6820 27.7759 2124.80 2120.79 50.00
6821 27.7796 2098.20 2121.46 48.80
6822 27.7833 2154.30 2122.17 49.80
6823 27.7871 2083.20 2122.96 49.50
6824 27.7910 2171.50 2123.80 50.30
6825 27.7946 2011.40 2124.69 48.40
6826 27.7985 2135.90 2125.68 49.80
6827 27.8022 2006.60 2126.72 48.20
6828 27.8060 2085.30 2127.88 48.70
6829 27.8097 2087.50 2129.09 48.70
6830 27.8134 2091.60 2130.45 48.70
6831 27.8172 2061.60 2131.92 48.40
6832 27.8209 2063.10 2133.49 48.70
6833 27.8248 2168.10 2135.23 50.00
6834 27.8284 2169.70 2137.08 50.00
6835 27.8323 2005.00 2139.17 48.20
6836 27.8360 2106.90 2141.38 49.60
6837 27.8398 2114.40 2143.88 49.50
6838 27.8435 2096.80 2146.55 49.50
6839 27.8472 2069.40 2149.57 49.10
6840 27.8510 2202.10 2152.91 51.20
6841 27.8547 2132.10 2156.52 49.20
6842 27.8585 2192.90 2160.62 50.00
6843 27.8622 2088.50 2165.08 49.20
6844 27.8661 2174.10 2170.19 50.00
6845 27.8697 2123.40 2175.77 49.40
6846 27.8736 2132.90 2182.21 49.50
6847 27.8773 2209.60 2189.50 50.30
6848 27.8811 2125.80 2197.56 49.30
6849 27.8848 2171.20 2207.00 50.30
6850 27.8885 2231.10 2217.55 51.00
6851 27.8923 2268.10 2230.05 51.00
6852 27.8960 2299.80 2244.20 51.80
6853 27.8999 2257.90 2261.23 51.50
6854 27.9037 2315.40 2281.42 51.70
6855 27.9074 2318.40 2304.90 51.90
6856 27.9111 2354.30 2333.98 52.40
6857 27.9149 2351.60 2368.44 52.30
6858 27.9186 2531.80 2411.85 54.30
6859 27.9223 2604.80 2463.97 54.50
6860 27.9261 2668.90 2530.10 56.30
6861 27.9300 2686.00 2612.02 56.10
6862 27.9336 2874.80 2709.80 57.90
6863 27.9375 2933.20 2831.50 59.10
6864 27.9412 3200.80 2972.12 61.90
6865 27.9450 3396.80 3137.13 63.60
6866 27.9487 3566.20 3309.34 65.20
6867 27.9524 3704.20 3478.32 66.40
6868 27.9562 3938.10 3605.53 68.80
6869 27.9599 3928.70 3664.58 68.30
6870 27.9638 3886.10 3633.05 68.80
6871 27.9674 3722.90 3524.66 66.90
6872 27.9713 3670.20 3363.96 66.30
6873 27.9750 3326.80 3191.28 62.70
6874 27.9788 3146.30 3020.85 61.20
6875 27.9825 2904.10 2873.09 58.50
6876 27.9862 2677.90 2743.91 56.10
6877 27.9900 2580.00 2636.90 54.90
6878 27.9937 2577.30 2551.69 54.50
6879 27.9975 2306.00 2480.62 51.70
6880 28.0012 2358.80 2424.60 52.40
6881 28.0051 2234.00 2377.89 50.80
6882 28.0088 2215.80 2340.85 51.40
6883 28.0126 2221.20 2309.62 50.50
6884 28.0163 2302.90 2283.82 52.00
6885 28.0201 2142.90 2262.80 49.50
6886 28.0238 2200.00 2244.56 50.50
6887 28.0275 2092.00 2229.40 49.20
6888 28.0313 2210.80 2216.00 50.10
6889 28.0350 2130.80 2204.69 49.70
6890 28.0389 2097.40 2194.54 49.30
6891 28.0427 2126.10 2185.64 49.60
6892 28.0464 2115.90 2177.97 48.90
6893 28.0501 2099.80 2170.98 49.40
6894 28.0539 2217.80 2164.91 50.70
6895 28.0576 2033.20 2159.32 48.40
6896 28.0613 2130.10 2154.43 49.30
6897 28.0651 2096.40 2149.89 49.80
6898 28.0690 2107.30 2145.78 49.00
6899 28.0727 2053.30 2142.14 49.00
6900 28.0765 2141.60 2138.73 49.90
6901 28.0802 2141.90 2135.70 49.90
6902 28.0840 2130.80 2132.84 50.30
6903 28.0877 2101.20 2130.27 49.80
6904 28.0914 2110.30 2127.84 49.30
6905 28.0952 2084.80 2125.59 49.40
6906 28.0989 2146.50 2123.57 50.50
6907 28.1028 2106.50 2121.63 49.80
6908 28.1064 2094.60 2119.88 49.20
6909 28.1103 2068.90 2118.20 49.10
6910 28.1140 2102.90 2116.66 49.50
6911 28.1178 2086.90 2115.19 48.80
6912 28.1215 2035.00 2113.81 48.50
6913 28.1252 2071.90 2112.54 49.00
6914 28.1290 2095.80 2111.32 49.00
6915 28.1327 2004.10 2110.19 48.10
6916 28.1366 2103.40 2109.10 49.50
6917 28.1402 2074.00 2108.09 49.30
6918 28.1441 2107.60 2107.11 49.50
6919 28.1479 1997.30 2106.18 47.60
6920 28.1516 2044.80 2105.31 48.90
6921 28.1553 2098.80 2104.47 50.30
6922 28.1590 2049.50 2103.69 48.10
6923 28.1628 2037.30 2102.92 48.30
6924 28.1667 2075.90 2102.18 48.50
6925 28.1703 2096.60 2101.50 49.10
6926 28.1742 2078.80 2100.83 49.40
6927 28.1779 2099.60 2100.20 49.80
6928 28.1817 2016.20 2099.58 48.40
6929 28.1854 1989.10 2099.00 47.80
6930 28.1891 1944.10 2098.42 47.00
6931 28.1929 2006.90 2097.87 48.10
6932 28.1966 2022.70 2097.35 47.80
6933 28.2005 2101.30 2096.83 49.10
6934 28.2041 2002.90 2096.35 48.30
6935 28.2080 2134.10 2095.87 49.30
6936 28.2117 2079.30 2095.41 48.80
6937 28.2155 2088.30 2094.96 48.90
6938 28.2192 2066.40 2094.53 48.60
6939 28.2229 1981.00 2094.11 47.60
6940 28.2267 2042.30 2093.70 48.50
6941 28.2304 2061.60 2093.31 48.20
6942 28.2342 2036.80 2092.92 48.40
6943 28.2379 2003.40 2092.55 48.10
6944 28.2418 2086.80 2092.18 48.80
6945 28.2456 1936.60 2091.82 46.80
6946 28.2493 2065.80 2091.47 49.40
6947 28.2530 2093.60 2091.13 49.00
6948 28.2568 2061.20 2090.80 48.80
6949 28.2605 2023.20 2090.47 48.40
6950 28.2644 2075.70 2090.15 49.10
6951 28.2680 1950.70 2089.85 47.80
6952 28.2719 2015.80 2089.54 48.30
6953 28.2756 2004.80 2089.25 48.60
6954 28.2794 2095.90 2088.95 49.40
6955 28.2831 2024.30 2088.67 48.90
6956 28.2868 2017.60 2088.39 48.30
6957 28.2906 2047.20 2088.11 48.30
6958 28.2943 2025.40 2087.84 48.20
6959 28.2981 2008.30 2087.57 48.00
6960 28.3018 2037.00 2087.32 48.60
6961 28.3057 1980.80 2087.06 47.70
6962 28.3093 2068.40 2081.20 48.70
6963 28.3132 2017.20 2081.07 48.10
6964 28.3169 2075.20 2080.93 49.40
6965 28.3207 1989.40 2080.81 48.10
6966 28.3244 1964.50 2080.67 47.40
6967 28.3281 1981.20 2080.55 47.90
6968 28.3319 2095.70 2080.41 49.30
6969 28.3358 2039.20 2080.28 48.80
6970 28.3395 1963.00 2080.15 47.40
6971 28.3433 1933.90 2080.02 47.20
6972 28.3470 2109.30 2079.90 49.90
6973 28.3507 2000.30 2079.76 47.50
6974 28.3545 1998.00 2079.64 48.00
6975 28.3582 2018.20 2079.51 48.10
6976 28.3620 1989.90 2079.37 47.70
6977 28.3657 2027.00 2079.25 48.00
6978 28.3696 2057.20 2079.12 48.60
6979 28.3732 1977.70 2078.99 47.70
6980 28.3771 2060.20 2078.86 48.60
6981 28.3808 2014.10 2078.73 48.60
6982 28.3846 2057.00 2078.60 48.60
6983 28.3883 2048.70 2078.47 48.90
6984 28.3920 2041.30 2078.35 48.10
6985 28.3958 2075.60 2078.22 48.80
6986 28.3995 2009.80 2078.09 48.20
6987 28.4034 2037.20 2077.96 48.60
6988 28.4072 2097.60 2077.83 49.70
6989 28.4109 1946.30 2077.71 47.10
6990 28.4146 1986.60 2077.58 48.10
6991 28.4184 1989.10 2077.45 48.00
6992 28.4221 2076.40 2077.32 48.60
6993 28.4259 2008.60 2077.19 48.10
6994 28.4296 2035.80 2077.07 48.60
6995 28.4335 2057.40 2076.94 48.60
6996 28.4371 1952.40 2076.81 46.90
6997 28.4410 2040.40 2076.68 48.20
6998 28.4447 2065.10 2076.56 49.10
6999 28.4485 1948.70 2076.43 47.00
7000 28.4522 2090.60 2076.30 49.30
7001 28.4559 2029.90 2076.18 48.80
7002 28.4597 2046.70 2076.05 48.80
7003 28.4634 2053.70 2075.93 48.20
7004 28.4673 2052.00 2075.80 48.80
7005 28.4711 1996.90 2075.67 47.80
7006 28.4748 2001.00 2075.55 47.90
7007 28.4785 2003.80 2075.42 48.10
7008 28.4823 2069.80 2075.29 49.00
7009 28.4860 2038.80 2075.17 48.50
7010 28.4897 2008.30 2075.04 48.00
7011 28.4935 2022.10 2074.92 48.20
7012 28.4974 1939.70 2074.79 47.50
7013 28.5011 1911.60 2074.66 46.80
7014 28.5049 2026.20 2074.54 48.20
7015 28.5086 2004.20 2074.41 47.70
7016 28.5124 2002.10 2074.29 48.40
7017 28.5161 1937.60 2074.16 47.20
7018 28.5198 2051.90 2074.04 48.40
7019 28.5236 2024.20 2073.91 47.90
7020 28.5273 1930.20 2073.79 46.60
7021 28.5312 2037.60 2073.66 48.80
7022 28.5348 2018.80 2073.54 48.60
7023 28.5387 2116.10 2073.41 49.90
7024 28.5424 1992.50 2073.29 48.40
7025 28.5462 1990.30 2073.17 47.80
7026 28.5499 2013.90 2073.04 48.10
7027 28.5536 1972.60 2072.92 47.80
7028 28.5574 1970.10 2072.79 47.40
7029 28.5613 1936.40 2072.67 47.40
7030 28.5650 2077.80 2072.55 49.10
7031 28.5688 1976.10 2072.42 47.50
7032 28.5725 2052.30 2072.30 49.10
7033 28.5763 2019.60 2072.17 48.50
7034 28.5800 2054.20 2072.05 48.70
7035 28.5837 2011.10 2071.93 47.60
7036 28.5875 2066.50 2071.80 48.40
7037 28.5912 1956.00 2071.68 47.40
7038 28.5951 1969.30 2071.56 47.50
7039 28.5987 1995.60 2071.44 47.90
7040 28.6026 1969.90 2071.31 47.30
7041 28.6063 1977.30 2071.19 47.50
7042 28.6101 2029.10 2071.07 48.70
7043 28.6138 1962.30 2070.94 47.80
7044 28.6175 2039.70 2070.82 48.80
7045 28.6213 1971.10 2070.70 47.40
7046 28.6252 1992.80 2070.57 48.20
7047 28.6289 2035.60 2070.45 48.50
7048 28.6327 2043.40 2070.33 48.70
7049 28.6364 1937.00 2070.21 48.00
7050 28.6402 2049.70 2070.09 48.60
7051 28.6439 1973.50 2069.96 46.80
7052 28.6476 1983.70 2069.84 47.40
7053 28.6514 1974.70 2069.72 47.60
7054 28.6551 1957.70 2069.60 46.90
7055 28.6590 2049.60 2069.48 48.60
7056 28.6626 2084.50 2069.36 48.50
7057 28.6665 2042.50 2069.23 48.10
7058 28.6702 2123.20 2069.11 49.50
7059 28.6740 1950.70 2068.99 47.40
7060 28.6777 1993.60 2068.87 47.00
7061 28.6814 2011.80 2068.75 47.50
7062 28.6852 2006.50 2068.63 47.50
7063 28.6891 2004.70 2068.51 47.80
7064 28.6928 2057.60 2068.39 48.10
7065 28.6966 1993.10 2068.26 47.40
7066 28.7003 2111.60 2068.15 48.80
7067 28.7041 1964.30 2068.02 47.00
7068 28.7078 2020.80 2067.90 48.20
7069 28.7115 1946.90 2067.78 47.10
7070 28.7153 1956.30 2067.66 47.40
7071 28.7190 2011.90 2067.54 48.00
7072 28.7229 1934.90 2067.42 46.80
7073 28.7265 1965.50 2067.30 47.10
7074 28.7304 2093.00 2067.18 49.00
7075 28.7341 1939.60 2067.06 47.10
7076 28.7379 1965.30 2066.94 47.40
7077 28.7416 2013.80 2066.82 48.10
7078 28.7453 1977.60 2066.70 47.80
7079 28.7491 1950.10 2066.58 47.00
7080 28.7530 2013.60 2066.46 47.80
7081 28.7567 1987.20 2066.34 47.60
7082 28.7605 2075.70 2066.22 48.50
7083 28.7642 1914.50 2066.11 46.40
7084 28.7680 1968.40 2065.99 47.50
7085 28.7717 1992.80 2065.87 47.60
7086 28.7754 2005.60 2065.75 48.00
7087 28.7792 1974.40 2065.63 47.80
7088 28.7829 2004.50 2065.51 47.70
7089 28.7868 1989.00 2065.39 47.40
7090 28.7906 1993.60 2065.27 47.30
7091 28.7943 2057.50 2065.15 48.40
7092 28.7980 2094.20 2065.03 48.80
7093 28.8018 2016.90 2064.92 48.20
7094 28.8055 2051.90 2064.80 48.20
7095 28.8092 2012.60 2064.68 47.60
7096 28.8130 1926.70 2064.56 46.70
7097 28.8169 1918.70 2064.44 47.20
7098 28.8206 2013.40 2064.33 48.40
7099 28.8244 2066.70 2064.21 48.40
7100 28.8281 2083.20 2064.09 48.60
7101 28.8319 1940.80 2063.97 47.30
7102 28.8356 2002.40 2063.85 47.80
7103 28.8393 1950.90 2063.74 47.30
7104 28.8431 2017.50 2063.62 48.20
7105 28.8468 1898.50 2063.50 46.60
7106 28.8507 2066.60 2063.38 48.60
7107 28.8545 2018.70 2063.26 47.80
7108 28.8582 1957.00 2063.15 46.50
7109 28.8619 2089.90 2063.03 48.40
7110 28.8657 1992.50 2062.92 47.80
7111 28.8694 1998.90 2062.80 47.80
7112 28.8732 1945.50 2062.68 46.70
7113 28.8769 2022.80 2062.56 48.10
7114 28.8808 2007.90 2062.44 48.10
7115 28.8845 1962.50 2062.33 46.90
7116 28.8883 1982.60 2062.21 47.50
7117 28.8920 2003.30 2062.09 47.90
7118 28.8958 1952.00 2061.98 47.30
7119 28.8995 1914.20 2061.86 46.30
7120 28.9032 2035.00 2061.75 48.10
7121 28.9070 1994.80 2061.63 48.00
7122 28.9109 1985.20 2061.51 47.70
7123 28.9146 1983.40 2061.40 47.50
7124 28.9184 2049.90 2061.28 48.30
7125 28.9221 1927.20 2061.16 46.50
7126 28.9258 2004.90 2061.05 48.50
7127 28.9296 1995.70 2060.93 48.30
7128 28.9333 1965.70 2060.82 47.60
7129 28.9371 1968.20 2060.70 47.90
7130 28.9408 2034.70 2060.59 48.10
7131 28.9447 2068.40 2060.47 49.00
7132 28.9484 1975.30 2060.35 47.10
7133 28.9522 2004.00 2060.24 48.10
7134 28.9559 2068.90 2060.12 48.80
7135 28.9597 1986.80 2060.01 47.40
7136 28.9634 1961.30 2059.89 47.20
7137 28.9671 2030.50 2059.78 48.50
7138 28.9709 2035.00 2059.66 47.70
7139 28.9748 2093.90 2059.54 49.20
7140 28.9785 2074.40 2059.43 48.60
7141 28.9823 1929.90 2059.31 47.20
7142 28.9860 2036.30 2059.20 48.80
7143 28.9897 1998.40 2059.08 47.90
7144 28.9935 2027.50 2058.97 49.10
7145 28.9972 2014.20 2058.86 47.80
7146 29.0011 2036.90 2058.74 48.70
7147 29.0047 1998.50 2058.63 47.60
7148 29.0086 1932.60 2058.51 46.80
7149 29.0124 2035.40 2058.40 48.60
7150 29.0161 2050.90 2058.28 48.10
7151 29.0198 1972.30 2058.17 48.00
7152 29.0236 2052.00 2058.05 48.40
7153 29.0273 2007.90 2057.94 48.40
7154 29.0312 2066.00 2057.82 48.70
7155 29.0348 2032.30 2057.71 48.40
7156 29.0387 2004.90 2057.60 48.10
7157 29.0424 2015.10 2057.48 48.10
7158 29.0462 2003.60 2057.37 48.30
7159 29.0499 1998.60 2057.25 48.30
7160 29.0536 2031.10 2057.14 48.20
7161 29.0574 1957.40 2057.03 47.50
7162 29.0611 2075.40 2056.91 49.10
7163 29.0650 1992.90 2056.80 48.60
7164 29.0686 2026.20 2056.69 48.00
7165 29.0725 1958.20 2056.57 47.80
7166 29.0763 2051.40 2056.46 48.60
7167 29.0800 2082.70 2056.35 49.10
7168 29.0837 2001.40 2056.23 48.20
7169 29.0875 2008.50 2056.12 48.20
7170 29.0912 2018.70 2056.01 48.70
7171 29.0951 1982.40 2055.89 48.30
7172 29.0987 2115.70 2055.78 49.30
7173 29.1026 1982.70 2055.67 48.20
7174 29.1063 2023.40 2055.55 48.40
7175 29.1101 1958.10 2055.44 48.00
7176 29.1138 2023.20 2055.33 48.10
7177 29.1175 2077.80 2055.22 49.70
7178 29.1213 2027.00 2055.10 49.10
7179 29.1250 2057.80 2054.99 49.20
7180 29.1289 2092.80 2054.88 49.90
7181 29.1327 1962.50 2054.76 47.70
7182 29.1364 1940.50 2054.65 47.80
7183 29.1402 2071.10 2054.54 49.60
7184 29.1439 2004.30 2054.43 47.60
7185 29.1476 1975.40 2054.31 47.80
7186 29.1514 2002.80 2054.20 48.60
7187 29.1551 2018.50 2054.09 49.10
7188 29.1590 2092.30 2053.98 49.00
7189 29.1626 2024.80 2053.87 48.90
7190 29.1665 2087.30 2053.75 48.80
7191 29.1702 2015.20 2053.64 48.20
7192 29.1740 2079.40 2053.53 48.60
7193 29.1777 2014.60 2053.42 48.90
7194 29.1814 2048.70 2053.31 48.80
7195 29.1852 2019.30 2053.19 48.20
7196 29.1891 2076.90 2053.08 49.10
7197 29.1928 1996.80 2052.97 48.10
7198 29.1966 2115.00 2052.86 48.50
7199 29.2003 2038.70 2052.75 48.10
7200 29.2041 2099.00 2052.63 49.80
7201 29.2078 2079.60 2052.52 49.80
7202 29.2115 2044.80 2052.41 49.10
7203 29.2153 2055.10 2052.30 49.20
7204 29.2190 2111.70 2052.19 50.10
7205 29.2229 1985.50 2052.08 48.60
7206 29.2267 2052.70 2051.97 49.50
7207 29.2304 2063.40 2051.86 49.30
7208 29.2341 2028.70 2051.74 48.90
7209 29.2379 2052.40 2051.63 49.40
7210 29.2416 2063.60 2051.52 49.30
7211 29.2454 2010.70 2051.41 48.20
7212 29.2491 2077.10 2051.30 48.50
7213 29.2530 2002.60 2051.19 48.90
7214 29.2567 2132.20 2051.08 49.80
7215 29.2605 2129.10 2050.97 50.40
7216 29.2642 2085.90 2050.86 49.80
7217 29.2680 2085.80 2050.75 49.20
7218 29.2717 2074.50 2050.63 49.90
7219 29.2754 2174.60 2050.53 50.70
7220 29.2792 2111.60 2050.41 48.90
7221 29.2831 2098.00 2050.30 50.00
7222 29.2868 2060.30 2050.19 49.70
7223 29.2906 2092.60 2050.08 49.80
7224 29.2943 2123.80 2049.97 49.70
7225 29.2980 2133.80 2049.86 49.90
7226 29.3018 2158.30 2049.75 49.90
7227 29.3055 2089.20 2049.64 49.40
7228 29.3093 2110.90 2049.53 50.30
7229 29.3130 2103.40 2049.42 49.40
7230 29.3169 2160.50 2049.31 50.20
7231 29.3207 2051.90 2049.20 48.50
7232 29.3244 2071.00 2049.09 49.30
7233 29.3281 2049.10 2133.21 49.40
7234 29.3319 2136.00 2134.83 50.00
7235 29.3356 2020.00 2136.54 48.00
7236 29.3395 2137.30 2138.32 50.40
7237 29.3431 2120.30 2140.10 48.60
7238 29.3470 2053.20 2142.00 48.10
7239 29.3507 2099.70 2143.91 49.10
7240 29.3545 2145.10 2145.94 51.00
7241 29.3582 2046.80 2147.98 48.40
7242 29.3619 2178.80 2150.16 51.70
7243 29.3657 2188.00 2152.41 50.30
7244 29.3694 2150.40 2154.69 49.40
7245 29.3732 2135.60 2157.12 49.40
7246 29.3769 2192.20 2159.56 51.10
7247 29.3808 2104.70 2162.17 50.10
7248 29.3846 2237.60 2164.88 50.40
7249 29.3883 2044.60 2167.62 48.50
7250 29.3920 2165.60 2170.53 51.00
7251 29.3958 2141.60 2173.49 50.70
7252 29.3995 2205.10 2176.64 51.00
7253 29.4034 2232.10 2179.92 50.30
7254 29.4070 2224.90 2183.25 52.30
7255 29.4109 2157.70 2186.80 51.40
7256 29.4146 2178.20 2190.40 51.30
7257 29.4184 2257.20 2194.26 51.60
7258 29.4221 2210.80 2198.28 51.40
7259 29.4258 2205.50 2202.36 50.70
7260 29.4296 2238.40 2206.74 50.70
7261 29.4333 2184.60 2211.19 51.20
7262 29.4371 2155.90 2215.96 50.10
7263 29.4410 2234.70 2220.95 50.40
7264 29.4447 2271.10 2226.04 51.60
7265 29.4485 2235.70 2231.50 51.20
7266 29.4522 2223.00 2237.07 52.30
7267 29.4559 2325.50 2243.07 52.70
7268 29.4597 2298.90 2249.36 53.40
7269 29.4634 2366.70 2255.78 53.30
7270 29.4673 2407.10 2262.72 54.10
7271 29.4709 2330.30 2269.82 52.20
7272 29.4748 2341.50 2277.47 53.60
7273 29.4785 2339.50 2285.55 52.50
7274 29.4823 2309.80 2293.83 52.40
7275 29.4860 2320.40 2302.79 51.90
7276 29.4897 2348.20 2312.00 53.50
7277 29.4935 2376.60 2321.98 53.50
7278 29.4974 2400.90 2332.56 53.50
7279 29.5011 2381.40 2343.45 53.60
7280 29.5049 2482.00 2355.29 54.70
7281 29.5086 2446.40 2367.54 54.80
7282 29.5124 2451.00 2380.87 54.50
7283 29.5161 2535.00 2395.07 55.50
7284 29.5198 2578.20 2409.77 55.30
7285 29.5236 2498.60 2425.87 55.70
7286 29.5273 2543.80 2442.58 54.90
7287 29.5312 2579.60 2460.93 55.40
7288 29.5350 2541.30 2480.58 54.00
7289 29.5387 2512.60 2501.08 54.80
7290 29.5424 2627.90 2523.65 55.90
7291 29.5462 2545.50 2547.30 55.50
7292 29.5499 2638.40 2573.43 57.20
7293 29.5537 2622.60 2601.66 55.30
7294 29.5574 2803.40 2631.34 59.40
7295 29.5613 2794.70 2664.37 59.00
7296 29.5650 2827.10 2699.27 59.30
7297 29.5688 2817.30 2738.20 57.20
7298 29.5725 2865.60 2780.70 59.40
7299 29.5763 2821.00 2825.89 58.70
7300 29.5800 2957.70 2876.74 60.50
7301 29.5837 2985.10 2931.07 61.50
7302 29.5875 3082.90 2992.55 61.10
7303 29.5914 3154.50 3060.54 63.30
7304 29.5951 3131.50 3133.91 61.70
7305 29.5989 3273.40 3217.58 64.50
7306 29.6026 3434.50 3308.58 65.50
7307 29.6063 3521.30 3413.13 65.60
7308 29.6101 3775.80 3530.99 68.30
7309 29.6138 3670.40 3660.57 67.40
7310 29.6176 3964.70 3811.78 69.90
7311 29.6213 3965.20 3979.77 70.30
7312 29.6252 4359.20 4178.16 73.80
7313 29.6290 4456.10 4408.18 73.90
7314 29.6327 4968.90 4669.17 78.10
7315 29.6364 5165.70 4984.59 80.30
7316 29.6402 5534.20 5348.57 82.20
7317 29.6439 5878.40 5795.98 86.20
7318 29.6478 6830.00 6336.56 94.90
7319 29.6514 7149.20 6974.36 97.20
7320 29.6553 8112.80 7772.56 104.50
7321 29.6590 8889.90 8720.64 109.60
7322 29.6628 10109.60 9904.91 117.70
7323 29.6665 11206.40 11343.70 125.40
7324 29.6702 12851.20 13019.70 135.70
7325 29.6740 14452.80 15041.30 143.30
7326 29.6777 16816.60 17273.20 156.60
7327 29.6815 18517.20 19729.30 166.50
7328 29.6854 21074.70 22109.20 181.30
7329 29.6891 22738.80 23986.90 189.40
7330 29.6929 23951.50 25040.70 194.90
7331 29.6966 24093.80 24940.60 198.30
7332 29.7003 23713.10 23710.40 192.90
7333 29.7041 22125.70 21668.10 185.20
7334 29.7078 20154.60 19312.10 175.90
7335 29.7117 17407.80 16871.20 160.00
7336 29.7153 15064.50 14679.80 146.30
7337 29.7192 12794.50 12709.00 135.30
7338 29.7229 10766.40 11040.70 122.30
7339 29.7267 9058.00 9688.26 110.20
7340 29.7304 7950.20 8541.71 103.50
7341 29.7341 6680.20 7625.92 94.20
7342 29.7379 6245.40 6854.02 89.20
7343 29.7418 5469.00 6221.37 84.60
7344 29.7454 5322.10 5713.22 82.80
7345 29.7493 4777.50 5279.26 78.50
7346 29.7530 4439.30 4925.69 75.30
7347 29.7568 4181.40 4618.80 73.00
7348 29.7605 4068.40 4358.17 71.70
7349 29.7642 3843.90 4139.97 69.30
7350 29.7680 3855.30 3946.06 69.10
7351 29.7717 3429.80 3781.65 64.90
7352 29.7756 3416.70 3633.49 64.70
7353 29.7794 3332.30 3503.08 64.10
7354 29.7831 3234.20 3390.64 63.50
7355 29.7868 3091.30 3287.79 61.90
7356 29.7906 3119.70 3198.35 61.90
7357 29.7943 3054.00 3115.88 61.00
7358 29.7981 2918.60 3041.74 59.30
7359 29.8018 2904.40 2976.56 58.30
7360 29.8057 2814.40 2915.85 58.20
7361 29.8093 2855.90 2862.16 58.70
7362 29.8132 2796.30 2811.86 58.10
7363 29.8169 2717.00 2765.99 57.10
7364 29.8207 2684.70 2725.02 57.40
7365 29.8244 2544.50 2686.38 53.90
7366 29.8281 2653.80 2651.77 56.60
7367 29.8319 2587.80 2618.96 54.40
7368 29.8358 2584.80 2588.66 56.10
7369 29.8395 2484.10 2561.35 53.70
7370 29.8433 2544.20 2535.30 55.50
7371 29.8470 2495.80 2511.74 53.70
7372 29.8507 2488.90 2489.19 55.30
7373 29.8545 2426.90 2468.19 53.60
7374 29.8582 2468.20 2449.07 54.50
7375 29.8620 2450.40 2430.70 53.70
7376 29.8657 2362.90 2413.95 53.00
7377 29.8696 2364.20 2397.80 53.30
7378 29.8734 2389.40 2382.65 52.70
7379 29.8771 2357.30 2368.76 54.00
7380 29.8808 2443.00 2355.33 54.40
7381 29.8846 2379.10 2343.00 52.60
7382 29.8883 2445.10 2331.04 53.60
7383 29.8922 2309.30 2319.74 53.50
7384 29.8958 2390.50 2309.34 52.30
7385 29.8997 2232.00 2299.22 51.00
7386 29.9034 2405.70 2289.88 54.10
7387 29.9072 2219.20 2280.77 52.00
7388 29.9109 2250.90 2272.13 52.10
7389 29.9146 2272.70 2264.13 52.40
7390 29.9184 2301.70 2256.31 52.70
7391 29.9221 2264.40 2249.06 52.70
7392 29.9259 2295.10 2241.96 51.80
7393 29.9298 2209.60 2235.20 51.20
7394 29.9335 2261.90 2228.90 51.70
7395 29.9373 2185.90 2222.73 50.40
7396 29.9410 2188.60 2216.99 50.80
7397 29.9447 2135.30 2211.34 49.90
7398 29.9485 2226.50 2205.95 50.90
7399 29.9522 2148.60 2200.91 50.00
7400 29.9561 2238.70 2195.95 51.20
7401 29.9597 2275.10 2191.32 51.30
7402 29.9636 2181.00 2186.75 50.20
7403 29.9674 2193.00 2182.37 51.50
7404 29.9711 2221.80 2178.27 51.40
7405 29.9748 2116.80 2174.22 50.20
7406 29.9785 2125.10 2170.42 50.60
7407 29.9823 2180.70 2166.68 51.00
7408 29.9860 2157.80 2163.16 50.50
7409 29.9898 2150.30 2159.68 49.30
7410 29.9937 2152.90 2156.32 50.60
7411 29.9974 2079.90 2153.18 50.10
7412 30.0012 2156.40 2150.05 50.90
7413 30.0049 2080.10 2147.12 49.30
7414 30.0086 2159.30 2144.21 49.80
7415 30.0124 2155.50 2141.40 50.60
7416 30.0161 2075.10 2138.75 50.00
7417 30.0200 2026.60 2136.12 48.80
7418 30.0236 2173.60 2133.65 51.30
7419 30.0275 2136.90 2131.18 50.80
7420 30.0312 2174.40 2128.80 51.20
7421 30.0350 2099.80 2126.55 49.90
7422 30.0387 2066.60 2124.32 49.80
7423 30.0424 2085.70 2122.20 49.70
7424 30.0462 2106.20 2120.10 50.40
7425 30.0501 2135.40 2118.05 51.50
7426 30.0537 2099.80 2116.13 49.70
7427 30.0576 2066.00 2114.20 49.40
7428 30.0613 2185.10 2112.38 51.50
7429 30.0651 2118.20 2028.05 50.70
7430 30.0688 2022.00 2027.94 48.30
7431 30.0725 2004.40 2027.84 49.40
7432 30.0763 2093.90 2027.73 48.90
7433 30.0800 2139.20 2027.63 51.60
7434 30.0839 2026.80 2027.52 48.30
7435 30.0877 2091.60 2027.42 48.70
7436 30.0914 2131.40 2027.32 49.40
7437 30.0951 2133.90 2027.21 50.00
7438 30.0989 2112.00 2027.11 49.30
7439 30.1026 2065.50 2027.00 48.80
7440 30.1064 2073.60 2026.89 48.90
7441 30.1101 2105.90 2026.79 49.90
7442 30.1140 2057.80 2026.69 48.20
7443 30.1176 2026.30 2026.58 48.20
7444 30.1215 2057.60 2026.48 48.40
7445 30.1252 2005.30 2026.37 47.80
7446 30.1290 2007.90 2026.27 47.80
7447 30.1327 1945.00 2026.16 46.80
7448 30.1364 2112.90 2026.06 49.40
7449 30.1402 2030.50 2025.95 48.50
7450 30.1441 2092.70 2025.85 48.50
7451 30.1478 1950.20 2025.74 47.10
7452 30.1516 1995.80 2025.64 47.30
7453 30.1553 2051.40 2025.53 49.20
7454 30.1590 2094.10 2025.43 48.70
7455 30.1628 1996.70 2025.32 47.40
7456 30.1665 2009.90 2025.22 47.00
7457 30.1703 2067.90 2025.11 49.30
7458 30.1740 2088.50 2025.01 49.00
7459 30.1779 1920.60 2024.90 46.10
7460 30.1817 2061.00 2024.80 48.10
7461 30.1854 1992.30 2024.70 47.20
7462 30.1891 1995.10 2024.59 47.10
7463 30.1929 2092.60 2024.49 48.50
7464 30.1966 2058.60 2024.38 48.10
7465 30.2003 2012.90 2024.28 48.30
7466 30.2041 2012.10 2024.17 47.80
7467 30.2080 2017.40 2024.07 48.50
7468 30.2117 2033.30 2023.96 48.60
7469 30.2155 1949.60 2023.86 47.00
7470 30.2192 2048.70 2023.75 48.50
7471 30.2229 1954.10 2023.65 48.00
7472 30.2267 2064.00 2023.54 49.30
7473 30.2304 1969.20 2023.44 47.80
7474 30.2342 2054.50 2023.33 48.90
7475 30.2379 2028.10 2023.23 48.90
7476 30.2418 2081.40 2023.12 49.40
7477 30.2456 1903.10 2023.02 46.00
7478 30.2493 1997.80 2022.91 47.80
7479 30.2530 1957.00 2022.81 46.60
7480 30.2568 2053.50 2022.71 48.40
7481 30.2605 1973.80 2022.60 48.10
7482 30.2644 2068.90 2022.49 48.00
7483 30.2680 2011.70 2022.39 48.50
7484 30.2719 2098.40 2022.28 49.70
7485 30.2756 1963.20 2022.18 47.40
7486 30.2794 2014.90 2022.08 47.90
7487 30.2831 2040.20 2021.97 48.30
7488 30.2868 2047.00 2021.87 48.40
7489 30.2906 2012.00 2021.76 48.20
7490 30.2943 1972.10 2021.66 47.30
7491 30.2981 2005.40 2021.55 47.80
7492 30.3020 2032.50 2021.45 48.40
7493 30.3057 1978.50 2021.34 47.50
7494 30.3095 2022.30 2021.24 47.80
7495 30.3132 1929.80 2021.13 47.40
7496 30.3169 2028.30 2021.03 48.40
7497 30.3207 1941.70 2020.92 47.40
7498 30.3244 2050.20 2020.82 49.00
7499 30.3283 2021.60 2020.71 48.10
7500 30.3319 2037.30 2020.61 48.50
7501 30.3358 1917.50 2020.50 46.90
7502 30.3395 2017.00 2020.40 46.90
7503 30.3433 2005.20 2020.29 47.50
7504 30.3470 1914.30 2020.19 46.30
7505 30.3507 1917.90 2020.09 47.10
7506 30.3545 1938.90 2019.98 47.50
7507 30.3582 1919.40 2019.88 46.60
7508 30.3620 2010.60 2019.77 48.00
7509 30.3659 2004.60 2019.66 48.00
7510 30.3696 1957.50 2019.56 46.90
7511 30.3734 1929.50 2019.46 47.10
7512 30.3771 1940.60 2019.35 46.60
7513 30.3808 1982.20 2019.25 46.80
7514 30.3846 1887.60 2019.14 46.00
7515 30.3883 1872.90 2019.04 46.10
7516 30.3922 1892.00 2018.93 46.10
7517 30.3958 1916.80 2018.83 46.80
7518 30.3997 2005.60 2018.72 47.50
7519 30.4035 1980.60 2018.62 47.50
7520 30.4072 1986.80 2018.51 47.80
7521 30.4109 1979.40 2018.41 47.10
7522 30.4146 2043.20 2018.30 48.80
7523 30.4184 1873.10 2018.20 45.70
7524 30.4221 1990.10 2018.09 47.30
7525 30.4259 1914.60 2017.99 47.00
7526 30.4298 1977.90 2017.88 47.10
7527 30.4335 1915.50 2017.78 46.40
7528 30.4373 2001.70 2017.67 48.00
7529 30.4410 1962.70 2017.57 46.40
7530 30.4447 1930.50 2017.46 48.00
7531 30.4485 1976.30 2017.36 47.00
7532 30.4522 2049.40 2017.25 47.00
7533 30.4561 1955.90 2017.15 47.20
7534 30.4597 1950.80 2017.04 47.20
7535 30.4636 1976.80 2016.94 48.10
7536 30.4674 2000.10 2016.83 47.70
7537 30.4711 1933.60 2016.73 46.70
7538 30.4748 1994.90 2016.62 47.10
7539 30.4785 1917.90 2016.52 46.10
7540 30.4823 2029.70 2016.41 48.50
7541 30.4862 1988.90 2016.31 47.80
7542 30.4898 1944.90 2016.20 47.20
7543 30.4937 1952.00 2016.10 47.20
7544 30.4974 1991.10 2015.99 47.60
7545 30.5012 1908.40 2015.89 46.10
7546 30.5049 1894.70 2015.78 46.70
7547 30.5086 1945.90 2015.68 47.10
7548 30.5124 1963.10 2015.57 46.80
7549 30.5161 1885.40 2015.47 46.40
7550 30.5200 1965.60 2015.36 47.10
7551 30.5236 1993.20 2015.26 47.20
7552 30.5275 1879.40 2015.15 46.20
7553 30.5312 1926.90 2015.04 46.80
7554 30.5350 2024.00 2014.94 48.10
7555 30.5387 1903.10 2014.83 46.70
7556 30.5424 1964.30 2014.73 47.60
7557 30.5462 1941.20 2014.62 47.00
7558 30.5501 1982.00 2014.52 46.90
7559 30.5537 1948.40 2014.41 47.40
7560 30.5576 1961.80 2014.31 47.50
7561 30.5613 1862.60 2014.20 46.70
7562 30.5651 1961.80 2014.10 47.20
7563 30.5688 1882.00 2013.99 45.40
7564 30.5725 1952.30 2013.89 46.70
7565 30.5763 1972.20 2013.78 47.40
7566 30.5800 1962.80 2013.68 46.80
7567 30.5839 1935.00 2013.57 46.80
7568 30.5875 1934.10 2013.47 46.30
7569 30.5914 1928.50 2013.36 46.80
7570 30.5951 1924.60 2013.25 47.00
7571 30.5989 1950.10 2013.15 46.90
7572 30.6026 1937.10 2013.04 46.90
7573 30.6063 1957.10 2012.94 46.30
7574 30.6101 1992.60 2012.83 47.30
7575 30.6140 1981.80 2012.72 47.20
7576 30.6176 1960.40 2012.62 46.00
7577 30.6215 1933.10 2012.51 46.80
7578 30.6252 2000.50 2012.41 47.70
7579 30.6290 1984.90 2012.30 47.40
7580 30.6327 1933.60 2012.20 45.80
7581 30.6364 1962.70 2012.09 47.70
7582 30.6402 1914.40 2011.99 46.70
7583 30.6439 1950.20 2011.88 47.10
7584 30.6478 1932.50 2011.77 46.20
7585 30.6514 1971.90 2011.67 47.60
7586 30.6553 1978.50 2011.56 47.50
7587 30.6590 1994.60 2011.46 47.40
7588 30.6628 1984.90 2011.35 46.70
7589 30.6665 2017.10 2011.25 48.00
7590 30.6702 1927.60 2011.14 46.70
7591 30.6740 1865.00 2011.03 46.00
7592 30.6779 1968.20 2010.93 47.60
7593 30.6815 1898.70 2010.82 46.90
7594 30.6854 1943.80 2010.72 46.60
7595 30.6891 1959.20 2010.61 47.50
7596 30.6929 1940.50 2010.51 47.40
7597 30.6966 1918.70 2010.40 46.70
7598 30.7003 1947.90 2010.29 47.40
7599 30.7041 1946.00 2010.19 47.80
7600 30.7078 1954.40 2010.08 46.90
7601 30.7117 1871.40 2009.98 46.60
7602 30.7153 1917.90 2009.87 46.70
7603 30.7192 2047.80 2009.76 48.60
7604 30.7229 1928.50 2009.66 46.80
7605 30.7267 1987.60 2009.55 47.70
7606 30.7304 1999.20 2009.44 47.60
7607 30.7341 1971.90 2009.34 46.90
7608 30.7379 1917.40 2009.23 46.30
7609 30.7416 1916.40 2009.13 46.80
7610 30.7454 1948.20 2009.02 47.40
7611 30.7493 1886.50 2008.91 45.00
7612 30.7530 1985.00 2008.81 47.80
7613 30.7568 1928.30 2008.70 47.10
7614 30.7605 1971.40 2008.60 47.30
7615 30.7642 1971.10 2008.49 47.30
7616 30.7680 1883.90 2008.38 45.50
7617 30.7717 2025.80 2008.28 47.10
7618 30.7756 1992.90 2008.17 47.00
7619 30.7792 1892.70 2008.07 46.00
7620 30.7831 1977.60 2007.96 47.00
7621 30.7868 1988.90 2007.85 47.50
7622 30.7906 1921.00 2007.75 46.80
7623 30.7943 1959.40 2007.64 47.30
7624 30.7980 1909.60 2007.53 45.40
7625 30.8018 1898.50 2007.43 46.00
7626 30.8055 1993.20 2007.32 47.60
7627 30.8093 1961.90 2007.21 46.80
7628 30.8132 1873.40 2007.11 46.30
7629 30.8169 1992.40 2007.00 47.00
7630 30.8207 1943.50 2006.89 46.90
7631 30.8244 1948.10 2006.79 47.80
7632 30.8281 1921.70 2006.68 46.90
7633 30.8319 1931.90 2006.57 46.80
7634 30.8356 2042.50 2006.47 48.10
7635 30.8395 1997.80 2006.36 47.80
7636 30.8431 1928.30 2006.25 46.90
7637 30.8470 1946.70 2006.15 47.50
7638 30.8507 1947.90 2006.04 46.80
7639 30.8545 1945.70 2005.93 47.50
7640 30.8582 1915.80 2005.82 46.80
7641 30.8619 1912.50 2005.72 46.50
7642 30.8657 1983.30 2005.61 48.00
7643 30.8694 1937.50 2005.51 47.20
7644 30.8732 2005.40 2005.40 48.20
7645 30.8769 1893.50 2005.29 46.60
7646 30.8808 1928.60 2005.18 47.20
7647 30.8846 1892.20 2005.08 45.60
7648 30.8883 1917.80 2004.97 47.00
7649 30.8920 1879.20 2004.86 46.40
7650 30.8958 1978.70 2004.76 47.00
7651 30.8995 1980.20 2004.65 47.50
7652 30.9034 1898.20 2004.54 46.10
7653 30.9070 1895.30 2004.44 46.80
7654 30.9109 1902.80 2004.33 46.30
7655 30.9146 1952.50 2004.22 47.40
7656 30.9184 2008.00 2004.11 47.30
7657 30.9221 1902.50 2004.01 46.10
7658 30.9258 1906.60 2003.90 46.90
7659 30.9296 1937.60 2003.79 47.10
7660 30.9333 1940.10 2003.68 46.90
7661 30.9371 1887.40 2003.58 46.00
7662 30.9408 1993.40 2003.47 47.60
7663 30.9447 1915.70 2003.36 46.80
7664 30.9484 1938.50 2003.26 47.30
7665 30.9522 2000.70 2003.15 47.60
7666 30.9559 1970.40 2003.04 47.50
7667 30.9597 1896.70 2002.93 46.40
7668 30.9634 1951.90 2002.82 46.70
7669 30.9671 1936.00 2002.72 46.90
7670 30.9709 1989.20 2002.61 47.60
7671 30.9746 1904.50 2002.50 46.20
7672 30.9785 1918.60 2002.39 46.70
7673 30.9823 1883.70 2002.29 46.20
7674 30.9860 1965.90 2002.18 47.50
7675 30.9897 1892.70 2002.07 46.60
7676 30.9935 2009.10 2001.96 48.20
7677 30.9972 1933.50 2001.86 46.90
7678 31.0011 1942.20 2001.75 47.50
7679 31.0047 1925.70 2001.64 47.30
7680 31.0086 1974.90 2001.53 47.10
7681 31.0123 1929.90 2001.43 47.00
7682 31.0161 1899.90 2001.32 46.70
7683 31.0198 1869.60 2001.21 46.00
7684 31.0236 1914.30 2001.10 46.20
7685 31.0273 1911.10 2000.99 46.40
7686 31.0310 1983.80 2000.88 47.90
7687 31.0348 1865.60 2000.78 46.10
7688 31.0385 1962.90 2000.67 47.50
7689 31.0424 1910.60 2000.56 47.00
7690 31.0460 1964.80 2000.45 47.40
7691 31.0499 1883.30 2000.34 45.90
7692 31.0536 1953.00 2000.23 47.10
7693 31.0574 1920.10 2000.13 45.80
7694 31.0611 1889.70 2000.02 46.10
7695 31.0648 1886.70 1999.91 45.90
7696 31.0686 1932.20 1999.80 46.40
7697 31.0723 1950.80 1999.70 47.20
7698 31.0762 1939.30 1999.59 46.80
7699 31.0800 2079.90 1999.48 48.20
7700 31.0837 1916.80 1999.37 46.10
7701 31.0875 1951.30 1999.26 47.20
7702 31.0912 2010.70 1999.15 47.30
7703 31.0949 1994.10 1999.04 48.20
7704 31.0986 1992.90 1998.94 47.20
7705 31.1024 1897.40 1998.83 46.50
7706 31.1063 1985.60 1998.72 47.10
7707 31.1099 1972.20 1998.61 47.10
7708 31.1138 1901.60 1998.50 46.50
7709 31.1175 1873.70 1998.39 45.80
7710 31.1213 1969.50 1998.28 47.20
7711 31.1250 1997.60 1998.17 47.80
7712 31.1287 2000.40 1998.06 47.50
7713 31.1325 1843.50 1997.95 45.60
7714 31.1362 1977.10 1997.85 47.40
7715 31.1401 1953.60 1997.74 47.00
7716 31.1437 1942.20 1997.63 46.70
7717 31.1476 1951.60 1997.52 46.70
7718 31.1514 1936.20 1997.41 46.50
7719 31.1551 1927.00 1997.30 46.70
7720 31.1588 1908.50 1997.19 46.80
7721 31.1625 1950.70 1997.08 47.20
7722 31.1663 1982.80 1996.97 48.00
7723 31.1700 1965.70 1996.87 47.60
7724 31.1738 2005.30 1996.75 47.40
7725 31.1777 1923.10 1996.64 46.90
7726 31.1814 1912.70 1996.54 47.20
7727 31.1852 1952.00 1996.43 46.20
7728 31.1889 1896.00 1996.32 46.50
7729 31.1926 1889.40 1996.21 45.70
7730 31.1964 1949.00 1996.10 47.10
7731 31.2001 1966.10 1995.99 47.40
7732 31.2038 1946.90 1995.88 46.50
7733 31.2076 1895.60 1995.77 46.40
7734 31.2115 1987.60 1995.66 47.00
7735 31.2152 1940.40 1995.55 46.80
7736 31.2190 1945.70 1995.44 46.80
7737 31.2227 1855.40 1995.33 45.80
7738 31.2264 1954.60 1995.22 47.30
7739 31.2302 1916.80 1995.11 46.70
7740 31.2339 1999.90 1995.00 47.60
7741 31.2377 1958.60 1994.89 47.20
7742 31.2414 1937.00 1994.78 47.00
7743 31.2453 1938.80 1994.67 47.40
7744 31.2489 1829.00 1994.56 45.30
7745 31.2528 1954.80 1994.45 46.90
7746 31.2565 1924.40 1994.34 47.40
7747 31.2603 1894.80 1994.23 46.10
7748 31.2640 1965.90 1994.12 47.80
7749 31.2677 1878.40 1994.01 46.00
7750 31.2715 1945.40 1993.90 47.00
7751 31.2752 1961.10 1993.79 47.30
7752 31.2791 1856.30 1993.68 45.40
7753 31.2827 1853.60 1993.57 46.10
7754 31.2866 1840.90 1993.46 46.00
7755 31.2903 1930.30 1993.35 46.40
7756 31.2941 2017.60 1993.24 48.10
7757 31.2978 1950.60 1993.13 47.10
7758 31.3015 1918.90 1993.02 46.40
7759 31.3053 1863.10 1992.91 46.40
7760 31.3090 1985.80 1992.80 47.70
7761 31.3129 1883.40 1992.69 46.60
7762 31.3167 1991.70 1992.58 47.40
7763 31.3204 1908.40 1992.47 46.70
7764 31.3242 1952.50 1992.35 48.00
7765 31.3279 1853.00 1992.25 46.30
7766 31.3316 2007.20 1992.13 48.10
7767 31.3354 1883.40 1992.02 46.10
7768 31.3391 1931.50 1991.91 47.40
7769 31.3428 1913.90 1991.80 47.00
7770 31.3466 1933.70 1991.69 47.20
7771 31.3505 1878.60 1991.58 45.70
7772 31.3542 1953.50 1991.47 47.40
7773 31.3580 1904.20 1991.36 46.70
7774 31.3617 1944.50 1991.25 47.10
7775 31.3654 1909.00 1991.14 47.00
7776 31.3692 1981.90 1991.03 48.10
7777 31.3729 1874.60 1990.91 46.80
7778 31.3768 1977.80 1990.80 46.70
7779 31.3804 1938.00 1990.69 47.60
7780 31.3843 1942.10 1990.58 46.90
7781 31.3880 1921.60 1990.47 46.80
7782 31.3918 1942.10 1990.36 47.20
7783 31.3955 1838.30 1990.25 46.20
7784 31.3993 1865.60 1990.13 46.60
7785 31.4030 1972.20 1990.02 47.90
7786 31.4067 1974.60 1989.91 47.50
7787 31.4105 1916.70 1989.80 46.40
7788 31.4142 1981.60 1989.69 47.20
7789 31.4181 1922.10 1989.57 47.80
7790 31.4217 1923.30 1989.46 46.70
7791 31.4256 1950.10 1989.35 47.80
7792 31.4293 1934.10 1989.24 47.20
7793 31.4331 1910.30 1989.13 47.20
7794 31.4368 1923.40 1989.02 47.10
7795 31.4405 1949.20 1988.91 47.10
7796 31.4443 1925.90 1988.79 46.80
7797 31.4480 1974.10 1988.68 47.90
7798 31.4519 1928.80 1988.57 46.70
7799 31.4555 1899.10 1988.46 46.90
7800 31.4594 1976.80 1988.34 46.50
7801 31.4631 1917.10 1988.23 46.20
7802 31.4669 1931.90 1988.12 47.40
7803 31.4706 1880.40 1988.01 46.30
7804 31.4743 2039.60 1987.90 48.30
7805 31.4781 1922.90 1987.78 46.90
7806 31.4818 1960.60 1987.67 47.60
7807 31.4856 1900.30 1987.56 46.20
7808 31.4893 1972.60 1987.45 47.60
7809 31.4932 1929.80 1987.33 47.40
7810 31.4968 1986.40 1987.22 48.00
7811 31.5007 1868.70 1987.11 46.20
7812 31.5044 1894.20 1986.99 46.30
7813 31.5082 1942.10 1986.88 47.10
7814 31.5119 1901.70 1986.77 47.30
7815 31.5156 1865.80 1986.66 46.80
7816 31.5194 1976.10 1986.54 47.90
7817 31.5231 1914.20 1986.43 48.10
7818 31.5270 1936.40 1986.32 47.90
7819 31.5308 1961.00 1986.20 47.10
7820 31.5345 1955.40 1986.09 47.20
7821 31.5382 1901.10 1985.98 47.30
7822 31.5420 1981.40 1985.87 48.00
7823 31.5457 1935.60 1985.75 46.40
7824 31.5494 1910.70 1985.64 47.40
7825 31.5532 1944.30 1985.53 46.20
7826 31.5569 1956.00 1985.42 47.50
7827 31.5607 2053.40 1985.30 49.00
7828 31.5646 1897.20 1985.19 46.30
7829 31.5683 1975.00 1985.07 47.80
7830 31.5721 1979.70 1984.96 48.70
7831 31.5758 2006.90 1984.85 48.10
7832 31.5795 1926.60 1984.73 47.90
7833 31.5833 2022.00 1984.62 48.10
7834 31.5870 1898.80 1984.51 46.50
7835 31.5907 1838.10 1984.39 45.90
7836 31.5945 1985.20 1984.28 48.10
7837 31.5982 1895.70 1984.17 46.50
7838 31.6021 2030.20 1984.05 48.40
7839 31.6059 1902.60 1983.94 46.70
7840 31.6096 2044.40 1983.82 47.80
7841 31.6133 1946.20 1983.71 47.90
7842 31.6171 1930.50 1983.60 47.60
7843 31.6208 1994.60 1983.48 48.70
7844 31.6245 2027.20 1983.37 48.60
7845 31.6283 1955.40 1983.25 48.10
7846 31.6320 1995.20 1983.14 47.20
7847 31.6359 1896.90 1983.03 47.20
7848 31.6397 2011.20 1982.91 47.40
7849 31.6434 1802.00 1982.80 45.70
7850 31.6472 1881.90 1982.68 47.10
7851 31.6509 1869.10 1982.57 45.90
7852 31.6546 1921.00 1982.45 47.50
7853 31.6583 1889.70 1982.34 46.90
7854 31.6621 1954.60 1982.23 47.10
7855 31.6658 2025.00 1982.11 48.40
7856 31.6696 2036.70 1982.00 48.70
7857 31.6735 1913.70 1981.88 47.00
7858 31.6772 2002.40 1981.77 48.40
7859 31.6810 1934.60 1981.65 47.50
7860 31.6847 1989.70 1981.54 48.50
7861 31.6884 1913.90 1981.42 46.70
7862 31.6922 1974.30 1981.31 47.90
7863 31.6959 1936.70 1981.19 46.60
7864 31.6996 1985.80 1981.08 48.30
7865 31.7034 1932.10 1980.96 47.10
7866 31.7071 1978.70 1980.85 47.50
7867 31.7110 1906.40 1980.73 47.20
7868 31.7148 1976.30 1980.62 47.80
7869 31.7185 2007.60 1980.50 48.40
7870 31.7222 1927.60 1980.39 47.60
7871 31.7260 1930.10 1980.27 47.20
7872 31.7297 1974.60 1980.16 47.00
7873 31.7334 1962.20 1980.04 47.60
7874 31.7372 1976.70 1979.93 48.20
7875 31.7409 1987.70 1979.81 47.60
7876 31.7447 1926.20 1979.69 47.30
7877 31.7484 1980.90 1979.58 48.10
7878 31.7523 2012.70 1979.46 48.10
7879 31.7561 1903.50 1979.35 47.00
7880 31.7598 1921.30 1979.23 47.60
7881 31.7635 1994.60 1979.12 48.60
7882 31.7673 1937.80 1979.00 48.00
7883 31.7710 1896.60 1978.88 46.00
7884 31.7747 2008.00 1978.77 48.40
7885 31.7785 1935.50 1978.65 47.70
7886 31.7822 1982.60 1978.54 48.00
7887 31.7861 1965.50 1978.42 46.70
7888 31.7897 1961.90 1978.31 48.10
7889 31.7936 1947.40 1978.19 47.10
7890 31.7973 2015.90 1978.07 48.20
7891 31.8011 1894.70 1977.96 46.70
7892 31.8048 2008.60 1977.84 48.20
7893 31.8085 1968.90 1977.72 47.50
7894 31.8123 1895.40 1977.61 47.10
7895 31.8160 1954.00 1977.49 47.50
7896 31.8199 2028.90 1977.37 48.10
7897 31.8235 1962.60 1977.26 47.30
7898 31.8274 1944.60 1977.14 47.70
7899 31.8311 1916.50 1977.03 47.20
7900 31.8349 1989.70 1976.91 48.00
7901 31.8386 1906.00 1976.79 47.50
7902 31.8424 2048.80 1976.67 48.50
7903 31.8461 1958.40 1976.56 46.70
7904 31.8498 1985.70 1976.44 48.30
7905 31.8536 1979.70 1976.32 47.00
7906 31.8573 2035.40 1976.21 48.90
7907 31.8612 2050.60 1976.09 48.70
7908 31.8648 1981.70 1975.97 48.40
7909 31.8687 1990.30 1975.85 48.10
7910 31.8724 2002.70 1975.74 47.80
7911 31.8762 1912.70 1975.62 46.40
7912 31.8799 2001.00 1975.50 48.20
7913 31.8836 1986.70 1975.39 47.80
7914 31.8874 2045.80 1975.27 47.90
7915 31.8911 1996.40 1975.15 47.30
7916 31.8950 2113.80 1975.03 49.60
7917 31.8986 2083.10 1974.92 48.50
7918 31.9025 1975.10 1974.80 47.10
7919 31.9062 2020.90 1974.68 47.90
7920 31.9100 2014.70 1974.56 48.50
7921 31.9137 2046.70 1974.45 48.70
7922 31.9174 1916.10 1974.33 46.60
7923 31.9212 2003.40 1974.21 48.80
7924 31.9249 2039.60 1974.09 48.80
7925 31.9286 2049.10 1973.98 48.40
7926 31.9324 2042.30 1973.86 48.80
7927 31.9363 2019.40 1973.74 48.60
7928 31.9400 2021.90 1973.62 47.40
7929 31.9438 1985.80 1973.50 47.80
7930 31.9475 1986.70 1973.38 47.70
7931 31.9513 2008.70 1973.26 47.80
7932 31.9550 2064.20 1973.15 49.20
7933 31.9587 2036.10 1973.03 48.60
7934 31.9625 2121.80 1972.91 49.80
7935 31.9662 2006.30 1972.79 48.20
7936 31.9699 2090.00 1972.67 49.10
7937 31.9737 2026.90 1972.55 48.10
7938 31.9774 2100.80 1972.44 48.40
7939 31.9813 1957.90 1972.32 47.90
7940 31.9851 2037.60 1972.20 48.00
7941 31.9867 2080.30 1972.14 49.00
7942 31.9904 2090.00 1972.03 48.90
7943 31.9942 2057.60 1971.91 48.70
7944 31.9979 2086.60 2093.01 49.90
7945 32.0018 2157.80 2095.22 50.70
7946 32.0055 2044.10 2097.45 48.90
7947 32.0093 2050.30 2099.80 50.00
7948 32.0130 2034.70 2102.17 49.30
7949 32.0168 2102.40 2104.67 49.00
7950 32.0205 2147.60 2107.26 49.70
7951 32.0243 2163.30 2109.86 50.80
7952 32.0280 2075.20 2112.60 49.30
7953 32.0317 2042.20 2115.37 47.80
7954 32.0355 2113.10 2118.30 50.20
7955 32.0392 2095.50 2121.25 48.30
7956 32.0430 2132.10 2124.37 49.80
7957 32.0467 2143.80 2127.52 50.30
7958 32.0505 2233.10 2130.86 50.60
7959 32.0544 2213.50 2134.32 50.90
7960 32.0580 2165.50 2137.80 51.20
7961 32.0619 2071.60 2141.50 49.00
7962 32.0656 2269.10 2145.22 52.40
7963 32.0694 2110.60 2149.19 49.40
7964 32.0731 2126.10 2153.18 49.50
7965 32.0769 2071.70 2157.44 49.00
7966 32.0806 2180.40 2161.73 50.70
7967 32.0844 2179.70 2166.30 50.20
7968 32.0882 2157.90 2171.05 50.10
7969 32.0919 2137.80 2175.84 49.90
7970 32.0956 2197.80 2180.96 49.80
7971 32.0993 2166.60 2186.13 50.90
7972 32.1031 2148.00 2191.65 50.50
7973 32.1068 2161.50 2197.24 51.00
7974 32.1106 2190.90 2203.21 50.80
7975 32.1143 2184.90 2209.25 51.20
7976 32.1181 2258.30 2215.72 50.50
7977 32.1219 2185.50 2222.45 51.00
7978 32.1256 2188.20 2229.29 49.70
7979 32.1295 2214.10 2236.61 51.10
7980 32.1331 2287.30 2244.05 52.40
7981 32.1370 2324.30 2252.01 51.70
7982 32.1407 2353.20 2260.13 53.10
7983 32.1445 2294.90 2268.82 52.10
7984 32.1482 2336.50 2277.69 52.00
7985 32.1520 2323.10 2287.20 52.30
7986 32.1557 2347.90 2296.92 52.60
7987 32.1595 2343.50 2307.36 52.40
7988 32.1632 2265.50 2318.33 51.80
7989 32.1670 2387.00 2329.52 53.30
7990 32.1707 2329.10 2341.60 52.90
7991 32.1744 2402.20 2353.96 52.90
7992 32.1782 2349.80 2367.30 52.80
7993 32.1819 2413.80 2380.98 52.60
7994 32.1857 2422.80 2395.76 53.90
7995 32.1894 2421.00 2410.96 53.30
7996 32.1932 2549.40 2427.41 54.50
7997 32.1970 2479.40 2444.81 54.50
7998 32.2007 2517.50 2462.71 54.60
7999 32.2046 2531.30 2482.18 54.90
8000 32.2082 2585.40 2502.25 55.80
8001 32.2121 2637.90 2524.13 55.90
8002 32.2158 2608.50 2546.73 54.60
8003 32.2189 2677.90 2567.44 56.20
8004 32.2226 2670.50 2592.75 55.80
8005 32.2265 2600.20 2620.47 54.40
8006 32.2301 2816.10 2649.24 58.10
8007 32.2340 2708.60 2680.83 56.90
8008 32.2377 2904.50 2713.71 58.70
8009 32.2415 2809.00 2749.91 58.40
8010 32.2452 2944.60 2787.70 59.40
8011 32.2490 2923.30 2829.45 59.00
8012 32.2527 2973.10 2873.17 59.70
8013 32.2565 2967.60 2921.64 59.60
8014 32.2603 3065.30 2974.05 60.40
8015 32.2640 3139.10 3029.26 62.10
8016 32.2677 3122.60 3090.86 61.30
8017 32.2715 3182.80 3155.96 62.20
8018 32.2752 3188.90 3228.85 61.90
8019 32.2789 3341.50 3306.31 63.80
8020 32.2827 3459.40 3393.45 64.70
8021 32.2864 3503.40 3486.51 65.70
8022 32.2902 3686.30 3591.79 67.50
8023 32.2939 3729.90 3704.86 67.80
8024 32.2977 3873.90 3833.54 68.90
8025 32.3014 3840.60 3972.65 69.20
8026 32.3052 4199.70 4132.05 72.10
8027 32.3091 4270.90 4310.57 72.30
8028 32.3128 4623.30 4506.18 75.50
8029 32.3166 4812.50 4732.79 77.60
8030 32.3203 5031.10 4983.50 79.90
8031 32.3241 5270.10 5277.06 82.10
8032 32.3278 5949.70 5605.66 88.00
8033 32.3316 6293.60 5995.33 90.10
8034 32.3353 6811.10 6437.42 92.90
8035 32.3391 7462.40 6968.94 99.30
8036 32.3428 8177.40 7580.19 104.90
8037 32.3465 8691.10 8325.92 108.40
8038 32.3503 9955.50 9189.72 116.60
8039 32.3540 10895.70 10254.20 122.30
8040 32.3578 12305.70 11530.90 131.80
8041 32.3615 13556.00 13021.50 139.80
8042 32.3653 15508.80 14845.80 150.10
8043 32.3690 17265.60 16950.50 160.00
8044 32.3728 20117.10 19469.60 174.70
8045 32.3765 22374.30 22266.80 187.50
8046 32.3803 26051.20 25407.60 202.00
8047 32.3840 28647.60 28548.80 215.60
8048 32.3879 32537.30 31514.30 234.00
8049 32.3915 33965.80 33708.90 238.70
8050 32.3954 36395.80 34787.40 249.40
8051 32.3992 35702.50 34420.20 247.70
8052 32.4029 34747.40 32758.90 242.90
8053 32.4067 31806.30 30092.60 229.70
8054 32.4104 29467.60 27028.00 219.30
8055 32.4142 24983.60 23814.00 198.60
8056 32.4179 22044.10 20867.30 186.50
8057 32.4216 18087.70 18163.90 165.40
8058 32.4254 15173.40 15885.10 146.80
8059 32.4291 12664.30 13893.70 133.90
8060 32.4328 11024.50 12262.50 124.40
8061 32.4366 9168.80 10863.10 112.00
8062 32.4404 8124.70 9697.20 104.30
8063 32.4441 7055.00 8750.23 97.00
8064 32.4479 6566.00 7935.73 92.90
8065 32.4516 5892.40 7269.72 85.40
8066 32.4554 5760.20 6691.29 85.70
8067 32.4591 5118.70 6212.67 79.90
8068 32.4630 4882.90 5791.46 78.20
8069 32.4666 4622.60 5438.09 75.90
8070 32.4705 4304.40 5122.82 72.90
8071 32.4742 4198.10 4854.60 73.00
8072 32.4780 4091.10 4612.81 70.70
8073 32.4818 3621.40 4399.34 66.80
8074 32.4855 3826.70 4214.94 68.50
8075 32.4893 3531.20 4045.93 65.50
8076 32.4930 3516.20 3898.70 64.40
8077 32.4967 3311.30 3762.60 64.10
8078 32.5005 3256.10 3643.29 62.10
8079 32.5042 3269.10 3532.35 63.00
8080 32.5079 3145.00 3434.40 61.40
8081 32.5117 3043.20 3342.78 60.00
8082 32.5155 3091.90 3259.35 60.90
8083 32.5192 3025.40 3184.95 61.00
8084 32.5230 2983.40 3114.94 60.10
8085 32.5267 2841.00 3052.22 57.90
8086 32.5305 2945.30 2992.88 60.00
8087 32.5342 2814.10 2939.58 58.40
8088 32.5381 2845.50 2888.90 58.30
8089 32.5418 2778.90 2843.20 57.10
8090 32.5456 2729.00 2799.60 56.20
8091 32.5493 2619.60 2760.13 55.90
8092 32.5531 2741.90 2722.34 56.90
8093 32.5569 2619.60 2687.13 56.20
8094 32.5606 2656.30 2655.06 55.90
8095 32.5644 2480.00 2624.24 54.00
8096 32.5681 2590.30 2596.13 55.20
8097 32.5718 2556.70 2569.01 55.40
8098 32.5756 2507.40 2544.20 53.80
8099 32.5793 2474.10 2520.24 53.50
8100 32.5830 2570.90 2498.24 55.80
8101 32.5868 2409.40 2476.95 54.10
8102 32.5906 2459.20 2456.84 53.80
8103 32.5943 2456.50 2438.34 54.50
8104 32.5981 2487.10 2420.37 54.50
8105 32.6018 2325.60 2403.78 52.30
8106 32.6057 2419.00 2387.64 53.80
8107 32.6093 2358.20 2372.71 52.90
8108 32.6132 2365.30 2358.16 53.30
8109 32.6169 2423.80 2344.68 53.90
8110 32.6207 2328.50 2331.52 52.40
8111 32.6245 2278.80 2318.98 51.40
8112 32.6282 2387.80 2307.35 53.30
8113 32.6320 2282.30 2295.95 52.40
8114 32.6357 2359.90 2285.36 53.00
8115 32.6395 2270.60 2274.96 51.70
8116 32.6432 2326.50 2265.30 52.50
8117 32.6469 2248.70 2255.78 51.30
8118 32.6507 2231.40 2246.93 51.30
8119 32.6544 2286.40 2238.21 52.60
8120 32.6582 2319.70 2229.86 52.50
8121 32.6619 2283.50 2222.07 52.50
8122 32.6657 2287.20 2214.38 52.40
8123 32.6694 2194.40 2207.20 50.80
8124 32.6732 2254.80 2200.11 51.50
8125 32.6769 2229.60 2193.48 52.70
8126 32.6808 2287.80 2186.92 51.70
8127 32.6844 2201.20 2180.78 50.10
8128 32.6883 2275.60 2174.70 51.00
8129 32.6921 2084.70 2168.85 49.00
8130 32.6958 2181.00 2163.36 49.90
8131 32.6996 2126.40 2157.93 48.80
8132 32.7033 2252.10 2152.82 51.10
8133 32.7071 2100.90 2147.75 49.20
8134 32.7108 2186.20 2142.99 50.00
8135 32.7146 2045.70 2138.26 48.20
8136 32.7183 2133.50 2133.70 49.60
8137 32.7220 2137.60 2129.40 49.60
8138 32.7258 2174.80 2125.14 50.10
8139 32.7295 2046.50 2121.11 48.60
8140 32.7333 2158.30 2117.11 48.90
8141 32.7370 2107.90 2113.34 49.20
8142 32.7408 2121.40 2109.59 49.40
8143 32.7445 2072.90 2106.05 49.10
8144 32.7483 2244.10 2102.52 51.30
8145 32.7522 2114.00 2099.10 49.90
8146 32.7559 2086.50 2095.87 48.90
8147 32.7597 2064.00 2092.65 48.20
8148 32.7634 2156.10 2089.60 49.80
8149 32.7672 2082.10 2086.57 49.40
8150 32.7709 2192.40 2083.69 49.70
8151 32.7747 2040.30 2080.83 48.80
8152 32.7784 2108.30 2078.11 49.60
8153 32.7822 2049.40 2075.40 48.20
8154 32.7859 2190.60 2072.76 50.40
8155 32.7896 1983.90 2070.26 47.30
8156 32.7934 2076.60 2067.76 48.40
8157 32.7971 2059.10 1945.16 49.00
8158 32.8009 2126.00 1945.02 49.30
8159 32.8046 2059.70 1944.89 49.20
8160 32.8084 2068.20 1944.76 48.90
8161 32.8122 2068.80 1944.63 48.90
8162 32.8159 2089.80 1944.50 48.50
8163 32.8198 2010.70 1944.36 48.00
8164 32.8234 2110.80 1944.23 49.20
8165 32.8273 2053.90 1944.10 48.40
8166 32.8310 2141.00 1943.97 49.70
8167 32.8348 1989.80 1943.84 47.70
8168 32.8385 2070.50 1943.70 48.70
8169 32.8423 2066.20 1943.57 48.80
8170 32.8461 2057.40 1943.44 48.30
8171 32.8498 2074.60 1943.31 48.30
8172 32.8535 2046.00 1943.17 48.20
8173 32.8573 2071.40 1943.04 48.30
8174 32.8610 2125.20 1942.91 49.20
8175 32.8647 1934.10 1942.78 47.30
8176 32.8685 2025.80 1942.64 48.20
8177 32.8723 1983.00 1942.51 47.50
8178 32.8760 2067.40 1942.38 48.50
8179 32.8798 1943.50 1942.24 47.30
8180 32.8835 2040.90 1942.11 48.80
8181 32.8873 1966.90 1941.98 47.30
8182 32.8910 1979.80 1941.85 48.00
8183 32.8949 2010.90 1941.71 48.40
8184 32.8987 2038.10 1941.58 48.10
8185 32.9024 1938.80 1941.44 46.40
8186 32.9062 2033.30 1941.31 48.20
8187 32.9099 1986.90 1941.18 47.90
8188 32.9137 2058.10 1941.04 48.70
8189 32.9174 1983.00 1940.91 47.60
8190 32.9212 1997.40 1940.78 48.10
8191 32.9249 2072.00 1940.64 48.80
8192 32.9286 2036.30 1940.51 48.10
8193 32.9324 1892.20 1940.37 45.60
8194 32.9361 2009.50 1940.24 47.80
8195 32.9399 1947.60 1940.11 46.90
8196 32.9436 1983.80 1939.97 47.50
8197 32.9474 2004.00 1939.84 48.40
8198 32.9512 2051.70 1939.70 48.30
8199 32.9549 1976.60 1939.57 46.90
8200 32.9588 1972.80 1939.43 47.80
8201 32.9624 1993.40 1939.30 47.80
8202 32.9663 1947.00 1939.16 47.60
8203 32.9700 2066.60 1939.03 49.10
8204 32.9738 2030.60 1938.90 48.00
8205 32.9775 1992.50 1938.76 48.20
8206 32.9813 2081.80 1938.63 49.30
8207 32.9851 2057.10 1938.49 49.40
8208 32.9888 1959.70 1938.36 47.60
8209 32.9925 1969.90 1938.22 47.20
8210 32.9963 2039.60 1938.09 49.10
8211 33.0000 1967.60 1937.95 48.00
8212 33.0038 2029.60 1937.81 48.20
8213 33.0075 1961.30 1937.68 48.10
8214 33.0113 1984.30 1937.54 48.10
8215 33.0150 1956.40 1937.41 47.40
8216 33.0188 1968.30 1937.27 47.90
8217 33.0225 1988.40 1937.14 47.80
8218 33.0263 2005.90 1937.00 47.90
8219 33.0300 1905.10 1936.87 46.90
8220 33.0339 1999.50 1936.73 48.00
8221 33.0377 1993.30 1936.60 48.20
8222 33.0414 1987.40 1936.46 48.00
8223 33.0452 1993.20 1936.32 48.30
8224 33.0489 1977.90 1936.19 48.20
8225 33.0527 1946.60 1936.05 47.90
8226 33.0564 1980.00 1935.92 48.30
8227 33.0602 2016.10 1935.78 48.70
8228 33.0639 1948.10 1935.64 47.70
8229 33.0676 2035.90 1935.51 48.40
8230 33.0714 2011.70 1935.37 47.80
8231 33.0751 2021.20 1935.24 48.30
8232 33.0789 1985.00 1935.10 48.10
8233 33.0827 1990.90 1934.96 48.10
8234 33.0864 1933.20 1934.83 46.50
8235 33.0902 1944.10 1934.69 47.90
8236 33.0939 1976.90 1934.55 47.80
8237 33.0978 1960.80 1934.41 48.40
8238 33.1015 2007.40 1934.28 48.60
8239 33.1053 1954.50 1934.14 47.90
8240 33.1091 1907.90 1934.00 46.90
8241 33.1128 1912.10 1933.87 47.20
8242 33.1166 1988.00 1933.73 48.00
8243 33.1203 1862.20 1933.59 46.80
8244 33.1241 2037.40 1933.46 48.60
8245 33.1278 1897.00 1933.32 46.80
8246 33.1315 1908.50 1933.18 47.20
8247 33.1353 1861.30 1933.04 46.20
8248 33.1390 1960.70 1932.91 47.40
8249 33.1428 1956.20 1932.77 47.90
8250 33.1465 2013.10 1932.63 48.40
8251 33.1503 1925.90 1932.49 47.80
8252 33.1540 1892.20 1932.36 47.00
8253 33.1578 1844.40 1932.22 47.20
8254 33.1617 1978.10 1932.08 48.30
8255 33.1654 1890.40 1931.94 47.10
8256 33.1692 2022.90 1931.80 48.10
8257 33.1729 1948.00 1931.67 47.70
8258 33.1767 1924.70 1931.53 46.10
8259 33.1804 1964.60 1931.39 47.80
8260 33.1842 1957.20 1931.25 47.70
8261 33.1880 1878.10 1931.11 47.30
8262 33.1917 1952.70 1930.97 47.50
8263 33.1954 1870.40 1930.83 46.90
8264 33.1992 1907.00 1930.70 47.30
8265 33.2029 1905.20 1930.56 47.40
8266 33.2067 1952.50 1930.42 46.50
8267 33.2104 1887.40 1930.28 46.00
8268 33.2142 1995.70 1930.14 48.20
8269 33.2179 1892.30 1930.00 46.70
8270 33.2217 1964.00 1929.86 47.30
8271 33.2254 1906.50 1929.73 47.20
8272 33.2293 1996.70 1929.58 47.30
8273 33.2331 1886.80 1929.44 46.90
8274 33.2368 1962.30 1929.31 48.50
8275 33.2406 1866.10 1929.17 46.40
8276 33.2443 1963.00 1929.03 47.90
8277 33.2481 1909.10 1928.89 47.30
8278 33.2518 1975.20 1928.75 47.80
8279 33.2556 1884.80 1928.61 46.70
8280 33.2593 1911.30 1928.47 47.00
8281 33.2631 1919.20 1928.33 47.20
8282 33.2668 1952.50 1928.19 47.90
8283 33.2705 1920.00 1928.05 46.80
8284 33.2743 1887.90 1927.91 46.50
8285 33.2781 1975.50 1927.77 48.30
8286 33.2818 1876.70 1927.63 45.60
8287 33.2856 1889.60 1927.49 47.20
8288 33.2893 1972.10 1927.35 47.40
8289 33.2932 1831.30 1927.21 45.90
8290 33.2968 1868.00 1927.07 46.60
8291 33.3007 1847.10 1926.93 46.10
8292 33.3045 1983.60 1926.79 48.30
8293 33.3082 1907.40 1926.65 47.20
8294 33.3120 1909.20 1926.51 47.20
8295 33.3157 1871.10 1926.37 46.80
8296 33.3195 1903.80 1926.23 47.20
8297 33.3232 1954.70 1926.08 47.90
8298 33.3270 1953.80 1925.94 47.50
8299 33.3307 1886.70 1925.80 46.90
8300 33.3344 1925.40 1925.66 47.20
8301 33.3382 2006.40 1925.52 49.20
8302 33.3419 1877.20 1925.38 46.10
8303 33.3457 1827.60 1925.24 45.90
8304 33.3495 1957.40 1925.10 47.70
8305 33.3532 1856.70 1924.96 46.60
8306 33.3571 1941.80 1924.81 47.30
8307 33.3607 1901.60 1924.67 47.10
8308 33.3646 1903.70 1924.53 47.10
8309 33.3683 1911.20 1924.39 46.90
8310 33.3721 1967.70 1924.25 47.80
8311 33.3759 1889.40 1924.10 46.80
8312 33.3796 1926.60 1923.97 47.30
8313 33.3834 1841.50 1923.82 46.00
8314 33.3871 1969.20 1923.68 47.70
8315 33.3909 1894.30 1923.54 46.90
8316 33.3946 1899.90 1923.39 47.30
8317 33.3983 1861.50 1923.25 46.10
8318 33.4021 2001.50 1923.11 48.70
8319 33.4058 1905.50 1922.97 47.20
8320 33.4096 1848.70 1922.83 46.60
8321 33.4134 1874.70 1922.68 46.90
8322 33.4171 1972.50 1922.54 47.60
8323 33.4210 1939.90 1922.40 47.80
8324 33.4246 1855.20 1922.26 46.50
8325 33.4285 1889.00 1922.11 46.80
8326 33.4322 1880.30 1921.97 46.50
8327 33.4360 1811.30 1921.83 46.00
8328 33.4398 1918.30 1921.68 47.40
8329 33.4435 1900.00 1921.54 47.10
8330 33.4473 1932.80 1921.40 47.40
8331 33.4510 1916.30 1921.26 47.30
8332 33.4548 1933.80 1921.11 48.00
8333 33.4585 1868.40 1920.97 46.70
8334 33.4622 2015.40 1920.83 49.00
8335 33.4660 1851.10 1920.68 46.60
8336 33.4697 1849.50 1920.54 46.00
8337 33.4735 1906.80 1920.40 47.20
8338 33.4772 1913.60 1920.26 46.90
8339 33.4810 1892.80 1920.11 47.10
8340 33.4849 1911.10 1919.96 46.60
8341 33.4885 1936.80 1919.82 47.80
8342 33.4924 1974.10 1919.68 48.00
8343 33.4961 1911.90 1919.54 46.80
8344 33.4999 1927.90 1919.39 47.30
8345 33.5037 1862.50 1919.25 46.60
8346 33.5074 1949.70 1941.45 47.50
8347 33.5112 1911.40 1941.71 47.80
8348 33.5149 1952.10 1941.98 47.50
8349 33.5187 1870.20 1942.27 46.60
8350 33.5224 2020.40 1942.56 48.50
8351 33.5261 1940.90 1942.88 47.70
8352 33.5299 1884.80 1943.20 47.30
8353 33.5336 1926.50 1943.53 47.30
8354 33.5374 1899.80 1943.89 46.70
8355 33.5411 1939.50 1944.25 48.10
8356 33.5449 1971.00 1944.63 48.30
8357 33.5488 1925.80 1945.03 46.90
8358 33.5524 1968.90 1945.43 47.70
8359 33.5563 1835.20 1945.87 46.70
8360 33.5600 2039.90 1946.31 48.70
8361 33.5638 1852.30 1946.78 46.70
8362 33.5676 2028.40 1947.26 48.40
8363 33.5713 1834.80 1947.76 46.20
8364 33.5751 1950.40 1948.29 47.80
8365 33.5788 1928.40 1948.83 47.60
8366 33.5826 1954.90 1949.40 48.10
8367 33.5863 1823.90 1949.99 45.90
8368 33.5900 1901.90 1950.61 46.80
8369 33.5938 1938.10 1951.26 46.80
8370 33.5975 1970.00 1951.92 48.40
8371 33.6013 1905.30 1952.62 47.40
8372 33.6050 1949.80 1953.34 47.80
8373 33.6088 1886.70 1954.11 46.90
8374 33.6127 1944.80 1954.91 47.90
8375 33.6163 1952.30 1955.72 48.00
8376 33.6202 1924.00 1956.59 47.40
8377 33.6239 1892.30 1957.48 46.90
8378 33.6277 1946.20 1958.43 48.10
8379 33.6315 1941.80 1959.42 47.60
8380 33.6352 1935.80 1960.42 47.60
8381 33.6390 1979.70 1961.51 49.50
8382 33.6427 2041.90 1962.61 46.60
8383 33.6465 1928.20 1963.79 45.10
8384 33.6502 2026.50 1964.99 46.90
8385 33.6539 1849.30 1966.28 44.90
8386 33.6577 1940.80 1967.64 45.90
8387 33.6614 1918.40 1969.02 45.10
8388 33.6652 1966.70 1970.50 45.80
8389 33.6689 1950.60 1972.02 45.60
8390 33.6727 1963.70 1973.65 46.10
8391 33.6766 1807.00 1975.36 43.80
8392 33.6802 1979.50 1977.11 46.30
8393 33.6841 1976.00 1979.00 46.20
8394 33.6878 1941.80 1980.94 46.00
8395 33.6916 1977.00 1983.02 46.00
8396 33.6954 2000.30 1985.22 46.60
8397 33.6991 1907.90 1987.47 45.40
8398 33.7029 1912.70 1989.90 45.40
8399 33.7066 1976.40 1992.41 46.50
8400 33.7104 1904.20 1995.12 45.30
8401 33.7141 1931.60 1997.98 45.50
8402 33.7178 1969.70 2000.92 46.30
8403 33.7216 1904.30 2004.12 45.40
8404 33.7253 2016.70 2007.41 46.90
8405 33.7291 1987.30 2011.00 46.80
8406 33.7329 2038.20 2014.80 47.00
8407 33.7366 2004.30 2018.73 46.80
8408 33.7405 2006.10 2023.02 46.80
8409 33.7441 2030.20 2027.46 47.00
8410 33.7480 2052.20 2032.31 47.60
8411 33.7517 2005.80 2037.35 46.80
8412 33.7555 2024.20 2042.87 47.20
8413 33.7593 2031.60 2048.76 47.00
8414 33.7630 2037.10 2054.91 47.30
8415 33.7668 1977.20 2061.67 46.60
8416 33.7705 2050.10 2068.74 47.50
8417 33.7743 2068.20 2076.54 47.40
8418 33.7780 1987.00 2084.93 46.60
8419 33.7817 2101.30 2093.74 47.70
8420 33.7855 2170.10 2103.50 48.80
8421 33.7892 2069.00 2113.78 48.00
8422 33.7930 2132.30 2125.23 48.20
8423 33.7968 2090.10 2137.67 47.60
8424 33.8005 2150.40 2150.84 48.70
8425 33.8044 2008.20 2165.60 46.30
8426 33.8080 2137.90 2181.29 48.60
8427 33.8119 2114.10 2198.96 48.20
8428 33.8157 2172.60 2218.37 48.70
8429 33.8194 2217.80 2239.21 49.20
8430 33.8232 2205.10 2262.82 49.20
8431 33.8269 2217.10 2288.32 49.30
8432 33.8307 2334.20 2317.40 50.80
8433 33.8344 2271.70 2349.01 49.60
8434 33.8382 2381.20 2385.37 50.90
8435 33.8419 2409.70 2426.32 51.50
8436 33.8456 2384.90 2471.34 51.60
8437 33.8494 2407.90 2523.88 51.10
8438 33.8531 2486.40 2582.32 52.50
8439 33.8569 2567.60 2651.16 52.70
8440 33.8607 2625.80 2730.94 53.70
8441 33.8644 2647.80 2821.21 54.20
8442 33.8683 2877.60 2929.72 56.90
8443 33.8719 3012.40 3053.91 57.80
8444 33.8758 3232.00 3204.74 60.00
8445 33.8796 3370.30 3383.83 61.60
8446 33.8833 3547.30 3591.26 63.60
8447 33.8871 3761.20 3844.14 65.60
8448 33.8908 4147.70 4136.42 69.20
8449 33.8946 4267.10 4489.99 70.20
8450 33.8983 4744.90 4904.28 74.20
8451 33.9021 5165.30 5366.30 77.60
8452 33.9058 5779.70 5895.66 82.80
8453 33.9095 6090.30 6444.84 85.40
8454 33.9133 6753.00 7002.08 90.50
8455 33.9171 7221.10 7489.14 92.60
8456 33.9208 7714.90 7819.55 98.40
8457 33.9246 7786.10 7943.94 97.00
8458 33.9283 8053.70 7828.80 99.80
8459 33.9322 7586.10 7494.17 95.90
8460 33.9360 7413.80 7008.82 95.80
8461 33.9397 6653.90 6466.19 89.90
8462 33.9435 6254.80 5902.23 87.20
8463 33.9472 5635.10 5385.15 81.90
8464 33.9510 4962.50 4908.91 76.30
8465 33.9548 4458.40 4493.48 71.90
8466 33.9585 3989.70 4147.65 68.40
8467 33.9622 3563.80 3845.56 63.80
8468 33.9660 3425.20 3597.62 62.50
8469 33.9697 3076.70 3383.51 59.00
8470 33.9735 2884.20 3203.52 56.70
8471 33.9772 2768.90 3055.79 55.70
8472 33.9810 2686.50 2927.26 54.50
8473 33.9847 2557.20 2820.91 53.50
8474 33.9885 2537.90 2727.43 53.30
8475 33.9922 2467.70 2649.18 52.50
8476 33.9961 2497.40 2579.78 52.70
8477 33.9999 2346.80 2519.30 51.20
8478 34.0036 2344.70 2467.64 50.40
8479 34.0074 2247.10 2420.93 49.80
8480 34.0111 2274.40 2380.61 50.30
8481 34.0149 2208.50 2343.80 49.50
8482 34.0187 2237.30 2310.89 49.90
8483 34.0224 2230.70 2282.21 49.20
8484 34.0261 2192.30 2255.62 49.10
8485 34.0299 2060.50 2232.24 47.90
8486 34.0336 2169.30 2210.49 49.30
8487 34.0374 2127.30 2190.73 48.10
8488 34.0411 2074.60 2173.19 48.20
8489 34.0449 2097.80 2156.71 48.10
8490 34.0486 2134.30 2142.02 48.30
8491 34.0524 1955.80 2128.14 46.20
8492 34.0563 2076.10 2115.39 47.90
8493 34.0600 2047.20 2103.92 47.60
8494 34.0638 2074.40 2093.03 48.20
8495 34.0675 2040.60 2083.20 47.20
8496 34.0713 1986.20 2073.84 46.70
8497 34.0751 2032.00 2065.12 47.30
8498 34.0788 1977.10 2057.23 46.90
8499 34.0826 1936.30 2049.65 46.40
8500 34.0863 2071.80 2042.76 48.20
8501 34.0900 2007.10 2036.12 46.80
8502 34.0938 1911.60 2029.91 46.30
8503 34.0975 1908.60 2024.24 45.50
8504 34.1013 2044.10 2018.75 47.50
8505 34.1050 1936.10 2013.73 46.90
8506 34.1088 2001.50 2008.86 46.80
8507 34.1127 1963.60 2004.27 46.60
8508 34.1163 1987.10 2000.04 46.70
8509 34.1202 1988.00 1995.94 47.00
8510 34.1239 2005.00 1992.15 47.60
8511 34.1277 2017.90 1988.46 48.00
8512 34.1315 1936.60 1984.97 46.90
8513 34.1352 1928.00 1981.73 46.60
8514 34.1390 1965.50 1978.57 47.10
8515 34.1427 1889.40 1975.64 46.10
8516 34.1465 2024.90 1972.77 47.90
8517 34.1502 1910.70 1970.04 46.20
8518 34.1539 2015.10 1967.50 47.80
8519 34.1577 1958.80 1965.01 47.40
8520 34.1614 1983.20 1962.69 47.40
8521 34.1652 1910.10 1960.41 46.60
8522 34.1690 1920.80 1958.23 46.50
8523 34.1727 1905.60 1956.19 46.30
8524 34.1766 1985.50 1954.19 47.30
8525 34.1802 1866.20 1952.32 46.10
8526 34.1841 1969.90 1950.47 47.40
8527 34.1879 1968.30 1948.70 47.50
8528 34.1916 1927.50 1947.04 46.50
8529 34.1954 1977.00 1945.40 47.60
8530 34.1991 1948.30 1943.87 46.70
8531 34.2029 1923.60 1942.35 46.50
8532 34.2066 1911.70 1940.89 45.30
8533 34.2104 1922.80 1939.52 46.70
8534 34.2141 1925.70 1938.16 46.60
8535 34.2178 1849.20 1936.88 46.00
8536 34.2216 1959.00 1935.62 47.00
8537 34.2254 1870.70 1934.40 46.40
8538 34.2291 1939.20 1933.25 46.50
8539 34.2329 1885.60 1932.12 46.60
8540 34.2366 1906.90 1931.05 46.60
8541 34.2405 1832.20 1929.99 44.90
8542 34.2443 1959.50 1928.96 47.60
8543 34.2480 1866.80 1928.00 46.40
8544 34.2518 1943.20 1927.04 46.50
8545 34.2555 1898.70 1926.14 46.40
8546 34.2593 1812.30 1925.25 45.70
8547 34.2631 1877.30 1924.38 46.30
8548 34.2668 1930.20 1923.57 47.00
8549 34.2705 1868.50 1922.77 45.90
8550 34.2743 1895.20 1922.02 46.10
8551 34.2780 1858.60 1921.27 45.90
8552 34.2818 1936.70 1920.56 46.60
8553 34.2855 1857.70 1919.88 46.20
8554 34.2893 1841.10 1919.22 45.90
8555 34.2930 1832.40 1918.61 44.90
8556 34.2968 1854.80 1918.01 46.30
8557 34.3005 1854.20 1917.45 45.70
8558 34.3044 1900.90 1916.90 46.10
8559 34.3082 1807.00 1916.39 45.30
8560 34.3119 1882.60 1915.93 45.80
8561 34.3157 1905.60 1915.48 46.20
8562 34.3194 1917.30 1915.08 46.40
8563 34.3232 1858.60 1914.71 45.90
8564 34.3270 1871.80 1914.39 45.90
8565 34.3307 1846.50 1914.12 45.70
8566 34.3344 1981.20 1913.89 47.70
8567 34.3382 1881.10 1913.72 46.30
8568 34.3419 1873.30 1913.61 45.80
8569 34.3457 1859.70 1891.53 45.80
8570 34.3494 1884.80 1891.96 45.90
8571 34.3532 1887.40 1892.50 45.70
8572 34.3571 1905.50 1893.14 46.70
8573 34.3607 1901.50 1893.89 46.20
8574 34.3646 1894.90 1894.82 46.40
8575 34.3683 1885.20 1895.91 45.70
8576 34.3721 1894.30 1897.26 46.50
8577 34.3758 1830.80 1898.84 45.90
8578 34.3796 1908.10 1900.79 46.50
8579 34.3834 1868.60 1903.15 45.90
8580 34.3871 1894.30 1905.88 46.20
8581 34.3909 1802.40 1909.22 45.00
8582 34.3946 1894.70 1913.00 46.50
8583 34.3983 1822.00 1917.48 45.30
8584 34.4021 1877.20 1922.45 45.80
8585 34.4058 1875.60 1927.59 45.90
8586 34.4096 1888.30 1932.74 46.10
8587 34.4134 1876.80 1937.17 46.10
8588 34.4171 1946.20 1940.06 46.80
8589 34.4210 1885.50 1940.97 45.90
8590 34.4246 2053.30 1939.61 47.70
8591 34.4285 1903.80 1936.18 46.10
8592 34.4322 1963.60 1931.48 47.00
8593 34.4360 1894.20 1925.98 46.30
8594 34.4398 1900.90 1920.39 46.40
8595 34.4435 1798.50 1915.27 44.90
8596 34.4473 1914.90 1910.51 46.20
8597 34.4510 1838.80 1906.44 45.80
8598 34.4548 1909.40 1902.81 46.50
8599 34.4585 1843.80 1899.72 45.60
8600 34.4622 1822.30 1897.14 44.90
8601 34.4660 1817.80 1894.89 45.20
8602 34.4698 1869.60 1892.96 45.70
8603 34.4735 1839.40 1891.35 45.30
8604 34.4773 1935.90 1889.92 46.20
8605 34.4810 1814.00 1888.71 45.20
8606 34.4849 1837.10 1887.63 45.40
8607 34.4885 1826.50 1886.70 44.90
8608 34.4924 1907.40 1885.85 45.80
8609 34.4962 1787.00 1885.08 44.30
8610 34.4999 1812.20 1884.41 45.20
8611 34.5037 1842.10 1883.79 45.50
8612 34.5074 1905.30 1883.23 46.30
8613 34.5112 1727.30 1882.70 43.90
8614 34.5149 1913.10 1882.21 46.30
8615 34.5187 1835.00 1881.77 45.20
8616 34.5224 1819.80 1881.35 45.40
8617 34.5262 1812.80 1880.94 44.60
8618 34.5299 1863.10 1880.58 45.40
8619 34.5337 1823.70 1880.22 45.20
8620 34.5374 1862.50 1879.88 45.20
8621 34.5412 1743.00 1879.56 44.20
8622 34.5449 1972.20 1879.25 47.10
8623 34.5488 1737.70 1878.95 44.10
8624 34.5526 1841.70 1878.66 45.70
8625 34.5563 1864.30 1878.39 45.70
8626 34.5601 1877.80 1878.12 45.70
8627 34.5638 1779.20 1877.86 44.60
8628 34.5676 1844.30 1877.61 45.40
8629 34.5714 1801.30 1877.36 45.00
8630 34.5751 1894.70 1877.12 46.30
8631 34.5788 1748.70 1876.88 44.10
8632 34.5826 1839.40 1876.65 45.30
8633 34.5863 1860.00 1876.42 45.40
8634 34.5901 1953.50 1876.20 46.90
8635 34.5938 1793.90 1875.98 44.40
8636 34.5976 1890.50 1875.76 45.80
8637 34.6015 1854.10 1875.55 45.90
8638 34.6051 1904.80 1875.34 46.70
8639 34.6090 1693.40 1875.13 44.00
8640 34.6127 1967.50 1874.93 47.40
8641 34.6165 1793.40 1874.73 44.90
8642 34.6202 1898.40 1874.53 46.70
8643 34.6240 1760.30 1874.33 44.70
8644 34.6278 1850.50 1874.13 46.10
8645 34.6315 1799.70 1873.94 45.50
8646 34.6353 1854.90 1873.74 46.10
8647 34.6390 1776.30 1873.55 44.80
8648 34.6427 1840.60 1873.36 45.70
8649 34.6465 1830.80 1873.17 45.80
8650 34.6502 1789.20 1872.99 45.10
8651 34.6540 1803.70 1872.80 44.60
8652 34.6578 1938.40 1872.61 47.20
8653 34.6615 1828.10 1872.43 45.60
8654 34.6654 1809.80 1872.24 45.20
8655 34.6690 1842.10 1872.06 46.30
8656 34.6729 1903.80 1871.87 47.00
8657 34.6766 1787.80 1871.70 45.20
8658 34.6804 1889.60 1871.51 46.40
8659 34.6842 1824.60 1871.33 45.40
8660 34.6879 1916.20 1871.15 46.80
8661 34.6917 1853.70 1870.97 46.10
8662 34.6954 1846.50 1870.79 46.00
8663 34.6992 1851.70 1870.62 46.20
8664 34.7029 1913.40 1870.44 46.90
8665 34.7066 1810.60 1870.26 45.60
8666 34.7104 1855.30 1870.08 46.40
8667 34.7142 1754.60 1869.90 45.30
8668 34.7179 1801.70 1869.73 45.50
8669 34.7217 1864.20 1869.55 46.20
8670 34.7254 1798.90 1869.38 45.10
8671 34.7293 1853.80 1869.20 45.90
8672 34.7329 1897.20 1869.03 47.10
8673 34.7368 1875.20 1868.85 46.70
8674 34.7406 1846.10 1868.68 46.30
8675 34.7443 1783.50 1868.51 44.80
8676 34.7481 1865.90 1868.33 46.40
8677 34.7519 1840.80 1868.16 45.80
8678 34.7556 1841.20 1867.99 45.70
8679 34.7593 1859.10 1867.81 46.10
8680 34.7631 1935.40 1867.64 47.50
8681 34.7668 1796.10 1867.46 45.60
8682 34.7706 1887.10 1867.29 46.60
8683 34.7743 1808.70 1867.12 45.30
8684 34.7781 1749.00 1866.95 44.80
8685 34.7818 1858.30 1866.78 45.90
8686 34.7856 1834.90 1866.60 46.10
8687 34.7893 1743.50 1866.43 44.50
8688 34.7932 1835.60 1866.26 44.80
8689 34.7970 1822.80 1866.09 45.30
8690 34.8007 1825.80 1865.92 45.60
8691 34.8045 1781.10 1865.74 45.10
8692 34.8083 1809.00 1865.57 45.70
8693 34.8120 1845.50 1865.40 46.20
8694 34.8158 1830.40 1865.23 45.30
8695 34.8195 1793.90 1865.06 45.10
8696 34.8232 1807.90 1864.89 45.70
8697 34.8270 1861.60 1864.71 46.70
8698 34.8307 1841.00 1864.55 45.20
8699 34.8345 1800.40 1864.37 45.40
8700 34.8382 1770.30 1864.21 44.80
8701 34.8420 1742.60 1864.03 44.90
8702 34.8459 1858.00 1863.86 46.10
8703 34.8495 1711.50 1863.48 44.20
8704 34.8534 1835.20 1863.31 46.00
8705 34.8571 1793.30 1863.15 45.80
8706 34.8609 1934.50 1862.98 47.30
8707 34.8647 1810.40 1862.81 45.80
8708 34.8684 1774.50 1862.64 45.80
8709 34.8722 1803.40 1862.47 45.50
8710 34.8759 1857.60 1862.31 45.40
8711 34.8797 1732.30 1862.14 44.50
8712 34.8834 1758.00 1861.97 44.80
8713 34.8871 1731.70 1861.81 44.20
8714 34.8909 1855.00 1861.64 46.40
8715 34.8946 1785.30 1861.47 45.40
8716 34.8984 1844.40 1861.30 45.40
8717 34.9022 1856.00 1861.13 46.30
8718 34.9059 1780.40 1860.97 45.40
8719 34.9098 1743.40 1860.80 44.80
8720 34.9134 1741.30 1860.63 44.90
8721 34.9173 1747.40 1860.46 44.40
8722 34.9210 1839.90 1860.30 46.00
8723 34.9248 1777.90 1860.13 44.70
8724 34.9286 1806.60 1859.96 45.30
8725 34.9323 1837.00 1859.79 46.00
8726 34.9361 1744.60 1859.62 44.50
8727 34.9398 1782.40 1859.46 45.30
8728 34.9436 1840.80 1859.29 45.20
8729 34.9473 1818.70 1859.11 45.90
8730 34.9510 1873.90 1858.95 46.50
8731 34.9548 1824.50 1858.78 46.00
8732 34.9586 1804.50 1858.61 45.80
8733 34.9623 1688.20 1858.44 43.70
8734 34.9661 1765.30 1858.27 44.80
8735 34.9698 1776.90 1858.11 45.10
8736 34.9737 1781.10 1857.93 45.20
8737 34.9773 1832.80 1857.77 46.10
8738 34.9812 1777.60 1857.60 45.10
8739 34.9850 1774.00 1857.43 45.40
8740 34.9887 1796.20 1857.26 45.50
8741 34.9925 1776.30 1857.09 45.20
8742 34.9962 1790.20 1856.92 45.90
8743 35.0000 1824.80 1856.75 45.40
8744 35.0037 1766.80 1856.58 44.80
8745 35.0075 1735.10 1856.41 44.80
8746 35.0112 1740.90 1856.24 45.00
8747 35.0149 1825.60 1856.08 46.00
8748 35.0187 1914.50 1855.90 47.00
8749 35.0225 1793.30 1855.73 45.70
8750 35.0262 1783.20 1855.57 45.40
8751 35.0300 1837.60 1855.39 45.70
8752 35.0337 1827.60 1855.23 46.50
8753 35.0376 1794.60 1855.06 45.90
8754 35.0414 1837.00 1854.88 45.90
8755 35.0451 1721.80 1854.72 44.40
8756 35.0489 1808.10 1854.54 45.50
8757 35.0526 1821.40 1854.38 46.10
8758 35.0564 1782.80 1854.21 45.50
8759 35.0602 1757.00 1854.03 45.20
8760 35.0639 1792.80 1853.87 45.50
8761 35.0676 1829.80 1853.69 45.50
8762 35.0714 1821.30 1853.53 45.70
8763 35.0751 1764.20 1853.35 45.40
8764 35.0789 1801.30 1853.18 44.90
8765 35.0826 1769.80 1853.01 45.40
8766 35.0864 1779.20 1852.84 45.30
8767 35.0901 1802.40 1852.67 45.90
8768 35.0939 1786.30 1852.50 45.20
8769 35.0978 1801.50 1852.33 44.90
8770 35.1015 1756.20 1852.16 44.50
8771 35.1053 1795.40 1851.99 45.30
8772 35.1090 1811.80 1851.82 45.10
8773 35.1128 1754.40 1851.65 45.00
8774 35.1166 1816.50 1851.47 45.60
8775 35.1203 1757.30 1851.30 44.30
8776 35.1241 1849.70 1851.13 46.40
8777 35.1278 1775.10 1850.96 45.40
8778 35.1315 1815.60 1850.79 45.40
8779 35.1353 1759.00 1850.62 45.00
8780 35.1390 1893.00 1850.45 46.90
8781 35.1428 1743.30 1850.27 44.60
8782 35.1465 1811.60 1850.11 45.90
8783 35.1503 1722.50 1849.93 44.30
8784 35.1541 1808.90 1849.76 45.50
8785 35.1578 1748.20 1849.59 45.30
8786 35.1617 1831.80 1849.42 45.50
8787 35.1654 1724.20 1849.25 44.60
8788 35.1692 1785.30 1849.07 45.30
8789 35.1730 1750.30 1848.90 44.90
8790 35.1767 1779.90 1848.73 45.00
8791 35.1805 1745.00 1848.56 44.90
8792 35.1842 1843.70 1848.39 45.90
8793 35.1880 1786.00 1848.21 45.10
8794 35.1917 1832.60 1848.04 46.40
8795 35.1954 1843.80 1847.87 45.60
8796 35.1992 1834.00 1847.70 46.50
8797 35.2029 1815.10 1847.53 46.20
8798 35.2067 1845.60 1847.35 45.80
8799 35.2105 1886.30 1847.18 46.90
8800 35.2142 1865.50 1847.01 46.70
8801 35.2180 1821.70 1846.83 45.90
8802 35.2217 1840.20 1846.66 45.70
8803 35.2256 1751.70 1846.49 44.90
8804 35.2293 1848.80 1846.32 46.60
8805 35.2331 1769.10 1846.15 45.30
8806 35.2369 1781.00 1845.97 45.30
8807 35.2406 1789.70 1845.80 45.60
8808 35.2444 1841.10 1845.63 45.80
8809 35.2481 1729.10 1845.46 45.00
8810 35.2519 1826.60 1845.28 45.70
8811 35.2556 1762.50 1845.11 45.30
8812 35.2593 1897.10 1844.94 46.90
8813 35.2631 1752.20 1844.76 45.30
8814 35.2668 1818.40 1844.59 45.80
8815 35.2706 1812.60 1844.41 45.90
8816 35.2744 1841.70 1844.24 46.50
8817 35.2781 1774.10 1844.07 45.40
8818 35.2820 1881.00 1843.89 47.50
8819 35.2856 1797.90 1843.72 45.80
8820 35.2895 1822.90 1843.55 46.10
8821 35.2933 1758.80 1843.37 45.30
8822 35.2970 1859.10 1843.20 46.50
8823 35.3008 1826.30 1843.03 46.00
8824 35.3045 1790.40 1842.85 45.20
8825 35.3083 1835.40 1842.68 45.70
8826 35.3120 1869.80 1842.50 46.90
8827 35.3158 1865.30 1842.33 46.90
8828 35.3195 1860.30 1842.16 46.60
8829 35.3232 1757.40 1841.98 44.40
8830 35.3270 1733.80 1841.81 44.10
8831 35.3308 1816.10 1841.63 46.50
8832 35.3345 1776.60 1841.46 45.00
8833 35.3383 1729.40 1841.29 45.20
8834 35.3420 1803.70 1841.11 45.70
8835 35.3459 1806.20 1840.94 46.40
8836 35.3497 1840.60 1840.76 46.40
8837 35.3534 1801.80 1840.59 45.90
8838 35.3572 1751.80 1840.41 44.80
8839 35.3609 1744.70 1840.24 45.20
8840 35.3647 1834.90 1840.06 46.30
8841 35.3685 1762.10 1839.89 44.20
8842 35.3722 1806.50 1839.72 45.70
8843 35.3759 1766.20 1839.54 45.50
8844 35.3797 1833.80 1839.37 46.00
8845 35.3834 1789.00 1839.19 45.50
8846 35.3871 1812.50 1839.02 45.80
8847 35.3909 1758.70 1838.84 45.70
8848 35.3947 1874.70 1838.66 46.80
8849 35.3984 1754.90 1838.49 45.40
8850 35.4022 1782.40 1838.32 46.10
8851 35.4059 1795.20 1838.14 46.10
8852 35.4098 1747.70 1837.97 45.10
8853 35.4136 1822.20 1837.79 46.40
8854 35.4173 1933.00 1837.62 47.70
8855 35.4211 1782.20 1837.44 45.70
8856 35.4248 1722.90 1837.27 45.00
8857 35.4286 1800.90 1837.09 45.80
8858 35.4324 1780.40 1836.91 45.30
8859 35.4361 1706.20 1836.74 44.20
8860 35.4398 1829.70 1836.56 46.40
8861 35.4436 1777.50 1836.39 45.50
8862 35.4473 1809.10 1836.21 46.20
8863 35.4511 1812.40 1836.03 45.70
8864 35.4548 1752.00 1835.86 46.00
8865 35.4586 1752.10 1835.68 45.20
8866 35.4623 1737.00 1835.51 45.10
8867 35.4661 1778.70 1835.33 46.10
8868 35.4700 1811.60 1835.15 46.00
8869 35.4737 1774.20 1834.98 45.10
8870 35.4775 1833.20 1834.80 46.40
8871 35.4812 1704.80 1834.63 44.30
8872 35.4850 1766.60 1834.45 45.70
8873 35.4887 1736.70 1834.28 44.90
8874 35.4925 1877.00 1834.10 47.00
8875 35.4963 1743.70 1833.92 45.60
8876 35.5000 1852.50 1833.75 46.60
8877 35.5037 1728.10 1833.57 44.40
8878 35.5075 1783.70 1833.39 46.00
8879 35.5112 1732.40 1833.22 45.10
8880 35.5150 1883.70 1833.04 47.20
8881 35.5187 1700.00 1832.86 44.50
8882 35.5225 1808.90 1832.68 46.00
8883 35.5262 1790.60 1832.51 45.60
8884 35.5300 1780.10 1832.33 45.60
8885 35.5339 1828.70 1832.15 47.10
8886 35.5376 1868.10 1831.98 47.30
8887 35.5414 1833.70 1831.80 46.80
8888 35.5451 1759.30 1831.63 46.00
8889 35.5489 1758.60 1831.45 45.60
8890 35.5527 1938.30 1831.27 47.80
8891 35.5564 1755.50 1831.09 45.30
8892 35.5602 1824.40 1830.91 46.20
8893 35.5639 1749.20 1830.74 45.30
8894 35.5676 1845.20 1830.56 46.10
8895 35.5714 1785.70 1830.39 44.90
8896 35.5751 1832.10 1830.21 45.60
8897 35.5789 1775.40 1830.03 44.70
8898 35.5826 1759.90 1829.85 44.50
8899 35.5864 1756.30 1829.67 44.90
8900 35.5901 1835.30 1829.50 45.60
8901 35.5939 1777.70 1829.32 44.80
8902 35.5978 1846.30 1829.14 46.00
8903 35.6015 1752.70 1828.96 44.50
8904 35.6053 1841.10 1828.78 46.00
8905 35.6090 1795.40 1828.61 45.30
8906 35.6128 1845.20 1828.43 45.70
8907 35.6166 1765.40 1828.25 45.00
8908 35.6203 1836.20 1828.07 45.80
8909 35.6241 1773.80 1827.89 45.20
8910 35.6278 1832.10 1827.72 45.80
8911 35.6315 1829.80 1827.54 46.20
8912 35.6353 1786.60 1827.36 45.10
8913 35.6390 1717.70 1827.18 44.60
8914 35.6428 1817.00 1827.00 45.60
8915 35.6465 1770.80 1826.83 45.00
8916 35.6503 1736.40 1826.65 44.40
8917 35.6540 1731.60 1826.47 44.40
8918 35.6578 1848.10 1826.29 46.00
8919 35.6617 1780.70 1826.11 45.10
8920 35.6654 1803.60 1825.93 45.30
8921 35.6692 1722.30 1825.75 44.80
8922 35.6729 1906.60 1825.58 47.00
8923 35.6767 1754.30 1825.40 44.10
8924 35.6805 1872.90 1825.22 46.30
8925 35.6842 1718.60 1825.04 44.30
8926 35.6880 1826.80 1824.86 46.10
8927 35.6917 1783.20 1824.68 45.40
8928 35.6954 1787.00 1824.50 45.40
8929 35.6992 1801.50 1824.32 45.70
8930 35.7029 1793.90 1824.14 45.20
8931 35.7067 1747.80 1823.96 45.10
8932 35.7104 1777.80 1823.79 45.30
8933 35.7142 1757.30 1823.61 44.50
8934 35.7179 1814.30 1823.43 45.80
8935 35.7217 1769.30 1823.25 45.00
8936 35.7256 1805.60 1823.07 45.90
8937 35.7293 1758.40 1822.89 45.30
8938 35.7331 1799.80 1822.71 45.80
8939 35.7368 1791.20 1822.53 45.80
8940 35.7406 1826.20 1822.35 45.80
8941 35.7443 1822.40 1822.17 46.40
8942 35.7481 1751.20 1821.99 45.00
8943 35.7519 1777.10 1821.81 45.10
8944 35.7556 1859.00 1821.63 46.40
8945 35.7593 1780.40 1821.45 45.40
8946 35.7631 1814.10 1821.27 45.80
8947 35.7668 1817.50 1821.09 45.50
8948 35.7706 1809.40 1820.91 46.20
8949 35.7743 1709.80 1820.73 44.30
8950 35.7781 1738.90 1820.55 45.30
8951 35.7818 1793.00 1820.37 45.70
8952 35.7856 1776.70 1820.19 45.00
8953 35.7893 1770.90 1820.01 45.00
8954 35.7932 1789.70 1819.83 45.40
8955 35.7970 1714.60 1819.65 44.10
8956 35.8007 1856.80 1819.47 46.80
8957 35.8045 1836.60 1819.29 46.10
8958 35.8082 1734.60 1819.11 44.70
8959 35.8120 1775.90 1818.93 45.50
8960 35.8158 1815.70 1818.75 45.90
8961 35.8195 1694.90 1818.57 44.30
8962 35.8232 1847.50 1818.39 46.00
8963 35.8270 1764.40 1818.21 45.60
8964 35.8307 1789.70 1818.03 45.30
8965 35.8345 1730.40 1817.84 44.70
8966 35.8382 1738.90 1817.67 45.10
8967 35.8420 1737.80 1817.48 45.00
8968 35.8457 1762.10 1817.31 45.20
8969 35.8495 1724.10 1817.12 44.70
8970 35.8532 1733.70 1816.95 44.00
8971 35.8571 1819.80 1816.76 45.90
8972 35.8609 1816.10 1816.58 44.80
8973 35.8646 1742.20 1816.40 44.50
8974 35.8684 1741.90 1816.22 44.90
8975 35.8721 1725.90 1816.04 44.60
8976 35.8759 1743.10 1815.86 44.30
8977 35.8797 1777.10 1815.67 45.10
8978 35.8834 1776.90 1815.49 45.50
8979 35.8871 1732.10 1815.31 44.90
8980 35.8909 1860.60 1815.13 46.40
8981 35.8946 1677.70 1814.95 44.30
8982 35.8983 1768.80 1816.13 44.90
8983 35.9021 1767.50 1815.97 45.40
8984 35.9059 1764.40 1815.81 45.20
8985 35.9096 1648.90 1815.66 42.30
8986 35.9134 1784.50 1815.50 45.70
8987 35.9171 1719.80 1815.35 44.80
8988 35.9210 1804.70 1815.19 45.30
8989 35.9246 1787.20 1815.04 46.00
8990 35.9285 1847.40 1814.88 46.40
8991 35.9323 1726.90 1814.73 44.80
8992 35.9360 1758.20 1814.57 44.60
8993 35.9398 1787.50 1814.42 45.50
8994 35.9435 1740.00 1814.27 45.10
8995 35.9473 1704.00 1814.12 44.30
8996 35.9510 1768.70 1813.97 45.60
8997 35.9548 1718.80 1813.82 44.30
8998 35.9585 1800.70 1813.67 45.40
8999 35.9622 1787.80 1813.53 45.80
9000 35.9660 1788.00 1813.38 45.00
9001 35.9697 1683.60 1813.24 42.80
9002 35.9735 1710.80 1813.10 44.40
9003 35.9773 1827.70 1812.95 46.90
9004 35.9810 1839.20 1812.81 46.20
9005 35.9849 1741.70 1812.67 44.80
9006 35.9885 1781.90 1812.53 45.70
9007 35.9924 1710.20 1812.40 44.50
9008 35.9961 1719.20 1812.26 44.10
9009 35.9999 1770.10 1812.13 45.00
9010 36.0037 1859.00 1811.99 46.40
9011 36.0074 1718.70 1811.86 45.10
9012 36.0112 1828.20 1811.73 46.20
9013 36.0149 1815.80 1811.61 45.80
9014 36.0187 1793.00 1811.48 45.70
9015 36.0224 1722.90 1811.35 44.70
9016 36.0261 1747.70 1811.23 45.20
9017 36.0299 1833.80 1811.11 46.40
9018 36.0336 1804.10 1811.00 44.90
9019 36.0374 1753.90 1810.88 45.20
9020 36.0411 1849.90 1810.77 46.10
9021 36.0449 1709.60 1810.66 45.10
9022 36.0488 1788.20 1810.55 45.00
9023 36.0524 1743.30 1810.45 44.10
9024 36.0563 1802.20 1810.34 45.10
9025 36.0600 1747.40 1810.25 44.20
9026 36.0638 1830.30 1810.15 45.20
9027 36.0675 1776.20 1810.06 45.10
9028 36.0713 1768.80 1809.97 44.90
9029 36.0751 1642.90 1809.89 43.00
9030 36.0788 1814.70 1809.81 45.70
9031 36.0826 1750.60 1809.73 44.60
9032 36.0863 1721.00 1809.66 43.60
9033 36.0900 1702.00 1809.60 43.90
9034 36.0938 1764.90 1809.54 44.30
9035 36.0975 1703.50 1809.48 43.90
9036 36.1013 1780.90 1809.43 44.50
9037 36.1050 1723.00 1809.39 44.00
9038 36.1088 1771.80 1809.35 44.30
9039 36.1125 1751.80 1809.32 44.40
9040 36.1163 1764.90 1809.30 44.90
9041 36.1200 1765.10 1809.29 44.50
9042 36.1239 1795.70 1809.28 44.70
9043 36.1277 1776.90 1809.28 44.30
9044 36.1314 1748.90 1809.29 43.80
9045 36.1352 1742.30 1809.32 44.50
9046 36.1389 1835.80 1809.35 45.90
9047 36.1427 1715.50 1809.40 44.00
9048 36.1465 1885.40 1809.46 46.20
9049 36.1502 1807.20 1809.53 45.60
9050 36.1539 1785.10 1809.62 44.90
9051 36.1576 1781.30 1809.72 44.90
9052 36.1614 1854.60 1809.84 45.80
9053 36.1651 1739.60 1809.98 44.20
9054 36.1689 1793.20 1810.14 45.20
9055 36.1727 1818.90 1810.32 45.70
9056 36.1764 1780.30 1810.53 45.40
9057 36.1802 1751.90 1810.76 44.70
9058 36.1839 1826.80 1811.01 45.30
9059 36.1878 1807.00 1811.31 45.30
9060 36.1914 1775.30 1811.62 45.00
9061 36.1953 1763.50 1811.99 44.90
9062 36.1991 1798.10 1812.39 45.50
9063 36.2028 1814.70 1812.83 45.80
9064 36.2066 1809.10 1813.33 45.40
9065 36.2103 1831.90 1813.87 45.80
9066 36.2141 1783.90 1814.48 45.20
9067 36.2178 1777.30 1815.14 45.00
9068 36.2215 1853.20 1815.90 46.00
9069 36.2253 1800.10 1816.74 45.40
9070 36.2290 1869.20 1817.65 45.80
9071 36.2328 1836.90 1818.69 45.70
9072 36.2365 1868.40 1819.81 46.30
9073 36.2403 1794.10 1821.10 45.10
9074 36.2440 1829.40 1822.51 45.80
9075 36.2478 1831.20 1824.12 45.40
9076 36.2517 1824.00 1825.93 45.60
9077 36.2553 1765.20 1827.92 44.60
9078 36.2592 1800.00 1830.22 45.50
9079 36.2629 1744.90 1832.76 44.20
9080 36.2667 1856.30 1835.72 45.80
9081 36.2704 1877.80 1839.02 45.90
9082 36.2742 1920.00 1842.89 47.00
9083 36.2779 1791.40 1847.24 45.30
9084 36.2817 1929.40 1852.39 47.30
9085 36.2854 1795.00 1858.41 45.20
9086 36.2892 1976.40 1865.23 47.90
9087 36.2929 1878.10 1873.46 46.60
9088 36.2966 1941.10 1882.86 47.20
9089 36.3004 1850.50 1894.20 45.80
9090 36.3041 1952.50 1907.22 47.30
9091 36.3079 1973.30 1922.92 47.60
9092 36.3117 2011.00 1941.36 48.10
9093 36.3154 2009.50 1962.23 48.00
9094 36.3192 2108.60 1986.90 49.20
9095 36.3229 2050.80 2013.98 48.70
9096 36.3268 2166.40 2044.47 50.10
9097 36.3304 2121.20 2075.51 49.40
9098 36.3343 2265.50 2106.55 51.10
9099 36.3381 2249.10 2133.32 50.30
9100 36.3418 2309.10 2151.55 51.20
9101 36.3456 2309.10 2158.84 51.60
9102 36.3493 2246.40 2153.42 50.90
9103 36.3531 2203.10 2136.04 50.40
9104 36.3568 2258.00 2110.64 51.00
9105 36.3605 2153.70 2079.68 49.60
9106 36.3643 2137.50 2047.40 49.70
9107 36.3680 2038.40 2017.01 48.40
9108 36.3718 2116.50 1988.34 49.50
9109 36.3755 2034.50 1963.43 48.40
9110 36.3793 1930.80 1941.10 47.10
9111 36.3830 1854.70 1922.31 45.90
9112 36.3868 2023.00 1905.78 48.40
9113 36.3905 1859.70 1892.01 46.10
9114 36.3943 1863.50 1879.96 46.20
9115 36.3982 1848.20 1869.66 46.10
9116 36.4019 1776.30 1861.09 45.10
9117 36.4057 1855.70 1853.51 46.50
9118 36.4094 1866.80 1847.14 46.00
9119 36.4132 1790.10 1841.46 45.00
9120 36.4169 1792.60 1836.63 45.20
9121 36.4207 1800.00 1832.28 45.00
9122 36.4244 1842.30 1828.44 46.00
9123 36.4282 1768.30 1825.13 45.20
9124 36.4319 1761.40 1822.09 44.70
9125 36.4356 1766.00 1819.43 45.20
9126 36.4394 1849.90 1816.97 46.20
9127 36.4431 1748.90 1814.81 44.40
9128 36.4469 1812.60 1812.78 45.80
9129 36.4506 1769.80 1810.98 44.90
9130 36.4544 1736.10 1809.29 44.30
9131 36.4582 1668.10 1807.74 43.40
9132 36.4619 1763.80 1806.34 45.10
9133 36.4658 1747.20 1805.01 44.20
9134 36.4695 1789.60 1803.81 45.00
9135 36.4733 1726.20 1802.66 43.80
9136 36.4770 1722.80 1801.62 43.20
9137 36.4808 1821.00 1800.62 45.10
9138 36.4845 1790.90 1799.70 45.40
9139 36.4883 1736.30 1798.82 44.20
9140 36.4921 1719.40 1797.98 43.60
9141 36.4958 1735.20 1797.22 44.10
9142 36.4995 1900.00 1796.47 46.50
9143 36.5033 1755.50 1795.78 44.90
9144 36.5070 1743.40 1795.10 44.80
9145 36.5107 1765.70 1794.47 44.80
9146 36.5145 1756.60 1793.86 44.60
9147 36.5183 1665.20 1793.27 43.30
9148 36.5220 1792.90 1792.72 45.00
9149 36.5258 1743.50 1792.18 44.80
9150 36.5295 1877.30 1791.67 46.70
9151 36.5334 1731.40 1791.17 44.30
9152 36.5370 1716.50 1790.70 44.10
9153 36.5409 1746.00 1790.23 44.40
9154 36.5446 1794.40 1789.79 45.00
9155 36.5484 1728.90 1789.35 44.40
9156 36.5522 1829.80 1788.93 45.80
9157 36.5559 1737.60 1788.52 44.80
9158 36.5597 1784.30 1788.12 44.20
9159 36.5634 1741.60 1787.74 44.20
9160 36.5672 1774.50 1787.36 45.10
9161 36.5709 1641.20 1787.00 43.10
9162 36.5746 1803.30 1786.63 45.10
9163 36.5784 1756.70 1786.29 44.00
9164 36.5821 1802.70 1785.94 46.00
9165 36.5859 1743.30 1785.60 44.80
9166 36.5896 1763.70 1785.27 45.10
9167 36.5934 1758.00 1784.95 45.00
9168 36.5971 1774.40 1784.63 45.20
9169 36.6009 1735.10 1784.32 43.80
9170 36.6046 1769.70 1784.01 44.70
9171 36.6085 1735.50 1783.71 44.40
9172 36.6121 1733.90 1783.41 44.40
9173 36.6160 1690.00 1783.12 44.10
9174 36.6198 1777.30 1782.83 44.60
9175 36.6235 1705.90 1782.54 44.40
9176 36.6273 1793.50 1782.26 45.40
9177 36.6310 1734.80 1781.99 44.40
9178 36.6348 1784.80 1781.71 45.10
9179 36.6385 1686.10 1781.44 43.80
9180 36.6423 1816.60 1781.17 45.00
9181 36.6460 1712.10 1780.91 43.30
9182 36.6497 1799.70 1780.64 45.30
9183 36.6535 1694.50 1780.38 44.50
9184 36.6572 1745.20 1780.13 45.00
9185 36.6610 1717.80 1779.87 44.50
9186 36.6647 1814.50 1779.62 45.80
9187 36.6685 1713.40 1779.37 44.00
9188 36.6722 1830.10 1779.12 46.20
9189 36.6760 1767.10 1778.87 44.50
9190 36.6797 1776.80 1778.63 44.90
9191 36.6836 1689.50 1778.39 43.90
9192 36.6872 1703.50 1778.15 44.20
9193 36.6911 1767.20 1777.91 44.90
9194 36.6949 1741.40 1777.67 44.50
9195 36.6986 1695.80 1777.43 44.20
9196 36.7024 1770.90 1777.20 44.90
9197 36.7061 1719.00 1776.97 44.10
9198 36.7099 1776.60 1776.73 44.00
9199 36.7136 1680.00 1776.50 43.40
9200 36.7174 1819.90 1776.27 44.70
9201 36.7211 1680.80 1776.05 43.40
9202 36.7248 1751.00 1775.81 45.00
9203 36.7286 1659.40 1775.59 43.30
9204 36.7323 1795.70 1775.36 45.40
9205 36.7361 1689.70 1775.14 43.50
9206 36.7398 1723.80 1774.92 44.10
9207 36.7436 1681.40 1774.69 43.50
9208 36.7473 1753.10 1774.47 44.70
9209 36.7511 1721.60 1774.25 43.40
9210 36.7548 1705.90 1774.03 43.60
9211 36.7587 1757.40 1773.81 44.20
9212 36.7623 1775.10 1773.60 45.30
9213 36.7662 1670.60 1773.38 43.80
9214 36.7700 1807.00 1773.16 45.70
9215 36.7737 1784.70 1772.94 45.10
9216 36.7775 1721.10 1772.73 44.40
9217 36.7812 1728.50 1772.51 44.00
9218 36.7850 1789.50 1772.30 44.90
9219 36.7887 1686.90 1772.09 44.30
9220 36.7924 1799.00 1771.87 45.40
9221 36.7962 1740.20 1770.31 44.40
9222 36.7999 1754.20 1770.12 44.40
9223 36.8036 1723.70 1769.93 44.30
9224 36.8074 1785.10 1769.74 45.20
9225 36.8112 1722.70 1769.55 44.40
9226 36.8149 1769.80 1769.36 44.70
9227 36.8187 1750.50 1769.17 44.40
9228 36.8224 1791.60 1768.98 45.40
9229 36.8262 1708.70 1768.79 43.80
9230 36.8299 1783.70 1768.60 45.10
9231 36.8338 1689.70 1768.41 43.80
9232 36.8374 1777.70 1768.22 45.50
9233 36.8413 1665.90 1768.03 43.70
9234 36.8450 1738.20 1767.84 44.30
9235 36.8488 1714.40 1767.65 44.40
9236 36.8526 1767.10 1767.45 44.60
9237 36.8563 1763.70 1767.27 45.00
9238 36.8601 1753.90 1767.07 44.40
9239 36.8638 1700.20 1766.89 43.50
9240 36.8675 1863.20 1766.69 46.20
9241 36.8713 1728.40 1766.50 44.20
9242 36.8750 1795.30 1766.31 45.10
9243 36.8787 1789.20 1766.12 45.10
9244 36.8825 1835.80 1765.93 46.30
9245 36.8862 1752.30 1765.74 44.80
9246 36.8900 1797.00 1765.55 45.50
9247 36.8937 1771.70 1765.36 44.80
9248 36.8975 1790.40 1765.17 45.60
9249 36.9013 1737.30 1764.98 43.80
9250 36.9050 1805.40 1764.79 45.40
9251 36.9089 1740.20 1764.60 44.20
9252 36.9126 1821.80 1764.41 45.60
9253 36.9164 1739.40 1764.21 44.40
9254 36.9201 1642.70 1764.03 42.80
9255 36.9239 1701.10 1763.83 43.80
9256 36.9276 1839.30 1763.65 45.40
9257 36.9314 1800.80 1763.45 45.30
9258 36.9351 1759.80 1763.26 44.60
9259 36.9389 1707.40 1763.07 44.30
9260 36.9426 1758.30 1762.88 45.00
9261 36.9464 1673.60 1762.69 43.60
9262 36.9501 1720.80 1762.50 44.00
9263 36.9538 1699.80 1762.31 44.40
9264 36.9576 1728.70 1762.11 44.20
9265 36.9613 1741.80 1761.93 44.30
9266 36.9651 1834.50 1761.73 44.70
9267 36.9688 1757.50 1761.54 44.70
9268 36.9726 1793.00 1761.35 45.30
9269 36.9763 1760.70 1761.16 44.90
9270 36.9801 1703.40 1760.97 44.00
9271 36.9838 1720.80 1760.78 44.00
9272 36.9877 1834.60 1760.59 45.60
9273 36.9893 1745.00 1760.50 44.80
9274 36.9930 1816.30 1760.31 45.90
9275 36.9968 1716.20 1760.12 44.20
9276 37.0005 1801.40 1759.93 45.30
9277 37.0043 1772.50 1759.74 44.90
9278 37.0081 1734.80 1759.54 44.40
9279 37.0118 1751.20 1759.35 45.00
9280 37.0157 1849.80 1759.16 46.50
9281 37.0193 1648.60 1758.97 43.30
9282 37.0232 1690.80 1758.78 43.90
9283 37.0269 1676.60 1758.59 43.60
9284 37.0307 1757.40 1758.39 44.60
9285 37.0344 1735.40 1758.21 44.60
9286 37.0382 1772.00 1758.01 45.20
9287 37.0420 1677.70 1757.82 44.00
9288 37.0457 1668.10 1757.63 42.80
9289 37.0494 1833.60 1757.44 45.50
9290 37.0532 1725.60 1757.25 44.50
9291 37.0569 1744.90 1757.05 44.60
9292 37.0606 1746.40 1756.86 44.50
9293 37.0644 1653.20 1756.67 42.70
9294 37.0682 1751.50 1756.48 45.40
9295 37.0719 1764.20 1756.29 45.20
9296 37.0757 1793.00 1756.09 45.60
9297 37.0794 1743.30 1755.90 44.90
9298 37.0832 1755.80 1755.71 45.00
9299 37.0869 1753.60 1755.52 44.10
9300 37.0908 1750.60 1755.33 44.50
9301 37.0945 1722.90 1755.14 44.40
9302 37.0983 1765.80 1754.94 45.00
9303 37.1020 1766.90 1754.75 45.30
9304 37.1058 1797.10 1754.56 44.90
9305 37.1096 1839.40 1754.36 46.30
9306 37.1133 1759.80 1754.18 45.10
9307 37.1171 1744.50 1753.98 44.60
9308 37.1208 1784.60 1753.79 45.20
9309 37.1245 1749.10 1753.60 44.80
9310 37.1283 1680.60 1753.41 43.30
9311 37.1320 1754.70 1753.21 44.00
9312 37.1357 1794.60 1753.02 45.40
9313 37.1395 1717.40 1752.83 45.00
9314 37.1433 1752.90 1752.64 45.20
9315 37.1470 1726.30 1752.45 44.80
9316 37.1508 1767.40 1752.25 45.20
9317 37.1545 1752.00 1752.06 44.60
9318 37.1584 1773.30 1751.87 45.50
9319 37.1620 1751.10 1751.68 44.40
9320 37.1659 1783.60 1751.48 45.10
9321 37.1696 1699.90 1751.29 44.20
9322 37.1734 1795.40 1751.10 45.60
9323 37.1772 1687.90 1750.90 44.00
9324 37.1809 1799.50 1750.71 45.40
9325 37.1847 1703.10 1750.52 44.40
9326 37.1884 1832.30 1750.33 45.90
9327 37.1922 1654.20 1750.13 43.30
9328 37.1959 1817.30 1749.95 44.60
9329 37.1996 1687.40 1749.75 43.60
9330 37.2034 1788.30 1749.56 44.40
9331 37.2071 1806.80 1749.37 45.30
9332 37.2108 1865.00 1749.18 46.60
9333 37.2146 1766.20 1748.98 44.90
9334 37.2164 1762.00 1748.89 44.50
9335 37.2201 1720.10 1748.70 42.80
9336 37.2239 1731.70 1748.51 43.60
9337 37.2276 1808.80 1748.32 44.30
9338 37.2313 1729.80 1748.12 43.60
9339 37.2351 1810.70 1747.93 44.80
9340 37.2388 1812.30 1747.74 44.50
9341 37.2425 1758.70 1747.55 43.80
9342 37.2463 1760.90 1747.35 44.00
9343 37.2500 1793.00 1747.16 44.60
9344 37.2538 1736.70 1746.97 43.70
9345 37.2575 1796.60 1746.78 44.90
9346 37.2613 1744.80 1746.58 44.10
9347 37.2650 1772.40 1746.39 44.20
9348 37.2688 1738.30 1762.63 43.70
9349 37.2727 1767.90 1762.71 44.40
9350 37.2763 1789.90 1762.79 44.40
9351 37.2802 1741.90 1762.88 44.00
9352 37.2839 1681.90 1762.97 42.60
9353 37.2877 1775.40 1763.07 43.50
9354 37.2914 1757.80 1763.18 44.40
9355 37.2952 1804.40 1763.30 44.40
9356 37.2989 1767.50 1763.43 44.10
9357 37.3027 1761.80 1763.56 44.10
9358 37.3064 1692.60 1763.70 42.90
9359 37.3102 1813.60 1763.86 44.50
9360 37.3139 1752.50 1764.01 44.50
9361 37.3176 1803.80 1764.19 45.20
9362 37.3214 1715.70 1764.37 43.70
9363 37.3251 1780.30 1764.56 44.20
9364 37.3289 1709.10 1764.76 43.20
9365 37.3326 1792.60 1764.97 44.80
9366 37.3364 1776.20 1765.20 44.40
9367 37.3401 1796.70 1765.43 44.50
9368 37.3439 1757.10 1765.68 43.90
9369 37.3476 1795.50 1765.94 44.80
9370 37.3515 1720.20 1766.22 43.70
9371 37.3551 1737.60 1766.50 44.00
9372 37.3590 1712.80 1766.81 43.50
9373 37.3627 1771.10 1767.12 44.30
9374 37.3665 1751.80 1767.46 44.40
9375 37.3703 1786.70 1767.81 44.80
9376 37.3740 1717.70 1768.17 43.00
9377 37.3778 1830.30 1768.56 44.80
9378 37.3815 1704.70 1768.96 43.20
9379 37.3853 1772.30 1769.38 43.80
9380 37.3890 1693.60 1769.82 43.10
9381 37.3927 1839.20 1770.29 44.90
9382 37.3965 1872.10 1770.76 45.70
9383 37.4002 1837.00 1771.28 45.10
9384 37.4039 1754.70 1771.80 44.10
9385 37.4077 1788.70 1772.36 43.60
9386 37.4115 1762.40 1772.95 44.30
9387 37.4152 1806.60 1773.55 45.00
9388 37.4190 1839.30 1774.20 45.20
9389 37.4227 1803.20 1774.85 44.20
9390 37.4266 1682.40 1775.56 42.80
9391 37.4302 1845.00 1776.28 45.20
9392 37.4341 1829.40 1777.06 44.70
9393 37.4378 1735.70 1777.85 44.00
9394 37.4416 1835.60 1778.70 45.10
9395 37.4453 1776.70 1779.57 44.20
9396 37.4491 1770.50 1780.50 44.00
9397 37.4529 1826.50 1781.48 44.70
9398 37.4566 1811.50 1782.48 44.40
9399 37.4604 1841.00 1783.56 45.00
9400 37.4641 1837.20 1784.66 45.20
9401 37.4678 1783.10 1785.85 44.20
9402 37.4715 1791.50 1787.06 44.20
9403 37.4753 1906.30 1788.36 46.20
9404 37.4790 1793.30 1789.70 44.50
9405 37.4828 1753.70 1791.14 44.10
9406 37.4865 1841.50 1792.62 44.90
9407 37.4903 1835.20 1794.21 45.10
9408 37.4941 1793.70 1795.89 44.30
9409 37.4978 1790.60 1797.61 44.10
9410 37.5017 1881.40 1799.47 45.90
9411 37.5053 1794.50 1801.37 44.70
9412 37.5092 1726.00 1803.44 43.30
9413 37.5129 1799.50 1805.56 44.90
9414 37.5167 1786.20 1807.86 44.30
9415 37.5204 1833.60 1810.23 44.80
9416 37.5242 1706.80 1812.80 42.70
9417 37.5279 1828.70 1815.45 44.80
9418 37.5317 1804.60 1818.33 44.70
9419 37.5354 1842.70 1821.38 45.10
9420 37.5392 1857.60 1824.53 45.30
9421 37.5429 1880.00 1827.96 45.50
9422 37.5466 1875.40 1831.52 45.30
9423 37.5504 1851.00 1835.39 45.40
9424 37.5541 1820.50 1839.42 45.10
9425 37.5579 1888.10 1843.81 46.40
9426 37.5616 1888.70 1848.38 46.10
9427 37.5654 1880.20 1853.39 45.80
9428 37.5692 1903.20 1858.75 45.90
9429 37.5729 1864.60 1864.33 45.90
9430 37.5768 1849.40 1870.48 45.40
9431 37.5804 1892.30 1876.90 46.00
9432 37.5843 1862.80 1883.99 45.00
9433 37.5880 1965.10 1891.42 46.70
9434 37.5918 1888.20 1899.65 46.20
9435 37.5955 1982.70 1908.30 47.30
9436 37.5993 1924.40 1917.90 46.70
9437 37.6030 1942.70 1928.04 46.70
9438 37.6068 1917.20 1939.34 46.10
9439 37.6105 2087.80 1951.66 48.20
9440 37.6143 1861.20 1964.71 46.40
9441 37.6180 2087.90 1979.39 48.20
9442 37.6217 2001.40 1995.01 47.20
9443 37.6255 1993.60 2012.64 46.60
9444 37.6292 2022.70 2031.52 47.10
9445 37.6330 2111.00 2052.94 48.50
9446 37.6368 2062.20 2076.66 48.20
9447 37.6405 2061.20 2102.35 47.60
9448 37.6443 2243.60 2131.73 50.20
9449 37.6480 2237.40 2163.77 50.00
9450 37.6519 2204.60 2200.75 50.30
9451 37.6555 2401.00 2241.34 52.50
9452 37.6594 2339.40 2288.63 51.70
9453 37.6631 2394.80 2341.04 52.00
9454 37.6669 2590.30 2402.68 54.70
9455 37.6706 2602.30 2471.63 54.40
9456 37.6744 2752.60 2553.45 56.90
9457 37.6782 2917.60 2648.39 57.70
9458 37.6819 3036.90 2756.02 58.10
9459 37.6856 3026.20 2884.84 59.00
9460 37.6894 3212.40 3031.24 61.30
9461 37.6931 3453.50 3206.47 64.00
9462 37.6968 3449.10 3405.31 63.70
9463 37.7006 3884.90 3641.63 67.60
9464 37.7044 4152.50 3913.81 70.00
9465 37.7081 4672.20 4213.77 73.90
9466 37.7119 5022.90 4555.23 77.30
9467 37.7156 5496.30 4921.44 83.20
9468 37.7195 5668.90 5292.22 83.00
9469 37.7231 6178.10 5630.25 87.30
9470 37.7270 6372.20 5913.67 88.60
9471 37.7307 6824.80 6088.13 92.50
9472 37.7345 6623.90 6131.83 90.50
9473 37.7383 6726.20 6030.35 91.80
9474 37.7420 6247.30 5809.96 88.30
9475 37.7458 6187.10 5495.35 85.50
9476 37.7495 5658.50 5143.92 83.70
9477 37.7533 5320.00 4771.85 79.90
9478 37.7570 4589.00 4424.38 74.80
9479 37.7607 4352.10 4095.38 71.80
9480 37.7645 3750.70 3809.57 66.50
9481 37.7682 3590.90 3551.90 64.70
9482 37.7720 3169.10 3328.88 60.70
9483 37.7757 3097.50 3142.00 59.80
9484 37.7795 2745.60 2977.18 56.20
9485 37.7832 2754.80 2839.74 56.30
9486 37.7870 2470.30 2718.64 53.30
9487 37.7907 2508.50 2617.45 53.70
9488 37.7946 2332.70 2527.90 51.80
9489 37.7982 2248.10 2452.61 50.30
9490 37.8021 2202.70 2385.48 49.80
9491 37.8059 2121.30 2327.13 48.70
9492 37.8096 2165.80 2277.33 48.90
9493 37.8134 2194.30 2232.39 50.40
9494 37.8171 2065.00 2193.67 48.70
9495 37.8209 2176.10 2158.41 49.40
9496 37.8246 2011.90 2127.76 47.20
9497 37.8284 2008.80 2099.61 47.20
9498 37.8321 2023.70 2074.36 48.00
9499 37.8358 1989.00 2052.21 46.70
9500 37.8396 1933.20 2031.67 46.40
9501 37.8433 1870.30 2013.52 45.90
9502 37.8471 1936.10 1996.60 46.50
9503 37.8508 1988.70 1981.58 47.50
9504 37.8546 1933.10 1967.51 46.50
9505 37.8585 1947.10 1954.65 46.80
9506 37.8621 1975.70 1943.18 47.00
9507 37.8660 1931.40 1932.36 46.50
9508 37.8697 1898.50 1922.68 46.10
9509 37.8735 1925.20 1913.52 46.00
9510 37.8772 1917.10 1905.30 46.00
9511 37.8810 1974.40 1897.51 46.30
9512 37.8847 1886.20 1890.51 45.70
9513 37.8885 1880.50 1883.86 45.60
9514 37.8923 1845.20 1877.70 44.70
9515 37.8960 1797.10 1872.17 44.70
9516 37.8997 1760.10 1866.90 43.40
9517 37.9035 1944.90 1862.16 46.40
9518 37.9072 1844.00 1857.65 45.00
9519 37.9109 1877.80 1853.59 45.40
9520 37.9147 1892.60 1849.74 46.70
9521 37.9185 1913.00 1846.18 46.60
9522 37.9222 1897.20 1842.99 45.80
9523 37.9260 1919.10 1839.98 46.10
9524 37.9297 1907.20 1837.28 46.30
9525 37.9336 1913.80 1834.75 46.30
9526 37.9372 1811.00 1832.50 44.90
9527 37.9411 1888.60 1830.41 46.00
9528 37.9448 1844.20 1828.57 44.80
9529 37.9486 1878.70 1826.89 45.00
9530 37.9524 1829.10 1825.39 44.90
9531 37.9561 1866.50 1824.13 45.90
9532 37.9599 1760.50 1823.00 44.50
9533 37.9636 1865.20 1822.09 45.90
9534 37.9674 1800.90 1821.33 45.10
9535 37.9711 1815.90 1820.76 45.10
9536 37.9748 1821.90 1820.35 44.40
9537 37.9786 1852.70 1820.12 45.10
9538 37.9823 1834.60 1820.07 45.20
9539 37.9861 1842.50 1820.21 45.50
9540 37.9898 1782.70 1820.52 44.40
9541 37.9936 1890.80 1821.02 46.40
9542 37.9973 1821.70 1821.71 45.10
9543 38.0011 1905.20 1822.61 46.50
9544 38.0050 1861.40 1823.72 45.40
9545 38.0087 1840.30 1825.02 44.70
9546 38.0125 1903.20 1826.59 46.70
9547 38.0162 1851.30 1828.35 45.40
9548 38.0200 1839.60 1830.41 45.80
9549 38.0237 1899.50 1832.68 46.40
9550 38.0275 1859.10 1835.31 45.60
9551 38.0312 1887.30 1838.25 46.10
9552 38.0350 1789.40 1841.44 44.50
9553 38.0387 1941.20 1845.09 46.10
9554 38.0424 1942.30 1849.02 46.70
9555 38.0462 1922.20 1853.48 46.40
9556 38.0499 1880.50 1858.28 46.40
9557 38.0537 1930.40 1863.72 46.30
9558 38.0575 1884.20 1869.73 45.80
9559 38.0612 1983.60 1876.19 47.70
9560 38.0650 1870.40 1883.52 45.80
9561 38.0687 2039.50 1891.39 47.90
9562 38.0726 1901.60 1900.33 46.70
9563 38.0762 1970.80 1909.96 47.40
9564 38.0801 1984.30 1920.93 47.30
9565 38.0839 1916.80 1933.12 46.60
9566 38.0876 1952.00 1946.34 46.70
9567 38.0914 1995.70 1961.47 47.80
9568 38.0951 2099.30 1977.94 49.10
9569 38.0989 2072.60 1996.93 48.90
9570 38.1026 2050.50 2017.72 48.40
9571 38.1063 2128.30 2041.87 48.70
9572 38.1101 2196.10 2069.25 49.20
9573 38.1138 2275.60 2099.65 51.70
9574 38.1176 2260.20 2135.30 51.60
9575 38.1213 2238.50 2175.20 50.30
9576 38.1251 2261.00 2222.40 50.00
9577 38.1288 2381.10 2275.64 52.00
9578 38.1326 2408.40 2339.05 52.70
9579 38.1365 2584.20 2413.05 54.80
9580 38.1401 2657.10 2496.96 55.20
9581 38.1440 2713.70 2597.51 56.00
9582 38.1477 2770.90 2711.52 56.70
9583 38.1515 2920.60 2847.23 58.80
9584 38.1552 3092.10 2999.71 61.60
9585 38.1590 3289.10 3178.09 62.10
9586 38.1628 3467.00 3378.45 64.60
9587 38.1665 3800.30 3591.10 66.80
9588 38.1702 3848.50 3819.99 67.40
9589 38.1740 4217.10 4038.40 71.20
9590 38.1777 4352.30 4238.33 72.40
9591 38.1815 4755.60 4387.22 76.30
9592 38.1852 4775.20 4460.93 76.60
9593 38.1890 4712.70 4449.92 75.10
9594 38.1927 4543.00 4356.58 74.60
9595 38.1965 4376.20 4192.50 73.00
9596 38.2002 4323.30 3973.12 72.30
9597 38.2040 3945.00 3745.32 68.50
9598 38.2079 3678.60 3517.54 65.40
9599 38.2116 3535.80 3307.71 64.80
9600 38.2154 3196.20 3111.76 62.60
9601 38.2191 3036.10 2942.01 59.20
9602 38.2229 2857.20 2789.63 57.50
9603 38.2266 2705.90 2660.90 56.00
9604 38.2304 2524.20 2547.06 53.90
9605 38.2341 2375.30 2449.23 52.10
9606 38.2379 2324.70 2367.61 51.90
9607 38.2416 2270.80 2295.36 51.70
9608 38.2453 2197.00 2234.85 50.30
9609 38.2491 2209.10 2181.12 50.20
9610 38.2528 2185.90 2135.78 49.80
9611 38.2566 2112.40 2095.20 49.20
9612 38.2604 2049.70 2059.77 48.40
9613 38.2641 1951.60 2029.46 46.90
9614 38.2679 2043.20 2001.96 48.50
9615 38.2716 2023.10 1978.21 47.90
9616 38.2755 1988.90 1956.46 47.60
9617 38.2793 1946.00 1937.05 47.30
9618 38.2830 1889.10 1920.04 46.50
9619 38.2868 1975.80 1904.31 46.80
9620 38.2905 1897.20 1890.43 46.20
9621 38.2943 1930.30 1877.50 47.00
9622 38.2980 1889.70 1866.03 46.00
9623 38.3018 1945.70 1855.28 47.20
9624 38.3055 1811.30 1845.44 45.30
9625 38.3092 1871.40 1836.65 45.10
9626 38.3130 1845.50 1828.34 45.70
9627 38.3167 1953.40 1820.89 47.70
9628 38.3205 1813.20 1813.80 45.40
9629 38.3242 1833.40 1807.42 44.60
9630 38.3280 1851.50 1801.33 45.90
9631 38.3318 1819.10 1795.68 45.40
9632 38.3355 1902.40 1790.55 46.90
9633 38.3394 1861.00 1785.63 45.60
9634 38.3430 1860.20 1781.16 45.70
9635 38.3469 1815.70 1776.85 44.90
9636 38.3507 1769.40 1772.82 44.70
9637 38.3544 1885.20 1769.12 46.30
9638 38.3582 1797.90 1765.56 44.90
9639 38.3619 1823.40 1762.29 45.50
9640 38.3657 1832.30 1759.12 45.70
9641 38.3694 1841.50 1756.20 45.90
9642 38.3731 1790.50 1753.36 45.10
9643 38.3769 1894.50 1750.68 46.50
9644 38.3806 1785.50 1748.20 45.40
9645 38.3844 1817.60 1745.79 45.20
9646 38.3881 1720.70 1743.55 42.90
9647 38.3919 1837.90 1741.37 46.00
9648 38.3957 1803.60 1739.28 45.10
9649 38.3994 1756.60 1737.35 44.70
9650 38.4033 1792.50 1735.46 44.70
9651 38.4070 1786.30 1733.69 44.80
9652 38.4108 1794.60 1731.96 44.80
9653 38.4145 1768.50 1730.35 45.10
9654 38.4183 1748.80 1728.76 44.80
9655 38.4221 1798.90 1727.23 45.20
9656 38.4258 1657.40 1725.81 43.20
9657 38.4296 1813.20 1724.40 45.30
9658 38.4333 1761.40 1723.08 44.40
9659 38.4370 1829.70 1721.78 45.90
9660 38.4408 1746.10 1720.52 44.70
9661 38.4445 1792.30 1719.35 45.50
9662 38.4483 1798.50 1718.18 45.50
9663 38.4520 1809.80 1717.08 45.60
9664 38.4558 1699.70 1715.99 43.60
9665 38.4595 1861.40 1714.97 46.40
9666 38.4633 1664.70 1713.95 43.30
9667 38.4672 1795.70 1712.96 45.20
9668 38.4709 1699.10 1712.03 43.90
9669 38.4747 1765.30 1711.11 43.70
9670 38.4784 1759.20 1710.23 44.20
9671 38.4822 1785.00 1709.36 44.90
9672 38.4860 1685.10 1708.51 43.40
9673 38.4897 1811.00 1707.71 45.40
9674 38.4935 1658.90 1706.91 43.70
9675 38.4972 1727.80 1706.15 44.20
9676 38.5009 1671.80 1705.39 43.40
9677 38.5047 1779.10 1704.67 44.90
9678 38.5084 1770.90 1703.95 45.00
9679 38.5122 1793.00 1703.25 44.90
9680 38.5159 1753.30 1702.58 45.10
9681 38.5197 1674.90 1701.91 43.40
9682 38.5234 1707.90 1701.27 44.10
9683 38.5272 1913.00 1700.63 46.50
9684 38.5311 1772.60 1700.01 45.00
9685 38.5348 1767.30 1699.41 44.80
9686 38.5386 1718.00 1698.81 44.30
9687 38.5423 1778.20 1698.24 44.80
9688 38.5461 1711.40 1697.67 44.10
9689 38.5498 1732.00 1697.12 44.20
9690 38.5536 1737.40 1696.57 44.50
9691 38.5574 1725.00 1696.03 44.10
9692 38.5611 1728.20 1695.51 43.90
9693 38.5648 1768.20 1694.99 45.10
9694 38.5686 1702.90 1694.50 43.70
9695 38.5723 1755.50 1693.99 44.70
9696 38.5761 1730.00 1693.50 43.80
9697 38.5798 1760.30 1693.03 44.20
9698 38.5836 1730.10 1692.55 43.90
9699 38.5873 1712.20 1692.10 43.80
9700 38.5911 1679.30 1691.63 43.80
9701 38.5948 1820.10 1691.19 45.30
9702 38.5987 1688.70 1690.74 43.80
9703 38.6025 1816.20 1690.30 45.80
9704 38.6062 1662.30 1689.88 42.70
9705 38.6100 1790.60 1689.45 45.00
9706 38.6137 1702.50 1689.04 44.60
9707 38.6175 1781.30 1688.63 45.00
9708 38.6213 1737.70 1688.22 44.20
9709 38.6250 1737.70 1687.82 43.90
9710 38.6287 1783.50 1687.42 44.60
9711 38.6325 1668.00 1687.04 43.40
9712 38.6362 1705.60 1686.65 44.00
9713 38.6400 1797.80 1686.26 45.20
9714 38.6437 1822.20 1685.89 45.40
9715 38.6475 1825.80 1685.52 45.50
9716 38.6512 1699.00 1685.16 43.70
9717 38.6550 1785.70 1684.79 44.60
9718 38.6587 1703.80 1674.16 43.50
9719 38.6626 1737.70 1673.97 44.20
9720 38.6664 1695.20 1673.77 43.30
9721 38.6701 1799.90 1673.58 44.90
9722 38.6739 1743.90 1673.38 43.90
9723 38.6776 1748.40 1673.19 43.80
9724 38.6814 1671.90 1672.99 42.80
9725 38.6852 1794.60 1672.80 44.50
9726 38.6889 1670.60 1672.60 42.70
9727 38.6926 1775.30 1672.41 44.50
9728 38.6964 1672.90 1672.22 42.80
9729 38.7001 1794.10 1672.02 44.30
9730 38.7039 1763.20 1671.82 44.50
9731 38.7076 1792.40 1671.63 44.30
9732 38.7114 1683.10 1671.43 42.70
9733 38.7151 1843.20 1671.24 46.20
9734 38.7189 1725.20 1671.05 44.30
9735 38.7226 1724.30 1670.85 43.80
9736 38.7265 1597.80 1670.66 41.00
9737 38.7303 1717.80 1670.46 43.80
9738 38.7340 1761.60 1670.27 44.10
9739 38.7378 1694.30 1670.07 43.40
9740 38.7415 1712.20 1669.88 44.10
9741 38.7453 1753.70 1669.68 44.00
9742 38.7491 1722.70 1669.49 43.60
9743 38.7528 1771.40 1669.30 44.90
9744 38.7565 1636.60 1669.10 42.70
9745 38.7603 1785.90 1668.91 45.00
9746 38.7640 1753.30 1668.71 43.70
9747 38.7678 1770.80 1668.51 44.40
9748 38.7715 1654.00 1668.32 42.60
9749 38.7753 1764.70 1668.13 44.10
9750 38.7790 1701.80 1667.94 42.90
9751 38.7828 1734.10 1667.74 44.10
9752 38.7867 1706.20 1667.54 43.10
9753 38.7904 1748.40 1667.35 43.90
9754 38.7942 1784.30 1667.15 44.00
9755 38.7979 1745.10 1666.96 43.90
9756 38.8017 1662.80 1666.77 43.10
9757 38.8054 1789.00 1666.57 44.20
9758 38.8092 1712.70 1666.38 42.90
9759 38.8130 1745.00 1666.18 43.90
9760 38.8167 1657.10 1665.99 43.50
9761 38.8204 1761.60 1665.79 44.30
9762 38.8242 1638.30 1665.60 42.40
9763 38.8279 1702.10 1665.41 43.00
9764 38.8317 1710.40 1665.21 43.40
9765 38.8354 1761.20 1665.02 44.10
9766 38.8392 1750.80 1664.82 44.10
9767 38.8429 1741.60 1664.63 43.70
9768 38.8467 1722.60 1664.43 43.40
9769 38.8506 1755.60 1664.24 43.20
9770 38.8543 1577.40 1664.05 41.90
9771 38.8581 1636.50 1663.85 42.90
9772 38.8618 1649.90 1663.66 42.80
9773 38.8656 1730.10 1663.46 43.40
9774 38.8694 1700.60 1663.27 43.70
9775 38.8731 1735.10 1663.08 44.00
9776 38.8769 1715.40 1662.88 43.50
9777 38.8806 1742.30 1662.69 44.00
9778 38.8843 1688.20 1662.49 42.90
9779 38.8881 1819.00 1662.30 44.90
9780 38.8918 1738.60 1662.11 44.20
9781 38.8956 1830.90 1661.91 45.40
9782 38.8993 1638.40 1661.72 42.70
9783 38.9031 1735.50 1661.52 43.10
9784 38.9070 1763.50 1661.33 43.40
9785 38.9106 1725.70 1661.13 43.20
9786 38.9145 1720.60 1660.94 43.70
9787 38.9182 1686.20 1660.75 43.80
9788 38.9220 1690.00 1660.55 43.60
9789 38.9257 1769.50 1660.36 44.10
9790 38.9295 1641.40 1660.16 42.60
9791 38.9333 1745.80 1659.97 43.60
9792 38.9370 1667.80 1659.78 43.20
9793 38.9408 1780.40 1659.58 44.80
9794 38.9445 1681.20 1659.39 43.20
9795 38.9482 1783.50 1659.19 44.30
9796 38.9520 1664.50 1659.00 42.70
9797 38.9557 1723.80 1658.81 43.70
9798 38.9595 1689.20 1658.61 43.50
9799 38.9632 1733.10 1658.42 43.70
9800 38.9670 1675.40 1658.23 43.10
9801 38.9709 1714.40 1658.03 43.90
9802 38.9745 1704.40 1657.84 43.40
9803 38.9784 1668.90 1657.64 43.10
9804 38.9821 1713.90 1657.45 43.50
9805 38.9859 1658.80 1657.26 42.70
9806 38.9897 1710.30 1657.06 43.40
9807 38.9934 1721.70 1656.87 43.50
9808 38.9972 1639.80 1656.67 42.80
9809 39.0009 1745.30 1656.48 44.30
9810 39.0047 1665.60 1656.29 42.80
9811 39.0084 1608.20 1656.09 41.40
9812 39.0121 1673.70 1655.90 42.40
9813 39.0159 1826.50 1655.71 45.30
9814 39.0196 1654.30 1655.52 43.10
9815 39.0234 1734.80 1655.32 44.10
9816 39.0272 1739.60 1655.12 43.70
9817 39.0309 1716.40 1654.93 43.70
9818 39.0348 1679.20 1654.74 43.30
9819 39.0384 1796.40 1654.55 45.30
9820 39.0423 1730.10 1654.35 44.20
9821 39.0460 1734.10 1654.16 43.70
9822 39.0498 1650.10 1653.97 43.50
9823 39.0536 1764.00 1653.77 45.40
9824 39.0573 1669.70 1653.58 43.10
9825 39.0611 1705.00 1653.38 43.20
9826 39.0648 1745.80 1653.19 43.80
9827 39.0686 1736.10 1653.00 44.60
9828 39.0723 1683.70 1652.80 44.10
9829 39.0760 1741.10 1652.61 43.80
9830 39.0798 1621.70 1652.42 42.60
9831 39.0835 1747.90 1652.23 44.60
9832 39.0873 1753.10 1652.03 43.90
9833 39.0911 1741.50 1651.84 44.10
9834 39.0948 1703.70 1651.65 44.40
9835 39.0987 1755.00 1651.45 44.60
9836 39.1023 1672.10 1651.26 43.50
9837 39.1062 1768.70 1651.07 44.80
9838 39.1100 1658.70 1650.87 42.80
9839 39.1137 1740.60 1650.68 44.30
9840 39.1175 1794.10 1650.49 45.40
9841 39.1212 1714.30 1650.29 44.20
9842 39.1250 1734.80 1650.10 43.90
9843 39.1287 1746.80 1649.90 44.60
9844 39.1325 1717.90 1649.71 44.20
9845 39.1362 1719.70 1649.52 44.20
9846 39.1399 1623.00 1649.33 42.10
9847 39.1437 1674.90 1649.13 43.70
9848 39.1475 1787.20 1648.94 45.10
9849 39.1512 1703.60 1648.75 44.00
9850 39.1550 1659.30 1648.55 43.50
9851 39.1587 1675.70 1648.36 43.50
9852 39.1626 1744.00 1648.17 44.50
9853 39.1664 1797.40 1647.97 45.30
9854 39.1701 1721.70 1647.78 44.50
9855 39.1739 1702.10 1647.59 44.00
9856 39.1776 1722.70 1647.40 44.40
9857 39.1814 1757.70 1647.20 44.50
9858 39.1852 1717.00 1647.01 44.10
9859 39.1889 1814.60 1646.82 45.30
9860 39.1926 1729.90 1646.63 44.70
9861 39.1964 1768.90 1646.44 44.60
9862 39.2001 1703.80 1646.24 44.40
9863 39.2039 1787.90 1646.05 45.30
9864 39.2076 1607.30 1645.86 42.50
9865 39.2114 1740.50 1645.66 43.70
9866 39.2151 1707.90 1645.47 45.40
9867 39.2189 1784.40 1645.28 45.90
9868 39.2226 1658.70 1645.09 43.10
9869 39.2265 1725.10 1644.89 43.90
9870 39.2303 1768.90 1644.70 45.00
9871 39.2340 1784.90 1644.51 45.60
9872 39.2378 1712.10 1644.31 44.00
9873 39.2415 1743.00 1644.12 44.60
9874 39.2453 1784.30 1643.93 45.40
9875 39.2491 1674.70 1643.74 43.90
9876 39.2528 1707.30 1643.55 44.20
9877 39.2565 1777.60 1643.35 44.80
9878 39.2603 1791.00 1643.16 45.20
9879 39.2640 1788.80 1642.97 45.00
9880 39.2678 1728.10 1642.77 44.80
9881 39.2715 1689.10 1642.58 43.80
9882 39.2753 1694.60 1642.39 44.20
9883 39.2790 1738.80 1642.20 44.40
9884 39.2828 1729.00 1642.01 44.50
9885 39.2867 1688.70 1641.81 43.70
9886 39.2904 1686.40 1641.62 43.30
9887 39.2942 1789.30 1641.43 45.20
9888 39.2979 1716.60 1641.24 43.90
9889 39.3017 1772.00 1641.05 44.40
9890 39.3055 1699.50 1640.85 43.50
9891 39.3092 1811.50 1640.66 45.10
9892 39.3130 1698.30 1640.47 43.50
9893 39.3167 1732.30 1640.28 45.10
9894 39.3204 1679.80 1640.08 42.90
9895 39.3242 1792.30 1639.89 44.90
9896 39.3279 1701.80 1639.70 43.80
9897 39.3317 1785.60 1639.51 45.50
9898 39.3354 1701.50 1639.32 43.30
9899 39.3392 1791.80 1639.12 45.30
9900 39.3430 1707.70 1638.93 43.90
9901 39.3467 1783.80 1638.74 44.80
9902 39.3506 1669.20 1638.55 43.70
9903 39.3543 1765.20 1638.36 44.60
9904 39.3581 1684.70 1638.16 42.90
9905 39.3619 1779.80 1637.97 44.30
9906 39.3656 1703.10 1637.78 43.80
9907 39.3694 1801.60 1637.59 45.20
9908 39.3731 1676.80 1637.40 43.40
9909 39.3769 1651.70 1637.21 42.90
9910 39.3806 1769.50 1637.01 45.10
9911 39.3843 1740.00 1636.82 44.40
9912 39.3881 1635.80 1636.63 42.70
9913 39.3918 1663.30 1636.44 43.20
9914 39.3956 1743.30 1636.25 44.50
9915 39.3994 1720.00 1636.05 43.90
9916 39.4031 1648.40 1635.87 42.80
9917 39.4070 1742.00 1635.67 43.90
9918 39.4106 1648.60 1635.48 42.00
9919 39.4145 1783.60 1635.29 45.30
9920 39.4183 1643.30 1635.10 43.10
9921 39.4220 1809.20 1634.91 45.00
9922 39.4258 1621.90 1634.71 42.30
9923 39.4295 1726.00 1634.53 44.30
9924 39.4333 1695.90 1634.33 42.90
9925 39.4370 1770.90 1634.14 44.50
9926 39.4408 1709.80 1633.95 43.80
9927 39.4445 1675.80 1633.76 42.70
9928 39.4482 1704.90 1633.57 43.30
9929 39.4520 1708.50 1633.38 43.60
9930 39.4558 1660.00 1633.18 43.40
9931 39.4595 1751.90 1632.99 44.20
9932 39.4633 1737.20 1648.88 44.00
9933 39.4670 1728.70 1648.94 43.90
9934 39.4709 1718.00 1649.00 43.90
9935 39.4747 1774.50 1649.07 44.40
9936 39.4784 1733.90 1649.14 43.80
9937 39.4822 1722.40 1649.22 43.50
9938 39.4859 1689.80 1649.31 44.10
9939 39.4897 1759.20 1649.41 44.60
9940 39.4935 1731.00 1649.51 43.80
9941 39.4972 1687.10 1649.62 43.70
9942 39.5009 1658.30 1649.73 43.40
9943 39.5047 1734.70 1649.85 43.10
9944 39.5084 1730.80 1649.99 44.10
9945 39.5122 1691.70 1650.13 43.00
9946 39.5159 1748.90 1650.28 45.00
9947 39.5197 1859.60 1650.43 46.20
9948 39.5234 1813.20 1650.60 46.00
9949 39.5272 1766.20 1650.78 43.90
9950 39.5311 1725.60 1650.96 43.70
9951 39.5348 1738.70 1651.16 43.80
9952 39.5386 1739.60 1651.36 44.50
9953 39.5423 1705.60 1651.58 43.70
9954 39.5461 1682.80 1651.81 43.10
9955 39.5499 1738.90 1652.05 44.00
9956 39.5536 1724.30 1652.30 43.40
9957 39.5574 1780.70 1652.57 44.80
9958 39.5611 1746.70 1652.84 44.40
9959 39.5648 1776.70 1653.13 45.30
9960 39.5686 1740.40 1653.44 44.10
9961 39.5723 1823.70 1653.75 45.50
9962 39.5761 1684.10 1654.09 43.80
9963 39.5798 1716.90 1654.44 43.40
9964 39.5836 1789.30 1654.81 44.90
9965 39.5874 1807.90 1655.20 45.40
9966 39.5911 1726.80 1655.59 44.50
9967 39.5950 1752.10 1656.02 44.00
9968 39.5987 1740.60 1656.45 44.80
9969 39.6025 1800.00 1656.91 45.10
9970 39.6062 1766.80 1657.39 44.40
9971 39.6100 1740.00 1657.89 43.60
9972 39.6138 1720.80 1658.42 43.40
9973 39.6175 1790.20 1658.96 45.20
9974 39.6213 1769.30 1659.54 44.30
9975 39.6250 1770.90 1660.13 44.10
9976 39.6287 1754.20 1660.77 43.50
9977 39.6325 1715.40 1661.43 43.30
9978 39.6362 1748.70 1662.10 44.10
9979 39.6400 1833.50 1662.83 45.00
9980 39.6438 1771.10 1663.58 44.50
9981 39.6475 1775.30 1664.35 44.00
9982 39.6513 1721.50 1665.18 43.80
9983 39.6550 1799.80 1666.02 43.50
9984 39.6589 1716.60 1666.93 43.60
9985 39.6626 1810.80 1667.85 44.90
9986 39.6664 1749.60 1668.84 43.50
9987 39.6702 1800.80 1669.88 44.90
9988 39.6739 1680.20 1670.94 42.70
9989 39.6777 1789.60 1672.07 44.50
9990 39.6814 1682.00 1673.24 43.10
9991 39.6852 1729.80 1674.48 43.90
9992 39.6889 1716.20 1675.80 43.60
9993 39.6926 1834.40 1677.13 45.10
9994 39.6964 1681.80 1678.58 42.80
9995 39.7001 1783.10 1680.05 44.50
9996 39.7039 1805.50 1681.64 45.30
9997 39.7077 1718.10 1683.31 43.20
9998 39.7114 1694.60 1685.01 43.00
9999 39.7152 1742.80 1686.86 44.70
10000 39.7189 1812.00 1688.75 45.50
10001 39.7228 1792.30 1690.79 44.80
10002 39.7266 1784.60 1692.94 44.60
10003 39.7303 1797.30 1695.14 44.30
10004 39.7341 1739.90 1697.53 43.90
10005 39.7378 1800.60 1699.99 44.90
10006 39.7416 1772.50 1702.64 44.30
10007 39.7453 1763.40 1705.46 44.20
10008 39.7491 1763.10 1708.35 44.20
10009 39.7528 1815.00 1711.50 45.10
10010 39.7565 1759.40 1714.74 44.90
10011 39.7603 1820.60 1718.27 45.50
10012 39.7641 1785.00 1722.01 44.70
10013 39.7678 1890.90 1725.88 45.80
10014 39.7716 1807.30 1730.11 44.90
10015 39.7753 1830.50 1734.48 45.50
10016 39.7791 1778.00 1739.27 44.60
10017 39.7830 1770.90 1744.37 44.00
10018 39.7867 1815.90 1749.67 45.00
10019 39.7905 1788.30 1755.48 44.50
10020 39.7942 1957.00 1761.54 46.10
10021 39.7980 1861.90 1768.20 45.40
10022 39.8018 1861.30 1775.35 45.60
10023 39.8055 1824.90 1782.83 44.50
10024 39.8092 1793.20 1791.10 44.90
10025 39.8130 1867.60 1799.76 45.00
10026 39.8167 1846.60 1809.36 46.30
10027 39.8205 1913.10 1819.74 46.30
10028 39.8242 1792.90 1830.69 43.80
10029 39.8280 1976.60 1842.88 46.80
10030 39.8317 1868.10 1855.78 45.60
10031 39.8355 1918.50 1870.22 45.60
10032 39.8394 1896.40 1885.97 45.70
10033 39.8430 1934.10 1902.77 45.70
10034 39.8469 1887.70 1921.67 45.80
10035 39.8506 2009.60 1941.93 47.50
10036 39.8544 2076.00 1964.83 47.90
10037 39.8582 2065.50 1990.22 48.10
10038 39.8619 2006.50 2017.62 47.20
10039 39.8657 2080.70 2048.96 47.60
10040 39.8694 2067.60 2083.03 48.20
10041 39.8731 2224.30 2122.32 49.10
10042 39.8769 2141.40 2166.60 49.30
10043 39.8806 2363.80 2215.30 51.90
10044 39.8844 2225.40 2272.12 49.00
10045 39.8881 2459.90 2335.14 52.50
10046 39.8919 2442.00 2409.23 52.50
10047 39.8957 2653.40 2494.39 55.60
10048 39.8994 2712.90 2589.97 54.90
10049 39.9033 2828.80 2703.16 56.20
10050 39.9070 2864.60 2830.70 57.50
10051 39.9108 3060.60 2982.01 59.00
10052 39.9146 3143.30 3157.27 60.10
10053 39.9183 3648.60 3353.66 66.10
10054 39.9221 3653.20 3584.77 65.90
10055 39.9258 4031.90 3839.85 68.30
10056 39.9296 4376.60 4132.75 72.60
10057 39.9333 4745.30 4453.16 75.20
10058 39.9370 5083.40 4781.48 78.10
10059 39.9408 5686.40 5118.80 83.50
10060 39.9445 5781.30 5421.75 85.00
10061 39.9483 6265.00 5674.14 87.90
10062 39.9521 6521.10 5832.56 89.60
10063 39.9558 6287.70 5872.73 87.10
10064 39.9596 6153.50 5789.84 87.00
10065 39.9633 6150.30 5601.19 86.90
10066 39.9672 5620.80 5325.82 82.50
10067 39.9710 5364.50 5002.04 80.10
10068 39.9747 4865.80 4671.03 74.80
10069 39.9785 4536.30 4337.65 72.70
10070 39.9822 4152.70 4033.89 69.70
10071 39.9860 3720.80 3750.38 64.70
10072 39.9897 3327.60 3498.22 61.50
10073 39.9935 3138.60 3283.04 59.90
10074 39.9972 2822.00 3089.96 56.90
10075 40.0009 2731.20 2927.13 55.80
10076 40.0047 2422.30 2782.28 52.20
10077 40.0084 2467.50 2660.35 52.80
10078 40.0122 2223.40 2551.85 49.30
10079 40.0160 2323.60 2457.99 51.70
10080 40.0197 2230.70 2378.42 49.80
10081 40.0235 2192.10 2307.20 49.00
10082 40.0272 2031.30 2246.39 47.80
10083 40.0311 2020.80 2191.55 47.30
10084 40.0349 2046.80 2143.15 47.90
10085 40.0386 1991.80 2101.40 46.90
10086 40.0424 1968.00 2063.19 47.00
10087 40.0461 1975.90 2029.96 46.60
10088 40.0499 1958.20 1999.30 46.00
10089 40.0536 1924.30 1971.71 46.50
10090 40.0574 1934.70 1947.48 46.40
10091 40.0611 1995.40 1924.87 47.40
10092 40.0648 1961.10 1904.87 47.00
10093 40.0686 1931.70 1886.13 46.30
10094 40.0724 1916.00 1869.03 46.20
10095 40.0761 1948.10 1853.74 46.30
10096 40.0799 1855.90 1839.33 45.90
10097 40.0836 1845.90 1826.39 45.20
10098 40.0874 1832.20 1814.14 44.60
10099 40.0913 1810.90 1802.81 44.00
10100 40.0950 1762.00 1792.59 43.90
10101 40.0988 1824.10 1782.84 44.50
10102 40.1025 1810.40 1774.01 44.40
10103 40.1063 1837.30 1765.56 44.40
10104 40.1101 1782.20 1757.68 43.80
10105 40.1138 1776.80 1750.50 43.90
10106 40.1175 1818.80 1743.59 45.30
10107 40.1213 1823.10 1737.30 44.60
10108 40.1250 1793.80 1731.22 43.90
10109 40.1288 1846.80 1725.51 45.00
10110 40.1325 1721.10 1720.28 43.40
10111 40.1363 1804.20 1715.21 44.30
10112 40.1400 1651.60 1710.55 42.40
10113 40.1438 1858.20 1706.02 44.60
10114 40.1477 1679.30 1701.74 42.60
10115 40.1513 1720.40 1697.80 43.30
10116 40.1552 1749.10 1693.95 43.80
10117 40.1589 1759.50 1690.40 43.80
10118 40.1627 1694.10 1686.93 42.90
10119 40.1665 1798.80 1683.63 44.10
10120 40.1702 1670.70 1680.57 42.60
10121 40.1740 1742.30 1677.58 43.50
10122 40.1777 1751.50 1674.79 43.80
10123 40.1814 1740.60 1672.06 43.80
10124 40.1852 1703.90 1669.52 42.30
10125 40.1889 1734.40 1667.02 43.60
10126 40.1927 1750.10 1664.63 44.00
10127 40.1964 1777.00 1662.40 44.70
10128 40.2002 1712.10 1660.21 42.70
10129 40.2039 1753.70 1658.16 43.50
10130 40.2077 1745.40 1656.14 43.20
10131 40.2116 1750.40 1654.19 43.70
10132 40.2152 1768.20 1652.37 44.00
10133 40.2191 1728.30 1650.57 44.20
10134 40.2228 1718.20 1648.88 42.90
10135 40.2266 1769.50 1647.21 44.10
10136 40.2304 1743.00 1645.60 43.80
10137 40.2341 1683.20 1644.08 42.50
10138 40.2379 1721.70 1642.58 43.50
10139 40.2416 1791.20 1641.17 44.20
10140 40.2453 1699.10 1639.77 43.20
10141 40.2491 1735.90 1638.41 43.90
10142 40.2528 1702.80 1637.13 43.40
10143 40.2566 1743.10 1635.86 43.20
10144 40.2603 1679.40 1634.66 42.80
10145 40.2641 1713.80 1633.46 43.60
10146 40.2679 1777.60 1632.30 44.80
10147 40.2716 1840.70 1631.21 45.00
10148 40.2755 1789.00 1630.11 44.80
10149 40.2791 1796.10 1629.08 44.70
10150 40.2830 1680.90 1628.05 42.80
10151 40.2868 1770.40 1627.04 44.20
10152 40.2905 1668.50 1626.09 42.80
10153 40.2943 1703.70 1625.14 43.60
10154 40.2980 1792.50 1624.24 45.10
10155 40.3018 1745.60 1623.33 44.20
10156 40.3055 1668.90 1622.48 43.10
10157 40.3092 1796.30 1621.62 44.10
10158 40.3130 1619.00 1620.78 41.70
10159 40.3167 1794.70 1619.99 44.70
10160 40.3205 1631.40 1619.19 42.40
10161 40.3242 1707.80 1618.43 43.30
10162 40.3280 1706.40 1617.67 43.50
10163 40.3318 1783.70 1616.92 44.50
10164 40.3355 1726.00 1616.21 43.40
10165 40.3394 1726.10 1615.50 43.70
10166 40.3430 1770.80 1614.82 44.50
10167 40.3469 1700.40 1614.14 43.40
10168 40.3507 1800.20 1613.47 44.80
10169 40.3544 1751.20 1612.83 44.20
10170 40.3582 1607.30 1612.19 41.70
10171 40.3619 1800.30 1611.58 45.00
10172 40.3657 1639.80 1610.96 42.80
10173 40.3694 1793.30 1610.35 44.60
10174 40.3731 1657.80 1609.77 41.90
10175 40.3769 1753.00 1609.19 44.10
10176 40.3806 1687.60 1608.63 43.30
10177 40.3844 1730.00 1608.07 43.30
10178 40.3882 1587.00 1607.52 41.50
10179 40.3919 1687.10 1606.99 43.10
10180 40.3957 1621.90 1606.45 41.70
10181 40.3994 1699.40 1605.94 43.50
10182 40.4033 1631.40 1605.42 41.90
10183 40.4070 1726.10 1604.93 43.70
10184 40.4108 1629.70 1604.42 42.00
10185 40.4146 1677.80 1603.93 42.20
10186 40.4183 1703.90 1603.46 43.90
10187 40.4221 1661.40 1602.98 42.20
10188 40.4258 1593.90 1602.52 41.70
10189 40.4296 1725.60 1602.05 43.60
10190 40.4333 1680.60 1601.60 42.50
10191 40.4370 1746.70 1601.16 43.40
10192 40.4408 1655.10 1600.71 41.90
10193 40.4445 1658.40 1600.28 42.80
10194 40.4483 1649.10 1599.85 42.80
10195 40.4521 1721.60 1583.57 43.60
10196 40.4558 1669.60 1583.39 42.90
10197 40.4596 1644.80 1583.20 41.90
10198 40.4633 1683.70 1583.02 43.20
10199 40.4672 1659.20 1582.84 43.20
10200 40.4710 1621.80 1582.66 42.20
10201 40.4747 1702.80 1582.48 42.60
10202 40.4785 1665.90 1582.29 43.00
10203 40.4822 1729.70 1582.11 43.30
10204 40.4860 1684.50 1581.93 43.40
10205 40.4897 1726.30 1581.75 42.90
10206 40.4935 1640.00 1581.57 41.60
10207 40.4972 1679.20 1581.38 42.20
10208 40.5009 1654.20 1581.20 42.60
10209 40.5047 1739.20 1581.02 43.90
10210 40.5084 1650.20 1580.84 42.30
10211 40.5122 1719.50 1580.66 43.30
10212 40.5160 1679.00 1580.47 43.60
10213 40.5197 1706.60 1580.29 43.90
10214 40.5235 1707.50 1580.11 43.30
10215 40.5272 1663.90 1579.93 42.20
10216 40.5311 1724.00 1579.75 43.50
10217 40.5349 1733.40 1579.56 43.60
10218 40.5386 1565.00 1579.38 41.70
10219 40.5424 1639.70 1579.20 42.00
10220 40.5461 1699.20 1579.02 43.10
10221 40.5499 1711.80 1578.84 43.40
10222 40.5536 1689.10 1578.66 43.00
10223 40.5574 1746.80 1578.48 43.90
10224 40.5611 1682.50 1578.29 43.60
10225 40.5648 1708.90 1578.12 43.20
10226 40.5686 1715.90 1577.93 43.20
10227 40.5723 1722.80 1577.75 43.10
10228 40.5761 1650.60 1577.57 41.90
10229 40.5799 1774.20 1577.39 43.40
10230 40.5836 1604.50 1577.21 41.50
10231 40.5874 1735.50 1577.03 43.00
10232 40.5911 1690.80 1576.85 42.90
10233 40.5950 1676.30 1576.67 42.80
10234 40.5988 1709.90 1576.48 43.30
10235 40.6025 1675.90 1576.31 42.70
10236 40.6063 1665.10 1576.12 42.40
10237 40.6100 1703.30 1575.94 43.20
10238 40.6138 1645.80 1575.76 41.90
10239 40.6175 1795.00 1575.58 45.10
10240 40.6213 1579.20 1575.40 41.10
10241 40.6250 1751.70 1575.22 43.70
10242 40.6287 1701.20 1575.04 42.80
10243 40.6325 1661.40 1574.86 42.40
10244 40.6362 1689.40 1574.68 42.90
10245 40.6400 1707.20 1574.50 43.00
10246 40.6438 1554.20 1574.32 41.20
10247 40.6475 1718.60 1574.14 43.60
10248 40.6513 1650.30 1573.96 42.30
10249 40.6550 1672.10 1573.78 42.80
10250 40.6589 1672.90 1573.60 42.80
10251 40.6626 1643.10 1573.42 42.20
10252 40.6664 1609.70 1573.24 41.50
10253 40.6702 1679.70 1573.06 41.90
10254 40.6739 1644.20 1572.88 42.20
10255 40.6777 1693.10 1572.70 43.30
10256 40.6814 1610.60 1572.52 42.00
10257 40.6852 1703.50 1572.34 42.60
10258 40.6889 1640.80 1572.16 41.80
10259 40.6926 1738.20 1571.98 43.30
10260 40.6964 1653.40 1571.80 42.70
10261 40.7001 1695.10 1571.62 43.00
10262 40.7039 1661.20 1571.44 42.80
10263 40.7077 1708.50 1571.26 43.00
10264 40.7114 1670.40 1571.08 42.30
10265 40.7152 1647.80 1570.90 42.20
10266 40.7189 1667.70 1570.72 43.30
10267 40.7228 1663.90 1570.54 42.80
10268 40.7265 1604.80 1570.37 41.70
10269 40.7303 1702.50 1580.23 43.10
10270 40.7341 1697.60 1580.20 42.80
10271 40.7378 1636.50 1580.17 42.30
10272 40.7416 1625.50 1580.15 41.50
10273 40.7453 1612.90 1580.13 41.50
10274 40.7491 1639.40 1580.11 42.30
10275 40.7528 1673.20 1580.10 42.50
10276 40.7565 1619.10 1580.09 42.10
10277 40.7603 1670.80 1580.09 42.80
10278 40.7640 1646.40 1580.09 42.60
10279 40.7678 1647.50 1580.10 42.70
10280 40.7715 1640.70 1580.10 42.30
10281 40.7753 1663.60 1580.12 42.90
10282 40.7791 1643.10 1580.14 41.90
10283 40.7828 1596.10 1580.16 41.60
10284 40.7867 1684.50 1580.19 43.10
10285 40.7904 1649.00 1580.22 42.70
10286 40.7942 1642.10 1580.26 42.50
10287 40.7980 1727.00 1580.31 43.60
10288 40.8017 1636.60 1580.36 42.70
10289 40.8055 1677.80 1580.41 42.40
10290 40.8092 1537.60 1580.48 40.80
10291 40.8130 1763.50 1580.55 43.60
10292 40.8167 1635.00 1580.62 42.30
10293 40.8204 1675.60 1580.70 43.50
10294 40.8242 1651.00 1580.79 42.10
10295 40.8279 1715.50 1580.89 43.50
10296 40.8317 1616.00 1580.99 42.00
10297 40.8354 1693.80 1581.11 42.80
10298 40.8392 1651.90 1581.23 42.40
10299 40.8430 1673.30 1581.36 43.00
10300 40.8467 1632.10 1581.49 42.50
10301 40.8506 1629.70 1581.64 42.70
10302 40.8543 1576.90 1581.80 41.20
10303 40.8581 1719.90 1581.97 43.60
10304 40.8618 1643.00 1582.14 42.70
10305 40.8656 1652.00 1582.33 41.70
10306 40.8694 1678.60 1582.53 43.00
10307 40.8731 1693.80 1582.74 43.30
10308 40.8769 1629.20 1582.96 42.20
10309 40.8806 1671.80 1583.19 42.70
10310 40.8843 1597.50 1583.44 41.20
10311 40.8881 1655.20 1583.70 42.70
10312 40.8918 1674.30 1583.98 42.90
10313 40.8956 1734.90 1584.27 44.30
10314 40.8993 1630.20 1584.57 42.40
10315 40.9031 1630.50 1584.90 42.60
10316 40.9068 1591.20 1585.23 41.90
10317 40.9106 1704.60 1585.59 43.20
10318 40.9143 1592.60 1585.96 41.40
10319 40.9182 1687.40 1586.36 43.90
10320 40.9220 1689.00 1586.78 43.50
10321 40.9257 1654.70 1587.21 42.50
10322 40.9295 1698.40 1587.67 42.60
10323 40.9332 1711.80 1588.14 43.30
10324 40.9370 1652.30 1588.65 42.80
10325 40.9408 1686.20 1589.19 43.30
10326 40.9445 1619.70 1589.74 42.30
10327 40.9482 1730.80 1590.33 43.80
10328 40.9520 1636.20 1590.93 42.50
10329 40.9557 1655.30 1591.59 42.70
10330 40.9594 1655.40 1592.26 42.70
10331 40.9632 1631.30 1592.98 42.40
10332 40.9670 1575.70 1593.73 41.40
10333 40.9707 1666.10 1594.51 42.90
10334 40.9745 1637.60 1595.35 42.50
10335 40.9782 1704.20 1596.21 43.70
10336 40.9821 1567.60 1597.13 41.60
10337 40.9857 1658.20 1598.08 42.90
10338 40.9896 1604.70 1599.11 42.00
10339 40.9934 1719.30 1600.19 43.10
10340 40.9971 1608.60 1601.30 41.60
10341 41.0009 1704.40 1602.50 43.20
10342 41.0046 1677.70 1603.73 43.20
10343 41.0084 1681.40 1605.06 43.10
10344 41.0121 1600.40 1606.47 41.80
10345 41.0159 1683.00 1607.92 42.60
10346 41.0196 1622.50 1609.49 43.00
10347 41.0233 1743.70 1611.10 43.80
10348 41.0271 1619.40 1612.86 41.90
10349 41.0308 1807.30 1614.67 44.40
10350 41.0346 1554.80 1616.63 41.30
10351 41.0384 1667.10 1618.71 42.60
10352 41.0421 1668.60 1620.86 43.00
10353 41.0460 1714.90 1623.21 43.60
10354 41.0496 1670.90 1625.63 43.00
10355 41.0535 1720.10 1628.27 43.20
10356 41.0572 1719.60 1631.02 43.50
10357 41.0610 1649.90 1634.01 42.00
10358 41.0648 1749.70 1637.21 43.80
10359 41.0685 1768.00 1640.53 44.20
10360 41.0723 1718.40 1644.17 43.60
10361 41.0760 1728.50 1647.96 43.50
10362 41.0798 1638.10 1652.14 42.50
10363 41.0835 1753.30 1656.48 44.00
10364 41.0872 1717.30 1661.29 43.40
10365 41.0910 1640.90 1666.45 42.40
10366 41.0947 1635.40 1671.86 42.40
10367 41.0985 1760.20 1677.84 44.40
10368 41.1022 1772.40 1684.14 44.30
10369 41.1060 1753.60 1691.12 43.80
10370 41.1097 1732.60 1698.50 44.10
10371 41.1135 1816.60 1706.72 44.30
10372 41.1174 1730.50 1715.66 44.30
10373 41.1211 1743.10 1725.16 43.70
10374 41.1249 1799.90 1735.79 44.50
10375 41.1286 1738.80 1747.14 43.60
10376 41.1324 1755.30 1759.90 44.30
10377 41.1361 1815.90 1773.59 44.70
10378 41.1399 1815.30 1789.08 44.80
10379 41.1437 1865.90 1806.26 46.10
10380 41.1474 1815.10 1824.78 44.80
10381 41.1511 1886.10 1846.01 45.00
10382 41.1549 1878.90 1869.07 46.00
10383 41.1586 1982.10 1895.64 47.40
10384 41.1623 1850.60 1924.74 45.60
10385 41.1661 1984.60 1958.53 47.10
10386 41.1699 1959.80 1996.92 46.70
10387 41.1736 2176.00 2039.43 49.50
10388 41.1774 2078.80 2089.33 48.30
10389 41.1811 2171.60 2144.93 49.00
10390 41.1850 2290.10 2210.54 51.00
10391 41.1886 2364.10 2283.94 51.80
10392 41.1925 2461.70 2370.76 52.90
10393 41.1963 2489.20 2470.74 53.70
10394 41.2000 2560.00 2582.64 54.40
10395 41.2038 2879.80 2713.92 58.20
10396 41.2075 2722.50 2859.24 56.00
10397 41.2113 3105.30 3026.64 59.30
10398 41.2150 3048.60 3206.77 58.70
10399 41.2188 3504.10 3405.71 65.50
10400 41.2225 3485.30 3611.66 63.80
10401 41.2262 3806.30 3807.43 66.60
10402 41.2300 3816.50 3987.47 66.70
10403 41.2337 4078.80 4123.46 69.80
10404 41.2375 3941.10 4204.22 67.80
10405 41.2412 4215.80 4214.01 70.60
10406 41.2450 4138.30 4151.73 70.20
10407 41.2489 4138.50 4025.74 70.60
10408 41.2525 3774.10 3858.75 67.00
10409 41.2564 3701.40 3661.12 66.20
10410 41.2601 3444.10 3460.34 63.60
10411 41.2639 3293.80 3258.26 61.50
10412 41.2676 3025.70 3073.73 59.10
10413 41.2714 2856.40 2900.83 57.00
10414 41.2752 2599.40 2746.57 54.60
10415 41.2789 2516.10 2613.78 53.00
10416 41.2826 2301.30 2494.32 51.10
10417 41.2864 2234.20 2392.95 50.10
10418 41.2901 2153.50 2302.24 49.30
10419 41.2938 2235.20 2225.58 50.60
10420 41.2976 2030.10 2157.04 48.00
10421 41.3013 2008.20 2098.93 47.40
10422 41.3051 1973.00 2046.78 46.70
10423 41.3089 1984.20 2001.23 47.50
10424 41.3126 1905.30 1962.21 45.90
10425 41.3164 1862.40 1926.90 45.10
10426 41.3201 1897.20 1896.43 46.70
10427 41.3240 1886.80 1868.65 45.80
10428 41.3276 1685.60 1844.49 43.10
10429 41.3315 1782.70 1822.28 44.60
10430 41.3353 1764.30 1802.33 44.20
10431 41.3390 1788.50 1784.82 44.70
10432 41.3428 1769.40 1768.52 45.00
10433 41.3465 1766.20 1754.12 44.30
10434 41.3503 1732.70 1740.65 44.00
10435 41.3540 1819.60 1728.67 45.00
10436 41.3577 1695.80 1717.40 42.80
10437 41.3615 1733.70 1707.07 43.80
10438 41.3652 1727.60 1697.82 43.90
10439 41.3690 1715.10 1689.05 43.90
10440 41.3727 1689.10 1681.17 43.10
10441 41.3765 1625.60 1673.66 42.60
10442 41.3802 1651.30 1666.89 43.00
10443 41.3840 1748.30 1660.42 44.10
10444 41.3877 1693.70 1654.55 42.70
10445 41.3915 1751.40 1648.93 44.00
10446 41.3954 1628.70 1643.69 42.40
10447 41.3991 1630.20 1638.90 42.30
10448 41.4029 1676.70 1634.30 43.30
10449 41.4066 1695.30 1630.09 43.30
10450 41.4104 1614.70 1626.03 42.10
10451 41.4141 1724.70 1622.30 43.20
10452 41.4179 1668.90 1618.70 43.80
10453 41.4216 1672.90 1615.38 43.60
10454 41.4254 1658.80 1612.16 42.60
10455 41.4291 1675.70 1609.12 42.60
10456 41.4328 1604.20 1606.31 41.80
10457 41.4366 1680.80 1603.57 43.40
10458 41.4403 1592.20 1601.04 41.70
10459 41.4441 1741.50 1598.58 44.20
10460 41.4478 1577.30 1596.29 41.60
10461 41.4516 1606.00 1594.05 41.90
10462 41.4554 1613.90 1591.92 42.10
10463 41.4591 1639.50 1589.94 42.70
10464 41.4630 1587.90 1587.99 41.60
10465 41.4666 1610.50 1586.18 42.10
10466 41.4705 1631.50 1584.40 42.50
10467 41.4742 1628.10 1582.74 42.30
10468 41.4780 1608.60 1581.10 42.60
10469 41.4817 1625.50 1579.57 42.30
10470 41.4855 1572.40 1578.07 41.70
10471 41.4893 1632.70 1576.62 42.30
10472 41.4930 1604.70 1575.26 41.80
10473 41.4967 1715.60 1573.92 43.60
10474 41.5005 1616.30 1572.66 42.30
10475 41.5042 1578.80 1571.42 41.10
10476 41.5079 1586.60 1570.25 41.90
10477 41.5117 1583.70 1569.09 41.60
10478 41.5154 1588.80 1568.00 41.30
10479 41.5192 1588.40 1566.92 42.70
10480 41.5230 1537.00 1565.87 41.50
10481 41.5267 1627.60 1564.88 42.80
10482 41.5305 1588.80 1563.90 41.70
10483 41.5342 1622.70 1562.98 42.30
10484 41.5381 1517.30 1562.06 41.00
10485 41.5418 1580.30 1561.18 41.60
10486 41.5456 1588.20 1560.32 42.10
10487 41.5493 1668.50 1559.50 41.70
10488 41.5531 1596.30 1558.68 42.30
10489 41.5569 1577.20 1557.88 41.30
10490 41.5606 1554.60 1557.12 41.80
10491 41.5644 1578.20 1556.37 41.60
10492 41.5681 1569.90 1555.65 41.60
10493 41.5718 1530.70 1554.94 40.70
10494 41.5756 1538.00 1554.26 41.00
10495 41.5793 1609.00 1553.58 42.30
10496 41.5830 1552.30 1552.93 41.60
10497 41.5868 1564.40 1552.28 42.20
10498 41.5906 1598.60 1551.65 42.00
10499 41.5943 1553.40 1551.05 41.10
10500 41.5981 1550.60 1550.44 41.70
10501 41.6018 1643.90 1549.87 42.50
10502 41.6057 1510.90 1549.29 40.70
10503 41.6093 1627.40 1548.74 42.60
10504 41.6132 1606.20 1548.19 42.10
10505 41.6169 1602.10 1547.66 42.00
10506 41.6207 1614.70 1547.13 42.60
10507 41.6245 1633.50 1546.60 42.70
10508 41.6282 1576.60 1546.11 42.00
10509 41.6320 1645.80 1545.61 42.50
10510 41.6357 1580.70 1545.13 41.90
10511 41.6395 1656.70 1544.64 42.90
10512 41.6432 1621.70 1544.18 42.70
10513 41.6469 1638.70 1543.72 42.90
10514 41.6507 1533.30 1543.27 41.40
10515 41.6544 1639.90 1542.82 42.80
10516 41.6581 1608.60 1542.39 42.60
10517 41.6619 1554.30 1541.95 41.60
10518 41.6657 1587.70 1541.53 41.80
10519 41.6694 1620.80 1541.12 42.50
10520 41.6732 1563.10 1540.70 42.30
10521 41.6769 1687.30 1540.30 43.80
10522 41.6808 1546.80 1539.90 41.60
10523 41.6844 1609.80 1539.52 42.80
10524 41.6883 1598.10 1539.12 42.20
10525 41.6920 1634.00 1538.75 43.10
10526 41.6958 1606.40 1538.37 42.50
10527 41.6996 1587.20 1538.00 42.40
10528 41.7033 1483.60 1537.64 40.00
10529 41.7071 1639.90 1537.27 42.80
10530 41.7108 1585.10 1536.92 42.30
10531 41.7146 1552.70 1536.57 41.10
10532 41.7183 1601.00 1536.22 42.40
10533 41.7220 1578.50 1535.88 42.70
10534 41.7257 1547.80 1535.54 41.90
10535 41.7295 1629.30 1535.20 42.40
10536 41.7332 1571.60 1534.88 41.80
10537 41.7370 1657.60 1534.55 43.10
10538 41.7408 1552.90 1534.22 41.70
10539 41.7445 1557.70 1533.91 41.70
10540 41.7483 1557.40 1533.59 41.70
10541 41.7520 1503.40 1523.27 40.90
10542 41.7559 1553.70 1523.10 41.90
10543 41.7595 1627.60 1522.94 43.10
10544 41.7634 1471.20 1522.77 40.50
10545 41.7671 1583.10 1522.61 42.40
10546 41.7709 1562.30 1522.44 40.90
10547 41.7746 1608.40 1522.28 42.40
10548 41.7784 1525.10 1522.11 41.40
10549 41.7822 1664.10 1521.94 43.90
10550 41.7859 1622.40 1521.78 43.20
10551 41.7896 1648.30 1521.61 43.10
10552 41.7934 1506.60 1521.45 41.00
10553 41.7971 1576.40 1521.29 42.20
10554 41.8008 1514.50 1521.12 41.50
10555 41.8046 1617.50 1520.96 42.80
10556 41.8083 1537.40 1520.80 41.60
10557 41.8121 1592.70 1520.63 42.60
10558 41.8158 1476.80 1520.47 40.20
10559 41.8196 1625.90 1520.30 43.20
10560 41.8234 1540.70 1520.13 41.80
10561 41.8271 1556.10 1519.97 41.60
10562 41.8310 1522.10 1519.81 40.90
10563 41.8346 1584.80 1519.65 42.00
10564 41.8385 1634.60 1519.48 42.50
10565 41.8422 1551.40 1519.32 41.40
10566 41.8460 1491.80 1519.15 41.20
10567 41.8497 1624.00 1518.99 42.70
10568 41.8535 1568.00 1518.83 42.30
10569 41.8572 1590.20 1518.66 42.20
10570 41.8610 1496.20 1518.50 40.40
10571 41.8647 1507.80 1518.34 40.80
10572 41.8685 1560.50 1518.17 42.20
10573 41.8722 1570.70 1518.01 42.00
10574 41.8759 1563.80 1517.85 42.10
10575 41.8797 1595.50 1517.68 41.60
10576 41.8834 1562.40 1517.52 41.90
10577 41.8872 1583.80 1517.35 42.00
10578 41.8909 1525.60 1517.19 40.90
10579 41.8947 1544.00 1517.03 41.30
10580 41.8984 1554.90 1516.87 42.50
10581 41.9022 1543.30 1516.70 41.90
10582 41.9059 1526.30 1516.54 42.00
10583 41.9098 1547.90 1516.38 42.00
10584 41.9134 1441.00 1516.22 39.90
10585 41.9173 1555.10 1516.05 41.30
10586 41.9211 1564.00 1515.89 43.20
10587 41.9248 1567.60 1515.73 42.10
10588 41.9286 1522.10 1515.56 41.50
10589 41.9323 1553.30 1515.40 41.60
10590 41.9361 1614.60 1515.24 43.10
10591 41.9398 1574.40 1515.08 42.40
10592 41.9436 1532.60 1514.92 42.00
10593 41.9473 1535.30 1514.76 41.30
10594 41.9510 1577.00 1514.59 42.50
10595 41.9548 1475.30 1514.43 41.20
10596 41.9585 1557.00 1514.27 42.00
10597 41.9622 1570.60 1514.11 42.60
10598 41.9660 1528.00 1513.94 41.30
10599 41.9698 1538.60 1513.78 41.90
10600 41.9735 1506.80 1513.62 41.00
10601 41.9773 1560.60 1513.46 42.50
10602 41.9810 1531.70 1513.30 41.90
10603 41.9849 1672.80 1513.13 43.80
10604 41.9865 1453.00 1513.06 40.10
10605 41.9902 1552.30 1512.90 40.80
10606 41.9940 1480.90 1512.74 40.50
10607 41.9977 1577.80 1512.58 41.60
10608 42.0015 1546.90 1512.42 40.80
10609 42.0053 1566.50 1512.25 42.50
10610 42.0090 1503.60 1512.09 41.10
10611 42.0129 1586.50 1511.93 42.40
10612 42.0165 1423.10 1511.77 39.40
10613 42.0204 1463.90 1511.61 40.20
10614 42.0241 1512.80 1511.45 41.10
10615 42.0279 1494.60 1511.29 40.50
10616 42.0316 1521.60 1511.13 41.20
10617 42.0354 1494.10 1510.97 39.50
10618 42.0392 1549.20 1510.80 41.70
10619 42.0429 1541.60 1510.64 40.90
10620 42.0466 1575.30 1510.48 42.20
10621 42.0504 1542.90 1510.32 41.20
10622 42.0541 1496.00 1510.16 40.70
10623 42.0578 1575.00 1510.00 41.50
10624 42.0616 1497.70 1509.84 40.60
10625 42.0653 1460.60 1509.68 40.30
10626 42.0691 1587.80 1509.52 42.30
10627 42.0729 1594.40 1509.36 42.70
10628 42.0766 1425.30 1509.20 39.70
10629 42.0804 1547.40 1509.04 41.10
10630 42.0841 1516.20 1508.88 41.30
10631 42.0880 1507.60 1508.72 40.70
10632 42.0916 1498.70 1508.56 40.60
10633 42.0955 1546.10 1508.40 41.60
10634 42.0992 1418.20 1508.24 39.60
10635 42.1030 1541.30 1508.08 41.30
10636 42.1067 1666.70 1507.92 43.40
10637 42.1105 1555.20 1507.76 41.70
10638 42.1143 1475.80 1507.60 40.60
10639 42.1180 1510.30 1507.44 40.70
10640 42.1217 1524.30 1507.28 41.20
10641 42.1255 1566.30 1507.12 41.70
10642 42.1292 1516.40 1506.96 41.40
10643 42.1329 1528.20 1506.81 41.40
10644 42.1367 1565.80 1506.64 42.00
10645 42.1404 1525.60 1506.49 41.30
10646 42.1442 1528.00 1506.33 41.60
10647 42.1480 1521.30 1506.17 41.20
10648 42.1517 1569.10 1506.01 41.60
10649 42.1555 1608.00 1505.85 42.40
10650 42.1592 1499.30 1505.69 41.50
10651 42.1631 1538.50 1505.53 41.80
10652 42.1668 1479.50 1505.37 40.70
10653 42.1706 1541.80 1505.21 41.90
10654 42.1743 1467.20 1505.06 40.40
10655 42.1781 1672.40 1504.90 43.70
10656 42.1818 1564.30 1504.74 42.00
10657 42.1856 1569.80 1504.58 42.30
10658 42.1894 1484.20 1504.42 40.10
10659 42.1931 1500.90 1504.26 41.00
10660 42.1968 1519.70 1504.10 41.40
10661 42.2006 1499.10 1503.95 40.50
10662 42.2043 1465.60 1503.79 40.60
10663 42.2080 1493.50 1503.63 41.60
10664 42.2118 1467.20 1503.47 40.90
10665 42.2155 1544.10 1503.32 41.30
10666 42.2193 1533.70 1503.16 41.40
10667 42.2221 1470.60 1503.04 40.80
10668 42.2258 1539.30 1502.88 41.60
10669 42.2296 1481.60 1502.72 40.60
10670 42.2333 1501.40 1502.57 41.10
10671 42.2371 1482.40 1502.41 40.60
10672 42.2408 1567.50 1502.25 42.20
10673 42.2447 1484.90 1502.09 41.10
10674 42.2483 1527.60 1501.94 41.50
10675 42.2522 1483.20 1501.78 41.00
10676 42.2559 1530.30 1501.62 41.00
10677 42.2597 1502.40 1501.47 40.90
10678 42.2634 1561.10 1501.31 42.10
10679 42.2672 1517.90 1501.15 41.00
10680 42.2709 1527.90 1501.00 41.60
10681 42.2747 1534.40 1500.84 41.80
10682 42.2785 1518.70 1500.68 41.40
10683 42.2822 1461.50 1500.52 40.80
10684 42.2859 1552.50 1500.37 42.10
10685 42.2896 1504.70 1500.21 41.10
10686 42.2934 1595.50 1500.05 43.10
10687 42.2971 1467.60 1499.90 40.80
10688 42.3009 1516.80 1499.74 42.00
10689 42.3046 1468.80 1499.59 41.00
10690 42.3084 1559.30 1499.43 42.20
10691 42.3121 1474.10 1499.27 41.10
10692 42.3159 1528.50 1499.11 40.90
10693 42.3198 1465.80 1498.96 41.30
10694 42.3234 1594.40 1498.80 42.40
10695 42.3273 1543.10 1498.64 41.50
10696 42.3310 1487.50 1498.49 40.70
10697 42.3348 1483.70 1498.33 40.50
10698 42.3385 1500.00 1498.18 41.30
10699 42.3423 1514.00 1498.02 41.60
10700 42.3460 1530.60 1497.87 41.70
10701 42.3498 1475.20 1497.71 41.00
10702 42.3535 1571.30 1497.56 42.30
10703 42.3573 1521.20 1497.40 42.00
10704 42.3610 1464.30 1497.25 40.40
10705 42.3647 1496.60 1497.09 41.40
10706 42.3685 1554.50 1496.93 42.10
10707 42.3722 1538.80 1496.78 41.70
10708 42.3760 1499.40 1496.62 41.10
10709 42.3797 1503.20 1496.47 41.40
10710 42.3835 1588.40 1496.31 42.10
10711 42.3872 1479.80 1496.16 40.60
10712 42.3910 1535.40 1496.00 41.80
10713 42.3947 1567.10 1495.85 42.50
10714 42.3985 1506.10 1495.69 41.40
10715 42.4022 1452.20 1495.54 40.90
10716 42.4061 1514.60 1495.38 41.30
10717 42.4099 1423.70 1495.22 39.50
10718 42.4136 1516.30 1495.07 40.70
10719 42.4174 1504.80 1494.92 42.40
10720 42.4211 1557.50 1494.76 42.00
10721 42.4249 1498.20 1494.61 41.00
10722 42.4286 1486.70 1494.45 40.90
10723 42.4324 1490.50 1494.30 41.10
10724 42.4361 1537.70 1494.15 42.10
10725 42.4398 1468.20 1493.99 40.70
10726 42.4436 1504.90 1493.84 41.50
10727 42.4473 1471.30 1493.68 40.50
10728 42.4511 1495.60 1493.53 41.10
10729 42.4548 1423.30 1493.37 39.70
10730 42.4586 1531.30 1493.22 41.50
10731 42.4623 1505.70 1493.07 41.60
10732 42.4661 1455.50 1492.91 41.30
10733 42.4698 1479.20 1492.76 41.20
10734 42.4737 1545.70 1492.60 42.50
10735 42.4773 1505.10 1492.45 41.70
10736 42.4812 1483.20 1492.30 40.40
10737 42.4849 1408.90 1492.15 40.40
10738 42.4887 1536.20 1491.99 41.30
10739 42.4925 1530.70 1491.84 41.60
10740 42.4962 1541.80 1491.68 41.70
10741 42.5000 1475.90 1491.53 40.80
10742 42.5037 1524.60 1491.38 41.50
10743 42.5075 1499.10 1491.22 41.40
10744 42.5112 1569.20 1491.07 42.00
10745 42.5149 1440.80 1490.92 39.90
10746 42.5187 1575.20 1490.77 43.10
10747 42.5224 1442.40 1490.61 40.40
10748 42.5262 1470.10 1490.46 41.00
10749 42.5299 1479.40 1490.31 40.90
10750 42.5337 1482.50 1490.15 41.00
10751 42.5374 1522.10 1490.00 42.00
10752 42.5412 1486.70 1489.85 41.70
10753 42.5449 1478.20 1489.70 41.50
10754 42.5488 1479.50 1489.54 41.00
10755 42.5524 1443.90 1489.39 40.40
10756 42.5563 1503.10 1489.24 41.90
10757 42.5601 1448.60 1489.08 40.30
10758 42.5638 1514.40 1488.93 42.20
10759 42.5676 1539.30 1488.78 42.30
10760 42.5713 1558.10 1488.63 42.70
10761 42.5751 1472.50 1488.48 40.80
10762 42.5788 1439.10 1488.33 40.40
10763 42.5826 1435.90 1488.17 40.60
10764 42.5863 1535.40 1488.02 42.40
10765 42.5900 1437.00 1487.87 40.60
10766 42.5938 1487.00 1487.72 41.50
10767 42.5975 1459.30 1487.57 41.50
10768 42.6013 1535.70 1487.41 42.00
10769 42.6050 1482.20 1487.26 41.50
10770 42.6088 1524.80 1487.11 42.30
10771 42.6125 1527.20 1486.96 41.80
10772 42.6163 1550.80 1486.81 41.80
10773 42.6200 1497.80 1486.66 42.80
10774 42.6239 1497.10 1486.51 41.50
10775 42.6275 1457.80 1486.36 40.70
10776 42.6314 1523.20 1486.20 41.90
10777 42.6352 1585.20 1486.05 43.10
10778 42.6389 1465.90 1485.90 41.10
10779 42.6427 1405.80 1485.75 40.50
10780 42.6464 1549.80 1485.60 42.60
10781 42.6502 1512.10 1485.45 42.10
10782 42.6539 1540.80 1485.30 42.50
10783 42.6576 1504.70 1485.15 42.00
10784 42.6614 1444.60 1484.99 40.60
10785 42.6651 1486.70 1484.85 42.00
10786 42.6689 1470.10 1484.69 40.90
10787 42.6726 1437.20 1484.55 40.80
10788 42.6764 1487.00 1484.39 41.70
10789 42.6801 1491.80 1484.24 42.30
10790 42.6839 1547.30 1484.09 42.00
10791 42.6876 1558.80 1483.94 42.30
10792 42.6914 1521.40 1483.79 41.00
10793 42.6953 1518.10 1483.64 41.00
10794 42.6990 1504.20 1483.49 41.60
10795 42.7028 1532.30 1483.34 41.20
10796 42.7065 1538.90 1483.19 41.40
10797 42.7103 1464.40 1483.04 40.30
10798 42.7140 1509.20 1482.89 40.40
10799 42.7178 1481.10 1482.74 40.50
10800 42.7215 1456.00 1482.60 40.50
10801 42.7253 1543.80 1482.44 41.40
10802 42.7290 1491.00 1482.29 40.70
10803 42.7327 1505.70 1482.15 41.20
10804 42.7365 1590.70 1481.99 42.00
10805 42.7402 1432.90 1481.85 40.30
10806 42.7440 1471.70 1481.70 40.70
10807 42.7477 1503.10 1481.55 40.70
10808 42.7515 1541.40 1481.40 41.60
10809 42.7553 1467.20 1481.25 40.60
10810 42.7590 1516.20 1481.10 41.30
10811 42.7629 1497.60 1480.95 41.00
10812 42.7665 1478.20 1480.80 40.60
10813 42.7704 1380.20 1480.65 39.40
10814 42.7741 1531.10 1483.17 41.50
10815 42.7779 1416.50 1483.06 39.80
10816 42.7816 1540.20 1482.95 41.90
10817 42.7854 1512.50 1482.84 41.60
10818 42.7892 1446.80 1482.73 40.10
10819 42.7929 1405.80 1482.62 39.50
10820 42.7966 1442.90 1482.51 40.00
10821 42.8004 1461.00 1482.41 40.60
10822 42.8041 1510.60 1482.30 41.50
10823 42.8078 1521.40 1482.20 41.30
10824 42.8116 1522.00 1482.10 41.60
10825 42.8154 1397.00 1481.99 38.60
10826 42.8191 1593.10 1481.90 43.30
10827 42.8229 1461.60 1481.80 40.20
10828 42.8266 1514.70 1481.70 41.10
10829 42.8304 1432.80 1481.60 40.10
10830 42.8341 1432.10 1481.51 40.20
10831 42.8380 1407.70 1481.41 39.10
10832 42.8416 1513.70 1481.32 41.20
10833 42.8455 1491.00 1481.23 41.10
10834 42.8493 1500.50 1481.14 41.40
10835 42.8530 1436.80 1481.05 40.10
10836 42.8568 1490.10 1480.96 40.60
10837 42.8605 1443.80 1480.88 40.50
10838 42.8643 1455.80 1480.79 40.50
10839 42.8680 1427.50 1480.71 40.20
10840 42.8717 1448.00 1480.63 39.80
10841 42.8755 1466.00 1480.55 41.00
10842 42.8792 1515.10 1480.48 41.70
10843 42.8830 1405.20 1480.40 39.20
10844 42.8867 1426.90 1480.33 40.10
10845 42.8905 1375.00 1480.26 38.60
10846 42.8942 1474.30 1480.19 40.70
10847 42.8980 1463.60 1480.12 41.00
10848 42.9019 1460.80 1480.06 40.70
10849 42.9055 1492.40 1480.00 41.10
10850 42.9094 1472.60 1479.94 40.40
10851 42.9131 1510.40 1479.88 40.60
10852 42.9169 1414.30 1479.82 40.00
10853 42.9206 1444.10 1479.77 40.60
10854 42.9244 1457.10 1479.72 40.80
10855 42.9282 1458.80 1479.68 40.60
10856 42.9319 1508.20 1479.64 41.20
10857 42.9356 1448.10 1479.60 40.60
10858 42.9394 1492.10 1479.56 40.90
10859 42.9431 1467.00 1479.53 40.50
10860 42.9468 1500.80 1479.50 40.80
10861 42.9506 1439.90 1479.47 40.30
10862 42.9544 1468.90 1479.45 40.70
10863 42.9581 1461.50 1479.43 40.50
10864 42.9619 1557.80 1479.42 41.90
10865 42.9656 1418.30 1479.41 40.20
10866 42.9695 1499.50 1479.40 41.70
10867 42.9731 1458.70 1479.40 39.70
10868 42.9770 1517.20 1479.41 41.10
10869 42.9807 1370.10 1479.42 39.20
10870 42.9845 1448.30 1479.43 39.70
10871 42.9883 1459.80 1479.45 41.00
10872 42.9920 1433.40 1479.48 39.50
10873 42.9958 1459.30 1479.51 40.60
10874 42.9995 1495.50 1479.55 40.90
10875 43.0033 1489.50 1479.60 41.30
10876 43.0070 1491.50 1479.65 41.30
10877 43.0107 1480.40 1479.71 41.00
10878 43.0145 1499.60 1479.78 39.70
10879 43.0182 1451.70 1479.85 40.70
10880 43.0220 1475.80 1479.94 41.30
10881 43.0257 1456.90 1480.03 40.40
10882 43.0295 1486.50 1480.14 40.20
10883 43.0334 1456.70 1480.25 40.50
10884 43.0370 1462.20 1480.37 40.90
10885 43.0409 1415.90 1480.51 40.00
10886 43.0446 1473.70 1480.65 41.20
10887 43.0484 1431.00 1480.81 39.80
10888 43.0521 1483.80 1480.98 41.20
10889 43.0559 1511.70 1481.17 40.70
10890 43.0596 1462.40 1481.37 40.30
10891 43.0634 1510.60 1481.59 41.60
10892 43.0672 1483.00 1481.82 41.20
10893 43.0709 1392.90 1482.07 39.70
10894 43.0746 1519.10 1482.34 40.90
10895 43.0784 1456.80 1482.62 40.70
10896 43.0821 1512.50 1482.93 41.20
10897 43.0859 1434.90 1483.27 40.60
10898 43.0896 1437.80 1483.62 41.00
10899 43.0934 1457.40 1484.00 40.70
10900 43.0971 1526.40 1484.40 42.20
10901 43.1009 1475.90 1484.84 40.90
10902 43.1046 1505.00 1485.30 41.30
10903 43.1085 1420.80 1485.81 40.10
10904 43.1123 1448.00 1486.35 40.60
10905 43.1160 1459.90 1486.91 40.40
10906 43.1198 1535.10 1487.54 42.80
10907 43.1235 1496.00 1488.18 40.50
10908 43.1273 1532.10 1488.90 41.60
10909 43.1310 1477.10 1489.64 41.20
10910 43.1348 1459.90 1490.46 40.80
10911 43.1385 1488.10 1491.35 41.00
10912 43.1423 1598.20 1492.27 42.70
10913 43.1460 1446.10 1493.29 40.70
10914 43.1497 1523.10 1494.36 41.90
10915 43.1535 1522.90 1495.54 42.00
10916 43.1572 1537.00 1496.78 42.40
10917 43.1610 1412.80 1498.16 40.80
10918 43.1648 1554.20 1499.65 41.50
10919 43.1685 1472.90 1501.21 40.20
10920 43.1724 1448.50 1502.96 39.60
10921 43.1760 1489.80 1504.80 40.50
10922 43.1799 1477.30 1506.85 40.60
10923 43.1836 1508.60 1509.02 41.10
10924 43.1874 1568.30 1511.45 42.10
10925 43.1912 1540.30 1514.11 41.60
10926 43.1949 1514.90 1516.94 41.20
10927 43.1987 1485.00 1520.12 40.90
10928 43.2024 1516.90 1523.52 41.40
10929 43.2062 1561.00 1527.37 41.80
10930 43.2099 1506.10 1531.62 41.40
10931 43.2136 1533.60 1536.19 41.10
10932 43.2174 1544.60 1541.41 42.00
10933 43.2211 1540.10 1547.05 42.00
10934 43.2249 1530.70 1553.52 41.80
10935 43.2286 1475.00 1560.57 40.80
10936 43.2324 1568.20 1568.71 41.80
10937 43.2363 1528.40 1577.88 41.30
10938 43.2399 1632.10 1587.99 42.50
10939 43.2438 1549.30 1599.76 41.90
10940 43.2475 1718.40 1612.77 44.70
10941 43.2513 1598.50 1628.01 42.70
10942 43.2550 1641.70 1644.94 43.30
10943 43.2588 1713.20 1664.82 44.30
10944 43.2626 1711.00 1687.57 43.90
10945 43.2663 1669.30 1712.90 42.80
10946 43.2701 1743.20 1742.56 44.40
10947 43.2738 1767.50 1775.31 45.10
10948 43.2775 1832.00 1813.27 45.60
10949 43.2813 1834.40 1855.66 46.10
10950 43.2850 1909.80 1900.94 46.70
10951 43.2888 1869.10 1950.80 46.30
10952 43.2925 1990.40 2001.02 47.40
10953 43.2963 2055.80 2051.81 48.30
10954 43.3000 2149.90 2096.95 49.10
10955 43.3038 2098.40 2134.57 49.40
10956 43.3077 2120.50 2158.91 49.80
10957 43.3114 2151.80 2166.70 50.20
10958 43.3152 2089.80 2157.20 47.40
10959 43.3189 2037.00 2132.21 49.00
10960 43.3227 2083.90 2093.70 49.30
10961 43.3265 1999.10 2046.65 47.10
10962 43.3302 1940.90 1996.75 47.10
10963 43.3340 1837.60 1944.93 45.20
10964 43.3377 1865.40 1896.33 46.00
10965 43.3414 1803.20 1849.81 45.00
10966 43.3451 1756.90 1808.55 44.40
10967 43.3489 1678.30 1770.60 43.10
10968 43.3527 1636.60 1736.96 43.10
10969 43.3564 1654.90 1708.09 43.30
10970 43.3602 1564.30 1682.04 42.00
10971 43.3639 1512.20 1659.80 41.10
10972 43.3677 1581.00 1639.81 41.60
10973 43.3716 1522.90 1622.29 41.30
10974 43.3753 1540.80 1607.33 41.50
10975 43.3791 1479.30 1593.79 40.70
10976 43.3828 1591.00 1582.16 42.20
10977 43.3866 1503.00 1571.59 41.10
10978 43.3903 1468.30 1562.45 40.30
10979 43.3941 1484.80 1554.09 40.50
10980 43.3979 1548.60 1546.62 41.60
10981 43.4016 1512.60 1540.09 40.80
10982 43.4053 1392.10 1534.05 39.40
10983 43.4090 1448.00 1528.73 40.10
10984 43.4128 1438.70 1523.79 39.50
10985 43.4166 1430.50 1519.29 39.30
10986 43.4203 1456.30 1515.29 41.30
10987 43.4241 1426.60 1511.54 39.80
10988 43.4278 1530.70 1508.18 40.70
10989 43.4316 1417.70 1505.02 39.80
10990 43.4353 1419.80 1502.17 39.50
10991 43.4392 1408.20 1499.47 39.60
10992 43.4430 1459.40 1496.96 40.40
10993 43.4467 1431.00 1494.70 39.90
10994 43.4505 1491.70 1492.54 40.90
10995 43.4542 1402.20 1490.58 39.50
10996 43.4580 1413.40 1488.69 39.70
10997 43.4618 1499.80 1486.93 40.50
10998 43.4655 1493.70 1485.32 40.90
10999 43.4692 1456.30 1483.77 40.10
11000 43.4729 1485.80 1482.35 40.60
11001 43.4767 1488.90 1480.97 40.80
11002 43.4805 1429.30 1479.68 39.80
11003 43.4842 1464.50 1478.48 39.90
11004 43.4880 1523.20 1477.32 41.20
11005 43.4917 1422.50 1476.25 39.80
11006 43.4955 1371.60 1475.21 38.90
11007 43.4992 1471.40 1474.24 40.80
11008 43.5031 1458.50 1473.30 40.20
11009 43.5069 1387.70 1472.40 39.40
11010 43.5106 1367.50 1471.56 39.40
11011 43.5144 1454.00 1470.74 40.00
11012 43.5181 1458.30 1469.97 39.90
11013 43.5219 1440.60 1469.22 40.50
11014 43.5257 1399.80 1468.50 39.60
11015 43.5294 1487.40 1467.83 40.50
11016 43.5331 1450.40 1467.16 39.80
11017 43.5368 1438.80 1466.54 39.90
11018 43.5406 1457.30 1465.92 40.50
11019 43.5443 1396.10 1465.34 39.40
11020 43.5481 1438.40 1464.77 40.40
11021 43.5519 1429.00 1464.22 39.90
11022 43.5556 1513.90 1463.70 41.40
11023 43.5594 1474.60 1463.18 40.70
11024 43.5631 1527.40 1462.70 41.40
11025 43.5670 1414.60 1462.21 40.00
11026 43.5708 1371.30 1461.74 39.00
11027 43.5745 1370.40 1461.30 39.20
11028 43.5783 1420.00 1460.86 40.20
11029 43.5820 1378.10 1460.44 39.20
11030 43.5858 1410.40 1460.02 39.80
11031 43.5896 1458.90 1459.62 39.40
11032 43.5933 1415.10 1459.23 39.60
11033 43.5970 1394.10 1458.84 39.50
11034 43.6007 1417.20 1458.48 39.70
11035 43.6045 1410.60 1458.11 39.70
11036 43.6083 1466.60 1457.75 40.40
11037 43.6120 1450.30 1457.41 40.20
11038 43.6158 1442.80 1457.07 40.10
11039 43.6195 1480.20 1456.74 40.80
11040 43.6233 1432.60 1456.41 40.10
11041 43.6270 1430.40 1456.10 40.30
11042 43.6309 1457.80 1455.78 40.60
11043 43.6347 1414.30 1455.48 39.50
11044 43.6384 1451.30 1455.18 40.20
11045 43.6422 1498.80 1454.88 41.40
11046 43.6459 1466.50 1454.60 40.40
11047 43.6497 1415.50 1454.31 39.50
11048 43.6535 1475.60 1454.03 40.20
11049 43.6572 1358.10 1453.76 38.70
11050 43.6609 1455.40 1453.49 40.00
11051 43.6646 1402.20 1453.23 39.20
11052 43.6684 1441.60 1452.97 39.90
11053 43.6722 1459.70 1452.71 40.30
11054 43.6759 1443.60 1452.46 39.90
11055 43.6797 1446.60 1452.21 40.10
11056 43.6834 1441.40 1451.96 39.90
11057 43.6872 1404.10 1451.72 39.50
11058 43.6909 1430.00 1451.48 39.60
11059 43.6948 1375.20 1451.25 38.80
11060 43.6986 1409.80 1451.01 39.70
11061 43.7023 1382.60 1450.78 38.50
11062 43.7061 1401.80 1450.55 39.60
11063 43.7098 1390.80 1450.33 39.50
11064 43.7136 1470.50 1450.11 40.30
11065 43.7174 1338.80 1449.89 37.60
11066 43.7211 1488.20 1449.67 41.30
11067 43.7248 1421.80 1449.46 39.30
11068 43.7285 1414.10 1449.25 39.20
11069 43.7323 1429.60 1449.04 39.20
11070 43.7361 1384.90 1448.83 39.20
11071 43.7398 1494.90 1448.62 40.80
11072 43.7436 1421.70 1448.42 40.10
11073 43.7473 1388.60 1448.22 39.30
11074 43.7511 1417.90 1448.01 39.60
11075 43.7550 1414.40 1447.81 39.80
11076 43.7587 1436.00 1447.62 40.40
11077 43.7625 1428.50 1447.42 39.70
11078 43.7662 1410.80 1447.23 39.40
11079 43.7700 1411.00 1447.04 39.70
11080 43.7738 1468.60 1446.85 40.10
11081 43.7775 1450.40 1446.66 40.10
11082 43.7812 1369.00 1446.47 39.10
11083 43.7850 1452.10 1446.29 40.30
11084 43.7887 1429.20 1446.10 39.90
11085 43.7924 1477.30 1445.92 40.00
11086 43.7962 1459.60 1445.74 39.90
11087 43.8000 1466.00 1445.55 40.70
11088 43.8037 1412.00 1445.38 39.40
11089 43.8075 1435.00 1445.20 39.80
11090 43.8112 1421.20 1445.02 39.50
11091 43.8150 1403.70 1444.84 39.30
11092 43.8189 1441.50 1444.67 39.60
11093 43.8226 1481.00 1444.50 41.30
11094 43.8264 1425.00 1444.32 39.50
11095 43.8301 1393.40 1444.15 38.90
11096 43.8339 1409.90 1443.98 39.30
11097 43.8377 1424.50 1443.81 40.00
11098 43.8414 1428.20 1443.64 39.50
11099 43.8451 1407.70 1443.47 39.30
11100 43.8489 1451.40 1443.30 40.20
11101 43.8526 1463.00 1440.50 40.60
11102 43.8564 1438.50 1440.37 39.90
11103 43.8601 1382.10 1440.24 39.30
11104 43.8639 1454.50 1440.11 40.30
11105 43.8676 1446.10 1439.98 40.10
11106 43.8714 1408.40 1439.85 39.40
11107 43.8753 1414.00 1439.72 39.40
11108 43.8789 1463.60 1439.59 40.40
11109 43.8828 1383.20 1439.46 39.00
11110 43.8865 1427.70 1439.33 39.70
11111 43.8903 1405.10 1439.20 39.50
11112 43.8941 1452.10 1439.07 39.10
11113 43.8978 1456.70 1438.94 40.40
11114 43.9016 1440.90 1438.81 40.20
11115 43.9053 1464.50 1438.69 39.60
11116 43.9090 1513.20 1438.55 40.60
11117 43.9128 1420.80 1438.42 39.10
11118 43.9165 1469.50 1438.30 39.50
11119 43.9203 1440.00 1438.17 40.30
11120 43.9240 1446.10 1438.04 40.40
11121 43.9278 1419.90 1437.91 39.30
11122 43.9315 1477.40 1437.78 40.20
11123 43.9353 1476.30 1437.65 40.10
11124 43.9392 1423.10 1437.52 39.30
11125 43.9428 1408.30 1437.40 39.30
11126 43.9467 1429.60 1437.27 39.60
11127 43.9504 1429.90 1437.14 40.10
11128 43.9542 1464.00 1437.01 40.00
11129 43.9580 1412.90 1436.88 39.70
11130 43.9617 1375.40 1436.76 39.20
11131 43.9655 1400.80 1456.12 39.50
11132 43.9692 1469.90 1456.26 40.50
11133 43.9729 1406.00 1456.40 39.70
11134 43.9767 1471.20 1456.56 40.10
11135 43.9804 1456.70 1456.71 40.30
11136 43.9842 1393.70 1456.88 39.20
11137 43.9879 1463.30 1457.04 40.20
11138 43.9917 1410.40 1457.22 39.40
11139 43.9955 1428.30 1457.41 40.20
11140 43.9992 1441.70 1457.59 39.90
11141 44.0031 1416.60 1457.79 39.40
11142 44.0067 1417.20 1457.99 39.70
11143 44.0106 1372.00 1458.21 38.70
11144 44.0144 1392.40 1458.43 38.90
11145 44.0181 1391.90 1458.65 39.00
11146 44.0219 1443.40 1458.89 40.70
11147 44.0256 1410.10 1459.13 39.50
11148 44.0294 1527.30 1459.38 41.10
11149 44.0331 1405.40 1459.65 39.40
11150 44.0368 1415.80 1459.91 39.80
11151 44.0406 1403.20 1460.20 39.60
11152 44.0443 1498.40 1460.48 40.40
11153 44.0481 1454.90 1460.78 40.00
11154 44.0519 1572.80 1461.10 41.70
11155 44.0556 1453.20 1461.41 40.20
11156 44.0594 1458.70 1461.75 40.20
11157 44.0631 1451.20 1462.09 40.00
11158 44.0670 1519.90 1462.44 40.60
11159 44.0708 1480.20 1462.81 40.80
11160 44.0745 1452.30 1463.19 39.70
11161 44.0783 1382.80 1463.59 39.20
11162 44.0820 1468.20 1463.98 40.20
11163 44.0858 1442.10 1464.41 40.00
11164 44.0896 1420.20 1464.85 39.20
11165 44.0933 1393.80 1465.29 39.40
11166 44.0970 1524.20 1465.76 41.40
11167 44.1007 1459.20 1466.23 40.50
11168 44.1045 1532.60 1466.74 41.60
11169 44.1083 1391.10 1467.26 39.60
11170 44.1120 1499.20 1467.78 40.60
11171 44.1158 1369.30 1468.34 38.70
11172 44.1195 1451.40 1468.90 40.10
11173 44.1233 1392.20 1469.49 40.20
11174 44.1272 1429.50 1470.11 39.90
11175 44.1309 1486.60 1470.73 40.20
11176 44.1347 1411.10 1471.40 39.30
11177 44.1384 1454.80 1472.06 40.10
11178 44.1422 1410.70 1472.77 39.90
11179 44.1460 1469.10 1473.51 40.50
11180 44.1497 1499.60 1474.25 40.90
11181 44.1535 1448.20 1475.04 39.80
11182 44.1572 1395.90 1475.83 39.20
11183 44.1609 1483.10 1476.68 40.70
11184 44.1647 1559.50 1477.56 41.90
11185 44.1684 1490.80 1478.44 41.00
11186 44.1722 1499.70 1479.39 40.60
11187 44.1759 1530.40 1480.34 41.30
11188 44.1797 1417.40 1481.36 40.20
11189 44.1836 1499.30 1482.41 41.00
11190 44.1872 1464.20 1483.48 40.70
11191 44.1911 1445.90 1484.61 40.00
11192 44.1948 1514.80 1485.76 41.10
11193 44.1986 1486.30 1486.99 40.90
11194 44.2023 1497.70 1488.23 41.00
11195 44.2061 1463.00 1489.55 40.90
11196 44.2099 1510.20 1490.93 41.00
11197 44.2136 1517.70 1492.33 40.80
11198 44.2174 1494.70 1493.82 40.10
11199 44.2211 1505.90 1495.37 42.40
11200 44.2248 1464.90 1496.95 40.60
11201 44.2286 1495.30 1498.63 40.40
11202 44.2323 1489.20 1500.34 40.80
11203 44.2361 1582.90 1502.17 42.20
11204 44.2399 1495.80 1504.08 40.80
11205 44.2436 1598.40 1506.02 42.50
11206 44.2475 1481.80 1508.10 40.30
11207 44.2511 1445.70 1510.21 40.40
11208 44.2550 1473.10 1512.48 40.20
11209 44.2587 1550.40 1514.78 41.70
11210 44.2625 1596.60 1517.26 42.20
11211 44.2663 1495.80 1519.86 40.80
11212 44.2700 1439.80 1522.51 39.80
11213 44.2738 1548.40 1525.35 41.40
11214 44.2775 1543.00 1528.26 41.40
11215 44.2812 1523.50 1531.39 41.10
11216 44.2850 1510.00 1534.68 41.00
11217 44.2887 1504.60 1538.04 40.90
11218 44.2925 1591.70 1541.67 42.20
11219 44.2963 1493.00 1545.49 40.80
11220 44.3000 1482.00 1549.40 40.60
11221 44.3038 1497.60 1553.63 40.40
11222 44.3075 1604.40 1557.97 42.90
11223 44.3114 1578.30 1562.67 41.50
11224 44.3150 1593.40 1567.50 42.20
11225 44.3189 1515.60 1572.75 40.50
11226 44.3227 1664.50 1578.30 44.30
11227 44.3264 1478.90 1584.03 40.10
11228 44.3302 1629.40 1590.25 42.80
11229 44.3339 1536.80 1596.68 41.60
11230 44.3377 1597.20 1603.69 42.30
11231 44.3414 1624.50 1611.15 43.00
11232 44.3451 1619.10 1618.88 42.20
11233 44.3489 1615.60 1627.33 42.20
11234 44.3527 1606.70 1636.35 42.30
11235 44.3564 1614.70 1645.73 42.00
11236 44.3602 1616.60 1656.03 42.90
11237 44.3639 1660.30 1666.77 43.00
11238 44.3677 1690.50 1678.60 44.00
11239 44.3714 1645.60 1690.95 42.60
11240 44.3753 1736.60 1704.61 44.50
11241 44.3791 1670.10 1719.32 43.60
11242 44.3828 1711.70 1734.80 43.70
11243 44.3866 1719.80 1751.96 43.60
11244 44.3903 1775.60 1770.07 45.00
11245 44.3941 1788.50 1790.22 44.50
11246 44.3979 1858.30 1812.20 45.60
11247 44.4016 1728.80 1835.46 44.50
11248 44.4053 1886.80 1861.60 46.20
11249 44.4091 1874.50 1890.24 45.30
11250 44.4128 1911.30 1920.81 46.80
11251 44.4166 1962.20 1955.38 46.60
11252 44.4203 2078.70 1992.50 49.70
11253 44.4241 1998.10 2034.72 48.00
11254 44.4280 2145.10 2081.61 49.10
11255 44.4316 2220.20 2132.50 50.30
11256 44.4355 2316.10 2190.84 51.80
11257 44.4392 2270.20 2254.56 51.30
11258 44.4430 2402.70 2328.05 52.50
11259 44.4467 2480.90 2408.81 53.30
11260 44.4505 2571.70 2502.48 54.60
11261 44.4543 2731.40 2608.91 56.30
11262 44.4580 2858.10 2726.49 57.70
11263 44.4618 3026.40 2864.02 59.40
11264 44.4655 3323.20 3020.65 63.10
11265 44.4692 3358.60 3194.01 63.00
11266 44.4730 3621.50 3396.37 66.10
11267 44.4767 3818.00 3619.30 67.70
11268 44.4805 4169.20 3877.28 70.70
11269 44.4843 4488.80 4165.42 74.00
11270 44.4880 4820.30 4474.87 76.50
11271 44.4919 4938.20 4817.94 77.40
11272 44.4955 5864.60 5169.49 83.40
11273 44.4994 5934.00 5533.60 86.40
11274 44.5032 6408.10 5880.39 91.10
11275 44.5069 6437.20 6174.64 89.80
11276 44.5107 6884.60 6402.87 94.00
11277 44.5144 6751.80 6527.08 91.90
11278 44.5182 6939.30 6537.58 92.10
11279 44.5219 6853.80 6427.86 95.70
11280 44.5257 6601.80 6219.77 90.80
11281 44.5294 6320.00 5927.22 88.50
11282 44.5331 5888.30 5594.66 85.60
11283 44.5369 5382.60 5231.40 81.20
11284 44.5407 5026.70 4868.97 78.80
11285 44.5444 4555.90 4530.94 74.20
11286 44.5482 4190.90 4208.85 72.00
11287 44.5519 3704.10 3923.08 66.10
11288 44.5558 3502.90 3659.95 64.80
11289 44.5596 3167.60 3426.10 61.30
11290 44.5633 3000.90 3224.95 59.40
11291 44.5671 2660.80 3042.83 55.60
11292 44.5708 2586.00 2886.98 55.40
11293 44.5746 2379.70 2746.19 52.50
11294 44.5784 2421.50 2622.47 53.40
11295 44.5821 2174.80 2516.64 50.20
11296 44.5858 2190.40 2420.49 50.50
11297 44.5896 1951.70 2337.82 47.80
11298 44.5933 2085.30 2262.47 48.80
11299 44.5971 1932.80 2195.61 47.40
11300 44.6008 1914.20 2137.46 47.10
11301 44.6046 1838.70 2084.06 45.90
11302 44.6083 1886.50 2037.32 47.40
11303 44.6121 1773.40 1994.12 44.50
11304 44.6160 1776.50 1955.10 44.80
11305 44.6197 1834.70 1920.68 45.90
11306 44.6235 1764.40 1888.52 45.30
11307 44.6272 1689.60 1860.00 44.00
11308 44.6310 1724.00 1833.21 43.60
11309 44.6348 1694.40 1808.70 43.40
11310 44.6385 1695.50 1786.79 44.20
11311 44.6423 1595.20 1766.05 42.30
11312 44.6460 1694.60 1747.48 44.10
11313 44.6497 1664.70 1729.80 43.70
11314 44.6535 1629.70 1713.48 42.20
11315 44.6572 1594.30 1698.71 42.60
11316 44.6610 1669.00 1684.64 43.70
11317 44.6647 1547.80 1671.87 42.00
11318 44.6685 1686.80 1659.66 44.60
11319 44.6724 1607.90 1648.26 42.60
11320 44.6760 1636.80 1637.88 43.30
11321 44.6799 1596.00 1627.89 43.70
11322 44.6836 1618.80 1618.78 42.40
11323 44.6874 1511.30 1609.98 41.50
11324 44.6912 1607.00 1601.72 42.10
11325 44.6949 1567.60 1594.15 42.70
11326 44.6987 1521.00 1586.81 42.00
11327 44.7024 1569.40 1580.08 42.60
11328 44.7062 1594.10 1573.54 42.80
11329 44.7099 1496.60 1567.36 40.50
11330 44.7136 1534.50 1561.67 42.10
11331 44.7174 1475.90 1556.13 40.80
11332 44.7211 1503.50 1551.01 41.60
11333 44.7249 1522.00 1546.02 42.30
11334 44.7287 1515.10 1541.27 41.50
11335 44.7324 1449.80 1536.88 40.50
11336 44.7363 1562.80 1532.59 42.20
11337 44.7399 1458.00 1528.60 41.00
11338 44.7438 1492.10 1524.70 41.40
11339 44.7476 1418.20 1520.97 40.10
11340 44.7513 1498.40 1517.51 41.30
11341 44.7551 1494.30 1514.11 40.60
11342 44.7588 1578.30 1510.94 42.70
11343 44.7626 1478.40 1507.83 41.30
11344 44.7663 1480.40 1504.85 40.80
11345 44.7701 1464.80 1502.06 40.10
11346 44.7738 1458.70 1499.32 40.60
11347 44.7775 1392.70 1496.76 39.80
11348 44.7813 1472.10 1494.23 41.10
11349 44.7851 1438.70 1491.80 40.50
11350 44.7888 1547.90 1489.53 42.10
11351 44.7926 1447.50 1487.28 40.70
11352 44.7963 1445.40 1485.17 40.50
11353 44.8002 1450.60 1483.09 40.80
11354 44.8040 1506.20 1481.08 40.90
11355 44.8115 1522.30 1477.32 40.30
11356 44.8152 1439.20 1475.56 40.50
11357 44.8190 1549.40 1473.82 41.50
11358 44.8228 1486.30 1472.14 41.90
11359 44.8265 1436.10 1470.55 40.60
11360 44.8302 1383.60 1468.97 39.50
11361 44.8340 1499.40 1467.49 41.00
11362 44.8377 1363.40 1466.01 39.00
11363 44.8415 1455.60 1464.58 40.40
11364 44.8452 1422.00 1463.24 40.30
11365 44.8490 1466.90 1461.89 41.00
11366 44.8527 1443.90 1460.63 40.60
11367 44.8565 1445.90 1459.36 40.70
11368 44.8604 1460.10 1458.14 40.90
11369 44.8641 1466.40 1456.98 40.50
11370 44.8679 1408.50 1455.82 39.90
11371 44.8716 1455.70 1454.72 40.70
11372 44.8754 1389.70 1453.63 39.50
11373 44.8792 1469.50 1452.57 40.70
11374 44.8829 1396.60 1451.56 39.40
11375 44.8867 1382.60 1450.55 39.60
11376 44.8904 1440.60 1449.60 40.50
11377 44.8941 1448.60 1448.65 40.50
11378 44.8979 1379.00 1447.72 39.30
11379 44.9016 1438.70 1446.83 40.60
11380 44.9054 1439.90 1445.95 40.10
11381 44.9091 1481.80 1445.11 41.40
11382 44.9129 1403.70 1444.27 39.90
11383 44.9168 1406.80 1443.45 39.90
11384 44.9204 1412.90 1442.67 40.20
11385 44.9243 1417.80 1441.89 40.60
11386 44.9280 1446.90 1441.14 40.30
11387 44.9318 1449.70 1440.40 40.30
11388 44.9356 1390.10 1439.67 39.20
11389 44.9393 1449.00 1438.97 40.30
11390 44.9431 1386.30 1438.28 40.10
11391 44.9468 1438.40 1437.61 40.70
11392 44.9506 1372.70 1436.94 39.70
11393 44.9543 1446.70 1436.29 41.10
11394 44.9580 1386.30 1435.67 39.70
11395 44.9618 1411.90 1435.04 40.00
11396 44.9655 1430.90 1434.45 40.30
11397 44.9693 1399.40 1433.84 39.90
11398 44.9731 1367.90 1433.26 39.60
11399 44.9768 1411.10 1432.69 39.20
11400 44.9807 1354.90 1432.13 38.80
11401 44.9843 1365.10 1431.59 39.40
11402 44.9882 1383.40 1431.04 40.00
11403 44.9920 1414.50 1430.51 40.20
11404 44.9957 1309.20 1430.00 38.10
11405 44.9995 1402.80 1429.48 39.40
11406 45.0032 1369.20 1428.99 39.40
11407 45.0070 1446.20 1428.49 40.80
11408 45.0107 1389.30 1428.00 40.10
11409 45.0145 1351.10 1427.54 38.70
11410 45.0182 1362.20 1427.07 38.70
11411 45.0219 1479.50 1426.62 41.70
11412 45.0257 1363.70 1426.16 39.70
11413 45.0295 1407.40 1425.71 40.00
11414 45.0332 1440.00 1425.29 40.40
11415 45.0370 1359.40 1424.85 39.30
11416 45.0407 1349.60 1424.44 38.40
11417 45.0446 1466.90 1424.02 41.30
11418 45.0484 1299.20 1423.60 38.20
11419 45.0521 1311.30 1423.21 38.70
11420 45.0559 1392.90 1422.81 39.20
11421 45.0596 1453.90 1422.42 40.40
11422 45.0634 1346.90 1422.04 38.90
11423 45.0672 1512.60 1421.65 41.80
11424 45.0709 1363.60 1401.88 39.40
11425 45.0746 1436.60 1401.77 40.60
11426 45.0784 1390.10 1401.66 39.30
11427 45.0821 1450.70 1401.55 40.80
11428 45.0859 1427.30 1401.44 41.40
11429 45.0896 1427.30 1401.33 40.60
11430 45.0934 1443.80 1401.22 40.40
11431 45.0971 1457.50 1401.12 40.40
11432 45.1009 1358.30 1401.01 40.10
11433 45.1048 1369.40 1400.90 39.20
11434 45.1085 1341.90 1400.79 39.00
11435 45.1123 1437.50 1400.68 40.60
11436 45.1160 1391.80 1400.58 39.10
11437 45.1198 1442.40 1400.47 41.00
11438 45.1236 1423.30 1400.36 40.70
11439 45.1273 1368.90 1400.25 39.30
11440 45.1311 1419.50 1400.15 40.00
11441 45.1348 1400.70 1400.04 39.60
11442 45.1385 1340.00 1399.93 38.20
11443 45.1423 1422.60 1399.82 40.20
11444 45.1460 1384.10 1399.72 39.90
11445 45.1498 1443.80 1399.61 40.90
11446 45.1535 1368.30 1399.50 39.20
11447 45.1573 1400.60 1399.40 40.30
11448 45.1612 1390.00 1399.29 39.90
11449 45.1648 1410.40 1399.18 40.50
11450 45.1687 1365.40 1399.07 39.20
11451 45.1724 1396.50 1398.97 40.00
11452 45.1762 1342.10 1398.86 39.30
11453 45.1799 1487.80 1398.76 41.20
11454 45.1837 1352.60 1398.65 39.30
11455 45.1875 1409.10 1398.54 39.80
11456 45.1912 1360.10 1398.43 39.20
11457 45.1950 1471.80 1398.33 40.80
11458 45.1987 1343.40 1398.22 39.10
11459 45.2024 1385.10 1398.11 40.10
11460 45.2062 1367.50 1398.01 39.40
11461 45.2099 1420.00 1397.90 40.50
11462 45.2137 1355.60 1397.80 39.30
11463 45.2174 1283.40 1397.69 37.80
11464 45.2212 1392.00 1397.58 40.50
11465 45.2251 1349.30 1397.48 39.90
11466 45.2287 1337.10 1397.37 38.70
11467 45.2326 1369.00 1397.27 39.00
11468 45.2363 1374.30 1397.16 39.60
11469 45.2401 1395.30 1397.05 39.60
11470 45.2439 1330.20 1396.95 38.90
11471 45.2476 1421.30 1396.84 40.30
11472 45.2514 1352.10 1396.74 39.10
11473 45.2551 1469.80 1396.63 41.20
11474 45.2589 1399.80 1396.53 40.30
11475 45.2626 1391.60 1396.42 40.20
11476 45.2663 1366.30 1396.32 39.30
11477 45.2701 1363.40 1396.21 39.10
11478 45.2738 1318.90 1396.11 38.70
11479 45.2776 1379.00 1396.00 39.80
11480 45.2814 1345.70 1395.89 38.70
11481 45.2851 1372.70 1395.79 39.20
11482 45.2890 1376.20 1395.68 39.70
11483 45.2926 1399.80 1395.58 40.00
11484 45.2965 1305.60 1395.48 38.20
11485 45.3003 1373.10 1395.37 40.00
11486 45.3040 1325.30 1395.27 38.70
11487 45.3078 1434.10 1395.16 39.60
11488 45.3115 1415.70 1395.06 40.10
11489 45.3153 1385.30 1394.95 39.20
11490 45.3190 1388.90 1394.85 39.20
11491 45.3228 1363.80 1394.74 40.70
11492 45.3265 1413.00 1394.64 40.50
11493 45.3302 1360.30 1394.54 38.40
11494 45.3340 1362.30 1394.43 39.70
11495 45.3378 1347.30 1394.33 39.00
11496 45.3453 1372.80 1394.12 39.80
11497 45.3490 1313.70 1394.02 38.20
11498 45.3529 1447.80 1393.91 40.50
11499 45.3565 1353.30 1393.81 39.00
11500 45.3604 1466.80 1393.70 41.30
11501 45.3642 1400.70 1393.60 40.30
11502 45.3679 1350.50 1393.50 39.50
11503 45.3717 1337.00 1393.39 38.80
11504 45.3754 1426.90 1393.29 40.40
11505 45.3792 1354.40 1393.19 39.40
11506 45.3829 1362.10 1393.08 39.30
11507 45.3867 1360.20 1392.98 39.30
11508 45.3904 1415.90 1392.87 40.10
11509 45.3941 1343.70 1392.77 39.10
11510 45.3979 1398.30 1392.67 39.50
11511 45.4017 1338.10 1392.56 39.40
11512 45.4054 1380.40 1392.46 39.10
11513 45.4092 1314.10 1392.36 38.30
11514 45.4129 1385.10 1392.26 40.10
11515 45.4168 1346.40 1392.15 38.90
11516 45.4206 1448.20 1392.05 40.00
11517 45.4243 1329.60 1391.95 39.10
11518 45.4281 1316.40 1391.85 38.90
11519 45.4318 1368.80 1391.74 39.40
11520 45.4356 1373.40 1391.64 39.40
11521 45.4394 1288.30 1391.54 38.30
11522 45.4431 1338.80 1391.44 38.80
11523 45.4468 1331.80 1391.33 39.00
11524 45.4506 1394.50 1391.23 39.50
11525 45.4543 1320.60 1391.13 38.80
11526 45.4581 1364.80 1391.03 39.70
11527 45.4618 1310.80 1390.93 38.90
11528 45.4656 1370.40 1390.82 39.80
11529 45.4693 1376.90 1390.72 39.70
11530 45.4731 1425.40 1390.62 40.80
11531 45.4768 1330.30 1390.52 38.90
11532 45.4807 1393.80 1390.42 40.10
11533 45.4845 1299.40 1390.31 38.20
11534 45.4882 1347.20 1390.21 39.30
11535 45.4920 1343.30 1390.11 39.20
11536 45.4957 1414.20 1390.01 40.00
11537 45.4995 1382.00 1389.91 39.50
11538 45.5033 1494.60 1389.81 41.20
11539 45.5070 1331.10 1389.71 38.10
11540 45.5107 1357.70 1389.60 39.30
11541 45.5145 1375.30 1389.50 39.70
11542 45.5182 1399.50 1389.40 39.80
11543 45.5220 1367.90 1389.30 39.70
11544 45.5257 1368.70 1389.20 40.00
11545 45.5295 1345.90 1389.10 38.80
11546 45.5332 1373.80 1389.00 39.00
11547 45.5370 1361.50 1388.90 39.60
11548 45.5409 1308.30 1388.80 38.40
11549 45.5446 1351.50 1388.70 39.10
11550 45.5484 1404.60 1388.59 39.90
11551 45.5521 1325.50 1388.50 38.80
11552 45.5559 1447.60 1388.39 40.90
11553 45.5596 1330.70 1388.30 38.50
11554 45.5634 1372.30 1388.19 39.50
11555 45.5672 1310.80 1388.09 38.80
11556 45.5709 1332.60 1387.99 39.00
11557 45.5746 1387.70 1387.89 39.50
11558 45.5784 1429.80 1387.79 40.50
11559 45.5821 1309.20 1387.69 38.60
11560 45.5859 1389.80 1387.59 39.60
11561 45.5896 1307.20 1387.49 37.90
11562 45.5934 1409.80 1387.39 39.10
11563 45.5971 1337.70 1387.29 38.80
11564 45.6009 1361.60 1387.19 38.60
11565 45.6048 1403.60 1387.09 40.40
11566 45.6085 1368.30 1386.99 39.80
11567 45.6123 1408.40 1386.89 40.40
11568 45.6160 1390.80 1386.80 40.00
11569 45.6198 1393.20 1386.69 39.00
11570 45.6236 1365.70 1386.59 39.60
11571 45.6273 1306.60 1386.50 38.30
11572 45.6311 1392.80 1386.40 39.60
11573 45.6348 1365.10 1386.30 39.00
11574 45.6385 1334.10 1386.20 38.60
11575 45.6423 1416.50 1386.10 40.30
11576 45.6460 1393.40 1386.00 40.10
11577 45.6498 1401.20 1385.90 40.30
11578 45.6535 1450.90 1385.80 41.00
11579 45.6573 1366.40 1385.70 39.30
11580 45.6610 1476.10 1385.61 41.50
11581 45.6648 1339.60 1385.51 39.40
11582 45.6687 1389.60 1385.41 40.10
11583 45.6724 1300.60 1385.31 38.60
11584 45.6762 1444.00 1385.21 40.60
11585 45.6799 1246.60 1385.11 37.60
11586 45.6837 1369.20 1385.01 40.00
11587 45.6875 1390.60 1384.91 40.20
11588 45.6912 1385.80 1384.82 40.20
11589 45.6950 1371.30 1384.72 39.40
11590 45.6987 1362.50 1384.62 39.80
11591 45.7024 1389.50 1384.52 40.30
11592 45.7062 1357.70 1384.43 39.80
11593 45.7099 1346.50 1384.33 39.70
11594 45.7137 1342.80 1384.23 39.40
11595 45.7174 1321.90 1384.13 38.70
11596 45.7212 1325.90 1384.03 38.50
11597 45.7249 1322.70 1383.94 40.20
11598 45.7287 1437.30 1383.84 40.70
11599 45.7326 1317.70 1383.74 39.00
11600 45.7363 1382.90 1383.64 40.10
11601 45.7401 1425.60 1383.54 40.20
11602 45.7438 1375.90 1383.45 39.80
11603 45.7476 1269.00 1383.35 38.30
11604 45.7513 1392.30 1383.25 40.00
11605 45.7551 1348.50 1383.16 38.40
11606 45.7589 1388.60 1383.06 39.60
11607 45.7626 1331.50 1382.96 39.20
11608 45.7663 1406.30 1382.86 40.30
11609 45.7701 1369.80 1382.77 39.40
11610 45.7738 1354.70 1382.67 39.80
11611 45.7776 1314.30 1382.57 39.10
11612 45.7813 1348.70 1382.48 39.90
11613 45.7851 1321.20 1382.38 39.00
11614 45.7888 1387.50 1382.28 40.20
11615 45.7926 1319.00 1382.19 38.70
11616 45.7963 1388.60 1382.09 40.30
11617 45.8002 1326.80 1381.99 38.80
11618 45.8040 1426.40 1381.90 40.30
11619 45.8077 1334.90 1381.80 38.70
11620 45.8115 1399.70 1381.70 40.00
11621 45.8152 1363.30 1381.61 40.20
11622 45.8190 1430.30 1381.51 40.10
11623 45.8228 1322.60 1381.41 39.20
11624 45.8265 1399.40 1381.32 41.60
11625 45.8302 1327.70 1381.22 38.80
11626 45.8340 1397.30 1381.13 39.90
11627 45.8377 1345.30 1381.03 39.50
11628 45.8415 1363.70 1380.93 39.80
11629 45.8452 1348.70 1380.84 39.70
11630 45.8490 1432.80 1380.74 40.60
11631 45.8527 1331.50 1380.65 39.10
11632 45.8565 1306.00 1380.55 38.80
11633 45.8602 1286.10 1380.46 38.30
11634 45.8641 1378.30 1380.36 40.00
11635 45.8679 1444.10 1380.26 41.20
11636 45.8716 1295.30 1380.17 38.70
11637 45.8754 1317.10 1380.07 38.10
11638 45.8791 1358.30 1379.98 39.60
11639 45.8829 1322.60 1379.88 39.30
11640 45.8867 1335.50 1379.79 39.30
11641 45.8904 1323.00 1379.69 39.40
11642 45.8941 1362.20 1389.49 38.90
11643 45.8979 1342.30 1389.53 39.00
11644 45.9016 1398.60 1389.57 40.50
11645 45.9053 1335.30 1389.61 39.10
11646 45.9091 1395.30 1389.65 40.30
11647 45.9129 1370.70 1389.70 40.00
11648 45.9166 1430.80 1389.74 40.70
11649 45.9204 1286.20 1389.80 37.70
11650 45.9241 1373.20 1389.85 41.00
11651 45.9280 1387.90 1389.91 39.40
11652 45.9316 1366.50 1389.97 39.50
11653 45.9355 1291.90 1390.04 38.00
11654 45.9393 1351.80 1390.10 39.50
11655 45.9430 1302.70 1390.18 38.90
11656 45.9468 1418.80 1390.25 40.20
11657 45.9505 1292.00 1390.33 38.90
11658 45.9543 1354.30 1390.41 40.20
11659 45.9580 1350.30 1390.50 39.00
11660 45.9618 1319.90 1390.59 39.90
11661 45.9655 1328.00 1390.69 39.40
11662 45.9692 1405.10 1390.78 40.50
11663 45.9730 1316.50 1390.89 39.40
11664 45.9767 1448.20 1391.00 41.10
11665 45.9805 1433.00 1391.11 40.80
11666 45.9843 1297.70 1391.23 38.90
11667 45.9880 1361.10 1391.35 39.90
11668 45.9919 1434.70 1391.48 41.40
11669 45.9955 1350.10 1391.61 38.90
11670 45.9994 1372.30 1391.75 40.30
11671 46.0031 1401.80 1391.89 40.20
11672 46.0069 1400.70 1392.05 40.00
11673 46.0107 1374.30 1392.20 40.20
11674 46.0144 1331.10 1392.36 39.20
11675 46.0182 1329.70 1392.54 39.20
11676 46.0219 1342.10 1392.71 38.90
11677 46.0257 1355.30 1392.89 40.90
11678 46.0294 1404.20 1393.08 40.60
11679 46.0331 1318.70 1393.28 38.90
11680 46.0369 1364.50 1393.48 40.10
11681 46.0406 1348.10 1393.69 39.60
11682 46.0444 1377.20 1393.92 39.40
11683 46.0481 1396.10 1394.14 40.60
11684 46.0519 1412.10 1394.38 40.00
11685 46.0558 1394.20 1394.63 39.20
11686 46.0594 1434.80 1394.88 40.10
11687 46.0633 1452.40 1395.15 40.30
11688 46.0670 1445.60 1395.42 40.20
11689 46.0708 1396.20 1395.71 39.80
11690 46.0745 1376.00 1396.00 39.20
11691 46.0783 1403.60 1396.31 39.60
11692 46.0821 1379.00 1396.64 39.40
11693 46.0858 1327.00 1396.96 38.50
11694 46.0896 1408.10 1397.31 39.90
11695 46.0933 1403.80 1397.66 39.50
11696 46.0970 1398.40 1398.03 39.50
11697 46.1008 1337.90 1398.42 38.20
11698 46.1045 1402.60 1398.82 39.70
11699 46.1083 1330.50 1399.23 38.50
11700 46.1120 1456.40 1399.66 40.80
11701 46.1158 1378.50 1400.11 39.20
11702 46.1195 1433.80 1400.57 39.90
11703 46.1233 1425.50 1401.05 40.20
11704 46.1272 1455.40 1401.56 41.10
11705 46.1309 1382.30 1402.07 39.20
11706 46.1347 1415.90 1402.62 39.90
11707 46.1384 1355.00 1403.17 39.10
11708 46.1422 1446.20 1403.76 40.40
11709 46.1459 1387.90 1404.36 39.30
11710 46.1497 1359.50 1404.99 39.20
11711 46.1535 1352.70 1405.66 38.90
11712 46.1572 1457.80 1406.33 40.70
11713 46.1609 1393.70 1407.05 39.70
11714 46.1646 1423.60 1407.78 40.10
11715 46.1684 1411.50 1408.56 39.90
11716 46.1721 1384.80 1409.35 38.60
11717 46.1759 1372.90 1410.20 38.60
11718 46.1797 1380.70 1411.08 39.40
11719 46.1834 1386.10 1411.98 39.30
11720 46.1872 1366.30 1412.94 38.90
11721 46.1909 1348.80 1413.92 38.80
11722 46.1948 1360.20 1414.96 39.10
11723 46.1984 1390.80 1416.03 39.50
11724 46.2023 1430.50 1417.17 39.40
11725 46.2061 1393.40 1418.36 39.50
11726 46.2098 1436.90 1419.58 39.80
11727 46.2136 1342.70 1420.88 38.90
11728 46.2173 1437.50 1422.21 39.40
11729 46.2211 1353.80 1423.65 38.50
11730 46.2248 1364.30 1425.11 39.30
11731 46.2285 1370.20 1426.68 39.40
11732 46.2323 1427.60 1428.33 39.60
11733 46.2360 1444.10 1430.02 40.40
11734 46.2398 1495.00 1431.84 41.10
11735 46.2435 1467.50 1433.70 40.70
11736 46.2473 1468.70 1435.71 41.10
11737 46.2510 1353.40 1437.77 38.90
11738 46.2548 1420.70 1440.00 40.60
11739 46.2587 1399.70 1442.34 40.10
11740 46.2623 1435.80 1444.76 39.70
11741 46.2662 1482.30 1447.37 41.00
11742 46.2699 1498.90 1450.06 41.20
11743 46.2737 1465.00 1452.98 41.10
11744 46.2774 1411.50 1455.98 40.00
11745 46.2812 1425.00 1459.25 40.20
11746 46.2850 1418.90 1462.72 39.80
11747 46.2887 1339.60 1466.30 39.20
11748 46.2924 1451.20 1470.21 40.20
11749 46.2962 1512.70 1474.26 41.70
11750 46.2999 1486.20 1478.68 41.10
11751 46.3036 1470.90 1483.27 40.90
11752 46.3074 1444.80 1488.29 41.00
11753 46.3112 1460.40 1493.67 40.80
11754 46.3149 1456.80 1499.26 41.10
11755 46.3187 1528.30 1505.42 41.90
11756 46.3224 1494.60 1511.85 40.70
11757 46.3262 1481.40 1518.93 42.00
11758 46.3299 1542.30 1526.36 42.00
11759 46.3338 1571.90 1534.57 42.30
11760 46.3374 1587.00 1543.20 42.20
11761 46.3413 1534.30 1552.77 42.30
11762 46.3451 1576.80 1563.16 42.90
11763 46.3488 1550.30 1574.12 41.50
11764 46.3526 1627.30 1586.38 43.50
11765 46.3563 1566.60 1599.36 42.30
11766 46.3601 1550.80 1613.93 42.40
11767 46.3638 1576.40 1629.45 42.30
11768 46.3675 1673.30 1646.97 43.40
11769 46.3713 1684.80 1666.22 44.40
11770 46.3750 1648.50 1686.92 43.30
11771 46.3788 1670.90 1710.44 44.10
11772 46.3825 1816.20 1735.81 45.00
11773 46.3863 1729.20 1764.82 44.20
11774 46.3900 1835.80 1796.30 46.40
11775 46.3938 1788.50 1832.49 45.60
11776 46.3977 1900.60 1873.11 47.30
11777 46.4013 1959.90 1917.62 48.00
11778 46.4052 1997.20 1969.07 47.50
11779 46.4089 2043.60 2025.68 48.70
11780 46.4127 2031.50 2091.31 48.40
11781 46.4164 2075.40 2163.68 49.50
11782 46.4202 2246.70 2247.63 49.30
11783 46.4239 2283.70 2340.09 52.50
11784 46.4277 2582.90 2446.98 55.80
11785 46.4314 2510.00 2567.31 53.80
11786 46.4352 2637.80 2697.53 56.60
11787 46.4389 2684.00 2845.37 57.10
11788 46.4426 2739.10 3001.65 56.50
11789 46.4464 2872.70 3172.02 58.80
11790 46.4501 3158.20 3343.18 61.40
11791 46.4539 3170.30 3516.36 61.60
11792 46.4577 3229.10 3676.63 63.00
11793 46.4614 3344.90 3807.74 63.40
11794 46.4652 3599.80 3903.98 66.50
11795 46.4689 3491.30 3949.81 65.50
11796 46.4728 3624.20 3942.10 66.40
11797 46.4765 3304.80 3882.16 63.90
11798 46.4803 3496.60 3773.99 65.30
11799 46.4840 3268.20 3634.62 63.00
11800 46.4878 3209.80 3469.47 61.80
11801 46.4916 3058.80 3294.58 59.70
11802 46.4953 2948.70 3124.07 58.90
11803 46.4991 2749.40 2955.66 56.50
11804 46.5028 2653.10 2802.78 56.40
11805 46.5065 2364.90 2658.53 52.00
11806 46.5103 2300.10 2531.76 52.40
11807 46.5140 2138.80 2415.07 50.60
11808 46.5178 2121.50 2311.44 49.40
11809 46.5215 1950.50 2221.85 46.60
11810 46.5253 2008.80 2140.51 49.50
11811 46.5290 1832.20 2070.39 47.00
11812 46.5328 1742.60 2006.76 44.50
11813 46.5365 1763.40 1951.84 44.30
11814 46.5404 1663.80 1901.88 43.10
11815 46.5440 1692.80 1858.61 43.50
11816 46.5479 1706.60 1819.09 43.60
11817 46.5517 1629.80 1783.82 42.50
11818 46.5554 1606.10 1753.10 42.30
11819 46.5592 1614.20 1724.76 42.40
11820 46.5629 1605.00 1699.93 42.40
11821 46.5667 1604.10 1676.88 42.40
11822 46.5704 1572.20 1656.58 41.30
11823 46.5742 1501.20 1637.61 41.00
11824 46.5779 1645.00 1620.82 43.00
11825 46.5816 1493.00 1605.06 40.80
11826 46.5854 1510.50 1590.66 41.10
11827 46.5891 1498.70 1577.80 41.20
11828 46.5929 1483.70 1565.65 40.60
11829 46.5966 1521.00 1554.75 41.00
11830 46.6004 1490.40 1544.41 40.70
11831 46.6041 1481.30 1535.10 41.20
11832 46.6079 1500.20 1526.24 41.10
11833 46.6116 1451.00 1518.22 40.40
11834 46.6155 1509.60 1510.56 40.60
11835 46.6193 1458.70 1503.44 40.00
11836 46.6230 1469.60 1496.95 40.60
11837 46.6268 1492.40 1490.74 41.50
11838 46.6305 1586.00 1485.07 42.30
11839 46.6343 1369.10 1479.61 38.70
11840 46.6380 1417.60 1474.63 39.60
11841 46.6418 1417.20 1469.81 39.30
11842 46.6455 1482.00 1465.40 40.70
11843 46.6493 1403.70 1461.13 39.50
11844 46.6530 1483.50 1457.11 40.90
11845 46.6567 1383.10 1453.41 39.30
11846 46.6605 1437.10 1449.82 40.10
11847 46.6642 1452.60 1446.51 40.40
11848 46.6680 1394.80 1443.29 39.30
11849 46.6717 1428.80 1440.32 40.20
11850 46.6755 1365.10 1437.42 38.70
11851 46.6792 1456.20 1434.74 39.50
11852 46.6830 1460.90 1432.12 40.20
11853 46.6867 1461.10 1429.69 40.90
11854 46.6906 1481.90 1427.31 41.30
11855 46.6944 1402.10 1425.05 39.60
11856 46.6981 1501.50 1422.94 41.30
11857 46.7019 1379.50 1420.88 38.40
11858 46.7056 1438.40 1418.96 40.40
11859 46.7094 1354.00 1417.07 39.00
11860 46.7131 1464.00 1415.31 40.50
11861 46.7169 1376.30 1413.58 39.50
11862 46.7206 1456.40 1411.96 39.90
11863 46.7243 1366.70 1410.37 38.60
11864 46.7281 1432.90 1408.84 40.60
11865 46.7318 1312.40 1407.41 38.10
11866 46.7356 1377.70 1406.00 38.90
11867 46.7393 1340.30 1404.68 38.70
11868 46.7431 1390.20 1403.37 39.20
11869 46.7468 1347.90 1402.15 39.20
11870 46.7506 1462.20 1400.94 40.70
11871 46.7543 1371.20 1399.80 39.20
11872 46.7581 1375.70 1398.67 39.10
11873 46.7618 1367.30 1397.61 38.60
11874 46.7657 1399.60 1396.56 39.70
11875 46.7695 1389.20 1395.55 40.00
11876 46.7732 1342.60 1394.59 39.10
11877 46.7770 1317.40 1393.64 38.40
11878 46.7807 1444.30 1392.75 40.10
11879 46.7845 1375.50 1391.86 39.30
11880 46.7882 1380.90 1391.02 38.80
11881 46.7920 1378.70 1390.19 38.90
11882 46.7957 1430.40 1389.40 40.20
11883 46.7994 1363.60 1388.62 39.30
11884 46.8032 1454.20 1387.88 40.70
11885 46.8069 1370.60 1387.14 39.30
11886 46.8107 1403.60 1386.42 39.70
11887 46.8144 1355.30 1385.74 39.10
11888 46.8182 1397.70 1385.06 39.10
11889 46.8219 1332.10 1384.42 37.70
11890 46.8257 1392.20 1383.78 39.40
11891 46.8294 1389.50 1383.18 39.00
11892 46.8332 1407.70 1382.57 40.20
11893 46.8369 1417.50 1381.99 39.90
11894 46.8408 1350.70 1381.42 38.90
11895 46.8445 1345.00 1380.87 39.20
11896 46.8483 1287.60 1380.32 38.70
11897 46.8521 1331.70 1379.79 38.70
11898 46.8558 1373.80 1379.28 38.90
11899 46.8596 1385.80 1378.78 39.70
11900 46.8633 1411.50 1378.29 39.70
11901 46.8671 1264.90 1377.81 37.20
11902 46.8708 1350.40 1377.35 39.30
11903 46.8745 1347.20 1376.89 39.00
11904 46.8783 1317.80 1376.45 38.70
11905 46.8820 1365.90 1376.00 39.30
11906 46.8857 1351.40 1375.58 39.20
11907 46.8895 1367.10 1375.16 39.50
11908 46.8933 1407.60 1374.75 40.20
11909 46.8970 1367.00 1374.35 39.30
11910 46.9008 1371.40 1373.96 39.00
11911 46.9045 1373.30 1373.58 39.90
11912 46.9084 1433.30 1373.20 40.20
11913 46.9120 1362.50 1372.83 39.30
11914 46.9159 1373.80 1372.47 39.30
11915 46.9196 1315.50 1372.12 38.30
11916 46.9234 1324.00 1371.77 38.60
11917 46.9271 1321.80 1371.43 39.10
11918 46.9309 1371.30 1371.09 39.60
11919 46.9346 1281.70 1370.77 37.40
11920 46.9384 1377.70 1370.44 39.40
11921 46.9422 1391.00 1370.12 39.30
11922 46.9459 1345.80 1369.81 39.10
11923 46.9496 1302.50 1369.50 38.20
11924 46.9534 1329.60 1369.21 39.00
11925 46.9571 1344.30 1368.91 38.70
11926 46.9608 1377.80 1368.62 39.60
11927 46.9646 1311.10 1368.33 38.50
11928 46.9683 1408.10 1368.06 39.80
11929 46.9721 1314.80 1367.78 38.30
11930 46.9758 1338.80 1367.51 39.40
11931 46.9796 1322.10 1367.24 38.50
11932 46.9833 1327.00 1366.98 38.90
11933 46.9871 1302.30 1366.71 38.20
11934 46.9910 1357.10 1366.46 38.70
11935 46.9925 1374.70 1366.35 39.10
11936 46.9963 1363.60 1366.09 39.80
11937 47.0000 1332.10 1365.85 39.50
11938 47.0038 1381.20 1365.60 39.50
11939 47.0076 1366.50 1365.36 38.70
11940 47.0113 1405.10 1365.13 41.00
11941 47.0151 1334.60 1364.89 39.90
11942 47.0188 1308.40 1364.82 38.40
11943 47.0227 1319.30 1364.60 38.10
11944 47.0263 1417.60 1364.38 39.70
11945 47.0302 1345.10 1364.16 38.60
11946 47.0339 1348.70 1363.94 38.60
11947 47.0377 1300.90 1363.73 37.80
11948 47.0415 1366.10 1363.52 38.90
11949 47.0452 1322.90 1363.31 38.30
11950 47.0490 1330.50 1363.10 38.50
11951 47.0527 1377.30 1353.14 39.20
11952 47.0564 1306.50 1353.06 37.50
11953 47.0602 1325.40 1352.99 38.50
11954 47.0639 1386.80 1352.91 39.40
11955 47.0676 1292.80 1352.84 37.90
11956 47.0714 1415.20 1352.76 39.80
11957 47.0752 1328.10 1352.69 38.70
11958 47.0789 1435.30 1352.61 40.00
11959 47.0827 1311.40 1352.54 38.00
11960 47.0864 1357.80 1352.46 38.80
11961 47.0902 1321.20 1352.39 38.90
11962 47.0939 1331.40 1352.31 38.70
11963 47.0978 1370.30 1352.24 39.30
11964 47.1015 1389.20 1352.16 39.00
11965 47.1053 1305.00 1352.09 37.80
11966 47.1091 1409.50 1352.01 39.80
11967 47.1128 1362.50 1351.94 39.60
11968 47.1166 1347.60 1351.87 38.90
11969 47.1203 1361.90 1351.79 38.70
11970 47.1241 1323.40 1351.72 38.30
11971 47.1278 1372.20 1351.65 38.80
11972 47.1315 1426.20 1351.57 40.00
11973 47.1353 1315.60 1351.50 38.30
11974 47.1390 1384.90 1351.43 39.50
11975 47.1428 1305.60 1351.35 38.20
11976 47.1465 1353.90 1351.28 38.90
11977 47.1503 1335.70 1351.21 38.80
11978 47.1540 1355.80 1351.13 38.90
11979 47.1578 1310.70 1351.06 38.60
11980 47.1615 1298.80 1350.99 37.80
11981 47.1654 1277.80 1350.92 37.00
11982 47.1690 1346.00 1350.85 38.60
11983 47.1729 1294.00 1350.77 38.40
11984 47.1767 1404.50 1350.70 40.30
11985 47.1804 1300.60 1350.63 38.10
11986 47.1842 1348.70 1350.56 39.10
11987 47.1879 1342.00 1350.49 38.00
11988 47.1917 1320.50 1350.42 38.70
11989 47.1954 1343.30 1350.35 38.90
11990 47.1992 1355.90 1350.27 39.00
11991 47.2029 1336.10 1350.20 39.00
11992 47.2066 1333.60 1350.13 38.10
11993 47.2104 1347.80 1350.06 38.40
11994 47.2141 1303.70 1349.99 38.70
11995 47.2173 1333.20 1349.94 37.60
11996 47.2211 1320.10 1349.87 37.20
11997 47.2248 1377.60 1349.80 39.20
11998 47.2285 1369.50 1349.73 38.50
11999 47.2323 1328.70 1349.66 37.90
12000 47.2360 1410.90 1349.59 39.00
12001 47.2397 1399.10 1349.53 39.00
12002 47.2435 1344.10 1349.46 38.00
12003 47.2472 1278.00 1349.39 37.30
12004 47.2510 1344.80 1349.32 38.50
12005 47.2548 1335.60 1349.25 38.10
12006 47.2585 1397.10 1349.19 39.20
12007 47.2623 1293.30 1349.12 37.90
12008 47.2660 1396.00 1349.06 39.20
12009 47.2699 1364.80 1348.99 38.70
12010 47.2735 1367.40 1348.93 38.70
12011 47.2774 1374.30 1348.86 38.80
12012 47.2811 1374.30 1348.80 38.80
12013 47.2849 1303.20 1348.73 37.40
12014 47.2886 1327.80 1348.67 37.80
12015 47.2924 1345.80 1348.61 38.10
12016 47.2961 1343.10 1348.55 38.50
12017 47.2999 1383.80 1348.48 38.80
12018 47.3036 1419.10 1348.42 39.70
12019 47.3074 1338.70 1348.36 38.20
12020 47.3111 1378.10 1348.30 38.70
12021 47.3148 1351.30 1348.24 38.70
12022 47.3186 1323.40 1348.18 37.90
12023 47.3223 1331.40 1348.12 38.20
12024 47.3261 1362.00 1348.06 39.20
12025 47.3298 1401.80 1348.01 39.00
12026 47.3336 1399.00 1347.95 39.30
12027 47.3373 1349.40 1347.90 38.50
12028 47.3411 1358.20 1347.84 38.30
12029 47.3448 1311.00 1347.79 38.00
12030 47.3487 1249.90 1347.73 36.80
12031 47.3525 1288.80 1347.68 37.60
12032 47.3562 1335.00 1347.63 38.20
12033 47.3600 1374.00 1347.58 38.40
12034 47.3637 1272.90 1347.53 37.30
12035 47.3675 1319.60 1347.48 38.30
12036 47.3712 1349.30 1347.44 38.70
12037 47.3750 1295.40 1347.39 37.80
12038 47.3787 1323.50 1347.35 38.40
12039 47.3825 1309.70 1347.31 37.30
12040 47.3862 1346.40 1347.27 38.80
12041 47.3899 1324.20 1347.26 38.30
12042 47.3937 1367.80 1347.22 38.80
12043 47.3974 1348.30 1347.19 38.40
12044 47.4012 1306.90 1347.15 37.90
12045 47.4049 1296.20 1347.12 37.70
12046 47.4087 1354.30 1347.09 38.90
12047 47.4124 1281.90 1347.07 37.60
12048 47.4162 1292.40 1347.04 37.60
12049 47.4199 1308.20 1347.03 37.60
12050 47.4238 1361.60 1347.01 38.80
12051 47.4274 1350.60 1346.99 38.90
12052 47.4313 1344.60 1346.98 38.30
12053 47.4351 1325.40 1346.98 38.20
12054 47.4388 1380.60 1346.98 38.70
12055 47.4426 1342.10 1346.98 38.50
12056 47.4463 1356.80 1346.99 38.50
12057 47.4501 1358.80 1347.00 38.90
12058 47.4538 1324.30 1347.02 38.10
12059 47.4576 1355.40 1347.04 38.50
12060 47.4613 1375.90 1347.07 38.90
12061 47.4650 1289.40 1347.11 37.70
12062 47.4688 1348.80 1347.16 38.70
12063 47.4725 1337.80 1347.21 38.60
12064 47.4763 1374.60 1347.28 38.80
12065 47.4800 1384.50 1347.36 39.40
12066 47.4838 1382.70 1347.45 38.70
12067 47.4875 1348.30 1347.55 38.60
12068 47.4913 1310.10 1347.67 37.70
12069 47.4950 1334.00 1347.80 38.10
12070 47.4989 1332.50 1347.95 38.00
12071 47.5025 1325.40 1348.12 38.00
12072 47.5064 1340.70 1348.32 38.00
12073 47.5101 1315.80 1348.53 38.00
12074 47.5139 1308.10 1348.79 38.30
12075 47.5177 1305.60 1349.07 37.80
12076 47.5214 1332.90 1349.39 37.70
12077 47.5252 1288.50 1349.75 38.10
12078 47.5289 1325.00 1350.15 38.10
12079 47.5326 1301.70 1350.63 38.00
12080 47.5364 1303.30 1351.14 37.80
12081 47.5401 1253.10 1351.75 37.00
12082 47.5438 1362.30 1352.42 38.80
12083 47.5476 1263.10 1353.20 37.10
12084 47.5514 1317.10 1354.09 38.00
12085 47.5551 1300.30 1355.08 37.90
12086 47.5589 1321.60 1356.23 38.30
12087 47.5626 1298.30 1357.50 37.40
12088 47.5664 1392.90 1358.98 39.40
12089 47.5701 1298.90 1360.61 38.10
12090 47.5740 1378.60 1362.48 39.00
12091 47.5776 1277.40 1364.51 37.70
12092 47.5815 1331.60 1366.79 38.40
12093 47.5853 1311.00 1369.27 38.10
12094 47.5890 1346.50 1371.81 38.70
12095 47.5928 1285.30 1374.48 36.90
12096 47.5965 1296.10 1377.02 38.00
12097 47.6003 1328.20 1379.40 38.20
12098 47.6040 1400.10 1381.31 39.90
12099 47.6077 1307.20 1382.67 37.50
12100 47.6115 1383.60 1383.26 39.10
12101 47.6152 1347.80 1383.02 38.90
12102 47.6190 1324.80 1381.97 38.10
12103 47.6227 1348.40 1380.25 38.40
12104 47.6265 1345.30 1377.96 39.40
12105 47.6302 1389.70 1375.40 39.60
12106 47.6340 1368.80 1372.61 38.60
12107 47.6377 1285.50 1369.88 37.60
12108 47.6415 1367.60 1367.18 38.90
12109 47.6452 1349.10 1364.70 38.80
12110 47.6491 1299.50 1362.35 38.00
12111 47.6529 1341.50 1360.21 38.70
12112 47.6566 1402.20 1358.33 39.60
12113 47.6604 1268.20 1356.60 37.60
12114 47.6641 1378.50 1355.09 39.60
12115 47.6679 1310.20 1353.70 38.40
12116 47.6716 1367.80 1352.50 39.10
12117 47.6754 1322.20 1351.39 38.50
12118 47.6791 1374.20 1350.43 39.00
12119 47.6828 1341.80 1349.55 38.20
12120 47.6866 1386.00 1348.75 39.00
12121 47.6903 1333.80 1348.05 38.50
12122 47.6941 1338.20 1347.41 38.00
12123 47.6978 1278.20 1346.83 37.40
12124 47.7016 1310.30 1346.30 37.70
12125 47.7053 1335.20 1345.82 38.20
12126 47.7091 1344.20 1345.37 37.90
12127 47.7128 1293.80 1344.97 37.50
12128 47.7166 1328.70 1344.59 38.20
12129 47.7205 1320.40 1344.24 37.50
12130 47.7242 1335.10 1343.92 38.20
12131 47.7280 1331.50 1343.62 38.60
12132 47.7317 1289.90 1343.34 37.60
12133 47.7355 1387.20 1343.07 39.10
12134 47.7392 1284.80 1342.83 37.40
12135 47.7430 1290.40 1342.59 37.70
12136 47.7467 1337.70 1342.37 38.50
12137 47.7505 1351.10 1342.16 38.50
12138 47.7542 1296.30 1341.96 37.50
12139 47.7579 1319.70 1341.77 38.40
12140 47.7617 1418.50 1341.59 39.20
12141 47.7654 1292.60 1341.42 37.50
12142 47.7692 1396.10 1341.26 39.00
12143 47.7729 1273.30 1341.10 37.60
12144 47.7767 1335.10 1340.95 38.50
12145 47.7805 1286.10 1340.80 37.50
12146 47.7842 1368.00 1340.66 38.90
12147 47.7881 1372.00 1340.53 39.00
12148 47.7918 1393.30 1340.40 39.20
12149 47.7956 1329.80 1340.27 38.20
12150 47.7993 1317.40 1340.16 37.80
12151 47.8031 1292.50 1340.04 37.70
12152 47.8068 1329.90 1339.93 38.70
12153 47.8106 1345.10 1339.82 38.40
12154 47.8144 1353.20 1339.71 38.70
12155 47.8181 1272.50 1339.61 37.40
12156 47.8218 1387.10 1339.51 38.60
12157 47.8256 1335.20 1339.41 38.60
12158 47.8293 1250.90 1339.32 37.20
12159 47.8330 1319.60 1339.23 37.80
12160 47.8368 1371.90 1339.15 38.70
12161 47.8406 1309.00 1339.06 38.10
12162 47.8443 1307.30 1338.98 38.20
12163 47.8481 1375.10 1338.90 39.00
12164 47.8518 1316.50 1338.83 37.80
12165 47.8557 1271.60 1338.76 37.30
12166 47.8593 1343.80 1338.70 38.60
12167 47.8632 1304.50 1338.63 37.90
12168 47.8669 1301.90 1338.57 37.50
12169 47.8707 1335.10 1338.52 37.90
12170 47.8745 1271.00 1338.46 37.40
12171 47.8782 1347.80 1338.42 38.30
12172 47.8820 1291.30 1338.38 37.30
12173 47.8857 1255.20 1338.34 37.20
12174 47.8895 1347.80 1338.31 38.30
12175 47.8932 1232.70 1338.29 36.70
12176 47.8969 1354.90 1338.27 38.20
12177 47.9007 1322.50 1338.26 37.70
12178 47.9044 1361.30 1338.26 38.90
12179 47.9082 1276.30 1338.28 37.00
12180 47.9119 1287.10 1338.30 37.60
12181 47.9157 1352.30 1338.34 38.20
12182 47.9194 1349.50 1338.39 38.30
12183 47.9232 1285.30 1338.46 37.10
12184 47.9271 1366.70 1338.54 39.30
12185 47.9308 1213.60 1338.65 36.20
12186 47.9346 1335.50 1338.79 37.90
12187 47.9383 1306.30 1338.95 38.00
12188 47.9421 1376.10 1339.14 38.60
12189 47.9458 1296.20 1339.36 37.90
12190 47.9496 1368.30 1339.63 38.50
12191 47.9534 1312.90 1339.93 38.00
12192 47.9571 1383.70 1340.26 39.10
12193 47.9608 1349.60 1340.63 38.50
12194 47.9646 1278.40 1341.02 37.20
12195 47.9683 1281.20 1341.43 37.10
12196 47.9720 1330.30 1341.82 38.20
12197 47.9758 1290.70 1342.19 37.60
12198 47.9796 1331.90 1342.48 38.00
12199 47.9833 1258.00 1342.67 36.90
12200 47.9871 1399.90 1342.73 38.80
12201 47.9908 1352.10 1342.65 38.60
12202 47.9947 1316.20 1342.42 37.60
12203 47.9983 1318.40 1342.07 37.80
12204 48.0022 1369.00 1341.61 38.70
12205 48.0060 1284.00 1341.09 37.50
12206 48.0097 1357.30 1340.55 38.40
12207 48.0135 1344.90 1339.99 38.70
12208 48.0172 1379.60 1339.46 38.60
12209 48.0210 1303.40 1338.94 37.20
12210 48.0247 1334.50 1338.46 38.00
12211 48.0285 1395.40 1338.01 39.20
12212 48.0322 1371.60 1337.60 38.70
12213 48.0359 1247.90 1337.23 36.80
12214 48.0397 1346.60 1336.89 38.40
12215 48.0434 1232.00 1336.58 36.90
12216 48.0472 1333.60 1336.30 38.40
12217 48.0509 1274.30 1336.04 37.60
12218 48.0547 1378.30 1335.80 39.00
12219 48.0586 1306.30 1335.58 38.50
12220 48.0622 1388.00 1335.38 39.10
12221 48.0661 1280.20 1335.19 37.80
12222 48.0698 1347.40 1335.01 38.70
12223 48.0736 1315.90 1334.85 38.50
12224 48.0773 1381.10 1334.69 39.50
12225 48.0811 1236.30 1334.54 37.30
12226 48.0849 1304.70 1334.40 38.00
12227 48.0886 1309.50 1334.27 37.60
12228 48.0924 1378.80 1334.14 39.60
12229 48.0961 1303.90 1334.02 38.00
12230 48.0998 1326.30 1333.90 38.10
12231 48.1035 1387.40 1333.79 39.10
12232 48.1073 1312.20 1333.68 38.00
12233 48.1111 1348.30 1333.58 38.50
12234 48.1148 1363.50 1333.47 38.40
12235 48.1186 1334.30 1333.37 38.40
12236 48.1223 1256.30 1333.28 36.30
12237 48.1261 1369.30 1333.18 39.60
12238 48.1298 1250.90 1333.09 37.40
12239 48.1337 1276.30 1333.00 37.00
12240 48.1375 1366.70 1332.90 38.70
12241 48.1412 1246.50 1332.82 37.00
12242 48.1450 1348.60 1332.73 38.60
12243 48.1487 1298.20 1332.65 37.90
12244 48.1525 1349.20 1332.56 38.50
12245 48.1562 1307.20 1332.48 38.20
12246 48.1600 1336.00 1332.39 38.60
12247 48.1637 1292.70 1332.31 37.70
12248 48.1674 1313.70 1332.23 38.20
12249 48.1712 1304.80 1332.15 38.10
12250 48.1749 1347.00 1332.07 38.70
12251 48.1787 1289.70 1331.99 38.00
12252 48.1825 1323.10 1331.92 38.20
12253 48.1862 1329.50 1331.84 38.30
12254 48.1900 1378.10 1331.76 39.20
12255 48.1937 1299.50 1331.69 38.20
12256 48.1976 1334.20 1331.61 38.40
12257 48.2012 1296.60 1331.54 38.00
12258 48.2051 1372.40 1331.46 39.50
12259 48.2089 1297.30 1331.23 38.00
12260 48.2126 1321.20 1331.16 38.40
12261 48.2164 1308.70 1331.09 38.00
12262 48.2201 1368.80 1331.02 38.80
12263 48.2239 1242.00 1330.95 37.00
12264 48.2276 1379.80 1330.88 39.40
12265 48.2313 1327.60 1330.81 38.50
12266 48.2351 1366.40 1330.74 39.30
12267 48.2388 1306.60 1330.67 38.20
12268 48.2426 1321.40 1330.60 38.40
12269 48.2463 1326.90 1330.53 38.10
12270 48.2501 1397.30 1330.46 39.40
12271 48.2538 1334.60 1330.39 38.90
12272 48.2576 1438.50 1330.32 40.00
12273 48.2615 1316.40 1330.26 38.30
12274 48.2651 1314.70 1330.19 38.70
12275 48.2690 1363.10 1330.12 39.30
12276 48.2727 1260.00 1330.05 37.50
12277 48.2765 1290.40 1329.98 38.20
12278 48.2803 1367.50 1329.92 39.40
12279 48.2840 1290.90 1329.85 38.00
12280 48.2878 1264.70 1329.78 37.60
12281 48.2915 1253.60 1329.72 37.30
12282 48.2952 1337.80 1329.65 39.00
12283 48.2990 1322.90 1329.58 38.90
12284 48.3027 1350.30 1329.52 38.60
12285 48.3065 1279.50 1329.45 38.30
12286 48.3102 1366.70 1329.38 39.10
12287 48.3140 1260.20 1329.32 37.50
12288 48.3177 1285.80 1329.25 38.20
12289 48.3215 1273.40 1329.19 37.40
12290 48.3254 1318.10 1329.12 38.10
12291 48.3290 1312.50 1329.05 39.00
12292 48.3329 1376.30 1328.99 39.40
12293 48.3366 1325.00 1328.92 38.10
12294 48.3404 1376.00 1328.86 39.50
12295 48.3441 1382.10 1328.79 39.50
12296 48.3479 1382.70 1328.73 39.30
12297 48.3517 1331.30 1328.66 38.90
12298 48.3554 1360.30 1328.60 39.50
12299 48.3591 1294.10 1328.53 38.10
12300 48.3629 1312.40 1328.47 38.70
12301 48.3666 1391.50 1328.40 39.80
12302 48.3703 1294.70 1328.34 38.10
12303 48.3741 1278.20 1328.27 37.60
12304 48.3779 1328.10 1328.21 38.20
12305 48.3816 1366.80 1328.14 39.20
12306 48.3854 1382.90 1328.08 39.30
12307 48.3891 1284.40 1328.01 38.00
12308 48.3929 1292.90 1327.95 37.70
12309 48.3968 1261.80 1327.88 37.50
12310 48.4005 1331.20 1327.82 38.80
12311 48.4043 1315.20 1327.76 38.70
12312 48.4080 1333.20 1327.69 38.60
12313 48.4118 1342.30 1327.63 39.20
12314 48.4155 1332.20 1327.57 38.40
12315 48.4193 1308.70 1327.50 38.40
12316 48.4230 1274.80 1327.44 37.10
12317 48.4268 1296.40 1327.37 38.80
12318 48.4305 1281.70 1327.31 37.90
12319 48.4342 1308.10 1327.25 37.90
12320 48.4380 1334.20 1327.18 38.70
12321 48.4418 1279.50 1327.12 38.10
12322 48.4455 1279.90 1327.05 38.00
12323 48.4493 1300.40 1326.99 38.30
12324 48.4530 1373.80 1326.93 39.40
12325 48.4568 1280.90 1326.86 37.60
12326 48.4605 1264.80 1326.80 38.00
12327 48.4644 1261.70 1326.74 37.40
12328 48.4682 1337.90 1326.67 38.70
12329 48.4719 1256.50 1326.61 37.30
12330 48.4757 1353.30 1326.55 39.20
12331 48.4794 1318.00 1326.49 38.60
12332 48.4832 1301.70 1326.42 37.90
12333 48.4869 1290.20 1326.36 37.90
12334 48.4907 1315.50 1326.30 38.60
12335 48.4944 1329.20 1326.23 38.90
12336 48.4981 1300.40 1326.17 38.20
12337 48.5019 1257.90 1326.11 37.70
12338 48.5057 1377.70 1326.04 39.70
12339 48.5094 1290.70 1325.98 38.40
12340 48.5132 1340.00 1325.92 38.70
12341 48.5169 1323.10 1325.86 38.60
12342 48.5207 1277.40 1325.79 37.50
12343 48.5244 1324.90 1325.73 39.10
12344 48.5283 1360.10 1325.67 39.80
12345 48.5321 1264.30 1325.61 37.90
12346 48.5358 1320.60 1325.54 38.60
12347 48.5396 1258.20 1325.48 38.00
12348 48.5433 1314.80 1325.42 38.20
12349 48.5471 1312.00 1325.36 38.40
12350 48.5508 1342.40 1325.29 38.90
12351 48.5546 1315.30 1325.23 38.90
12352 48.5583 1294.10 1325.17 37.80
12353 48.5620 1314.40 1325.11 38.50
12354 48.5658 1337.40 1325.05 38.80
12355 48.5695 1263.30 1324.99 38.30
12356 48.5733 1374.80 1324.92 39.60
12357 48.5771 1261.80 1324.86 37.60
12358 48.5808 1313.90 1324.80 38.60
12359 48.5846 1318.50 1324.74 38.60
12360 48.5883 1331.30 1324.68 38.00
12361 48.5922 1386.20 1324.59 40.40
12362 48.5960 1339.90 1324.52 39.30
12363 48.5997 1278.00 1324.46 38.30
12364 48.6035 1333.40 1324.40 38.80
12365 48.6072 1314.90 1324.34 38.90
12366 48.6110 1328.20 1324.28 38.60
12367 48.6147 1328.50 1324.22 38.90
12368 48.6185 1372.80 1324.16 40.20
12369 48.6222 1286.80 1324.09 37.40
12370 48.6259 1374.00 1324.03 40.00
12371 48.6297 1327.90 1323.97 39.10
12372 48.6335 1299.60 1323.91 38.60
12373 48.6372 1238.20 1323.85 37.90
12374 48.6410 1277.80 1323.79 37.20
12375 48.6447 1239.50 1323.73 36.90
12376 48.6485 1335.40 1323.67 38.20
12377 48.6522 1301.50 1323.61 37.90
12378 48.6561 1260.60 1323.55 37.30
12379 48.6599 1265.70 1323.48 37.20
12380 48.6636 1289.80 1323.42 37.80
12381 48.6674 1299.20 1323.36 37.40
12382 48.6711 1338.40 1323.30 38.30
12383 48.6749 1328.80 1323.24 38.00
12384 48.6786 1358.90 1323.18 38.60
12385 48.6824 1317.60 1323.12 38.10
12386 48.6861 1218.10 1323.06 36.40
12387 48.6898 1352.20 1323.00 38.60
12388 48.6936 1353.90 1322.94 38.40
12389 48.6974 1363.10 1322.88 38.70
12390 48.7011 1279.50 1322.82 37.20
12391 48.7049 1294.50 1322.76 38.00
12392 48.7086 1353.00 1322.70 39.10
12393 48.7124 1280.50 1322.64 37.60
12394 48.7161 1381.30 1322.58 38.80
12395 48.7200 1255.40 1322.52 37.20
12396 48.7238 1275.80 1322.45 37.10
12397 48.7275 1324.60 1322.40 38.70
12398 48.7313 1370.00 1322.33 38.80
12399 48.7350 1281.20 1322.28 37.10
12400 48.7388 1332.80 1322.21 38.00
12401 48.7425 1337.80 1322.15 38.40
12402 48.7463 1328.90 1322.09 38.10
12403 48.7500 1208.90 1322.03 36.70
12404 48.7537 1396.90 1321.97 39.40
12405 48.7575 1297.40 1321.91 37.80
12406 48.7613 1321.70 1321.85 38.40
12407 48.7650 1370.30 1321.79 39.10
12408 48.7688 1342.10 1321.73 38.60
12409 48.7725 1281.90 1321.67 37.50
12410 48.7763 1312.10 1321.61 37.80
12411 48.7802 1293.10 1321.55 37.80
12412 48.7839 1353.80 1321.49 38.90
12413 48.7877 1314.70 1321.43 38.50
12414 48.7914 1293.30 1321.38 37.80
12415 48.7952 1344.30 1321.32 38.00
12416 48.7989 1282.00 1321.26 37.40
12417 48.8027 1315.90 1321.20 38.20
12418 48.8064 1289.40 1321.14 38.10
12419 48.8102 1329.10 1321.08 37.80
12420 48.8139 1340.30 1321.02 38.80
12421 48.8176 1298.60 1320.96 37.90
12422 48.8214 1310.00 1320.90 37.40
12423 48.8252 1248.80 1320.84 36.90
12424 48.8289 1308.10 1320.78 38.50
12425 48.8327 1302.50 1320.72 37.50
12426 48.8364 1341.60 1320.66 38.30
12427 48.8402 1244.20 1320.60 36.80
12428 48.8441 1284.40 1320.54 37.40
12429 48.8478 1319.20 1320.48 38.40
12430 48.8516 1300.10 1321.56 37.90
12431 48.8553 1284.60 1321.51 37.90
12432 48.8591 1337.50 1321.47 38.20
12433 48.8629 1388.60 1321.42 39.90
12434 48.8666 1348.00 1321.38 38.50
12435 48.8703 1318.60 1321.33 38.10
12436 48.8741 1253.50 1321.29 37.40
12437 48.8778 1322.50 1321.25 38.30
12438 48.8816 1303.80 1321.20 37.90
12439 48.8853 1298.70 1321.16 37.80
12440 48.8891 1296.30 1321.12 37.70
12441 48.8928 1227.10 1321.07 37.10
12442 48.8966 1293.20 1321.03 38.00
12443 48.9005 1267.50 1320.99 37.30
12444 48.9041 1335.90 1320.95 38.60
12445 48.9080 1332.60 1320.91 38.30
12446 48.9117 1260.60 1320.87 37.20
12447 48.9155 1237.80 1320.83 37.00
12448 48.9192 1316.90 1320.79 37.90
12449 48.9230 1180.80 1320.75 35.20
12450 48.9268 1300.50 1320.71 39.00
12451 48.9305 1258.50 1320.67 37.60
12452 48.9342 1311.80 1320.64 38.30
12453 48.9380 1273.20 1320.60 37.60
12454 48.9417 1396.60 1320.56 39.40
12455 48.9455 1321.50 1320.52 38.70
12456 48.9492 1322.10 1320.49 38.40
12457 48.9530 1310.20 1320.45 37.90
12458 48.9567 1333.30 1320.42 39.00
12459 48.9605 1288.60 1320.38 38.10
12460 48.9644 1341.80 1320.35 38.70
12461 48.9680 1338.40 1320.32 38.50
12462 48.9719 1299.30 1320.29 38.00
12463 48.9756 1320.90 1320.25 38.60
12464 48.9794 1250.60 1320.22 37.10
12465 48.9832 1261.90 1320.19 37.30
12466 48.9869 1262.20 1320.16 37.30
12467 48.9907 1284.30 1320.13 37.80
12468 48.9944 1362.60 1320.10 39.10
12469 48.9981 1305.30 1320.08 37.40
12470 49.0019 1278.00 1320.05 37.70
12471 49.0056 1253.60 1320.02 37.40
12472 49.0094 1296.60 1320.00 37.80
12473 49.0131 1349.30 1319.97 38.90
12474 49.0169 1274.80 1319.95 37.70
12475 49.0207 1252.80 1319.93 37.20
12476 49.0244 1279.90 1319.90 37.10
12477 49.0283 1307.40 1319.88 38.90
12478 49.0320 1333.60 1319.86 38.80
12479 49.0358 1291.40 1319.84 38.20
12480 49.0396 1305.70 1319.82 38.20
12481 49.0433 1347.10 1319.81 39.00
12482 49.0471 1378.10 1319.79 39.60
12483 49.0508 1254.60 1319.78 37.40
12484 49.0546 1314.20 1319.76 38.30
12485 49.0583 1281.80 1319.75 38.10
12486 49.0620 1324.00 1319.74 38.80
12487 49.0658 1295.60 1319.73 37.80
12488 49.0695 1359.90 1319.72 39.30
12489 49.0733 1349.60 1319.71 39.30
12490 49.0771 1295.80 1319.71 38.30
12491 49.0808 1318.40 1319.70 38.40
12492 49.0846 1314.60 1319.70 38.60
12493 49.0883 1261.30 1319.70 37.70
12494 49.0922 1316.30 1319.70 38.20
12495 49.0959 1286.30 1319.70 38.20
12496 49.0997 1317.80 1319.71 38.50
12497 49.1035 1296.80 1319.72 38.30
12498 49.1072 1356.30 1319.72 39.50
12499 49.1110 1274.30 1319.73 37.90
12500 49.1147 1362.60 1319.75 39.40
12501 49.1185 1281.90 1319.76 38.30
12502 49.1222 1411.90 1319.78 40.20
12503 49.1259 1348.10 1319.80 39.30
12504 49.1297 1361.00 1319.82 38.80
12505 49.1334 1301.50 1319.84 38.10
12506 49.1372 1357.10 1319.87 38.90
12507 49.1410 1333.20 1319.90 38.60
12508 49.1447 1336.90 1319.94 38.60
12509 49.1485 1324.50 1319.97 38.70
12510 49.1522 1348.20 1320.01 38.90
12511 49.1561 1356.70 1320.05 38.70
12512 49.1599 1321.70 1320.10 38.90
12513 49.1636 1305.20 1320.15 38.30
12514 49.1674 1391.30 1320.21 39.70
12515 49.1711 1318.20 1320.26 38.40
12516 49.1749 1332.00 1320.33 38.70
12517 49.1786 1333.80 1320.40 38.90
12518 49.1824 1359.30 1320.47 39.50
12519 49.1861 1325.80 1320.54 38.80
12520 49.1898 1284.20 1320.63 38.60
12521 49.1936 1257.50 1320.72 37.60
12522 49.1974 1397.20 1320.81 40.00
12523 49.2011 1298.00 1320.91 38.40
12524 49.2049 1303.80 1321.02 38.50
12525 49.2086 1272.70 1321.13 38.10
12526 49.2124 1314.10 1321.25 38.60
12527 49.2163 1354.50 1321.38 38.60
12528 49.2200 1285.20 1321.51 37.70
12529 49.2238 1263.20 1321.66 37.50
12530 49.2275 1366.90 1321.81 40.00
12531 49.2313 1316.60 1321.98 38.30
12532 49.2351 1334.30 1322.16 38.50
12533 49.2388 1316.60 1322.34 38.90
12534 49.2425 1303.30 1322.54 38.20
12535 49.2463 1343.60 1322.74 38.60
12536 49.2500 1319.10 1322.97 38.90
12537 49.2538 1363.20 1323.21 39.70
12538 49.2575 1396.30 1323.45 40.10
12539 49.2613 1350.20 1323.72 39.20
12540 49.2650 1346.20 1324.00 39.20
12541 49.2688 1351.90 1324.31 39.00
12542 49.2727 1317.80 1324.63 38.40
12543 49.2763 1270.40 1324.97 38.40
12544 49.2802 1352.30 1325.34 39.30
12545 49.2839 1330.60 1325.72 39.10
12546 49.2877 1349.00 1326.14 39.40
12547 49.2915 1286.30 1326.59 37.90
12548 49.2952 1368.80 1327.06 39.10
12549 49.2990 1291.90 1327.57 38.10
12550 49.3027 1346.60 1328.10 39.40
12551 49.3064 1299.80 1328.69 38.50
12552 49.3102 1337.20 1329.32 38.90
12553 49.3139 1284.10 1329.98 38.00
12554 49.3177 1297.10 1330.70 38.00
12555 49.3214 1267.20 1331.46 37.30
12556 49.3252 1293.50 1332.30 38.30
12557 49.3290 1361.70 1333.20 40.00
12558 49.3327 1376.90 1334.15 39.10
12559 49.3366 1303.40 1335.21 38.20
12560 49.3402 1307.30 1336.32 38.30
12561 49.3441 1372.50 1337.55 39.60
12562 49.3479 1363.20 1338.90 39.30
12563 49.3516 1339.60 1340.32 38.60
12564 49.3554 1353.10 1341.91 38.40
12565 49.3591 1350.40 1343.60 39.20
12566 49.3629 1392.90 1345.50 39.50
12567 49.3666 1293.30 1347.59 38.20
12568 49.3703 1368.20 1349.82 39.30
12569 49.3741 1366.30 1352.33 39.60
12570 49.3778 1393.90 1355.04 40.00
12571 49.3816 1365.30 1358.11 38.80
12572 49.3854 1368.50 1361.53 39.40
12573 49.3891 1422.90 1365.21 40.30
12574 49.3929 1413.90 1369.44 40.30
12575 49.3966 1390.20 1374.02 40.10
12576 49.4005 1360.90 1379.28 39.10
12577 49.4043 1341.80 1385.18 38.70
12578 49.4080 1465.50 1391.62 41.10
12579 49.4118 1405.50 1399.05 39.90
12580 49.4155 1481.30 1407.16 41.20
12581 49.4193 1465.10 1416.51 40.50
12582 49.4230 1456.30 1427.01 40.10
12583 49.4268 1428.60 1438.42 41.30
12584 49.4305 1491.90 1451.48 41.60
12585 49.4342 1425.40 1465.56 40.30
12586 49.4380 1552.10 1481.38 42.00
12587 49.4418 1520.00 1498.53 41.60
12588 49.4455 1598.40 1516.24 43.10
12589 49.4493 1505.60 1535.07 41.90
12590 49.4530 1481.80 1553.36 41.10
12591 49.4568 1530.70 1571.21 41.50
12592 49.4607 1511.40 1586.94 41.70
12593 49.4644 1496.10 1599.01 41.50
12594 49.4682 1535.80 1606.95 41.50
12595 49.4719 1493.90 1609.53 41.40
12596 49.4757 1608.30 1606.61 43.60
12597 49.4795 1595.80 1598.37 42.50
12598 49.4832 1475.40 1586.02 41.00
12599 49.4869 1517.50 1570.06 41.50
12600 49.4907 1548.20 1552.55 42.10
12601 49.4944 1471.20 1533.64 41.10
12602 49.4982 1540.00 1514.72 42.00
12603 49.5019 1455.70 1496.94 40.30
12604 49.5057 1474.20 1479.74 41.40
12605 49.5094 1437.10 1464.26 40.20
12606 49.5132 1431.40 1449.75 40.20
12607 49.5171 1437.10 1436.63 40.60
12608 49.5207 1419.20 1425.16 39.90
12609 49.5246 1406.20 1414.61 39.70
12610 49.5283 1393.90 1405.43 40.20
12611 49.5321 1318.40 1397.01 38.80
12612 49.5359 1345.00 1389.52 39.50
12613 49.5396 1301.80 1383.00 38.20
12614 49.5434 1359.10 1377.02 39.20
12615 49.5471 1265.80 1371.80 38.00
12616 49.5508 1475.20 1366.99 40.90
12617 49.5546 1323.80 1362.68 39.00
12618 49.5583 1390.40 1358.90 39.80
12619 49.5621 1322.30 1355.39 38.60
12620 49.5658 1420.30 1352.30 39.80
12621 49.5696 1297.40 1349.41 38.50
12622 49.5734 1383.50 1346.79 39.50
12623 49.5771 1376.70 1344.47 39.80
12624 49.5810 1408.10 1342.28 40.40
12625 49.5846 1284.20 1340.33 38.30
12626 49.5885 1338.00 1338.48 39.20
12627 49.5923 1343.30 1336.78 38.90
12628 49.5960 1401.50 1335.26 40.00
12629 49.5998 1300.10 1333.81 38.60
12630 49.6035 1384.50 1332.50 38.90
12631 49.6073 1352.80 1331.25 38.80
12632 49.6110 1335.90 1330.08 38.10
12633 49.6147 1359.60 1329.03 38.80
12634 49.6185 1312.60 1328.01 38.00
12635 49.6222 1294.60 1327.09 37.70
12636 49.6260 1302.30 1326.20 37.60
12637 49.6298 1341.40 1325.37 39.20
12638 49.6335 1360.90 1324.60 38.40
12639 49.6373 1326.40 1323.86 37.70
12640 49.6410 1383.00 1323.18 39.00
12641 49.6449 1318.40 1322.53 38.10
12642 49.6487 1301.80 1321.90 37.40
12643 49.6524 1280.40 1321.33 37.40
12644 49.6562 1380.40 1320.77 39.30
12645 49.6599 1327.10 1320.26 38.20
12646 49.6637 1290.40 1319.75 37.70
12647 49.6674 1257.10 1319.27 36.90
12648 49.6712 1378.20 1318.83 38.70
12649 49.6749 1339.60 1318.39 38.60
12650 49.6786 1319.40 1317.99 38.10
12651 49.6824 1255.80 1317.59 37.10
12652 49.6862 1340.10 1317.21 38.50
12653 49.6899 1327.70 1316.85 38.00
12654 49.6937 1312.10 1316.50 38.50
12655 49.6974 1344.40 1316.18 38.50
12656 49.7012 1301.20 1315.85 37.70
12657 49.7049 1299.70 1315.55 37.60
12658 49.7088 1322.40 1315.25 38.30
12659 49.7126 1284.90 1314.97 37.60
12660 49.7163 1348.60 1314.70 38.60
12661 49.7201 1292.70 1314.43 37.80
12662 49.7239 1312.50 1314.17 38.00
12663 49.7276 1313.90 1313.93 37.90
12664 49.7313 1337.80 1313.69 39.00
12665 49.7351 1329.70 1313.46 38.30
12666 49.7388 1338.40 1313.23 38.50
12667 49.7426 1229.20 1313.02 37.00
12668 49.7463 1348.20 1312.81 38.30
12669 49.7501 1267.70 1312.60 37.40
12670 49.7538 1334.10 1312.41 38.50
12671 49.7576 1389.90 1312.21 39.60
12672 49.7615 1360.40 1312.02 38.70
12673 49.7651 1360.80 1311.84 38.90
12674 49.7690 1380.60 1311.67 39.00
12675 49.7727 1292.20 1311.50 38.20
12676 49.7765 1365.30 1311.32 38.90
12677 49.7802 1297.60 1311.16 38.00
12678 49.7840 1338.40 1311.00 38.50
12679 49.7878 1261.90 1310.84 37.60
12680 49.7915 1389.20 1310.69 39.10
12681 49.7952 1273.60 1310.54 37.60
12682 49.7990 1282.50 1310.39 37.60
12683 49.8027 1340.40 1310.25 38.00
12684 49.8065 1340.00 1310.11 38.70
12685 49.8102 1375.70 1309.97 39.30
12686 49.8140 1365.40 1309.84 39.00
12687 49.8178 1252.30 1309.70 37.00
12688 49.8215 1419.00 1309.58 39.40
12689 49.8254 1239.00 1309.45 36.10
12690 49.8290 1338.10 1309.32 38.90
12691 49.8329 1324.40 1309.20 38.30
12692 49.8366 1366.00 1309.08 38.80
12693 49.8404 1335.70 1308.96 38.50
12694 49.8442 1354.20 1308.84 38.90
12695 49.8479 1316.00 1308.73 38.20
12696 49.8517 1321.80 1308.62 38.20
12697 49.8554 1358.20 1308.51 38.80
12698 49.8591 1375.90 1308.40 38.50
12699 49.8629 1365.80 1308.29 37.90
12700 49.8666 1373.40 1308.18 38.80
12701 49.8704 1332.60 1308.08 38.40
12702 49.8741 1304.90 1307.98 37.80
12703 49.8779 1336.30 1307.87 38.50
12704 49.8817 1274.30 1307.77 37.20
12705 49.8854 1383.50 1307.68 38.80
12706 49.8893 1309.00 1307.58 37.90
12707 49.8929 1266.50 1307.48 37.00
12708 49.8968 1330.30 1307.38 38.40
12709 49.9006 1321.50 1307.29 38.50
12710 49.9043 1305.90 1307.20 37.90
12711 49.9081 1320.00 1307.10 38.30
12712 49.9118 1316.90 1307.01 38.20
12713 49.9156 1325.20 1306.92 38.50
12714 49.9193 1384.30 1306.83 39.70
12715 49.9230 1295.40 1306.75 37.30
12716 49.9268 1361.00 1306.66 38.80
12717 49.9305 1331.90 1317.01 38.90
12718 49.9343 1335.30 1317.05 38.40
12719 49.9381 1336.50 1317.09 38.30
12720 49.9418 1300.20 1317.13 37.30
12721 49.9456 1212.20 1317.18 36.20
12722 49.9493 1369.60 1317.23 38.90
12723 49.9532 1338.30 1317.29 38.30
12724 49.9570 1336.30 1317.35 38.40
12725 49.9607 1350.80 1317.41 38.30
12726 49.9645 1331.70 1317.48 38.40
12727 49.9682 1285.30 1317.54 38.00
12728 49.9720 1308.70 1317.61 38.50
12729 49.9757 1319.30 1317.69 38.70
12730 49.9795 1338.50 1317.77 38.80
12731 49.9832 1368.90 1317.85 39.10
12732 49.9869 1295.10 1317.94 37.80
12733 49.9907 1309.40 1318.03 38.50
12734 49.9945 1345.00 1318.12 38.80
12735 49.9982 1280.70 1318.22 38.20
12736 50.0020 1369.40 1318.32 38.90
12737 50.0057 1337.40 1318.42 38.60
12738 50.0095 1347.00 1318.53 38.80
12739 50.0134 1291.60 1318.65 37.60
12740 50.0171 1288.90 1318.76 37.60
12741 50.0209 1308.10 1318.89 37.00
12742 50.0246 1351.80 1319.01 38.10
12743 50.0284 1365.90 1319.14 39.80
12744 50.0322 1407.10 1319.28 39.90
12745 50.0359 1326.10 1319.42 38.90
12746 50.0396 1408.20 1319.57 39.90
12747 50.0434 1292.10 1319.72 38.00
12748 50.0471 1359.10 1319.87 39.30
12749 50.0509 1265.60 1320.04 37.60
12750 50.0546 1382.80 1320.20 39.30
12751 50.0584 1330.10 1320.37 38.80
12752 50.0621 1301.50 1320.55 38.50
12753 50.0659 1294.30 1320.73 38.30
12754 50.0698 1357.70 1320.93 39.40
12755 50.0734 1342.90 1321.12 39.20
12756 50.0773 1322.10 1321.32 39.00
12757 50.0810 1343.30 1321.53 38.80
12758 50.0848 1315.40 1321.75 38.30
12759 50.0886 1315.60 1321.97 38.50
12760 50.0923 1427.10 1322.20 40.20
12761 50.0961 1334.30 1321.31 38.20
12762 50.0998 1324.40 1321.56 38.30
12763 50.1035 1396.80 1321.83 39.60
12764 50.1073 1391.50 1322.11 39.70
12765 50.1110 1277.60 1322.39 37.40
12766 50.1148 1333.10 1322.68 38.70
12767 50.1185 1241.20 1322.97 36.30
12768 50.1223 1340.50 1323.28 38.30
12769 50.1261 1324.30 1323.60 37.90
12770 50.1298 1376.50 1323.92 39.70
12771 50.1337 1365.30 1324.26 39.30
12772 50.1373 1372.30 1324.61 38.80
12773 50.1412 1312.80 1324.97 38.10
12774 50.1450 1404.90 1325.34 39.90
12775 50.1487 1326.10 1325.71 38.40
12776 50.1525 1349.60 1326.11 39.10
12777 50.1562 1331.60 1326.50 38.90
12778 50.1600 1360.90 1326.92 39.30
12779 50.1637 1289.70 1327.36 38.30
12780 50.1674 1405.40 1327.79 39.70
12781 50.1712 1319.50 1328.26 38.80
12782 50.1749 1340.90 1328.72 38.70
12783 50.1787 1396.60 1329.21 39.50
12784 50.1824 1431.50 1329.71 40.10
12785 50.1862 1326.70 1330.23 38.80
12786 50.1900 1340.50 1330.77 39.00
12787 50.1937 1323.40 1331.32 38.50
12788 50.1976 1355.10 1331.90 39.10
12789 50.2012 1388.30 1332.48 39.50
12790 50.2051 1332.90 1333.10 38.80
12791 50.2089 1431.50 1333.73 40.60
12792 50.2126 1373.90 1334.38 39.00
12793 50.2164 1310.60 1335.06 38.70
12794 50.2201 1390.10 1335.75 39.50
12795 50.2239 1350.80 1336.49 38.70
12796 50.2276 1413.20 1337.25 39.70
12797 50.2313 1368.30 1338.01 39.90
12798 50.2351 1427.20 1338.83 40.00
12799 50.2388 1355.70 1339.65 38.80
12800 50.2426 1391.80 1340.52 39.00
12801 50.2464 1360.20 1341.43 39.40
12802 50.2501 1416.00 1342.35 40.10
12803 50.2539 1370.30 1343.33 39.50
12804 50.2576 1444.80 1344.32 40.20
12805 50.2615 1373.20 1345.37 39.30
12806 50.2653 1449.60 1346.47 40.10
12807 50.2690 1303.60 1347.58 38.00
12808 50.2728 1359.60 1348.77 39.50
12809 50.2765 1331.80 1349.97 38.90
12810 50.2803 1361.20 1351.25 39.40
12811 50.2840 1384.60 1356.18 39.30
12812 50.2878 1370.90 1357.58 39.10
12813 50.2915 1422.80 1359.07 40.10
12814 50.2952 1392.10 1360.59 39.70
12815 50.2990 1344.00 1362.21 39.00
12816 50.3028 1398.30 1363.90 39.80
12817 50.3065 1426.10 1365.63 40.20
12818 50.3103 1458.80 1367.47 40.70
12819 50.3140 1361.60 1369.35 39.10
12820 50.3178 1344.50 1371.36 38.30
12821 50.3215 1396.40 1373.42 39.80
12822 50.3254 1359.40 1375.62 38.50
12823 50.3292 1359.20 1377.93 39.80
12824 50.3329 1446.60 1380.29 40.90
12825 50.3367 1384.70 1382.83 39.40
12826 50.3404 1450.30 1385.42 40.80
12827 50.3442 1400.00 1388.22 39.70
12828 50.3479 1402.80 1391.17 40.10
12829 50.3517 1406.60 1394.18 40.50
12830 50.3554 1452.10 1397.43 40.80
12831 50.3591 1408.80 1400.77 40.30
12832 50.3629 1401.60 1404.39 40.00
12833 50.3667 1406.70 1408.21 40.20
12834 50.3704 1503.50 1412.13 41.60
12835 50.3742 1446.20 1416.39 40.10
12836 50.3779 1420.50 1420.78 40.20
12837 50.3817 1401.20 1425.55 40.40
12838 50.3856 1369.20 1430.62 39.50
12839 50.3893 1466.40 1435.85 40.90
12840 50.3931 1453.40 1441.56 41.00
12841 50.3968 1499.10 1447.48 41.70
12842 50.4006 1528.50 1453.95 41.90
12843 50.4044 1474.50 1460.85 40.90
12844 50.4081 1561.90 1468.03 42.40
12845 50.4118 1457.70 1475.91 40.90
12846 50.4156 1517.70 1484.12 41.90
12847 50.4193 1531.10 1493.16 41.20
12848 50.4231 1541.80 1502.88 42.10
12849 50.4268 1518.80 1513.06 41.70
12850 50.4306 1586.20 1524.31 43.00
12851 50.4343 1627.20 1536.13 43.30
12852 50.4381 1582.10 1549.25 42.60
12853 50.4418 1548.60 1563.09 41.90
12854 50.4456 1609.30 1578.49 43.00
12855 50.4495 1549.00 1595.28 41.90
12856 50.4532 1700.50 1613.06 44.50
12857 50.4570 1661.80 1633.02 43.30
12858 50.4607 1699.80 1654.28 44.40
12859 50.4645 1694.20 1678.23 43.70
12860 50.4683 1735.30 1704.57 44.80
12861 50.4720 1805.40 1732.87 45.90
12862 50.4757 1821.60 1764.96 46.30
12863 50.4795 1831.10 1799.52 46.20
12864 50.4832 1956.60 1838.97 47.60
12865 50.4870 2050.60 1882.81 48.60
12866 50.4907 2020.20 1930.41 47.70
12867 50.4945 2017.80 1984.88 48.20
12868 50.4982 2152.80 2044.19 49.80
12869 50.5020 2226.00 2112.22 51.00
12870 50.5059 2296.10 2188.47 51.40
12871 50.5095 2481.00 2271.42 54.60
12872 50.5134 2612.50 2366.61 56.00
12873 50.5171 2681.70 2469.76 57.20
12874 50.5209 2704.40 2587.35 56.90
12875 50.5246 2866.10 2713.51 57.60
12876 50.5284 3186.60 2855.19 62.00
12877 50.5322 3299.30 3008.06 64.10
12878 50.5359 3432.00 3166.02 64.30
12879 50.5396 3558.50 3333.95 65.70
12880 50.5434 3900.40 3497.12 69.50
12881 50.5471 3863.70 3657.53 69.00
12882 50.5509 4193.80 3800.34 71.70
12883 50.5546 4299.70 3912.69 73.40
12884 50.5584 4334.50 3990.46 73.50
12885 50.5621 4209.30 4022.52 72.10
12886 50.5659 4393.10 4007.19 73.40
12887 50.5698 4135.10 3944.61 70.40
12888 50.5734 4120.40 3844.36 71.40
12889 50.5773 3945.40 3710.18 68.70
12890 50.5810 3716.80 3559.44 67.70
12891 50.5848 3509.60 3393.77 64.90
12892 50.5885 3338.90 3230.18 63.80
12893 50.5923 3041.20 3065.91 60.40
12894 50.5961 3005.90 2910.00 59.70
12895 50.5998 2739.00 2768.36 56.70
12896 50.6035 2576.40 2634.67 55.10
12897 50.6073 2481.60 2516.59 54.20
12898 50.6110 2250.80 2406.83 51.30
12899 50.6148 2118.30 2308.53 49.30
12900 50.6185 2042.30 2222.69 48.60
12901 50.6223 1986.50 2143.95 47.70
12902 50.6260 1980.00 2075.37 47.10
12903 50.6298 1907.50 2012.51 47.40
12904 50.6337 1912.80 1956.35 47.20
12905 50.6373 1673.00 1907.44 44.00
12906 50.6412 1753.40 1862.41 44.50
12907 50.6449 1665.50 1823.08 43.20
12908 50.6487 1711.90 1786.74 44.20
12909 50.6524 1625.70 1754.90 43.30
12910 50.6562 1640.60 1725.36 43.50
12911 50.6600 1609.60 1698.71 42.90
12912 50.6637 1615.70 1675.17 42.60
12913 50.6674 1580.60 1653.21 42.60
12914 50.6712 1668.50 1633.81 43.70
12915 50.6749 1656.80 1615.62 43.70
12916 50.6787 1495.10 1599.06 41.20
12917 50.6824 1542.30 1584.31 41.90
12918 50.6862 1577.60 1570.47 42.30
12919 50.6899 1553.30 1558.11 42.10
12920 50.6937 1566.80 1546.48 42.00
12921 50.6976 1489.60 1535.81 41.10
12922 50.7012 1493.10 1526.28 41.00
12923 50.7051 1517.80 1517.29 41.70
12924 50.7088 1481.60 1509.26 41.30
12925 50.7126 1455.70 1501.69 40.70
12926 50.7163 1482.40 1494.93 41.40
12927 50.7201 1469.10 1488.57 40.90
12928 50.7239 1485.30 1482.77 40.70
12929 50.7276 1418.60 1477.61 39.60
12930 50.7313 1514.60 1472.79 42.30
12931 50.7351 1425.60 1468.55 40.10
12932 50.7388 1431.70 1464.62 40.10
12933 50.7426 1408.50 1461.11 39.90
12934 50.7463 1466.70 1458.08 41.00
12935 50.7501 1500.10 1455.35 41.50
12936 50.7538 1442.50 1453.05 40.50
12937 50.7576 1434.50 1451.06 40.80
12938 50.7613 1380.30 1449.46 39.50
12939 50.7651 1447.40 1448.18 40.40
12940 50.7690 1482.90 1447.26 41.10
12941 50.7727 1401.10 1446.71 40.10
12942 50.7765 1524.90 1446.52 42.30
12943 50.7802 1447.40 1446.68 40.30
12944 50.7840 1420.80 1447.24 40.50
12945 50.7878 1477.40 1448.20 40.50
12946 50.7915 1444.60 1449.53 40.50
12947 50.7952 1527.40 1451.35 41.80
12948 50.7990 1457.70 1453.56 40.80
12949 50.8027 1458.30 1456.33 40.70
12950 50.8064 1433.50 1459.54 40.00
12951 50.8102 1531.70 1463.42 41.80
12952 50.8140 1448.00 1467.92 40.30
12953 50.8177 1460.50 1472.98 41.00
12954 50.8215 1502.80 1478.93 40.90
12955 50.8252 1483.00 1485.54 40.50
12956 50.8290 1538.40 1493.24 42.00
12957 50.8329 1561.50 1501.99 43.00
12958 50.8366 1558.20 1511.63 42.00
12959 50.8404 1556.50 1522.83 42.40
12960 50.8441 1529.20 1535.14 41.50
12961 50.8479 1561.30 1549.41 42.30
12962 50.8516 1598.90 1565.10 42.80
12963 50.8554 1586.20 1583.26 42.80
12964 50.8591 1687.30 1603.80 43.10
12965 50.8629 1661.70 1626.28 43.90
12966 50.8666 1784.90 1652.33 45.50
12967 50.8703 1749.10 1680.78 44.70
12968 50.8741 1883.80 1713.55 46.60
12969 50.8779 1866.70 1750.15 45.90
12970 50.8816 1865.10 1789.76 46.20
12971 50.8854 1906.70 1834.55 47.00
12972 50.8891 2071.70 1882.17 48.90
12973 50.8929 2026.40 1934.69 48.50
12974 50.8966 2165.40 1988.64 50.50
12975 50.9005 2214.20 2045.48 51.00
12976 50.9043 2242.80 2101.60 51.50
12977 50.9080 2245.90 2152.96 51.70
12978 50.9118 2383.80 2198.86 52.70
12979 50.9155 2339.10 2233.57 52.20
12980 50.9193 2440.10 2255.68 53.20
12981 50.9230 2345.40 2261.94 51.50
12982 50.9268 2400.20 2251.96 53.20
12983 50.9305 2367.40 2226.25 54.00
12984 50.9342 2444.80 2188.52 53.40
12985 50.9380 2276.00 2139.94 51.90
12986 50.9417 2232.00 2086.55 51.00
12987 50.9455 2117.70 2028.67 50.10
12988 50.9493 2119.60 1970.53 49.40
12989 50.9530 2010.10 1915.47 48.40
12990 50.9568 1886.60 1861.91 47.10
12991 50.9605 1792.10 1813.43 45.60
12992 50.9644 1828.30 1767.68 45.70
12993 50.9680 1656.50 1727.17 43.70
12994 50.9719 1724.30 1689.53 44.50
12995 50.9757 1602.00 1655.73 43.10
12996 50.9794 1608.80 1626.14 43.20
12997 50.9832 1623.10 1598.93 43.30
12998 50.9869 1495.30 1575.14 41.10
12999 50.9907 1573.60 1553.27 42.90
13000 50.9944 1515.10 1534.13 41.90
13001 50.9981 1485.80 1516.47 41.30
13002 51.0019 1554.80 1500.60 42.20
13003 51.0056 1437.40 1486.67 40.30
13004 51.0094 1420.80 1473.74 40.80
13005 51.0131 1480.40 1462.34 40.80
13006 51.0169 1488.40 1451.70 41.40
13007 51.0207 1389.90 1442.03 39.60
13008 51.0244 1419.50 1433.44 40.20
13009 51.0283 1398.50 1425.37 39.40
13010 51.0320 1492.20 1418.18 41.90
13011 51.0358 1402.60 1411.38 40.20
13012 51.0395 1423.30 1405.29 40.10
13013 51.0433 1326.30 1399.51 39.10
13014 51.0471 1428.20 1394.17 40.30
13015 51.0508 1346.00 1389.35 39.10
13016 51.0546 1398.40 1384.76 39.80
13017 51.0583 1415.30 1380.59 40.00
13018 51.0620 1411.50 1376.61 40.30
13019 51.0658 1330.00 1372.98 38.90
13020 51.0695 1361.70 1369.50 38.90
13021 51.0733 1368.80 1366.24 39.30
13022 51.0770 1373.10 1363.26 39.40
13023 51.0808 1342.70 1360.39 38.90
13024 51.0845 1414.30 1357.75 39.70
13025 51.0883 1409.70 1355.21 40.10
13026 51.0920 1332.60 1352.86 39.00
13027 51.0959 1344.30 1350.59 38.80
13028 51.0997 1399.30 1348.44 39.60
13029 51.1034 1344.20 1346.46 39.00
13030 51.1072 1397.00 1344.53 39.70
13031 51.1109 1334.50 1342.75 38.70
13032 51.1147 1373.70 1341.01 39.70
13033 51.1184 1376.90 1339.40 39.60
13034 51.1222 1331.30 1337.82 38.50
13035 51.1259 1378.70 1336.32 38.80
13036 51.1297 1369.00 1334.92 40.10
13037 51.1334 1367.30 1333.55 39.10
13038 51.1371 1356.20 1332.28 38.20
13039 51.1409 1376.10 1331.03 39.10
13040 51.1446 1337.60 1329.86 38.60
13041 51.1484 1331.50 1328.71 38.80
13042 51.1522 1463.10 1327.61 40.90
13043 51.1559 1357.30 1326.58 39.30
13044 51.1598 1417.00 1325.56 40.20
13045 51.1634 1363.40 1324.61 39.20
13046 51.1673 1292.40 1323.67 38.00
13047 51.1710 1322.70 1322.79 38.90
13048 51.1748 1265.10 1321.92 37.60
13049 51.1786 1287.70 1321.08 38.10
13050 51.1823 1371.00 1320.29 39.40
13051 51.1861 1314.90 1319.51 38.50
13052 51.1898 1405.80 1318.78 40.40
13053 51.1936 1339.90 1318.04 39.10
13054 51.1973 1332.50 1317.36 38.50
13055 51.2010 1336.00 1306.34 38.80
13056 51.2048 1372.10 1305.81 39.30
13057 51.2085 1302.40 1305.30 38.50
13058 51.2123 1256.30 1304.80 37.30
13059 51.2160 1291.50 1304.32 38.10
13060 51.2198 1338.80 1303.85 39.00
13061 51.2235 1315.50 1303.41 38.10
13062 51.2273 1410.00 1302.97 39.40
13063 51.2312 1357.40 1302.55 39.80
13064 51.2349 1283.20 1302.14 38.20
13065 51.2387 1347.20 1301.74 39.10
13066 51.2424 1320.20 1301.37 38.40
13067 51.2462 1313.70 1300.99 38.40
13068 51.2499 1296.60 1300.63 38.00
13069 51.2537 1327.10 1300.28 38.90
13070 51.2575 1385.50 1299.93 39.70
13071 51.2612 1327.70 1299.61 38.10
13072 51.2649 1342.70 1299.28 38.90
13073 51.2687 1314.50 1298.97 38.60
13074 51.2724 1350.10 1298.66 39.00
13075 51.2761 1286.10 1298.37 38.20
13076 51.2799 1351.70 1298.08 39.10
13077 51.2837 1320.80 1297.79 38.40
13078 51.2874 1337.10 1297.52 39.10
13079 51.2912 1298.80 1297.25 38.60
13080 51.2949 1321.80 1296.99 38.60
13081 51.2988 1294.00 1296.73 38.10
13082 51.3024 1357.80 1296.49 38.90
13083 51.3063 1277.50 1296.24 37.80
13084 51.3101 1339.60 1296.00 39.00
13085 51.3138 1347.60 1295.77 39.50
13086 51.3176 1343.60 1295.54 38.70
13087 51.3213 1276.10 1295.32 37.90
13088 51.3251 1347.70 1295.10 39.00
13089 51.3288 1322.20 1294.89 38.60
13090 51.3326 1359.20 1294.68 40.00
13091 51.3363 1268.10 1294.48 37.90
13092 51.3400 1377.60 1294.28 39.40
13093 51.3438 1381.70 1294.08 39.40
13094 51.3475 1372.20 1293.89 39.30
13095 51.3513 1262.70 1293.70 37.50
13096 51.3550 1336.90 1293.52 39.20
13097 51.3588 1258.20 1293.33 37.70
13098 51.3625 1326.10 1293.16 38.40
13099 51.3663 1307.20 1292.98 38.40
13100 51.3702 1341.50 1292.81 38.90
13101 51.3739 1318.40 1292.64 38.60
13102 51.3777 1301.30 1292.48 38.10
13103 51.3814 1270.20 1292.32 37.40
13104 51.3852 1367.90 1292.15 39.50
13105 51.3889 1283.70 1292.00 38.10
13106 51.3927 1305.20 1291.84 38.60
13107 51.3965 1279.90 1291.69 37.90
13108 51.4002 1356.00 1291.54 39.50
13109 51.4039 1279.70 1291.39 37.90
13110 51.4076 1347.60 1291.25 39.30
13111 51.4114 1294.90 1291.10 37.60
13112 51.4151 1322.80 1290.97 38.60
13113 51.4189 1326.40 1290.83 39.00
13114 51.4226 1341.00 1290.69 38.80
13115 51.4264 1298.00 1290.55 37.40
13116 51.4302 1354.90 1290.42 39.70
13117 51.4339 1296.30 1290.29 38.00
13118 51.4378 1321.20 1290.16 38.30
13119 51.4414 1353.40 1290.04 38.90
13120 51.4453 1356.60 1289.91 38.30
13121 51.4490 1243.70 1289.79 37.10
13122 51.4528 1394.40 1289.66 39.60
13123 51.4566 1282.30 1289.54 37.80
13124 51.4603 1311.50 1289.42 38.40
13125 51.4641 1348.10 1289.30 38.40
13126 51.4678 1351.00 1289.19 38.90
13127 51.4715 1310.50 1289.07 38.70
13128 51.4753 1342.20 1288.96 38.80
13129 51.4790 1329.20 1288.85 38.80
13130 51.4827 1322.00 1288.74 38.40
13131 51.4865 1269.90 1288.63 38.20
13132 51.4903 1326.30 1288.52 38.10
13133 51.4940 1297.80 1288.41 38.50
13134 51.4978 1331.50 1288.30 38.80
13135 51.5015 1283.70 1288.20 38.00
13136 51.5053 1267.40 1288.10 37.50
13137 51.5090 1354.50 1287.99 38.40
13138 51.5129 1339.20 1287.89 39.00
13139 51.5165 1333.10 1287.79 38.80
13140 51.5204 1364.70 1287.69 39.50
13141 51.5242 1300.00 1287.59 38.30
13142 51.5279 1312.60 1287.50 37.90
13143 51.5317 1276.40 1287.40 37.40
13144 51.5354 1396.70 1287.30 39.40
13145 51.5392 1354.60 1287.21 38.60
13146 51.5429 1241.50 1287.11 36.30
13147 51.5466 1300.00 1287.02 37.70
13148 51.5504 1356.40 1286.93 38.70
13149 51.5541 1280.50 1286.83 37.70
13150 51.5579 1327.20 1286.74 38.40
13151 51.5616 1351.30 1286.65 38.70
13152 51.5654 1305.10 1282.98 37.90
13153 51.5691 1274.60 1282.94 37.70
13154 51.5729 1358.60 1282.89 38.80
13155 51.5766 1343.90 1282.84 38.20
13156 51.5804 1308.60 1282.79 37.80
13157 51.5841 1297.90 1282.75 38.00
13158 51.5880 1365.00 1282.70 38.20
13159 51.5918 1307.70 1282.65 38.00
13160 51.5955 1343.50 1282.60 38.80
13161 51.5993 1327.70 1282.56 38.20
13162 51.6030 1324.10 1282.51 38.20
13163 51.6068 1283.90 1282.46 37.60
13164 51.6105 1355.10 1282.42 38.90
13165 51.6143 1375.70 1282.37 38.80
13166 51.6180 1302.30 1282.32 37.90
13167 51.6217 1291.70 1282.27 37.40
13168 51.6255 1345.80 1282.22 38.40
13169 51.6292 1262.40 1282.18 37.20
13170 51.6330 1344.80 1282.13 39.00
13171 51.6367 1340.80 1282.08 38.60
13172 51.6405 1320.80 1282.03 37.80
13173 51.6442 1306.10 1281.99 36.90
13174 51.6480 1284.60 1281.94 38.00
13175 51.6517 1284.80 1281.89 37.40
13176 51.6555 1302.40 1281.84 37.90
13177 51.6594 1279.90 1281.80 37.20
13178 51.6631 1400.80 1281.75 39.40
13179 51.6669 1281.70 1281.70 37.50
13180 51.6706 1347.20 1281.65 37.40
13181 51.6744 1336.00 1281.61 38.40
13182 51.6781 1337.40 1281.56 38.10
13183 51.6819 1311.50 1281.51 37.50
13184 51.6856 1269.90 1292.64 37.20
13185 51.6894 1301.90 1292.73 37.30
13186 51.6931 1347.10 1292.81 38.70
13187 51.6968 1291.50 1292.89 37.60
13188 51.7006 1350.20 1292.98 38.50
13189 51.7043 1308.00 1293.07 37.90
13190 51.7081 1273.90 1293.17 37.10
13191 51.7118 1253.70 1293.26 37.30
13192 51.7156 1290.00 1293.36 36.70
13193 51.7193 1279.60 1293.46 37.20
13194 51.7231 1388.00 1293.56 38.40
13195 51.7268 1261.10 1293.66 37.00
13196 51.7307 1311.20 1293.77 37.40
13197 51.7343 1329.00 1293.88 38.60
13198 51.7382 1356.60 1294.00 39.00
13199 51.7420 1299.10 1294.12 37.70
13200 51.7457 1330.20 1294.24 37.90
13201 51.7495 1335.70 1294.36 38.10
13202 51.7532 1274.80 1294.49 37.20
13203 51.7570 1243.80 1294.62 36.90
13204 51.7607 1324.90 1294.75 38.10
13205 51.7645 1304.50 1294.89 37.80
13206 51.7682 1338.50 1295.03 38.20
13207 51.7719 1307.70 1295.17 38.10
13208 51.7757 1315.30 1295.32 38.30
13209 51.7794 1276.40 1295.47 37.30
13210 51.7832 1312.70 1295.63 37.90
13211 51.7869 1318.10 1295.79 38.10
13212 51.7907 1353.10 1295.95 38.70
13213 51.7944 1258.70 1296.12 36.60
13214 51.7982 1327.80 1296.29 38.20
13215 51.8019 1263.80 1296.47 37.00
13216 51.8058 1365.90 1296.65 38.80
13217 51.8094 1330.70 1296.84 37.60
13218 51.8133 1277.30 1297.03 37.30
13219 51.8171 1246.90 1297.23 36.20
13220 51.8208 1294.20 1297.43 37.60
13221 51.8246 1298.80 1297.64 37.90
13222 51.8283 1322.40 1297.85 37.30
13223 51.8321 1357.80 1298.07 38.80
13224 51.8358 1394.60 1298.29 39.00
13225 51.8396 1347.10 1298.53 38.10
13226 51.8433 1329.60 1298.76 37.70
13227 51.8470 1294.90 1299.01 36.90
13228 51.8507 1344.00 1299.25 37.70
13229 51.8545 1308.80 1299.51 37.30
13230 51.8582 1320.00 1299.77 38.00
13231 51.8620 1343.80 1300.05 37.80
13232 51.8658 1315.20 1300.33 37.50
13233 51.8695 1274.70 1300.61 36.80
13234 51.8733 1333.10 1300.91 38.60
13235 51.8770 1281.80 1301.21 38.10
13236 51.8809 1399.70 1301.52 39.10
13237 51.8845 1305.50 1301.84 37.20
13238 51.8884 1359.60 1302.17 38.70
13239 51.8921 1313.70 1302.50 37.20
13240 51.8959 1350.00 1302.85 38.20
13241 51.8996 1291.20 1303.21 37.50
13242 51.9034 1359.40 1303.58 38.70
13243 51.9072 1269.90 1303.96 36.90
13244 51.9109 1270.20 1304.35 37.40
13245 51.9146 1318.40 1304.75 37.90
13246 51.9184 1376.80 1305.16 37.90
13247 51.9221 1355.10 1305.59 38.40
13248 51.9258 1309.50 1306.02 37.20
13249 51.9296 1336.70 1306.47 38.10
13250 51.9333 1339.60 1306.93 38.30
13251 51.9371 1339.10 1307.41 37.80
13252 51.9408 1336.80 1307.90 38.10
13253 51.9446 1229.10 1308.41 36.40
13254 51.9483 1402.80 1308.93 38.90
13255 51.9521 1365.20 1309.47 38.30
13256 51.9560 1363.40 1310.04 39.00
13257 51.9596 1273.90 1310.60 37.40
13258 51.9635 1303.70 1311.20 37.10
13259 51.9672 1323.60 1311.80 38.10
13260 51.9710 1354.20 1312.44 38.60
13261 51.9747 1314.90 1313.08 37.40
13262 51.9785 1347.80 1313.76 37.80
13263 51.9822 1324.40 1314.45 37.70
13264 51.9860 1365.90 1315.17 38.50
13265 51.9877 1280.70 1315.50 38.00
13266 51.9913 1314.50 1316.24 38.30
13267 51.9952 1313.10 1317.03 37.90
13268 51.9989 1370.10 1317.82 39.60
13269 52.0027 1297.80 1318.67 38.30
13270 52.0064 1370.20 1319.51 39.70
13271 52.0102 1314.30 1320.42 38.60
13272 52.0140 1314.90 1321.35 38.00
13273 52.0177 1329.00 1322.29 38.30
13274 52.0215 1321.40 1323.29 38.40
13275 52.0252 1330.40 1324.30 38.40
13276 52.0289 1368.90 1325.38 38.30
13277 52.0326 1330.90 1326.47 38.20
13278 52.0364 1377.90 1327.63 39.20
13279 52.0402 1321.50 1328.83 38.40
13280 52.0439 1430.70 1330.04 40.10
13281 52.0477 1309.90 1331.34 38.20
13282 52.0514 1416.70 1332.65 39.70
13283 52.0552 1357.00 1334.05 39.00
13284 52.0589 1416.00 1335.47 39.70
13285 52.0628 1371.80 1336.98 38.70
13286 52.0664 1388.40 1338.52 39.10
13287 52.0703 1300.10 1340.16 38.10
13288 52.0741 1388.00 1341.87 38.60
13289 52.0778 1327.90 1343.61 38.40
13290 52.0816 1371.10 1345.47 39.30
13291 52.0853 1335.10 1347.36 38.40
13292 52.0891 1392.90 1349.39 39.30
13293 52.0928 1411.00 1351.45 39.60
13294 52.0965 1378.70 1353.67 39.40
13295 52.1003 1389.20 1355.92 39.10
13296 52.1040 1372.00 1358.34 39.00
13297 52.1078 1386.00 1360.88 39.00
13298 52.1115 1371.00 1363.46 38.80
13299 52.1153 1367.50 1366.25 38.90
13300 52.1190 1484.30 1369.10 41.10
13301 52.1228 1398.30 1372.16 39.60
13302 52.1265 1445.70 1375.30 39.70
13303 52.1303 1365.00 1378.69 37.80
13304 52.1340 1469.90 1382.16 40.90
13305 52.1379 1386.10 1385.91 39.00
13306 52.1415 1414.80 1389.76 39.70
13307 52.1454 1369.80 1393.93 38.70
13308 52.1492 1444.40 1398.34 40.10
13309 52.1529 1324.50 1402.87 38.30
13310 52.1567 1422.00 1407.79 38.60
13311 52.1604 1414.70 1412.86 39.60
13312 52.1642 1482.80 1418.38 40.40
13313 52.1679 1501.30 1424.07 40.40
13314 52.1716 1483.50 1430.29 40.50
13315 52.1754 1401.70 1436.72 38.90
13316 52.1791 1481.70 1443.75 40.80
13317 52.1829 1542.00 1451.24 41.40
13318 52.1866 1497.70 1459.02 40.70
13319 52.1904 1441.00 1467.55 40.00
13320 52.1941 1452.40 1476.43 39.80
13321 52.1979 1509.60 1486.20 41.20
13322 52.2016 1549.10 1496.40 40.50
13323 52.2054 1514.60 1507.65 40.70
13324 52.2091 1510.10 1519.42 40.30
13325 52.2130 1501.30 1532.45 40.70
13326 52.2166 1585.20 1546.13 41.40
13327 52.2169 1494.60 1546.89 41.10
13328 52.2206 1584.90 1562.17 42.50
13329 52.2244 1545.60 1578.70 41.70
13330 52.2281 1566.30 1596.19 42.40
13331 52.2319 1616.50 1615.70 43.50
13332 52.2356 1645.80 1636.39 43.30
13333 52.2394 1664.00 1659.59 43.30
13334 52.2431 1727.80 1684.29 45.10
13335 52.2469 1696.40 1712.11 44.30
13336 52.2506 1818.90 1741.85 44.80
13337 52.2545 1761.60 1775.50 45.30
13338 52.2581 1827.10 1811.61 46.30
13339 52.2620 1879.40 1852.64 47.10
13340 52.2657 1992.70 1896.85 48.00
13341 52.2695 1925.10 1947.24 48.00
13342 52.2733 2108.60 2003.26 49.80
13343 52.2770 2118.50 2064.00 49.50
13344 52.2808 2087.00 2133.36 49.60
13345 52.2845 2187.00 2208.67 50.60
13346 52.2882 2312.80 2294.77 51.50
13347 52.2920 2409.50 2387.95 53.30
13348 52.2957 2468.70 2494.38 54.00
13349 52.2994 2607.40 2608.87 55.50
13350 52.3032 2795.00 2738.41 57.40
13351 52.3069 2795.90 2876.18 57.60
13352 52.3107 3095.40 3029.35 61.40
13353 52.3144 2985.00 3188.32 60.00
13354 52.3182 3312.60 3359.20 63.80
13355 52.3220 3230.90 3533.13 62.00
13356 52.3257 3612.50 3699.66 65.90
13357 52.3296 3716.30 3859.23 67.20
13358 52.3332 3841.10 3994.53 69.20
13359 52.3371 3756.50 4102.49 67.50
13360 52.3408 3941.90 4168.99 67.60
13361 52.3446 3943.50 4191.25 69.60
13362 52.3483 3843.80 4166.07 68.30
13363 52.3521 3755.40 4094.63 67.70
13364 52.3558 3785.30 3986.80 67.50
13365 52.3596 3409.40 3846.11 64.40
13366 52.3633 3455.40 3684.86 64.50
13367 52.3671 3289.80 3518.04 62.70
13368 52.3708 3171.70 3343.82 62.20
13369 52.3745 2865.00 3177.76 58.50
13370 52.3783 2823.40 3015.18 57.90
13371 52.3820 2604.60 2866.75 55.20
13372 52.3858 2569.40 2726.12 55.10
13373 52.3895 2393.30 2600.76 53.50
13374 52.3933 2230.40 2484.00 51.10
13375 52.3970 2105.50 2381.16 49.20
13376 52.4008 2013.60 2286.13 48.00
13377 52.4047 1812.90 2200.74 45.90
13378 52.4084 1889.30 2126.11 46.80
13379 52.4122 1733.90 2057.23 44.20
13380 52.4159 1832.80 1997.02 45.30
13381 52.4197 1763.30 1941.36 45.00
13382 52.4234 1713.80 1892.60 44.60
13383 52.4272 1646.60 1847.40 42.50
13384 52.4309 1678.90 1807.68 44.40
13385 52.4347 1637.70 1770.73 43.30
13386 52.4384 1629.10 1738.12 43.10
13387 52.4422 1612.30 1707.64 43.00
13388 52.4459 1548.90 1679.93 42.00
13389 52.4496 1547.40 1655.33 41.80
13390 52.4534 1603.70 1632.20 43.00
13391 52.4571 1501.50 1611.57 41.20
13392 52.4609 1454.70 1592.09 40.70
13393 52.4646 1409.70 1574.65 40.10
13394 52.4684 1420.60 1558.11 40.20
13395 52.4721 1485.20 1543.25 40.70
13396 52.4759 1360.60 1529.10 39.40
13397 52.4796 1417.40 1516.34 39.60
13398 52.4835 1491.80 1504.16 41.10
13399 52.4873 1441.50 1492.84 40.50
13400 52.4910 1480.60 1482.56 41.20
13401 52.4948 1432.80 1472.72 40.50
13402 52.4985 1446.30 1463.75 40.00
13403 52.5023 1375.40 1455.13 39.40
13404 52.5060 1485.70 1447.28 40.90
13405 52.5098 1451.30 1439.70 41.10
13406 52.5135 1427.00 1432.77 40.30
13407 52.5173 1401.70 1426.06 40.30
13408 52.5210 1378.50 1419.76 39.70
13409 52.5247 1430.50 1413.98 40.10
13410 52.5285 1376.00 1408.37 39.60
13411 52.5322 1421.50 1403.21 40.30
13412 52.5360 1389.00 1398.20 39.80
13413 52.5397 1342.50 1393.57 39.00
13414 52.5435 1374.80 1389.08 39.50
13415 52.5472 1347.00 1384.92 39.20
13416 52.5510 1375.40 1380.87 39.60
13417 52.5547 1444.40 1377.12 40.60
13418 52.5586 1347.50 1373.47 39.10
13419 52.5624 1406.10 1369.98 40.60
13420 52.5661 1374.20 1366.75 39.40
13421 52.5699 1416.60 1363.59 40.40
13422 52.5736 1376.30 1360.65 39.80
13423 52.5774 1327.10 1357.77 38.80
13424 52.5811 1377.10 1355.09 39.60
13425 52.5849 1396.40 1352.46 39.80
13426 52.5886 1413.10 1350.00 40.80
13427 52.5924 1356.80 1347.59 39.30
13428 52.5961 1356.20 1345.28 39.20
13429 52.5998 1361.20 1343.13 39.20
13430 52.6036 1349.00 1341.00 38.70
13431 52.6073 1296.30 1339.02 38.50
13432 52.6111 1422.30 1337.06 40.40
13433 52.6148 1288.60 1335.23 37.90
13434 52.6186 1329.10 1333.42 38.90
13435 52.6225 1390.80 1331.68 39.40
13436 52.6261 1355.00 1330.05 38.60
13437 52.6337 1423.60 1326.93 40.10
13438 52.6375 1317.60 1325.43 38.70
13439 52.6412 1392.10 1324.03 39.50
13440 52.6450 1431.20 1322.63 40.60
13441 52.6487 1352.90 1321.32 39.40
13442 52.6525 1294.90 1320.02 38.60
13443 52.6562 1370.10 1318.80 39.40
13444 52.6600 1314.90 1317.59 39.30
13445 52.6637 1289.70 1316.41 38.20
13446 52.6674 1281.60 1315.31 38.50
13447 52.6712 1373.90 1314.21 40.00
13448 52.6749 1330.00 1313.17 39.30
13449 52.6787 1300.60 1312.14 37.60
13450 52.6824 1311.30 1311.17 37.30
13451 52.6862 1405.10 1310.20 38.90
13452 52.6900 1286.00 1309.26 37.10
13453 52.6937 1355.30 1308.38 37.60
13454 52.7012 1308.40 1306.66 36.00
13455 52.7088 1387.90 1305.04 38.60
13456 52.7126 1328.90 1304.25 37.60
13457 52.7163 1352.90 1303.50 38.30
13458 52.7201 1313.30 1306.16 37.50
13459 52.7239 1387.00 1305.47 38.70
13460 52.7276 1351.80 1304.82 37.60
13461 52.7313 1382.20 1304.18 38.90
13462 52.7351 1323.90 1303.57 37.90
13463 52.7388 1279.50 1302.96 36.60
13464 52.7425 1249.10 1302.38 36.30
13465 52.7463 1381.50 1301.81 38.10
13466 52.7501 1301.70 1301.25 37.20
13467 52.7538 1384.90 1300.72 38.60
13468 52.7576 1278.20 1300.19 36.90
13469 52.7613 1409.40 1299.69 39.00
13470 52.7651 1321.90 1299.19 37.90
13471 52.7688 1357.90 1298.72 38.20
13472 52.7727 1242.50 1298.25 36.70
13473 52.7763 1342.10 1297.81 38.10
13474 52.7802 1350.20 1297.36 38.10
13475 52.7840 1382.20 1296.93 38.30
13476 52.7877 1279.60 1296.52 37.20
13477 52.7915 1286.60 1296.11 37.30
13478 52.7952 1319.20 1295.72 37.80
13479 52.7990 1325.60 1295.33 37.70
13480 52.8027 1298.20 1294.96 37.40
13481 52.8064 1277.80 1294.59 37.10
13482 52.8102 1315.80 1294.24 38.10
13483 52.8139 1345.10 1293.90 38.00
13484 52.8177 1335.90 1293.56 37.90
13485 52.8214 1324.80 1293.24 37.80
13486 52.8252 1255.20 1292.92 36.50
13487 52.8289 1335.80 1292.62 37.50
13488 52.8327 1319.60 1292.32 38.40
13489 52.8364 1365.40 1292.03 38.80
13490 52.8402 1257.80 1291.75 36.70
13491 52.8441 1294.80 1291.47 37.00
13492 52.8478 1251.80 1291.21 36.60
13493 52.8516 1294.20 1290.95 37.30
13494 52.8553 1312.30 1290.70 37.70
13495 52.8591 1321.30 1290.46 38.00
13496 52.8628 1360.70 1290.22 38.20
13497 52.8666 1276.00 1289.99 37.20
13498 52.8703 1255.80 1289.77 36.70
13499 52.8741 1287.10 1289.56 37.20
13500 52.8778 1307.40 1289.35 37.70
13501 52.8815 1297.30 1289.15 37.40
13502 52.8853 1288.20 1288.96 37.40
13503 52.8890 1354.10 1288.77 38.20
13504 52.8928 1235.60 1288.59 36.40
13505 52.8966 1313.80 1288.42 37.40
13506 52.9003 1226.50 1288.25 36.10
13507 52.9041 1214.50 1288.09 35.50
13508 52.9078 1280.40 1287.94 37.20
13509 52.9117 1340.10 1287.79 37.80
13510 52.9154 1293.30 1287.65 37.30
13511 52.9192 1317.30 1287.51 37.80
13512 52.9229 1205.60 1287.38 36.00
13513 52.9267 1307.10 1287.26 36.90
13514 52.9305 1241.90 1287.14 37.20
13515 52.9342 1273.40 1287.03 37.20
13516 52.9380 1294.50 1286.93 37.30
13517 52.9417 1299.40 1286.83 37.20
13518 52.9454 1259.30 1286.74 36.20
13519 52.9492 1371.90 1286.66 38.60
13520 52.9529 1250.60 1286.58 36.70
13521 52.9567 1310.90 1286.50 37.60
13522 52.9604 1318.80 1286.44 37.90
13523 52.9642 1319.10 1286.38 37.40
13524 52.9679 1236.80 1286.33 36.60
13525 52.9717 1324.90 1286.28 37.80
13526 52.9754 1269.70 1286.24 37.10
13527 52.9793 1324.80 1286.21 38.00
13528 52.9831 1285.00 1286.18 37.10
13529 52.9868 1197.60 1286.16 36.10
13530 52.9906 1273.10 1286.15 37.30
13531 52.9943 1259.10 1286.14 37.10
13532 52.9981 1307.30 1286.15 37.50
13533 53.0018 1315.70 1286.16 37.70
13534 53.0056 1306.60 1286.17 37.80
13535 53.0093 1248.70 1275.12 36.80
13536 53.0131 1312.50 1275.28 37.40
13537 53.0168 1347.80 1275.44 38.10
13538 53.0205 1330.30 1275.61 37.40
13539 53.0243 1327.60 1275.78 37.80
13540 53.0280 1218.40 1275.96 35.90
13541 53.0318 1282.30 1276.16 38.00
13542 53.0356 1266.90 1276.35 37.20
13543 53.0393 1303.60 1276.55 37.50
13544 53.0432 1325.50 1276.77 37.90
13545 53.0468 1343.40 1276.99 38.00
13546 53.0507 1238.80 1277.22 36.20
13547 53.0544 1339.80 1277.45 37.50
13548 53.0582 1360.10 1277.70 38.70
13549 53.0620 1260.30 1278.10 37.10
13550 53.0657 1257.20 1278.37 36.90
13551 53.0695 1306.90 1278.65 37.60
13552 53.0732 1289.60 1278.94 37.40
13553 53.0770 1322.10 1279.24 37.90
13554 53.0807 1225.90 1279.56 36.50
13555 53.0844 1335.80 1279.89 38.20
13556 53.0882 1293.20 1280.23 37.40
13557 53.0919 1397.20 1280.59 39.00
13558 53.0957 1287.00 1280.96 37.30
13559 53.0994 1343.30 1281.34 38.30
13560 53.1032 1240.80 1281.75 36.70
13561 53.1071 1275.70 1282.18 37.30
13562 53.1107 1307.10 1282.61 37.90
13563 53.1146 1267.10 1283.08 36.60
13564 53.1183 1319.30 1283.55 37.80
13565 53.1221 1350.20 1284.06 38.40
13566 53.1258 1315.40 1284.57 37.30
13567 53.1296 1323.80 1285.12 37.70
13568 53.1334 1296.60 1285.70 38.20
13569 53.1371 1316.70 1286.29 37.70
13570 53.1409 1277.70 1286.93 36.90
13571 53.1446 1369.40 1287.57 38.70
13572 53.1483 1352.10 1288.27 38.50
13573 53.1521 1307.90 1288.98 38.10
13574 53.1558 1259.70 1289.75 37.30
13575 53.1596 1376.00 1290.55 39.20
13576 53.1633 1288.60 1291.37 37.90
13577 53.1671 1372.50 1292.26 39.30
13578 53.1708 1244.10 1293.16 37.60
13579 53.1746 1324.30 1294.14 38.70
13580 53.1783 1347.30 1295.15 38.80
13581 53.1822 1387.70 1296.24 39.40
13582 53.1860 1280.40 1297.38 38.00
13583 53.1897 1329.00 1298.56 38.30
13584 53.1935 1323.30 1299.84 38.60
13585 53.1972 1355.10 1301.15 38.90
13586 53.2010 1335.30 1302.58 37.90
13587 53.2048 1295.00 1304.09 37.80
13588 53.2085 1316.90 1305.65 38.70
13589 53.2122 1380.20 1307.35 39.40
13590 53.2160 1305.90 1309.10 38.40
13591 53.2197 1331.50 1311.01 38.60
13592 53.2234 1328.40 1313.00 38.60
13593 53.2272 1362.30 1315.16 38.50
13594 53.2310 1374.20 1317.48 39.80
13595 53.2347 1388.70 1319.88 39.90
13596 53.2385 1288.20 1322.51 38.00
13597 53.2422 1391.20 1325.26 39.20
13598 53.2461 1321.00 1328.28 38.40
13599 53.2497 1352.20 1331.43 38.90
13600 53.2536 1323.80 1334.90 38.40
13601 53.2574 1327.60 1338.65 38.20
13602 53.2611 1370.20 1342.57 39.40
13603 53.2649 1372.80 1346.92 39.40
13604 53.2686 1403.30 1351.50 38.90
13605 53.2724 1419.50 1356.59 39.70
13606 53.2761 1330.50 1362.12 38.10
13607 53.2799 1376.70 1367.97 39.20
13608 53.2836 1382.80 1374.51 39.40
13609 53.2873 1374.70 1381.46 39.00
13610 53.2911 1330.90 1389.25 38.50
13611 53.2948 1416.90 1397.56 39.50
13612 53.2986 1440.00 1406.93 39.60
13613 53.3024 1487.30 1417.25 40.90
13614 53.3061 1386.50 1428.31 39.40
13615 53.3100 1508.90 1440.85 41.10
13616 53.3136 1373.80 1454.35 38.30
13617 53.3175 1465.80 1469.71 40.60
13618 53.3213 1465.30 1486.76 40.60
13619 53.3250 1538.70 1505.20 41.20
13620 53.3288 1455.50 1526.22 39.70
13621 53.3325 1604.30 1548.98 43.60
13622 53.3363 1527.00 1574.92 41.40
13623 53.3400 1588.50 1602.98 42.00
13624 53.3438 1558.50 1634.91 41.00
13625 53.3475 1670.50 1670.13 42.60
13626 53.3512 1720.30 1707.83 44.00
13627 53.3550 1743.10 1749.99 43.90
13628 53.3587 1746.60 1794.33 44.70
13629 53.3625 1838.80 1842.73 45.00
13630 53.3663 1803.60 1893.34 44.40
13631 53.3700 1897.10 1943.46 46.40
13632 53.3739 1919.10 1994.08 46.40
13633 53.3775 2005.20 2040.26 47.30
13634 53.3814 2050.70 2081.83 48.00
13635 53.3851 2069.70 2113.81 48.50
13636 53.3889 2017.40 2135.38 47.80
13637 53.3927 2013.70 2143.59 47.80
13638 53.3964 2078.10 2138.03 48.00
13639 53.4002 2037.50 2118.93 48.20
13640 53.4039 2020.90 2088.87 47.90
13641 53.4076 2074.80 2048.70 48.50
13642 53.4114 1905.20 2002.11 46.70
13643 53.4151 2018.90 1953.13 48.00
13644 53.4189 1797.80 1901.64 44.90
13645 53.4226 1781.60 1852.02 44.10
13646 53.4264 1754.90 1803.05 43.60
13647 53.4301 1706.50 1758.05 43.90
13648 53.4339 1571.70 1715.15 42.10
13649 53.4378 1637.00 1675.73 41.60
13650 53.4414 1547.90 1640.75 41.10
13651 53.4453 1573.70 1608.14 41.60
13652 53.4490 1477.70 1579.46 40.10
13653 53.4528 1486.20 1552.88 40.70
13654 53.4566 1416.70 1528.99 39.30
13655 53.4603 1459.60 1508.03 40.40
13656 53.4641 1425.80 1488.67 39.40
13657 53.4678 1418.50 1471.66 39.30
13658 53.4715 1358.30 1455.89 38.80
13659 53.4753 1461.50 1442.07 40.20
13660 53.4790 1415.60 1429.19 39.50
13661 53.4828 1397.00 1417.55 39.40
13662 53.4865 1319.50 1407.26 37.90
13663 53.4903 1356.00 1397.65 38.30
13664 53.4940 1386.20 1389.12 38.30
13665 53.4978 1379.80 1381.12 39.10
13666 53.5017 1249.30 1373.81 36.90
13667 53.5053 1409.90 1367.28 39.30
13668 53.5092 1269.20 1361.12 37.20
13669 53.5129 1325.60 1355.60 37.80
13670 53.5167 1320.30 1350.37 37.90
13671 53.5205 1367.60 1345.55 37.90
13672 53.5242 1382.20 1341.20 39.00
13673 53.5280 1321.00 1337.06 37.30
13674 53.5317 1338.60 1333.32 39.00
13675 53.5354 1338.00 1329.74 38.70
13676 53.5392 1280.00 1326.51 37.60
13677 53.5429 1355.70 1323.40 38.60
13678 53.5467 1380.80 1320.51 39.10
13679 53.5504 1263.70 1317.88 36.80
13680 53.5542 1288.50 1315.35 37.10
13681 53.5579 1221.70 1313.05 36.50
13682 53.5617 1312.40 1310.84 37.70
13683 53.5656 1265.30 1308.76 37.60
13684 53.5692 1285.60 1306.86 37.50
13685 53.5731 1336.20 1305.03 38.20
13686 53.5768 1224.30 1303.36 36.70
13687 53.5806 1231.00 1301.74 36.90
13688 53.5844 1306.20 1300.23 38.20
13689 53.5881 1245.00 1298.84 37.20
13690 53.5919 1330.90 1297.51 38.30
13691 53.5956 1356.00 1296.29 38.20
13692 53.5993 1345.80 1295.11 38.50
13693 53.6031 1294.20 1294.03 37.90
13694 53.6068 1315.50 1293.00 38.30
13695 53.6106 1365.20 1292.04 38.60
13696 53.6143 1288.40 1291.17 37.70
13697 53.6181 1277.20 1290.34 36.60
13698 53.6218 1245.70 1289.59 37.00
13699 53.6256 1315.70 1288.88 38.50
13700 53.6295 1240.00 1288.24 36.40
13701 53.6331 1306.30 1287.67 38.80
13702 53.6370 1306.40 1287.16 38.70
13703 53.6407 1326.70 1286.71 37.80
13704 53.6445 1315.40 1286.32 37.30
13705 53.6483 1259.40 1286.00 36.90
13706 53.6520 1263.50 1285.75 36.90
13707 53.6558 1323.40 1285.57 37.60
13708 53.6595 1293.60 1285.48 37.20
13709 53.6632 1339.30 1285.46 38.20
13710 53.6670 1199.40 1285.53 35.90
13711 53.6707 1368.10 1285.69 38.90
13712 53.6745 1246.60 1285.97 36.40
13713 53.6782 1322.60 1286.34 37.70
13714 53.6820 1279.90 1286.84 37.00
13715 53.6857 1365.40 1287.46 38.50
13716 53.6895 1306.40 1288.23 37.50
13717 53.6934 1274.60 1289.15 36.90
13718 53.6970 1271.50 1290.19 37.10
13719 53.7009 1316.30 1291.42 37.90
13720 53.7046 1311.00 1292.75 37.80
13721 53.7084 1316.00 1294.25 37.70
13722 53.7122 1290.60 1295.85 37.70
13723 53.7159 1300.80 1297.46 37.30
13724 53.7197 1272.30 1299.10 37.20
13725 53.7234 1328.10 1300.60 38.20
13726 53.7271 1241.90 1301.93 36.40
13727 53.7309 1222.90 1302.93 36.30
13728 53.7346 1286.60 1303.49 38.00
13729 53.7384 1310.60 1303.57 37.40
13730 53.7421 1287.40 1303.11 37.30
13731 53.7459 1299.70 1302.12 37.30
13732 53.7497 1315.10 1300.65 37.50
13733 53.7534 1284.10 1298.86 37.30
13734 53.7573 1277.80 1296.76 37.30
13735 53.7609 1328.10 1294.55 37.80
13736 53.7648 1315.50 1292.23 37.80
13737 53.7685 1332.80 1289.99 38.20
13738 53.7723 1289.40 1287.76 36.60
13739 53.7761 1263.80 1285.64 36.60
13740 53.7798 1192.30 1283.71 35.80
13741 53.7836 1299.20 1281.86 37.60
13742 53.7873 1296.40 1280.21 37.50
13743 53.7910 1269.40 1278.64 37.40
13744 53.7948 1271.80 1277.21 37.30
13745 53.7985 1254.80 1275.94 36.90
13746 53.8023 1328.70 1274.74 37.90
13747 53.8060 1312.00 1273.68 37.70
13748 53.8098 1229.80 1272.67 36.50
13749 53.8136 1277.00 1271.75 37.20
13750 53.8173 1227.30 1270.93 36.60
13751 53.8212 1325.30 1270.15 37.40
13752 53.8248 1236.00 1269.45 36.40
13753 53.8287 1329.70 1268.78 37.60
13754 53.8325 1227.00 1268.16 36.60
13755 53.8362 1306.00 1267.60 37.80
13756 53.8400 1280.70 1267.06 37.10
13757 53.8437 1337.80 1266.56 37.60
13758 53.8475 1243.50 1266.09 36.60
13759 53.8512 1318.30 1265.64 37.70
13760 53.8549 1290.40 1265.23 37.30
13761 53.8587 1256.20 1264.84 36.40
13762 53.8624 1209.70 1264.47 36.40
13763 53.8662 1252.70 1264.11 36.80
13764 53.8700 1233.20 1263.77 36.50
13765 53.8737 1301.40 1263.45 37.60
13766 53.8775 1212.10 1263.14 36.10
13767 53.8812 1258.00 1262.85 36.50
13768 53.8851 1273.10 1262.57 37.20
13769 53.8889 1255.80 1262.30 37.00
13770 53.8926 1270.50 1262.04 37.50
13771 53.8964 1316.50 1261.79 37.70
13772 53.9001 1246.70 1261.55 36.60
13773 53.9039 1264.20 1261.31 36.90
13774 53.9076 1293.70 1261.09 37.60
13775 53.9114 1348.00 1260.87 38.40
13776 53.9151 1300.20 1260.66 37.30
13777 53.9188 1300.50 1260.45 37.50
13778 53.9226 1242.60 1260.25 36.80
13779 53.9263 1230.60 1260.06 36.20
13780 53.9301 1156.50 1259.87 34.80
13781 53.9339 1330.80 1259.69 38.80
13782 53.9376 1236.00 1259.51 36.70
13783 53.9414 1254.50 1259.34 36.70
13784 53.9451 1269.90 1259.17 37.00
13785 53.9490 1246.70 1259.00 36.80
13786 53.9528 1261.20 1258.84 37.00
13787 53.9565 1252.50 1258.68 36.90
13788 53.9603 1229.90 1258.52 36.40
13789 53.9640 1257.70 1258.38 36.80
13790 53.9678 1264.60 1258.22 36.80
13791 53.9715 1294.90 1258.08 37.80
13792 53.9753 1269.80 1257.94 37.30
13793 53.9790 1267.40 1257.79 37.00
13794 53.9827 1277.80 1257.66 37.50
13795 53.9865 1323.90 1257.52 37.70
13796 53.9903 1199.40 1257.39 36.00
13797 53.9940 1341.30 1257.26 38.30
13798 53.9978 1241.60 1257.13 36.60
13799 54.0015 1287.60 1257.00 37.40
13800 54.0053 1268.40 1256.88 37.00
13801 54.0092 1240.60 1256.75 36.50
13802 54.0129 1239.30 1256.63 36.80
13803 54.0167 1235.20 1256.51 36.00
13804 54.0204 1305.90 1256.40 37.90
13805 54.0242 1279.90 1256.28 37.40
13806 54.0280 1209.20 1256.17 36.20
13807 54.0317 1206.90 1256.05 36.30
13808 54.0354 1257.60 1255.94 37.80
13809 54.0392 1333.90 1255.83 38.10
13810 54.0429 1343.70 1255.72 38.20
13811 54.0467 1276.40 1255.62 37.40
13812 54.0504 1194.60 1255.51 36.30
13813 54.0542 1328.70 1255.41 37.90
13814 54.0579 1199.40 1255.30 36.20
13815 54.0617 1317.10 1255.20 38.20
13816 54.0656 1242.00 1255.10 36.50
13817 54.0692 1237.20 1251.61 36.80
13818 54.0731 1201.00 1251.54 36.30
13819 54.0768 1283.80 1251.48 37.70
13820 54.0806 1210.20 1251.42 36.50
13821 54.0844 1320.90 1251.36 37.80
13822 54.0881 1241.70 1251.30 36.50
13823 54.0919 1284.90 1251.24 37.10
13824 54.0956 1240.30 1251.18 36.80
13825 54.0993 1229.80 1251.12 36.60
13826 54.1031 1266.30 1251.06 37.30
13827 54.1068 1314.60 1251.00 37.70
13828 54.1106 1237.70 1250.94 36.80
13829 54.1143 1305.10 1250.88 37.90
13830 54.1181 1284.00 1250.83 37.70
13831 54.1219 1224.60 1250.77 36.80
13832 54.1256 1271.60 1250.71 37.00
13833 54.1295 1237.00 1250.65 36.30
13834 54.1331 1215.70 1250.60 36.70
13835 54.1370 1208.90 1250.54 36.50
13836 54.1407 1229.00 1250.48 36.70
13837 54.1445 1222.10 1250.42 35.80
13838 54.1483 1258.50 1250.37 37.00
13839 54.1520 1286.70 1250.31 37.60
13840 54.1558 1205.90 1250.26 35.90
13841 54.1595 1228.30 1250.20 36.30
13842 54.1632 1188.30 1250.14 35.60
13843 54.1670 1228.10 1250.09 36.40
13844 54.1707 1276.30 1250.03 37.40
13845 54.1745 1247.30 1249.98 36.70
13846 54.1783 1251.80 1249.92 36.90
13847 54.1820 1273.00 1249.87 37.20
13848 54.1858 1248.60 1249.81 36.20
13849 54.1895 1335.40 1249.76 38.10
13850 54.1934 1270.50 1249.70 36.90
13851 54.1970 1189.10 1249.65 36.00
13852 54.2009 1282.30 1249.59 37.10
13853 54.2047 1292.80 1249.54 37.50
13854 54.2084 1250.30 1249.48 36.60
13855 54.2122 1281.20 1249.43 37.40
13856 54.2159 1210.10 1249.38 36.50
13857 54.2197 1265.60 1249.32 37.00
13858 54.2234 1271.00 1249.27 37.00
13859 54.2271 1286.80 1249.21 36.90
13860 54.2309 1204.20 1249.16 35.90
13861 54.2346 1339.10 1249.11 38.70
13862 54.2384 1268.00 1249.05 36.90
13863 54.2422 1310.20 1249.00 37.50
13864 54.2459 1279.40 1248.95 37.20
13865 54.2497 1201.90 1248.89 36.00
13866 54.2534 1238.80 1248.84 36.40
13867 54.2573 1287.40 1248.79 37.70
13868 54.2611 1251.20 1248.73 36.90
13869 54.2648 1243.50 1248.68 36.50
13870 54.2686 1202.90 1248.63 36.40
13871 54.2723 1232.50 1248.58 36.40
13872 54.2761 1193.80 1248.52 36.20
13873 54.2799 1289.40 1248.47 37.50
13874 54.2836 1250.60 1248.42 37.00
13875 54.2873 1215.80 1248.36 36.30
13876 54.2910 1181.00 1248.31 35.50
13877 54.2948 1273.30 1248.26 37.10
13878 54.2986 1257.50 1248.21 36.80
13879 54.3023 1281.60 1248.15 37.50
13880 54.3061 1233.90 1248.10 36.40
13881 54.3098 1311.50 1248.05 37.30
13882 54.3136 1251.60 1248.00 37.00
13883 54.3175 1286.90 1247.94 37.30
13884 54.3212 1173.40 1247.89 36.20
13885 54.3250 1248.10 1247.84 36.70
13886 54.3287 1269.40 1247.79 37.10
13887 54.3325 1247.10 1247.73 36.90
13888 54.3363 1226.40 1247.68 37.10
13889 54.3400 1306.20 1247.63 37.90
13890 54.3438 1243.80 1247.58 36.80
13891 54.3475 1274.50 1247.53 37.30
13892 54.3512 1272.00 1247.47 37.50
13893 54.3550 1252.00 1247.42 36.80
13894 54.3587 1260.10 1247.37 37.30
13895 54.3625 1296.20 1247.32 37.60
13896 54.3662 1289.20 1247.27 37.40
13897 54.3700 1252.80 1247.21 36.80
13898 54.3739 1217.00 1247.16 36.40
13899 54.3775 1225.40 1247.11 36.80
13900 54.3814 1242.70 1247.06 36.80
13901 54.3851 1265.80 1247.01 37.20
13902 54.3889 1232.10 1246.96 36.60
13903 54.3927 1239.20 1246.90 36.60
13904 54.3964 1232.10 1246.85 36.40
13905 54.4002 1247.30 1246.80 36.90
13906 54.4039 1192.80 1246.75 36.00
13907 54.4076 1203.60 1246.70 35.90
13908 54.4114 1265.70 1246.72 36.70
13909 54.4151 1263.30 1246.67 37.40
13910 54.4189 1218.50 1246.62 36.60
13911 54.4226 1280.10 1246.43 37.50
13912 54.4264 1223.80 1246.39 36.00
13913 54.4302 1212.30 1246.34 36.10
13914 54.4339 1223.60 1246.29 37.20
13915 54.4378 1292.10 1246.24 37.80
13916 54.4414 1240.00 1246.19 36.80
13917 54.4453 1251.80 1246.14 37.30
13918 54.4491 1223.40 1246.09 35.90
13919 54.4528 1314.70 1246.04 37.90
13920 54.4566 1215.40 1245.99 36.60
13921 54.4603 1270.40 1245.94 36.90
13922 54.4641 1240.20 1245.89 36.30
13923 54.4678 1287.90 1245.84 37.80
13924 54.4715 1270.10 1245.80 37.70
13925 54.4753 1273.70 1245.75 37.40
13926 54.4791 1210.50 1245.70 36.30
13927 54.4828 1238.80 1245.65 36.80
13928 54.4866 1245.20 1245.60 36.50
13929 54.4903 1238.00 1245.55 37.10
13930 54.4941 1251.30 1245.50 37.10
13931 54.4978 1207.60 1245.45 36.50
13932 54.5017 1224.20 1245.40 36.60
13933 54.5055 1236.70 1245.35 37.00
13934 54.5092 1262.50 1245.31 37.10
13935 54.5130 1270.70 1245.26 37.70
13936 54.5168 1231.20 1245.21 36.60
13937 54.5205 1263.70 1245.16 37.30
13938 54.5243 1216.40 1245.11 36.40
13939 54.5280 1176.20 1245.06 35.30
13940 54.5317 1251.60 1245.01 37.40
13941 54.5355 1201.40 1244.96 36.10
13942 54.5392 1166.90 1244.91 35.40
13943 54.5430 1290.60 1244.86 37.00
13944 54.5467 1213.00 1244.82 36.40
13945 54.5505 1313.60 1244.77 38.10
13946 54.5544 1235.20 1244.72 37.00
13947 54.5580 1263.90 1244.67 37.10
13948 54.5619 1231.30 1244.62 36.70
13949 54.5656 1200.20 1244.57 36.60
13950 54.5694 1210.10 1244.52 36.30
13951 54.5732 1276.40 1244.48 37.70
13952 54.5769 1258.30 1244.43 36.50
13953 54.5807 1233.60 1244.38 37.10
13954 54.5844 1193.70 1244.33 36.10
13955 54.5882 1262.50 1244.28 37.20
13956 54.5919 1260.80 1244.23 37.10
13957 54.5956 1242.00 1244.19 37.10
13958 54.5994 1176.50 1244.14 36.10
13959 54.6031 1290.80 1244.09 37.70
13960 54.6069 1246.50 1244.04 36.90
13961 54.6107 1242.30 1243.99 37.00
13962 54.6144 1260.80 1243.94 37.20
13963 54.6183 1216.10 1243.90 36.80
13964 54.6219 1277.40 1243.85 37.60
13965 54.6258 1212.10 1243.80 36.90
13966 54.6296 1192.90 1243.75 36.10
13967 54.6333 1243.40 1243.70 37.10
13968 54.6371 1242.90 1243.66 38.00
13969 54.6408 1290.70 1243.61 38.20
13970 54.6446 1218.70 1243.56 36.90
13971 54.6483 1301.50 1243.51 38.10
13972 54.6521 1205.70 1243.47 36.30
13973 54.6558 1227.50 1243.42 36.90
13974 54.6595 1221.30 1243.37 36.50
13975 54.6633 1260.60 1243.32 37.30
13976 54.6671 1249.20 1243.27 37.40
13977 54.6708 1271.40 1243.23 37.30
13978 54.6746 1291.20 1243.18 37.70
13979 54.6783 1255.40 1243.13 37.70
13980 54.6822 1169.10 1243.09 35.90
13981 54.6860 1274.80 1243.04 37.80
13982 54.6897 1214.40 1242.99 36.20
13983 54.6935 1262.30 1242.95 37.40
13984 54.6972 1104.60 1242.90 35.10
13985 54.7010 1250.60 1242.85 37.10
13986 54.7048 1224.60 1242.81 37.20
13987 54.7085 1319.60 1242.76 38.30
13988 54.7122 1216.80 1242.71 36.90
13989 54.7160 1255.60 1242.67 36.50
13990 54.7197 1263.90 1242.62 37.40
13991 54.7235 1268.20 1242.57 37.90
13992 54.7272 1265.30 1242.53 37.30
13993 54.7310 1278.20 1242.48 37.20
13994 54.7347 1237.20 1242.44 37.80
13995 54.7385 1303.10 1242.39 37.30
13996 54.7424 1191.60 1242.35 36.40
13997 54.7461 1269.20 1242.30 37.70
13998 54.7499 1192.50 1242.26 36.40
13999 54.7536 1236.50 1242.21 37.10
14000 54.7574 1266.90 1242.17 37.10
14001 54.7612 1237.10 1242.12 36.80
14002 54.7649 1251.40 1242.08 37.10
14003 54.7687 1261.30 1242.04 36.40
14004 54.7724 1256.00 1241.99 37.00
14005 54.7761 1262.60 1241.95 37.10
14006 54.7799 1234.60 1241.91 36.70
14007 54.7836 1224.00 1241.86 36.70
14008 54.7874 1242.90 1241.82 37.20
14009 54.7911 1270.50 1241.78 37.00
14010 54.7949 1220.70 1241.74 37.20
14011 54.7988 1221.90 1241.69 36.90
14012 54.8024 1242.60 1241.65 37.00
14013 54.8063 1236.60 1241.61 36.40
14014 54.8100 1208.40 1241.57 35.50
14015 54.8138 1225.50 1241.53 37.20
14016 54.8176 1282.60 1241.49 37.60
14017 54.8213 1201.30 1241.45 36.80
14018 54.8251 1171.70 1241.41 35.40
14019 54.8288 1188.70 1241.37 36.00
14020 54.8326 1260.90 1241.33 37.10
14021 54.8363 1199.40 1241.29 37.30
14022 54.8400 1174.70 1241.26 36.10
14023 54.8438 1197.90 1241.22 36.30
14024 54.8475 1185.10 1241.18 36.60
14025 54.8513 1242.70 1241.15 37.20
14026 54.8551 1191.80 1241.11 36.20
14027 54.8588 1279.10 1241.08 37.10
14028 54.8627 1223.90 1241.04 37.00
14029 54.8663 1215.90 1241.01 36.30
14030 54.8702 1223.50 1240.98 37.00
14031 54.8740 1263.00 1240.95 37.30
14032 54.8777 1210.10 1240.92 36.10
14033 54.8815 1211.70 1240.89 36.70
14034 54.8852 1174.90 1240.86 36.10
14035 54.8890 1256.20 1240.83 37.50
14036 54.8927 1170.50 1240.81 35.90
14037 54.8965 1222.90 1240.78 37.10
14038 54.9002 1221.10 1240.76 36.90
14039 54.9039 1279.00 1240.74 37.70
14040 54.9077 1210.30 1240.72 36.30
14041 54.9115 1231.60 1240.70 36.70
14042 54.9152 1206.90 1240.68 36.70
14043 54.9190 1220.20 1240.66 36.30
14044 54.9227 1217.50 1240.65 36.50
14045 54.9266 1235.60 1240.64 36.70
14046 54.9304 1275.70 1240.63 36.50
14047 54.9341 1266.50 1240.62 37.90
14048 54.9379 1157.80 1240.62 36.10
14049 54.9416 1297.50 1240.62 37.30
14050 54.9454 1187.80 1240.62 36.00
14051 54.9492 1228.30 1240.63 37.00
14052 54.9529 1152.80 1240.64 35.60
14053 54.9566 1212.10 1240.65 36.30
14054 54.9604 1257.30 1240.67 37.90
14055 54.9641 1269.60 1240.69 37.60
14056 54.9679 1182.60 1240.72 36.60
14057 54.9716 1280.20 1240.76 38.20
14058 54.9754 1184.10 1240.80 36.30
14059 54.9791 1307.90 1240.84 37.60
14060 54.9829 1208.50 1240.90 36.90
14061 54.9868 1234.50 1240.96 37.30
14062 54.9905 1205.90 1241.03 36.20
14063 54.9943 1273.30 1241.12 37.90
14064 54.9980 1172.60 1241.21 35.80
14065 55.0018 1320.90 1241.32 38.00
14066 55.0056 1234.20 1241.44 37.10
14067 55.0093 1242.20 1241.58 37.20
14068 55.0131 1258.60 1241.74 37.40
14069 55.0168 1285.20 1241.91 37.80
14070 55.0205 1245.50 1242.11 36.60
14071 55.0243 1271.10 1242.34 37.70
14072 55.0280 1279.70 1242.58 37.50
14073 55.0318 1255.40 1242.87 36.40
14074 55.0355 1278.00 1243.18 38.20
14075 55.0393 1275.00 1243.54 37.40
14076 55.0432 1160.10 1243.94 35.70
14077 55.0468 1314.00 1244.38 38.00
14078 55.0507 1239.60 1244.89 37.10
14079 55.0544 1215.80 1245.44 36.60
14080 55.0582 1252.10 1246.06 37.20
14081 55.0620 1249.70 1246.76 37.30
14082 55.0657 1224.90 1247.51 37.20
14083 55.0695 1252.20 1248.35 37.30
14084 55.0732 1255.30 1249.24 37.70
14085 55.0770 1264.00 1250.22 37.50
14086 55.0807 1262.90 1251.24 38.00
14087 55.0844 1306.00 1252.27 38.50
14088 55.0882 1289.20 1253.33 38.00
14089 55.0919 1308.80 1254.32 38.40
14090 55.0957 1213.40 1255.23 36.90
14091 55.0995 1348.00 1256.00 38.30
14092 55.1032 1236.70 1256.54 37.20
14093 55.1071 1346.20 1256.84 38.70
14094 55.1107 1276.80 1256.85 37.80
14095 55.1146 1312.70 1256.58 38.20
14096 55.1183 1294.70 1256.05 38.00
14097 55.1221 1389.70 1255.28 39.40
14098 55.1259 1333.20 1254.32 38.90
14099 55.1296 1221.00 1253.27 36.60
14100 55.1334 1263.10 1252.13 38.30
14101 55.1371 1307.50 1250.96 38.60
14102 55.1409 1211.20 1249.85 36.60
14103 55.1446 1267.50 1248.74 37.90
14104 55.1483 1259.80 1247.72 37.40
14105 55.1521 1307.10 1246.74 38.50
14106 55.1558 1306.40 1245.86 38.20
14107 55.1596 1341.90 1245.02 38.90
14108 55.1634 1247.40 1244.26 37.50
14109 55.1671 1259.20 1243.58 36.90
14110 55.1710 1211.10 1242.95 36.90
14111 55.1746 1247.70 1242.38 37.30
14112 55.1785 1256.80 1241.85 37.70
14113 55.1823 1298.60 1241.37 38.00
14114 55.1860 1195.90 1240.94 36.40
14115 55.1898 1264.50 1240.54 36.80
14116 55.1935 1255.10 1240.17 37.60
14117 55.1973 1209.40 1239.83 36.50
14118 55.2010 1195.40 1239.52 36.40
14119 55.2048 1284.60 1239.23 38.20
14120 55.2085 1197.90 1238.96 36.70
14121 55.2122 1253.30 1238.72 37.70
14122 55.2160 1240.80 1238.48 37.40
14123 55.2198 1220.60 1238.27 36.80
14124 55.2235 1194.10 1238.07 36.70
14125 55.2273 1265.20 1237.87 37.90
14126 55.2310 1166.50 1237.69 35.90
14127 55.2349 1228.90 1237.52 37.90
14128 55.2387 1204.80 1237.36 37.00
14129 55.2424 1221.10 1237.21 36.70
14130 55.2462 1198.00 1237.06 36.10
14131 55.2499 1276.20 1236.92 37.90
14132 55.2537 1250.90 1236.79 37.10
14133 55.2575 1291.90 1236.66 38.40
14134 55.2612 1204.80 1236.54 36.80
14135 55.2649 1306.00 1236.42 38.20
14136 55.2687 1288.00 1236.31 38.30
14137 55.2724 1273.10 1236.19 37.30
14138 55.2762 1228.10 1236.09 37.30
14139 55.2799 1313.40 1235.98 38.40
14140 55.2837 1181.10 1235.88 36.40
14141 55.2874 1319.90 1235.79 38.60
14142 55.2912 1240.20 1235.69 37.30
14143 55.2951 1286.30 1235.60 37.80
14144 55.2988 1180.70 1235.51 35.90
14145 55.3026 1247.30 1235.42 37.60
14146 55.3063 1257.20 1235.34 37.30
14147 55.3101 1309.50 1235.25 37.50
14148 55.3139 1233.20 1235.17 37.50
14149 55.3176 1278.90 1235.09 37.50
14150 55.3214 1220.30 1235.01 37.00
14151 55.3251 1224.40 1234.93 37.00
14152 55.3288 1210.40 1234.85 36.80
14153 55.3326 1262.90 1234.78 37.40
14154 55.3363 1295.10 1234.70 39.10
14155 55.3401 1307.60 1234.63 37.90
14156 55.3438 1211.50 1234.56 36.60
14157 55.3476 1251.20 1234.48 37.30
14158 55.3513 1254.70 1234.41 37.40
14159 55.3551 1238.80 1234.34 37.00
14160 55.3590 1229.60 1234.27 36.90
14161 55.3627 1242.50 1234.21 36.90
14162 55.3665 1264.70 1234.14 37.20
14163 55.3702 1257.70 1234.07 37.40
14164 55.3740 1198.40 1234.01 36.10
14165 55.3778 1285.30 1233.94 37.80
14166 55.3815 1251.80 1233.87 37.30
14167 55.3853 1260.40 1233.81 37.30
14168 55.3890 1233.00 1233.75 36.90
14169 55.3927 1256.70 1233.68 37.00
14170 55.3965 1255.40 1233.62 37.50
14171 55.4002 1291.60 1233.56 37.90
14172 55.4040 1244.60 1233.49 37.20
14173 55.4077 1174.60 1240.46 36.10
14174 55.4115 1273.50 1240.48 37.50
14175 55.4154 1217.80 1240.49 36.30
14176 55.4190 1177.50 1240.51 36.50
14177 55.4229 1294.00 1240.52 38.20
14178 55.4266 1215.50 1240.54 36.90
14179 55.4304 1203.70 1240.56 35.70
14180 55.4342 1219.90 1240.59 37.90
14181 55.4379 1224.20 1240.61 36.80
14182 55.4417 1174.60 1240.63 35.30
14183 55.4454 1312.00 1240.66 38.20
14184 55.4492 1228.40 1240.69 36.90
14185 55.4529 1205.70 1240.72 36.10
14186 55.4566 1235.40 1240.75 37.10
14187 55.4604 1238.20 1240.79 37.10
14188 55.4641 1147.60 1240.82 36.10
14189 55.4679 1250.70 1240.86 37.30
14190 55.4716 1242.50 1240.90 37.70
14191 55.4754 1198.10 1240.94 37.00
14192 55.4793 1180.50 1240.98 36.20
14193 55.4829 1225.40 1241.03 36.10
14194 55.4868 1260.90 1241.07 37.40
14195 55.4905 1271.40 1241.12 38.10
14196 55.4943 1205.90 1241.17 37.20
14197 55.4981 1301.10 1241.23 37.80
14198 55.5018 1262.80 1241.28 38.10
14199 55.5056 1232.40 1241.34 37.00
14200 55.5093 1233.50 1241.40 37.00
14201 55.5131 1257.10 1241.46 37.50
14202 55.5168 1209.60 1241.52 36.60
14203 55.5205 1281.20 1241.59 38.00
14204 55.5243 1233.90 1241.66 36.30
14205 55.5280 1264.40 1241.73 37.50
14206 55.5318 1233.90 1241.80 36.70
14207 55.5356 1354.80 1241.88 40.00
14208 55.5393 1236.10 1241.96 36.90
14209 55.5432 1225.30 1242.04 36.80
14210 55.5468 1257.00 1242.12 37.30
14211 55.5507 1236.40 1242.21 37.50
14212 55.5544 1179.20 1242.30 36.10
14213 55.5582 1264.60 1242.39 38.20
14214 55.5620 1239.20 1242.49 37.80
14215 55.5657 1256.30 1242.59 36.70
14216 55.5695 1318.40 1242.69 37.40
14217 55.5732 1277.70 1242.80 37.10
14218 55.5770 1137.20 1242.91 34.60
14219 55.5807 1252.00 1243.02 36.60
14220 55.5844 1202.20 1243.13 35.90
14221 55.5882 1273.70 1243.25 36.80
14222 55.5919 1300.40 1243.37 37.40
14223 55.5957 1259.40 1243.50 36.90
14224 55.5995 1263.90 1243.64 37.00
14225 55.6032 1321.60 1243.77 37.50
14226 55.6071 1237.10 1243.91 36.20
14227 55.6107 1289.30 1244.05 36.90
14228 55.6146 1248.50 1244.20 36.60
14229 55.6183 1249.50 1244.35 36.60
14230 55.6221 1237.70 1244.51 36.50
14231 55.6259 1225.20 1244.67 36.40
14232 55.6296 1227.30 1244.84 36.30
14233 55.6334 1197.30 1245.01 35.50
14234 55.6371 1266.70 1245.18 37.40
14235 55.6409 1271.20 1245.37 37.00
14236 55.6446 1204.50 1245.56 35.80
14237 55.6483 1238.10 1245.75 36.00
14238 55.6521 1262.30 1245.95 36.60
14239 55.6558 1269.70 1246.15 37.20
14240 55.6596 1234.70 1246.37 36.50
14241 55.6634 1260.10 1246.59 36.80
14242 55.6671 1249.40 1246.81 36.20
14243 55.6710 1241.20 1247.05 36.50
14244 55.6746 1249.60 1247.28 36.70
14245 55.6785 1313.80 1247.53 37.70
14246 55.6822 1253.80 1247.78 37.10
14247 55.6860 1280.90 1248.05 36.50
14248 55.6898 1230.00 1248.32 36.20
14249 55.6935 1297.80 1248.60 37.20
14250 55.6973 1269.40 1248.89 37.10
14251 55.7010 1294.50 1249.18 37.50
14252 55.7048 1234.00 1249.49 36.50
14253 55.7085 1248.10 1249.81 36.80
14254 55.7122 1250.80 1250.13 36.60
14255 55.7160 1298.10 1250.47 37.80
14256 55.7197 1256.90 1250.81 36.40
14257 55.7235 1266.60 1251.17 37.10
14258 55.7273 1197.50 1251.55 35.90
14259 55.7310 1283.80 1251.92 37.00
14260 55.7349 1285.90 1252.32 37.40
14261 55.7385 1257.70 1252.72 37.30
14262 55.7424 1231.10 1253.15 36.30
14263 55.7461 1264.30 1253.58 37.10
14264 55.7499 1213.60 1254.03 35.80
14265 55.7537 1314.70 1254.50 37.20
14266 55.7574 1249.80 1254.97 36.90
14267 55.7612 1295.10 1255.48 37.60
14268 55.7649 1169.20 1255.98 35.20
14269 55.7687 1314.50 1256.52 37.70
14270 55.7724 1207.70 1257.08 36.00
14271 55.7761 1224.50 1257.64 36.60
14272 55.7799 1264.50 1258.23 36.80
14273 55.7836 1275.80 1258.84 37.00
14274 55.7874 1249.50 1259.48 36.60
14275 55.7912 1246.20 1260.14 36.70
14276 55.7949 1215.20 1260.81 36.30
14277 55.7988 1328.90 1261.52 37.60
14278 55.8024 1246.30 1262.24 36.40
14279 55.8063 1241.60 1263.01 36.50
14280 55.8100 1260.70 1263.78 36.80
14281 55.8138 1317.20 1264.53 37.60
14282 55.8176 1194.20 1265.39 35.60
14283 55.8213 1349.60 1266.26 37.70
14284 55.8251 1237.70 1267.19 36.80
14285 55.8288 1307.40 1268.12 37.40
14286 55.8326 1181.80 1269.13 35.40
14287 55.8363 1301.80 1270.17 37.90
14288 55.8400 1270.60 1271.23 37.20
14289 55.8438 1240.50 1272.36 36.40
14290 55.8475 1259.40 1273.50 36.60
14291 55.8513 1313.30 1274.73 37.50
14292 55.8550 1288.80 1275.98 37.40
14293 55.8588 1204.80 1277.31 36.20
14294 55.8627 1296.00 1278.70 37.10
14295 55.8663 1264.20 1280.12 36.90
14296 55.8702 1244.30 1281.64 36.30
14297 55.8739 1264.30 1283.18 37.00
14298 55.8777 1258.10 1284.84 36.90
14299 55.8814 1309.90 1286.54 37.60
14300 55.8852 1243.20 1288.35 36.50
14301 55.8890 1267.10 1290.26 36.70
14302 55.8927 1220.20 1292.21 36.50
14303 55.8965 1342.00 1294.31 37.90
14304 55.9002 1265.50 1296.45 36.80
14305 55.9039 1344.20 1298.76 38.10
14306 55.9077 1327.20 1301.19 37.80
14307 55.9114 1359.40 1303.68 38.40
14308 55.9152 1221.80 1306.37 36.30
14309 55.9189 1355.70 1309.13 38.10
14310 55.9227 1243.90 1312.12 36.80
14311 55.9264 1253.30 1315.19 36.70
14312 55.9302 1215.50 1318.52 35.60
14313 55.9341 1255.30 1322.04 36.80
14314 55.9378 1390.50 1325.67 39.90
14315 55.9416 1313.10 1329.61 37.90
14316 55.9453 1264.00 1333.68 37.10
14317 55.9491 1289.80 1338.11 37.10
14318 55.9529 1353.60 1342.82 38.20
14319 55.9566 1407.70 1347.70 39.20
14320 55.9604 1325.10 1353.04 37.80
14321 55.9641 1403.60 1358.57 39.00
14322 55.9678 1343.60 1364.63 38.10
14323 55.9715 1407.50 1370.94 39.50
14324 55.9753 1380.60 1377.86 38.80
14325 55.9791 1416.10 1385.28 39.10
14326 55.9828 1360.80 1393.02 38.60
14327 55.9866 1432.30 1401.57 39.70
14328 55.9903 1406.70 1410.52 39.00
14329 55.9941 1443.80 1420.42 39.70
14330 55.9978 1294.20 1430.81 37.60
14331 56.0017 1492.80 1442.36 40.40
14332 56.0055 1372.90 1454.87 38.80
14333 56.0092 1408.20 1468.06 39.50
14334 56.0130 1503.30 1482.80 40.50
14335 56.0167 1555.90 1498.40 41.40
14336 56.0205 1509.70 1515.88 40.30
14337 56.0243 1511.40 1534.99 40.70
14338 56.0280 1490.50 1555.33 40.60
14339 56.0317 1610.40 1578.24 42.10
14340 56.0354 1635.80 1602.73 43.20
14341 56.0392 1727.30 1630.36 44.30
14342 56.0429 1716.30 1660.00 43.70
14343 56.0467 1768.10 1693.52 44.70
14344 56.0505 1670.30 1730.59 43.30
14345 56.0542 1871.20 1770.41 45.50
14346 56.0580 1723.90 1815.62 43.80
14347 56.0617 1923.50 1864.19 46.30
14348 56.0656 1883.10 1919.27 46.10
14349 56.0692 2020.50 1978.38 47.50
14350 56.0731 2034.30 2045.01 48.00
14351 56.0769 2135.80 2118.12 49.30
14352 56.0806 2196.90 2195.55 49.30
14353 56.0844 2348.80 2281.53 51.30
14354 56.0881 2389.50 2370.97 52.30
14355 56.0919 2526.50 2467.87 53.80
14356 56.0956 2550.40 2565.43 54.40
14357 56.0993 2671.40 2666.71 55.10
14358 56.1031 2627.70 2765.35 54.90
14359 56.1068 2741.00 2855.07 55.70
14360 56.1106 2737.60 2935.67 55.40
14361 56.1143 2997.80 2998.24 59.10
14362 56.1181 2948.00 3041.49 58.60
14363 56.1219 2945.60 3060.15 58.10
14364 56.1256 2890.90 3053.14 57.50
14365 56.1295 2940.80 3020.72 58.30
14366 56.1331 2745.60 2967.01 54.70
14367 56.1370 2804.20 2893.32 56.50
14368 56.1407 2662.40 2808.08 55.80
14369 56.1445 2624.40 2711.86 54.40
14370 56.1483 2434.60 2611.25 52.60
14371 56.1520 2375.30 2512.86 52.30
14372 56.1558 2268.40 2414.08 51.10
14373 56.1595 2261.90 2322.17 50.60
14374 56.1632 2100.60 2233.20 48.60
14375 56.1670 1999.50 2152.84 47.90
14376 56.1707 1860.70 2076.59 45.60
14377 56.1745 1868.90 2006.97 46.20
14378 56.1782 1705.70 1945.10 43.50
14379 56.1820 1735.20 1887.38 44.40
14380 56.1857 1712.20 1836.44 44.00
14381 56.1895 1668.80 1789.01 43.30
14382 56.1932 1624.90 1747.21 42.50
14383 56.1970 1624.60 1708.30 42.80
14384 56.2009 1498.70 1673.12 41.20
14385 56.2046 1491.00 1642.00 40.80
14386 56.2084 1487.90 1613.02 40.50
14387 56.2121 1424.50 1587.32 39.80
14388 56.2159 1471.10 1563.32 40.30
14389 56.2196 1440.50 1541.97 39.90
14390 56.2234 1450.80 1521.96 40.30
14391 56.2271 1401.10 1503.63 39.60
14392 56.2309 1425.90 1487.30 39.80
14393 56.2346 1393.40 1471.86 39.00
14394 56.2383 1317.20 1458.04 38.70
14395 56.2421 1354.10 1444.94 38.70
14396 56.2458 1305.90 1433.16 38.10
14397 56.2496 1418.10 1421.98 39.50
14398 56.2534 1402.40 1411.61 39.70
14399 56.2571 1375.80 1402.25 39.30
14400 56.2609 1363.00 1393.30 39.20
14401 56.2646 1332.20 1385.18 37.70
14402 56.2685 1403.60 1377.41 39.70
14403 56.2721 1377.70 1370.34 39.30
14404 56.2760 1431.20 1363.54 40.00
14405 56.2798 1346.30 1357.19 39.00
14406 56.2835 1277.50 1351.38 37.70
14407 56.2873 1388.10 1345.78 39.40
14408 56.2910 1255.90 1340.65 37.20
14409 56.2948 1277.80 1335.69 37.70
14410 56.2985 1303.20 1331.14 38.40
14411 56.3022 1268.90 1326.73 37.20
14412 56.3060 1255.70 1322.57 37.60
14413 56.3097 1303.90 1318.74 38.00
14414 56.3135 1343.00 1315.02 38.60
14415 56.3172 1306.90 1311.58 38.40
14416 56.3210 1291.10 1308.24 38.20
14417 56.3247 1257.80 1305.14 37.70
14418 56.3285 1366.40 1302.13 39.20
14419 56.3322 1337.20 1299.34 38.20
14420 56.3360 1297.30 1296.61 38.10
14421 56.3399 1324.70 1294.01 38.90
14422 56.3436 1270.00 1291.60 37.40
14423 56.3474 1238.40 1289.24 37.00
14424 56.3511 1213.40 1287.05 36.60
14425 56.3549 1265.30 1284.89 37.60
14426 56.3586 1258.30 1282.89 37.80
14427 56.3624 1283.90 1280.92 38.20
14428 56.3661 1257.80 1279.03 37.00
14429 56.3699 1287.80 1277.27 38.30
14430 56.3736 1250.30 1275.54 37.20
14431 56.3773 1323.50 1273.93 38.60
14432 56.3811 1282.00 1272.33 37.40
14433 56.3848 1303.90 1270.84 38.20
14434 56.3886 1281.20 1269.37 37.40
14435 56.3924 1244.20 1267.96 36.90
14436 56.3961 1213.80 1266.64 36.70
14437 56.3999 1297.30 1265.33 38.00
14438 56.4036 1261.20 1264.10 38.00
14439 56.4075 1289.00 1262.89 37.40
14440 56.4112 1238.90 1261.74 36.70
14441 56.4150 1264.20 1260.62 37.20
14442 56.4187 1298.90 1259.55 38.00
14443 56.4225 1263.90 1258.50 37.90
14444 56.4263 1250.60 1257.49 37.70
14445 56.4300 1266.10 1256.53 37.10
14446 56.4338 1247.30 1255.58 36.90
14447 56.4375 1344.90 1254.68 39.70
14448 56.4412 1189.60 1253.79 36.80
14449 56.4450 1201.40 1252.96 36.30
14450 56.4487 1236.00 1252.12 36.90
14451 56.4525 1287.90 1251.31 37.50
14452 56.4562 1219.90 1250.55 37.00
14453 56.4600 1246.00 1249.79 37.40
14454 56.4637 1257.10 1249.08 37.20
14455 56.4675 1210.50 1248.36 36.70
14456 56.4712 1220.10 1247.68 36.50
14457 56.4751 1261.10 1247.01 37.20
14458 56.4787 1232.50 1246.37 36.90
14459 56.4826 1249.60 1245.73 37.50
14460 56.4864 1239.60 1245.12 37.10
14461 56.4901 1291.20 1244.53 38.00
14462 56.4939 1213.90 1243.94 36.50
14463 56.4976 1220.50 1243.39 36.50
14464 56.5014 1216.50 1242.83 36.70
14465 56.5051 1278.80 1242.31 37.30
14466 56.5089 1307.00 1241.78 38.10
14467 56.5126 1285.30 1241.28 37.50
14468 56.5163 1254.10 1240.78 37.20
14469 56.5201 1246.90 1240.29 37.70
14470 56.5238 1225.90 1239.82 37.20
14471 56.5276 1270.60 1239.36 37.50
14472 56.5313 1198.80 1238.92 35.90
14473 56.5351 1229.90 1238.47 37.10
14474 56.5388 1209.10 1238.05 36.90
14475 56.5426 1235.10 1237.63 36.60
14476 56.5463 1306.30 1237.23 37.90
14477 56.5502 1300.00 1236.82 37.80
14478 56.5540 1178.20 1236.43 35.90
14479 56.5577 1283.70 1236.05 37.50
14480 56.5615 1172.20 1235.68 35.70
14481 56.5652 1331.90 1235.32 38.40
14482 56.5690 1248.80 1234.95 37.10
14483 56.5727 1299.40 1234.61 38.30
14484 56.5765 1192.60 1234.26 36.20
14485 56.5802 1281.60 1233.92 37.60
14486 56.5840 1194.80 1233.60 36.20
14487 56.5877 1229.20 1233.27 36.60
14488 56.5914 1260.80 1232.96 37.50
14489 56.5952 1296.60 1232.65 37.70
14490 56.5989 1171.50 1232.35 35.70
14491 56.6027 1266.00 1232.05 37.10
14492 56.6064 1261.60 1231.76 37.20
14493 56.6102 1201.00 1231.47 36.30
14494 56.6141 1219.70 1231.18 36.30
14495 56.6177 1220.30 1230.91 37.00
14496 56.6216 1252.50 1230.64 37.30
14497 56.6253 1285.20 1230.37 37.60
14498 56.6291 1187.40 1230.11 36.20
14499 56.6328 1174.70 1229.85 34.80
14500 56.6366 1194.20 1229.60 36.40
14501 56.6403 1228.90 1229.35 37.40
14502 56.6441 1219.00 1229.11 36.50
14503 56.6478 1298.10 1228.87 37.80
14504 56.6516 1158.20 1228.63 35.70
14505 56.6553 1202.40 1228.39 36.20
14506 56.6590 1245.10 1228.17 37.00
14507 56.6628 1142.00 1227.94 35.40
14508 56.6665 1264.30 1227.72 37.50
14509 56.6703 1277.00 1227.50 37.70
14510 56.6740 1232.40 1227.29 36.70
14511 56.6778 1238.40 1227.07 36.60
14512 56.6815 1189.90 1226.87 36.20
14513 56.6853 1280.00 1226.66 37.60
14514 56.6892 1249.60 1226.45 37.20
14515 56.6928 1229.20 1226.26 36.90
14516 56.6967 1177.20 1226.06 35.80
14517 56.7004 1206.20 1225.87 35.60
14518 56.7042 1189.20 1225.67 35.90
14519 56.7079 1177.30 1225.49 36.20
14520 56.7117 1173.30 1225.30 35.70
14521 56.7154 1234.70 1225.12 37.30
14522 56.7192 1230.00 1224.94 37.30
14523 56.7229 1328.50 1224.75 38.90
14524 56.7267 1232.60 1224.58 37.50
14525 56.7304 1238.50 1224.40 37.00
14526 56.7341 1202.40 1224.24 36.00
14527 56.7379 1225.70 1224.06 37.50
14528 56.7416 1206.10 1223.90 36.10
14529 56.7454 1245.40 1223.73 36.70
14530 56.7491 1285.90 1223.57 37.60
14531 56.7529 1248.80 1223.41 37.20
14532 56.7566 1155.10 1223.25 35.80
14533 56.7604 1291.00 1223.09 38.10
14534 56.7643 1244.40 1222.93 37.10
14535 56.7679 1190.60 1222.78 36.30
14536 56.7718 1227.00 1222.62 37.10
14537 56.7755 1261.20 1222.48 37.50
14538 56.7793 1232.20 1222.32 37.40
14539 56.7830 1211.30 1222.18 35.70
14540 56.7868 1196.80 1222.03 36.50
14541 56.7905 1205.70 1221.89 36.40
14542 56.7943 1184.70 1221.74 36.10
14543 56.7980 1271.10 1221.61 37.30
14544 56.8018 1226.20 1221.46 36.80
14545 56.8055 1265.10 1221.32 37.50
14546 56.8092 1153.30 1221.19 35.50
14547 56.8130 1222.40 1221.05 36.70
14548 56.8167 1174.30 1220.92 36.30
14549 56.8205 1284.40 1220.78 37.50
14550 56.8242 1224.40 1220.65 36.30
14551 56.8280 1270.20 1220.52 37.60
14552 56.8317 1204.80 1220.40 36.00
14553 56.8355 1234.50 1220.27 36.40
14554 56.8392 1166.40 1213.07 36.20
14555 56.8430 1236.40 1213.01 37.10
14556 56.8469 1183.80 1212.96 35.50
14557 56.8506 1298.20 1212.91 37.70
14558 56.8544 1275.50 1212.86 37.30
14559 56.8581 1243.60 1212.80 37.10
14560 56.8619 1297.60 1212.75 37.70
14561 56.8656 1159.50 1212.70 36.10
14562 56.8694 1195.20 1212.64 36.50
14563 56.8731 1214.70 1212.59 36.60
14564 56.8769 1119.70 1212.54 35.20
14565 56.8806 1269.10 1212.49 37.60
14566 56.8843 1268.60 1212.43 37.50
14567 56.8881 1206.30 1212.38 36.90
14568 56.8918 1239.90 1212.33 37.00
14569 56.8956 1251.50 1212.28 37.60
14570 56.8993 1237.90 1212.22 36.90
14571 56.9031 1201.80 1212.17 36.80
14572 56.9068 1222.10 1212.12 36.70
14573 56.9106 1280.80 1212.06 38.00
14574 56.9143 1180.10 1212.01 36.40
14575 56.9182 1222.70 1211.96 35.90
14576 56.9218 1209.40 1211.91 36.70
14577 56.9257 1244.90 1211.85 37.20
14578 56.9294 1205.10 1211.80 36.70
14579 56.9332 1225.40 1211.75 36.30
14580 56.9370 1177.70 1211.70 36.30
14581 56.9407 1272.00 1211.64 37.30
14582 56.9445 1178.00 1211.59 36.00
14583 56.9482 1225.00 1211.54 36.80
14584 56.9520 1224.80 1211.49 36.90
14585 56.9557 1156.70 1211.43 35.50
14586 56.9594 1145.00 1211.38 35.90
14587 56.9632 1249.50 1211.33 37.20
14588 56.9669 1242.00 1211.27 36.70
14589 56.9706 1239.70 1211.22 37.00
14590 56.9744 1225.40 1211.17 36.70
14591 56.9781 1206.10 1211.12 36.20
14592 56.9819 1186.30 1211.06 36.50
14593 56.9857 1233.80 1211.01 36.90
14594 56.9874 1175.20 1210.99 36.20
14595 56.9911 1209.30 1210.93 36.30
14596 56.9949 1153.00 1210.88 35.80
14597 56.9986 1218.40 1210.83 36.60
14598 57.0024 1162.60 1210.78 35.80
14599 57.0061 1244.60 1210.72 37.70
14600 57.0099 1262.40 1210.67 37.90
14601 57.0136 1196.70 1210.62 36.40
14602 57.0174 1194.70 1210.57 35.90
14603 57.0211 1257.90 1210.51 37.70
14604 57.0249 1256.50 1210.46 37.70
14605 57.0286 1243.90 1210.41 36.80
14606 57.0325 1220.60 1210.36 36.60
14607 57.0363 1243.80 1210.30 37.00
14608 57.0400 1181.80 1210.25 36.10
14609 57.0438 1237.50 1210.20 36.90
14610 57.0475 1215.20 1222.42 36.50
14611 57.0513 1194.10 1222.50 36.30
14612 57.0550 1215.00 1222.57 36.70
14613 57.0588 1219.20 1222.65 37.10
14614 57.0625 1233.10 1222.73 37.00
14615 57.0662 1227.10 1222.81 36.80
14616 57.0700 1248.10 1222.89 37.10
14617 57.0737 1264.60 1222.98 37.20
14618 57.0775 1215.30 1223.07 36.90
14619 57.0812 1275.20 1223.15 37.40
14620 57.0850 1253.70 1223.25 37.00
14621 57.0887 1227.80 1223.34 36.60
14622 57.0925 1195.40 1223.44 36.20
14623 57.0962 1212.70 1223.54 36.60
14624 57.1001 1188.30 1223.64 35.90
14625 57.1039 1242.30 1223.74 37.40
14626 57.1076 1295.60 1223.85 38.10
14627 57.1114 1168.30 1223.96 35.90
14628 57.1151 1173.00 1224.07 36.10
14629 57.1189 1266.20 1224.19 36.30
14630 57.1226 1220.00 1224.30 36.90
14631 57.1264 1262.50 1224.43 38.00
14632 57.1301 1212.90 1224.55 36.50
14633 57.1339 1288.40 1224.68 37.70
14634 57.1376 1195.60 1224.81 36.40
14635 57.1413 1209.10 1224.94 36.40
14636 57.1451 1251.00 1225.08 37.20
14637 57.1488 1263.60 1225.22 37.40
14638 57.1526 1214.10 1225.36 36.80
14639 57.1563 1249.00 1225.50 37.30
14640 57.1601 1197.80 1225.66 36.20
14641 57.1638 1237.50 1225.81 36.70
14642 57.1676 1229.50 1225.97 36.90
14643 57.1713 1317.10 1226.13 38.30
14644 57.1752 1122.30 1226.29 35.30
14645 57.1790 1236.00 1226.47 37.10
14646 57.1827 1221.10 1226.64 36.50
14647 57.1865 1260.50 1226.82 36.60
14648 57.1902 1227.20 1227.00 36.60
14649 57.1940 1208.00 1227.19 36.80
14650 57.1977 1150.20 1227.37 35.40
14651 57.2015 1183.60 1227.57 36.50
14652 57.2052 1249.10 1227.77 37.70
14653 57.2090 1295.90 1227.98 38.50
14654 57.2127 1188.80 1228.19 36.90
14655 57.2160 1247.90 1228.38 36.10
14656 57.2197 1256.00 1228.60 35.90
14657 57.2234 1240.40 1228.82 35.70
14658 57.2272 1252.70 1229.06 36.20
14659 57.2309 1215.30 1229.29 35.10
14660 57.2347 1280.80 1229.54 36.20
14661 57.2384 1223.70 1229.78 36.20
14662 57.2422 1258.60 1230.04 35.90
14663 57.2459 1284.60 1230.30 36.10
14664 57.2497 1230.50 1230.57 35.10
14665 57.2534 1226.30 1230.84 35.50
14666 57.2573 1187.10 1231.13 34.50
14667 57.2611 1237.30 1231.42 35.80
14668 57.2648 1212.40 1231.71 35.30
14669 57.2686 1247.50 1232.02 35.70
14670 57.2723 1301.20 1232.33 36.90
14671 57.2761 1191.70 1232.65 34.80
14672 57.2798 1289.10 1232.98 36.70
14673 57.2836 1225.10 1233.32 35.70
14674 57.2873 1263.00 1233.66 35.60
14675 57.2910 1182.30 1234.02 34.90
14676 57.2948 1273.20 1234.38 36.20
14677 57.2985 1257.70 1234.75 36.10
14678 57.3022 1215.30 1235.13 35.40
14679 57.3060 1215.90 1235.53 35.30
14680 57.3097 1281.20 1235.93 35.90
14681 57.3135 1189.10 1236.35 35.40
14682 57.3173 1257.50 1236.78 35.40
14683 57.3210 1194.00 1237.21 35.00
14684 57.3248 1234.60 1237.67 35.60
14685 57.3285 1253.50 1238.12 36.00
14686 57.3324 1226.70 1238.60 35.30
14687 57.3360 1265.70 1239.08 37.30
14688 57.3399 1290.50 1239.59 36.60
14689 57.3436 1228.90 1240.10 35.30
14690 57.3474 1282.70 1240.63 35.90
14691 57.3511 1245.70 1241.17 35.10
14692 57.3549 1202.00 1241.74 34.90
14693 57.3586 1255.90 1242.30 35.70
14694 57.3624 1252.20 1242.90 35.90
14695 57.3661 1295.60 1243.52 36.30
14696 57.3699 1236.30 1244.14 35.30
14697 57.3736 1239.40 1244.79 35.70
14698 57.3773 1324.70 1245.45 36.80
14699 57.3811 1245.80 1246.14 35.40
14700 57.3848 1317.80 1246.84 36.70
14701 57.3886 1240.70 1247.57 35.60
14702 57.3923 1245.30 1248.31 35.90
14703 57.3961 1262.20 1249.09 35.70
14704 57.3998 1284.60 1249.87 36.20
14705 57.4036 1221.90 1250.70 35.30
14706 57.4073 1325.00 1251.54 36.60
14707 57.4112 1311.30 1252.42 36.40
14708 57.4148 1225.40 1253.31 35.10
14709 57.4187 1215.50 1254.25 35.40
14710 57.4225 1291.40 1255.22 36.20
14711 57.4262 1323.80 1256.19 37.20
14712 57.4300 1318.20 1257.23 36.80
14713 57.4337 1197.70 1258.27 34.70
14714 57.4375 1266.20 1259.37 36.50
14715 57.4412 1294.00 1260.48 36.00
14716 57.4450 1295.60 1261.67 36.40
14717 57.4487 1261.50 1262.85 35.60
14718 57.4524 1293.80 1264.12 36.50
14719 57.4562 1235.60 1265.39 35.30
14720 57.4599 1345.40 1266.75 37.40
14721 57.4637 1209.60 1268.15 35.30
14722 57.4674 1320.50 1269.57 36.90
14723 57.4712 1250.30 1271.07 35.40
14724 57.4749 1297.00 1272.59 36.10
14725 57.4787 1234.70 1274.21 35.20
14726 57.4824 1347.10 1275.85 37.40
14727 57.4863 1249.70 1277.59 35.70
14728 57.4899 1246.00 1279.35 35.50
14729 57.4938 1263.00 1281.23 35.80
14730 57.4975 1280.60 1283.14 36.40
14731 57.5013 1289.10 1285.17 36.20
14732 57.5051 1310.80 1287.28 36.80
14733 57.5088 1231.20 1289.42 35.40
14734 57.5126 1257.20 1291.71 36.20
14735 57.5163 1248.40 1294.04 35.50
14736 57.5201 1323.00 1296.52 36.60
14737 57.5238 1244.20 1299.04 35.70
14738 57.5275 1350.60 1301.75 37.20
14739 57.5312 1323.60 1304.50 35.90
14740 57.5350 1363.40 1307.44 38.10
14741 57.5387 1316.80 1310.44 36.70
14742 57.5425 1275.90 1313.65 36.00
14743 57.5463 1323.60 1317.02 36.20
14744 57.5500 1379.40 1320.45 37.70
14745 57.5538 1327.90 1324.14 37.10
14746 57.5575 1357.00 1327.90 37.20
14747 57.5614 1303.30 1331.96 36.70
14748 57.5650 1332.00 1336.10 37.10
14749 57.5689 1280.50 1340.57 35.90
14750 57.5726 1349.20 1345.14 36.70
14751 57.5764 1349.20 1350.08 37.30
14752 57.5801 1402.20 1355.14 38.40
14753 57.5839 1286.00 1360.61 36.50
14754 57.5877 1460.80 1366.39 39.20
14755 57.5914 1374.50 1372.31 37.20
14756 57.5951 1353.30 1378.75 37.20
14757 57.5989 1314.10 1385.36 37.20
14758 57.6026 1360.90 1392.56 37.40
14759 57.6063 1314.90 1399.97 36.60
14760 57.6101 1443.60 1408.04 38.20
14761 57.6138 1389.40 1416.38 38.40
14762 57.6213 1442.90 1434.88 38.50
14763 57.6251 1488.50 1445.16 39.50
14764 57.6289 1434.90 1456.15 38.80
14765 57.6326 1523.10 1467.53 39.00
14766 57.6365 1411.70 1480.05 38.70
14767 57.6401 1536.90 1493.06 40.20
14768 57.6440 1532.20 1507.41 40.00
14769 57.6477 1530.40 1522.35 39.60
14770 57.6515 1553.90 1538.88 39.70
14771 57.6552 1565.80 1556.14 40.10
14772 57.6590 1538.90 1575.29 40.50
14773 57.6628 1712.10 1595.94 42.40
14774 57.6665 1611.10 1617.69 41.10
14775 57.6702 1721.90 1641.89 42.80
14776 57.6740 1708.40 1667.38 43.00
14777 57.6777 1733.60 1695.88 44.10
14778 57.6814 1782.20 1726.00 44.40
14779 57.6852 1848.30 1759.79 45.50
14780 57.6889 1836.20 1795.61 45.30
14781 57.6927 1911.20 1835.93 46.30
14782 57.6965 1923.50 1880.04 46.50
14783 57.7002 2010.80 1927.20 48.00
14784 57.7040 2064.50 1980.29 48.60
14785 57.7077 2148.40 2037.18 49.10
14786 57.7116 2159.20 2101.36 49.40
14787 57.7152 2335.90 2170.21 51.50
14788 57.7191 2231.70 2247.96 50.20
14789 57.7228 2393.60 2331.36 52.40
14790 57.7266 2450.50 2425.44 53.00
14791 57.7303 2588.90 2526.11 54.30
14792 57.7341 2626.10 2639.19 54.60
14793 57.7379 2993.60 2762.68 59.40
14794 57.7416 3039.80 2893.30 59.60
14795 57.7453 3207.40 3037.90 60.40
14796 57.7491 3316.50 3187.98 62.90
14797 57.7528 3542.80 3350.03 64.40
14798 57.7565 3604.10 3513.47 64.80
14799 57.7603 3857.60 3682.99 67.40
14800 57.7641 3887.70 3849.25 67.40
14801 57.7678 4140.90 4001.94 70.20
14802 57.7716 4195.50 4141.48 70.90
14803 57.7753 4320.60 4253.26 71.80
14804 57.7791 4233.90 4335.64 71.50
14805 57.7828 4293.40 4378.83 71.90
14806 57.7867 4222.90 4381.71 70.80
14807 57.7904 4282.50 4343.93 71.50
14808 57.7942 4195.40 4266.46 70.80
14809 57.7980 4090.20 4155.21 68.70
14810 57.8017 3798.10 4021.97 66.90
14811 57.8055 3638.10 3866.75 65.50
14812 57.8092 3483.90 3705.73 63.80
14813 57.8130 3321.40 3535.96 61.70
14814 57.8167 3145.50 3372.29 60.40
14815 57.8204 2947.50 3208.95 58.30
14816 57.8242 2626.30 3057.63 55.10
14817 57.8279 2658.70 2911.85 54.90
14818 57.8317 2476.10 2776.47 51.90
14819 57.8354 2290.80 2654.73 51.20
14820 57.8392 2210.00 2540.16 51.00
14821 57.8429 2112.00 2438.11 48.40
14822 57.8467 1943.90 2342.71 46.60
14823 57.8504 1930.80 2258.10 46.20
14824 57.8543 1799.90 2179.21 44.70
14825 57.8579 1828.70 2109.34 45.20
14826 57.8618 1696.90 2044.08 43.60
14827 57.8656 1808.60 1984.93 44.70
14828 57.8693 1669.60 1932.45 43.20
14829 57.8731 1611.50 1883.41 42.20
14830 57.8768 1549.50 1839.80 41.40
14831 57.8806 1611.70 1798.94 42.50
14832 57.8843 1503.80 1762.50 40.70
14833 57.8881 1544.60 1728.25 41.30
14834 57.8918 1468.40 1696.80 40.40
14835 57.8955 1526.80 1668.71 41.40
14836 57.8993 1427.70 1642.09 39.60
14837 57.9030 1446.90 1618.23 40.00
14838 57.9068 1421.70 1595.54 39.50
14839 57.9105 1404.70 1575.15 39.20
14840 57.9143 1389.20 1555.68 39.30
14841 57.9180 1376.10 1538.12 39.00
14842 57.9218 1441.10 1521.31 40.10
14843 57.9257 1385.00 1505.71 39.40
14844 57.9294 1392.80 1491.51 39.00
14845 57.9332 1408.20 1477.91 38.80
14846 57.9369 1403.60 1465.52 40.20
14847 57.9407 1401.30 1453.61 39.30
14848 57.9444 1386.60 1442.72 38.90
14849 57.9482 1465.00 1432.23 40.10
14850 57.9519 1328.10 1422.62 38.60
14851 57.9557 1284.80 1413.35 37.50
14852 57.9594 1341.00 1404.60 38.90
14853 57.9632 1344.50 1396.57 38.40
14854 57.9669 1290.80 1388.79 38.10
14855 57.9706 1359.70 1381.63 38.80
14856 57.9744 1233.40 1374.68 36.90
14857 57.9781 1425.60 1368.26 39.80
14858 57.9819 1296.60 1362.02 37.40
14859 57.9857 1291.80 1356.10 37.80
14860 57.9894 1341.10 1350.62 38.20
14861 57.9933 1284.60 1345.29 37.60
14862 57.9969 1284.40 1340.34 38.00
14863 58.0008 1362.10 1335.50 38.50
14864 58.0045 1326.70 1331.01 38.90
14865 58.0083 1346.20 1326.62 38.30
14866 58.0121 1283.50 1322.43 37.30
14867 58.0158 1279.10 1320.12 37.90
14868 58.0196 1299.90 1316.31 37.80
14869 58.0233 1305.20 1312.78 38.20
14870 58.0271 1279.10 1309.29 37.60
14871 58.0308 1279.40 1306.06 37.50
14872 58.0345 1223.20 1302.87 36.60
14873 58.0383 1212.80 1299.81 37.70
14874 58.0420 1218.10 1296.96 37.10
14875 58.0458 1330.90 1294.15 38.20
14876 58.0495 1291.40 1291.53 37.70
14877 58.0533 1322.90 1288.94 38.40
14878 58.0570 1294.30 1286.52 37.90
14879 58.0608 1353.10 1284.13 39.00
14880 58.0645 1343.80 1281.89 39.00
14881 58.0684 1321.80 1279.68 38.70
14882 58.0722 1200.80 1277.55 36.80
14883 58.0759 1287.10 1275.55 38.10
14884 58.0797 1350.10 1273.57 39.40
14885 58.0834 1307.90 1271.72 38.40
14886 58.0872 1273.00 1269.88 37.20
14887 58.0909 1306.00 1268.15 38.10
14888 58.0947 1225.00 1266.44 37.20
14889 58.0984 1320.40 1264.78 38.40
14890 58.1021 1306.30 1263.23 37.80
14891 58.1059 1277.20 1261.69 37.40
14892 58.1096 1257.10 1260.23 37.00
14893 58.1134 1242.00 1258.79 36.80
14894 58.1171 1231.20 1257.43 37.10
14895 58.1209 1266.20 1256.08 37.80
14896 58.1247 1219.50 1254.77 37.00
14897 58.1284 1282.80 1253.53 37.90
14898 58.1323 1322.50 1252.31 38.00
14899 58.1359 1241.10 1251.15 36.90
14900 58.1398 1316.20 1249.99 38.60
14901 58.1435 1255.50 1248.91 37.20
14902 58.1473 1220.90 1247.82 36.70
14903 58.1511 1331.50 1246.77 38.30
14904 58.1548 1180.30 1245.77 36.50
14905 58.1586 1211.40 1244.78 36.00
14906 58.1623 1235.80 1243.84 36.30
14907 58.1660 1257.00 1242.91 36.80
14908 58.1698 1216.80 1242.03 36.50
14909 58.1735 1317.20 1241.14 37.70
14910 58.1773 1327.30 1240.28 38.20
14911 58.1810 1244.90 1239.47 36.80
14912 58.1848 1175.20 1238.66 35.80
14913 58.1885 1276.30 1237.89 36.90
14914 58.1923 1196.90 1237.13 36.00
14915 58.1960 1198.90 1236.40 35.90
14916 58.1998 1211.30 1235.67 36.40
14917 58.2037 1209.80 1234.97 36.30
14918 58.2074 1205.20 1234.30 36.30
14919 58.2112 1257.70 1233.63 36.80
14920 58.2149 1194.50 1232.99 35.40
14921 58.2187 1297.60 1232.36 37.50
14922 58.2224 1222.80 1231.76 36.30
14923 58.2262 1242.30 1231.15 37.00
14924 58.2299 1262.40 1230.57 36.70
14925 58.2337 1251.90 1230.01 36.50
14926 58.2374 1172.80 1229.45 35.80
14927 58.2411 1215.10 1228.93 36.50
14928 58.2449 1256.80 1228.40 36.70
14929 58.2486 1330.40 1227.90 37.60
14930 58.2524 1237.10 1227.39 36.60
14931 58.2562 1299.00 1226.90 37.40
14932 58.2599 1217.80 1226.44 36.70
14933 58.2637 1292.10 1225.98 37.60
14934 58.2674 1193.00 1225.53 35.70
14935 58.2713 1191.10 1225.09 36.20
14936 58.2749 1201.40 1224.67 36.40
14937 58.2788 1238.90 1224.26 36.60
14938 58.2826 1247.20 1223.85 36.80
14939 58.2863 1257.50 1223.46 37.10
14940 58.2901 1231.60 1223.07 36.40
14941 58.2938 1221.90 1222.71 36.40
14942 58.2976 1262.80 1222.34 37.00
14943 58.3013 1242.50 1221.99 36.40
14944 58.3050 1202.00 1221.64 36.30
14945 58.3088 1241.80 1221.30 36.40
14946 58.3125 1268.70 1220.98 36.90
14947 58.3163 1272.50 1220.66 37.00
14948 58.3200 1221.60 1220.36 36.50
14949 58.3238 1248.10 1220.05 36.90
14950 58.3276 1268.20 1219.76 37.50
14951 58.3313 1140.10 1219.48 35.20
14952 58.3352 1250.20 1219.20 36.00
14953 58.3388 1211.20 1218.94 36.90
14954 58.3427 1208.50 1218.68 36.30
14955 58.3464 1260.10 1218.43 36.70
14956 58.3502 1160.40 1218.19 35.20
14957 58.3540 1234.80 1217.95 36.70
14958 58.3577 1203.30 1217.73 36.20
14959 58.3615 1223.40 1217.51 36.70
14960 58.3652 1189.20 1217.30 35.80
14961 58.3689 1198.80 1217.09 36.20
14962 58.3727 1239.20 1216.90 36.80
14963 58.3764 1273.70 1216.71 37.70
14964 58.3802 1141.60 1216.53 35.40
14965 58.3839 1260.20 1216.36 37.30
14966 58.3877 1198.40 1216.19 36.00
14967 58.3914 1236.30 1216.04 36.90
14968 58.3952 1243.90 1215.89 36.60
14969 58.3989 1293.20 1215.75 37.70
14970 58.4027 1256.00 1215.61 37.30
14971 58.4066 1213.00 1215.48 36.40
14972 58.4103 1202.80 1215.37 36.50
14973 58.4141 1208.70 1215.26 36.00
14974 58.4178 1186.80 1215.16 36.30
14975 58.4216 1226.70 1215.06 36.50
14976 58.4254 1185.60 1214.98 35.90
14977 58.4291 1201.90 1214.90 36.50
14978 58.4328 1209.20 1214.83 35.80
14979 58.4366 1340.60 1214.78 38.60
14980 58.4403 1260.10 1214.73 38.00
14981 58.4440 1192.80 1214.69 36.10
14982 58.4478 1215.90 1214.65 36.00
14983 58.4516 1199.10 1214.63 36.50
14984 58.4553 1246.90 1214.62 37.00
14985 58.4591 1325.00 1214.62 38.30
14986 58.4628 1190.80 1214.63 36.00
14987 58.4666 1266.00 1214.65 37.40
14988 58.4703 1226.70 1214.68 36.80
14989 58.4742 1228.40 1214.72 36.70
14990 58.4780 1225.90 1214.78 36.30
14991 58.4817 1285.30 1214.85 37.60
14992 58.4855 1139.10 1214.93 35.50
14993 58.4892 1326.10 1215.02 38.30
14994 58.4930 1179.80 1215.13 35.90
14995 58.4967 1274.00 1215.25 38.00
14996 58.5005 1186.10 1215.38 36.00
14997 58.5042 1243.00 1215.54 37.60
14998 58.5079 1175.20 1215.70 36.00
14999 58.5117 1225.30 1215.89 36.30
15000 58.5154 1240.10 1216.09 36.20
15001 58.5192 1228.30 1216.31 37.00
15002 58.5230 1271.50 1216.56 37.40
15003 58.5267 1202.30 1204.55 36.20
15004 58.5305 1204.80 1204.96 36.50
15005 58.5342 1236.30 1205.38 36.10
15006 58.5381 1181.30 1205.84 36.80
15007 58.5419 1250.00 1206.32 37.10
15008 58.5456 1176.90 1206.81 35.90
15009 58.5494 1146.70 1207.34 35.10
15010 58.5531 1201.90 1207.89 36.00
15011 58.5569 1280.70 1208.48 37.80
15012 58.5606 1202.90 1209.09 36.20
15013 58.5644 1286.90 1209.75 37.20
15014 58.5681 1174.00 1210.45 35.50
15015 58.5718 1217.00 1211.17 37.10
15016 58.5756 1150.80 1211.95 35.70
15017 58.5793 1211.70 1212.76 36.00
15018 58.5831 1237.30 1213.63 36.90
15019 58.5869 1257.50 1214.56 37.40
15020 58.5906 1202.10 1215.53 36.80
15021 58.5945 1206.70 1216.58 36.30
15022 58.5981 1233.80 1217.67 37.00
15023 58.6020 1217.90 1218.86 36.20
15024 58.6057 1231.00 1220.10 36.90
15025 58.6095 1196.00 1221.45 36.40
15026 58.6133 1234.50 1222.90 36.90
15027 58.6170 1233.60 1224.41 37.00
15028 58.6208 1242.50 1226.07 37.30
15029 58.6245 1289.20 1227.79 38.00
15030 58.6283 1233.10 1229.70 37.30
15031 58.6320 1229.40 1231.75 36.70
15032 58.6357 1269.80 1233.90 37.00
15033 58.6395 1285.80 1236.28 39.30
15034 58.6432 1205.20 1238.77 36.40
15035 58.6470 1307.80 1241.55 38.10
15036 58.6507 1226.70 1244.46 35.80
15037 58.6545 1311.90 1247.71 38.10
15038 58.6584 1283.80 1251.24 37.30
15039 58.6620 1333.10 1254.98 38.30
15040 58.6659 1257.20 1259.16 37.20
15041 58.6696 1314.50 1263.59 38.40
15042 58.6734 1256.60 1268.57 37.60
15043 58.6772 1294.70 1274.01 36.90
15044 58.6809 1276.50 1279.82 37.90
15045 58.6847 1273.30 1286.35 37.80
15046 58.6884 1345.10 1293.34 39.20
15047 58.6922 1274.40 1301.23 38.00
15048 58.6959 1303.30 1309.65 37.90
15049 58.6996 1368.10 1319.17 39.00
15050 58.7034 1383.10 1329.64 39.30
15051 58.7071 1411.90 1340.84 40.30
15052 58.7109 1392.30 1353.44 39.10
15053 58.7146 1440.80 1366.89 40.30
15054 58.7184 1434.10 1381.93 40.00
15055 58.7223 1449.70 1398.28 40.50
15056 58.7259 1462.00 1415.47 40.50
15057 58.7298 1450.90 1434.33 40.60
15058 58.7335 1615.80 1453.78 41.70
15059 58.7373 1516.30 1474.56 41.30
15060 58.7410 1563.90 1495.25 42.30
15061 58.7448 1623.40 1516.38 42.80
15062 58.7486 1571.10 1536.73 41.80
15063 58.7523 1533.60 1554.90 41.20
15064 58.7561 1593.50 1571.01 41.70
15065 58.7598 1646.50 1583.24 43.00
15066 58.7635 1607.30 1591.48 42.60
15067 58.7673 1601.50 1594.72 41.90
15068 58.7710 1574.90 1592.85 42.00
15069 58.7748 1707.90 1585.88 43.60
15070 58.7785 1598.70 1574.70 42.30
15071 58.7823 1613.90 1559.42 42.40
15072 58.7862 1519.20 1541.27 41.40
15073 58.7898 1673.20 1521.72 43.30
15074 58.7937 1500.20 1500.65 41.20
15075 58.7974 1512.10 1479.83 40.50
15076 58.8012 1426.90 1458.79 40.00
15077 58.8049 1458.50 1438.99 40.50
15078 58.8087 1368.40 1419.70 39.20
15079 58.8125 1423.90 1401.62 40.10
15080 58.8162 1336.70 1385.24 37.50
15081 58.8200 1407.80 1369.70 39.50
15082 58.8237 1297.40 1355.85 37.70
15083 58.8274 1368.70 1342.79 39.20
15084 58.8312 1288.20 1330.90 37.30
15085 58.8349 1360.70 1320.33 38.30
15086 58.8387 1315.20 1310.46 38.40
15087 58.8424 1345.10 1301.70 38.50
15088 58.8462 1246.00 1293.50 37.10
15089 58.8501 1251.10 1286.05 37.20
15090 58.8537 1242.50 1279.41 36.70
15091 58.8576 1253.60 1273.20 36.80
15092 58.8613 1242.30 1267.66 37.10
15093 58.8651 1206.40 1262.46 36.40
15094 58.8688 1171.20 1257.81 36.10
15095 58.8726 1316.00 1253.42 37.50
15096 58.8764 1185.80 1249.39 36.20
15097 58.8801 1305.90 1245.78 37.70
15098 58.8839 1200.30 1242.34 36.00
15099 58.8876 1248.40 1239.25 37.20
15100 58.8913 1200.50 1236.32 36.30
15101 58.8951 1266.20 1233.60 37.00
15102 58.8988 1193.10 1231.14 36.10
15103 58.9026 1174.50 1228.78 35.90
15104 58.9063 1239.20 1226.65 36.90
15105 58.9101 1202.80 1224.60 36.40
15106 58.9140 1210.60 1222.68 35.90
15107 58.9176 1219.00 1220.94 36.90
15108 58.9215 1202.30 1219.26 35.80
15109 58.9252 1188.50 1217.72 35.90
15110 58.9290 1158.70 1216.24 35.60
15111 58.9327 1186.50 1214.88 35.70
15112 58.9365 1299.40 1213.57 37.90
15113 58.9403 1216.40 1212.33 37.50
15114 58.9440 1230.90 1211.18 36.90
15115 58.9478 1190.50 1210.07 35.70
15116 58.9515 1186.80 1209.05 35.90
15117 58.9552 1219.30 1208.05 36.70
15118 58.9590 1214.90 1207.11 36.50
15119 58.9627 1216.20 1206.24 36.80
15120 58.9665 1171.40 1205.39 35.50
15121 58.9702 1236.90 1204.60 36.80
15122 58.9740 1199.60 1203.82 36.20
15123 58.9779 1229.00 1203.09 36.60
15124 58.9815 1172.20 1202.40 36.30
15125 58.9854 1206.30 1201.73 36.40
15126 58.9891 1222.10 1201.10 36.40
15127 58.9929 1186.40 1200.49 35.90
15128 58.9966 1227.20 1199.92 36.50
15129 59.0004 1292.70 1199.35 37.50
15130 59.0042 1133.90 1198.81 35.30
15131 59.0079 1185.30 1198.31 35.90
15132 59.0117 1178.60 1197.81 36.10
15133 59.0154 1189.90 1197.34 36.00
15134 59.0191 1160.70 1196.88 36.00
15135 59.0229 1256.90 1196.44 37.00
15136 59.0266 1242.30 1196.02 37.10
15137 59.0304 1248.70 1195.61 37.30
15138 59.0341 1215.50 1195.22 35.90
15139 59.0379 1215.60 1194.84 36.80
15140 59.0418 1149.20 1194.47 35.80
15141 59.0454 1159.60 1194.12 35.80
15142 59.0493 1201.90 1193.77 36.30
15143 59.0530 1178.40 1193.45 35.80
15144 59.0568 1174.40 1193.12 36.30
15145 59.0606 1175.30 1192.81 35.80
15146 59.0643 1204.30 1192.51 36.70
15147 59.0681 1225.70 1192.22 37.30
15148 59.0718 1198.20 1191.94 36.70
15149 59.0756 1189.80 1191.66 36.20
15150 59.0793 1155.70 1191.40 35.80
15151 59.0830 1195.50 1191.13 36.30
15152 59.0868 1125.20 1190.88 35.60
15153 59.0905 1239.60 1190.64 36.90
15154 59.0943 1187.30 1190.40 36.30
15155 59.0980 1208.50 1190.17 36.70
15156 59.1018 1201.20 1189.94 36.40
15157 59.1057 1208.30 1189.71 36.90
15158 59.1093 1181.70 1189.50 36.40
15159 59.1132 1195.20 1189.29 36.10
15160 59.1169 1175.60 1189.09 36.80
15161 59.1207 1265.70 1188.88 37.10
15162 59.1245 1184.90 1188.69 36.20
15163 59.1282 1160.20 1188.50 35.10
15164 59.1320 1201.40 1188.31 36.10
15165 59.1357 1205.60 1188.13 35.70
15166 59.1395 1199.70 1187.95 37.40
15167 59.1432 1228.90 1187.77 36.70
15168 59.1469 1164.30 1187.60 35.30
15169 59.1507 1182.50 1187.43 35.30
15170 59.1544 1158.90 1187.27 34.90
15171 59.1582 1218.30 1187.11 36.10
15172 59.1620 1108.70 1186.95 34.40
15173 59.1657 1249.80 1186.80 37.20
15174 59.1696 1218.50 1186.64 36.50
15175 59.1732 1205.00 1186.50 36.00
15176 59.1771 1234.70 1186.35 36.90
15177 59.1808 1191.50 1186.21 35.90
15178 59.1846 1178.10 1186.06 36.10
15179 59.1884 1301.10 1185.92 38.00
15180 59.1921 1232.40 1185.79 37.10
15181 59.1959 1216.50 1185.65 36.60
15182 59.1996 1141.60 1185.52 34.90
15183 59.2034 1182.40 1185.39 36.30
15184 59.2071 1163.80 1185.26 35.70
15185 59.2108 1227.00 1185.14 36.50
15186 59.2146 1195.10 1185.01 36.50
15187 59.2183 1177.50 1184.89 35.80
15188 59.2221 1138.30 1184.77 34.90
15189 59.2259 1231.70 1184.65 36.80
15190 59.2296 1140.90 1184.53 35.00
15191 59.2335 1222.70 1184.42 36.90
15192 59.2371 1194.90 1184.31 35.50
15193 59.2410 1133.90 1184.19 35.60
15194 59.2448 1165.50 1184.08 35.50
15195 59.2485 1238.10 1183.97 37.20
15196 59.2523 1192.00 1183.86 36.30
15197 59.2560 1194.30 1183.76 36.10
15198 59.2598 1150.60 1183.65 35.20
15199 59.2635 1244.60 1183.55 37.20
15200 59.2673 1209.70 1183.45 36.20
15201 59.2710 1168.90 1183.34 35.50
15202 59.2747 1161.20 1183.24 35.60
15203 59.2785 1151.80 1183.14 35.50
15204 59.2823 1184.00 1183.05 35.90
15205 59.2860 1238.70 1182.95 36.80
15206 59.2898 1165.90 1182.85 35.70
15207 59.2935 1167.20 1182.76 35.90
15208 59.2974 1216.00 1182.66 36.60
15209 59.3010 1198.70 1182.57 36.30
15210 59.3049 1180.40 1182.48 36.30
15211 59.3087 1214.20 1182.39 36.30
15212 59.3124 1254.90 1182.30 37.20
15213 59.3162 1182.40 1182.21 36.00
15214 59.3199 1153.30 1182.12 35.60
15215 59.3237 1236.20 1182.03 36.80
15216 59.3274 1147.70 1181.94 35.60
15217 59.3312 1198.40 1181.86 35.90
15218 59.3349 1154.10 1181.77 34.80
15219 59.3386 1281.10 1181.69 38.50
15220 59.3424 1095.60 1181.60 35.30
15221 59.3462 1190.50 1181.52 35.70
15222 59.3499 1136.90 1181.44 35.40
15223 59.3537 1162.70 1181.36 36.00
15224 59.3574 1161.60 1181.28 35.50
15225 59.3613 1197.80 1181.19 36.50
15226 59.3651 1161.20 1181.11 35.70
15227 59.3688 1142.10 1181.03 35.00
15228 59.3726 1118.20 1180.96 34.70
15229 59.3763 1200.80 1180.88 36.20
15230 59.3801 1204.10 1180.80 36.50
15231 59.3839 1167.80 1180.72 36.10
15232 59.3876 1139.70 1180.65 35.10
15233 59.3913 1250.10 1180.57 37.00
15234 59.3951 1082.30 1180.49 34.60
15235 59.3988 1228.20 1180.42 36.80
15236 59.4026 1086.10 1180.34 34.20
15237 59.4063 1185.40 1180.27 35.90
15238 59.4101 1144.20 1180.20 35.00
15239 59.4138 1157.60 1180.12 35.50
15240 59.4176 1142.50 1180.05 35.50
15241 59.4213 1171.70 1179.98 36.10
15242 59.4252 1132.50 1179.91 35.90
15243 59.4290 1152.70 1179.83 35.70
15244 59.4327 1176.60 1179.76 35.70
15245 59.4365 1207.70 1179.69 35.60
15246 59.4402 1210.30 1179.62 37.30
15247 59.4440 1175.80 1179.55 36.10
15248 59.4478 1099.40 1179.48 34.60
15249 59.4515 1160.30 1179.41 34.70
15250 59.4552 1164.40 1179.34 35.50
15251 59.4590 1224.30 1179.28 36.50
15252 59.4627 1123.60 1179.21 34.90
15253 59.4665 1200.30 1179.14 36.50
15254 59.4702 1192.40 1179.07 36.20
15255 59.4740 1174.00 1179.00 36.20
15256 59.4777 1103.30 1178.94 34.90
15257 59.4815 1190.60 1178.87 36.40
15258 59.4854 1199.60 1178.80 36.30
15259 59.4891 1160.00 1178.74 35.70
15260 59.4929 1166.60 1178.67 36.40
15261 59.4966 1135.40 1178.61 35.50
15262 59.5004 1146.90 1178.54 35.80
15263 59.5042 1161.50 1178.48 35.80
15264 59.5079 1178.60 1178.41 36.30
15265 59.5117 1166.70 1178.35 35.50
15266 59.5154 1170.10 1178.29 35.70
15267 59.5191 1237.20 1178.22 37.00
15268 59.5229 1163.00 1178.16 36.10
15269 59.5266 1216.10 1176.53 36.50
15270 59.5304 1126.00 1176.48 34.90
15271 59.5341 1236.80 1176.43 36.30
15272 59.5379 1096.10 1176.39 35.20
15273 59.5418 1235.20 1176.34 37.50
15274 59.5454 1165.60 1176.29 35.50
15275 59.5493 1191.30 1176.24 36.00
15276 59.5530 1215.10 1176.20 36.80
15277 59.5568 1191.00 1176.15 36.10
15278 59.5605 1186.90 1176.10 36.60
15279 59.5643 1264.30 1176.05 37.40
15280 59.5681 1178.20 1176.00 35.90
15281 59.5718 1120.80 1175.96 34.90
15282 59.5756 1123.60 1175.91 35.00
15283 59.5793 1199.00 1175.86 36.30
15284 59.5830 1191.30 1175.81 36.60
15285 59.5868 1182.30 1175.77 36.00
15286 59.5905 1160.70 1175.72 36.10
15287 59.5943 1217.30 1175.67 36.80
15288 59.5980 1210.90 1175.62 36.70
15289 59.6018 1192.50 1175.58 36.70
15290 59.6057 1236.50 1176.09 37.60
15291 59.6093 1217.70 1176.05 37.40
15292 59.6132 1127.20 1176.01 35.00
15293 59.6169 1228.20 1175.97 37.00
15294 59.6207 1109.30 1175.93 34.70
15295 59.6245 1210.30 1175.88 36.40
15296 59.6282 1155.90 1175.84 35.80
15297 59.6320 1202.50 1175.80 36.60
15298 59.6357 1159.80 1175.76 35.20
15299 59.6395 1225.90 1175.72 37.60
15300 59.6432 1202.60 1175.68 36.70
15301 59.6469 1223.30 1175.64 36.50
15302 59.6507 1190.30 1175.60 36.40
15303 59.6544 1185.10 1175.56 36.40
15304 59.6582 1128.60 1175.52 35.50
15305 59.6620 1227.10 1175.47 37.00
15306 59.6657 1152.40 1175.43 36.00
15307 59.6696 1186.40 1175.39 36.20
15308 59.6732 1178.20 1175.35 36.20
15309 59.6771 1221.40 1175.31 36.80
15310 59.6808 1136.90 1175.27 35.60
15311 59.6846 1184.40 1175.23 35.40
15312 59.6884 1141.20 1175.19 35.40
15313 59.6921 1202.30 1175.16 36.40
15314 59.6959 1154.20 1175.12 36.10
15315 59.6996 1213.80 1175.08 36.70
15316 59.7034 1179.60 1175.04 36.50
15317 59.7071 1176.00 1175.00 36.30
15318 59.7108 1136.70 1174.96 35.50
15319 59.7146 1183.80 1174.92 36.30
15320 59.7183 1198.80 1174.88 37.20
15321 59.7221 1166.70 1174.84 35.90
15322 59.7259 1164.90 1174.81 36.10
15323 59.7296 1185.50 1174.77 36.30
15324 59.7335 1236.00 1174.73 37.30
15325 59.7371 1191.00 1174.69 35.60
15326 59.7410 1253.70 1174.66 38.00
15327 59.7448 1194.80 1174.62 36.20
15328 59.7485 1156.30 1174.58 35.70
15329 59.7523 1232.00 1174.54 37.10
15330 59.7560 1198.90 1174.51 36.50
15331 59.7598 1197.90 1174.47 36.60
15332 59.7635 1128.30 1174.43 35.20
15333 59.7673 1200.90 1174.40 36.40
15334 59.7710 1134.20 1174.36 35.60
15335 59.7747 1198.60 1174.33 36.90
15336 59.7785 1126.40 1174.29 35.40
15337 59.7823 1192.40 1174.26 36.50
15338 59.7860 1146.60 1174.22 35.80
15339 59.7898 1192.50 1174.19 36.60
15340 59.7935 1166.20 1174.15 36.10
15341 59.7974 1170.10 1174.12 36.20
15342 59.8010 1140.40 1174.09 35.40
15343 59.8049 1255.80 1174.05 37.80
15344 59.8087 1152.80 1174.02 35.40
15345 59.8124 1192.00 1173.98 36.80
15346 59.8162 1128.10 1173.95 35.10
15347 59.8199 1160.90 1173.92 36.30
15348 59.8237 1181.20 1173.89 36.40
15349 59.8274 1172.40 1173.85 36.10
15350 59.8312 1150.20 1173.82 35.90
15351 59.8349 1207.10 1173.79 35.70
15352 59.8386 1141.20 1173.76 35.70
15353 59.8424 1151.50 1173.73 36.40
15354 59.8462 1148.20 1173.70 35.30
15355 59.8499 1164.70 1173.67 35.70
15356 59.8537 1127.90 1173.64 34.90
15357 59.8574 1170.10 1173.61 35.40
15358 59.8613 1141.10 1173.58 35.40
15359 59.8651 1208.60 1173.55 36.40
15360 59.8688 1178.60 1173.53 36.20
15361 59.8726 1194.80 1173.50 36.30
15362 59.8763 1191.90 1173.47 36.70
15363 59.8801 1187.30 1173.44 36.70
15364 59.8839 1154.30 1173.42 35.90
15365 59.8876 1149.70 1173.39 35.50
15366 59.8913 1204.00 1173.37 36.60
15367 59.8951 1152.10 1173.34 35.90
15368 59.8988 1144.30 1173.32 35.30
15369 59.9026 1224.70 1173.29 37.00
15370 59.9063 1107.30 1173.27 34.80
15371 59.9101 1212.80 1173.25 36.20
15372 59.9138 1180.70 1173.23 36.20
15373 59.9176 1145.00 1173.20 35.30
15374 59.9213 1151.30 1173.18 35.60
15375 59.9252 1144.70 1173.16 35.10
15376 59.9290 1160.30 1173.14 35.70
15377 59.9327 1180.60 1173.13 36.20
15378 59.9365 1212.40 1173.11 36.30
15379 59.9402 1210.30 1173.09 37.70
15380 59.9440 1169.80 1173.07 36.40
15381 59.9478 1174.70 1173.06 35.90
15382 59.9515 1165.70 1173.04 35.80
15383 59.9552 1187.80 1173.03 36.20
15384 59.9590 1161.40 1173.01 35.90
15385 59.9627 1172.00 1173.00 35.80
15386 59.9665 1109.20 1172.99 34.80
15387 59.9702 1219.90 1172.98 36.40
15388 59.9740 1103.00 1172.97 34.70
15389 59.9777 1224.70 1172.96 36.80
15390 59.9815 1179.30 1172.95 36.10
15391 59.9854 1181.70 1172.94 36.10
15392 59.9891 1115.20 1172.94 35.30
15393 59.9929 1236.60 1172.93 37.00
15394 59.9966 1180.30 1172.93 36.10
15395 60.0004 1183.80 1172.93 35.60
15396 60.0042 1145.50 1172.93 35.00
15397 60.0079 1238.90 1172.93 37.10
15398 60.0117 1127.20 1172.93 35.30
15399 60.0154 1171.40 1172.94 36.10
15400 60.0191 1230.70 1172.94 37.90
15401 60.0229 1131.30 1172.95 35.60
15402 60.0266 1167.50 1172.96 36.00
15403 60.0304 1162.10 1172.97 35.90
15404 60.0341 1134.30 1172.98 35.80
15405 60.0379 1161.90 1172.99 35.60
15406 60.0418 1179.90 1173.01 37.60
15407 60.0454 1175.20 1173.02 36.00
15408 60.0493 1193.10 1173.04 36.30
15409 60.0530 1120.10 1173.07 35.00
15410 60.0568 1105.10 1173.09 34.30
15411 60.0605 1238.80 1173.12 37.60
15412 60.0643 1153.30 1173.15 35.90
15413 60.0681 1199.10 1173.18 36.90
15414 60.0718 1169.80 1173.21 36.20
15415 60.0756 1239.00 1173.25 37.10
15416 60.0793 1130.30 1173.29 35.80
15417 60.0830 1168.30 1173.33 36.40
15418 60.0868 1127.10 1173.38 35.40
15419 60.0905 1231.90 1173.43 37.20
15420 60.0943 1172.40 1173.49 36.20
15421 60.0980 1167.90 1173.54 35.90
15422 60.1018 1235.30 1173.60 37.80
15423 60.1057 1190.30 1173.67 36.50
15424 60.1093 1179.90 1173.74 36.20
15425 60.1132 1180.10 1173.82 36.50
15426 60.1169 1227.60 1173.90 37.10
15427 60.1207 1176.10 1173.98 36.30
15428 60.1245 1148.30 1174.07 35.60
15429 60.1282 1147.00 1174.17 35.60
15430 60.1320 1184.10 1174.27 36.50
15431 60.1357 1203.20 1174.38 36.80
15432 60.1395 1152.80 1174.50 36.20
15433 60.1432 1201.20 1174.62 37.40
15434 60.1469 1179.50 1174.75 35.90
15435 60.1507 1189.20 1174.89 35.70
15436 60.1544 1160.00 1175.04 35.90
15437 60.1582 1151.00 1175.20 35.90
15438 60.1619 1158.20 1175.36 35.80
15439 60.1657 1148.10 1175.54 35.50
15440 60.1696 1220.10 1175.73 37.30
15441 60.1732 1162.40 1175.93 36.20
15442 60.1771 1195.10 1176.14 36.70
15443 60.1808 1214.20 1176.36 36.90
15444 60.1846 1171.50 1176.61 36.20
15445 60.1884 1221.40 1176.86 37.10
15446 60.1921 1190.00 1177.13 36.90
15447 60.1959 1127.40 1177.43 35.40
15448 60.1996 1208.50 1177.73 36.50
15449 60.2034 1165.30 1178.06 36.20
15450 60.2071 1182.90 1178.42 36.60
15451 60.2108 1192.10 1178.79 37.00
15452 60.2146 1118.90 1179.19 35.10
15453 60.2183 1198.60 1179.61 36.70
15454 60.2221 1176.60 1180.07 36.90
15455 60.2258 1153.30 1180.56 35.10
15456 60.2296 1226.00 1181.09 36.70
15457 60.2335 1193.90 1181.66 36.30
15458 60.2371 1204.80 1182.25 36.40
15459 60.2410 1195.90 1182.91 36.60
15460 60.2447 1225.00 1183.59 37.20
15461 60.2485 1227.10 1184.35 37.20
15462 60.2523 1156.70 1185.18 35.70
15463 60.2560 1212.80 1186.04 37.10
15464 60.2598 1131.20 1186.99 35.20
15465 60.2635 1199.20 1188.00 36.80
15466 60.2673 1200.00 1189.12 37.00
15467 60.2710 1221.50 1190.34 36.80
15468 60.2747 1184.30 1191.63 36.60
15469 60.2785 1194.60 1193.07 36.70
15470 60.2822 1205.20 1194.59 36.70
15471 60.2860 1277.10 1196.30 38.00
15472 60.2898 1207.60 1198.17 36.50
15473 60.2935 1284.00 1200.16 38.50
15474 60.2974 1198.90 1202.39 36.60
15475 60.3010 1281.80 1204.77 38.50
15476 60.3049 1129.00 1207.45 35.20
15477 60.3086 1272.80 1210.31 37.60
15478 60.3124 1216.50 1213.53 36.80
15479 60.3162 1268.10 1217.06 38.10
15480 60.3199 1254.40 1220.84 37.20
15481 60.3237 1224.20 1225.08 37.40
15482 60.3274 1225.50 1229.60 37.20
15483 60.3312 1289.60 1234.66 38.50
15484 60.3349 1317.40 1240.14 38.50
15485 60.3386 1278.20 1245.92 36.40
15486 60.3424 1279.70 1252.27 38.70
15487 60.3461 1292.90 1258.85 37.70
15488 60.3499 1258.40 1265.92 37.50
15489 60.3537 1346.00 1273.23 38.10
15490 60.3574 1325.60 1280.43 38.40
15491 60.3613 1246.00 1287.70 37.20
15492 60.3649 1303.30 1294.43 38.60
15493 60.3688 1321.80 1300.67 38.40
15494 60.3725 1255.90 1305.82 37.50
15495 60.3763 1340.80 1309.83 38.90
15496 60.3801 1298.10 1312.31 38.00
15497 60.3838 1328.60 1313.07 38.50
15498 60.3876 1242.80 1312.11 37.40
15499 60.3913 1348.40 1309.53 39.50
15500 60.3951 1328.80 1305.37 38.70
15501 60.3988 1315.80 1299.93 38.60
15502 60.4025 1249.60 1293.73 37.70
15503 60.4063 1310.10 1286.70 37.90
15504 60.4100 1278.90 1279.53 37.60
15505 60.4138 1234.00 1272.05 37.10
15506 60.4175 1286.20 1264.86 37.80
15507 60.4213 1300.40 1257.70 38.20
15508 60.4252 1192.00 1250.88 36.60
15509 60.4288 1212.40 1244.63 36.50
15510 60.4327 1248.30 1238.64 37.30
15511 60.4364 1195.10 1233.23 36.50
15512 60.4402 1203.60 1228.11 36.60
15513 60.4440 1232.60 1223.40 37.10
15514 60.4477 1231.90 1219.20 37.40
15515 60.4515 1176.50 1215.26 36.40
15516 60.4552 1211.80 1211.74 37.10
15517 60.4590 1221.90 1208.44 36.70
15518 60.4627 1232.70 1205.43 37.40
15519 60.4664 1195.30 1202.74 36.70
15520 60.4702 1135.60 1200.22 35.90
15521 60.4739 1142.00 1197.97 35.70
15522 60.4777 1081.40 1195.85 35.20
15523 60.4814 1198.50 1193.95 37.10
15524 60.4852 1197.90 1192.16 36.30
15525 60.4891 1264.60 1190.51 38.10
15526 60.4927 1198.60 1189.03 36.50
15527 60.4966 1181.40 1187.62 36.90
15528 60.5003 1160.50 1186.36 36.20
15529 60.5041 1252.00 1185.15 37.40
15530 60.5079 1214.80 1184.03 35.90
15531 60.5116 1196.50 1183.01 36.70
15532 60.5154 1198.90 1182.04 36.60
15533 60.5191 1169.30 1181.16 36.40
15534 60.5229 1183.70 1180.31 35.70
15535 60.5266 1129.90 1179.54 35.90
15536 60.5303 1135.60 1178.79 35.60
15537 60.5341 1140.90 1178.09 35.60
15538 60.5378 1120.50 1177.45 34.40
15539 60.5416 1242.20 1176.83 38.50
15540 60.5453 1200.20 1176.27 36.90
15541 60.5491 1129.20 1182.14 35.00
15542 60.5530 1182.90 1181.68 36.10
15543 60.5566 1208.90 1181.26 36.50
15544 60.5605 1186.00 1180.86 36.80
15545 60.5642 1191.40 1180.49 36.30
15546 60.5680 1239.30 1180.13 36.90
15547 60.5717 1233.50 1179.81 36.90
15548 60.5755 1184.70 1179.49 36.30
15549 60.5793 1160.80 1179.20 35.90
15550 60.5830 1221.90 1178.93 36.70
15551 60.5868 1174.30 1178.66 35.30
15552 60.5905 1174.70 1178.42 36.10
15553 60.5942 1196.20 1178.19 36.40
15554 60.5980 1121.90 1177.98 34.90
15555 60.6017 1209.90 1177.78 36.40
15556 60.6055 1260.00 1177.58 36.70
15557 60.6092 1156.50 1177.41 35.40
15558 60.6130 1177.10 1177.24 36.00
15559 60.6169 1187.90 1177.08 36.60
15560 60.6205 1147.20 1176.93 35.30
15561 60.6244 1128.40 1176.80 34.40
15562 60.6281 1207.60 1176.67 36.70
15563 60.6319 1170.90 1176.55 35.70
15564 60.6356 1176.10 1176.44 35.90
15565 60.6394 1198.50 1176.33 35.60
15566 60.6432 1185.60 1176.23 37.20
15567 60.6469 1254.30 1176.14 37.50
15568 60.6507 1130.70 1176.06 35.10
15569 60.6544 1222.50 1175.98 36.70
15570 60.6581 1140.10 1175.91 35.40
15571 60.6618 1219.90 1175.85 36.60
15572 60.6656 1153.40 1175.79 35.40
15573 60.6694 1191.10 1175.74 36.20
15574 60.6731 1230.50 1175.70 36.90
15575 60.6769 1187.60 1175.66 36.00
15576 60.6806 1183.00 1175.62 36.20
15577 60.6844 1233.70 1175.59 37.50
15578 60.6883 1208.30 1175.57 36.30
15579 60.6920 1207.40 1175.55 36.60
15580 60.6958 1156.30 1175.53 35.70
15581 60.6995 1248.40 1175.52 37.20
15582 60.7033 1197.20 1175.52 36.50
15583 60.7070 1192.20 1175.52 36.00
15584 60.7108 1186.90 1175.52 36.30
15585 60.7146 1207.40 1175.53 36.40
15586 60.7183 1150.30 1175.54 35.50
15587 60.7220 1184.10 1175.56 36.30
15588 60.7257 1166.90 1175.58 35.90
15589 60.7295 1208.30 1175.61 36.70
15590 60.7333 1150.00 1175.64 35.30
15591 60.7370 1172.80 1175.67 35.20
15592 60.7408 1224.60 1175.71 37.30
15593 60.7445 1179.20 1175.76 36.60
15594 60.7483 1191.50 1175.80 36.20
15595 60.7520 1207.60 1175.86 36.40
15596 60.7559 1199.60 1175.91 36.30
15597 60.7597 1191.60 1175.97 36.30
15598 60.7634 1162.40 1176.04 35.90
15599 60.7672 1202.80 1176.11 36.20
15600 60.7709 1208.90 1176.18 36.70
15601 60.7747 1223.40 1176.26 36.10
15602 60.7784 1203.90 1176.34 36.30
15603 60.7822 1247.80 1176.43 37.10
15604 60.7859 1160.40 1176.52 35.50
15605 60.7896 1227.80 1176.62 36.80
15606 60.7934 1223.50 1176.72 36.20
15607 60.7971 1212.10 1176.83 36.40
15608 60.8009 1214.50 1176.94 36.60
15609 60.8047 1239.70 1177.05 36.40
15610 60.8084 1212.80 1177.17 35.50
15611 60.8122 1185.00 1177.30 35.90
15612 60.8159 1161.00 1177.43 36.10
15613 60.8198 1226.60 1177.57 37.10
15614 60.8234 1175.10 1177.71 36.20
15615 60.8273 1140.40 1177.85 35.10
15616 60.8311 1193.30 1178.01 36.20
15617 60.8348 1205.70 1178.16 36.30
15618 60.8386 1162.80 1178.33 35.10
15619 60.8423 1205.30 1178.50 36.90
15620 60.8461 1196.40 1178.67 36.40
15621 60.8498 1140.10 1178.85 35.30
15622 60.8535 1198.40 1179.04 35.80
15623 60.8573 1196.70 1179.24 35.90
15624 60.8610 1131.90 1181.66 35.10
15625 60.8648 1248.90 1181.89 37.30
15626 60.8685 1153.70 1182.13 35.60
15627 60.8723 1183.80 1182.37 35.90
15628 60.8760 1157.10 1182.62 35.80
15629 60.8798 1179.90 1182.88 36.10
15630 60.8837 1196.10 1183.15 36.20
15631 60.8873 1189.10 1183.43 36.70
15632 60.8912 1203.30 1183.71 36.50
15633 60.8949 1222.90 1184.00 36.90
15634 60.8987 1184.60 1184.31 36.10
15635 60.9024 1191.70 1184.62 35.90
15636 60.9062 1164.20 1184.94 35.30
15637 60.9100 1110.70 1185.28 34.20
15638 60.9137 1171.10 1185.62 35.80
15639 60.9174 1225.60 1185.97 36.70
15640 60.9212 1187.40 1186.33 36.50
15641 60.9249 1233.30 1186.71 37.10
15642 60.9287 1237.20 1187.10 36.90
15643 60.9324 1187.50 1187.50 36.20
15644 60.9362 1112.10 1187.91 34.80
15645 60.9399 1160.70 1188.33 35.40
15646 60.9437 1186.30 1188.77 36.20
15647 60.9474 1194.90 1189.22 36.40
15648 60.9512 1203.80 1189.69 36.00
15649 60.9551 1216.30 1190.18 36.30
15650 60.9588 1237.20 1190.67 37.20
15651 60.9626 1218.80 1191.19 36.70
15652 60.9663 1173.70 1191.71 36.40
15653 60.9701 1233.80 1192.26 37.00
15654 60.9738 1169.00 1192.82 36.00
15655 60.9776 1170.80 1193.41 35.80
15656 60.9813 1187.30 1194.02 36.50
15657 60.9851 1219.50 1194.63 37.00
15658 60.9888 1217.50 1195.28 36.60
15659 60.9925 1182.90 1195.94 36.00
15660 60.9963 1225.80 1196.63 36.70
15661 61.0000 1205.20 1197.34 37.00
15662 61.0038 1188.30 1198.08 36.10
15663 61.0076 1245.00 1198.85 37.10
15664 61.0113 1211.50 1199.63 36.70
15665 61.0151 1296.20 1200.45 38.00
15666 61.0188 1200.70 1201.29 36.20
15667 61.0227 1268.30 1202.17 37.70
15668 61.0263 1235.10 1203.07 36.90
15669 61.0302 1246.10 1204.02 37.00
15670 61.0340 1190.40 1205.01 36.40
15671 61.0377 1229.80 1206.01 36.50
15672 61.0415 1200.30 1207.07 37.20
15673 61.0452 1208.70 1208.15 36.40
15674 61.0490 1212.40 1209.30 36.40
15675 61.0527 1291.00 1210.46 37.00
15676 61.0564 1272.50 1211.70 37.40
15677 61.0602 1276.40 1212.98 37.20
15678 61.0639 1275.50 1214.29 38.00
15679 61.0677 1227.90 1215.68 37.10
15680 61.0714 1215.70 1217.10 36.00
15681 61.0752 1229.30 1218.61 36.60
15682 61.0789 1232.50 1220.14 35.80
15683 61.0827 1227.80 1221.78 36.70
15684 61.0866 1250.60 1223.50 37.20
15685 61.0902 1277.10 1225.24 37.30
15686 61.0941 1175.20 1227.10 36.00
15687 61.0978 1199.70 1229.00 36.10
15688 61.1016 1208.80 1231.04 36.50
15689 61.1053 1239.50 1233.12 37.00
15690 61.1091 1197.80 1235.35 35.90
15691 61.1129 1278.20 1237.69 37.60
15692 61.1166 1223.90 1240.07 36.00
15693 61.1203 1286.80 1242.64 38.00
15694 61.1241 1202.20 1245.26 36.20
15695 61.1278 1242.00 1248.09 36.90
15696 61.1315 1323.60 1250.98 38.60
15697 61.1353 1297.90 1254.11 37.70
15698 61.1391 1242.70 1257.40 36.30
15699 61.1428 1282.30 1260.77 38.70
15700 61.1466 1284.80 1264.42 37.70
15701 61.1503 1330.90 1268.17 38.10
15702 61.1541 1298.00 1272.23 37.50
15703 61.1578 1349.50 1276.42 39.10
15704 61.1617 1323.10 1280.96 38.30
15705 61.1654 1348.80 1285.07 38.40
15706 61.1692 1288.00 1290.17 37.70
15707 61.1730 1298.60 1295.57 37.80
15708 61.1767 1291.40 1301.17 38.50
15709 61.1805 1355.80 1307.27 38.60
15710 61.1842 1337.90 1313.59 38.80
15711 61.1880 1324.40 1320.52 38.30
15712 61.1917 1308.50 1327.69 37.80
15713 61.1954 1318.00 1335.58 38.10
15714 61.1992 1379.40 1344.00 39.10
15715 61.2029 1368.60 1352.79 38.80
15716 61.2067 1384.20 1362.45 39.10
15717 61.2104 1382.10 1372.56 39.00
15718 61.2142 1347.30 1383.70 38.70
15719 61.2179 1476.90 1395.40 39.80
15720 61.2217 1456.20 1408.33 40.50
15721 61.2254 1455.30 1421.93 40.40
15722 61.2293 1457.10 1437.02 40.50
15723 61.2331 1537.80 1453.40 41.50
15724 61.2368 1440.00 1470.64 39.30
15725 61.2406 1526.50 1489.92 40.90
15726 61.2443 1448.80 1510.26 40.90
15727 61.2481 1566.50 1533.07 41.80
15728 61.2518 1637.10 1557.20 43.10
15729 61.2556 1655.30 1584.30 43.20
15730 61.2593 1694.20 1613.87 43.20
15731 61.2631 1666.40 1645.36 43.10
15732 61.2668 1686.40 1680.67 43.60
15733 61.2705 1733.20 1718.30 44.30
15734 61.2743 1767.50 1760.48 44.70
15735 61.2780 1895.20 1805.39 46.70
15736 61.2818 1809.70 1855.73 45.40
15737 61.2856 1931.60 1910.48 46.30
15738 61.2893 1883.30 1968.38 46.60
15739 61.2932 1974.40 2032.53 47.60
15740 61.2968 2052.80 2099.68 48.40
15741 61.3007 2206.30 2173.08 50.60
15742 61.3044 2225.40 2248.54 50.40
15743 61.3082 2303.70 2329.10 51.30
15744 61.3119 2382.70 2409.43 52.00
15745 61.3157 2490.20 2491.86 53.80
15746 61.3195 2513.10 2571.94 53.90
15747 61.3232 2722.50 2644.94 56.50
15748 61.3270 2594.40 2711.52 55.20
15749 61.3307 2728.60 2764.80 56.20
15750 61.3344 2669.20 2804.83 55.70
15751 61.3382 2612.10 2826.94 53.70
15752 61.3419 2688.70 2830.96 57.00
15753 61.3457 2785.70 2815.76 57.30
15754 61.3494 2596.40 2783.47 54.60
15755 61.3532 2636.60 2734.55 55.40
15756 61.3569 2425.90 2674.26 52.20
15757 61.3607 2433.60 2602.77 53.00
15758 61.3644 2286.70 2526.86 51.20
15759 61.3683 2236.20 2445.64 50.50
15760 61.3719 2197.40 2365.67 49.80
15761 61.3758 2059.70 2284.85 48.60
15762 61.3796 2033.30 2206.78 47.90
15763 61.3833 1984.70 2134.31 47.10
15764 61.3871 1897.90 2064.34 46.00
15765 61.3908 1827.20 2000.70 45.70
15766 61.3946 1742.50 1940.20 44.60
15767 61.3983 1734.20 1885.82 43.70
15768 61.4021 1626.40 1834.49 42.10
15769 61.4058 1630.50 1788.81 42.80
15770 61.4095 1578.60 1745.81 42.00
15771 61.4133 1552.20 1706.66 41.20
15772 61.4170 1455.40 1671.83 40.30
15773 61.4208 1487.10 1639.24 40.70
15774 61.4245 1460.60 1610.26 40.50
15775 61.4283 1454.00 1583.14 40.20
15776 61.4320 1385.10 1559.02 39.10
15777 61.4358 1466.10 1536.42 40.40
15778 61.4395 1376.70 1516.31 38.00
15779 61.4434 1383.60 1497.46 39.90
15780 61.4472 1399.20 1480.21 39.50
15781 61.4509 1384.80 1464.90 38.90
15782 61.4547 1362.70 1450.48 38.50
15783 61.4584 1409.50 1437.67 39.50
15784 61.4622 1395.70 1425.60 39.30
15785 61.4659 1413.40 1414.89 39.80
15786 61.4697 1263.10 1404.82 37.40
15787 61.4734 1323.00 1395.88 38.40
15788 61.4771 1310.00 1387.50 38.30
15789 61.4809 1380.30 1379.89 39.30
15790 61.4846 1305.20 1373.18 38.20
15791 61.4884 1370.30 1366.94 39.10
15792 61.4921 1328.70 1361.49 38.40
15793 61.4959 1312.20 1356.47 38.20
15794 61.4996 1379.20 1352.14 39.50
15795 61.5034 1295.20 1348.23 37.70
15796 61.5071 1318.60 1344.94 38.50
15797 61.5109 1311.70 1342.06 38.00
15798 61.5148 1403.30 1339.70 39.40
15799 61.5185 1309.10 1337.87 37.90
15800 61.5223 1259.00 1336.48 37.60
15801 61.5260 1285.50 1335.60 38.20
15802 61.5298 1371.40 1335.19 39.10
15803 61.5335 1286.20 1335.28 37.90
15804 61.5373 1383.10 1335.89 38.70
15805 61.5410 1300.10 1337.01 38.20
15806 61.5448 1320.10 1338.70 38.60
15807 61.5485 1361.60 1340.92 38.50
15808 61.5522 1349.10 1343.81 38.10
15809 61.5560 1276.80 1347.36 37.10
15810 61.5597 1329.20 1351.49 38.40
15811 61.5635 1378.90 1356.47 39.00
15812 61.5672 1430.90 1362.11 39.90
15813 61.5710 1446.80 1368.74 39.20
15814 61.5747 1402.70 1376.12 39.40
15815 61.5785 1425.90 1384.70 39.90
15816 61.5822 1413.70 1394.12 40.10
15817 61.5860 1519.60 1404.97 41.00
15818 61.5899 1445.20 1417.11 40.40
15819 61.5936 1491.00 1430.28 40.20
15820 61.5974 1479.40 1445.27 40.10
15821 61.6011 1502.40 1461.39 41.20
15822 61.6049 1527.10 1479.56 41.50
15823 61.6086 1573.10 1498.92 41.90
15824 61.6124 1561.20 1520.46 42.20
15825 61.6161 1621.90 1543.05 42.50
15826 61.6199 1670.20 1567.72 43.20
15827 61.6236 1626.90 1592.99 42.90
15828 61.6273 1672.10 1619.84 44.10
15829 61.6311 1803.40 1646.95 45.40
15830 61.6348 1725.50 1672.97 43.90
15831 61.6386 1692.90 1698.32 43.00
15832 61.6423 1769.10 1720.72 45.20
15833 61.6461 1853.90 1740.20 45.40
15834 61.6498 1819.60 1754.69 45.50
15835 61.6536 1795.70 1764.02 43.90
15836 61.6573 1850.90 1767.07 45.90
15837 61.6612 1816.50 1763.73 45.10
15838 61.6648 1781.20 1754.32 44.90
15839 61.6687 1842.00 1738.91 45.70
15840 61.6725 1647.70 1718.53 43.60
15841 61.6762 1818.70 1695.04 45.50
15842 61.6800 1664.70 1668.17 43.20
15843 61.6837 1743.20 1640.52 44.40
15844 61.6875 1636.10 1611.39 42.70
15845 61.6912 1592.10 1583.22 42.80
15846 61.6950 1586.90 1554.92 42.20
15847 61.6987 1569.20 1528.54 42.50
15848 61.7024 1526.20 1502.79 41.10
15849 61.7062 1520.70 1479.27 41.80
15850 61.7099 1444.60 1456.77 39.80
15851 61.7137 1448.70 1435.94 40.10
15852 61.7174 1416.70 1417.19 39.40
15853 61.7212 1451.20 1399.45 40.60
15854 61.7249 1328.30 1383.61 38.50
15855 61.7287 1265.30 1368.64 37.70
15856 61.7324 1406.10 1355.30 40.00
15857 61.7363 1329.80 1342.70 38.50
15858 61.7399 1358.00 1331.46 38.20
15859 61.7438 1357.20 1320.84 39.70
15860 61.7475 1290.30 1311.36 38.10
15861 61.7513 1271.70 1302.38 37.90
15862 61.7551 1332.80 1294.13 38.50
15863 61.7588 1268.00 1286.71 37.40
15864 61.7626 1316.40 1279.69 38.20
15865 61.7663 1255.70 1273.35 37.50
15866 61.7701 1264.30 1267.33 37.90
15867 61.7738 1235.70 1261.88 37.00
15868 61.7775 1211.40 1256.69 36.40
15869 61.7813 1260.80 1251.98 37.90
15870 61.7850 1318.30 1247.47 38.70
15871 61.7887 1279.30 1243.38 37.70
15872 61.7925 1176.10 1239.45 36.10
15873 61.7962 1240.30 1235.87 37.10
15874 61.8000 1214.40 1232.42 37.00
15875 61.8038 1233.90 1229.18 36.80
15876 61.8075 1284.30 1226.22 37.70
15877 61.8114 1270.60 1223.35 37.20
15878 61.8150 1199.20 1220.72 36.30
15879 61.8189 1265.60 1218.17 37.80
15880 61.8226 1209.70 1215.83 37.00
15881 61.8264 1244.90 1213.55 37.00
15882 61.8301 1245.70 1211.45 37.70
15883 61.8339 1179.10 1209.40 36.10
15884 61.8376 1195.30 1207.51 36.10
15885 61.8414 1245.80 1205.66 36.90
15886 61.8451 1194.10 1203.95 36.70
15887 61.8489 1271.00 1202.28 37.80
15888 61.8526 1146.70 1200.68 35.30
15889 61.8563 1205.30 1199.20 35.80
15890 61.8601 1156.40 1197.75 35.70
15891 61.8638 1198.40 1196.40 36.30
15892 61.8676 1145.80 1195.08 35.50
15893 61.8713 1182.80 1193.84 36.00
15894 61.8751 1174.10 1192.63 36.20
15895 61.8788 1255.20 1191.49 37.60
15896 61.8826 1268.30 1190.37 37.90
15897 61.8863 1256.20 1189.33 37.20
15898 61.8901 1156.60 1188.30 35.90
15899 61.8938 1219.50 1187.33 36.60
15900 61.8977 1193.80 1186.38 36.60
15901 61.9013 1198.30 1185.48 36.50
15902 61.9052 1153.30 1184.60 35.70
15903 61.9090 1163.90 1183.74 35.90
15904 61.9127 1289.80 1182.94 38.50
15905 61.9165 1243.30 1182.15 37.30
15906 61.9202 1138.20 1181.40 35.90
15907 61.9240 1202.80 1180.66 37.10
15908 61.9277 1177.10 1179.96 36.10
15909 61.9314 1152.60 1179.27 35.60
15910 61.9352 1163.10 1178.62 35.80
15911 61.9389 1158.70 1177.97 35.20
15912 61.9426 1155.40 1177.36 36.20
15913 61.9464 1197.90 1176.75 36.70
15914 61.9501 1207.80 1176.17 36.80
15915 61.9539 1186.30 1175.60 35.80
15916 61.9577 1174.40 1175.04 36.20
15917 61.9614 1193.00 1174.52 36.40
15918 61.9652 1128.50 1173.99 34.90
15919 61.9689 1219.30 1173.49 37.10
15920 61.9728 1192.20 1173.00 36.60
15921 61.9765 1168.80 1172.53 35.50
15922 61.9803 1172.20 1172.06 36.20
15923 61.9840 1179.90 1171.61 35.80
15924 61.9857 1200.70 1171.40 36.80
15925 61.9894 1185.80 1170.97 36.10
15926 61.9933 1222.90 1170.55 37.10
15927 61.9969 1183.90 1170.14 36.10
15928 62.0008 1175.20 1169.73 36.00
15929 62.0046 1169.10 1169.34 35.80
15930 62.0083 1154.30 1168.96 36.00
15931 62.0121 1150.40 1168.58 36.10
15932 62.0158 1227.60 1168.22 37.00
15933 62.0196 1155.20 1167.86 35.90
15934 62.0233 1235.30 1167.52 36.50
15935 62.0271 1216.40 1167.18 37.00
15936 62.0308 1234.80 1166.85 37.40
15937 62.0345 1240.90 1166.52 36.80
15938 62.0383 1248.40 1166.20 36.60
15939 62.0420 1158.40 1165.89 35.30
15940 62.0458 1158.20 1165.59 35.80
15941 62.0495 1128.90 1165.29 35.20
15942 62.0533 1187.90 1165.00 36.30
15943 62.0570 1158.20 1164.72 34.90
15944 62.0608 1202.90 1164.43 36.40
15945 62.0645 1206.20 1164.16 36.70
15946 62.0684 1133.40 1163.89 35.80
15947 62.0720 1195.30 1163.63 36.30
15948 62.0759 1206.80 1163.37 36.90
15949 62.0797 1184.90 1163.12 35.70
15950 62.0834 1242.30 1162.87 36.70
15951 62.0872 1141.60 1162.63 35.70
15952 62.0909 1175.40 1162.39 36.30
15953 62.0947 1188.80 1162.15 36.30
15954 62.0984 1203.20 1161.92 36.90
15955 62.1021 1216.50 1161.70 36.60
15956 62.1059 1143.50 1161.48 35.50
15957 62.1096 1194.70 1161.26 36.60
15958 62.1134 1214.80 1161.04 37.30
15959 62.1171 1173.20 1160.83 36.30
15960 62.1209 1173.90 1160.62 35.90
15961 62.1246 1194.60 1160.42 35.90
15962 62.1284 1181.50 1160.22 36.70
15963 62.1321 1184.80 1160.02 36.00
15964 62.1359 1151.50 1153.39 35.80
15965 62.1396 1133.20 1153.26 34.50
15966 62.1435 1210.30 1153.13 36.80
15967 62.1471 1202.20 1153.00 36.40
15968 62.1510 1150.00 1152.88 35.70
15969 62.1548 1125.30 1152.75 35.30
15970 62.1585 1155.90 1152.63 36.30
15971 62.1623 1219.20 1152.51 36.90
15972 62.1660 1163.80 1152.40 35.90
15973 62.1698 1163.60 1152.28 36.00
15974 62.1735 1206.70 1152.17 36.40
15975 62.1772 1231.70 1152.05 37.40
15976 62.1810 1169.60 1151.95 36.00
15977 62.1847 1179.00 1151.83 36.60
15978 62.1884 1132.20 1151.73 35.20
15979 62.1922 1129.40 1151.62 35.80
15980 62.1960 1166.00 1151.52 35.70
15981 62.1997 1231.00 1151.41 36.90
15982 62.2035 1182.10 1151.31 35.90
15983 62.2072 1213.80 1151.21 37.10
15984 62.2110 1180.60 1151.11 36.30
15985 62.2147 1145.60 1151.02 35.90
15986 62.2150 1145.70 1151.01 35.70
15987 62.2188 1151.20 1150.91 36.10
15988 62.2225 1182.90 1150.82 37.20
15989 62.2263 1242.10 1150.72 37.20
15990 62.2300 1247.60 1150.63 37.80
15991 62.2338 1196.50 1150.54 37.00
15992 62.2375 1240.30 1150.45 37.20
15993 62.2413 1228.20 1150.36 37.70
15994 62.2450 1204.30 1150.27 37.50
15995 62.2489 1161.40 1150.18 36.20
15996 62.2525 1182.80 1150.10 36.90
15997 62.2564 1194.80 1150.01 37.30
15998 62.2601 1188.00 1149.93 35.60
15999 62.2639 1219.20 1149.84 37.10
16000 62.2676 1166.90 1149.76 36.60
16001 62.2714 1175.20 1149.68 36.40
16002 62.2752 1122.00 1149.60 35.20
16003 62.2789 1189.60 1149.52 36.30
16004 62.2826 1137.30 1149.44 35.70
16005 62.2864 1193.20 1149.36 36.90
16006 62.2901 1165.20 1149.28 36.70
16007 62.2938 1194.40 1149.20 36.70
16008 62.2976 1235.60 1149.13 37.90
16009 62.3013 1152.10 1149.05 36.40
16010 62.3051 1240.10 1148.98 37.50
16011 62.3088 1141.30 1148.90 36.30
16012 62.3126 1174.10 1148.83 36.60
16013 62.3163 1181.40 1148.76 36.40
16014 62.3201 1169.60 1148.68 36.00
16015 62.3238 1112.30 1148.61 35.20
16016 62.3276 1170.70 1148.54 36.80
16017 62.3313 1157.50 1148.47 36.70
16018 62.3352 1162.10 1148.40 36.00
16019 62.3390 1174.90 1148.33 36.00
16020 62.3427 1181.30 1148.26 37.60
16021 62.3465 1182.10 1148.19 36.60
16022 62.3502 1174.40 1148.13 36.60
16023 62.3540 1153.50 1148.06 36.00
16024 62.3577 1153.10 1147.99 35.80
16025 62.3615 1124.10 1147.93 35.70
16026 62.3652 1191.30 1147.86 36.80
16027 62.3689 1119.00 1147.80 35.30
16028 62.3727 1141.00 1147.73 35.70
16029 62.3764 1188.20 1147.67 36.70
16030 62.3801 1165.20 1147.60 36.30
16031 62.3839 1143.30 1147.54 35.90
16032 62.3877 1147.90 1147.48 35.80
16033 62.3914 1132.90 1147.41 35.70
16034 62.3952 1200.40 1147.35 36.80
16035 62.3989 1177.30 1147.29 36.60
16036 62.4027 1164.00 1147.23 36.40
16037 62.4064 1184.00 1147.17 36.00
16038 62.4103 1161.80 1147.11 36.20
16039 62.4140 1146.00 1147.05 36.00
16040 62.4178 1198.20 1146.99 36.70
16041 62.4215 1207.90 1146.93 37.00
16042 62.4253 1170.80 1146.87 36.20
16043 62.4290 1237.50 1146.81 37.90
16044 62.4328 1135.90 1146.76 35.40
16045 62.4365 1140.80 1146.70 35.80
16046 62.4403 1104.90 1146.64 34.80
16047 62.4440 1163.40 1146.58 36.50
16048 62.4478 1121.20 1146.53 35.20
16049 62.4515 1151.10 1146.47 35.90
16050 62.4552 1129.40 1146.41 35.10
16051 62.4590 1141.80 1144.13 35.70
16052 62.4627 1210.30 1144.10 36.70
16053 62.4665 1192.00 1144.06 36.00
16054 62.4702 1184.80 1144.03 36.50
16055 62.4740 1143.20 1143.99 36.10
16056 62.4777 1180.20 1143.96 36.10
16057 62.4815 1168.70 1143.92 36.40
16058 62.4852 1203.40 1143.89 36.70
16059 62.4891 1165.40 1143.86 36.20
16060 62.4929 1131.10 1143.82 35.80
16061 62.4966 1176.10 1143.79 36.30
16062 62.5004 1182.00 1143.75 37.00
16063 62.5041 1185.00 1143.72 36.40
16064 62.5079 1168.90 1143.68 36.50
16065 62.5116 1146.30 1143.65 36.10
16066 62.5154 1144.60 1143.61 36.30
16067 62.5191 1111.60 1143.58 35.10
16068 62.5229 1103.80 1143.54 35.60
16069 62.5266 1158.40 1143.51 36.30
16070 62.5303 1143.00 1143.47 35.70
16071 62.5341 1156.60 1143.44 35.70
16072 62.5378 1103.20 1143.40 34.80
16073 62.5416 1135.10 1143.37 35.90
16074 62.5453 1190.50 1143.33 37.30
16075 62.5491 1174.20 1143.30 36.20
16076 62.5528 1156.30 1143.27 35.80
16077 62.5566 1144.40 1143.23 35.90
16078 62.5603 1169.30 1143.20 36.10
16079 62.5642 1208.00 1143.16 36.80
16080 62.5678 1133.90 1143.13 35.70
16081 62.5717 1110.10 1143.09 35.10
16082 62.5754 1201.60 1143.06 37.00
16083 62.5792 1207.10 1143.02 36.40
16084 62.5830 1181.60 1142.99 36.60
16085 62.5867 1212.60 1142.95 37.00
16086 62.5905 1099.90 1142.92 35.40
16087 62.5942 1135.00 1142.89 35.10
16088 62.5979 1152.60 1142.85 35.70
16089 62.6017 1145.20 1142.82 35.90
16090 62.6054 1196.60 1142.78 36.70
16091 62.6091 1110.90 1142.75 35.50
16092 62.6129 1120.50 1142.71 35.50
16093 62.6166 1163.10 1142.68 35.50
16094 62.6204 1181.60 1142.64 36.20
16095 62.6242 1207.70 1142.61 36.50
16096 62.6279 1134.10 1142.58 35.60
16097 62.6317 1126.50 1142.54 35.40
16098 62.6354 1149.10 1142.51 35.30
16099 62.6393 1162.30 1142.47 35.50
16100 62.6429 1188.40 1142.44 36.50
16101 62.6468 1117.30 1142.40 35.60
16102 62.6505 1168.40 1142.37 36.10
16103 62.6543 1131.60 1142.34 35.00
16104 62.6580 1120.30 1142.30 35.30
16105 62.6618 1162.70 1142.27 35.70
16106 62.6656 1132.60 1142.23 35.40
16107 62.6693 1122.40 1142.20 35.80
16108 62.6730 1147.90 1142.17 36.00
16109 62.6768 1147.80 1142.13 36.00
16110 62.6805 1125.50 1142.10 35.80
16111 62.6842 1123.50 1142.06 35.50
16112 62.6880 1138.30 1142.03 35.60
16113 62.6917 1111.50 1142.00 35.20
16114 62.6955 1170.10 1141.96 36.30
16115 62.6993 1159.00 1141.93 36.20
16116 62.7030 1105.10 1141.89 35.30
16117 62.7068 1175.00 1141.86 36.10
16118 62.7105 1233.50 1141.82 37.40
16119 62.7144 1187.50 1141.79 37.00
16120 62.7180 1139.90 1141.76 35.50
16121 62.7219 1130.10 1141.72 35.60
16122 62.7256 1176.20 1141.69 36.30
16123 62.7294 1224.80 1141.65 37.50
16124 62.7331 1085.40 1141.62 34.50
16125 62.7369 1170.30 1141.59 36.10
16126 62.7407 1162.00 1141.55 35.60
16127 62.7444 1197.40 1141.52 37.20
16128 62.7481 1163.00 1141.48 35.70
16129 62.7519 1173.20 1141.45 36.40
16130 62.7556 1122.60 1141.42 35.50
16131 62.7593 1114.00 1141.38 35.30
16132 62.7631 1220.10 1141.35 36.80
16133 62.7668 1160.10 1141.32 36.20
16134 62.7706 1172.70 1141.28 36.20
16135 62.7744 1171.20 1141.25 36.10
16136 62.7781 1185.50 1141.21 36.60
16137 62.7820 1246.00 1141.18 37.70
16138 62.7856 1189.60 1141.15 37.00
16139 62.7895 1112.90 1141.11 35.50
16140 62.7932 1165.30 1141.08 36.50
16141 62.7970 1109.30 1141.05 35.70
16142 62.8007 1157.50 1141.01 36.10
16143 62.8045 1123.10 1140.98 35.50
16144 62.8082 1198.20 1140.95 36.80
16145 62.8120 1168.50 1140.91 36.50
16146 62.8158 1113.00 1140.88 35.40
16147 62.8195 1138.00 1140.84 35.60
16148 62.8232 1197.00 1140.81 36.90
16149 62.8270 1083.70 1140.78 34.90
16150 62.8307 1075.40 1140.74 34.90
16151 62.8344 1188.20 1140.71 36.50
16152 62.8382 1150.10 1140.68 36.00
16153 62.8420 1099.80 1140.64 34.80
16154 62.8457 1179.70 1140.61 36.90
16155 62.8495 1197.00 1140.58 36.10
16156 62.8532 1126.70 1140.54 35.10
16157 62.8571 1202.10 1140.51 36.90
16158 62.8607 1143.40 1140.48 35.80
16159 62.8646 1158.20 1140.44 36.30
16160 62.8683 1139.00 1140.41 35.80
16161 62.8721 1107.50 1140.38 35.50
16162 62.8758 1115.60 1140.34 35.70
16163 62.8796 1139.80 1140.31 36.10
16164 62.8834 1136.50 1140.27 36.40
16165 62.8871 1093.80 1140.24 35.30
16166 62.8909 1172.80 1140.21 36.70
16167 62.8946 1122.10 1140.18 35.70
16168 62.8983 1224.40 1140.14 37.50
16169 62.9021 1145.50 1140.11 36.40
16170 62.9058 1130.90 1140.07 35.10
16171 62.9096 1134.10 1140.04 35.70
16172 62.9133 1215.00 1140.01 37.00
16173 62.9171 1159.30 1139.97 36.20
16174 62.9208 1155.20 1139.94 36.30
16175 62.9246 1182.20 1139.91 37.00
16176 62.9283 1140.40 1139.88 36.30
16177 62.9322 1150.30 1139.84 36.30
16178 62.9358 1124.80 1139.81 35.80
16179 62.9397 1078.50 1139.78 34.60
16180 62.9435 1172.10 1139.74 37.20
16181 62.9472 1138.70 1139.71 36.10
16182 62.9510 1133.50 1139.68 36.00
16183 62.9547 1163.30 1139.64 36.40
16184 62.9585 1145.20 1139.61 36.10
16185 62.9622 1086.00 1139.58 35.00
16186 62.9660 1164.40 1139.54 36.40
16187 62.9697 1116.90 1139.51 35.90
16188 62.9734 1117.10 1139.48 34.90
16189 62.9772 1230.00 1139.44 38.10
16190 62.9809 1140.80 1139.41 35.70
16191 62.9847 1148.30 1139.38 36.50
16192 62.9884 1093.50 1139.35 35.50
16193 62.9922 1203.10 1139.31 37.00
16194 62.9959 1116.40 1139.28 35.10
16195 62.9997 1094.10 1139.25 34.90
16196 63.0034 1097.70 1139.21 34.80
16197 63.0073 1143.40 1139.18 36.20
16198 63.0111 1163.50 1139.15 36.20
16199 63.0148 1177.80 1139.11 36.50
16200 63.0186 1134.20 1140.63 35.20
16201 63.0223 1135.70 1140.61 36.10
16202 63.0261 1198.50 1140.59 37.10
16203 63.0298 1149.20 1140.58 36.60
16204 63.0336 1188.60 1140.56 37.20
16205 63.0373 1110.10 1140.54 35.20
16206 63.0410 1118.70 1140.52 35.70
16207 63.0448 1228.70 1140.50 38.90
16208 63.0485 1082.60 1140.49 35.10
16209 63.0523 1130.50 1140.47 36.10
16210 63.0560 1110.20 1140.45 35.20
16211 63.0598 1097.40 1140.44 35.40
16212 63.0636 1167.20 1140.42 36.90
16213 63.0673 1160.30 1140.40 36.70
16214 63.0712 1141.60 1140.39 35.20
16215 63.0748 1139.50 1140.37 36.30
16216 63.0787 1107.20 1140.36 35.50
16217 63.0824 1131.90 1140.34 36.30
16218 63.0862 1163.50 1140.33 36.80
16219 63.0899 1136.30 1140.31 36.30
16220 63.0937 1104.50 1140.30 34.70
16221 63.0975 1156.40 1140.28 36.50
16222 63.1012 1070.90 1140.27 34.90
16223 63.1049 1223.90 1140.26 37.90
16224 63.1087 1154.80 1140.24 36.10
16225 63.1124 1060.80 1140.23 34.50
16226 63.1161 1188.10 1140.22 37.10
16227 63.1199 1139.50 1140.20 36.40
16228 63.1237 1182.70 1140.19 37.40
16229 63.1274 1161.80 1140.18 36.80
16230 63.1312 1140.80 1140.17 36.00
16231 63.1349 1082.00 1140.16 35.30
16232 63.1387 1150.20 1140.15 35.70
16233 63.1424 1113.30 1140.14 36.10
16234 63.1463 1182.60 1140.13 37.50
16235 63.1501 1124.00 1140.12 36.20
16236 63.1538 1121.60 1140.11 35.70
16237 63.1576 1111.60 1140.10 35.20
16238 63.1613 1193.60 1140.09 36.20
16239 63.1651 1152.30 1140.09 35.70
16240 63.1688 1143.70 1140.08 35.60
16241 63.1726 1085.40 1140.07 34.50
16242 63.1763 1091.40 1140.06 35.00
16243 63.1800 1081.80 1140.06 34.40
16244 63.1838 1175.80 1140.05 36.10
16245 63.1875 1131.90 1140.05 35.20
16246 63.1913 1119.10 1140.04 35.10
16247 63.1950 1108.30 1140.04 34.70
16248 63.1988 1203.10 1140.04 36.90
16249 63.2025 1202.60 1140.03 36.00
16250 63.2063 1165.20 1140.03 35.90
16251 63.2102 1092.80 1140.03 34.80
16252 63.2138 1167.20 1140.03 35.90
16253 63.2177 1133.20 1140.02 35.30
16254 63.2214 1234.00 1140.02 36.20
16255 63.2252 1198.30 1140.02 36.60
16256 63.2289 1167.70 1140.02 36.10
16257 63.2327 1180.70 1140.03 36.40
16258 63.2365 1180.70 1140.03 36.30
16259 63.2402 1115.40 1140.03 34.30
16260 63.2439 1162.30 1140.03 36.10
16261 63.2477 1182.20 1140.04 36.30
16262 63.2514 1174.60 1140.04 36.00
16263 63.2551 1129.30 1140.05 35.20
16264 63.2589 1165.80 1140.05 35.60
16265 63.2627 1243.40 1140.06 37.20
16266 63.2664 1087.60 1140.07 34.70
16267 63.2702 1188.30 1140.08 36.40
16268 63.2739 1169.60 1140.08 36.00
16269 63.2777 1141.10 1140.09 35.30
16270 63.2814 1136.10 1140.10 35.50
16271 63.2853 1226.90 1140.12 36.90
16272 63.2891 1165.80 1140.13 36.00
16273 63.2928 1126.50 1140.14 35.30
16274 63.2966 1231.50 1140.16 37.00
16275 63.3003 1160.20 1140.17 35.70
16276 63.3041 1160.50 1140.19 36.20
16277 63.3078 1155.30 1140.20 35.90
16278 63.3116 1102.90 1140.22 35.10
16279 63.3153 1151.60 1140.24 35.60
16280 63.3190 1114.00 1140.26 35.10
16281 63.3228 1159.40 1140.32 36.20
16282 63.3265 1177.60 1140.35 35.80
16283 63.3303 1144.10 1140.37 35.50
16284 63.3340 1203.70 1140.40 36.30
16285 63.3378 1176.90 1140.42 35.20
16286 63.3416 1226.10 1140.45 36.40
16287 63.3453 1155.00 1140.48 36.80
16288 63.3492 1097.70 1140.51 34.70
16289 63.3529 1131.60 1140.54 35.20
16290 63.3567 1140.70 1140.58 35.40
16291 63.3604 1148.80 1140.61 35.30
16292 63.3642 1211.80 1140.65 36.60
16293 63.3680 1167.20 1140.69 35.90
16294 63.3717 1173.50 1140.72 36.20
16295 63.3755 1215.80 1140.77 36.80
16296 63.3792 1178.10 1140.81 35.90
16297 63.3829 1134.40 1140.85 35.20
16298 63.3867 1152.60 1140.90 35.60
16299 63.3904 1196.50 1140.95 36.40
16300 63.3942 1130.00 1141.00 35.50
16301 63.3979 1156.10 1141.05 35.60
16302 63.4017 1147.70 1141.11 36.00
16303 63.4054 1113.40 1141.16 35.00
16304 63.4092 1131.20 1141.22 35.50
16305 63.4129 1145.40 1141.28 35.70
16306 63.4168 1169.60 1141.35 35.80
16307 63.4206 1133.10 1141.41 34.70
16308 63.4243 1213.90 1141.48 37.00
16309 63.4281 1146.20 1141.55 34.60
16310 63.4318 1159.40 1141.63 36.20
16311 63.4356 1116.70 1141.70 35.30
16312 63.4393 1136.40 1141.78 35.30
16313 63.4431 1088.00 1141.87 34.00
16314 63.4468 1120.50 1141.95 35.80
16315 63.4506 1151.20 1142.04 35.80
16316 63.4543 1157.20 1142.14 35.40
16317 63.4580 1139.10 1142.23 35.00
16318 63.4618 1089.10 1142.33 34.60
16319 63.4656 1149.90 1142.44 35.70
16320 63.4693 1105.20 1142.54 35.20
16321 63.4731 1106.60 1142.65 35.30
16322 63.4768 1163.30 1142.77 36.40
16323 63.4807 1201.70 1142.89 36.80
16324 63.4843 1135.10 1143.01 35.40
16325 63.4882 1175.60 1143.14 36.50
16326 63.4920 1157.90 1143.28 36.00
16327 63.4957 1096.70 1143.42 35.10
16328 63.4995 1221.40 1143.56 36.90
16329 63.5032 1153.90 1143.71 35.90
16330 63.5070 1215.90 1143.87 36.50
16331 63.5107 1176.50 1144.03 36.30
16332 63.5145 1181.60 1144.20 36.70
16333 63.5182 1164.40 1144.37 36.00
16334 63.5219 1184.60 1144.55 36.40
16335 63.5257 1135.50 1144.74 35.50
16336 63.5294 1137.30 1144.94 35.40
16337 63.5332 1141.40 1145.14 35.40
16338 63.5369 1136.20 1145.35 35.90
16339 63.5407 1179.20 1145.58 35.70
16340 63.5446 1159.80 1145.81 36.70
16341 63.5482 1147.70 1146.05 36.00
16342 63.5521 1157.00 1146.30 36.10
16343 63.5558 1142.10 1146.55 35.80
16344 63.5596 1116.10 1146.83 34.80
16345 63.5634 1178.10 1147.11 36.50
16346 63.5671 1178.70 1147.40 36.50
16347 63.5709 1163.00 1147.71 35.50
16348 63.5746 1108.70 1148.02 35.10
16349 63.5784 1176.90 1148.36 36.00
16350 63.5821 1192.40 1148.70 36.70
16351 63.5858 1102.60 1149.07 35.50
16352 63.5896 1194.50 1149.46 36.80
16353 63.5933 1192.70 1149.85 36.60
16354 63.5971 1189.30 1150.27 36.30
16355 63.6008 1211.40 1150.69 37.00
16356 63.6046 1156.60 1151.15 36.00
16357 63.6083 1142.90 1151.62 36.10
16358 63.6121 1184.00 1152.12 36.80
16359 63.6160 1210.90 1152.65 37.10
16360 63.6197 1197.10 1153.19 36.20
16361 63.6235 1102.90 1153.77 35.40
16362 63.6272 1166.80 1154.36 36.10
16363 63.6310 1173.50 1155.00 36.80
16364 63.6348 1092.40 1155.67 35.70
16365 63.6385 1180.50 1156.36 35.90
16366 63.6423 1139.80 1157.10 35.00
16367 63.6460 1145.00 1157.87 36.20
16368 63.6497 1157.80 1158.69 35.60
16369 63.6535 1206.90 1159.54 36.10
16370 63.6572 1161.60 1160.46 35.40
16371 63.6610 1164.50 1161.43 35.30
16372 63.6647 1211.40 1162.42 36.30
16373 63.6685 1172.80 1163.51 35.90
16374 63.6722 1190.00 1164.62 36.50
16375 63.6760 1198.10 1165.84 36.00
16376 63.6797 1239.10 1167.09 37.10
16377 63.6836 1194.10 1168.46 36.20
16378 63.6874 1189.80 1169.92 36.10
16379 63.6911 1206.60 1171.42 36.40
16380 63.6949 1206.40 1173.07 35.40
16381 63.6986 1104.80 1174.77 34.90
16382 63.7024 1152.70 1176.64 35.60
16383 63.7062 1186.30 1178.64 35.40
16384 63.7099 1141.30 1180.72 35.10
16385 63.7136 1160.00 1183.01 35.60
16386 63.7174 1124.20 1185.39 35.10
16387 63.7211 1182.80 1188.03 35.60
16388 63.7248 1228.10 1190.77 36.90
16389 63.7286 1269.30 1193.81 37.70
16390 63.7324 1177.30 1197.09 36.00
16391 63.7361 1199.30 1200.53 36.50
16392 63.7399 1192.60 1204.34 35.80
16393 63.7436 1166.00 1208.35 35.90
16394 63.7475 1228.40 1212.81 37.10
16395 63.7513 1169.50 1217.65 35.90
16396 63.7550 1208.60 1222.76 36.30
16397 63.7588 1175.70 1228.46 35.70
16398 63.7625 1240.40 1234.49 37.10
16399 63.7663 1269.70 1241.23 36.50
16400 63.7700 1266.40 1248.37 37.60
16401 63.7738 1303.70 1256.35 37.70
16402 63.7775 1345.40 1265.07 38.40
16403 63.7812 1274.80 1274.30 37.30
16404 63.7850 1253.30 1284.61 37.10
16405 63.7887 1343.50 1295.54 38.20
16406 63.7925 1279.80 1307.70 37.70
16407 63.7963 1352.90 1320.88 38.50
16408 63.8000 1321.20 1334.74 38.40
16409 63.8038 1485.70 1350.01 40.60
16410 63.8075 1358.90 1365.88 38.20
16411 63.8114 1427.60 1383.16 39.90
16412 63.8150 1443.90 1400.74 40.10
16413 63.8189 1403.70 1419.45 39.40
16414 63.8227 1554.90 1438.43 40.90
16415 63.8264 1460.60 1456.84 40.30
16416 63.8302 1523.50 1475.10 41.50
16417 63.8339 1462.90 1491.70 39.80
16418 63.8377 1515.10 1506.82 40.40
16419 63.8414 1517.30 1519.31 40.00
16420 63.8451 1482.10 1528.28 40.60
16421 63.8489 1528.20 1533.73 41.30
16422 63.8526 1549.20 1535.03 40.70
16423 63.8564 1504.60 1532.19 40.60
16424 63.8601 1535.40 1525.53 40.10
16425 63.8639 1518.50 1515.05 41.00
16426 63.8677 1483.60 1501.51 40.80
16427 63.8714 1428.20 1486.01 40.10
16428 63.8753 1464.50 1468.44 40.30
16429 63.8789 1411.20 1450.33 39.50
16430 63.8828 1420.90 1431.32 39.40
16431 63.8866 1376.30 1412.36 38.90
16432 63.8903 1321.60 1394.29 38.40
16433 63.8941 1396.90 1376.45 39.20
16434 63.8978 1322.10 1359.91 37.60
16435 63.9016 1299.20 1343.93 38.00
16436 63.9053 1257.60 1329.37 37.60
16437 63.9090 1267.60 1315.44 37.20
16438 63.9128 1249.20 1302.59 37.10
16439 63.9165 1260.40 1291.02 37.30
16440 63.9203 1255.20 1280.09 37.00
16441 63.9240 1263.40 1270.29 37.80
16442 63.9278 1269.90 1261.05 36.70
16443 63.9316 1275.20 1252.55 37.60
16444 63.9353 1180.90 1244.97 35.90
16445 63.9392 1210.50 1237.80 35.90
16446 63.9428 1174.70 1231.40 36.30
16447 63.9467 1286.20 1225.33 38.10
16448 63.9505 1212.60 1219.77 36.50
16449 63.9542 1202.60 1214.76 36.10
16450 63.9580 1170.00 1210.03 35.70
16451 63.9617 1164.10 1205.76 35.80
16452 63.9655 1166.60 1201.72 35.70
16453 63.9692 1223.40 1198.07 36.80
16454 63.9729 1162.60 1194.60 35.70
16455 63.9767 1191.40 1191.38 36.10
16456 63.9804 1187.40 1188.47 35.50
16457 63.9842 1228.40 1185.68 36.40
16458 63.9879 1121.50 1183.15 35.00
16459 63.9917 1180.80 1180.74 36.00
16460 63.9955 1126.60 1178.49 35.50
16461 63.9992 1200.80 1176.43 36.50
16462 64.0031 1142.50 1174.47 35.20
16463 64.0068 1167.60 1172.67 35.80
16464 64.0106 1154.30 1170.94 35.70
16465 64.0143 1171.30 1169.37 35.30
16466 64.0181 1176.90 1167.85 35.90
16467 64.0218 1174.20 1166.43 35.60
16468 64.0256 1155.60 1165.12 35.90
16469 64.0293 1175.50 1163.87 35.80
16470 64.0331 1127.20 1162.72 35.40
16471 64.0368 1215.30 1161.61 36.50
16472 64.0406 1204.10 1160.57 36.00
16473 64.0443 1225.70 1159.63 37.30
16474 64.0481 1142.80 1158.71 35.70
16475 64.0518 1097.50 1157.88 35.00
16476 64.0556 1154.30 1157.08 35.70
16477 64.0594 1220.90 1156.33 36.80
16478 64.0631 1155.50 1155.65 35.80
16479 64.0670 1167.60 1155.01 35.90
16480 64.0707 1177.10 1154.43 36.30
16481 64.0745 1215.20 1153.88 36.80
16482 64.0782 1119.20 1153.39 35.00
16483 64.0819 1160.40 1152.93 35.60
16484 64.0857 1169.60 1152.52 36.00
16485 64.0894 1178.50 1152.17 35.60
16486 64.0932 1177.80 1151.85 36.10
16487 64.0969 1153.80 1151.59 35.10
16488 64.1008 1149.80 1151.36 35.80
16489 64.1046 1192.60 1151.19 36.50
16490 64.1083 1133.00 1151.06 35.40
16491 64.1121 1198.20 1150.98 36.90
16492 64.1158 1095.00 1150.94 35.10
16493 64.1196 1174.20 1150.94 35.70
16494 64.1234 1144.80 1150.99 35.00
16495 64.1271 1200.10 1151.06 36.00
16496 64.1309 1154.90 1151.17 35.40
16497 64.1346 1212.80 1151.28 36.60
16498 64.1384 1103.10 1151.41 34.40
16499 64.1421 1184.20 1151.52 35.00
16500 64.1459 1216.60 1151.60 37.00
16501 64.1496 1181.10 1151.63 36.20
16502 64.1534 1198.10 1151.59 35.90
16503 64.1571 1161.70 1151.48 35.50
16504 64.1609 1163.80 1151.27 35.50
16505 64.1646 1181.20 1150.96 35.80
16506 64.1684 1181.00 1150.54 36.00
16507 64.1721 1137.50 1150.05 35.40
16508 64.1759 1160.40 1149.47 35.20
16509 64.1796 1145.00 1148.84 34.80
16510 64.1834 1164.80 1148.15 35.50
16511 64.1873 1178.00 1147.43 35.70
16512 64.1909 1128.30 1146.72 35.30
16513 64.1948 1154.40 1145.98 35.20
16514 64.1985 1151.90 1145.29 35.80
16515 64.2023 1150.20 1144.59 35.40
16516 64.2060 1148.20 1143.93 35.40
16517 64.2097 1120.90 1143.29 35.00
16518 64.2135 1144.40 1142.68 35.40
16519 64.2172 1153.00 1142.12 35.30
16520 64.2210 1144.30 1141.58 35.20
16521 64.2247 1190.40 1141.08 36.30
16522 64.2286 1207.00 1140.59 36.40
16523 64.2324 1190.10 1140.14 35.80
16524 64.2361 1147.90 1139.72 35.00
16525 64.2399 1104.60 1139.32 34.80
16526 64.2436 1142.10 1138.95 34.70
16527 64.2474 1121.50 1138.59 35.80
16528 64.2512 1168.90 1138.25 36.00
16529 64.2549 1106.70 1137.93 34.40
16530 64.2587 1112.60 1137.63 34.50
16531 64.2624 1147.80 1137.35 35.40
16532 64.2662 1131.50 1137.07 35.10
16533 64.2699 1125.00 1136.81 35.00
16534 64.2737 1102.40 1136.56 34.50
16535 64.2774 1127.30 1136.32 35.00
16536 64.2812 1172.00 1136.10 36.00
16537 64.2850 1208.10 1135.88 36.60
16538 64.2887 1129.90 1135.67 34.90
16539 64.2924 1140.70 1135.47 35.30
16540 64.2962 1149.20 1135.27 35.60
16541 64.2999 1141.00 1135.09 35.30
16542 64.3037 1124.30 1134.91 34.90
16543 64.3074 1213.80 1134.74 36.30
16544 64.3112 1173.80 1134.57 35.70
16545 64.3151 1120.70 1134.41 34.90
16546 64.3187 1123.20 1134.25 35.10
16547 64.3226 1139.90 1134.10 35.40
16548 64.3263 1136.60 1133.95 34.90
16549 64.3301 1169.10 1133.80 35.90
16550 64.3338 1162.30 1133.67 35.90
16551 64.3375 1128.50 1133.53 35.20
16552 64.3413 1135.50 1133.40 34.80
16553 64.3450 1163.90 1133.27 35.60
16554 64.3488 1195.60 1133.14 36.50
16555 64.3525 1135.10 1133.02 35.30
16556 64.3564 1145.30 1132.90 35.30
16557 64.3602 1108.90 1132.78 34.40
16558 64.3639 1057.00 1132.67 33.80
16559 64.3677 1151.20 1132.55 35.30
16560 64.3714 1146.70 1132.44 35.60
16561 64.3752 1156.10 1132.34 35.30
16562 64.3790 1179.00 1132.23 35.70
16563 64.3827 1190.10 1132.13 36.00
16564 64.3865 1122.10 1132.03 34.80
16565 64.3902 1132.40 1131.93 35.10
16566 64.3940 1138.30 1131.83 35.30
16567 64.3978 1111.40 1131.73 34.60
16568 64.4015 1199.60 1131.64 36.00
16569 64.4053 1131.30 1131.55 35.10
16570 64.4090 1137.40 1131.46 35.40
16571 64.4128 1102.00 1131.37 34.50
16572 64.4165 1109.40 1131.28 34.30
16573 64.4202 1139.10 1131.19 35.00
16574 64.4240 1091.60 1131.10 34.20
16575 64.4277 1182.60 1131.02 36.10
16576 64.4315 1132.40 1130.94 35.40
16577 64.4352 1130.00 1130.86 34.90
16578 64.4390 1210.20 1130.78 36.10
16579 64.4429 1120.60 1130.70 33.90
16580 64.4465 1147.00 1130.62 36.20
16581 64.4504 1100.80 1130.54 34.00
16582 64.4541 1124.70 1130.47 34.60
16583 64.4579 1148.80 1130.39 35.10
16584 64.4616 1078.10 1130.32 34.10
16585 64.4653 1121.10 1130.24 35.00
16586 64.4691 1134.80 1130.17 35.30
16587 64.4728 1131.30 1130.10 34.90
16588 64.4766 1102.80 1130.03 34.50
16589 64.4803 1093.80 1129.96 34.70
16590 64.4842 1173.90 1129.89 35.70
16591 64.4880 1160.40 1129.82 35.00
16592 64.4917 1106.20 1129.76 34.70
16593 64.4955 1048.60 1129.69 33.90
16594 64.4992 1127.70 1129.62 34.90
16595 64.5030 1143.90 1129.56 35.50
16596 64.5068 1114.90 1129.49 35.00
16597 64.5105 1112.70 1129.43 34.60
16598 64.5143 1131.40 1129.37 35.30
16599 64.5180 1113.90 1129.30 35.00
16600 64.5218 1133.60 1129.24 34.80
16601 64.5256 1135.80 1129.18 35.40
16602 64.5293 1073.80 1129.12 33.80
16603 64.5331 1093.80 1129.06 34.80
16604 64.5367 1113.40 1129.13 34.60
16605 64.5406 1062.30 1129.07 33.80
16606 64.5443 1100.80 1129.02 34.30
16607 64.5480 1196.60 1128.96 36.90
16608 64.5518 1170.90 1128.90 35.50
16609 64.5555 1126.60 1128.85 34.80
16610 64.5593 1164.60 1128.79 35.40
16611 64.5631 1126.80 1128.74 34.80
16612 64.5668 1052.30 1128.68 34.10
16613 64.5706 1123.90 1128.63 34.80
16614 64.5743 1182.10 1128.57 35.30
16615 64.5781 1098.50 1128.52 34.80
16616 64.5819 1076.70 1128.47 34.10
16617 64.5856 1107.00 1128.42 34.80
16618 64.5894 1079.40 1128.36 34.10
16619 64.5931 1126.80 1128.31 35.00
16620 64.5969 1130.70 1128.26 35.60
16621 64.6006 1228.20 1128.21 37.00
16622 64.6044 1142.90 1128.16 35.50
16623 64.6083 1078.10 1128.11 34.30
16624 64.6120 1130.80 1128.06 35.30
16625 64.6158 1132.70 1128.01 35.20
16626 64.6195 1144.20 1127.96 35.00
16627 64.6233 1156.60 1127.91 35.50
16628 64.6271 1157.60 1127.86 35.70
16629 64.6308 1160.80 1127.81 35.90
16630 64.6346 1188.80 1127.77 36.30
16631 64.6383 1158.50 1127.72 35.60
16632 64.6421 1099.60 1127.67 34.20
16633 64.6459 1191.70 1127.62 37.20
16634 64.6495 1194.30 1127.58 35.80
16635 64.6534 1119.60 1127.53 35.30
16636 64.6570 1056.80 1127.49 33.80
16637 64.6609 1122.80 1127.44 35.00
16638 64.6645 1128.60 1127.40 35.40
16639 64.6684 1146.20 1127.35 35.70
16640 64.6721 1126.30 1127.30 35.50
16641 64.6758 1135.50 1127.26 35.60
16642 64.6796 1191.40 1127.22 36.50
16643 64.6833 1160.00 1127.17 35.90
16644 64.6871 1178.00 1125.57 36.30
16645 64.6909 1168.20 1125.54 36.10
16646 64.6946 1213.40 1125.51 36.70
16647 64.6984 1137.00 1125.48 35.40
16648 64.7021 1171.30 1125.45 36.10
16649 64.7059 1151.40 1125.42 35.90
16650 64.7097 1173.70 1125.39 36.40
16651 64.7134 1198.20 1125.36 36.40
16652 64.7172 1113.80 1125.33 35.00
16653 64.7209 1142.00 1125.30 35.70
16654 64.7247 1158.00 1125.27 36.20
16655 64.7284 1153.50 1125.24 36.00
16656 64.7322 1143.90 1125.21 35.80
16657 64.7361 1068.10 1125.18 34.50
16658 64.7398 1124.10 1125.16 35.20
16659 64.7436 1180.30 1125.13 36.00
16660 64.7473 1098.40 1125.10 35.90
16661 64.7511 1131.10 1125.07 35.50
16662 64.7549 1131.70 1125.04 35.60
16663 64.7586 1090.20 1125.01 33.70
16664 64.7623 1163.50 1124.98 35.80
16665 64.7661 1126.80 1124.95 35.10
16666 64.7698 1149.00 1124.93 36.00
16667 64.7737 1112.80 1124.90 35.00
16668 64.7773 1133.20 1124.87 35.80
16669 64.7812 1155.20 1124.84 36.00
16670 64.7848 1071.00 1124.81 34.30
16671 64.7887 1145.10 1124.78 35.90
16672 64.7924 1102.00 1124.76 35.10
16673 64.7962 1124.90 1124.73 34.40
16674 64.7999 1147.50 1124.70 35.80
16675 64.8036 1132.70 1124.67 35.10
16676 64.8074 1118.80 1124.65 35.40
16677 64.8112 1101.60 1124.62 35.50
16678 64.8149 1153.60 1124.59 35.90
16679 64.8187 1150.40 1124.56 35.90
16680 64.8224 1135.70 1124.54 35.60
16681 64.8262 1097.80 1124.51 34.80
16682 64.8299 1046.50 1124.48 34.00
16683 64.8337 1095.40 1124.45 35.00
16684 64.8375 1132.80 1124.43 35.10
16685 64.8412 1094.20 1124.40 34.40
16686 64.8450 1112.90 1124.37 35.40
16687 64.8487 1159.90 1124.35 36.60
16688 64.8525 1118.50 1124.32 35.10
16689 64.8564 1151.00 1124.29 35.80
16690 64.8600 1112.50 1124.27 35.20
16691 64.8639 1122.80 1124.24 35.30
16692 64.8676 1187.10 1124.21 36.50
16693 64.8714 1084.90 1124.19 34.80
16694 64.8751 1147.30 1124.16 35.70
16695 64.8789 1130.90 1124.14 35.40
16696 64.8826 1101.00 1124.11 34.30
16697 64.8864 1166.00 1124.08 36.50
16698 64.8901 1117.70 1124.06 35.10
16699 64.8939 1126.70 1124.03 35.60
16700 64.8976 1110.10 1124.01 34.70
16701 64.9015 1108.00 1123.98 34.70
16702 64.9051 1139.20 1123.96 35.50
16703 64.9090 1065.60 1123.93 34.70
16704 64.9126 1114.90 1123.91 35.20
16705 64.9165 1130.90 1123.88 35.30
16706 64.9202 1093.80 1123.86 35.00
16707 64.9240 1157.00 1123.84 35.70
16708 64.9277 1106.90 1123.81 35.50
16709 64.9314 1124.80 1123.79 35.10
16710 64.9352 1072.20 1123.76 34.60
16711 64.9390 1107.60 1123.74 35.50
16712 64.9427 1124.00 1123.72 34.80
16713 64.9465 1143.50 1123.69 36.20
16714 64.9502 1078.30 1123.67 34.40
16715 64.9540 1178.00 1123.65 35.90
16716 64.9577 1145.80 1123.63 35.90
16717 64.9615 1079.10 1123.60 34.60
16718 64.9653 1181.90 1123.58 36.30
16719 64.9691 1130.80 1123.56 35.60
16720 64.9728 1137.20 1123.54 35.40
16721 64.9765 1066.30 1123.52 34.20
16722 64.9803 1150.20 1123.50 36.00
16723 64.9842 1124.50 1123.47 36.10
16724 64.9878 1125.90 1123.45 35.40
16725 64.9917 1145.00 1123.43 36.10
16726 64.9954 1066.60 1123.41 34.90
16727 64.9992 1143.20 1123.39 35.70
16728 65.0029 1105.20 1123.33 35.30
16729 65.0067 1153.50 1123.32 35.50
16730 65.0104 1107.40 1123.30 35.60
16731 65.0142 1113.40 1123.28 35.70
16732 65.0179 1144.70 1123.26 36.10
16733 65.0217 1101.50 1123.25 34.90
16734 65.0254 1161.10 1123.23 36.70
16735 65.0293 1183.60 1123.21 36.50
16736 65.0329 1243.80 1123.20 37.80
16737 65.0368 1136.80 1123.18 35.60
16738 65.0404 1141.10 1123.17 35.20
16739 65.0443 1080.10 1123.15 34.30
16740 65.0480 1195.00 1123.14 37.60
16741 65.0518 1128.80 1123.12 35.80
16742 65.0555 1137.90 1123.11 35.90
16743 65.0592 1131.30 1123.10 35.70
16744 65.0630 1111.30 1123.09 34.60
16745 65.0668 1138.10 1123.08 35.50
16746 65.0705 1134.80 1123.07 35.40
16747 65.0743 1232.70 1123.06 37.60
16748 65.0780 1097.10 1123.05 35.70
16749 65.0819 1151.30 1123.04 35.40
16750 65.0855 1149.90 1123.03 35.50
16751 65.0894 1114.80 1123.03 34.90
16752 65.0931 1124.10 1123.02 34.50
16753 65.0969 1104.20 1123.02 34.40
16754 65.1006 1104.80 1123.01 34.70
16755 65.1043 1129.50 1123.01 35.00
16756 65.1081 1111.40 1123.01 34.80
16757 65.1120 1142.20 1123.01 35.10
16758 65.1156 1152.70 1123.01 35.20
16759 65.1195 1153.10 1123.01 35.30
16760 65.1232 1090.00 1123.01 34.30
16761 65.1270 1113.40 1123.02 35.00
16762 65.1307 1109.40 1123.02 34.50
16763 65.1345 1107.20 1123.03 34.70
16764 65.1382 1139.20 1123.04 34.90
16765 65.1420 1108.40 1123.05 34.20
16766 65.1457 1144.80 1123.06 35.70
16767 65.1495 1126.10 1123.08 35.20
16768 65.1532 1177.30 1123.09 35.80
16769 65.1571 1154.80 1123.11 35.40
16770 65.1608 1155.30 1123.13 35.30
16771 65.1646 1166.70 1123.16 35.70
16772 65.1683 1116.60 1123.18 35.00
16773 65.1721 1154.30 1123.21 35.40
16774 65.1758 1095.70 1123.24 34.80
16775 65.1796 1136.70 1123.28 34.90
16776 65.1833 1171.00 1123.31 35.60
16777 65.1870 1132.50 1123.36 35.30
16778 65.1908 1155.10 1123.40 35.70
16779 65.1946 1101.00 1123.45 34.70
16780 65.1983 1153.40 1123.50 35.50
16781 65.2021 1127.70 1123.56 35.00
16782 65.2058 1051.50 1123.62 33.80
16783 65.2097 1124.10 1123.69 35.30
16784 65.2133 1105.30 1123.76 34.90
16785 65.2172 1164.80 1123.84 35.20
16786 65.2209 1170.90 1123.93 35.80
16787 65.2247 1138.30 1124.02 35.20
16788 65.2284 1132.90 1124.12 34.50
16789 65.2321 1128.60 1124.23 34.70
16790 65.2359 1113.70 1124.34 34.90
16791 65.2398 1170.20 1124.47 35.50
16792 65.2434 1069.40 1124.60 33.60
16793 65.2473 1104.90 1124.75 35.50
16794 65.2510 1134.10 1124.91 35.60
16795 65.2548 1102.60 1125.08 34.60
16796 65.2585 1133.80 1125.27 34.60
16797 65.2623 1137.80 1125.47 35.00
16798 65.2661 1147.20 1125.69 35.30
16799 65.2698 1178.40 1125.92 35.70
16800 65.2736 1174.10 1126.18 35.70
16801 65.2773 1131.10 1126.46 35.30
16802 65.2811 1176.80 1126.76 36.00
16803 65.2849 1146.20 1127.10 35.50
16804 65.2886 1167.70 1127.45 35.90
16805 65.2924 1170.40 1127.84 35.90
16806 65.2961 1096.20 1128.26 34.70
16807 65.2999 1200.30 1128.73 36.10
16808 65.3036 1136.60 1129.24 35.20
16809 65.3074 1202.80 1129.78 35.80
16810 65.3111 1178.70 1130.38 35.40
16811 65.3148 1090.30 1131.03 34.40
16812 65.3186 1167.90 1131.75 35.70
16813 65.3223 1137.10 1132.51 35.00
16814 65.3261 1126.30 1133.37 35.40
16815 65.3299 1057.00 1134.30 33.20
16816 65.3336 1165.80 1135.28 35.70
16817 65.3375 1160.20 1136.37 35.50
16818 65.3411 1135.40 1137.51 35.10
16819 65.3450 1182.60 1138.78 35.80
16820 65.3486 1123.40 1140.09 35.70
16821 65.3525 1138.20 1141.51 35.00
16822 65.3562 1175.20 1143.00 35.70
16823 65.3599 1205.80 1144.49 35.90
16824 65.3637 1100.50 1146.06 34.90
16825 65.3674 1119.90 1147.57 35.00
16826 65.3712 1169.00 1149.08 35.60
16827 65.3751 1165.60 1150.49 35.80
16828 65.3788 1127.20 1151.72 35.30
16829 65.3826 1183.50 1152.78 36.10
16830 65.3863 1190.40 1153.56 36.40
16831 65.3901 1177.40 1154.07 35.90
16832 65.3939 1210.60 1154.24 36.50
16833 65.3976 1159.50 1154.07 35.40
16834 65.4014 1189.80 1153.57 36.30
16835 65.4051 1202.70 1152.78 36.30
16836 65.4089 1162.60 1151.70 35.40
16837 65.4125 1183.20 1150.44 36.10
16838 65.4164 1161.30 1148.99 35.70
16839 65.4202 1159.10 1147.43 35.50
16840 65.4239 1215.60 1145.86 36.40
16841 65.4277 1161.30 1144.24 36.00
16842 65.4314 1177.90 1142.67 35.90
16843 65.4352 1158.00 1141.11 35.50
16844 65.4389 1121.60 1140.95 35.00
16845 65.4426 1157.60 1139.57 35.00
16846 65.4464 1166.80 1138.24 35.80
16847 65.4501 1130.70 1137.03 35.60
16848 65.4539 1195.10 1135.87 35.70
16849 65.4576 1159.40 1134.82 35.30
16850 65.4614 1120.70 1133.83 34.90
16851 65.4653 1143.20 1132.90 35.40
16852 65.4689 1144.20 1132.08 35.30
16853 65.4728 1164.30 1131.29 35.70
16854 65.4764 1100.80 1130.59 35.00
16855 65.4803 1101.20 1129.92 35.00
16856 65.4839 1181.70 1129.32 35.90
16857 65.4877 1138.40 1128.75 35.00
16858 65.4915 1096.60 1128.23 34.40
16859 65.4952 1148.80 1127.76 35.20
16860 65.4990 1121.40 1127.31 35.10
16861 65.5027 1175.60 1126.90 35.70
16862 65.5066 1126.40 1126.51 35.20
16863 65.5104 1079.80 1126.15 34.60
16864 65.5141 1126.50 1125.82 35.10
16865 65.5179 1145.30 1125.51 35.40
16866 65.5216 1085.50 1125.23 34.00
16867 65.5253 1184.40 1124.96 36.30
16868 65.5291 1108.50 1124.71 34.80
16869 65.5328 1169.40 1124.47 36.30
16870 65.5367 1148.70 1124.24 35.30
16871 65.5403 1112.10 1124.04 34.50
16872 65.5442 1129.00 1123.84 34.80
16873 65.5478 1165.00 1123.66 36.50
16874 65.5517 1136.40 1123.48 35.40
16875 65.5555 1130.70 1123.32 34.90
16876 65.5592 1114.90 1123.16 35.30
16877 65.5630 1136.80 1123.02 35.10
16878 65.5667 1143.10 1122.88 35.30
16879 65.5704 1147.50 1122.75 35.30
16880 65.5742 1206.60 1122.62 36.30
16881 65.5779 1121.90 1122.50 34.90
16882 65.5817 1137.30 1122.39 35.30
16883 65.5854 1089.20 1122.28 34.00
16884 65.5892 1182.20 1122.18 35.90
16885 65.5929 1116.30 1122.09 35.00
16886 65.5967 1127.20 1121.99 35.20
16887 65.6004 1123.70 1121.91 35.10
16888 65.6042 1176.60 1121.82 36.20
16889 65.6081 1121.70 1121.74 35.10
16890 65.6117 1119.20 1121.66 35.20
16891 65.6155 1127.60 1121.59 34.80
16892 65.6193 1159.00 1121.52 35.60
16893 65.6230 1145.40 1121.45 35.50
16894 65.6268 1150.10 1121.39 35.80
16895 65.6305 1134.30 1121.33 34.90
16896 65.6344 1139.00 1121.27 35.40
16897 65.6380 1153.40 1121.22 35.70
16898 65.6419 1161.00 1121.16 35.40
16899 65.6456 1129.40 1121.11 34.40
16900 65.6494 1173.20 1121.06 36.60
16901 65.6531 1122.30 1121.02 35.10
16902 65.6569 1129.80 1120.97 34.80
16903 65.6606 1087.50 1120.93 34.70
16904 65.6644 1121.50 1120.89 34.80
16905 65.6681 1151.90 1120.85 35.40
16906 65.6719 1131.50 1120.81 35.50
16907 65.6756 1152.90 1120.78 35.70
16908 65.6795 1125.50 1120.74 35.60
16909 65.6831 1136.60 1120.71 35.60
16910 65.6870 1166.40 1120.68 36.10
16911 65.6906 1138.90 1120.65 35.80
16912 65.6945 1156.90 1120.63 35.50
16913 65.6982 1163.40 1120.60 36.00
16914 65.7020 1175.40 1120.58 36.10
16915 65.7057 1195.50 1120.55 36.50
16916 65.7094 1164.40 1120.53 36.10
16917 65.7132 1126.10 1120.51 35.10
16918 65.7169 1113.90 1120.50 35.20
16919 65.7207 1106.70 1120.48 35.30
16920 65.7245 1112.80 1120.46 35.00
16921 65.7282 1151.40 1120.45 35.90
16922 65.7321 1150.80 1120.44 35.90
16923 65.7357 1177.80 1120.42 35.60
16924 65.7396 1112.70 1120.41 35.10
16925 65.7433 1065.00 1120.40 33.90
16926 65.7471 1147.50 1120.40 36.20
16927 65.7508 1164.80 1120.39 35.30
16928 65.7545 1135.10 1120.39 35.50
16929 65.7583 1091.20 1120.38 34.70
16930 65.7620 1151.80 1120.38 35.30
16931 65.7658 1177.10 1120.38 36.40
16932 65.7695 1172.50 1120.38 36.00
16933 65.7734 1172.30 1120.38 36.00
16934 65.7772 1110.90 1120.38 35.20
16935 65.7809 1142.90 1120.39 35.70
16936 65.7847 1095.10 1120.39 35.00
16937 65.7884 1128.60 1120.40 35.20
16938 65.7922 1116.80 1120.41 35.20
16939 65.7959 1142.80 1120.42 35.40
16940 65.7997 1138.10 1120.43 35.50
16941 65.8035 1157.20 1120.45 35.50
16942 65.8072 1101.30 1120.46 35.00
16943 65.8110 1115.10 1120.48 35.40
16944 65.8147 1178.50 1120.49 36.10
16945 65.8185 1141.10 1120.51 35.00
16946 65.8223 1162.20 1120.54 35.60
16947 65.8260 1119.00 1120.56 34.50
16948 65.8298 1145.90 1120.58 35.90
16949 65.8335 1150.80 1120.61 35.70
16950 65.8372 1155.40 1120.64 35.60
16951 65.8410 1066.40 1120.67 34.00
16952 65.8447 1100.70 1120.70 34.00
16953 65.8485 1193.10 1120.73 37.00
16954 65.8522 1141.30 1120.77 35.70
16955 65.8560 1117.90 1120.81 35.00
16956 65.8597 1185.70 1120.85 36.00
16957 65.8635 1156.70 1120.89 35.60
16958 65.8672 1097.40 1120.93 34.70
16959 65.8710 1094.90 1120.98 34.90
16960 65.8748 1119.50 1121.03 34.90
16961 65.8785 1107.50 1121.08 35.30
16962 65.8823 1106.80 1121.13 35.00
16963 65.8860 1109.20 1121.19 34.70
16964 65.8898 1189.40 1121.25 35.60
16965 65.8935 1041.20 1121.31 33.20
16966 65.8973 1177.20 1121.38 36.10
16967 65.9010 1144.50 1121.44 35.20
16968 65.9048 1154.90 1121.52 35.60
16969 65.9087 1130.10 1121.59 35.20
16970 65.9124 1130.90 1121.67 35.00
16971 65.9162 1161.50 1121.75 35.30
16972 65.9199 1133.20 1121.83 35.40
16973 65.9237 1144.40 1121.92 35.10
16974 65.9275 1121.60 1122.01 35.00
16975 65.9312 1122.50 1122.10 35.00
16976 65.9350 1125.50 1122.20 35.30
16977 65.9387 1078.30 1122.31 34.40
16978 65.9425 1085.00 1122.41 33.90
16979 65.9462 1110.10 1122.52 35.20
16980 65.9499 1140.30 1122.64 35.90
16981 65.9538 1115.20 1122.77 35.10
16982 65.9574 1128.80 1122.89 35.00
16983 65.9613 1134.00 1123.02 36.00
16984 65.9649 1113.00 1123.16 35.00
16985 65.9688 1228.80 1123.30 36.50
16986 65.9724 1171.30 1123.45 35.70
16987 65.9762 1161.00 1123.61 35.90
16988 65.9800 1104.00 1123.77 34.80
16989 65.9837 1159.10 1123.94 35.70
16990 65.9875 1098.50 1124.11 34.90
16991 65.9912 1158.80 1124.29 35.60
16992 65.9950 1140.30 1124.48 35.50
16993 65.9987 1074.30 1124.68 34.20
16994 66.0026 1140.00 1124.89 35.40
16995 66.0062 1113.70 1125.10 35.00
16996 66.0101 1121.10 1125.33 35.40
16997 66.0138 1109.70 1125.56 35.10
16998 66.0176 1124.70 1125.81 35.10
16999 66.0213 1158.70 1126.06 36.00
17000 66.0250 1115.10 1126.32 34.80
17001 66.0288 1115.70 1126.60 35.10
17002 66.0325 1110.90 1126.89 35.30
17003 66.0363 1198.40 1127.20 36.50
17004 66.0402 1139.30 1127.52 35.70
17005 66.0439 1117.70 1127.84 34.70
17006 66.0477 1162.50 1128.19 36.90
17007 66.0514 1178.10 1128.55 36.80
17008 66.0552 1087.00 1128.93 34.60
17009 66.0589 1152.90 1129.32 36.10
17010 66.0627 1091.20 1129.74 34.50
17011 66.0665 1160.40 1130.18 35.90
17012 66.0702 1185.20 1130.63 36.60
17013 66.0740 1087.00 1131.11 35.50
17014 66.0777 1153.60 1131.60 36.20
17015 66.0815 1128.30 1132.13 35.90
17016 66.0852 1139.60 1132.68 35.30
17017 66.0890 1133.80 1133.26 36.10
17018 66.0927 1148.00 1133.88 36.10
17019 66.0965 1100.20 1134.51 35.40
17020 66.1002 1154.50 1135.19 35.50
17021 66.1040 1111.70 1135.89 35.60
17022 66.1077 1167.70 1136.65 35.90
17023 66.1115 1201.80 1137.43 37.00
17024 66.1152 1121.30 1138.27 35.80
17025 66.1189 1164.90 1139.13 37.00
17026 66.1227 1130.20 1140.07 35.90
17027 66.1265 1151.90 1141.07 36.80
17028 66.1302 1092.00 1142.09 35.10
17029 66.1340 1186.30 1143.21 37.20
17030 66.1377 1130.50 1144.36 35.70
17031 66.1416 1119.80 1145.61 35.70
17032 66.1452 1122.40 1146.91 35.30
17033 66.1491 1237.80 1148.32 38.80
17034 66.1528 1196.30 1149.79 37.80
17035 66.1566 1193.20 1151.39 36.50
17036 66.1603 1157.80 1153.10 36.50
17037 66.1640 1197.30 1154.88 36.60
17038 66.1678 1177.90 1156.83 36.90
17039 66.1715 1227.70 1158.86 37.10
17040 66.1753 1213.40 1161.09 37.60
17041 66.1790 1158.70 1163.42 36.20
17042 66.1829 1174.80 1165.99 37.10
17043 66.1867 1245.30 1168.75 38.10
17044 66.1904 1194.90 1171.63 37.10
17045 66.1942 1221.70 1174.83 37.40
17046 66.1979 1226.90 1178.18 37.50
17047 66.2017 1214.30 1181.90 36.70
17048 66.2054 1186.70 1185.80 36.00
17049 66.2092 1178.80 1190.14 36.50
17050 66.2130 1190.50 1194.84 37.00
17051 66.2167 1272.60 1199.80 37.70
17052 66.2205 1209.60 1205.31 37.40
17053 66.2242 1265.10 1211.13 37.70
17054 66.2280 1219.50 1217.61 37.70
17055 66.2317 1316.10 1224.47 38.60
17056 66.2355 1330.30 1232.10 39.30
17057 66.2392 1346.00 1240.16 39.20
17058 66.2430 1288.80 1249.12 38.40
17059 66.2467 1329.40 1258.83 38.40
17060 66.2505 1363.00 1269.04 40.90
17061 66.2542 1327.00 1280.19 38.90
17062 66.2579 1349.40 1291.98 39.30
17063 66.2617 1337.20 1304.90 39.00
17064 66.2654 1381.00 1318.25 39.90
17065 66.2692 1435.50 1332.65 40.60
17066 66.2729 1435.80 1347.26 40.90
17067 66.2767 1465.40 1362.66 41.50
17068 66.2806 1379.40 1378.27 39.40
17069 66.2842 1423.70 1393.20 40.50
17070 66.2881 1383.90 1408.05 40.20
17071 66.2918 1470.10 1421.46 40.90
17072 66.2956 1385.30 1433.64 39.30
17073 66.2993 1490.60 1443.50 41.30
17074 66.3030 1530.50 1451.06 41.80
17075 66.3068 1438.20 1455.56 40.80
17076 66.3105 1516.10 1456.98 42.10
17077 66.3143 1465.90 1455.09 39.90
17078 66.3180 1512.20 1450.16 42.00
17079 66.3219 1479.90 1442.19 41.10
17080 66.3255 1456.70 1432.00 40.90
17081 66.3294 1399.70 1419.52 39.40
17082 66.3331 1454.90 1405.90 41.30
17083 66.3369 1374.60 1390.95 39.40
17084 66.3406 1374.40 1375.85 40.20
17085 66.3444 1349.80 1360.24 38.90
17086 66.3481 1269.40 1344.81 38.10
17087 66.3519 1352.30 1330.19 40.00
17088 66.3557 1285.80 1315.78 38.30
17089 66.3594 1282.40 1302.47 37.70
17090 66.3632 1269.50 1289.56 37.80
17091 66.3669 1260.90 1277.82 38.10
17092 66.3707 1165.80 1266.54 36.60
17093 66.3744 1280.80 1256.37 38.80
17094 66.3782 1186.20 1246.67 36.60
17095 66.3820 1245.90 1237.72 38.20
17096 66.3857 1238.90 1229.66 37.50
17097 66.3895 1156.70 1222.03 35.90
17098 66.3932 1205.40 1215.18 37.30
17099 66.3969 1145.30 1208.68 36.00
17100 66.4007 1213.20 1202.84 37.20
17101 66.4044 1159.30 1197.31 36.80
17102 66.4081 1200.80 1192.33 37.00
17103 66.4119 1161.90 1187.60 36.80
17104 66.4157 1182.40 1183.24 36.90
17105 66.4194 1194.00 1179.29 36.40
17106 66.4232 1159.40 1175.54 36.50
17107 66.4269 1197.30 1172.14 37.40
17108 66.4307 1155.40 1168.89 36.50
17109 66.4344 1172.50 1165.96 37.00
17110 66.4382 1167.40 1163.15 36.90
17111 66.4420 1175.50 1160.59 36.60
17112 66.4457 1166.50 1158.14 35.90
17113 66.4495 1150.50 1155.85 37.20
17114 66.4532 1129.40 1153.77 36.00
17115 66.4570 1209.40 1151.76 37.30
17116 66.4607 1163.30 1149.92 36.50
17117 66.4645 1095.30 1148.15 34.80
17118 66.4682 1102.90 1146.52 35.10
17119 66.4721 1120.20 1144.95 36.10
17120 66.4758 1149.90 1143.51 35.80
17121 66.4796 1115.90 1142.11 35.60
17122 66.4833 1143.20 1140.82 35.70
17123 66.4871 1108.10 1139.58 35.30
17124 66.4909 1098.40 1138.39 35.10
17125 66.4946 1119.20 1137.30 35.70
17126 66.4984 1140.60 1136.24 36.10
17127 66.5021 1115.70 1135.26 35.20
17128 66.5059 1117.50 1134.30 35.70
17129 66.5096 1175.40 1133.41 36.60
17130 66.5134 1090.80 1132.54 35.10
17131 66.5171 1135.50 1131.73 35.90
17132 66.5209 1105.90 1130.94 35.80
17133 66.5246 1128.10 1130.19 35.50
17134 66.5284 1060.70 1129.49 34.60
17135 66.5321 1176.30 1128.80 36.40
17136 66.5359 1212.50 1128.16 37.20
17137 66.5396 1148.00 1127.52 35.80
17138 66.5434 1152.40 1126.94 35.80
17139 66.5471 1173.90 1126.36 36.00
17140 66.5508 1131.50 1125.81 36.00
17141 66.5546 1157.20 1125.28 36.20
17142 66.5583 1165.20 1124.78 35.80
17143 66.5621 1086.20 1124.29 34.50
17144 66.5659 1172.40 1123.81 35.90
17145 66.5696 1137.10 1123.37 35.70
17146 66.5735 1147.50 1122.93 34.90
17147 66.5771 1149.40 1122.51 35.60
17148 66.5810 1132.40 1122.11 35.70
17149 66.5847 1142.90 1121.72 35.90
17150 66.5885 1139.20 1121.34 35.70
17151 66.5922 1101.60 1120.98 35.10
17152 66.5959 1149.90 1120.62 35.30
17153 66.5997 1098.20 1120.29 34.50
17154 66.6034 1188.10 1119.96 36.70
17155 66.6072 1122.40 1119.63 35.50
17156 66.6109 1106.80 1119.33 35.30
17157 66.6148 1159.10 1119.03 36.10
17158 66.6184 1105.80 1118.74 34.90
17159 66.6223 1189.00 1118.46 36.60
17160 66.6260 1115.70 1118.19 35.00
17161 66.6298 1125.90 1117.92 34.90
17162 66.6335 1160.90 1117.66 36.10
17163 66.6373 1180.50 1117.41 36.30
17164 66.6410 1167.90 1117.17 36.30
17165 66.6447 1153.40 1116.93 34.80
17166 66.6486 1198.40 1116.70 37.30
17167 66.6522 1189.50 1116.48 37.10
17168 66.6561 1132.30 1116.25 35.60
17169 66.6597 1133.00 1116.04 35.20
17170 66.6636 1124.20 1115.83 35.30
17171 66.6672 1119.50 1115.63 35.30
17172 66.6711 1138.10 1115.43 35.90
17173 66.6747 1126.70 1115.24 35.30
17174 66.6786 1180.30 1115.05 36.40
17175 66.6822 1113.00 1114.87 35.10
17176 66.6861 1105.90 1114.69 35.50
17177 66.6898 1156.40 1114.51 36.10
17178 66.6936 1161.10 1114.34 36.00
17179 66.6973 1174.20 1114.17 35.40
17180 66.7010 1157.00 1114.01 35.30
17181 66.7048 1164.60 1113.84 35.80
17182 66.7085 1096.10 1113.69 35.00
17183 66.7123 1139.20 1113.53 35.80
17184 66.7160 1125.80 1113.38 35.60
17185 66.7198 1176.60 1113.23 36.30
17186 66.7235 1117.70 1113.09 35.40
17187 66.7273 1093.70 1112.94 35.30
17188 66.7310 1124.00 1112.80 35.50
17189 66.7349 1108.10 1112.66 35.40
17190 66.7385 1092.40 1112.53 34.70
17191 66.7424 1071.70 1112.40 34.70
17192 66.7461 1102.50 1112.26 34.70
17193 66.7498 1152.50 1112.14 36.20
17194 66.7536 1158.80 1112.01 36.20
17195 66.7573 1207.60 1111.89 37.00
17196 66.7611 1153.90 1111.77 35.90
17197 66.7648 1157.50 1111.65 35.80
17198 66.7686 1065.80 1111.53 34.70
17199 66.7723 1118.40 1111.41 35.30
17200 66.7762 1130.60 1111.30 34.80
17201 66.7798 1091.80 1111.19 35.40
17202 66.7837 1100.70 1111.07 34.80
17203 66.7874 1108.80 1110.97 35.20
17204 66.7912 1088.50 1110.86 34.90
17205 66.7950 1105.00 1110.75 34.50
17206 66.7987 1074.60 1110.65 34.70
17207 66.8025 1164.00 1110.54 36.00
17208 66.8062 1123.60 1110.44 35.00
17209 66.8100 1079.70 1110.34 34.60
17210 66.8137 1088.90 1110.24 35.30
17211 66.8175 1092.80 1110.14 35.00
17212 66.8212 1143.30 1110.05 35.80
17213 66.8250 1091.30 1109.95 34.70
17214 66.8287 1160.20 1109.86 36.50
17215 66.8325 1188.00 1109.76 36.40
17216 66.8362 1115.50 1109.67 35.50
17217 66.8400 1115.70 1109.58 35.30
17218 66.8437 1132.00 1109.49 35.60
17219 66.8475 1086.50 1109.40 34.50
17220 66.8512 1105.30 1109.31 35.80
17221 66.8549 1139.30 1109.22 36.00
17222 66.8587 1102.00 1109.14 35.20
17223 66.8624 1060.80 1109.05 34.30
17224 66.8662 1121.10 1108.97 35.30
17225 66.8699 1151.80 1108.88 36.20
17226 66.8737 1105.10 1108.80 34.90
17227 66.8774 1098.80 1108.72 35.20
17228 66.8812 1111.50 1108.64 35.50
17229 66.8849 1151.90 1108.56 36.20
17230 66.8888 1096.50 1108.48 35.20
17231 66.8924 1108.70 1108.40 35.50
17232 66.8963 1137.20 1108.32 36.00
17233 66.8999 1155.30 1108.24 35.90
17234 66.9038 1136.60 1108.17 35.80
17235 66.9074 1142.10 1108.09 36.00
17236 66.9112 1107.20 1108.01 35.30
17237 66.9150 1166.90 1107.94 36.00
17238 66.9187 1099.50 1107.86 34.90
17239 66.9225 1134.20 1107.79 35.10
17240 66.9262 1090.60 1110.25 35.10
17241 66.9301 1129.20 1110.20 36.20
17242 66.9337 1156.90 1110.15 36.10
17243 66.9376 1118.10 1110.10 35.30
17244 66.9413 1142.90 1110.05 36.10
17245 66.9451 1065.30 1110.01 34.20
17246 66.9488 1118.10 1109.96 35.70
17247 66.9526 1181.90 1109.91 36.40
17248 66.9563 1079.30 1109.87 35.00
17249 66.9601 1101.60 1109.82 34.70
17250 66.9638 1036.60 1109.78 34.00
17251 66.9676 1097.80 1109.73 35.10
17252 66.9713 1141.70 1109.69 36.30
17253 66.9751 1159.30 1109.65 36.70
17254 66.9788 1151.20 1109.61 35.60
17255 66.9826 1100.00 1109.57 35.50
17256 66.9844 1079.40 1109.55 35.20
17257 66.9882 1128.00 1109.51 35.50
17258 66.9919 1084.40 1109.47 35.20
17259 66.9957 1152.00 1109.43 36.30
17260 66.9994 1100.90 1109.39 35.30
17261 67.0032 1148.00 1109.35 36.20
17262 67.0069 1108.90 1109.32 35.90
17263 67.0107 1187.20 1109.28 36.60
17264 67.0144 1182.80 1109.25 36.70
17265 67.0182 1036.00 1109.21 34.10
17266 67.0219 1121.40 1109.18 35.80
17267 67.0257 1103.60 1109.15 35.20
17268 67.0294 1115.50 1109.12 35.30
17269 67.0331 1168.40 1109.09 36.00
17270 67.0369 1162.80 1109.06 36.60
17271 67.0406 1121.50 1109.03 35.70
17272 67.0444 1152.80 1109.00 35.70
17273 67.0482 1122.10 1108.97 35.20
17274 67.0519 1115.10 1108.94 35.10
17275 67.0558 1121.00 1108.91 35.50
17276 67.0594 1171.20 1108.89 35.40
17277 67.0633 1154.80 1108.86 35.80
17278 67.0670 1131.50 1108.84 35.80
17279 67.0708 1117.60 1108.81 35.50
17280 67.0745 1126.30 1108.79 35.50
17281 67.0782 1099.60 1108.77 35.10
17282 67.0819 1088.60 1108.75 34.40
17283 67.0857 1147.70 1108.73 35.40
17284 67.0895 1148.70 1108.71 36.10
17285 67.0932 1123.50 1108.69 35.60
17286 67.0971 1132.50 1108.67 35.90
17287 67.1008 1090.20 1108.65 35.00
17288 67.1046 1163.10 1108.64 35.90
17289 67.1083 1127.00 1108.62 35.70
17290 67.1121 1079.90 1108.60 34.50
17291 67.1158 1163.60 1108.59 35.60
17292 67.1196 1081.00 1108.58 34.80
17293 67.1233 1130.30 1108.56 35.60
17294 67.1270 1142.80 1108.55 35.90
17295 67.1309 1062.60 1108.54 33.40
17296 67.1345 1115.70 1108.53 36.00
17297 67.1384 1130.20 1108.52 36.20
17298 67.1420 1098.00 1108.51 35.10
17299 67.1459 1096.50 1108.51 34.70
17300 67.1495 1109.30 1108.50 35.10
17301 67.1534 1155.00 1108.50 36.00
17302 67.1570 1193.90 1108.49 37.00
17303 67.1609 1109.80 1108.49 35.10
17304 67.1645 1132.00 1108.49 35.70
17305 67.1684 1151.20 1108.49 35.80
17306 67.1720 1175.20 1108.49 36.70
17307 67.1758 1143.50 1108.49 36.00
17308 67.1796 1098.70 1108.49 35.10
17309 67.1833 1104.10 1108.49 34.40
17310 67.1871 1125.30 1107.16 34.90
17311 67.1908 1094.10 1107.17 34.80
17312 67.1946 1098.10 1107.19 35.10
17313 67.1983 1144.50 1107.21 35.90
17314 67.2021 1136.20 1107.23 35.90
17315 67.2058 1117.10 1107.25 35.40
17316 67.2097 1146.30 1107.27 36.00
17317 67.2133 1077.10 1107.30 35.10
17318 67.2141 1102.30 1107.30 34.60
17319 67.2177 1071.30 1107.32 34.00
17320 67.2215 1095.30 1107.35 34.20
17321 67.2252 1144.00 1107.38 35.10
17322 67.2290 1061.60 1107.41 34.10
17323 67.2327 1100.20 1107.44 34.40
17324 67.2365 1125.00 1107.47 35.10
17325 67.2402 1206.30 1107.50 36.40
17326 67.2440 1066.80 1107.53 33.80
17327 67.2477 1156.10 1107.57 35.90
17328 67.2515 1074.30 1107.61 34.60
17329 67.2552 1169.30 1107.64 35.70
17330 67.2590 1097.00 1107.68 34.00
17331 67.2627 1128.10 1107.72 34.60
17332 67.2666 1109.60 1107.77 35.00
17333 67.2702 1111.70 1107.81 34.60
17334 67.2741 1105.10 1107.86 34.60
17335 67.2778 1135.50 1107.91 35.40
17336 67.2816 1140.60 1107.96 35.20
17337 67.2853 1089.10 1108.01 34.50
17338 67.2890 1129.60 1108.06 35.20
17339 67.2928 1100.10 1108.12 34.90
17340 67.2965 1129.90 1108.18 35.00
17341 67.3003 1119.70 1108.24 34.90
17342 67.3040 1078.30 1108.30 34.40
17343 67.3079 1116.60 1108.37 34.90
17344 67.3115 1035.90 1108.43 33.50
17345 67.3154 1163.60 1108.51 35.70
17346 67.3191 1118.40 1108.58 35.00
17347 67.3229 1127.60 1108.65 35.00
17348 67.3266 1050.30 1108.73 34.00
17349 67.3304 1133.80 1108.81 35.00
17350 67.3342 1069.70 1108.89 34.10
17351 67.3378 1096.00 1108.98 34.30
17352 67.3417 1163.10 1109.07 35.50
17353 67.3453 1091.50 1109.16 34.00
17354 67.3492 1096.10 1109.25 35.10
17355 67.3528 1097.70 1109.35 34.80
17356 67.3567 1105.80 1109.45 34.90
17357 67.3603 1082.40 1109.56 34.30
17358 67.3642 1101.00 1109.67 33.90
17359 67.3678 1127.70 1109.78 35.30
17360 67.3717 1071.90 1109.90 33.90
17361 67.3753 1135.50 1110.01 35.10
17362 67.3792 1147.30 1110.14 35.40
17363 67.3829 1124.90 1110.27 34.90
17364 67.3867 1116.60 1110.40 35.10
17365 67.3904 1149.10 1110.54 35.60
17366 67.3941 1146.10 1110.68 35.50
17367 67.3979 1129.60 1110.83 35.30
17368 67.4016 1119.60 1110.98 34.80
17369 67.4054 1135.10 1111.13 35.20
17370 67.4091 1094.80 1111.29 34.80
17371 67.4129 1089.30 1111.46 34.50
17372 67.4166 1118.30 1111.64 34.50
17373 67.4204 1127.60 1111.82 35.10
17374 67.4241 1094.00 1112.00 34.40
17375 67.4280 1094.10 1112.19 34.50
17376 67.4318 1133.10 1112.40 34.90
17377 67.4355 1134.00 1112.60 35.60
17378 67.4392 1098.10 1112.81 34.40
17379 67.4430 1099.20 1113.03 34.30
17380 67.4467 1052.90 1113.26 33.50
17381 67.4504 1130.50 1113.49 35.80
17382 67.4542 1066.90 1113.74 34.10
17383 67.4579 1134.80 1113.99 35.10
17384 67.4617 1082.70 1114.25 33.90
17385 67.4654 1064.50 1114.52 34.00
17386 67.4693 1102.40 1114.81 34.50
17387 67.4730 1154.40 1115.09 35.50
17388 67.4768 1101.60 1115.40 35.00
17389 67.4806 1125.00 1115.71 35.20
17390 67.4843 1058.40 1116.03 33.90
17391 67.4881 1170.90 1116.37 35.90
17392 67.4918 1131.40 1116.72 35.10
17393 67.4956 1162.40 1117.09 35.90
17394 67.4993 1074.20 1117.46 34.60
17395 67.5031 1139.20 1117.85 35.30
17396 67.5068 1113.70 1118.25 34.90
17397 67.5106 1097.40 1118.67 34.40
17398 67.5143 1131.30 1119.11 35.30
17399 67.5181 1181.50 1119.56 36.30
17400 67.5219 1122.10 1120.04 35.10
17401 67.5256 1104.40 1120.53 34.50
17402 67.5294 1134.90 1121.04 35.10
17403 67.5331 1165.80 1121.57 35.80
17404 67.5368 1144.30 1122.13 35.60
17405 67.5406 1171.00 1122.69 35.40
17406 67.5443 1145.40 1123.30 34.90
17407 67.5480 1118.00 1123.92 35.80
17408 67.5518 1053.20 1124.58 34.00
17409 67.5556 1080.90 1125.26 34.20
17410 67.5593 1154.10 1125.96 34.90
17411 67.5631 1134.40 1126.71 35.10
17412 67.5668 1158.50 1127.47 36.00
17413 67.5707 1125.60 1128.29 35.30
17414 67.5743 1138.20 1129.12 35.30
17415 67.5782 1161.90 1130.01 35.90
17416 67.5819 1120.70 1130.92 35.00
17417 67.5857 1169.60 1131.90 36.10
17418 67.5894 1104.40 1132.90 34.60
17419 67.5931 1138.80 1133.97 35.40
17420 67.5969 1154.80 1135.06 35.80
17421 67.6006 1142.30 1136.24 35.70
17422 67.6044 1162.40 1137.48 35.90
17423 67.6081 1197.20 1138.75 36.30
17424 67.6120 1182.30 1140.11 36.30
17425 67.6156 1141.80 1141.51 35.20
17426 67.6195 1217.30 1143.02 36.70
17427 67.6232 1147.10 1144.57 35.50
17428 67.6270 1222.90 1146.25 36.90
17429 67.6307 1170.50 1147.97 35.60
17430 67.6345 1144.40 1149.83 35.50
17431 67.6383 1156.00 1151.81 35.40
17432 67.6420 1163.80 1153.83 35.70
17433 67.6458 1184.30 1156.04 35.30
17434 67.6495 1141.50 1158.31 36.30
17435 67.6533 1248.40 1160.78 37.30
17436 67.6570 1160.60 1163.33 35.40
17437 67.6608 1141.20 1166.12 35.00
17438 67.6644 1167.90 1168.99 35.90
17439 67.6683 1128.90 1172.14 35.30
17440 67.6721 1129.20 1175.49 35.50
17441 67.6758 1173.90 1178.97 35.70
17442 67.6796 1216.60 1182.77 37.00
17443 67.6833 1130.60 1186.73 34.90
17444 67.6870 1190.40 1191.08 36.10
17445 67.6908 1251.60 1195.61 37.50
17446 67.6945 1212.70 1200.59 36.50
17447 67.6982 1187.90 1205.79 36.20
17448 67.7020 1235.90 1211.52 37.00
17449 67.7058 1237.20 1217.69 36.90
17450 67.7095 1212.70 1224.15 36.60
17451 67.7133 1256.20 1231.29 37.30
17452 67.7170 1210.00 1238.80 36.60
17453 67.7208 1289.40 1247.12 37.50
17454 67.7245 1317.80 1255.85 38.30
17455 67.7283 1266.30 1265.56 37.80
17456 67.7321 1350.70 1275.77 38.80
17457 67.7358 1281.50 1287.11 37.90
17458 67.7396 1344.60 1299.07 38.50
17459 67.7433 1276.50 1312.36 37.50
17460 67.7471 1327.50 1326.77 37.70
17461 67.7508 1350.80 1341.91 39.70
17462 67.7546 1359.30 1358.76 38.90
17463 67.7583 1450.00 1376.45 40.10
17464 67.7622 1362.60 1395.99 39.10
17465 67.7658 1406.90 1416.45 39.50
17466 67.7697 1437.90 1438.91 40.30
17467 67.7734 1488.20 1462.23 41.00
17468 67.7772 1538.80 1487.54 41.70
17469 67.7810 1445.10 1514.14 40.00
17470 67.7847 1546.90 1541.11 41.50
17471 67.7885 1529.60 1569.51 41.70
17472 67.7922 1503.90 1597.50 40.90
17473 67.7960 1695.30 1625.97 43.80
17474 67.7997 1643.20 1652.82 43.20
17475 67.8035 1732.30 1678.63 44.00
17476 67.8072 1638.70 1701.23 43.00
17477 67.8110 1751.50 1722.48 44.80
17478 67.8147 1756.70 1737.72 44.50
17479 67.8185 1666.80 1747.59 43.30
17480 67.8222 1763.10 1752.08 44.50
17481 67.8260 1775.70 1750.74 44.60
17482 67.8297 1702.90 1743.57 43.90
17483 67.8335 1641.80 1731.30 43.00
17484 67.8372 1613.80 1713.87 43.00
17485 67.8410 1615.00 1692.40 42.70
17486 67.8447 1614.00 1668.45 41.80
17487 67.8485 1579.30 1641.68 42.60
17488 67.8522 1483.50 1614.25 41.50
17489 67.8560 1521.60 1585.52 41.90
17490 67.8597 1495.90 1557.53 40.60
17491 67.8635 1497.40 1529.35 40.80
17492 67.8672 1416.60 1502.76 39.90
17493 67.8711 1447.90 1476.59 40.00
17494 67.8748 1330.10 1452.44 38.50
17495 67.8786 1302.90 1429.09 38.00
17496 67.8823 1299.20 1407.23 38.20
17497 67.8860 1279.70 1387.34 38.10
17498 67.8898 1262.00 1368.37 37.60
17499 67.8935 1269.10 1351.20 37.50
17500 67.8973 1246.80 1334.89 37.60
17501 67.9010 1277.60 1320.18 37.70
17502 67.9048 1230.30 1306.22 37.10
17503 67.9087 1197.80 1293.30 36.60
17504 67.9124 1212.70 1281.71 36.60
17505 67.9162 1209.70 1270.67 37.00
17506 67.9199 1170.20 1260.75 36.20
17507 67.9237 1221.70 1251.29 36.60
17508 67.9274 1228.10 1242.79 37.40
17509 67.9312 1185.80 1234.67 36.30
17510 67.9350 1159.70 1227.16 35.70
17511 67.9387 1194.60 1220.35 36.90
17512 67.9425 1156.80 1213.86 35.70
17513 67.9462 1216.30 1207.97 35.70
17514 67.9500 1191.60 1202.35 37.20
17515 67.9537 1122.10 1197.23 35.80
17516 67.9575 1111.20 1192.32 34.90
17517 67.9612 1099.60 1187.85 34.50
17518 67.9650 1129.30 1183.56 35.20
17519 67.9688 1178.80 1179.54 36.30
17520 67.9725 1165.90 1175.86 35.90
17521 67.9762 1098.40 1172.32 34.80
17522 67.9799 1174.60 1169.07 36.50
17523 67.9837 1155.80 1165.94 35.70
17524 67.9874 1134.40 1163.06 35.70
17525 67.9912 1123.30 1160.28 35.30
17526 67.9950 1144.40 1157.65 36.00
17527 67.9987 1130.40 1155.23 35.70
17528 68.0026 1102.20 1152.88 35.40
17529 68.0062 1151.40 1150.72 36.10
17530 68.0101 1131.60 1148.61 35.60
17531 68.0138 1141.60 1146.67 35.80
17532 68.0176 1211.70 1144.77 37.10
17533 68.0213 1102.10 1143.02 35.10
17534 68.0250 1119.40 1141.31 35.60
17535 68.0288 1086.90 1139.68 34.90
17536 68.0325 1121.50 1138.18 35.50
17537 68.0363 1072.60 1136.70 34.50
17538 68.0400 1117.70 1135.33 35.70
17539 68.0439 1129.50 1133.99 35.10
17540 68.0475 1087.70 1132.74 34.40
17541 68.0514 1121.20 1131.52 36.00
17542 68.0552 1116.60 1130.35 35.50
17543 68.0589 1128.20 1129.26 35.40
17544 68.0626 1143.50 1128.20 35.40
17545 68.0664 1108.90 1127.20 35.40
17546 68.0702 1076.50 1126.22 34.60
17547 68.0739 1088.70 1125.30 35.10
17548 68.0777 1085.40 1124.40 35.30
17549 68.0815 1125.20 1123.53 35.70
17550 68.0852 1124.70 1122.73 35.30
17551 68.0890 1151.70 1121.93 35.90
17552 68.0927 1191.70 1121.18 36.50
17553 68.0965 1080.80 1120.45 35.00
17554 68.1002 1154.40 1119.76 36.30
17555 68.1040 1118.80 1119.14 35.60
17556 68.1077 1113.70 1118.49 35.50
17557 68.1115 1121.30 1117.87 35.80
17558 68.1152 1087.20 1117.27 34.90
17559 68.1189 1100.40 1116.70 34.80
17560 68.1227 1104.00 1116.13 35.20
17561 68.1264 1119.50 1115.60 35.50
17562 68.1302 1108.80 1115.08 35.40
17563 68.1340 1073.90 1114.58 34.60
17564 68.1377 1146.50 1114.10 36.00
17565 68.1416 1078.20 1113.63 35.00
17566 68.1452 1092.70 1113.19 34.90
17567 68.1491 1141.90 1112.75 36.00
17568 68.1527 1136.10 1112.34 36.40
17569 68.1566 1074.10 1111.93 34.60
17570 68.1602 1105.80 1111.55 34.70
17571 68.1640 1129.90 1111.17 35.20
17572 68.1678 1099.10 1110.80 35.30
17573 68.1715 1167.20 1110.46 36.10
17574 68.1753 1084.60 1110.12 35.10
17575 68.1790 1095.50 1109.80 34.60
17576 68.1829 1182.70 1109.48 36.10
17577 68.1865 1096.10 1109.18 34.80
17578 68.1904 1082.20 1108.88 34.20
17579 68.1942 1132.30 1108.59 35.20
17580 68.1979 1120.30 1108.32 35.50
17581 68.2017 1185.20 1108.06 36.50
17582 68.2054 1120.10 1107.81 35.20
17583 68.2092 1152.90 1107.56 36.00
17584 68.2130 1142.10 1107.32 35.70
17585 68.2166 1131.10 1107.09 35.60
17586 68.2205 1139.00 1106.87 35.30
17587 68.2241 1138.10 1106.66 35.50
17588 68.2280 1172.20 1106.46 36.40
17589 68.2316 1106.20 1106.27 35.20
17590 68.2355 1094.40 1106.07 34.90
17591 68.2393 1094.60 1105.89 35.20
17592 68.2430 1063.70 1105.72 34.20
17593 68.2467 1149.20 1105.56 35.30
17594 68.2505 1104.80 1105.40 35.60
17595 68.2542 1114.50 1105.25 35.20
17596 68.2579 1113.20 1105.10 34.90
17597 68.2617 1013.10 1104.97 33.30
17598 68.2655 1058.00 1104.83 34.20
17599 68.2692 1137.50 1104.71 36.10
17600 68.2730 1058.40 1104.59 34.00
17601 68.2767 1117.40 1104.48 35.60
17602 68.2805 1135.10 1104.38 35.40
17603 68.2842 1095.90 1104.28 35.00
17604 68.2880 1077.90 1104.19 34.90
17605 68.2918 1069.00 1104.11 34.30
17606 68.2955 1099.20 1104.03 34.40
17607 68.2993 1145.60 1103.96 35.80
17608 68.3030 1090.40 1103.89 35.00
17609 68.3068 1127.10 1103.83 35.40
17610 68.3105 1095.40 1103.78 35.10
17611 68.3143 1198.10 1103.74 36.50
17612 68.3182 1124.70 1103.70 35.60
17613 68.3219 1170.30 1103.67 35.80
17614 68.3257 1116.30 1103.64 35.40
17615 68.3294 1078.70 1103.63 34.70
17616 68.3332 1126.90 1103.61 35.30
17617 68.3369 1109.60 1103.61 35.20
17618 68.3407 1111.90 1103.61 35.00
17619 68.3444 1040.40 1103.62 33.90
17620 68.3482 1076.00 1103.64 33.40
17621 68.3519 1112.90 1103.67 35.90
17622 68.3557 1089.60 1103.70 35.20
17623 68.3594 1140.60 1103.74 35.50
17624 68.3632 1114.00 1103.79 35.00
17625 68.3669 1069.50 1103.84 34.20
17626 68.3708 1132.20 1103.91 35.10
17627 68.3744 1136.30 1103.98 35.20
17628 68.3783 1089.50 1104.06 35.10
17629 68.3819 1129.20 1104.15 35.40
17630 68.3857 1127.70 1104.25 35.20
17631 68.3895 1066.40 1104.37 33.70
17632 68.3932 1030.60 1104.48 34.00
17633 68.3970 1094.70 1104.62 35.40
17634 68.4007 1111.60 1104.76 35.00
17635 68.4045 1083.60 1104.91 35.00
17636 68.4082 1075.50 1105.07 34.70
17637 68.4120 1141.10 1105.25 35.60
17638 68.4158 1069.60 1105.44 34.80
17639 68.4196 1076.80 1105.63 34.80
17640 68.4234 1053.40 1105.85 34.20
17641 68.4271 1119.70 1106.07 35.10
17642 68.4308 1092.80 1106.31 35.10
17643 68.4346 1119.70 1106.57 35.60
17644 68.4383 1073.40 1106.84 34.50
17645 68.4421 1086.20 1107.13 34.90
17646 68.4458 1073.30 1107.43 34.10
17647 68.4497 1119.00 1107.76 35.30
17648 68.4533 1113.70 1108.09 35.60
17649 68.4572 1149.40 1108.46 35.90
17650 68.4609 1084.00 1108.83 34.60
17651 68.4647 1055.90 1109.24 34.00
17652 68.4685 1090.70 1109.67 34.50
17653 68.4722 1081.10 1110.11 34.60
17654 68.4760 1066.50 1110.59 35.00
17655 68.4797 1158.30 1111.08 36.20
17656 68.4835 1093.50 1111.62 35.00
17657 68.4872 1132.80 1112.18 35.70
17658 68.4910 1066.90 1112.76 34.60
17659 68.4947 1086.60 1113.39 35.00
17660 68.4985 1159.90 1114.03 36.20
17661 68.5023 1119.00 1114.73 35.70
17662 68.5060 1111.20 1115.45 35.20
17663 68.5098 1083.20 1116.24 34.50
17664 68.5135 1092.10 1117.06 35.50
17665 68.5173 1141.60 1117.91 36.00
17666 68.5210 1086.70 1118.84 34.70
17667 68.5247 1068.80 1119.79 34.30
17668 68.5285 1155.10 1120.83 36.30
17669 68.5323 1150.90 1121.92 36.00
17670 68.5360 1097.30 1123.05 35.30
17671 68.5398 1116.30 1124.28 35.40
17672 68.5435 1128.90 1125.56 36.00
17673 68.5474 1108.00 1126.95 34.50
17674 68.5510 1090.10 1128.38 36.00
17675 68.5549 1120.10 1129.95 35.80
17676 68.5586 1111.30 1131.62 35.20
17677 68.5623 1150.60 1133.34 36.10
17678 68.5661 1097.90 1135.23 35.10
17679 68.5698 1200.40 1137.19 36.90
17680 68.5736 1113.80 1139.35 35.40
17681 68.5773 1169.20 1141.58 36.10
17682 68.5811 1136.60 1144.03 35.80
17683 68.5850 1137.00 1146.66 35.80
17684 68.5887 1064.70 1149.40 34.70
17685 68.5925 1149.40 1152.41 35.90
17686 68.5962 1162.20 1155.57 36.50
17687 68.6000 1169.10 1159.04 36.10
17688 68.6038 1144.70 1162.77 35.90
17689 68.6075 1152.90 1166.68 36.30
17690 68.6113 1167.40 1171.01 36.50
17691 68.6150 1222.80 1175.55 37.10
17692 68.6188 1173.00 1180.58 36.40
17693 68.6226 1198.50 1186.02 36.90
17694 68.6263 1203.80 1191.72 36.70
17695 68.6301 1226.00 1198.07 37.20
17696 68.6338 1108.10 1204.74 35.80
17697 68.6376 1209.50 1212.17 36.60
17698 68.6412 1236.00 1219.97 37.10
17699 68.6451 1201.00 1228.65 36.70
17700 68.6488 1248.30 1238.03 36.70
17701 68.6525 1217.80 1247.90 37.50
17702 68.6563 1321.80 1258.82 37.80
17703 68.6600 1344.70 1270.29 38.70
17704 68.6638 1240.10 1282.91 36.90
17705 68.6676 1337.20 1296.44 38.30
17706 68.6713 1292.10 1310.49 37.40
17707 68.6751 1406.80 1325.80 40.00
17708 68.6788 1326.00 1341.44 38.80
17709 68.6826 1375.50 1358.23 39.40
17710 68.6864 1275.50 1375.09 38.30
17711 68.6901 1412.20 1392.67 40.10
17712 68.6939 1377.40 1410.27 39.30
17713 68.6976 1347.20 1426.98 38.90
17714 68.7014 1396.90 1443.34 39.90
17715 68.7051 1405.30 1457.91 39.30
17716 68.7089 1465.30 1471.01 41.10
17717 68.7128 1504.30 1481.63 41.30
17718 68.7165 1426.40 1489.15 40.20
17719 68.7203 1399.80 1493.58 40.10
17720 68.7240 1520.70 1491.95 41.20
17721 68.7278 1406.90 1489.36 39.60
17722 68.7315 1418.80 1483.50 39.50
17723 68.7353 1531.20 1474.37 42.00
17724 68.7391 1424.80 1462.49 40.20
17725 68.7428 1369.20 1448.77 39.10
17726 68.7466 1383.40 1433.03 38.70
17727 68.7503 1409.40 1416.59 39.80
17728 68.7540 1315.70 1399.08 38.90
17729 68.7579 1362.20 1381.32 39.10
17730 68.7615 1292.60 1364.20 37.60
17731 68.7654 1245.70 1346.97 36.90
17732 68.7690 1203.50 1330.83 36.40
17733 68.7729 1250.80 1314.95 37.60
17734 68.7766 1223.40 1299.94 36.90
17735 68.7803 1275.20 1286.16 36.90
17736 68.7841 1228.60 1272.92 37.10
17737 68.7878 1190.70 1260.86 36.10
17738 68.7916 1171.30 1249.36 36.10
17739 68.7953 1149.30 1238.94 35.70
17740 68.7991 1143.90 1229.03 35.90
17741 68.8029 1222.80 1219.85 35.90
17742 68.8066 1195.40 1211.59 36.60
17743 68.8104 1141.20 1203.72 35.80
17744 68.8142 1148.00 1196.63 35.60
17745 68.8179 1187.40 1189.89 36.40
17746 68.8217 1142.90 1183.82 35.90
17747 68.8254 1159.70 1178.04 35.90
17748 68.8292 1131.90 1172.68 34.70
17749 68.8329 1086.80 1167.85 34.30
17750 68.8367 1115.80 1163.23 35.40
17751 68.8404 1111.90 1159.06 35.00
17752 68.8443 1110.70 1155.07 34.70
17753 68.8481 1127.90 1151.36 34.60
17754 68.8518 1120.90 1148.00 35.90
17755 68.8556 1095.20 1144.77 34.80
17756 68.8593 1105.50 1141.85 34.40
17757 68.8631 1053.10 1139.04 34.10
17758 68.8668 1143.30 1136.42 35.30
17759 68.8706 1110.10 1134.03 34.80
17760 68.8743 1151.70 1131.73 35.80
17761 68.8781 1130.70 1129.64 35.40
17762 68.8818 1020.00 1127.63 33.80
17763 68.8857 1131.70 1125.74 35.50
17764 68.8893 1066.30 1124.03 34.50
17765 68.8932 1114.40 1122.38 34.80
17766 68.8968 1167.00 1120.87 36.20
17767 68.9007 1117.80 1119.42 35.30
17768 68.9043 1040.50 1118.10 34.20
17769 68.9081 1136.80 1116.84 35.40
17770 68.9119 1080.10 1115.66 35.20
17771 68.9156 1070.20 1114.59 34.90
17772 68.9194 1071.60 1113.57 34.60
17773 68.9231 1077.90 1112.65 34.40
17774 68.9269 1048.70 1111.78 34.20
17775 68.9307 1120.80 1110.99 35.50
17776 68.9344 1055.90 1110.28 34.20
17777 68.9382 1040.00 1109.62 33.70
17778 68.9420 1093.90 1109.04 35.20
17779 68.9457 1130.80 1108.52 34.90
17780 68.9495 1095.00 1108.08 34.30
17781 68.9532 1084.90 1107.69 35.50
17782 68.9570 1081.90 1107.36 34.00
17783 68.9607 1044.10 1107.11 34.20
17784 68.9645 1093.60 1106.92 34.70
17785 68.9682 1108.80 1106.80 34.70
17786 68.9721 1127.50 1106.73 34.60
17787 68.9759 1145.70 1106.72 35.90
17788 68.9796 1066.90 1106.77 34.40
17789 68.9834 1068.10 1106.86 34.90
17790 68.9871 1080.30 1106.99 34.60
17791 68.9909 1066.40 1107.15 34.30
17792 68.9946 1062.90 1107.31 34.40
17793 68.9984 1110.30 1107.47 35.60
17794 69.0021 1116.00 1107.60 35.20
17795 69.0059 1096.90 1107.67 35.10
17796 69.0096 1004.20 1107.68 33.70
17797 69.0135 1122.60 1107.59 35.20
17798 69.0171 1124.90 1107.40 35.90
17799 69.0210 1060.90 1107.08 34.40
17800 69.0246 1062.10 1106.64 34.50
17801 69.0285 1062.80 1106.05 34.30
17802 69.0322 1057.80 1105.35 34.60
17803 69.0359 1100.60 1104.56 35.30
17804 69.0397 1051.70 1103.66 34.30
17805 69.0434 1081.70 1102.72 34.80
17806 69.0472 1028.90 1101.70 33.30
17807 69.0509 1169.30 1100.69 36.80
17808 69.0547 1096.70 1099.64 35.20
17809 69.0585 1037.50 1098.60 34.20
17810 69.0623 1074.90 1097.60 34.50
17811 69.0660 1064.80 1096.61 34.40
17812 69.0698 1013.50 1095.68 33.60
17813 69.0735 1090.30 1094.75 35.10
17814 69.0773 1121.60 1093.88 35.30
17815 69.0810 1071.80 1093.06 34.30
17816 69.0848 1092.40 1092.27 35.00
17817 69.0885 1039.10 1091.53 34.50
17818 69.0923 1118.10 1090.82 35.40
17819 69.0962 1121.20 1090.14 35.30
17820 69.0999 1086.30 1089.52 35.10
17821 69.1037 1120.00 1088.91 35.20
17822 69.1074 1072.60 1088.35 34.40
17823 69.1112 1008.90 1087.81 33.70
17824 69.1149 1068.10 1087.30 34.70
17825 69.1187 1124.70 1086.81 35.00
17826 69.1224 1084.40 1086.34 34.30
17827 69.1262 1063.40 1085.91 33.70
17828 69.1299 1033.60 1085.48 33.70
17829 69.1337 1068.40 1085.09 33.90
17830 69.1374 1025.20 1084.70 33.20
17831 69.1413 1076.50 1084.32 34.10
17832 69.1450 1083.70 1083.97 34.10
17833 69.1488 1125.70 1083.63 34.90
17834 69.1525 1054.20 1083.31 34.00
17835 69.1562 1081.70 1082.99 34.70
17836 69.1600 1089.60 1082.68 34.20
17837 69.1637 1103.90 1082.39 34.30
17838 69.1675 1040.90 1082.10 33.70
17839 69.1712 1106.60 1081.83 34.80
17840 69.1750 1110.50 1081.56 35.10
17841 69.1788 1111.50 1081.30 35.00
17842 69.1825 1060.90 1081.05 33.90
17843 69.1864 1070.40 1080.80 34.10
17844 69.1901 1058.50 1080.57 34.30
17845 69.1939 1089.00 1080.34 34.80
17846 69.1976 999.90 1080.11 33.00
17847 69.2013 1017.50 1079.89 33.20
17848 69.2051 1071.90 1079.67 34.70
17849 69.2088 1124.60 1079.47 35.20
17850 69.2126 1069.40 1079.26 34.40
17851 69.2163 1082.10 1079.06 34.70
17852 69.2202 1097.40 1078.86 35.10
17853 69.2240 1044.70 1078.67 33.40
17854 69.2277 1063.50 1078.48 33.90
17855 69.2315 1091.50 1078.30 34.90
17856 69.2352 1078.70 1078.12 34.20
17857 69.2390 1117.90 1077.94 35.10
17858 69.2427 1111.00 1077.76 34.90
17859 69.2465 1078.00 1077.59 34.20
17860 69.2502 1075.50 1077.42 33.80
17861 69.2540 1098.10 1077.26 35.40
17862 69.2578 1114.70 1077.09 34.70
17863 69.2616 1070.50 1076.93 33.80
17864 69.2653 1054.40 1076.77 33.90
17865 69.2691 1095.40 1076.61 34.80
17866 69.2728 1013.20 1076.63 33.40
17867 69.2766 1039.20 1076.47 33.90
17868 69.2803 1029.40 1076.32 33.80
17869 69.2840 1109.60 1076.18 34.50
17870 69.2878 1082.30 1076.03 34.60
17871 69.2915 1037.30 1075.89 33.00
17872 69.2953 1067.90 1075.75 34.10
17873 69.2991 1062.90 1075.61 34.30
17874 69.3028 1029.70 1075.47 33.40
17875 69.3066 1106.60 1075.33 35.10
17876 69.3103 1096.20 1075.20 34.90
17877 69.3142 1034.00 1075.07 33.70
17878 69.3179 1040.50 1074.94 34.20
17879 69.3217 1108.60 1074.80 34.90
17880 69.3254 1065.90 1074.67 34.10
17881 69.3291 1113.70 1074.55 35.30
17882 69.3329 1091.20 1074.42 34.40
17883 69.3366 1053.70 1074.29 34.10
17884 69.3404 1020.20 1074.17 33.80
17885 69.3443 1062.30 1074.04 33.90
17886 69.3480 1086.40 1073.92 34.10
17887 69.3518 1097.70 1073.80 35.40
17888 69.3555 1023.60 1073.68 33.70
17889 69.3593 1059.60 1073.56 34.50
17890 69.3630 1071.30 1073.44 34.30
17891 69.3668 1029.90 1073.33 33.60
17892 69.3706 1031.50 1073.21 33.60
17893 69.3743 1048.20 1073.10 33.60
17894 69.3781 1117.30 1072.98 35.00
17895 69.3819 1114.60 1072.87 35.20
17896 69.3856 1024.10 1072.76 33.30
17897 69.3894 1087.50 1072.64 34.80
17898 69.3931 1038.60 1072.53 34.00
17899 69.3969 1069.10 1072.42 34.60
17900 69.4007 1066.60 1072.31 34.50
17901 69.4044 1078.00 1072.20 34.50
17902 69.4081 1034.40 1072.09 33.90
17903 69.4118 1059.70 1071.99 34.10
17904 69.4156 1046.00 1071.88 34.30
17905 69.4194 996.50 1071.77 33.30
17906 69.4231 1033.20 1071.67 34.00
17907 69.4269 1094.80 1071.56 34.30
17908 69.4306 1075.40 1071.46 34.60
17909 69.4344 1054.50 1071.35 33.90
17910 69.4381 1080.40 1071.25 34.50
17911 69.4420 1101.20 1071.14 34.40
17912 69.4458 1042.80 1071.04 34.00
17913 69.4495 1004.70 1070.94 32.80
17914 69.4532 1037.70 1070.84 35.00
17915 69.4569 1108.80 1070.74 35.30
17916 69.4607 1067.90 1070.64 33.90
17917 69.4645 1100.30 1070.53 34.20
17918 69.4682 1087.50 1070.44 34.70
17919 69.4721 1075.40 1070.34 34.40
17920 69.4758 1006.30 1070.24 33.70
17921 69.4796 1070.10 1070.14 34.60
17922 69.4834 1082.10 1070.04 34.60
17923 69.4871 1087.00 1069.95 34.60
17924 69.4909 1048.40 1069.85 34.00
17925 69.4946 1015.50 1069.75 33.60
17926 69.4984 1055.90 1069.65 34.20
17927 69.5022 981.40 1069.56 33.30
17928 69.5059 986.80 1069.46 32.90
17929 69.5097 1066.00 1069.37 34.80
17930 69.5134 1031.60 1069.27 33.70
17931 69.5172 996.40 1069.18 33.30
17932 69.5210 1031.50 1069.08 33.80
17933 69.5247 1043.40 1068.99 33.60
17934 69.5285 1020.60 1068.90 33.70
17935 69.5322 1057.80 1068.81 34.40
17936 69.5359 1120.70 1068.71 35.50
17937 69.5397 1090.80 1068.62 34.90
17938 69.5434 1058.10 1068.53 34.00
17939 69.5472 1057.10 1068.43 33.90
17940 69.5509 1145.00 1068.34 36.00
17941 69.5547 1102.90 1068.25 35.00
17942 69.5586 1100.40 1068.16 35.00
17943 69.5623 1092.10 1068.07 34.70
17944 69.5661 1030.00 1067.98 34.20
17945 69.5698 1048.20 1067.89 34.10
17946 69.5735 969.50 1067.80 32.80
17947 69.5773 1068.30 1067.71 34.90
17948 69.5810 1008.80 1067.62 33.50
17949 69.5848 1065.10 1067.53 34.20
17950 69.5885 1052.20 1067.44 34.40
17951 69.5923 1112.90 1067.36 35.30
17952 69.5960 1057.70 1067.27 34.70
17953 69.5999 1099.00 1067.18 35.20
17954 69.6037 1060.90 1067.09 33.90
17955 69.6074 1079.40 1067.01 33.80
17956 69.6112 1058.20 1066.92 33.80
17957 69.6149 1082.80 1066.83 34.50
17958 69.6187 1087.00 1066.74 34.40
17959 69.6225 1158.80 1066.66 35.50
17960 69.6262 1071.60 1066.57 34.20
17961 69.6300 1081.60 1066.48 34.60
17962 69.6337 1009.80 1066.40 33.10
17963 69.6375 1053.50 1066.31 33.70
17964 69.6413 1032.90 1064.64 33.50
17965 69.6450 1048.20 1064.57 33.60
17966 69.6488 1028.20 1064.50 33.00
17967 69.6525 1070.00 1064.43 35.10
17968 69.6563 1043.80 1064.35 33.80
17969 69.6600 1035.40 1064.28 33.60
17970 69.6637 1051.50 1064.21 33.50
17971 69.6675 1073.00 1064.14 34.20
17972 69.6712 1082.70 1064.07 34.50
17973 69.6750 1082.30 1063.99 34.40
17974 69.6788 1052.10 1063.92 34.20
17975 69.6825 1072.80 1063.85 34.40
17976 69.6864 1047.50 1063.78 34.00
17977 69.6901 1077.90 1063.71 34.40
17978 69.6939 1084.50 1063.64 34.30
17979 69.6976 1114.30 1063.57 35.20
17980 69.7013 1007.40 1063.50 32.90
17981 69.7051 1057.50 1063.43 33.90
17982 69.7088 1042.10 1063.36 34.10
17983 69.7126 1063.20 1063.29 33.70
17984 69.7163 1044.20 1063.22 33.90
17985 69.7202 1053.40 1063.15 33.80
17986 69.7240 1049.50 1063.08 33.70
17987 69.7277 1045.70 1063.01 33.70
17988 69.7315 1083.50 1062.94 34.20
17989 69.7352 1017.50 1062.87 33.10
17990 69.7390 1079.50 1062.80 34.40
17991 69.7428 1027.20 1062.73 33.30
17992 69.7465 1028.90 1062.67 33.10
17993 69.7503 1075.50 1062.60 34.10
17994 69.7540 1051.20 1062.53 34.60
17995 69.7578 1095.70 1062.46 34.60
17996 69.7616 1063.20 1062.39 33.90
17997 69.7653 1026.80 1062.33 33.40
17998 69.7691 992.40 1062.26 33.00
17999 69.7728 1054.60 1062.19 33.80
18000 69.7766 1007.60 1062.13 33.30
18001 69.7803 1027.80 1062.06 33.70
18002 69.7840 1003.00 1061.99 33.20
18003 69.7878 1020.90 1061.93 33.50
18004 69.7915 1075.80 1061.86 34.50
18005 69.7953 1069.80 1061.80 34.00
18006 69.7991 1069.90 1061.73 34.20
18007 69.8028 1082.90 1061.67 34.40
18008 69.8066 1040.60 1061.61 33.80
18009 69.8103 1018.50 1061.54 33.50
18010 69.8142 1019.70 1061.48 33.60
18011 69.8179 1040.80 1061.42 33.60
18012 69.8217 1066.40 1061.35 34.30
18013 69.8254 1094.30 1061.29 34.70
18014 69.8291 1022.10 1061.23 33.40
18015 69.8329 1025.60 1061.17 33.50
18016 69.8366 1085.10 1061.11 34.10
18017 69.8404 1064.70 1061.05 34.00
18018 69.8443 1060.70 1060.99 34.10
18019 69.8480 1045.00 1060.93 33.00
18020 69.8518 1022.50 1060.87 33.50
18021 69.8555 1053.60 1060.82 34.00
18022 69.8593 1000.80 1060.76 33.00
18023 69.8631 1019.70 1060.70 33.40
18024 69.8668 965.00 1060.65 32.30
18025 69.8706 1017.70 1060.59 33.10
18026 69.8743 1072.10 1060.54 34.20
18027 69.8781 1047.80 1060.49 33.70
18028 69.8819 1018.90 1060.44 33.70
18029 69.8856 1041.00 1060.39 34.10
18030 69.8894 1059.00 1060.33 34.40
18031 69.8931 1056.10 1060.29 34.10
18032 69.8969 1048.30 1060.24 33.90
18033 69.9007 1014.80 1060.19 33.40
18034 69.9044 1055.20 1060.15 34.20
18035 69.9081 1014.40 1060.10 33.70
18036 69.9118 1050.10 1060.06 34.20
18037 69.9156 1088.10 1060.02 34.60
18038 69.9194 1016.30 1059.97 33.60
18039 69.9231 1029.30 1059.94 33.80
18040 69.9269 1017.90 1059.90 33.20
18041 69.9306 997.00 1059.86 33.30
18042 69.9344 992.50 1059.83 32.70
18043 69.9381 1076.20 1059.80 34.70
18044 69.9420 1013.90 1059.77 33.50
18045 69.9458 1022.00 1059.67 32.90
18046 69.9495 977.50 1059.65 32.40
18047 69.9532 1055.60 1059.62 34.80
18048 69.9569 1054.90 1059.60 34.30
18049 69.9607 1039.00 1059.58 33.50
18050 69.9645 1060.20 1059.57 33.90
18051 69.9682 977.00 1059.55 32.50
18052 69.9721 1072.00 1059.54 34.40
18053 69.9758 1058.00 1059.54 34.20
18054 69.9796 1038.20 1059.53 33.70
18055 69.9834 1102.20 1059.53 34.70
18056 69.9871 996.30 1059.53 33.20
18057 69.9909 1038.70 1059.54 34.00
18058 69.9946 1086.40 1059.55 34.50
18059 69.9984 1064.70 1059.57 34.20
18060 70.0022 1035.30 1059.59 34.00
18061 70.0059 1024.90 1059.61 33.80
18062 70.0097 1046.90 1059.65 34.00
18063 70.0134 1024.60 1059.68 33.60
18064 70.0172 1081.20 1059.73 34.80
18065 70.0209 1024.50 1059.77 33.80
18066 70.0247 1055.50 1059.83 33.90
18067 70.0285 1058.40 1059.90 34.30
18068 70.0321 1042.80 1059.97 34.30
18069 70.0359 1006.20 1060.05 33.30
18070 70.0396 999.70 1060.14 33.30
18071 70.0434 1022.50 1060.24 33.60
18072 70.0472 1045.60 1060.35 33.70
18073 70.0509 1060.80 1060.47 34.30
18074 70.0547 1023.80 1060.61 34.50
18075 70.0584 1097.10 1060.76 34.90
18076 70.0623 1055.40 1060.92 34.10
18077 70.0661 1090.70 1061.10 34.60
18078 70.0698 1054.60 1061.30 34.20
18079 70.0735 1088.60 1061.51 34.80
18080 70.0773 969.50 1061.75 33.50
18081 70.0810 1022.20 1062.01 33.40
18082 70.0848 1057.70 1062.29 33.70
18083 70.0885 1008.90 1062.59 33.40
18084 70.0923 1058.40 1062.93 33.70
18085 70.0960 1086.10 1063.29 34.10
18086 70.0999 1080.80 1063.69 34.40
18087 70.1036 1078.80 1064.12 34.40
18088 70.1074 1004.30 1064.60 33.00
18089 70.1112 1055.10 1065.12 34.20
18090 70.1149 1077.20 1065.68 34.30
18091 70.1187 999.60 1066.30 33.10
18092 70.1224 1067.30 1066.95 33.90
18093 70.1262 1124.20 1067.69 34.80
18094 70.1300 1101.20 1068.49 34.50
18095 70.1337 1061.10 1069.33 34.20
18096 70.1375 1103.20 1070.27 34.60
18097 70.1412 1047.00 1073.11 33.90
18098 70.1449 1049.00 1074.22 33.70
18099 70.1488 1025.40 1075.43 33.00
18100 70.1524 1079.70 1076.68 34.60
18101 70.1562 1094.10 1078.07 35.20
18102 70.1599 1072.60 1079.49 34.30
18103 70.1637 1073.10 1081.05 33.80
18104 70.1675 1063.80 1082.67 34.20
18105 70.1712 1103.60 1084.32 34.50
18106 70.1750 1029.10 1086.05 33.50
18107 70.1787 1069.00 1087.75 34.20
18108 70.1825 1090.70 1089.47 34.80
18109 70.1863 1104.80 1091.15 34.90
18110 70.1901 1090.30 1092.67 34.70
18111 70.1938 1042.30 1094.09 33.90
18112 70.1976 1076.60 1095.26 34.50
18113 70.2013 1062.90 1096.21 33.60
18114 70.2051 1086.70 1096.84 34.80
18115 70.2088 1072.00 1097.15 34.20
18116 70.2126 1128.10 1097.11 35.30
18117 70.2163 1074.60 1096.72 34.50
18118 70.2202 1075.10 1095.99 34.20
18119 70.2238 1083.50 1094.98 34.30
18120 70.2277 1070.30 1093.67 34.00
18121 70.2315 1103.50 1092.15 35.10
18122 70.2352 1062.70 1090.51 34.70
18123 70.2390 1099.00 1088.72 35.10
18124 70.2427 1067.40 1086.90 34.20
18125 70.2465 1101.60 1085.02 33.90
18126 70.2503 1040.00 1083.16 33.20
18127 70.2540 1096.30 1081.37 35.30
18128 70.2577 1061.60 1079.60 34.30
18129 70.2615 1037.00 1077.95 33.70
18130 70.2652 1058.70 1076.33 34.10
18131 70.2690 1080.50 1074.84 34.60
18132 70.2727 1089.60 1073.40 34.80
18133 70.2766 1067.90 1072.05 34.00
18134 70.2802 1088.00 1070.82 34.50
18135 70.2840 1032.40 1069.64 33.80
18136 70.2877 1080.60 1068.57 34.50
18137 70.2915 1089.70 1067.54 34.40
18138 70.2953 1046.10 1066.58 33.90
18139 70.2990 1091.50 1065.71 34.90
18140 70.3028 1036.00 1064.88 33.80
18141 70.3065 1058.50 1064.12 34.10
18142 70.3103 1060.20 1063.40 34.40
18143 70.3141 1084.90 1062.72 34.40
18144 70.3179 1064.20 1062.11 34.40
18145 70.3216 1076.60 1061.52 33.70
18146 70.3254 1074.40 1060.98 34.50
18147 70.3291 1047.50 1060.46 33.90
18148 70.3329 1062.00 1059.98 34.70
18149 70.3366 1045.70 1059.52 33.60
18150 70.3404 1045.70 1059.09 34.10
18151 70.3441 991.60 1058.70 33.30
18152 70.3480 1010.10 1058.31 33.00
18153 70.3516 1059.00 1057.96 33.90
18154 70.3555 1075.50 1057.61 34.80
18155 70.3593 1025.10 1057.29 33.50
18156 70.3630 1069.40 1056.99 34.20
18157 70.3668 1064.90 1056.69 34.20
18158 70.3705 1028.80 1056.42 34.00
18159 70.3743 986.60 1056.15 33.10
18160 70.3780 1027.70 1055.91 33.20
18161 70.3818 1034.60 1055.67 34.20
18162 70.3855 991.90 1055.43 32.90
18163 70.3893 1109.40 1055.22 34.40
18164 70.3930 1001.30 1055.01 33.70
18165 70.3968 1026.90 1054.81 33.70
18166 70.4005 1061.70 1054.62 34.40
18167 70.4044 1036.30 1054.43 33.70
18168 70.4080 1023.70 1054.25 33.70
18169 70.4118 1088.70 1054.08 34.90
18170 70.4155 1063.90 1053.92 34.70
18171 70.4193 1037.40 1053.76 34.10
18172 70.4231 1059.40 1053.61 34.40
18173 70.4268 1038.80 1053.46 33.60
18174 70.4306 993.90 1055.09 33.20
18175 70.4343 1009.70 1054.97 33.30
18176 70.4381 1021.00 1054.85 34.00
18177 70.4419 1017.70 1054.73 33.70
18178 70.4457 1036.30 1054.63 33.80
18179 70.4494 994.20 1054.52 32.70
18180 70.4532 1015.70 1054.42 33.70
18181 70.4569 1055.00 1054.32 34.70
18182 70.4607 1030.50 1054.23 33.80
18183 70.4644 1039.10 1054.14 33.80
18184 70.4682 997.10 1054.06 33.30
18185 70.4719 1038.40 1053.98 34.00
18186 70.4758 1058.50 1053.90 34.60
18187 70.4794 1008.00 1053.82 33.40
18188 70.4833 1062.10 1053.75 34.40
18189 70.4870 1095.50 1053.68 34.50
18190 70.4908 1020.20 1053.62 33.70
18191 70.4946 1039.80 1053.55 34.30
18192 70.4983 1051.40 1053.50 34.20
18193 70.5021 1019.30 1053.44 33.90
18194 70.5058 1039.20 1053.38 33.60
18195 70.5096 1005.00 1053.33 33.20
18196 70.5133 1082.70 1053.28 35.10
18197 70.5171 947.80 1053.24 32.80
18198 70.5208 1010.30 1053.19 33.70
18199 70.5246 1000.50 1053.15 33.50
18200 70.5283 1042.50 1053.12 33.90
18201 70.5322 999.00 1053.08 33.40
18202 70.5358 1059.60 1053.05 34.20
18203 70.5396 1052.70 1053.02 34.40
18204 70.5434 1052.60 1052.99 34.20
18205 70.5471 1087.70 1052.96 34.70
18206 70.5508 1028.20 1052.94 33.30
18207 70.5546 1033.50 1052.92 35.00
18208 70.5584 1018.20 1052.91 34.10
18209 70.5621 1021.80 1052.89 32.90
18210 70.5659 1066.90 1052.88 33.60
18211 70.5696 980.00 1052.87 32.30
18212 70.5735 1021.60 1052.86 33.40
18213 70.5771 1038.70 1052.86 33.20
18214 70.5810 1041.70 1052.86 33.30
18215 70.5847 1002.60 1052.86 32.90
18216 70.5885 1034.30 1052.87 33.30
18217 70.5922 1021.80 1052.87 33.10
18218 70.5959 1019.30 1052.88 32.90
18219 70.5997 1069.20 1052.90 34.20
18220 70.6036 1009.20 1052.92 33.00
18221 70.6072 1053.80 1052.94 33.60
18222 70.6111 1002.70 1052.96 32.80
18223 70.6148 1023.50 1052.98 33.30
18224 70.6186 1021.10 1053.01 33.00
18225 70.6223 1076.10 1053.05 34.10
18226 70.6261 1088.80 1053.08 34.10
18227 70.6299 1042.00 1053.12 33.40
18228 70.6336 1069.90 1053.17 34.30
18229 70.6374 968.10 1053.21 31.70
18230 70.6411 1063.50 1053.26 34.00
18231 70.6449 1062.10 1053.32 33.60
18232 70.6486 1016.40 1053.38 33.10
18233 70.6524 1044.20 1053.44 33.20
18234 70.6562 1021.10 1053.51 34.20
18235 70.6599 1054.70 1053.58 33.90
18236 70.6637 1057.60 1053.65 33.60
18237 70.6674 1027.00 1053.73 33.50
18238 70.6712 1070.40 1053.82 34.00
18239 70.6749 1036.70 1053.91 33.70
18240 70.6786 1056.90 1054.00 34.00
18241 70.6824 1042.20 1054.10 33.30
18242 70.6861 1085.10 1054.21 34.60
18243 70.6899 1064.00 1054.32 34.00
18244 70.6937 1055.80 1054.44 34.00
18245 70.6974 1091.00 1054.56 34.50
18246 70.7013 1059.80 1054.68 34.20
18247 70.7049 1093.80 1054.82 34.40
18248 70.7088 1083.30 1054.96 34.10
18249 70.7125 1072.30 1055.10 34.10
18250 70.7162 1056.50 1055.26 33.80
18251 70.7200 1015.00 1055.42 33.20
18252 70.7237 996.20 1055.59 32.90
18253 70.7275 1039.60 1055.77 33.40
18254 70.7312 991.80 1055.95 32.90
18255 70.7350 1010.40 1056.14 33.30
18256 70.7387 1039.90 1056.34 33.50
18257 70.7426 1120.90 1056.55 35.00
18258 70.7464 1031.60 1056.77 33.60
18259 70.7501 1089.00 1057.00 34.10
18260 70.7539 1072.20 1057.24 34.50
18261 70.7576 1070.60 1057.48 34.60
18262 70.7614 1041.00 1057.74 33.80
18263 70.7652 1040.40 1058.01 33.50
18264 70.7689 1060.60 1058.29 33.60
18265 70.7727 1090.60 1058.59 34.30
18266 70.7764 1008.40 1058.89 33.00
18267 70.7802 1040.00 1059.21 33.50
18268 70.7839 1015.20 1059.54 33.30
18269 70.7877 1051.30 1059.89 34.00
18270 70.7915 1037.80 1060.26 33.70
18271 70.7951 1077.70 1060.63 34.10
18272 70.7990 1049.50 1061.03 34.00
18273 70.8026 1103.70 1061.44 34.50
18274 70.8064 1039.60 1061.87 33.60
18275 70.8102 1037.30 1062.32 33.30
18276 70.8139 1055.40 1062.79 34.00
18277 70.8177 1045.60 1063.28 33.60
18278 70.8214 1038.20 1063.78 33.50
18279 70.8252 1005.60 1064.32 32.80
18280 70.8289 1014.60 1064.87 33.40
18281 70.8327 1091.10 1065.46 34.20
18282 70.8365 1084.20 1066.07 34.80
18283 70.8403 1046.60 1066.70 33.60
18284 70.8440 1052.80 1067.37 33.90
18285 70.8478 1035.90 1068.06 33.50
18286 70.8515 1026.30 1068.79 33.00
18287 70.8553 1045.20 1069.55 34.10
18288 70.8590 1079.90 1070.35 34.70
18289 70.8628 1052.90 1071.20 33.40
18290 70.8665 1041.60 1072.07 33.40
18291 70.8704 1086.40 1073.00 34.30
18292 70.8740 1114.90 1073.95 34.80
18293 70.8779 1074.80 1074.97 34.30
18294 70.8816 1053.40 1076.02 34.10
18295 70.8854 1068.10 1077.15 34.10
18296 70.8892 1049.40 1078.34 33.90
18297 70.8929 1061.80 1079.56 34.00
18298 70.8967 1065.70 1080.88 33.90
18299 70.9004 1065.50 1082.23 33.80
18300 70.9042 1052.80 1083.69 34.10
18301 70.9079 1075.20 1085.20 34.20
18302 70.9117 1031.90 1086.82 33.50
18303 70.9154 1098.90 1088.54 34.90
18304 70.9192 1093.10 1090.31 34.60
18305 70.9229 1065.10 1092.23 34.00
18306 70.9267 1082.50 1094.21 34.30
18307 70.9304 1038.20 1096.37 33.50
18308 70.9342 1156.00 1098.59 36.10
18309 70.9379 1048.00 1101.01 33.70
18310 70.9417 1159.20 1103.59 35.70
18311 70.9454 1098.30 1106.25 34.80
18312 70.9492 1086.00 1109.16 34.00
18313 70.9529 1127.50 1112.17 34.60
18314 70.9567 1148.90 1115.47 36.20
18315 70.9605 1131.60 1118.99 35.00
18316 70.9642 1137.70 1122.65 35.30
18317 70.9681 1182.70 1126.67 35.60
18318 70.9717 1107.60 1130.85 34.80
18319 70.9756 1101.10 1135.45 34.60
18320 70.9793 1174.00 1140.25 35.70
18321 70.9831 1163.40 1145.52 35.90
18322 70.9868 1205.70 1151.04 36.70
18323 70.9905 1175.80 1157.13 35.90
18324 70.9943 1169.10 1163.67 35.80
18325 70.9980 1201.90 1170.53 36.20
18326 71.0018 1181.30 1178.11 35.90
18327 71.0055 1169.60 1186.04 36.00
18328 71.0094 1238.00 1194.83 36.90
18329 71.0130 1271.70 1204.02 37.60
18330 71.0169 1247.20 1214.21 37.00
18331 71.0207 1215.70 1225.16 36.40
18332 71.0244 1183.70 1236.64 35.70
18333 71.0282 1225.70 1249.29 36.60
18334 71.0319 1252.50 1262.50 37.20
18335 71.0357 1319.90 1276.99 38.00
18336 71.0394 1247.60 1292.05 37.50
18337 71.0432 1286.10 1308.46 38.20
18338 71.0470 1343.90 1325.80 38.60
18339 71.0507 1343.20 1343.54 37.80
18340 71.0545 1347.20 1362.49 39.30
18341 71.0582 1349.30 1381.53 38.90
18342 71.0620 1501.30 1401.42 40.60
18343 71.0657 1437.20 1420.86 39.40
18344 71.0695 1432.20 1440.48 39.40
18345 71.0732 1510.90 1459.33 40.90
18346 71.0770 1511.40 1476.45 41.10
18347 71.0807 1552.30 1492.22 41.60
18348 71.0844 1513.20 1505.23 41.10
18349 71.0882 1501.50 1515.73 41.10
18350 71.0919 1589.10 1522.70 42.30
18351 71.0957 1500.70 1526.25 41.40
18352 71.0995 1562.50 1525.97 41.80
18353 71.1032 1450.40 1522.05 40.40
18354 71.1071 1503.60 1514.47 40.80
18355 71.1107 1476.80 1504.02 40.80
18356 71.1146 1436.50 1490.52 40.20
18357 71.1183 1408.70 1475.26 39.50
18358 71.1221 1422.60 1457.96 40.00
18359 71.1258 1414.70 1439.55 39.80
18360 71.1295 1369.30 1421.02 39.00
18361 71.1333 1411.60 1401.83 40.10
18362 71.1370 1384.80 1383.30 39.40
18363 71.1408 1337.20 1364.74 38.90
18364 71.1445 1317.40 1347.30 38.30
18365 71.1484 1323.80 1330.21 38.40
18366 71.1522 1257.40 1313.85 36.70
18367 71.1559 1231.40 1299.06 37.70
18368 71.1597 1237.70 1284.82 37.10
18369 71.1634 1225.00 1271.95 36.60
18370 71.1672 1168.30 1259.66 35.70
18371 71.1709 1219.00 1248.64 36.60
18372 71.1747 1109.00 1238.18 34.80
18373 71.1783 1214.50 1228.85 36.70
18374 71.1822 1154.10 1220.05 35.70
18375 71.1860 1067.20 1212.03 34.00
18376 71.1897 1180.70 1204.91 36.40
18377 71.1935 1154.00 1198.27 35.40
18378 71.1972 1231.70 1192.41 37.60
18379 71.2010 1109.40 1186.98 35.30
18380 71.2047 1136.10 1182.23 35.30
18381 71.2085 1197.30 1177.88 36.80
18382 71.2122 1081.80 1174.03 34.50
18383 71.2160 1166.20 1170.73 36.20
18384 71.2197 1109.20 1167.79 34.90
18385 71.2234 1127.10 1165.34 35.40
18386 71.2272 1134.50 1163.23 35.40
18387 71.2309 1144.30 1161.57 35.50
18388 71.2347 1138.50 1160.24 36.00
18389 71.2385 1079.50 1159.29 34.60
18390 71.2422 1171.60 1158.73 36.00
18391 71.2461 1119.40 1158.52 35.30
18392 71.2498 1117.60 1158.68 34.80
18393 71.2536 1165.00 1159.21 36.30
18394 71.2573 1120.70 1160.08 35.20
18395 71.2610 1154.90 1161.36 35.80
18396 71.2648 1071.70 1162.99 34.30
18397 71.2685 1165.10 1165.06 35.90
18398 71.2723 1165.30 1167.56 36.10
18399 71.2760 1159.90 1170.41 36.00
18400 71.2798 1198.90 1173.79 36.40
18401 71.2835 1117.10 1177.56 35.10
18402 71.2874 1141.00 1181.93 35.80
18403 71.2911 1231.00 1186.72 36.90
18404 71.2949 1176.50 1192.19 36.20
18405 71.2987 1239.30 1198.28 36.80
18406 71.3024 1178.50 1204.84 36.20
18407 71.3061 1240.70 1212.26 37.10
18408 71.3099 1194.30 1220.20 36.30
18409 71.3136 1225.00 1229.12 37.20
18410 71.3174 1236.80 1238.60 37.50
18411 71.3212 1214.10 1249.21 36.60
18412 71.3249 1261.00 1260.38 37.20
18413 71.3287 1293.70 1272.80 37.90
18414 71.3325 1254.00 1286.15 37.70
18415 71.3362 1404.00 1300.08 39.50
18416 71.3400 1402.70 1315.29 39.80
18417 71.3437 1324.40 1330.95 38.20
18418 71.3475 1347.00 1347.78 38.80
18419 71.3512 1403.30 1364.80 39.00
18420 71.3549 1447.80 1382.68 41.00
18421 71.3587 1555.80 1400.26 42.10
18422 71.3624 1473.00 1418.13 40.80
18423 71.3662 1555.90 1435.41 41.70
18424 71.3699 1451.60 1451.23 40.40
18425 71.3737 1535.30 1465.90 41.40
18426 71.3774 1601.80 1478.19 42.90
18427 71.3812 1481.30 1488.20 40.90
18428 71.3849 1518.90 1495.03 41.30
18429 71.3887 1537.60 1498.69 41.70
18430 71.3924 1545.40 1498.79 41.70
18431 71.3962 1601.10 1495.32 42.70
18432 71.4000 1531.60 1488.35 41.70
18433 71.4037 1486.60 1478.51 41.00
18434 71.4075 1467.70 1465.62 40.20
18435 71.4112 1403.20 1450.89 39.60
18436 71.4150 1492.70 1433.97 41.30
18437 71.4187 1426.30 1416.33 40.00
18438 71.4225 1392.10 1397.41 39.40
18439 71.4262 1355.10 1378.71 39.10
18440 71.4301 1330.20 1359.48 38.40
18441 71.4339 1311.30 1340.61 38.50
18442 71.4376 1287.20 1322.74 37.60
18443 71.4414 1243.10 1305.10 37.60
18444 71.4451 1278.70 1288.70 37.80
18445 71.4489 1192.90 1272.74 35.40
18446 71.4526 1179.20 1258.07 35.70
18447 71.4564 1188.50 1243.92 37.10
18448 71.4601 1209.90 1231.00 36.50
18449 71.4639 1222.90 1218.62 36.20
18450 71.4676 1166.30 1207.07 35.30
18451 71.4714 1112.80 1196.58 34.80
18452 71.4751 1156.20 1186.56 35.70
18453 71.4789 1140.80 1177.47 35.90
18454 71.4826 1104.50 1168.79 35.00
18455 71.4864 1079.70 1160.91 34.50
18456 71.4901 1104.80 1153.38 35.10
18457 71.4939 1105.10 1146.55 35.00
18458 71.4976 1139.40 1140.01 35.60
18459 71.5014 1079.20 1133.90 34.60
18460 71.5051 1087.60 1128.36 34.60
18461 71.5089 1059.80 1123.03 34.30
18462 71.5126 1098.30 1118.19 35.10
18463 71.5164 1082.70 1113.52 34.70
18464 71.5201 1022.90 1109.27 33.70
18465 71.5239 1080.90 1105.17 34.90
18466 71.5276 1092.60 1101.41 34.40
18467 71.5314 1097.10 1097.79 35.30
18468 71.5353 1020.90 1094.38 33.50
18469 71.5390 1049.60 1091.25 33.90
18470 71.5428 1076.80 1088.22 34.60
18471 71.5465 1057.20 1085.43 34.10
18472 71.5502 1066.40 1082.72 33.60
18473 71.5540 1077.20 1080.23 35.10
18474 71.5577 1045.10 1077.80 34.40
18475 71.5614 1044.70 1075.56 34.00
18476 71.5652 1097.90 1073.37 34.60
18477 71.5689 1056.40 1071.35 34.30
18478 71.5727 1041.80 1069.38 33.80
18479 71.5766 1063.40 1067.49 34.30
18480 71.5803 992.30 1065.75 33.30
18481 71.5841 1071.70 1066.26 34.70
18482 71.5878 1005.50 1064.69 33.50
18483 71.5916 1012.90 1063.15 33.50
18484 71.5953 1067.70 1061.72 34.50
18485 71.5991 1016.00 1060.31 33.30
18486 71.6028 1058.50 1058.99 34.20
18487 71.6066 1064.30 1057.70 34.40
18488 71.6104 1069.20 1056.46 34.30
18489 71.6141 1024.10 1055.30 34.00
18490 71.6179 1065.20 1054.16 34.40
18491 71.6216 1028.40 1053.09 33.60
18492 71.6254 1054.20 1052.04 34.50
18493 71.6291 1019.50 1051.05 33.50
18494 71.6329 1040.00 1050.07 34.40
18495 71.6366 1055.00 1049.16 34.30
18496 71.6404 1033.20 1048.25 34.10
18497 71.6441 1010.70 1047.40 33.60
18498 71.6479 1032.70 1046.55 33.50
18499 71.6516 1013.80 1045.74 32.90
18500 71.6553 1036.90 1044.97 35.00
18501 71.6591 1084.70 1044.21 35.00
18502 71.6628 1041.30 1043.49 34.10
18503 71.6666 994.50 1042.78 33.20
18504 71.6703 1049.70 1042.11 33.90
18505 71.6741 1000.00 1041.44 33.30
18506 71.6778 1050.90 1040.81 34.10
18507 71.6816 1014.10 1040.18 33.90
18508 71.6853 1004.60 1039.58 33.30
18509 71.6892 1076.20 1038.99 34.70
18510 71.6930 1056.00 1038.41 34.40
18511 71.6967 1056.50 1037.87 34.40
18512 71.7004 989.00 1037.33 33.50
18513 71.7041 994.30 1036.81 33.30
18514 71.7079 1052.10 1036.30 34.40
18515 71.7116 1016.40 1035.81 33.70
18516 71.7154 1006.70 1035.32 33.40
18517 71.7191 1064.00 1034.86 34.80
18518 71.7230 1027.60 1034.40 34.20
18519 71.7266 1046.30 1033.96 34.10
18520 71.7305 997.40 1033.52 33.40
18521 71.7342 981.60 1033.11 33.30
18522 71.7380 1028.10 1032.69 34.10
18523 71.7418 1064.10 1032.28 34.80
18524 71.7455 1065.80 1031.89 34.90
18525 71.7493 981.70 1031.50 33.20
18526 71.7530 954.40 1031.13 32.20
18527 71.7568 1046.60 1030.76 34.60
18528 71.7605 1010.10 1030.41 32.90
18529 71.7643 970.20 1030.05 32.90
18530 71.7680 1066.10 1029.72 34.30
18531 71.7718 958.80 1029.38 32.60
18532 71.7755 1043.50 1029.05 34.30
18533 71.7793 1026.80 1028.73 33.80
18534 71.7831 973.10 1028.41 32.60
18535 71.7867 1017.30 1028.11 33.60
18536 71.7906 968.60 1027.80 32.80
18537 71.7942 1026.70 1027.51 33.80
18538 71.7980 1009.10 1027.22 33.20
18539 71.8017 1001.40 1026.94 33.00
18540 71.8055 1032.20 1026.66 34.00
18541 71.8092 991.80 1026.39 33.40
18542 71.8130 989.40 1026.12 33.40
18543 71.8167 1002.00 1025.86 33.70
18544 71.8205 988.20 1025.60 33.40
18545 71.8242 1022.90 1025.35 33.70
18546 71.8280 990.80 1025.10 33.30
18547 71.8319 972.80 1024.85 32.50
18548 71.8355 1042.30 1024.62 34.20
18549 71.8394 1043.00 1024.38 34.20
18550 71.8431 1013.90 1024.16 33.60
18551 71.8469 1025.50 1023.93 33.70
18552 71.8506 999.00 1023.71 33.10
18553 71.8543 982.20 1023.49 33.20
18554 71.8581 1068.10 1023.28 34.90
18555 71.8618 985.30 1023.07 32.80
18556 71.8655 1023.10 1022.87 34.20
18557 71.8693 1009.70 1022.66 33.40
18558 71.8730 956.40 1022.47 32.50
18559 71.8768 1046.50 1022.27 34.40
18560 71.8805 1018.90 1022.08 33.70
18561 71.8844 1068.80 1021.89 35.00
18562 71.8882 1028.20 1021.71 34.20
18563 71.8919 1057.50 1021.53 34.50
18564 71.8957 1035.90 1021.35 34.20
18565 71.8994 1000.80 1021.18 33.30
18566 71.9032 1047.60 1021.00 34.10
18567 71.9069 1046.40 1020.84 34.10
18568 71.9107 1023.20 1020.67 33.70
18569 71.9143 997.10 1020.51 33.70
18570 71.9182 983.50 1020.35 33.10
18571 71.9218 1014.60 1020.20 33.60
18572 71.9257 1043.60 1020.04 34.70
18573 71.9293 1020.60 1019.90 33.80
18574 71.9332 1018.50 1019.75 34.40
18575 71.9368 1000.40 1019.61 33.70
18576 71.9407 1012.90 1019.46 33.50
18577 71.9445 1001.20 1019.32 33.50
18578 71.9482 1020.10 1019.19 33.80
18579 71.9520 956.00 1019.06 32.30
18580 71.9557 1036.20 1018.93 35.00
18581 71.9594 999.90 1018.80 33.80
18582 71.9632 1031.80 1018.68 34.30
18583 71.9669 954.20 1018.56 32.60
18584 71.9706 956.00 1018.44 32.70
18585 71.9744 997.70 1018.32 33.00
18586 71.9781 1030.10 1018.21 33.90
18587 71.9819 1047.10 1018.10 33.80
18588 71.9837 993.50 1018.05 33.20
18589 71.9874 981.00 1017.95 33.00
18590 71.9912 969.40 1017.84 32.70
18591 71.9949 1005.00 1017.74 33.40
18592 71.9987 984.70 1017.65 33.30
18593 72.0024 1045.10 1017.55 34.20
18594 72.0062 1089.30 1017.46 34.90
18595 72.0099 1011.20 1017.37 33.70
18596 72.0138 956.70 1017.29 32.20
18597 72.0174 1031.10 1017.21 34.20
18598 72.0213 969.20 1017.13 32.70
18599 72.0250 1000.60 1017.05 33.10
18600 72.0288 986.80 1016.98 33.10
18601 72.0325 925.90 1016.91 31.90
18602 72.0362 978.90 1016.84 32.20
18603 72.0400 954.90 1016.77 33.10
18604 72.0437 1047.80 1016.72 34.60
18605 72.0475 1052.60 1016.66 34.30
18606 72.0512 1031.70 1016.60 33.60
18607 72.0551 933.50 1014.70 32.20
18608 72.0589 975.70 1014.66 32.70
18609 72.0626 1029.00 1014.63 33.80
18610 72.0664 1122.10 1014.61 35.60
18611 72.0701 1008.00 1014.59 33.70
18612 72.0739 996.80 1014.57 33.50
18613 72.0776 972.10 1014.55 32.90
18614 72.0814 1058.40 1014.54 34.50
18615 72.0850 1011.70 1014.53 33.30
18616 72.0889 967.80 1014.53 32.70
18617 72.0927 1023.70 1014.53 33.80
18618 72.0964 1033.20 1014.53 33.70
18619 72.1002 1017.50 1014.54 34.00
18620 72.1039 1021.50 1014.55 33.80
18621 72.1077 1006.10 1014.57 33.30
18622 72.1114 1017.90 1014.59 33.90
18623 72.1152 1030.20 1014.61 33.70
18624 72.1189 971.00 1014.64 33.30
18625 72.1227 1058.80 1014.68 34.50
18626 72.1264 1026.60 1014.72 34.10
18627 72.1301 1017.30 1014.76 33.80
18628 72.1339 984.00 1014.81 32.70
18629 72.1376 942.40 1014.87 31.80
18630 72.1414 1031.90 1014.93 35.00
18631 72.1451 1027.00 1015.00 34.10
18632 72.1489 1041.00 1015.07 34.20
18633 72.1526 997.00 1015.15 33.30
18634 72.1564 1048.50 1015.24 34.00
18635 72.1601 1006.60 1015.33 33.50
18636 72.1639 1068.80 1015.43 34.50
18637 72.1676 1021.80 1015.53 34.10
18638 72.1714 1028.30 1015.64 33.80
18639 72.1752 966.30 1015.76 32.90
18640 72.1790 1040.50 1015.89 34.20
18641 72.1827 1032.90 1016.03 34.10
18642 72.1864 1019.30 1016.17 34.10
18643 72.1902 1083.40 1016.33 34.90
18644 72.1939 983.00 1016.49 33.30
18645 72.1977 1044.50 1016.66 34.30
18646 72.2014 1004.10 1016.84 33.50
18647 72.2053 1026.40 1017.03 34.20
18648 72.2089 988.80 1017.23 33.60
18649 72.2128 1044.00 1017.44 34.20
18650 72.2165 951.70 1017.66 32.70
18651 72.2191 1013.70 1017.82 33.30
18652 72.2228 1005.90 1018.07 33.50
18653 72.2265 1009.90 1018.32 33.70
18654 72.2303 1035.50 1018.59 33.80
18655 72.2340 1070.10 1018.87 34.80
18656 72.2378 1032.30 1019.17 34.10
18657 72.2415 980.80 1019.47 32.90
18658 72.2454 1065.60 1019.80 34.20
18659 72.2490 1082.20 1020.14 34.40
18660 72.2529 988.00 1020.50 32.50
18661 72.2566 1029.10 1020.87 34.70
18662 72.2604 1032.20 1021.27 33.90
18663 72.2642 982.70 1021.69 33.40
18664 72.2679 1054.10 1022.11 34.10
18665 72.2717 1038.00 1022.57 33.80
18666 72.2754 1050.60 1023.04 34.40
18667 72.2792 1059.30 1023.55 33.60
18668 72.2829 1006.00 1024.06 33.40
18669 72.2867 1031.80 1024.62 33.60
18670 72.2904 1074.70 1025.18 35.10
18671 72.2942 1052.30 1025.79 34.80
18672 72.2979 1024.60 1026.42 33.90
18673 72.3017 1046.40 1027.09 34.30
18674 72.3054 1033.20 1027.77 34.20
18675 72.3092 980.00 1028.51 32.90
18676 72.3130 1010.20 1029.29 32.80
18677 72.3167 1018.30 1030.08 33.40
18678 72.3204 974.70 1030.94 32.50
18679 72.3241 1021.70 1031.81 33.90
18680 72.3279 1030.90 1032.76 33.80
18681 72.3316 1033.60 1033.72 34.30
18682 72.3354 1027.60 1034.77 34.60
18683 72.3391 1088.90 1035.84 35.10
18684 72.3429 1001.50 1036.99 33.60
18685 72.3466 968.90 1038.17 33.10
18686 72.3504 1046.40 1039.46 33.90
18687 72.3543 1076.60 1039.03 35.10
18688 72.3579 1046.50 1040.43 34.40
18689 72.3618 1039.20 1041.94 34.10
18690 72.3655 1037.40 1043.50 34.00
18691 72.3693 1027.80 1045.19 34.00
18692 72.3730 1053.50 1046.92 33.90
18693 72.3767 1072.60 1048.80 34.40
18694 72.3805 1067.50 1050.74 34.90
18695 72.3842 1016.00 1052.84 33.90
18696 72.3879 1055.80 1055.02 34.40
18697 72.3917 1014.80 1057.37 33.20
18698 72.3954 1028.40 1059.81 33.80
18699 72.3992 1063.30 1062.47 34.70
18700 72.4029 1095.20 1065.21 35.70
18701 72.4068 1042.20 1068.21 34.50
18702 72.4106 1052.30 1071.39 34.30
18703 72.4143 1124.70 1074.70 36.10
18704 72.4181 1113.70 1078.32 35.20
18705 72.4218 1121.60 1082.07 35.40
18706 72.4256 1063.20 1086.19 34.30
18707 72.4293 1102.50 1090.46 35.50
18708 72.4331 1116.20 1095.16 35.60
18709 72.4368 1111.10 1100.04 35.30
18710 72.4406 1074.90 1105.60 35.00
18711 72.4444 1103.60 1111.36 35.00
18712 72.4481 1091.50 1117.38 35.40
18713 72.4519 1109.90 1124.00 35.10
18714 72.4556 1137.10 1130.94 36.70
18715 72.4594 1149.60 1138.58 36.40
18716 72.4631 1090.00 1146.59 34.80
18717 72.4669 1160.80 1155.42 35.40
18718 72.4706 1119.90 1164.68 35.40
18719 72.4743 1193.50 1174.90 36.90
18720 72.4781 1170.20 1185.62 36.30
18721 72.4818 1259.10 1197.44 38.20
18722 72.4856 1220.50 1210.16 37.10
18723 72.4893 1156.00 1223.47 36.40
18724 72.4931 1248.10 1238.12 37.80
18725 72.4968 1270.70 1253.40 37.90
18726 72.5006 1265.70 1270.14 37.70
18727 72.5043 1246.30 1287.52 38.00
18728 72.5081 1285.40 1306.46 38.50
18729 72.5118 1361.30 1325.87 39.60
18730 72.5156 1347.20 1346.84 39.10
18731 72.5194 1406.70 1368.07 39.80
18732 72.5231 1376.60 1390.53 40.20
18733 72.5269 1367.90 1413.46 39.20
18734 72.5306 1507.40 1435.83 41.80
18735 72.5344 1482.60 1458.56 41.10
18736 72.5381 1540.50 1479.87 42.10
18737 72.5419 1538.50 1500.47 42.30
18738 72.5456 1490.70 1518.62 41.20
18739 72.5495 1509.00 1534.69 41.60
18740 72.5531 1538.40 1547.30 40.80
18741 72.5570 1539.40 1556.58 43.20
18742 72.5607 1577.30 1561.68 43.50
18743 72.5645 1526.70 1562.63 41.60
18744 72.5683 1441.50 1559.21 40.60
18745 72.5720 1552.00 1551.80 42.00
18746 72.5758 1424.40 1540.34 40.60
18747 72.5795 1479.60 1525.85 41.30
18748 72.5833 1466.70 1508.15 41.30
18749 72.5870 1474.30 1488.72 41.50
18750 72.5908 1444.90 1467.17 41.00
18751 72.5945 1433.20 1445.14 40.70
18752 72.5983 1350.50 1422.02 39.70
18753 72.6020 1344.60 1398.82 40.00
18754 72.6058 1309.30 1376.47 38.70
18755 72.6095 1291.80 1354.12 38.50
18756 72.6133 1264.50 1333.08 38.10
18757 72.6170 1289.30 1312.42 38.80
18758 72.6208 1195.60 1293.27 37.70
18759 72.6245 1258.80 1274.66 37.80
18760 72.6283 1135.10 1257.64 35.20
18761 72.6320 1128.40 1241.19 36.10
18762 72.6358 1100.80 1225.84 36.00
18763 72.6395 1146.60 1211.86 36.30
18764 72.6433 1184.40 1198.48 37.30
18765 72.6470 1125.40 1186.32 35.90
18766 72.6508 1110.90 1174.70 35.40
18767 72.6545 1152.80 1164.16 36.00
18768 72.6584 1104.60 1154.07 35.60
18769 72.6620 1112.20 1144.94 35.50
18770 72.6659 1060.20 1136.18 34.30
18771 72.6696 1079.90 1128.05 35.00
18772 72.6734 1072.90 1120.65 34.70
18773 72.6771 1068.50 1113.56 35.60
18774 72.6808 1043.00 1107.12 34.00
18775 72.6846 1087.00 1100.93 34.20
18776 72.6883 1036.30 1095.29 33.20
18777 72.6921 1060.00 1089.87 33.60
18778 72.6958 1077.90 1084.92 34.20
18779 72.6997 1012.50 1080.15 33.10
18780 72.7035 1084.10 1075.67 34.30
18781 72.7072 1057.40 1071.58 34.00
18782 72.7110 1059.50 1067.62 33.80
18783 72.7147 1016.70 1063.99 33.00
18784 72.7185 1029.20 1060.47 33.30
18785 72.7222 1026.20 1057.24 33.30
18786 72.7260 1011.20 1054.09 32.70
18787 72.7296 985.40 1051.21 32.40
18788 72.7335 986.80 1048.39 32.60
18789 72.7373 1050.40 1045.74 33.60
18790 72.7410 1093.90 1043.28 34.40
18791 72.7448 1039.20 1040.88 33.40
18792 72.7485 1011.90 1038.66 33.10
18793 72.7523 1057.10 1036.50 32.90
18794 72.7560 978.80 1034.49 32.80
18795 72.7598 1009.80 1032.53 33.20
18796 72.7635 1024.20 1030.66 33.00
18797 72.7673 970.70 1028.92 32.00
18798 72.7710 974.30 1027.21 32.10
18799 72.7747 988.20 1025.62 32.20
18800 72.7785 1003.00 1024.06 33.10
18801 72.7822 1004.00 1022.61 32.80
18802 72.7860 982.80 1021.17 32.80
18803 72.7897 1041.70 1019.84 33.60
18804 72.7935 1014.70 1018.52 33.30
18805 72.7974 988.80 1017.25 32.70
18806 72.8010 971.50 1016.08 32.60
18807 72.8049 969.30 1014.90 32.20
18808 72.8086 1015.30 1013.81 33.20
18809 72.8124 1034.00 1012.73 33.30
18810 72.8161 1053.30 1011.71 34.00
18811 72.8198 1007.60 1010.71 33.00
18812 72.8235 1015.50 1009.77 32.90
18813 72.8273 993.10 1008.83 32.60
18814 72.8311 958.20 1007.93 32.00
18815 72.8348 980.90 1007.08 32.10
18816 72.8387 978.80 1006.24 32.40
18817 72.8423 1012.00 1005.44 33.10
18818 72.8462 1036.10 1004.65 33.20
18819 72.8499 1008.50 1003.91 32.60
18820 72.8537 986.70 1003.17 32.30
18821 72.8574 969.90 1002.45 32.70
18822 72.8612 968.00 1001.77 32.20
18823 72.8650 956.60 1001.09 32.20
18824 72.8687 1011.80 1000.46 33.00
18825 72.8725 1020.50 999.82 32.60
18826 72.8762 972.60 999.21 32.30
18827 72.8800 995.00 998.61 32.90
18828 72.8837 961.60 998.04 32.10
18829 72.8875 985.20 997.47 32.40
18830 72.8913 1057.80 996.91 33.70
18831 72.8950 1054.90 996.39 33.10
18832 72.8988 997.20 995.86 32.60
18833 72.9025 944.30 995.36 31.80
18834 72.9062 1056.10 994.86 33.60
18835 72.9100 991.40 994.38 32.70
18836 72.9137 944.40 993.91 31.60
18837 72.9175 1000.30 993.44 32.90
18838 72.9212 934.80 993.00 31.50
18839 72.9250 989.60 992.55 32.80
18840 72.9287 966.30 992.13 32.40
18841 72.9325 981.60 991.71 32.60
18842 72.9362 1001.60 991.30 32.90
18843 72.9400 975.70 990.89 32.80
18844 72.9439 1032.80 990.49 33.60
18845 72.9475 998.40 990.12 32.60
18846 72.9513 985.50 989.73 32.00
18847 72.9550 978.50 989.37 32.90
18848 72.9588 967.00 989.00 32.40
18849 72.9625 985.30 988.65 32.80
18850 72.9663 938.80 988.30 31.40
18851 72.9700 987.20 987.97 32.40
18852 72.9738 982.80 987.63 32.60
18853 72.9777 999.20 987.29 32.80
18854 72.9814 971.60 986.98 32.30
18855 72.9852 1048.40 986.66 33.90
18856 72.9889 984.70 986.35 32.60
18857 72.9927 950.30 986.04 32.00
18858 72.9964 982.80 985.75 33.00
18859 73.0002 1005.50 985.45 33.10
18860 73.0039 970.90 985.16 32.30
18861 73.0077 1021.60 984.88 33.70
18862 73.0114 1022.20 984.59 33.70
18863 73.0152 1023.70 984.32 33.20
18864 73.0189 1006.20 984.05 33.10
18865 73.0227 946.80 983.78 32.10
18866 73.0264 1015.60 983.52 33.10
18867 73.0303 964.90 983.26 32.10
18868 73.0339 1013.00 983.01 33.50
18869 73.0378 1041.90 982.76 33.40
18870 73.0414 972.80 982.52 32.60
18871 73.0452 1001.30 982.27 33.30
18872 73.0490 987.00 982.03 32.70
18873 73.0527 938.20 981.80 31.50
18874 73.0565 1067.10 981.57 34.80
18875 73.0602 908.80 981.34 31.40
18876 73.0640 953.70 981.12 31.70
18877 73.0677 994.00 980.90 32.60
18878 73.0715 956.20 980.68 32.20
18879 73.0753 968.40 980.47 32.50
18880 73.0791 1015.50 980.26 33.10
18881 73.0828 948.60 980.05 32.10
18882 73.0866 947.90 979.85 32.30
18883 73.0903 1003.00 979.65 33.00
18884 73.0941 999.40 979.45 33.10
18885 73.0978 959.40 979.26 32.50
18886 73.1015 1013.00 979.07 33.20
18887 73.1053 1013.90 978.88 33.70
18888 73.1092 1026.30 978.70 33.50
18889 73.1128 1005.90 978.52 33.10
18890 73.1167 968.30 978.34 32.30
18891 73.1204 978.80 978.16 32.80
18892 73.1242 997.50 977.99 33.00
18893 73.1279 980.60 977.82 32.60
18894 73.1317 993.30 977.66 32.80
18895 73.1355 1001.80 977.49 33.10
18896 73.1392 952.50 977.34 32.20
18897 73.1430 977.30 977.18 32.40
18898 73.1467 984.90 977.03 32.50
18899 73.1505 990.20 976.88 32.40
18900 73.1542 1015.20 976.73 33.90
18901 73.1580 970.80 976.59 33.30
18902 73.1617 928.70 976.45 31.70
18903 73.1655 909.70 976.32 31.20
18904 73.1692 1021.00 976.18 32.70
18905 73.1730 972.00 976.06 32.20
18906 73.1768 1029.00 975.93 33.20
18907 73.1805 1018.90 975.81 32.90
18908 73.1842 990.20 975.70 32.60
18909 73.1880 1019.20 975.58 33.10
18910 73.1917 995.40 975.48 32.90
18911 73.1955 952.80 975.37 32.00
18912 73.1992 979.50 975.28 32.20
18913 73.2030 908.40 975.18 31.00
18914 73.2069 1009.20 975.09 33.30
18915 73.2105 1012.80 975.01 33.10
18916 73.2144 957.40 974.93 32.30
18917 73.2181 980.10 974.86 32.80
18918 73.2219 943.50 974.79 31.70
18919 73.2256 1031.60 974.73 33.50
18920 73.2293 998.20 974.68 33.00
18921 73.2331 1004.90 974.63 32.80
18922 73.2368 1037.80 974.59 33.60
18923 73.2406 974.10 974.56 32.80
18924 73.2443 994.00 974.54 32.50
18925 73.2482 1056.60 974.53 33.80
18926 73.2518 968.00 974.52 31.80
18927 73.2557 1033.30 974.52 33.80
18928 73.2595 937.50 974.54 32.30
18929 73.2632 973.30 974.56 32.60
18930 73.2670 973.20 974.60 31.80
18931 73.2707 991.00 974.65 32.80
18932 73.2745 995.50 974.71 32.70
18933 73.2783 974.70 974.79 32.70
18934 73.2820 987.90 974.88 32.10
18935 73.2858 990.20 974.99 32.90
18936 73.2895 954.80 975.12 32.50
18937 73.2933 1028.90 975.27 33.90
18938 73.2970 994.60 975.43 32.70
18939 73.3008 990.00 975.62 32.80
18940 73.3046 1008.80 975.83 33.20
18941 73.3083 977.60 976.07 32.90
18942 73.3120 1005.40 976.33 33.10
18943 73.3157 1021.10 976.62 33.10
18944 73.3195 976.00 976.95 32.80
18945 73.3233 1006.60 977.32 33.20
18946 73.3270 945.20 977.71 32.10
18947 73.3308 982.50 978.15 32.80
18948 73.3345 1013.30 978.63 33.70
18949 73.3383 974.50 979.16 32.20
18950 73.3420 995.20 979.73 33.30
18951 73.3459 988.60 980.37 32.90
18952 73.3496 997.50 981.08 33.10
18953 73.3534 930.20 981.82 31.40
18954 73.3571 1063.80 982.65 34.70
18955 73.3609 1006.80 983.53 33.20
18956 73.3646 982.90 984.51 32.50
18957 73.3683 1018.50 985.55 33.10
18958 73.3721 1010.50 986.69 33.40
18959 73.3760 1032.10 987.92 32.90
18960 73.3796 1001.00 989.19 32.90
18961 73.3835 981.30 990.59 32.70
18962 73.3872 1054.40 992.03 33.90
18963 73.3910 1021.10 993.57 33.50
18964 73.3948 993.70 995.18 32.90
18965 73.3985 1030.70 996.79 33.50
18966 73.4023 1029.70 998.47 33.60
18967 73.4060 1053.80 1000.09 34.30
18968 73.4098 1115.20 1001.72 34.90
18969 73.4135 1038.10 1003.24 33.70
18970 73.4173 1029.80 1004.67 33.40
18971 73.4211 1017.50 1005.93 32.90
18972 73.4248 1019.90 1006.95 33.60
18973 73.4285 1050.90 1007.73 33.80
18974 73.4323 993.10 1008.21 33.10
18975 73.4360 1007.90 1008.37 33.40
18976 73.4398 978.50 1008.20 32.20
18977 73.4435 1053.50 1007.71 34.00
18978 73.4473 953.70 1006.88 32.50
18979 73.4510 1046.30 1005.80 33.40
18980 73.4548 1034.30 1004.42 33.30
18981 73.4585 1002.60 1002.89 33.70
18982 73.4623 972.60 1001.14 32.40
18983 73.4661 1056.80 999.28 34.00
18984 73.4698 971.40 997.40 32.30
18985 73.4737 1046.60 995.43 33.90
18986 73.4773 1007.80 993.52 33.40
18987 73.4812 1022.80 991.57 33.90
18988 73.4849 1032.30 989.68 33.80
18989 73.4887 956.30 987.90 32.20
18990 73.4924 985.60 986.14 33.20
18991 73.4961 1019.50 984.50 33.60
18992 73.4999 988.70 982.91 33.20
18993 73.5036 966.70 981.44 32.30
18994 73.5074 945.70 980.01 32.20
18995 73.5113 1050.30 978.66 34.10
18996 73.5150 902.50 977.43 31.60
18997 73.5188 974.40 976.24 32.60
18998 73.5225 948.10 975.15 32.20
18999 73.5263 950.30 974.10 32.20
19000 73.5301 967.30 973.11 32.70
19001 73.5338 921.60 972.21 31.90
19002 73.5376 950.30 971.33 32.10
19003 73.5413 875.80 970.53 30.80
19004 73.5451 922.10 969.75 31.70
19005 73.5488 970.00 966.80 32.50
19006 73.5526 916.00 966.12 31.10
19007 73.5563 1022.80 965.48 34.70
19008 73.5601 959.00 964.89 33.30
19009 73.5638 1036.90 964.31 33.70
19010 73.5676 979.90 963.78 33.00
19011 73.5713 1038.60 963.26 33.90
19012 73.5751 962.40 962.76 32.80
19013 73.5788 976.80 962.30 32.30
19014 73.5826 980.10 961.85 33.40
19015 73.5863 971.30 961.43 33.00
19016 73.5901 922.30 961.02 31.80
19017 73.5939 948.90 960.62 32.40
19018 73.5976 930.70 960.25 32.20
19019 73.6015 964.30 959.88 32.40
19020 73.6051 1017.70 959.54 32.80
19021 73.6090 989.60 959.20 32.80
19022 73.6127 982.60 958.88 33.20
19023 73.6165 962.10 958.56 32.60
19024 73.6202 916.90 958.26 31.60
19025 73.6239 968.40 957.97 32.60
19026 73.6277 977.40 957.68 32.60
19027 73.6314 982.90 957.41 33.00
19028 73.6352 999.60 957.13 33.30
19029 73.6391 972.00 956.87 33.20
19030 73.6428 974.20 956.62 31.60
19031 73.6466 903.00 956.37 30.50
19032 73.6503 959.10 956.13 31.30
19033 73.6541 985.00 955.89 31.80
19034 73.6579 981.60 955.65 32.60
19035 73.6616 921.40 955.43 30.90
19036 73.6654 932.40 955.21 30.60
19037 73.6691 959.20 954.99 31.50
19038 73.6729 926.70 954.78 30.80
19039 73.6766 946.00 954.57 31.40
19040 73.6804 1044.70 954.36 33.30
19041 73.6841 958.90 954.16 31.60
19042 73.6879 999.80 953.96 32.20
19043 73.6916 963.80 953.76 31.90
19044 73.6954 984.20 953.57 32.40
19045 73.6991 945.30 953.38 31.50
19046 73.7029 992.50 953.19 32.00
19047 73.7066 951.60 953.01 31.30
19048 73.7104 994.10 952.83 32.50
19049 73.7141 973.60 952.65 32.00
19050 73.7179 980.20 952.47 32.00
19051 73.7217 948.10 952.29 31.70
19052 73.7254 915.40 952.12 30.90
19053 73.7293 939.60 951.95 31.30
19054 73.7329 1002.70 951.78 32.20
19055 73.7368 963.30 951.61 31.70
19056 73.7405 954.80 951.45 31.40
19057 73.7443 1011.50 951.28 32.50
19058 73.7480 983.40 951.11 32.10
19059 73.7517 949.00 950.96 31.60
19060 73.7555 951.20 950.79 31.30
19061 73.7592 963.70 950.64 32.40
19062 73.7630 1003.80 950.48 32.40
19063 73.7669 930.60 950.32 31.20
19064 73.7706 925.40 950.16 30.70
19065 73.7744 975.60 950.01 32.10
19066 73.7781 960.20 949.86 31.60
19067 73.7819 855.80 949.70 29.80
19068 73.7857 930.90 949.55 31.40
19069 73.7894 995.80 949.40 31.90
19070 73.7932 952.10 949.25 31.80
19071 73.7969 968.50 949.10 32.10
19072 73.8007 936.60 948.96 31.00
19073 73.8044 988.80 948.81 32.10
19074 73.8082 894.40 948.66 30.50
19075 73.8119 983.50 948.52 31.90
19076 73.8157 945.30 948.37 31.40
19077 73.8194 961.60 948.23 31.70
19078 73.8232 939.60 948.09 31.20
19079 73.8270 896.80 947.94 30.40
19080 73.8307 978.20 947.80 31.50
19081 73.8344 937.80 947.66 31.50
19082 73.8382 954.70 947.52 31.50
19083 73.8419 937.30 947.38 31.30
19084 73.8457 918.00 947.24 31.00
19085 73.8495 925.10 947.09 30.90
19086 73.8532 945.70 946.96 30.90
19087 73.8571 921.20 946.82 31.60
19088 73.8607 929.90 946.68 31.30
19089 73.8646 969.60 946.95 31.70
19090 73.8683 954.20 946.82 31.40
19091 73.8721 976.90 946.69 31.40
19092 73.8758 985.00 946.55 32.10
19093 73.8795 937.90 946.42 31.30
19094 73.8833 950.70 946.29 32.00
19095 73.8872 973.40 946.16 31.80
19096 73.8908 963.70 946.03 31.70
19097 73.8947 916.00 945.89 31.00
19098 73.8984 947.80 945.76 31.60
19099 73.9022 932.20 945.63 31.10
19100 73.9060 993.50 945.50 32.20
19101 73.9097 934.40 945.37 31.30
19102 73.9135 955.20 945.24 31.20
19103 73.9172 950.00 945.11 31.90
19104 73.9210 939.70 944.98 31.10
19105 73.9247 925.30 944.86 31.10
19106 73.9285 937.90 944.73 31.40
19107 73.9323 939.40 944.60 31.30
19108 73.9360 969.50 944.47 32.30
19109 73.9398 901.80 944.35 30.60
19110 73.9435 879.30 944.22 30.10
19111 73.9473 986.20 944.09 32.40
19112 73.9510 941.70 943.97 31.10
19113 73.9548 868.00 943.84 29.70
19114 73.9585 989.60 943.72 32.70
19115 73.9622 988.70 943.59 32.20
19116 73.9660 908.10 943.47 30.70
19117 73.9698 948.40 943.34 31.30
19118 73.9735 1023.90 943.22 33.00
19119 73.9773 949.60 943.09 31.50
19120 73.9810 916.10 942.97 30.80
19121 73.9849 996.20 942.84 32.30
19122 73.9887 938.00 942.72 31.50
19123 73.9924 919.50 942.59 31.20
19124 73.9961 958.70 942.47 31.70
19125 73.9998 946.60 942.35 31.60
19126 74.0036 974.00 942.22 32.10
19127 74.0074 918.00 942.10 31.00
19128 74.0111 942.30 941.98 31.30
19129 74.0150 993.30 941.86 32.40
19130 74.0186 975.00 941.74 31.90
19131 74.0225 977.60 941.61 32.00
19132 74.0263 983.00 941.49 32.10
19133 74.0300 935.70 941.37 31.10
19134 74.0338 949.40 941.25 31.70
19135 74.0375 912.30 941.13 30.90
19136 74.0413 917.80 941.01 31.00
19137 74.0450 984.80 940.89 32.50
19138 74.0488 983.40 940.77 32.20
19139 74.0526 887.70 940.65 30.00
19140 74.0563 967.40 940.53 32.80
19141 74.0601 1013.30 940.41 33.10
19142 74.0638 975.70 940.29 31.70
19143 74.0676 909.00 940.17 30.70
19144 74.0714 938.80 940.05 31.30
19145 74.0751 998.80 939.93 32.60
19146 74.0788 968.70 939.81 31.80
19147 74.0826 927.60 939.70 31.30
19148 74.0863 925.80 939.58 31.10
19149 74.0901 910.50 939.46 31.00
19150 74.0938 972.00 939.34 32.10
19151 74.0976 999.40 939.22 32.40
19152 74.1013 943.40 939.10 31.60
19153 74.1051 937.30 938.99 31.30
19154 74.1090 996.80 938.87 32.70
19155 74.1126 897.80 938.75 30.30
19156 74.1165 986.30 938.63 32.30
19157 74.1201 967.40 938.52 32.20
19158 74.1239 928.20 938.40 31.00
19159 74.1277 932.20 938.28 30.90
19160 74.1314 966.00 938.17 31.60
19161 74.1352 984.50 938.05 32.50
19162 74.1389 942.20 937.94 31.10
19163 74.1428 950.30 937.82 31.30
19164 74.1466 922.00 937.71 30.90
19165 74.1503 955.80 937.59 31.20
19166 74.1541 898.00 937.47 30.10
19167 74.1578 1009.60 937.36 33.10
19168 74.1616 975.20 937.25 32.00
19169 74.1654 988.70 937.13 31.80
19170 74.1691 961.30 937.02 31.60
19171 74.1729 905.30 936.90 30.70
19172 74.1766 951.40 936.79 31.50
19173 74.1804 929.10 936.68 31.00
19174 74.1842 990.30 936.56 32.10
19175 74.1879 902.00 936.45 30.60
19176 74.1917 989.50 936.34 32.20
19177 74.1954 989.80 936.23 32.20
19178 74.1992 940.00 936.11 31.40
19179 74.2029 965.50 936.00 31.70
19180 74.2066 921.20 935.89 31.10
19181 74.2104 897.10 935.78 30.70
19182 74.2141 917.30 935.67 30.70
19183 74.2179 953.60 935.56 31.40
19184 74.2217 982.80 935.44 31.60
19185 74.2254 1019.20 935.34 32.60
19186 74.2293 950.30 935.22 30.90
19187 74.2329 901.80 935.11 30.70
19188 74.2368 968.10 935.00 32.00
19189 74.2404 949.20 934.90 31.20
19190 74.2443 935.80 934.78 31.40
19191 74.2480 950.60 934.67 31.60
19192 74.2517 924.00 934.57 30.90
19193 74.2555 949.90 934.46 31.20
19194 74.2592 955.50 934.35 32.30
19195 74.2630 1011.60 934.24 32.60
19196 74.2669 908.30 934.13 31.00
19197 74.2706 960.10 934.03 31.30
19198 74.2744 918.00 933.92 30.80
19199 74.2781 955.40 933.82 31.70
19200 74.2819 948.10 933.71 31.40
19201 74.2857 937.60 933.60 31.30
19202 74.2894 970.90 933.50 32.10
19203 74.2932 944.30 933.39 31.70
19204 74.2968 947.80 933.29 31.60
19205 74.3007 919.30 933.18 31.10
19206 74.3045 907.20 933.08 30.50
19207 74.3082 909.00 932.97 30.80
19208 74.3120 990.30 932.87 32.10
19209 74.3157 915.20 932.77 30.90
19210 74.3195 937.40 932.66 31.10
19211 74.3232 982.80 932.56 32.10
19212 74.3270 924.70 932.46 31.10
19213 74.3307 911.60 932.36 31.00
19214 74.3344 950.70 932.26 31.40
19215 74.3382 913.50 932.15 31.00
19216 74.3420 941.00 932.05 31.20
19217 74.3457 910.40 931.96 30.80
19218 74.3495 988.70 931.85 31.90
19219 74.3532 978.10 931.76 31.60
19220 74.3571 970.10 931.66 32.00
19221 74.3609 960.80 931.56 31.70
19222 74.3646 982.20 931.46 32.00
19223 74.3683 1000.30 931.36 32.40
19224 74.3721 959.30 931.27 31.60
19225 74.3758 948.50 931.17 31.30
19226 74.3796 946.90 931.08 31.40
19227 74.3833 927.00 930.98 30.90
19228 74.3872 960.50 930.89 31.70
19229 74.3908 961.60 930.80 31.40
19230 74.3947 923.30 930.70 31.00
19231 74.3985 923.60 930.61 31.00
19232 74.4022 931.70 930.52 31.20
19233 74.4060 972.00 930.43 32.10
19234 74.4097 949.80 930.34 31.20
19235 74.4135 993.50 930.25 32.00
19236 74.4173 919.90 930.16 31.10
19237 74.4210 938.10 930.07 31.00
19238 74.4248 902.20 929.98 30.30
19239 74.4285 933.80 929.90 30.90
19240 74.4323 948.10 929.81 31.20
19241 74.4361 944.40 929.55 31.20
19242 74.4398 921.50 929.47 30.70
19243 74.4436 950.00 929.38 31.20
19244 74.4473 916.20 929.30 31.20
19245 74.4510 925.10 929.22 30.80
19246 74.4548 942.10 929.15 30.80
19247 74.4585 1001.70 929.07 33.10
19248 74.4623 989.40 928.99 32.20
19249 74.4660 954.20 928.92 31.20
19250 74.4698 915.10 928.84 31.00
19251 74.4737 930.50 928.77 31.00
19252 74.4773 906.30 928.70 30.70
19253 74.4812 941.60 928.63 31.50
19254 74.4849 954.90 928.56 31.10
19255 74.4887 992.40 928.49 31.90
19256 74.4924 961.40 928.42 31.70
19257 74.4961 888.60 928.36 30.40
19258 74.4999 883.10 928.29 29.90
19259 74.5036 945.60 928.23 31.30
19260 74.5074 996.20 928.17 31.90
19261 74.5113 971.40 928.11 31.80
19262 74.5150 859.20 928.06 29.90
19263 74.5188 937.00 928.00 31.20
19264 74.5225 934.30 927.95 31.00
19265 74.5263 942.10 927.90 31.30
19266 74.5301 923.70 927.85 30.60
19267 74.5338 916.70 927.80 30.60
19268 74.5376 915.50 927.75 31.10
19269 74.5413 950.40 927.71 31.10
19270 74.5451 940.10 927.67 31.40
19271 74.5489 997.50 927.63 32.00
19272 74.5526 914.90 927.60 30.30
19273 74.5564 954.40 927.56 31.10
19274 74.5601 988.10 927.53 33.00
19275 74.5639 936.10 927.51 30.70
19276 74.5676 941.80 927.48 31.30
19277 74.5714 961.10 927.46 31.10
19278 74.5751 910.10 927.45 30.60
19279 74.5788 928.40 927.43 31.20
19280 74.5826 956.50 927.42 31.50
19281 74.5864 924.70 927.41 31.00
19282 74.5901 958.10 927.41 31.70
19283 74.5939 898.70 927.41 30.80
19284 74.5976 960.10 927.42 31.70
19285 74.6015 968.70 927.43 31.80
19286 74.6051 924.50 927.45 31.70
19287 74.6090 898.50 927.47 30.90
19288 74.6127 951.10 927.49 32.30
19289 74.6165 935.70 927.52 31.70
19290 74.6202 955.70 927.56 32.20
19291 74.6239 930.60 927.60 32.00
19292 74.6277 935.80 927.65 31.90
19293 74.6316 969.80 927.71 32.60
19294 74.6352 925.20 927.77 31.40
19295 74.6391 948.80 927.84 32.40
19296 74.6428 999.20 927.92 32.90
19297 74.6466 895.60 928.01 31.30
19298 74.6504 925.60 928.11 31.50
19299 74.6541 859.50 928.21 30.40
19300 74.6579 938.70 928.33 32.20
19301 74.6616 928.70 928.46 32.00
19302 74.6654 924.20 928.59 31.50
19303 74.6692 982.10 928.74 32.80
19304 74.6729 924.20 928.91 31.60
19305 74.6767 976.60 929.08 33.00
19306 74.6805 976.30 929.28 32.40
19307 74.6842 962.00 929.48 32.20
19308 74.6880 932.90 929.70 31.40
19309 74.6917 958.20 929.94 32.30
19310 74.6954 932.30 930.20 31.90
19311 74.6992 953.50 930.48 32.50
19312 74.7029 957.90 930.77 32.40
19313 74.7067 911.00 931.09 31.40
19314 74.7104 968.70 933.38 32.90
19315 74.7142 924.80 933.77 31.90
19316 74.7181 1011.70 934.18 33.60
19317 74.7217 866.40 934.62 30.80
19318 74.7256 955.50 935.10 32.00
19319 74.7293 938.70 935.60 31.80
19320 74.7331 957.70 936.15 32.30
19321 74.7368 984.20 936.72 32.60
19322 74.7405 955.30 937.35 32.40
19323 74.7443 961.30 938.03 32.20
19324 74.7480 981.00 938.74 32.80
19325 74.7518 1005.90 939.52 33.50
19326 74.7555 919.40 940.34 31.30
19327 74.7594 923.90 941.24 32.40
19328 74.7632 1015.70 942.21 33.60
19329 74.7669 959.90 943.23 32.40
19330 74.7707 940.90 944.35 31.60
19331 74.7744 928.00 945.53 31.70
19332 74.7782 994.10 946.83 33.10
19333 74.7820 1006.20 948.23 33.70
19334 74.7857 886.40 949.69 31.10
19335 74.7895 958.70 951.31 32.20
19336 74.7932 939.90 953.01 32.00
19337 74.7970 1007.40 954.89 33.20
19338 74.8008 943.90 956.91 31.60
19339 74.8045 922.90 959.02 31.30
19340 74.8083 895.10 961.35 31.40
19341 74.8120 959.50 963.78 32.20
19342 74.8158 981.30 966.45 32.80
19343 74.8195 940.00 969.31 32.30
19344 74.8232 1021.30 972.27 33.70
19345 74.8270 974.80 975.49 32.60
19346 74.8307 1019.30 978.80 33.70
19347 74.8345 969.30 982.38 32.70
19348 74.8383 990.90 986.10 33.50
19349 74.8420 925.00 989.87 31.70
19350 74.8459 1038.70 993.83 33.80
19351 74.8495 938.70 997.72 31.80
19352 74.8534 968.90 1001.72 32.10
19353 74.8571 985.20 1005.64 33.00
19354 74.8608 983.00 1009.28 33.40
19355 74.8646 984.00 1012.76 32.60
19356 74.8683 972.30 1015.80 32.50
19357 74.8721 969.10 1018.47 32.40
19358 74.8760 955.30 1020.57 32.20
19359 74.8796 1028.60 1022.00 33.40
19360 74.8835 1018.60 1022.78 33.40
19361 74.8872 988.90 1022.82 32.80
19362 74.8910 983.00 1022.13 32.80
19363 74.8948 982.60 1020.72 32.90
19364 74.8985 1025.10 1018.71 33.40
19365 74.9023 1053.10 1016.06 34.50
19366 74.9060 982.20 1012.99 32.80
19367 74.9098 945.40 1009.46 31.90
19368 74.9136 938.80 1005.61 32.30
19369 74.9173 978.90 1001.69 32.90
19370 74.9211 962.30 997.54 32.40
19371 74.9248 1000.70 993.47 33.10
19372 74.9286 936.60 989.31 32.00
19373 74.9324 989.10 985.24 32.90
19374 74.9361 968.00 981.39 32.60
19375 74.9398 1001.00 977.58 33.30
19376 74.9436 974.70 974.04 33.00
19377 74.9473 978.60 970.58 32.80
19378 74.9511 970.30 967.30 32.40
19379 74.9548 912.60 964.29 31.00
19380 74.9586 916.70 961.38 32.00
19381 74.9623 951.60 958.72 32.60
19382 74.9661 927.90 956.16 31.70
19383 74.9698 903.30 953.82 31.20
19384 74.9736 971.50 951.57 32.20
19385 74.9775 935.50 949.47 31.90
19386 74.9811 997.70 947.56 33.00
19387 74.9849 963.60 945.72 32.50
19388 74.9886 923.30 944.05 31.80
19389 74.9924 913.80 942.44 32.00
19390 74.9962 965.20 940.93 32.60
19391 74.9999 962.00 939.56 32.20
19392 75.0038 976.10 938.24 32.70
19393 75.0074 882.70 937.03 31.30
19394 75.0113 905.90 935.86 31.60
19395 75.0151 921.70 934.76 32.10
19396 75.0188 927.40 933.76 32.30
19397 75.0226 853.90 932.79 30.70
19398 75.0263 965.40 931.90 32.60
19399 75.0301 961.70 931.03 32.60
19400 75.0339 912.90 930.21 31.50
19401 75.0376 957.30 929.46 33.10
19402 75.0414 901.60 928.73 31.20
19403 75.0450 897.70 928.06 31.00
19404 75.0489 890.30 927.40 31.40
19405 75.0527 891.00 926.78 30.90
19406 75.0564 946.50 926.21 32.30
19407 75.0602 942.90 925.65 32.80
19408 75.0639 957.90 925.12 32.20
19409 75.0676 928.10 924.62 31.60
19410 75.0714 991.80 924.13 32.80
19411 75.0751 894.70 923.68 31.30
19412 75.0789 914.00 923.24 31.90
19413 75.0826 943.80 922.83 32.50
19414 75.0864 961.70 922.43 32.50
19415 75.0903 976.80 922.04 32.80
19416 75.0939 948.40 921.69 32.30
19417 75.0978 941.30 921.33 31.80
19418 75.1014 887.20 921.01 31.10
19419 75.1053 907.60 920.68 31.60
19420 75.1090 939.70 920.37 32.10
19421 75.1127 998.10 920.08 33.10
19422 75.1165 885.80 919.80 30.60
19423 75.1202 925.10 919.53 32.00
19424 75.1240 942.90 919.27 32.20
19425 75.1279 911.50 919.02 31.00
19426 75.1316 947.20 918.78 31.70
19427 75.1354 900.40 918.55 31.60
19428 75.1391 894.70 918.33 31.40
19429 75.1429 972.00 918.11 32.00
19430 75.1467 925.10 917.91 31.80
19431 75.1504 945.90 917.71 31.80
19432 75.1542 922.40 917.52 31.30
19433 75.1578 935.70 917.34 32.20
19434 75.1617 1006.90 917.16 33.60
19435 75.1655 907.80 916.99 31.20
19436 75.1692 945.70 916.84 32.20
19437 75.1730 941.90 916.68 32.20
19438 75.1767 942.70 916.53 32.20
19439 75.1805 917.30 916.39 31.80
19440 75.1842 948.80 916.25 32.30
19441 75.1880 989.10 916.12 32.40
19442 75.1917 875.90 916.00 31.20
19443 75.1954 911.50 915.88 31.70
19444 75.1992 956.40 915.76 32.60
19445 75.2030 927.70 915.65 32.00
19446 75.2067 968.20 915.55 32.30
19447 75.2105 946.30 915.45 32.10
19448 75.2142 945.90 915.36 32.50
19449 75.2181 942.40 915.27 32.30
19450 75.2217 946.60 915.18 32.10
19451 75.2256 912.90 915.10 31.40
19452 75.2293 872.40 915.03 30.90
19453 75.2331 908.90 914.96 31.80
19454 75.2368 937.20 914.90 32.20
19455 75.2405 883.10 914.84 30.80
19456 75.2443 924.40 914.78 32.00
19457 75.2482 864.40 914.73 30.70
19458 75.2518 924.20 914.68 31.80
19459 75.2557 927.50 914.64 31.40
19460 75.2594 971.80 914.60 33.40
19461 75.2632 956.90 914.57 32.90
19462 75.2670 940.10 914.54 32.20
19463 75.2707 889.30 914.52 30.90
19464 75.2745 938.40 914.51 31.80
19465 75.2781 938.80 914.49 32.40
19466 75.2820 889.50 914.48 31.50
19467 75.2858 908.60 914.48 31.50
19468 75.2895 922.70 914.48 31.50
19469 75.2933 895.30 914.49 31.20
19470 75.2970 968.30 914.50 32.90
19471 75.3008 938.20 914.52 32.30
19472 75.3046 937.50 914.54 32.20
19473 75.3083 981.30 914.57 32.70
19474 75.3120 888.90 914.61 31.00
19475 75.3158 919.30 914.65 31.70
19476 75.3195 984.00 914.69 33.10
19477 75.3233 953.40 914.74 32.40
19478 75.3270 947.90 914.80 32.40
19479 75.3308 931.90 914.86 31.90
19480 75.3345 927.20 914.93 32.10
19481 75.3383 900.10 915.01 32.00
19482 75.3420 944.20 915.09 32.10
19483 75.3459 900.40 915.18 31.80
19484 75.3497 905.10 915.28 31.40
19485 75.3534 943.40 915.39 31.90
19486 75.3571 964.50 915.50 32.40
19487 75.3609 990.60 915.61 33.40
19488 75.3646 955.30 915.74 32.50
19489 75.3684 953.30 915.88 32.30
19490 75.3721 957.80 916.02 32.10
19491 75.3760 918.70 916.18 31.50
19492 75.3796 928.40 916.34 32.10
19493 75.3835 971.20 916.51 32.80
19494 75.3873 879.10 916.69 31.10
19495 75.3910 908.60 916.88 31.60
19496 75.3948 944.10 917.08 32.10
19497 75.3985 891.50 917.29 31.40
19498 75.4023 944.30 917.52 32.20
19499 75.4059 919.90 917.75 31.40
19500 75.4098 993.60 918.00 33.20
19501 75.4136 941.30 918.26 32.00
19502 75.4173 940.00 918.53 32.30
19503 75.4211 938.00 918.81 32.00
19504 75.4248 922.40 919.11 32.10
19505 75.4286 921.00 919.42 32.00
19506 75.4324 977.60 919.76 33.00
19507 75.4361 947.20 920.10 32.10
19508 75.4398 944.90 920.46 32.10
19509 75.4436 885.80 920.84 31.00
19510 75.4473 945.20 921.24 32.30
19511 75.4511 937.70 921.66 32.40
19512 75.4548 882.80 922.09 30.80
19513 75.4586 912.60 922.55 32.00
19514 75.4623 950.50 923.02 32.90
19515 75.4661 937.80 923.53 32.10
19516 75.4700 923.50 924.06 31.50
19517 75.4737 897.40 924.60 31.10
19518 75.4775 994.60 925.18 32.70
19519 75.4812 914.30 925.77 31.40
19520 75.4849 976.10 926.41 33.00
19521 75.4887 944.70 927.06 32.50
19522 75.4924 966.70 927.76 32.60
19523 75.4962 986.30 928.50 33.10
19524 75.4999 961.70 929.25 32.80
19525 75.5038 1002.40 930.06 33.40
19526 75.5074 896.60 930.89 31.80
19527 75.5113 942.80 931.78 32.30
19528 75.5151 930.60 932.72 32.40
19529 75.5188 920.70 933.67 32.10
19530 75.5226 926.20 934.71 32.10
19531 75.5263 963.60 935.76 32.70
19532 75.5301 974.70 936.90 32.80
19533 75.5339 954.40 938.10 32.40
19534 75.5376 999.90 939.33 33.80
19535 75.5414 937.40 940.66 32.30
19536 75.5451 933.90 942.02 32.20
19537 75.5489 972.50 943.50 32.90
19538 75.5527 935.80 945.05 32.10
19539 75.5564 894.90 946.65 31.30
19540 75.5602 1002.20 948.38 33.90
19541 75.5639 1016.10 950.16 33.70
19542 75.5676 984.40 952.09 33.00
19543 75.5714 979.00 954.08 32.90
19544 75.5751 975.40 956.24 32.70
19545 75.5789 1010.20 958.53 33.40
19546 75.5826 1031.30 960.89 33.80
19547 75.5864 980.40 963.46 33.30
19548 75.5901 1014.60 966.11 34.00
19549 75.5939 1030.40 969.00 33.90
19550 75.5978 965.30 972.08 33.10
19551 75.6015 1045.60 975.26 34.40
19552 75.6053 1016.80 978.73 33.80
19553 75.6090 1032.10 982.33 33.70
19554 75.6127 1088.40 986.27 34.70
19555 75.6165 1018.20 990.36 33.60
19556 75.6202 1023.10 994.84 33.90
19557 75.6240 1026.20 999.62 34.40
19558 75.6277 1056.00 1004.59 34.50
19559 75.6316 1132.10 1010.05 35.30
19560 75.6352 1044.40 1015.74 34.40
19561 75.6391 1096.90 1021.98 35.40
19562 75.6429 1144.30 1028.69 35.90
19563 75.6466 1081.80 1035.66 35.20
19564 75.6504 1179.40 1043.35 36.90
19565 75.6541 1078.00 1051.35 35.00
19566 75.6579 1105.90 1060.18 35.30
19567 75.6617 1117.20 1069.63 35.30
19568 75.6654 1186.20 1079.49 36.60
19569 75.6692 1145.40 1090.32 36.00
19570 75.6729 1204.80 1101.61 36.50
19571 75.6767 1178.50 1113.97 37.00
19572 75.6804 1232.90 1126.82 36.90
19573 75.6842 1260.30 1140.84 37.30
19574 75.6879 1229.40 1155.72 37.70
19575 75.6917 1293.30 1171.06 38.10
19576 75.6954 1293.50 1187.60 38.30
19577 75.6992 1299.30 1204.48 38.60
19578 75.7029 1396.80 1222.47 40.20
19579 75.7067 1338.80 1241.06 39.50
19580 75.7104 1399.40 1259.48 40.30
19581 75.7142 1453.50 1278.60 41.00
19582 75.7179 1484.90 1297.04 41.80
19583 75.7217 1430.80 1315.55 40.90
19584 75.7254 1482.10 1332.70 41.70
19585 75.7293 1402.10 1349.09 40.20
19586 75.7331 1517.20 1363.64 41.60
19587 75.7368 1472.30 1375.69 40.90
19588 75.7405 1460.80 1385.42 41.10
19589 75.7443 1508.20 1392.01 41.60
19590 75.7480 1566.90 1395.54 42.80
19591 75.7518 1501.80 1395.65 41.60
19592 75.7555 1546.10 1392.46 41.80
19593 75.7594 1483.70 1385.93 41.70
19594 75.7630 1481.40 1376.63 41.80
19595 75.7669 1433.60 1364.41 40.50
19596 75.7706 1436.70 1350.30 40.30
19597 75.7744 1428.40 1333.98 40.50
19598 75.7782 1326.70 1316.32 38.70
19599 75.7819 1337.90 1298.20 39.30
19600 75.7857 1312.80 1279.10 37.90
19601 75.7894 1295.00 1260.31 38.20
19602 75.7932 1197.60 1241.15 36.80
19603 75.7970 1208.20 1222.34 37.10
19604 75.8007 1171.40 1204.53 36.90
19605 75.8045 1167.80 1186.92 36.40
19606 75.8082 1213.60 1170.49 37.00
19607 75.8120 1164.50 1154.45 36.70
19608 75.8157 1094.70 1139.64 35.30
19609 75.8195 1072.90 1125.29 34.20
19610 75.8232 1085.80 1111.79 34.90
19611 75.8270 1071.40 1099.43 34.60
19612 75.8307 1118.70 1087.55 35.50
19613 75.8344 1019.20 1076.70 33.20
19614 75.8382 1087.10 1066.28 35.50
19615 75.8420 967.50 1056.53 32.70
19616 75.8457 1078.60 1047.68 35.20
19617 75.8495 996.20 1039.15 33.10
19618 75.8532 992.60 1031.40 33.30
19619 75.8571 1129.70 1023.95 35.60
19620 75.8607 988.70 1017.18 34.00
19621 75.8646 1002.80 1010.66 33.30
19622 75.8683 1004.70 1004.56 32.80
19623 75.8721 1038.20 998.99 34.20
19624 75.8758 976.30 993.63 32.90
19625 75.8795 931.40 988.73 32.40
19626 75.8833 997.30 984.01 34.10
19627 75.8870 1044.30 979.67 34.30
19628 75.8908 954.60 975.49 32.90
19629 75.8947 982.70 971.55 33.10
19630 75.8984 999.20 967.95 33.40
19631 75.9022 976.00 964.44 33.30
19632 75.9059 895.10 961.23 31.50
19633 75.9097 977.80 958.10 33.10
19634 75.9135 978.30 954.74 32.50
19635 75.9172 930.40 952.02 32.10
19636 75.9210 928.50 949.37 32.60
19637 75.9247 889.70 946.92 31.80
19638 75.9285 946.00 944.54 32.80
19639 75.9322 941.60 942.34 32.10
19640 75.9360 998.10 940.19 33.20
19641 75.9398 971.70 938.14 33.50
19642 75.9435 933.40 936.24 32.50
19643 75.9473 926.80 934.38 32.30
19644 75.9510 921.30 932.66 32.00
19645 75.9548 927.20 930.97 32.10
19646 75.9585 902.20 929.35 31.00
19647 75.9622 933.60 927.85 32.90
19648 75.9660 965.70 926.37 33.10
19649 75.9697 905.80 924.99 31.80
19650 75.9735 926.90 923.63 31.90
19651 75.9772 950.10 922.37 32.60
19652 75.9810 992.60 921.12 33.30
19653 75.9849 901.10 919.92 31.80
19654 75.9885 901.60 918.80 31.70
19655 75.9924 937.10 917.70 32.20
19656 75.9961 924.20 916.66 32.20
19657 75.9999 960.30 915.64 32.50
19658 76.0036 919.60 914.68 32.10
19659 76.0073 928.30 913.73 32.20
19660 76.0111 914.00 912.82 32.00
19661 76.0148 945.40 911.96 32.40
19662 76.0186 955.20 911.11 32.70
19663 76.0223 962.40 910.30 33.20
19664 76.0262 917.30 909.51 32.30
19665 76.0298 924.10 908.76 32.20
19666 76.0337 951.10 908.02 32.10
19667 76.0375 893.20 907.29 31.50
19668 76.0412 882.20 906.62 31.70
19669 76.0450 913.10 905.94 32.30
19670 76.0487 925.90 905.30 31.80
19671 76.0525 922.90 904.67 31.10
19672 76.0561 874.20 904.07 30.10
19673 76.0600 922.10 903.47 31.80
19674 76.0638 968.10 902.89 31.80
19675 76.0675 899.50 902.34 31.10
19676 76.0713 915.40 901.79 31.00
19677 76.0750 949.00 901.27 31.80
19678 76.0788 924.80 900.76 31.90
19679 76.0825 947.20 900.26 31.60
19680 76.0863 892.60 899.77 30.90
19681 76.0900 935.20 899.29 32.00
19682 76.0938 925.20 898.84 31.60
19683 76.0975 987.50 898.38 32.90
19684 76.1012 886.50 897.95 31.10
19685 76.1050 904.60 897.52 31.50
19686 76.1088 927.40 897.10 32.00
19687 76.1125 873.10 896.70 31.10
19688 76.1163 919.00 896.29 30.90
19689 76.1200 890.00 898.33 31.10
19690 76.1239 892.40 897.97 31.00
19691 76.1276 865.40 897.62 30.60
19692 76.1314 903.40 897.27 31.20
19693 76.1351 973.00 896.93 32.10
19694 76.1388 847.40 896.60 30.50
19695 76.1426 938.50 896.27 32.00
19696 76.1463 971.20 895.96 32.10
19697 76.1501 898.50 895.65 31.40
19698 76.1538 924.40 895.35 31.60
19699 76.1577 952.80 895.06 31.70
19700 76.1613 951.20 894.77 33.00
19701 76.1652 895.70 894.49 31.30
19702 76.1690 932.90 894.21 32.20
19703 76.1727 901.80 893.94 31.50
19704 76.1765 985.90 893.67 32.80
19705 76.1802 979.90 893.41 32.90
19706 76.1839 926.50 893.16 31.90
19707 76.1877 923.20 892.91 31.80
19708 76.1914 900.70 892.66 31.50
19709 76.1953 965.10 892.42 32.40
19710 76.1990 962.00 892.19 32.40
19711 76.2028 900.70 891.96 31.60
19712 76.2065 922.10 891.73 31.50
19713 76.2103 893.90 891.51 31.20
19714 76.2140 871.80 891.29 30.60
19715 76.2178 977.60 891.08 32.90
19716 76.2215 905.60 890.86 31.50
19717 76.2253 857.00 890.66 30.60
19718 76.2290 941.70 890.46 32.00
19719 76.2327 903.00 890.26 31.50
19720 76.2365 950.80 890.06 32.10
19721 76.2402 904.50 889.88 31.70
19722 76.2440 914.00 889.68 31.60
19723 76.2478 907.00 889.50 31.50
19724 76.2515 971.20 889.32 33.00
19725 76.2554 921.40 889.14 31.50
19726 76.2590 934.00 888.96 32.10
19727 76.2629 931.60 888.79 32.60
19728 76.2665 915.10 888.62 32.20
19729 76.2704 946.50 888.45 31.80
19730 76.2741 909.40 888.28 31.40
19731 76.2778 935.50 888.12 32.10
19732 76.2816 894.40 887.96 31.40
19733 76.2853 925.80 887.81 32.00
19734 76.2891 989.60 887.65 33.00
19735 76.2928 862.20 887.50 30.70
19736 76.2967 919.50 887.35 32.00
19737 76.3005 941.40 887.20 32.30
19738 76.3042 908.40 887.06 32.00
19739 76.3080 938.10 886.92 32.30
19740 76.3117 907.80 886.78 31.60
19741 76.3155 883.00 886.64 31.00
19742 76.3192 882.80 886.51 31.20
19743 76.3230 922.20 886.37 31.50
19744 76.3267 910.00 886.24 31.60
19745 76.3305 924.90 886.11 31.70
19746 76.3343 917.20 885.99 31.50
19747 76.3380 992.70 885.86 33.30
19748 76.3418 928.00 885.74 31.90
19749 76.3454 891.60 885.62 31.60
19750 76.3493 904.80 885.50 31.70
19751 76.3529 914.70 885.38 31.50
19752 76.3568 916.60 885.27 31.20
19753 76.3605 895.90 885.15 32.00
19754 76.3643 894.20 885.04 31.20
19755 76.3680 892.70 884.93 31.00
19756 76.3717 894.00 884.83 30.80
19757 76.3755 920.80 884.72 31.90
19758 76.3792 933.30 884.62 31.90
19759 76.3830 863.40 884.51 30.80
19760 76.3868 933.50 884.41 32.00
19761 76.3905 883.70 884.32 30.70
19762 76.3943 896.80 884.22 31.10
19763 76.3980 933.40 884.12 32.30
19764 76.4018 912.70 884.03 31.80
19765 76.4056 963.60 883.94 32.40
19766 76.4093 928.90 883.85 32.10
19767 76.4131 893.30 883.76 31.30
19768 76.4168 866.70 883.67 31.00
19769 76.4206 825.60 883.58 30.20
19770 76.4243 900.80 883.50 32.00
19771 76.4281 844.10 883.42 30.70
19772 76.4318 887.50 883.34 31.40
19773 76.4357 881.30 883.26 31.40
19774 76.4393 915.90 883.18 31.70
19775 76.4432 892.50 883.11 31.70
19776 76.4469 896.70 883.03 31.50
19777 76.4507 859.00 882.96 30.80
19778 76.4545 881.40 882.89 31.20
19779 76.4582 853.50 882.82 30.20
19780 76.4620 860.40 882.75 31.40
19781 76.4657 897.80 882.69 31.70
19782 76.4695 918.70 882.62 31.70
19783 76.4732 861.10 882.56 30.10
19784 76.4770 884.10 882.50 31.20
19785 76.4807 909.20 882.44 31.70
19786 76.4845 879.40 882.38 30.80
19787 76.4882 926.40 882.33 32.10
19788 76.4920 948.40 882.27 31.90
19789 76.4957 879.10 882.22 30.90
19790 76.4995 908.30 882.17 31.80
19791 76.5032 930.40 882.12 31.20
19792 76.5070 869.30 882.07 30.60
19793 76.5107 956.20 882.03 32.30
19794 76.5145 893.10 881.98 31.30
19795 76.5182 913.80 881.94 31.70
19796 76.5220 888.60 881.90 31.20
19797 76.5257 836.20 881.86 31.30
19798 76.5295 889.30 881.83 30.20
19799 76.5332 885.10 881.79 30.10
19800 76.5370 917.50 881.76 30.70
19801 76.5407 915.60 881.73 31.10
19802 76.5446 922.80 881.70 31.10
19803 76.5482 875.20 881.67 30.20
19804 76.5521 893.80 881.64 30.40
19805 76.5558 927.20 881.62 31.00
19806 76.5596 874.40 881.60 29.90
19807 76.5633 909.50 881.58 31.30
19808 76.5670 863.10 881.56 29.90
19809 76.5708 931.40 881.54 31.00
19810 76.5745 893.70 881.53 30.30
19811 76.5783 871.50 881.52 30.10
19812 76.5820 866.50 881.51 30.00
19813 76.5859 886.80 881.50 30.30
19814 76.5897 906.20 881.50 30.70
19815 76.5934 941.20 881.50 31.20
19816 76.5972 955.40 881.50 31.40
19817 76.6009 878.40 881.50 30.40
19818 76.6047 946.60 881.50 31.70
19819 76.6084 893.40 881.51 30.60
19820 76.6122 869.30 881.52 30.00
19821 76.6158 874.90 881.53 30.00
19822 76.6197 926.80 881.55 31.30
19823 76.6235 838.80 881.56 29.30
19824 76.6272 910.40 881.58 31.00
19825 76.6310 914.20 881.61 30.90
19826 76.6347 918.00 881.63 31.00
19827 76.6385 962.10 881.66 31.80
19828 76.6422 910.40 881.69 31.30
19829 76.6460 947.50 881.72 31.90
19830 76.6497 902.10 881.76 30.80
19831 76.6535 858.50 881.80 29.90
19832 76.6572 923.90 881.85 30.80
19833 76.6609 1001.80 881.89 32.50
19834 76.6647 862.10 881.94 30.40
19835 76.6684 918.30 882.00 31.10
19836 76.6722 934.70 882.05 31.40
19837 76.6759 893.30 882.11 30.50
19838 76.6797 985.50 882.18 32.40
19839 76.6834 918.00 882.25 30.90
19840 76.6873 923.70 882.32 31.10
19841 76.6909 909.90 882.39 31.00
19842 76.6948 889.90 882.47 30.20
19843 76.6985 858.20 882.56 30.10
19844 76.7023 924.80 882.65 31.40
19845 76.7060 926.20 882.74 31.10
19846 76.7097 897.10 882.84 30.50
19847 76.7135 926.90 882.94 31.20
19848 76.7172 914.20 883.05 31.10
19849 76.7210 890.30 883.16 30.90
19850 76.7247 884.30 883.28 30.60
19851 76.7286 922.50 883.40 31.20
19852 76.7324 917.10 883.53 30.80
19853 76.7361 913.90 883.66 30.70
19854 76.7399 872.40 883.80 30.60
19855 76.7436 916.80 883.95 30.90
19856 76.7474 918.90 884.10 31.30
19857 76.7511 916.50 884.25 31.00
19858 76.7549 895.50 884.42 30.50
19859 76.7586 879.70 884.59 30.10
19860 76.7624 955.70 884.77 32.40
19861 76.7661 869.30 884.95 30.40
19862 76.7699 929.90 885.14 31.60
19863 76.7737 942.60 885.34 31.20
19864 76.7774 887.70 885.55 30.70
19865 76.7812 909.90 885.77 31.30
19866 76.7848 907.10 885.99 30.80
19867 76.7887 819.60 886.22 29.30
19868 76.7923 900.40 884.49 30.90
19869 76.7962 875.70 884.76 30.40
19870 76.7998 885.40 885.03 30.70
19871 76.8036 899.70 885.32 30.80
19872 76.8073 883.70 885.61 30.30
19873 76.8111 940.80 885.92 31.60
19874 76.8149 925.50 886.24 31.20
19875 76.8186 923.50 886.57 31.30
19876 76.8224 883.40 886.91 30.20
19877 76.8261 854.50 887.26 30.10
19878 76.8299 901.70 887.63 30.90
19879 76.8336 873.80 888.00 30.30
19880 76.8375 905.10 888.40 30.90
19881 76.8411 944.30 888.80 32.00
19882 76.8450 934.90 889.23 31.40
19883 76.8487 872.20 889.66 30.20
19884 76.8525 862.50 890.12 30.20
19885 76.8562 913.50 890.59 30.80
19886 76.8599 912.80 891.09 30.70
19887 76.8637 912.10 891.60 31.40
19888 76.8674 909.00 892.12 31.10
19889 76.8712 884.50 892.68 30.40
19890 76.8749 890.00 893.24 30.40
19891 76.8788 912.90 893.84 30.90
19892 76.8824 911.30 894.45 31.00
19893 76.8863 901.90 895.10 31.10
19894 76.8900 902.40 895.75 30.80
19895 76.8938 890.80 896.46 31.10
19896 76.8975 886.60 897.17 31.10
19897 76.9013 942.20 897.93 31.80
19898 76.9050 908.90 898.70 31.00
19899 76.9088 882.70 899.52 30.60
19900 76.9126 883.80 900.38 30.60
19901 76.9163 923.40 901.25 31.00
19902 76.9201 900.70 902.18 31.00
19903 76.9238 930.20 903.13 31.60
19904 76.9276 925.10 904.15 31.00
19905 76.9313 978.30 905.18 31.90
19906 76.9351 949.30 906.29 31.70
19907 76.9388 919.10 907.41 31.40
19908 76.9426 906.40 908.62 31.40
19909 76.9463 967.20 909.85 32.00
19910 76.9501 900.90 911.18 30.90
19911 76.9538 887.60 912.52 30.70
19912 76.9576 920.80 914.36 30.70
19913 76.9613 884.20 915.88 30.70
19914 76.9650 923.80 917.44 31.80
19915 76.9688 947.10 919.11 31.70
19916 76.9725 992.80 920.82 32.30
19917 76.9763 935.00 922.66 31.50
19918 76.9800 942.50 924.55 31.50
19919 76.9838 987.80 926.58 32.50
19920 76.9875 950.20 928.66 31.70
19921 76.9893 933.60 929.66 31.30
19922 76.9930 907.90 931.96 31.40
19923 76.9968 931.50 934.39 31.90
19924 77.0005 998.70 936.88 33.30
19925 77.0043 909.80 939.58 31.70
19926 77.0080 964.90 942.35 32.60
19927 77.0118 915.10 945.37 32.80
19928 77.0155 967.60 948.46 31.60
19929 77.0194 938.10 951.83 31.20
19930 77.0230 1040.20 955.29 32.90
19931 77.0269 1014.30 959.07 32.90
19932 77.0306 976.90 962.97 32.10
19933 77.0344 1013.70 967.20 32.60
19934 77.0381 1017.50 971.71 32.60
19935 77.0418 977.10 976.37 32.00
19936 77.0456 989.80 981.45 32.00
19937 77.0493 1028.90 986.72 33.50
19938 77.0531 984.80 992.48 32.10
19939 77.0568 1009.40 998.46 32.40
19940 77.0607 1038.50 1005.00 32.90
19941 77.0643 1059.50 1011.80 33.40
19942 77.0682 1024.80 1019.24 32.80
19943 77.0720 1025.50 1027.21 32.70
19944 77.0757 1040.10 1035.48 33.10
19945 77.0795 1055.40 1044.58 33.20
19946 77.0832 1099.60 1054.03 33.90
19947 77.0870 1050.00 1064.42 33.50
19948 77.0906 1046.30 1075.22 33.50
19949 77.0945 1085.90 1087.10 34.00
19950 77.0981 1080.20 1099.43 33.70
19951 77.1020 1127.80 1112.97 34.40
19952 77.1058 1143.40 1127.41 35.00
19953 77.1095 1137.40 1142.40 34.40
19954 77.1133 1140.40 1158.75 34.90
19955 77.1170 1196.90 1175.65 35.70
19956 77.1208 1230.10 1193.99 36.20
19957 77.1245 1187.40 1212.83 35.60
19958 77.1283 1125.10 1233.10 35.00
19959 77.1320 1305.40 1253.71 37.80
19960 77.1357 1258.70 1275.62 36.80
19961 77.1395 1278.10 1298.14 36.90
19962 77.1432 1349.40 1320.48 37.60
19963 77.1470 1347.00 1343.52 38.10
19964 77.1507 1399.90 1365.78 39.30
19965 77.1545 1342.70 1388.00 38.00
19966 77.1582 1377.00 1408.62 38.60
19967 77.1620 1250.90 1428.22 36.50
19968 77.1657 1392.80 1445.30 39.00
19969 77.1695 1419.00 1460.25 39.00
19970 77.1732 1436.40 1471.79 39.30
19971 77.1771 1364.70 1480.19 38.40
19972 77.1808 1426.40 1484.73 38.80
19973 77.1846 1419.90 1485.30 39.30
19974 77.1883 1386.60 1481.91 39.00
19975 77.1920 1422.40 1474.84 39.10
19976 77.1958 1378.50 1464.01 38.40
19977 77.1995 1298.80 1450.31 37.30
19978 77.2033 1343.50 1433.50 38.20
19979 77.2070 1393.10 1414.93 39.20
19980 77.2109 1362.10 1394.14 38.50
19981 77.2145 1266.10 1372.69 36.90
19982 77.2184 1262.20 1349.93 36.50
19983 77.2191 1257.90 1345.08 36.90
19984 77.2228 1262.70 1322.54 36.80
19985 77.2266 1241.40 1299.50 36.60
19986 77.2305 1172.50 1276.83 35.50
19987 77.2342 1081.60 1255.30 34.20
19988 77.2380 1196.70 1234.02 35.80
19989 77.2417 1080.20 1214.07 34.40
19990 77.2455 1116.70 1194.50 34.60
19991 77.2492 1106.80 1176.45 34.80
19992 77.2530 1106.90 1158.86 34.40
19993 77.2567 1060.00 1142.75 33.40
19994 77.2605 988.40 1127.13 32.80
19995 77.2642 1102.60 1112.88 34.90
19996 77.2680 1063.60 1099.12 34.00
19997 77.2717 1033.10 1086.59 33.40
19998 77.2755 1019.30 1074.50 32.90
19999 77.2791 999.60 1063.51 32.80
20000 77.2830 986.80 1052.92 32.50
20001 77.2868 948.40 1043.03 32.20
20002 77.2905 931.80 1034.01 31.90
20003 77.2943 1004.90 1025.34 33.20
20004 77.2980 983.30 1017.43 32.80
20005 77.3018 980.00 1009.82 32.50
20006 77.3055 960.80 1002.86 32.60
20007 77.3092 954.80 996.16 32.20
20008 77.3130 911.70 990.03 31.30
20009 77.3167 949.50 984.13 31.90
20010 77.3204 950.40 978.71 32.00
20011 77.3242 964.90 973.48 32.40
20012 77.3279 928.00 968.68 32.20
20013 77.3317 968.40 964.04 32.60
20014 77.3355 894.10 959.67 31.20
20015 77.3392 942.70 955.65 32.20
20016 77.3430 940.60 951.74 32.00
20017 77.3467 912.40 948.15 31.80
20018 77.3505 963.00 944.66 32.70
20019 77.3543 927.10 941.43 31.60
20020 77.3580 888.40 938.30 30.50
20021 77.3618 939.90 935.41 32.30
20022 77.3655 930.90 932.59 32.00
20023 77.3693 946.80 929.98 32.10
20024 77.3730 948.80 927.43 32.30
20025 77.3767 884.70 925.08 30.50
20026 77.3805 947.30 922.77 31.40
20027 77.3842 921.90 920.63 31.90
20028 77.3880 906.00 918.53 31.30
20029 77.3917 914.50 916.59 31.40
20030 77.3956 900.10 914.68 31.30
20031 77.3994 924.70 912.87 31.50
20032 77.4031 874.50 911.17 30.60
20033 77.4069 856.60 909.51 30.60
20034 77.4106 920.20 907.96 31.70
20035 77.4144 907.30 906.44 31.40
20036 77.4181 817.50 905.02 29.90
20037 77.4219 875.90 903.62 30.60
20038 77.4256 931.90 902.31 31.50
20039 77.4294 961.50 901.02 32.20
20040 77.4331 941.80 899.82 32.00
20041 77.4369 864.40 898.63 30.90
20042 77.4407 949.10 897.49 32.40
20043 77.4444 888.70 896.42 31.00
20044 77.4482 872.40 895.37 30.90
20045 77.4519 924.90 894.38 31.80
20046 77.4557 834.50 893.40 29.80
20047 77.4594 896.00 892.48 30.90
20048 77.4632 845.30 891.58 30.70
20049 77.4669 901.40 890.73 31.50
20050 77.4706 875.70 889.88 30.80
20051 77.4743 960.40 889.09 32.20
20052 77.4781 844.70 888.30 30.00
20053 77.4818 888.30 887.56 30.80
20054 77.4856 853.50 886.83 30.40
20055 77.4894 923.60 886.12 31.70
20056 77.4931 836.30 885.46 30.10
20057 77.4969 923.40 884.79 31.50
20058 77.5006 941.50 884.17 32.00
20059 77.5045 895.30 883.55 31.30
20060 77.5082 984.40 882.97 32.90
20061 77.5120 870.40 882.39 30.90
20062 77.5157 894.10 881.84 31.30
20063 77.5194 876.00 881.30 30.70
20064 77.5232 925.40 880.78 32.10
20065 77.5269 834.10 880.27 30.20
20066 77.5307 897.60 879.78 31.30
20067 77.5344 892.40 879.31 31.20
20068 77.5383 884.30 878.84 31.20
20069 77.5419 954.90 878.40 32.80
20070 77.5458 835.60 877.97 30.60
20071 77.5495 831.80 877.55 30.20
20072 77.5533 888.90 877.14 31.10
20073 77.5570 868.00 876.75 30.20
20074 77.5608 836.00 876.36 30.60
20075 77.5645 944.10 875.99 32.40
20076 77.5683 892.70 875.63 31.00
20077 77.5721 879.60 875.27 30.30
20078 77.5758 816.20 874.94 29.60
20079 77.5796 893.30 874.60 31.10
20080 77.5833 895.30 874.29 31.60
20081 77.5871 856.60 873.97 30.50
20082 77.5908 904.60 873.67 31.70
20083 77.5946 894.60 873.37 31.70
20084 77.5983 892.20 873.09 31.40
20085 77.6021 928.20 872.81 32.30
20086 77.6057 866.40 872.55 30.80
20087 77.6096 840.10 872.28 30.50
20088 77.6133 882.60 872.03 31.20
20089 77.6171 902.00 871.78 31.80
20090 77.6208 844.90 871.54 30.60
20091 77.6245 852.80 871.31 31.00
20092 77.6283 873.40 871.09 31.10
20093 77.6320 903.80 870.87 31.60
20094 77.6358 868.90 870.66 30.70
20095 77.6395 921.00 870.46 31.90
20096 77.6433 896.30 870.26 31.10
20097 77.6471 895.40 870.07 31.30
20098 77.6508 875.40 869.88 31.10
20099 77.6546 939.10 869.70 31.90
20100 77.6584 811.80 869.53 29.60
20101 77.6621 863.80 869.37 31.40
20102 77.6734 928.20 868.91 31.70
20103 77.6771 836.90 868.76 30.90
20104 77.6808 928.30 868.63 32.00
20105 77.6846 861.90 868.50 30.20
20106 77.6885 897.10 868.37 31.20
20107 77.6921 906.30 868.26 31.40
20108 77.6960 897.20 868.14 31.40
20109 77.6997 918.30 868.03 31.80
20110 77.7035 919.30 867.93 31.80
20111 77.7072 878.60 867.84 31.10
20112 77.7110 889.20 867.75 31.40
20113 77.7147 890.30 867.67 31.10
20114 77.7185 792.20 867.59 29.30
20115 77.7223 888.20 867.52 31.40
20116 77.7260 858.40 867.45 30.60
20117 77.7298 851.20 867.39 30.60
20118 77.7335 904.90 867.34 31.50
20119 77.7373 844.80 867.29 30.00
20120 77.7410 892.00 867.25 31.40
20121 77.7448 887.80 867.22 30.90
20122 77.7485 924.20 867.19 31.90
20123 77.7523 887.30 867.17 31.20
20124 77.7560 872.80 867.16 30.30
20125 77.7598 901.70 867.16 31.10
20126 77.7635 853.30 867.16 31.00
20127 77.7673 902.90 867.17 31.50
20128 77.7710 847.70 867.19 30.30
20129 77.7747 919.00 867.21 31.70
20130 77.7785 900.10 867.25 31.50
20131 77.7822 874.20 867.29 30.40
20132 77.7860 866.90 867.34 30.60
20133 77.7898 807.80 867.41 30.10
20134 77.7935 899.90 867.48 31.50
20135 77.7974 886.60 867.56 31.40
20136 77.8010 860.60 867.65 30.90
20137 77.8049 883.10 867.76 30.80
20138 77.8086 894.60 867.87 30.70
20139 77.8124 854.50 868.00 30.80
20140 77.8161 830.50 868.14 30.00
20141 77.8198 872.10 868.29 31.10
20142 77.8235 863.10 868.46 30.20
20143 77.8273 848.20 868.64 30.40
20144 77.8311 840.20 868.84 30.10
20145 77.8348 873.80 869.05 30.30
20146 77.8387 907.60 869.29 31.40
20147 77.8423 848.40 869.53 30.10
20148 77.8462 856.40 869.81 30.50
20149 77.8499 860.90 870.09 30.90
20150 77.8537 819.30 870.41 29.50
20151 77.8575 900.60 870.75 30.10
20152 77.8612 856.20 871.10 30.80
20153 77.8650 845.30 871.49 30.00
20154 77.8686 848.40 871.90 30.30
20155 77.8725 849.50 872.34 30.30
20156 77.8761 847.40 872.81 29.80
20157 77.8800 916.30 873.33 31.40
20158 77.8836 853.10 873.86 30.10
20159 77.8875 930.80 874.45 32.00
20160 77.8913 813.40 875.08 29.80
20161 77.8950 861.70 875.74 30.70
20162 77.8988 860.90 876.46 30.60
20163 77.9025 938.90 877.22 32.10
20164 77.9063 906.50 878.05 31.40
20165 77.9100 849.30 878.92 30.60
20166 77.9137 902.90 879.87 31.40
20167 77.9175 919.20 880.89 31.40
20168 77.9212 916.60 881.96 31.80
20169 77.9250 863.00 883.14 30.50
20170 77.9287 878.40 884.36 30.90
20171 77.9325 910.40 885.71 31.50
20172 77.9362 936.10 887.12 31.70
20173 77.9401 848.60 888.68 30.40
20174 77.9437 872.90 890.29 30.30
20175 77.9476 938.80 892.08 32.20
20176 77.9513 875.10 893.99 30.60
20177 77.9551 887.00 895.98 31.00
20178 77.9588 879.50 898.16 29.90
20179 77.9625 875.90 900.43 31.00
20180 77.9663 924.00 902.91 31.30
20181 77.9700 902.50 905.48 31.30
20182 77.9738 855.10 908.27 30.40
20183 77.9775 892.20 911.14 30.60
20184 77.9814 921.70 914.25 31.60
20185 77.9852 918.20 917.50 31.50
20186 77.9889 914.00 920.79 31.30
20187 77.9927 862.80 924.28 30.80
20188 77.9964 952.20 927.77 32.30
20189 78.0002 936.70 931.39 32.10
20190 78.0039 943.50 934.92 32.20
20191 78.0077 997.10 938.48 33.00
20192 78.0115 905.70 941.93 31.20
20193 78.0152 954.80 945.09 32.10
20194 78.0190 920.80 948.07 31.80
20195 78.0227 959.50 950.62 32.40
20196 78.0265 956.60 952.82 32.20
20197 78.0302 993.90 954.46 32.90
20198 78.0340 914.60 955.58 31.40
20199 78.0378 966.50 956.10 32.20
20200 78.0415 971.10 955.99 32.70
20201 78.0452 905.00 955.26 31.70
20202 78.0490 990.40 953.96 33.10
20203 78.0527 949.00 952.08 32.30
20204 78.0564 959.40 949.77 32.20
20205 78.0602 903.70 946.98 31.20
20206 78.0640 955.80 943.85 32.60
20207 78.0677 879.90 940.55 31.00
20208 78.0715 891.60 936.99 31.10
20209 78.0752 980.90 933.41 32.60
20210 78.0790 926.70 929.69 31.60
20211 78.0827 892.80 926.09 31.30
20212 78.0865 925.10 922.43 31.90
20213 78.0903 896.40 918.97 31.50
20214 78.0940 925.50 915.52 31.60
20215 78.0978 904.00 912.21 31.60
20216 78.1015 878.80 909.14 31.20
20217 78.1053 855.60 906.13 30.60
20218 78.1090 884.80 903.36 31.10
20219 78.1128 934.00 900.67 32.10
20220 78.1165 890.30 898.22 31.20
20221 78.1204 825.00 895.83 29.60
20222 78.1242 930.40 893.61 31.90
20223 78.1279 891.40 891.57 31.30
20224 78.1317 847.00 889.62 30.40
20225 78.1354 911.10 887.84 31.50
20226 78.1392 887.70 886.13 30.90
20227 78.1429 851.40 884.57 30.30
20228 78.1467 886.40 883.08 31.20
20229 78.1505 838.90 881.69 30.20
20230 78.1542 876.00 880.43 31.10
20231 78.1579 861.10 879.22 30.50
20232 78.1617 851.20 878.11 30.90
20233 78.1654 887.40 877.06 31.00
20234 78.1692 894.20 876.10 30.90
20235 78.1729 862.20 875.19 30.40
20236 78.1768 865.20 874.34 30.60
20237 78.1804 873.70 873.57 30.80
20238 78.1842 886.00 872.84 31.00
20239 78.1879 865.90 872.18 30.60
20240 78.1917 870.00 871.55 30.30
20241 78.1954 904.10 870.99 31.30
20242 78.1992 920.00 870.46 31.50
20243 78.2030 885.10 869.98 31.20
20244 78.2067 855.30 869.55 30.40
20245 78.2105 842.00 869.15 30.20
20246 78.2142 900.60 868.80 31.50
20247 78.2181 819.20 868.48 29.50
20248 78.2217 859.00 868.21 30.50
20249 78.2256 883.90 867.97 31.00
20250 78.2293 846.30 867.78 30.50
20251 78.2331 892.90 867.61 30.80
20252 78.2368 843.90 867.49 30.10
20253 78.2405 868.60 867.41 30.80
20254 78.2443 842.20 867.36 30.00
20255 78.2480 877.20 867.35 31.20
20256 78.2518 839.10 864.94 30.00
20257 78.2557 891.00 865.02 30.80
20258 78.2594 892.00 865.14 30.50
20259 78.2632 915.50 865.29 32.20
20260 78.2669 913.40 865.47 31.60
20261 78.2707 945.60 865.69 32.10
20262 78.2744 838.90 865.93 29.80
20263 78.2782 863.40 866.20 30.40
20264 78.2820 884.40 866.49 31.00
20265 78.2857 846.40 866.79 30.70
20266 78.2895 875.10 867.11 31.00
20267 78.2932 835.70 867.41 29.80
20268 78.2970 853.40 867.71 30.50
20269 78.3007 850.80 867.97 29.90
20270 78.3045 848.10 868.21 30.20
20271 78.3082 875.60 868.40 30.80
20272 78.3120 918.50 868.52 31.50
20273 78.3157 903.40 868.58 31.30
20274 78.3195 845.10 868.55 30.30
20275 78.3232 868.80 868.45 30.80
20276 78.3270 849.50 868.26 30.40
20277 78.3307 941.50 867.98 31.90
20278 78.3345 902.70 867.62 31.30
20279 78.3382 839.50 867.20 29.90
20280 78.3420 888.80 866.69 31.20
20281 78.3457 863.80 866.15 30.50
20282 78.3495 835.70 865.68 30.10
20283 78.3532 828.00 865.06 30.30
20284 78.3571 871.30 864.41 30.50
20285 78.3609 857.60 863.74 30.50
20286 78.3646 836.30 863.09 30.20
20287 78.3683 918.70 862.43 31.40
20288 78.3721 836.20 861.80 29.70
20289 78.3758 852.40 861.17 30.40
20290 78.3795 857.30 860.58 30.70
20291 78.3833 857.10 859.99 30.70
20292 78.3872 857.00 859.42 30.40
20293 78.3908 858.00 858.90 30.20
20294 78.3947 863.20 858.38 30.60
20295 78.3984 859.40 857.91 30.40
20296 78.4022 847.80 857.44 30.40
20297 78.4060 875.10 857.00 30.60
20298 78.4097 858.00 856.59 30.30
20299 78.4135 856.90 856.20 30.60
20300 78.4172 833.50 855.83 29.90
20301 78.4210 853.20 855.48 29.80
20302 78.4247 913.20 855.15 31.70
20303 78.4285 861.80 854.83 30.20
20304 78.4323 829.10 854.53 30.00
20305 78.4360 842.80 854.25 29.50
20306 78.4398 843.90 853.98 30.20
20307 78.4435 864.10 853.73 30.20
20308 78.4473 793.70 853.48 29.40
20309 78.4510 898.80 853.25 31.00
20310 78.4548 859.70 853.03 30.70
20311 78.4585 839.70 852.82 29.80
20312 78.4622 848.40 852.62 30.60
20313 78.4660 843.50 852.42 30.10
20314 78.4697 810.00 852.24 29.00
20315 78.4735 850.90 852.07 30.20
20316 78.4773 870.10 851.90 30.90
20317 78.4810 828.60 851.74 29.90
20318 78.4849 846.50 851.58 30.40
20319 78.4885 813.00 851.43 29.60
20320 78.4924 904.80 851.29 31.40
20321 78.4961 812.00 851.15 29.70
20322 78.4999 859.80 851.02 30.60
20323 78.5036 847.00 850.89 30.20
20324 78.5073 803.60 850.76 29.50
20325 78.5111 861.30 850.64 30.60
20326 78.5148 872.70 850.53 30.80
20327 78.5186 848.80 850.41 30.00
20328 78.5223 872.50 850.30 30.70
20329 78.5262 820.60 850.20 30.00
20330 78.5300 914.70 850.09 31.70
20331 78.5337 820.60 850.00 30.00
20332 78.5375 832.60 849.90 30.00
20333 78.5412 865.10 849.81 31.00
20334 78.5450 862.80 849.72 30.30
20335 78.5488 828.10 849.62 29.80
20336 78.5525 805.80 849.54 29.60
20337 78.5563 865.50 849.46 30.50
20338 78.5600 833.40 849.37 29.60
20339 78.5638 847.70 849.29 31.30
20340 78.5675 840.10 849.22 30.40
20341 78.5713 856.10 849.14 30.20
20342 78.5751 865.40 849.06 30.70
20343 78.5788 859.50 848.99 30.80
20344 78.5825 853.70 848.92 30.60
20345 78.5863 873.00 848.85 30.20
20346 78.5900 858.10 848.78 30.50
20347 78.5938 869.10 848.71 30.70
20348 78.5975 859.40 848.65 30.60
20349 78.6013 903.80 848.58 31.60
20350 78.6050 847.00 848.52 30.20
20351 78.6088 846.70 848.46 30.10
20352 78.6125 837.60 848.40 30.00
20353 78.6163 820.70 848.34 29.50
20354 78.6202 901.70 848.28 31.30
20355 78.6239 872.80 848.22 30.90
20356 78.6277 814.80 848.16 29.80
20357 78.6314 907.90 848.11 31.60
20358 78.6351 822.40 848.05 30.00
20359 78.6388 828.70 848.00 30.10
20360 78.6426 851.40 847.95 30.60
20361 78.6464 827.40 847.90 30.10
20362 78.6501 847.40 847.84 30.50
20363 78.6540 840.50 847.79 30.40
20364 78.6577 865.60 847.74 30.90
20365 78.6615 831.70 847.70 29.50
20366 78.6653 880.80 847.65 31.80
20367 78.6690 807.20 847.60 29.50
20368 78.6728 863.40 847.55 30.60
20369 78.6765 852.10 847.51 30.10
20370 78.6803 832.00 847.46 30.20
20371 78.6840 827.30 847.42 29.80
20372 78.6878 879.30 847.37 31.10
20373 78.6916 849.00 847.33 30.30
20374 78.6953 887.40 847.28 31.40
20375 78.6991 830.20 847.24 29.80
20376 78.7028 827.40 847.20 30.10
20377 78.7066 861.50 847.16 30.70
20378 78.7103 858.30 847.11 30.60
20379 78.7141 818.60 847.07 29.90
20380 78.7178 909.50 847.03 31.90
20381 78.7215 851.40 846.99 30.30
20382 78.7253 814.00 846.95 29.70
20383 78.7291 830.20 846.91 30.00
20384 78.7328 809.40 846.88 30.00
20385 78.7366 876.40 846.84 31.00
20386 78.7403 875.20 846.80 31.10
20387 78.7441 877.20 846.76 31.20
20388 78.7478 828.20 846.73 30.20
20389 78.7517 832.50 846.69 30.40
20390 78.7555 830.00 846.65 29.80
20391 78.7592 887.30 846.62 30.30
20392 78.7629 854.20 846.58 30.40
20393 78.7666 874.80 846.55 31.40
20394 78.7704 854.80 846.51 30.70
20395 78.7742 834.50 846.48 30.00
20396 78.7779 779.50 846.44 29.20
20397 78.7818 825.30 846.41 30.00
20398 78.7855 852.70 846.38 30.60
20399 78.7893 860.70 846.34 30.80
20400 78.7930 857.20 846.31 30.70
20401 78.7968 835.20 846.28 30.20
20402 78.8006 836.40 846.24 30.30
20403 78.8043 837.50 846.21 30.00
20404 78.8081 835.70 846.18 30.40
20405 78.8118 864.80 846.15 30.60
20406 78.8156 825.20 846.12 30.10
20407 78.8194 864.40 846.09 30.70
20408 78.8231 825.00 846.06 29.90
20409 78.8269 876.80 846.03 30.90
20410 78.8306 782.90 846.00 29.30
20411 78.8344 801.90 845.97 29.40
20412 78.8381 890.80 845.94 31.30
20413 78.8419 833.10 845.91 29.80
20414 78.8456 831.30 845.88 30.20
20415 78.8493 835.80 845.85 30.10
20416 78.8531 842.40 845.82 30.20
20417 78.8568 835.30 845.80 30.10
20418 78.8606 821.80 845.77 29.10
20419 78.8644 877.60 845.74 31.60
20420 78.8681 839.30 845.71 30.20
20421 78.8719 825.50 845.68 29.80
20422 78.8756 832.10 845.66 30.00
20423 78.8795 856.20 845.63 30.60
20424 78.8833 845.00 845.60 30.10
20425 78.8870 893.80 845.58 31.00
20426 78.8907 841.70 845.55 30.00
20427 78.8944 878.40 845.53 31.10
20428 78.8982 856.00 845.50 30.10
20429 78.9019 830.60 845.48 30.00
20430 78.9057 844.80 845.45 30.30
20431 78.9096 863.80 845.43 30.70
20432 78.9133 811.70 845.40 29.50
20433 78.9171 841.80 845.38 30.20
20434 78.9208 857.80 845.35 30.70
20435 78.9246 846.20 845.33 30.10
20436 78.9284 853.50 845.31 29.70
20437 78.9321 871.50 845.28 30.70
20438 78.9359 836.90 845.26 29.60
20439 78.9396 930.10 845.24 31.60
20440 78.9434 903.90 845.22 31.80
20441 78.9472 864.30 845.19 30.60
20442 78.9509 870.40 845.17 30.80
20443 78.9547 818.10 845.15 30.00
20444 78.9584 856.60 845.13 30.00
20445 78.9622 848.30 845.11 30.50
20446 78.9659 804.10 845.09 30.10
20447 78.9697 816.10 845.07 29.50
20448 78.9734 832.50 845.04 29.30
20449 78.9771 813.10 845.03 29.90
20450 78.9809 850.00 845.01 30.40
20451 78.9846 813.10 844.99 29.70
20452 78.9884 807.40 844.97 29.70
20453 78.9922 844.50 844.95 30.20
20454 78.9959 818.80 844.93 29.90
20455 78.9998 847.80 844.91 30.30
20456 79.0034 818.60 844.89 29.70
20457 79.0073 830.10 844.88 29.90
20458 79.0110 893.20 844.86 31.20
20459 79.0148 839.40 844.84 30.00
20460 79.0185 758.60 844.83 28.60
20461 79.0222 872.60 844.81 30.60
20462 79.0260 834.20 844.79 30.30
20463 79.0297 803.60 844.78 29.20
20464 79.0335 898.20 844.76 31.30
20465 79.0374 825.00 844.75 29.80
20466 79.0411 857.70 844.73 30.50
20467 79.0449 873.80 844.72 30.90
20468 79.0486 814.00 844.71 30.10
20469 79.0524 829.70 844.70 30.10
20470 79.0562 825.90 844.68 29.70
20471 79.0599 886.40 844.67 30.40
20472 79.0637 900.90 844.66 31.70
20473 79.0674 858.40 844.65 30.70
20474 79.0712 816.50 844.64 29.80
20475 79.0750 881.40 844.63 30.90
20476 79.0787 857.00 844.62 30.50
20477 79.0825 826.20 844.61 29.40
20478 79.0862 828.50 844.60 29.90
20479 79.0900 835.50 844.60 30.10
20480 79.0938 811.50 844.59 29.80
20481 79.0975 851.00 844.58 30.40
20482 79.1012 888.50 844.58 30.80
20483 79.1049 811.90 844.57 29.10
20484 79.1087 815.60 844.57 29.80
20485 79.1125 847.50 844.57 30.20
20486 79.1162 823.40 844.56 30.10
20487 79.1200 796.50 844.56 29.80
20488 79.1237 811.30 844.17 29.60
20489 79.1276 818.80 844.17 29.50
20490 79.1312 855.50 844.17 30.30
20491 79.1351 815.20 844.18 29.50
20492 79.1388 870.00 844.18 30.60
20493 79.1426 855.60 844.19 30.60
20494 79.1463 871.80 844.20 30.20
20495 79.1500 801.20 844.21 29.30
20496 79.1538 825.80 844.22 29.90
20497 79.1577 832.20 844.23 29.80
20498 79.1613 831.60 844.24 29.40
20499 79.1652 824.20 844.26 30.30
20500 79.1689 840.80 844.27 30.00
20501 79.1727 915.40 844.29 31.30
20502 79.1765 795.70 844.31 29.10
20503 79.1802 855.50 844.33 30.30
20504 79.1840 862.10 846.33 30.30
20505 79.1877 888.70 846.37 30.90
20506 79.1915 837.10 846.41 29.90
20507 79.1952 823.70 846.45 29.70
20508 79.1990 855.50 846.49 30.40
20509 79.2028 798.70 846.54 29.40
20510 79.2065 867.10 846.59 30.60
20511 79.2103 862.70 846.64 30.50
20512 79.2140 827.40 846.69 29.80
20513 79.2178 829.20 846.75 29.90
20514 79.2215 841.70 846.81 30.20
20515 79.2253 837.70 846.88 30.00
20516 79.2290 784.00 846.94 28.90
20517 79.2327 822.50 847.01 29.90
20518 79.2365 890.40 847.09 30.90
20519 79.2403 860.70 847.17 30.50
20520 79.2440 815.80 847.25 29.90
20521 79.2478 820.90 847.34 30.10
20522 79.2515 819.00 847.43 29.90
20523 79.2554 851.20 847.53 30.40
20524 79.2592 862.40 847.63 30.10
20525 79.2629 826.20 847.74 29.80
20526 79.2666 853.20 847.85 30.80
20527 79.2704 843.90 847.97 30.10
20528 79.2741 819.40 848.10 29.50
20529 79.2778 870.00 848.23 30.40
20530 79.2816 853.20 848.38 29.90
20531 79.2855 820.80 848.53 29.90
20532 79.2891 881.00 848.69 30.80
20533 79.2930 874.40 848.86 30.90
20534 79.2967 839.20 849.04 30.00
20535 79.3005 795.50 849.23 29.40
20536 79.3043 841.90 849.44 30.20
20537 79.3080 836.50 849.65 30.00
20538 79.3118 841.60 849.88 30.30
20539 79.3155 847.60 850.12 30.30
20540 79.3193 849.00 850.38 30.30
20541 79.3231 822.40 850.66 30.00
20542 79.3268 833.20 850.95 30.10
20543 79.3306 872.10 851.26 30.80
20544 79.3343 824.30 851.59 29.80
20545 79.3381 800.20 851.95 29.40
20546 79.3419 861.60 852.33 30.50
20547 79.3455 867.30 852.73 30.70
20548 79.3493 817.30 853.16 29.60
20549 79.3530 849.10 853.62 30.30
20550 79.3568 825.20 854.11 29.60
20551 79.3606 856.10 854.64 29.80
20552 79.3643 876.80 855.19 31.30
20553 79.3681 828.60 855.79 29.90
20554 79.3718 852.90 856.42 30.10
20555 79.3756 836.30 857.10 30.10
20556 79.3794 791.80 857.84 29.10
20557 79.3832 867.20 858.59 30.80
20558 79.3869 793.70 859.41 29.00
20559 79.3907 883.50 860.26 31.00
20560 79.3944 848.20 861.18 30.40
20561 79.3982 838.70 862.12 30.20
20562 79.4019 870.70 863.14 30.60
20563 79.4057 920.90 864.19 31.70
20564 79.4094 817.20 865.26 29.70
20565 79.4133 876.70 866.33 30.90
20566 79.4169 897.40 867.45 30.70
20567 79.4208 884.20 868.61 30.60
20568 79.4246 798.70 869.77 29.50
20569 79.4283 846.50 870.88 30.30
20570 79.4321 904.30 871.97 31.20
20571 79.4358 835.20 872.97 29.90
20572 79.4396 895.00 873.91 31.10
20573 79.4434 882.80 874.74 30.60
20574 79.4471 852.10 875.41 30.50
20575 79.4508 872.20 875.95 30.70
20576 79.4546 820.00 876.29 29.90
20577 79.4583 852.50 876.47 30.30
20578 79.4622 879.40 876.97 30.90
20579 79.4658 908.20 876.76 31.80
20580 79.4697 859.60 876.36 30.50
20581 79.4733 845.70 875.82 30.10
20582 79.4771 843.50 875.10 30.20
20583 79.4809 876.80 874.24 30.60
20584 79.4846 874.60 873.31 30.90
20585 79.4884 851.60 872.27 30.30
20586 79.4921 839.00 871.20 29.90
20587 79.4959 851.50 870.06 30.10
20588 79.4997 869.70 868.90 30.40
20589 79.5034 822.30 867.78 30.20
20590 79.5072 856.60 866.63 30.70
20591 79.5110 852.90 865.54 30.50
20592 79.5147 833.00 864.45 30.20
20593 79.5185 813.50 863.43 29.80
20594 79.5222 836.20 862.43 30.00
20595 79.5260 818.40 861.48 29.70
20596 79.5297 787.30 860.60 29.10
20597 79.5335 824.00 859.74 29.80
20598 79.5372 890.30 858.95 30.70
20599 79.5411 820.60 858.19 29.80
20600 79.5449 844.30 857.48 30.10
20601 79.5486 850.80 856.82 30.70
20602 79.5524 818.80 856.20 29.70
20603 79.5561 856.00 855.62 30.30
20604 79.5599 819.90 855.07 29.30
20605 79.5636 783.10 854.55 29.80
20606 79.5674 854.20 854.09 30.70
20607 79.5711 875.80 853.64 30.80
20608 79.5749 836.80 853.22 29.60
20609 79.5786 831.90 852.83 30.00
20610 79.5825 808.10 852.46 29.90
20611 79.5861 783.50 852.13 29.20
20612 79.5900 813.60 851.80 29.70
20613 79.5936 808.20 851.51 29.60
20614 79.5975 862.30 851.23 30.30
20615 79.6012 856.10 850.97 30.50
20616 79.6049 820.90 850.73 30.00
20617 79.6087 882.30 850.50 30.80
20618 79.6124 875.10 850.29 30.40
20619 79.6162 860.50 850.09 30.40
20620 79.6200 838.00 849.90 30.10
20621 79.6237 844.30 849.73 30.10
20622 79.6275 834.80 849.56 30.00
20623 79.6312 924.80 849.41 31.40
20624 79.6350 905.40 849.27 31.10
20625 79.6388 823.60 849.14 29.50
20626 79.6425 817.50 849.02 28.90
20627 79.6463 781.30 848.90 28.60
20628 79.6500 838.90 848.80 30.10
20629 79.6538 856.10 848.70 30.10
20630 79.6575 790.20 848.61 28.90
20631 79.6613 794.70 848.53 28.80
20632 79.6652 866.40 848.45 31.00
20633 79.6689 796.00 848.38 29.20
20634 79.6727 830.80 848.31 29.90
20635 79.6764 853.00 848.25 30.10
20636 79.6802 862.00 848.20 30.20
20637 79.6839 779.40 848.15 28.60
20638 79.6877 844.90 848.11 29.90
20639 79.6914 849.50 848.07 29.80
20640 79.6952 830.70 848.04 29.10
20641 79.6989 865.00 848.01 30.40
20642 79.7028 849.30 847.99 30.20
20643 79.7064 818.10 847.97 29.60
20644 79.7103 821.30 847.95 29.70
20645 79.7139 851.50 847.94 29.80
20646 79.7178 840.80 847.94 30.10
20647 79.7215 839.50 847.93 29.90
20648 79.7253 826.10 847.93 29.70
20649 79.7290 849.20 847.94 30.10
20650 79.7327 861.80 847.95 30.20
20651 79.7365 860.40 847.96 30.00
20652 79.7403 840.40 847.98 29.70
20653 79.7440 841.50 848.00 30.00
20654 79.7478 851.60 848.02 29.80
20655 79.7515 839.60 848.05 29.90
20656 79.7553 863.30 848.08 30.10
20657 79.7590 864.70 848.11 30.20
20658 79.7628 826.50 848.15 29.50
20659 79.7666 846.40 848.19 30.20
20660 79.7704 826.70 848.24 29.70
20661 79.7741 853.40 848.28 30.10
20662 79.7778 834.60 848.34 29.70
20663 79.7816 842.00 848.39 29.90
20664 79.7855 826.60 848.45 29.20
20665 79.7891 853.50 848.52 30.00
20666 79.7930 838.50 848.58 29.90
20667 79.7967 820.90 848.65 29.50
20668 79.8005 825.80 848.73 29.40
20669 79.8042 915.80 848.80 31.30
20670 79.8080 817.80 848.89 29.40
20671 79.8117 800.10 848.97 29.00
20672 79.8155 824.20 849.06 29.20
20673 79.8192 841.90 849.16 30.00
20674 79.8231 898.70 849.26 30.90
20675 79.8267 839.40 849.35 29.80
20676 79.8306 843.00 849.46 29.70
20677 79.8342 834.20 849.57 29.90
20678 79.8381 800.80 849.69 28.80
20679 79.8419 867.90 849.81 30.30
20680 79.8456 820.00 849.93 29.70
20681 79.8493 839.40 850.06 29.50
20682 79.8531 822.70 850.20 29.50
20683 79.8568 834.80 850.34 29.40
20684 79.8605 822.70 850.48 29.00
20685 79.8643 836.80 850.63 29.70
20686 79.8681 813.50 850.79 29.50
20687 79.8718 806.40 850.95 29.00
20688 79.8756 846.10 851.12 29.90
20689 79.8793 831.30 851.29 29.30
20690 79.8832 839.30 851.47 29.60
20691 79.8870 866.00 851.66 30.30
20692 79.8907 862.40 851.85 29.60
20693 79.8944 845.40 852.05 29.60
20694 79.8982 857.30 852.25 30.10
20695 79.9019 872.90 852.47 30.30
20696 79.9057 793.40 852.69 29.10
20697 79.9094 805.60 852.91 29.30
20698 79.9133 874.10 853.15 30.00
20699 79.9169 876.80 853.39 30.60
20700 79.9208 863.80 853.65 30.50
20701 79.9246 814.20 853.91 29.40
20702 79.9283 804.20 854.18 29.20
20703 79.9320 827.40 854.46 29.40
20704 79.9358 818.70 854.75 29.60
20705 79.9395 869.30 855.05 30.50
20706 79.9433 841.40 855.35 30.00
20707 79.9470 821.10 855.68 29.10
20708 79.9509 854.00 856.02 30.40
20709 79.9545 854.90 856.35 30.00
20710 79.9584 826.10 856.72 29.50
20711 79.9621 878.00 857.08 30.40
20712 79.9659 807.00 857.47 29.60
20713 79.9697 857.70 857.87 30.10
20714 79.9734 867.10 858.27 30.30
20715 79.9771 867.00 858.70 30.30
20716 79.9809 820.90 859.14 29.20
20717 79.9846 825.20 859.60 29.10
20718 79.9884 834.40 860.08 29.30
20719 79.9921 856.50 860.56 30.20
20720 79.9959 854.60 861.08 29.60
20721 79.9996 866.20 861.60 30.20
20722 80.0034 876.40 862.16 30.50
20723 80.0073 860.70 862.74 29.80
20724 80.0110 827.80 863.32 29.60
20725 80.0148 821.20 863.95 29.50
20726 80.0185 831.10 864.58 29.70
20727 80.0222 821.40 865.25 29.60
20728 80.0260 869.20 865.93 30.40
20729 80.0297 840.70 866.66 29.60
20730 80.0335 864.70 867.41 30.90
20731 80.0372 852.70 868.18 30.00
20732 80.0411 826.70 869.00 29.20
20733 80.0447 824.40 869.83 29.30
20734 80.0486 827.40 870.72 29.20
20735 80.0524 854.30 871.65 30.10
20736 80.0561 875.60 872.59 30.60
20737 80.0598 946.20 873.60 31.50
20738 80.0636 839.70 874.63 30.20
20739 80.0673 860.30 875.73 30.70
20740 80.0712 864.50 876.88 30.20
20741 80.0749 831.80 878.05 29.70
20742 80.0787 928.80 879.30 31.30
20743 80.0824 857.60 880.58 30.50
20744 80.0862 891.20 881.95 31.20
20745 80.0900 892.70 883.39 30.50
20746 80.0937 867.10 884.86 30.50
20747 80.0975 850.70 886.44 30.30
20748 80.1012 887.20 888.05 30.80
20749 80.1049 873.70 889.79 30.70
20750 80.1087 867.60 891.61 30.80
20751 80.1124 903.80 893.48 31.30
20752 80.1162 891.00 895.49 31.60
20753 80.1199 887.60 897.55 31.10
20754 80.1237 867.40 899.78 30.70
20755 80.1274 881.70 902.07 30.80
20756 80.1312 873.10 904.54 30.90
20757 80.1351 935.20 907.15 32.00
20758 80.1388 967.50 909.83 32.30
20759 80.1426 905.70 912.73 31.10
20760 80.1463 912.70 915.72 31.40
20761 80.1500 911.30 918.96 31.80
20762 80.1538 979.60 922.39 33.00
20763 80.1575 910.00 925.92 31.50
20764 80.1613 886.50 929.76 30.50
20765 80.1650 952.10 933.73 32.50
20766 80.1689 980.50 938.04 32.80
20767 80.1727 957.30 942.62 31.80
20768 80.1764 916.90 947.37 31.00
20769 80.1802 923.10 952.53 31.90
20770 80.1839 972.60 957.89 32.60
20771 80.1877 932.00 963.74 31.60
20772 80.1914 951.80 969.78 32.20
20773 80.1952 907.30 976.41 31.40
20774 80.1990 933.00 983.45 32.10
20775 80.2027 994.20 990.77 32.40
20776 80.2065 1086.20 998.76 34.80
20777 80.2102 1067.10 1007.05 34.40
20778 80.2140 1028.40 1016.12 33.40
20779 80.2178 1029.20 1025.77 33.80
20780 80.2215 1020.40 1035.79 33.10
20781 80.2253 1081.30 1046.71 34.60
20782 80.2290 1017.10 1058.02 33.60
20783 80.2327 1068.90 1070.32 34.40
20784 80.2365 1078.00 1083.35 34.70
20785 80.2402 1078.70 1096.77 34.50
20786 80.2440 1132.90 1111.27 35.60
20787 80.2477 1127.50 1126.11 35.30
20788 80.2515 1224.40 1142.02 36.80
20789 80.2554 1177.50 1158.63 36.00
20790 80.2590 1181.90 1175.27 36.20
20791 80.2629 1205.10 1192.84 35.90
20792 80.2666 1239.10 1210.22 37.90
20793 80.2704 1203.00 1228.16 36.50
20794 80.2741 1277.10 1245.52 37.30
20795 80.2778 1352.80 1262.93 38.50
20796 80.2816 1233.00 1279.63 36.20
20797 80.2853 1299.90 1294.89 38.00
20798 80.2891 1370.10 1309.14 39.30
20799 80.2928 1251.20 1321.31 37.20
20800 80.2967 1380.10 1331.68 39.40
20801 80.3005 1317.40 1339.62 38.40
20802 80.3042 1277.30 1344.74 37.50
20803 80.3080 1313.70 1347.17 38.50
20804 80.3117 1266.90 1346.70 37.50
20805 80.3155 1380.70 1343.32 39.70
20806 80.3192 1286.60 1337.34 37.80
20807 80.3230 1264.70 1328.61 37.60
20808 80.3268 1285.50 1317.57 37.80
20809 80.3305 1293.20 1304.89 37.10
20810 80.3343 1263.50 1290.27 37.70
20811 80.3380 1291.40 1274.80 38.20
20812 80.3418 1164.30 1258.03 35.90
20813 80.3456 1196.40 1240.69 36.20
20814 80.3493 1220.10 1223.51 36.90
20815 80.3531 1164.50 1205.88 35.90
20816 80.3568 1064.00 1188.88 34.20
20817 80.3605 1128.50 1171.80 34.70
20818 80.3643 1100.30 1155.23 35.10
20819 80.3680 1112.90 1139.66 35.20
20820 80.3718 1077.40 1124.34 34.00
20821 80.3755 1068.00 1110.15 34.10
20822 80.3793 1066.80 1096.29 33.90
20823 80.3832 1048.80 1083.19 34.00
20824 80.3868 1013.60 1071.19 33.60
20825 80.3907 1014.20 1059.57 33.30
20826 80.3944 972.80 1048.96 32.30
20827 80.3982 1043.30 1038.77 33.70
20828 80.4019 998.90 1029.47 33.00
20829 80.4056 954.70 1020.57 32.40
20830 80.4094 993.80 1012.27 33.10
20831 80.4131 971.40 1004.73 32.70
20832 80.4169 910.50 997.54 31.70
20833 80.4206 875.10 991.03 30.90
20834 80.4245 910.90 984.83 31.50
20835 80.4281 975.60 979.23 32.90
20836 80.4320 953.80 973.91 32.30
20837 80.4358 875.80 969.00 30.60
20838 80.4395 865.20 964.61 30.60
20839 80.4433 962.50 960.46 32.90
20840 80.4470 908.80 956.77 30.70
20841 80.4508 929.80 953.31 32.00
20842 80.4546 918.80 950.18 31.80
20843 80.4583 944.20 947.43 32.00
20844 80.4621 897.60 944.91 30.80
20845 80.4658 873.00 942.73 31.10
20846 80.4696 979.50 940.78 32.80
20847 80.4734 869.90 939.11 30.80
20848 80.4771 931.30 937.74 31.90
20849 80.4809 846.30 936.61 29.40
20850 80.4846 874.50 935.77 30.80
20851 80.4883 894.40 935.16 31.00
20852 80.4921 930.10 934.83 31.90
20853 80.4958 903.30 934.74 31.00
20854 80.4996 902.30 934.93 31.40
20855 80.5033 886.90 935.37 31.10
20856 80.5071 926.90 936.09 31.70
20857 80.5108 919.40 937.05 31.60
20858 80.5146 946.00 938.31 32.20
20859 80.5185 931.40 939.84 32.10
20860 80.5222 951.60 941.59 32.10
20861 80.5260 895.60 943.65 31.10
20862 80.5297 978.20 945.91 32.10
20863 80.5334 904.60 948.47 31.40
20864 80.5372 936.40 951.18 31.60
20865 80.5409 1030.90 954.17 33.10
20866 80.5447 1019.30 957.33 33.80
20867 80.5484 912.80 960.54 31.40
20868 80.5523 994.70 963.91 33.00
20869 80.5559 1024.90 967.22 33.30
20870 80.5598 1001.20 970.57 33.20
20871 80.5636 1018.70 973.79 33.20
20872 80.5673 963.30 977.59 32.60
20873 80.5711 989.80 980.15 32.50
20874 80.5748 1005.70 982.37 32.60
20875 80.5786 992.70 984.16 32.70
20876 80.5822 1024.70 985.33 33.60
20877 80.5861 965.40 985.88 31.90
20878 80.5899 1056.80 985.72 33.80
20879 80.5936 963.10 984.86 32.10
20880 80.5974 995.20 983.25 32.50
20881 80.6011 1021.40 980.99 33.60
20882 80.6049 1003.50 978.03 33.00
20883 80.6087 946.50 974.47 32.30
20884 80.6124 987.80 970.50 32.80
20885 80.6161 986.00 966.02 32.60
20886 80.6199 936.80 961.33 31.80
20887 80.6236 1009.90 956.28 33.30
20888 80.6273 974.20 951.22 32.20
20889 80.6311 952.50 945.95 32.30
20890 80.6349 975.50 940.66 32.40
20891 80.6386 951.40 935.58 32.00
20892 80.6424 927.40 930.44 31.50
20893 80.6461 989.50 925.58 32.90
20894 80.6500 914.70 920.73 31.20
20895 80.6536 872.40 916.21 31.00
20896 80.6575 967.00 911.73 32.40
20897 80.6612 889.10 907.46 30.40
20898 80.6650 956.60 903.50 31.90
20899 80.6687 935.30 899.64 32.30
20900 80.6724 966.30 896.07 32.50
20901 80.6762 942.20 892.59 31.80
20902 80.6801 860.00 889.30 30.20
20903 80.6837 832.10 886.27 29.90
20904 80.6876 882.70 883.32 31.00
20905 80.6913 903.80 880.60 31.20
20906 80.6951 876.60 877.97 31.20
20907 80.6988 874.30 875.53 30.60
20908 80.7026 883.60 873.17 30.80
20909 80.7064 836.70 870.93 29.90
20910 80.7100 833.80 868.87 30.00
20911 80.7139 859.80 866.85 30.30
20912 80.7175 845.30 865.00 29.80
20913 80.7214 841.10 863.18 30.00
20914 80.7252 822.90 861.46 29.80
20915 80.7289 873.60 859.87 30.70
20916 80.7327 823.80 858.31 29.80
20917 80.7364 814.20 856.86 29.60
20918 80.7402 811.20 855.45 29.50
20919 80.7439 802.00 854.13 29.60
20920 80.7477 879.80 852.84 30.90
20921 80.7514 873.90 851.60 31.10
20922 80.7551 805.00 850.45 29.00
20923 80.7589 834.70 849.31 30.30
20924 80.7626 853.90 848.25 29.40
20925 80.7664 862.40 847.21 31.30
20926 80.7702 802.20 846.21 29.60
20927 80.7739 818.50 845.27 29.70
20928 80.7778 811.50 844.34 29.00
20929 80.7814 814.70 843.47 29.50
20930 80.7853 851.20 842.60 30.10
20931 80.7890 787.50 841.79 29.20
20932 80.7928 856.90 840.99 30.30
20933 80.7965 793.80 840.23 29.40
20934 80.8002 881.30 839.48 31.00
20935 80.8040 839.50 838.75 30.30
20936 80.8077 780.40 838.07 29.40
20937 80.8115 840.70 837.38 30.60
20938 80.8152 842.00 836.74 30.40
20939 80.8191 844.70 836.09 30.30
20940 80.8229 833.20 835.47 30.20
20941 80.8266 839.00 834.88 30.10
20942 80.8304 838.20 834.29 30.20
20943 80.8341 822.10 833.73 29.30
20944 80.8379 797.80 833.16 29.50
20945 80.8416 844.90 832.63 30.10
20946 80.8454 838.30 832.10 30.40
20947 80.8492 863.00 831.58 30.10
20948 80.8529 840.30 831.08 30.40
20949 80.8567 850.30 830.59 30.10
20950 80.8604 810.80 830.11 29.50
20951 80.8642 861.30 829.64 30.60
20952 80.8679 858.30 829.19 30.60
20953 80.8717 760.80 828.73 28.40
20954 80.8755 798.20 828.28 29.20
20955 80.8792 868.90 827.86 30.70
20956 80.8829 777.70 827.43 29.10
20957 80.8867 797.70 827.02 29.50
20958 80.8904 821.60 826.61 29.50
20959 80.8942 831.90 826.20 30.10
20960 80.8979 829.70 825.81 30.30
20961 80.9017 821.10 825.42 29.80
20962 80.9054 806.80 825.05 29.70
20963 80.9092 793.20 824.67 29.30
20964 80.9129 773.90 824.30 28.70
20965 80.9168 812.70 823.93 29.60
20966 80.9204 801.60 823.58 29.40
20967 80.9243 781.10 823.22 29.10
20968 80.9280 774.10 822.87 28.50
20969 80.9318 797.60 822.54 29.10
20970 80.9355 866.30 822.19 30.10
20971 80.9392 784.70 821.86 29.00
20972 80.9430 850.60 821.53 30.40
20973 80.9467 814.30 821.21 29.50
20974 80.9505 822.00 820.89 29.80
20975 80.9544 814.20 820.57 29.30
20976 80.9581 797.30 820.26 29.00
20977 80.9619 817.80 819.94 29.30
20978 80.9656 756.20 819.64 28.20
20979 80.9694 861.90 819.34 30.00
20980 80.9732 806.90 819.03 28.90
20981 80.9768 839.90 818.74 30.30
20982 80.9807 849.70 818.44 30.60
20983 80.9843 813.10 818.16 29.30
20984 80.9882 774.80 817.86 28.70
20985 80.9918 802.40 817.58 29.00
20986 80.9957 756.90 817.30 28.20
20987 80.9995 799.40 817.01 29.00
20988 81.0032 810.70 816.74 29.20
20989 81.0070 792.20 816.46 29.40
20990 81.0107 776.00 816.19 29.00
20991 81.0145 836.60 815.92 30.10
20992 81.0182 822.50 815.65 29.70
20993 81.0219 801.20 815.38 29.10
20994 81.0257 860.70 815.11 29.70
20995 81.0294 822.80 814.86 29.20
20996 81.0332 785.90 814.59 28.50
20997 81.0369 804.50 814.34 29.30
20998 81.0407 796.50 814.08 28.80
20999 81.0444 783.90 813.83 29.00
21000 81.0482 768.90 813.57 28.70
21001 81.0519 825.30 813.32 29.90
21002 81.0557 744.90 813.07 28.10
21003 81.0596 801.10 812.82 29.10
21004 81.0632 785.50 812.57 28.50
21005 81.0670 801.20 812.32 29.40
21006 81.0708 827.20 812.08 30.00
21007 81.0745 848.60 811.84 30.30
21008 81.0782 805.80 811.60 29.60
21009 81.0820 790.40 811.36 29.40
21010 81.0859 861.70 811.11 30.60
21011 81.0895 817.40 810.88 30.00
21012 81.0934 826.10 810.64 29.60
21013 81.0971 819.50 810.41 29.90
21014 81.1009 782.80 810.17 29.10
21015 81.1046 809.10 809.95 29.50
21016 81.1084 818.60 809.71 30.00
21017 81.1121 819.20 809.48 30.20
21018 81.1159 833.40 809.26 30.10
21019 81.1196 798.20 809.03 29.50
21020 81.1234 748.20 808.80 28.80
21021 81.1271 779.50 808.58 29.00
21022 81.1309 873.00 808.35 30.90
21023 81.1346 851.50 808.13 30.70
21024 81.1385 782.40 807.91 29.00
21025 81.1421 812.40 807.69 29.90
21026 81.1460 859.10 807.47 30.70
21027 81.1497 777.00 807.25 28.80
21028 81.1535 821.50 807.03 30.10
21029 81.1572 803.10 806.82 29.70
21030 81.1609 806.80 806.60 29.60
21031 81.1647 825.70 806.39 29.70
21032 81.1684 849.40 806.17 31.40
21033 81.1722 772.10 805.96 29.00
21034 81.1759 768.00 805.75 29.30
21035 81.1797 850.20 805.54 30.70
21036 81.1834 779.70 805.34 28.70
21037 81.1873 836.60 805.13 30.60
21038 81.1909 779.90 804.92 29.30
21039 81.1948 841.70 804.72 30.60
21040 81.1985 829.10 804.51 29.80
21041 81.2023 801.10 804.31 30.00
21042 81.2060 871.00 804.11 31.50
21043 81.2097 790.20 803.91 29.50
21044 81.2135 874.30 803.71 31.30
21045 81.2172 823.30 803.52 30.00
21046 81.2210 801.00 803.32 29.80
21047 81.2249 824.70 803.12 30.30
21048 81.2286 756.30 802.93 28.90
21049 81.2324 808.90 802.74 29.30
21050 81.2361 793.10 802.55 29.80
21051 81.2399 811.20 802.36 30.10
21052 81.2436 797.10 802.18 30.00
21053 81.2474 795.60 801.99 29.90
21054 81.2511 803.70 801.81 29.80
21055 81.2549 767.60 801.63 29.10
21056 81.2587 865.20 801.44 30.90
21057 81.2624 787.20 801.27 28.40
21058 81.2662 820.10 801.09 30.30
21059 81.2699 807.80 800.91 30.50
21060 81.2737 820.40 800.74 30.00
21061 81.2774 826.60 800.57 29.90
21062 81.2812 815.10 800.40 30.20
21063 81.2850 802.80 800.23 30.30
21064 81.2886 870.60 800.07 31.00
21065 81.2924 901.20 799.91 31.50
21066 81.2961 806.50 799.75 29.80
21067 81.2999 796.30 799.59 29.70
21068 81.3036 791.10 799.43 29.40
21069 81.3074 824.50 799.28 30.30
21070 81.3112 788.10 799.13 29.40
21071 81.3149 845.90 798.98 30.60
21072 81.3187 811.50 798.84 30.20
21073 81.3224 783.90 798.70 29.50
21074 81.3263 793.00 798.56 29.90
21075 81.3299 819.40 798.43 30.20
21076 81.3338 823.20 798.29 30.20
21077 81.3375 805.70 798.17 30.10
21078 81.3413 795.50 798.04 29.80
21079 81.3450 806.10 797.92 30.10
21080 81.3487 749.30 797.81 28.70
21081 81.3525 797.00 797.69 29.50
21082 81.3562 818.80 797.59 30.40
21083 81.3600 815.80 797.48 30.10
21084 81.3637 774.30 797.39 28.60
21085 81.3676 763.80 797.29 29.50
21086 81.3712 771.60 797.21 29.30
21087 81.3751 781.60 797.12 28.60
21088 81.3789 753.90 797.04 29.00
21089 81.3826 782.80 796.97 29.40
21090 81.3864 849.80 796.91 30.60
21091 81.3901 806.20 796.85 30.00
21092 81.3939 783.60 797.35 29.50
21093 81.3976 864.60 797.31 30.70
21094 81.4014 771.60 797.28 28.80
21095 81.4051 753.20 797.25 28.60
21096 81.4089 808.30 797.23 29.70
21097 81.4127 801.50 797.22 29.70
21098 81.4164 824.50 797.22 30.00
21099 81.4202 773.70 797.23 29.40
21100 81.4239 808.00 797.24 30.00
21101 81.4277 876.10 797.27 31.40
21102 81.4314 824.20 797.31 30.20
21103 81.4352 832.40 797.36 30.60
21104 81.4389 780.30 795.43 28.80
21105 81.4426 790.30 795.52 29.70
21106 81.4464 798.90 795.62 29.80
21107 81.4501 799.30 795.73 29.60
21108 81.4539 765.80 795.86 28.50
21109 81.4576 877.80 796.00 31.10
21110 81.4614 823.40 796.16 29.50
21111 81.4651 870.30 796.33 31.10
21112 81.4689 797.40 796.53 29.30
21113 81.4726 751.50 796.74 28.70
21114 81.4765 803.00 796.97 29.50
21115 81.4801 817.80 797.22 30.00
21116 81.4840 798.70 797.50 29.90
21117 81.4877 800.30 797.80 29.80
21118 81.4915 787.90 798.12 29.40
21119 81.4952 835.60 798.47 30.60
21120 81.4989 826.90 798.84 30.50
21121 81.5027 872.70 799.25 31.10
21122 81.5064 845.70 799.68 30.60
21123 81.5102 776.10 800.16 29.50
21124 81.5139 817.60 800.66 30.20
21125 81.5178 800.10 801.20 29.60
21126 81.5216 838.00 801.79 30.70
21127 81.5253 799.90 802.41 30.00
21128 81.5291 882.40 803.08 30.80
21129 81.5328 853.40 803.79 30.10
21130 81.5365 816.70 804.56 29.50
21131 81.5403 838.70 805.37 29.70
21132 81.5440 783.00 806.26 29.00
21133 81.5478 810.40 807.19 29.30
21134 81.5515 763.60 808.21 28.30
21135 81.5554 822.50 809.30 29.80
21136 81.5590 831.30 810.43 29.80
21137 81.5629 796.50 811.68 28.70
21138 81.5665 844.60 812.98 30.60
21139 81.5704 833.00 814.41 30.30
21140 81.5740 873.90 815.90 30.50
21141 81.5779 890.90 817.53 30.80
21142 81.5815 802.80 819.23 29.40
21143 81.5854 799.90 821.10 29.50
21144 81.5891 853.40 823.11 30.30
21145 81.5928 804.10 825.20 29.60
21146 81.5966 801.40 827.49 29.40
21147 81.6003 830.30 829.88 29.80
21148 81.6041 810.20 832.51 29.80
21149 81.6078 819.80 835.25 29.60
21150 81.6116 870.30 838.25 30.50
21151 81.6153 879.60 841.39 30.80
21152 81.6191 917.40 844.83 31.30
21153 81.6228 890.00 848.41 30.80
21154 81.6267 793.90 852.34 28.80
21155 81.6304 867.10 856.42 30.30
21156 81.6342 841.80 860.88 30.30
21157 81.6379 856.50 865.64 30.40
21158 81.6416 935.50 870.56 31.80
21159 81.6454 910.00 875.92 31.50
21160 81.6491 931.30 881.44 31.10
21161 81.6529 899.30 887.43 31.30
21162 81.6566 899.60 893.54 31.30
21163 81.6605 919.60 900.12 31.50
21164 81.6641 975.20 906.78 32.10
21165 81.6680 946.30 913.87 31.90
21166 81.6717 975.30 920.95 32.80
21167 81.6755 959.80 928.36 32.10
21168 81.6793 951.40 935.82 32.00
21169 81.6830 978.00 943.06 32.30
21170 81.6868 955.00 950.34 32.30
21171 81.6905 953.00 957.18 32.10
21172 81.6943 946.00 963.79 31.90
21173 81.6980 958.30 969.69 31.70
21174 81.7018 985.80 975.04 32.70
21175 81.7055 938.00 979.43 31.80
21176 81.7093 934.80 982.95 31.80
21177 81.7130 945.40 985.31 31.90
21178 81.7168 1014.10 986.55 33.00
21179 81.7206 988.50 986.55 32.80
21180 81.7243 957.70 985.33 32.20
21181 81.7280 990.50 982.34 32.40
21182 81.7318 967.10 978.82 32.30
21183 81.7355 986.30 974.16 32.40
21184 81.7393 956.10 968.72 32.00
21185 81.7430 947.90 962.35 32.00
21186 81.7467 964.80 955.52 32.30
21187 81.7505 938.10 948.03 31.80
21188 81.7542 968.20 940.39 32.40
21189 81.7580 944.70 932.34 31.60
21190 81.7618 901.20 924.19 31.00
21191 81.7655 917.90 916.28 31.20
21192 81.7694 946.60 908.21 32.20
21193 81.7730 893.80 900.56 30.80
21194 81.7769 865.10 892.87 30.40
21195 81.7806 897.40 885.65 31.20
21196 81.7844 883.90 878.52 31.10
21197 81.7881 854.00 871.86 30.40
21198 81.7918 869.40 865.33 31.20
21199 81.7956 853.50 859.28 30.60
21200 81.7993 849.30 853.37 30.30
21201 81.8030 806.90 847.90 29.60
21202 81.8068 862.30 842.59 30.30
21203 81.8107 839.40 837.57 30.20
21204 81.8143 826.50 832.93 29.70
21205 81.8182 839.80 828.43 29.90
21206 81.8219 806.30 824.28 29.50
21207 81.8257 791.10 820.25 29.60
21208 81.8294 834.90 816.53 30.00
21209 81.8332 811.70 812.93 29.30
21210 81.8369 814.30 809.59 29.50
21211 81.8407 761.80 806.35 28.20
21212 81.8444 851.80 803.36 30.30
21213 81.8482 869.10 800.44 30.80
21214 81.8519 809.50 797.74 29.70
21215 81.8556 825.90 795.11 29.90
21216 81.8595 870.00 792.60 30.80
21217 81.8631 780.10 790.27 28.70
21218 81.8670 798.10 787.99 29.10
21219 81.8706 806.30 785.88 29.90
21220 81.8745 811.50 783.80 29.80
21221 81.8781 747.30 781.86 28.30
21222 81.8820 806.00 779.96 29.30
21223 81.8856 807.70 778.18 29.60
21224 81.8895 788.40 776.43 29.30
21225 81.8931 792.10 774.79 29.50
21226 81.8969 800.10 773.17 29.20
21227 81.9006 811.40 771.66 29.60
21228 81.9044 780.90 770.16 28.60
21229 81.9081 809.60 768.75 29.50
21230 81.9119 798.40 767.35 29.40
21231 81.9157 777.40 766.00 28.80
21232 81.9194 811.00 764.73 29.20
21233 81.9232 807.30 763.47 29.50
21234 81.9269 847.20 762.27 30.70
21235 81.9308 818.70 761.08 30.10
21236 81.9344 768.90 759.96 29.00
21237 81.9383 812.20 758.84 29.60
21238 81.9420 805.90 757.77 29.00
21239 81.9458 788.20 756.71 28.70
21240 81.9495 847.90 755.70 29.60
21241 81.9532 757.00 754.69 28.10
21242 81.9569 773.00 753.73 28.90
21243 81.9607 820.50 752.77 29.00
21244 81.9644 792.30 751.85 29.10
21245 81.9682 770.60 750.93 29.30
21246 81.9719 808.60 750.05 29.40
21247 81.9758 767.80 749.17 28.30
21248 81.9796 741.50 748.31 26.90
21249 81.9833 750.20 747.48 27.50
21250 81.9871 798.90 746.65 29.80
21251 81.9908 748.70 745.85 28.50
21252 81.9946 780.00 745.05 28.30
21253 81.9983 812.50 744.28 28.30
21254 82.0021 777.40 743.50 27.10
21255 82.0057 777.30 742.76 26.20
loop_
_refln_index_h
_refln_index_k
_refln_index_l
_refln_F_squared_calc
_refln_F_squared_meas
_refln_observed_status
_refln_d_spacing
1 1 1 91.66 89.38 o 4.838691
2 0 2 192.91 263.11 o 2.963081
1 1 3 2130.75 2001.83 o 2.526924
2 2 2 48591.56 46906.13 o 2.419345
0 0 4 17520.15 16996.79 o 2.095215
3 1 3 2067.16 2027.71 o 1.922701
2 2 4 475.96 501.74 o 1.710736
1 1 5 84.30 88.20 o 1.612897
3 3 3 8932.92 9346.70 o 1.612897
4 0 4 6609.16 6334.89 o 1.481540
3 1 5 47.28 53.57 o 1.416624
4 2 4 267.97 218.99 o 1.396810
2 0 6 821.12 819.45 o 1.325130
3 3 5 1356.24 1335.91 o 1.278069
2 2 6 31473.14 32220.71 o 1.263462
4 4 4 10092.50 9938.33 o 1.209673
5 1 5 2508.73 2457.07 o 1.173555
1 1 7 1693.00 1658.14 o 1.173555
4 2 6 23.20 26.40 o 1.119939
3 1 7 6293.58 6673.78 o 1.091095
5 3 5 2.70 2.86 o 1.091095
0 0 8 3098.06 2469.00 o 1.047607
3 3 7 5768.57 5671.80 o 1.023885
4 4 6 163.41 150.49 o 1.016328
2 2 8 137.42 112.03 o 0.987694
6 0 6 257.44 209.87 o 0.987694
5 5 5 1787.88 1800.16 o 0.967738
5 1 7 1456.76 1466.76 o 0.967738
6 2 6 20505.54 22686.91 o 0.961350
4 0 8 5548.21 5656.99 o 0.937009
1 1 9 1811.83 2172.06 o 0.919919
5 3 7 822.39 985.89 o 0.919919
4 2 8 641.78 290.82 o 0.914427
6 4 6 1672.95 1560.72 o 0.893402
3 1 9 18.61 29.09 < 0.878553
4 4 8 1433.38 1025.85 o 0.855368
3 3 9 119.52 127.69 o 0.842308
7 1 7 3549.77 3792.57 o 0.842308
5 5 7 20.81 22.23 o 0.842308
2 0 10 1.97 2.01 o 0.821811
6 2 8 411.30 419.49 o 0.821811
1 1 1 16108.85 17006.43 o 4.838691
2 0 2 3393.38 3409.62 o 2.963081
1 1 3 20915.51 21234.20 o 2.526924
2 2 2 4612.55 3900.89 o 2.419345
0 0 4 95087.80 90551.95 o 2.095215
3 1 3 1904.29 1795.41 o 1.922701
2 2 4 1353.86 1531.23 o 1.710736
3 3 3 5797.87 5639.17 o 1.612897
1 1 5 21576.06 20985.48 o 1.612897
4 0 4 85115.16 84881.79 o 1.481540
3 1 5 4373.61 4237.72 o 1.416624
4 2 4 92.22 40.34 < 1.396810
2 0 6 632.14 792.85 o 1.325130
3 3 5 8407.62 9195.55 o 1.278069
2 2 6 5137.41 5558.74 o 1.263462
4 4 4 28831.68 30259.31 o 1.209673
1 1 7 929.55 900.52 o 1.173555
5 1 5 5546.45 5373.22 o 1.173555
4 2 6 976.05 874.75 o 1.119939
5 3 5 8524.92 8735.94 o 1.091095
3 1 7 3180.79 3259.53 o 1.091095
0 0 8 34010.27 28795.46 o 1.047607
3 3 7 115.86 49.90 < 1.023885
4 4 6 27.48 21.09 < 1.016328
6 0 6 1192.55 986.12 o 0.987694
2 2 8 552.04 456.48 o 0.987694
5 5 5 8847.04 9382.25 o 0.967738
5 1 7 3940.34 4178.71 o 0.967738
6 2 6 3619.74 4088.17 o 0.961350
4 0 8 12803.01 11427.09 o 0.937009
5 3 7 655.53 589.26 o 0.919919
1 1 9 2691.75 2419.65 o 0.919919
4 2 8 86.26 70.72 o 0.914427
6 4 6 92.12 122.45 < 0.893402
3 1 9 4718.92 4308.49 o 0.878553
4 4 8 17552.34 16264.95 o 0.855368
3 3 9 1247.79 1320.32 o 0.842308
5 5 7 904.62 957.21 o 0.842308
7 1 7 130.98 138.60 o 0.842308
6 2 8 210.92 199.96 o 0.821811
2 0 10 471.08 446.59 o 0.821811
5 1 9 4822.92 4309.89 o 0.810208
7 3 7 810.10 723.93 o 0.810208
2 2 10 2615.95 2792.59 o 0.806449
6 6 6 2535.09 2706.26 o 0.806449
5 3 9 1387.38 1313.63 o 0.781519
6 4 8 39.06 38.80 o 0.778143
4 2 10 122.91 143.68 < 0.765064
7 5 7 1393.16 1443.62 o 0.755677
1 1 11 1096.94 1136.67 o 0.755677
8 0 8 10271.69 9150.58 o 0.740770
5 5 9 1788.92 1512.43 o 0.732239
3 1 11 83.10 70.26 o 0.732239
7 1 9 659.79 557.82 o 0.732239
4 4 10 5.14 2.85 o 0.729460
8 2 8 138.40 76.67 o 0.729460
6 0 10 7.24 4.73 < 0.718653
6 6 8 359.62 234.97 < 0.718653
3 3 11 566.00 524.95 o 0.710855
7 3 9 1738.17 1612.09 o 0.710855
6 2 10 1887.98 1830.23 o 0.708312
0 0 12 4020.08 3634.17 o 0.698405
8 4 8 4174.50 3773.76 o 0.698405
5 1 11 196.31 197.35 o 0.691242
7 7 7 2.54 2.55 o 0.691242
2 2 12 136.86 95.26 o 0.679777
6 4 10 452.63 315.03 o 0.679777
5 3 11 852.62 986.47 o 0.673167
7 5 9 1584.01 1832.69 o 0.673167
4 0 12 6344.97 5482.24 o 0.662565
9 1 9 1066.69 868.02 o 0.656439
8 6 8 72.57 49.10 < 0.654435
4 2 12 47.28 31.99 < 0.654435
8 2 10 178.17 103.78 < 0.646597
5 5 11 833.45 757.40 o 0.640900
9 3 9 1761.17 1600.46 o 0.640900
1 1 13 2012.30 1828.67 o 0.640900
7 1 11 467.63 424.96 o 0.640900
6 6 10 1399.30 1174.96 o 0.639034
4 4 12 2586.11 2560.24 o 0.631731
