#------------------------------------------------------------------------------
#$Date: 2015-06-04 14:34:11 +0300 (Thu, 04 Jun 2015) $
#$Revision: 137956 $
#$URL: svn://www.crystallography.net/cod/cif/4/34/32/4343232.cif $
#------------------------------------------------------------------------------
#
# This file is available in the Crystallography Open Database (COD),
# http://www.crystallography.net/
#
# All data on this site have been placed in the public domain by the
# contributors.
#
data_4343232
loop_
_publ_author_name
'Read, Cory Michael'
'Smith, Mark D.'
'Withers, Ray'
'Zur Loye, Hans-Conrad'
_publ_section_title
;
 Flux Crystal Growth and Optical Properties of Two Uranium-Containing
 Silicates: A2USiO6 (A = Cs, Rb).
;
_journal_issue                   9
_journal_name_full               'Inorganic chemistry'
_journal_page_first              4520
_journal_page_last               4525
_journal_paper_doi               10.1021/acs.inorgchem.5b00364
_journal_volume                  54
_journal_year                    2015
_chemical_formula_moiety         'O6 Rb2 Si U'
_chemical_formula_sum            'O6 Rb2 Si U'
_chemical_formula_weight         533.06
_space_group_crystal_system      orthorhombic
_space_group_IT_number           71
_space_group_name_Hall           '-I 2 2'
_space_group_name_H-M_alt        'I m m m'
_symmetry_space_group_name_Hall  '-I 2 2'
_symmetry_space_group_name_H-M   'I m m m'
_audit_creation_method           SHELXL-2014/6
_cell_angle_alpha                90
_cell_angle_beta                 90
_cell_angle_gamma                90
_cell_formula_units_Z            8
_cell_length_a                   8.4916(6)
_cell_length_b                   12.6678(9)
_cell_length_c                   13.5077(9)
_cell_measurement_reflns_used    3457
_cell_measurement_temperature    296(2)
_cell_measurement_theta_max      30.534
_cell_measurement_theta_min      2.204
_cell_volume                     1453.02(17)
_computing_cell_refinement       'SAINT-Plus Version 6.45 (Bruker, 2001)'
_computing_data_collection       'SMART Version 5.631 (Bruker, 2001)'
_computing_data_reduction        'SAINT-Plus Version 6.45 (Bruker, 2001)'
_computing_molecular_graphics    various
_computing_publication_material  various
_computing_structure_refinement  'SHELXL-2014/6 (Sheldrick, 2014)'
_computing_structure_solution    'SHELXS97 (Sheldrick, 2008)'
_diffrn_ambient_temperature      296(2)
_diffrn_measured_fraction_theta_full 1.000
_diffrn_measured_fraction_theta_max 1.000
_diffrn_measurement_device_type  'Bruker SMART APEX CCD diffractometer'
_diffrn_measurement_method       'omega and phi scans'
_diffrn_radiation_type           MoK\a
_diffrn_radiation_wavelength     0.71073
_diffrn_reflns_av_R_equivalents  0.0437
_diffrn_reflns_av_unetI/netI     0.0203
_diffrn_reflns_laue_measured_fraction_full 1.000
_diffrn_reflns_laue_measured_fraction_max 1.000
_diffrn_reflns_limit_h_max       12
_diffrn_reflns_limit_h_min       -12
_diffrn_reflns_limit_k_max       18
_diffrn_reflns_limit_k_min       -18
_diffrn_reflns_limit_l_max       19
_diffrn_reflns_limit_l_min       -19
_diffrn_reflns_number            14697
_diffrn_reflns_point_group_measured_fraction_full 1.000
_diffrn_reflns_point_group_measured_fraction_max 1.000
_diffrn_reflns_theta_full        25.242
_diffrn_reflns_theta_max         30.554
_diffrn_reflns_theta_min         2.204
_diffrn_source                   'sealed tube'
_exptl_absorpt_coefficient_mu    35.790
_exptl_absorpt_correction_T_max  1.0000
_exptl_absorpt_correction_T_min  0.5040
_exptl_absorpt_correction_type   multi-scan
_exptl_absorpt_process_details   'SADABS Version 2.05 (Bruker, 2001)'
_exptl_crystal_colour            orange
_exptl_crystal_density_diffrn    4.874
_exptl_crystal_description       'rectangular needle'
_exptl_crystal_F_000             1824
_exptl_crystal_size_max          0.080
_exptl_crystal_size_mid          0.070
_exptl_crystal_size_min          0.060
_refine_diff_density_max         2.271
_refine_diff_density_min         -2.993
_refine_diff_density_rms         0.369
_refine_ls_extinction_method     none
_refine_ls_goodness_of_fit_ref   1.088
_refine_ls_hydrogen_treatment    undef
_refine_ls_matrix_type           full
_refine_ls_number_parameters     61
_refine_ls_number_reflns         1282
_refine_ls_number_restraints     0
_refine_ls_restrained_S_all      1.088
_refine_ls_R_factor_all          0.0457
_refine_ls_R_factor_gt           0.0369
_refine_ls_shift/su_max          0.000
_refine_ls_shift/su_mean         0.000
_refine_ls_structure_factor_coef Fsqd
_refine_ls_weighting_details
'w=1/[\s^2^(Fo^2^)+(0.0467P)^2^+29.7453P] where P=(Fo^2^+2Fc^2^)/3'
_refine_ls_weighting_scheme      calc
_refine_ls_wR_factor_gt          0.0918
_refine_ls_wR_factor_ref         0.0965
_reflns_number_gt                1060
_reflns_number_total             1282
_reflns_threshold_expression     'I > 2\s(I)'
_cod_data_source_file            ic5b00364_si_002.cif
_cod_data_source_block           Rb2USiO6
_cod_database_code               4343232
_shelx_space_group_comment
; 
The symmetry employed for this shelxl refinement is uniquely defined 
by the following loop, which should always be used as a source of 
symmetry information in preference to the above space-group names. 
They are only intended as comments. 
;
_shelx_estimated_absorpt_t_min   0.162
_shelx_estimated_absorpt_t_max   0.223
_shelxl_version_number           2014/6
_shelx_res_file
; 
TITL Immm in Immm 
CELL 0.71073   8.4916  12.6678  13.5077  90.000  90.000  90.000 
ZERR    8.00   0.0006   0.0009   0.0009   0.000   0.000   0.000 
LATT  2 
SYMM -X, -Y, Z 
SYMM -X, Y, -Z 
SYMM X, -Y, -Z 
SFAC O SI RB U 
UNIT 48 8 16 8 
LIST 4 
TEMP 23 
  
L.S. 7 
BOND 
SIZE  0.08         0.07         0.06 
REM orange needle 
REM 3457 refl / 2th = 4.408 - 61.068 
REM sadabs 0.503958 
FMAP 2 
PLAN 9 
ACTA 
WGHT    0.046700   29.745300 
FVAR       0.09300 
U1    4    0.250000    0.250000    0.250000    10.50000    0.00849    0.02779 = 
         0.02734   -0.01355   -0.00041    0.00065 
RB1   3    0.000000    0.500000    0.156057    10.25000    0.02165    0.07342 = 
         0.02461    0.00000    0.00000    0.00000 
RB2   3    0.000000    0.000000    0.302222    10.25000    0.01801    0.03910 = 
         0.03630    0.00000    0.00000    0.00000 
RB3   3    0.000000    0.262605    0.500000    10.25000    0.02635    0.03194 = 
         0.03141    0.00000    0.00000    0.00000 
RB4   3    0.000000    0.196803    0.000000    10.25000    0.01798    0.04889 = 
         0.03877    0.00000    0.00000    0.00000 
SI1   2    0.191535    0.500000    0.387851    10.50000    0.00954    0.02189 = 
         0.01131    0.00000    0.00165    0.00000 
O1    1    0.232264    0.328744    0.136025    11.00000    0.02970    0.10460 = 
         0.05902    0.03192    0.00176    0.00430 
O2A   1    0.259975    0.383560    0.364240    10.50000    0.02596 
O2B   1    0.250500    0.415331    0.314862    10.50000    0.02713 
  
O3    1    0.000000    0.242651    0.266974    10.50000    0.01229    0.05968 = 
         0.06589   -0.03105    0.00000    0.00000 
O4    1    0.000000    0.500000    0.383982    10.25000    0.01679    0.06717 = 
         0.01837    0.00000    0.00000    0.00000 
EADP O5A O5B 
O5A   1    0.239001    0.528820    0.500000    10.12500    0.01921 
O5B   1    0.235050    0.459026    0.500000    10.12500    0.01921 
HKLF 4 
  
REM  Immm in Immm 
REM R1 =  0.0369 for    1060 Fo > 4sig(Fo)  and  0.0457 for all    1282 data 
REM     61 parameters refined using      0 restraints 
  
END 
  
WGHT      0.0467     29.7652 
  
REM Highest difference peak  2.271,  deepest hole -2.993,  1-sigma level  0.369 
Q1    1   0.2488  0.2526  0.3075  11.00000  0.05    2.27 
Q2    1   0.2517  0.1895  0.2440  11.00000  0.05    2.22 
Q3    1   0.3048  0.3990  0.3392  11.00000  0.05    1.10 
Q4    1   0.0000  0.4695  0.5000  10.25000  0.05    1.02 
Q5    1   0.3947  0.5000  0.5000  10.25000  0.05    1.00 
Q6    1   0.1948  0.2789  0.1318  11.00000  0.05    0.98 
Q7    1   0.2484  0.5000  0.0000  10.25000  0.05    0.94 
Q8    1   0.0735  0.3376  0.5000  10.50000  0.05    0.93 
Q9    1   0.2285  0.3629  0.3869  11.00000  0.05    0.92 
;
_shelx_res_checksum              88427
_shelx_hkl_file
; 
  -1   0   0    1.09    0.60 
   1   0   0    4.27    1.33 
   1   0   0    1.44    1.18 
   1   0   0    3.45    1.06 
   1   0   0    1.19    1.36 
  -1   0   0    1.03    0.53 
   2   0   0 1046.52   28.95 
   2   0   0 1019.11   30.70 
  -2   0   0 1055.06   26.79 
   3   0   0   -0.30    1.54 
  -3   0   0    0.60    1.54 
  -3   0   0   -0.04    0.88 
   3   0   0    1.25    2.55 
  -3   0   0   -1.04    2.21 
  -4   0   0 9079.82  230.50 
  -4   0   0 8904.13  215.95 
  -4   0   0 9027.63  219.56 
   4   0   0 9229.62  221.07 
   4   0   0 9995.37  235.34 
  -5   0   0   -0.18    3.29 
   5   0   0   -0.08    2.64 
   5   0   0   -2.88    2.73 
  -5   0   0   -1.45    1.88 
  -5   0   0    1.50    1.62 
   6   0   0  141.16   11.57 
  -6   0   0  158.42    8.79 
  -6   0   0  132.14   10.99 
   6   0   0  139.08   10.67 
  -6   0   0  172.86    7.99 
   7   0   0    2.94    3.58 
   7   0   0   -0.28    3.80 
  -7   0   0   -1.64    1.91 
  -7   0   0    1.74    4.32 
   8   0   0 2809.28   79.43 
  -8   0   0 2672.63   81.29 
  -8   0   0 2715.25   71.17 
   8   0   0 2767.22   81.90 
   9   0   0    1.15    4.63 
  -9   0   0   -3.04    4.64 
   9   0   0    1.65    4.31 
  -9   0   0    5.59    2.93 
 -10   0   0   77.08    7.64 
 -10   0   0  101.37   14.48 
  10   0   0   72.68   12.21 
 -11   0   0   -4.05    5.35 
 -11   0   0   -0.39    3.01 
  11   0   0    6.41    5.55 
 -12   0   0  915.23   31.09 
  12   0   0  855.34   38.87 
 -12   0   0  937.75   41.26 
   0   1   0    4.05    1.19 
   0  -1   0    5.30    0.97 
   0  -1   0    5.08    0.98 
   1  -1   0   15.93    1.87 
   1  -1   0   19.14    2.36 
  -1  -1   0   14.43    1.81 
  -1  -1   0   23.67    2.77 
   1   1   0   18.67    2.49 
  -1  -1   0   15.19    1.18 
   1   1   0   12.25    2.02 
   1  -1   0   20.54    2.32 
   1  -1   0   19.64    2.12 
   2   1   0    1.30    1.90 
  -2  -1   0    0.90    1.26 
   2  -1   0    0.29    2.03 
  -2  -1   0    3.15    2.32 
   2  -1   0    1.19    2.16 
   2   1   0   -0.63    2.09 
   2  -1   0    2.12    1.86 
  -2  -1   0    2.85    1.55 
   2  -1   0    2.05    1.89 
  -3  -1   0   63.99    4.45 
   3   1   0   77.51    7.49 
  -3  -1   0   65.60    3.87 
   3  -1   0   68.41    5.93 
   3  -1   0   58.73    5.41 
   3   1   0   70.97    5.89 
   3  -1   0   71.57    5.54 
   3  -1   0   68.91    5.17 
  -3  -1   0   70.90    5.82 
  -4  -1   0    0.38    1.77 
   4  -1   0   -1.26    2.36 
  -4   1   0   -0.08    0.89 
   4   1   0   -1.37    2.08 
   4  -1   0    0.51    2.91 
   4  -1   0   -0.17    2.23 
  -4  -1   0   -0.26    2.64 
   4  -1   0    1.53    2.83 
   4   1   0   -1.04    2.90 
  -4   1   0    1.76    1.05 
  -4  -1   0    0.50    1.61 
  -5  -1   0   34.55    4.35 
  -5   1   0   43.36    7.17 
   5   1   0   32.65    6.45 
   5  -1   0   37.60    6.94 
  -5   1   0   33.52    3.08 
  -5   1   0   33.24    4.92 
   5  -1   0   39.08    6.70 
   5   1   0   43.10    8.05 
  -5  -1   0   45.54    7.24 
  -5  -1   0   31.14    3.88 
  -6  -1   0    1.46    2.20 
   6   1   0   -1.68    3.03 
  -6  -1   0    0.01    2.05 
  -6  -1   0   -2.95    2.90 
   6   1   0   -1.21    3.71 
  -6   1   0   -0.43    1.46 
  -6   1   0    2.16    3.71 
  -6   1   0   -0.94    2.51 
   6  -1   0    0.27    3.37 
   6  -1   0    2.75    3.73 
   7  -1   0   18.02    6.68 
   7   1   0   24.60    7.51 
  -7   1   0   27.46    7.46 
  -7  -1   0   16.09    3.91 
   7   1   0   20.32    6.10 
  -7  -1   0   28.12    7.97 
   7  -1   0   22.07    6.32 
  -7   1   0   17.22    3.22 
  -7   1   0   24.69    5.16 
  -8  -1   0    1.27    5.01 
   8   1   0    3.85    5.56 
   8  -1   0   -0.50    5.15 
   8   1   0    3.21    4.08 
   8  -1   0    5.85    4.41 
  -8  -1   0    1.84    2.43 
  -8   1   0   -2.45    4.17 
  -8   1   0    0.55    2.05 
   9   1   0    7.11    5.57 
  -9   1   0    5.48    5.51 
   9  -1   0    1.76    4.20 
   9  -1   0    3.55    4.99 
   9   1   0   -1.15    4.00 
  -9   1   0    3.15    2.86 
  -9  -1   0    1.83    5.68 
  -9  -1   0    1.34    2.77 
 -10  -1   0   -0.69    6.88 
 -10  -1   0   -0.34    3.03 
  10   1   0    2.56    4.93 
 -10   1   0   -6.07    4.91 
  10  -1   0   10.67    5.28 
 -10   1   0   -1.00    2.54 
 -11  -1   0    2.79    3.50 
  11   1   0    6.79    5.65 
 -11   1   0    2.28    3.43 
 -11  -1   0   -1.95    6.03 
 -11   1   0    1.28    6.42 
  11  -1   0    1.54    5.08 
  12  -1   0    2.68    5.26 
 -12  -1   0    2.01    3.77 
  12   1   0    1.23    5.63 
 -12   1   0   -4.32    3.31 
 -12  -1   0   -1.42    6.91 
 -12   1   0    9.79    8.57 
   0   2   0 2402.65   60.32 
   0  -2   0 2341.00   60.74 
   0   2   0 2391.69   62.68 
   0  -2   0 2523.04   57.84 
  -1   2   0    0.38    0.57 
   1  -2   0    0.76    1.15 
   1  -2   0   -0.21    0.74 
  -1   2   0    3.72    1.62 
   1   2   0    2.00    1.73 
   1  -2   0   -0.16    1.65 
  -1  -2   0    0.31    1.34 
  -1  -2   0    1.60    0.93 
  -1  -2   0    0.98    1.04 
   1   2   0    0.61    1.18 
   2  -2   0 2320.32   61.84 
  -2  -2   0 2332.48   59.38 
   2  -2   0 2384.91   58.19 
   2  -2   0 2348.20   58.28 
  -2  -2   0 2375.25   62.41 
   2  -2   0 2362.36   61.64 
  -2  -2   0 2424.33   56.13 
   2   2   0 2328.81   59.07 
   2   2   0 2260.16   62.83 
   3  -2   0    0.35    1.68 
   3  -2   0   -1.68    1.69 
  -3  -2   0   -0.21    0.99 
   3  -2   0   -1.55    1.64 
   3  -2   0   -4.62    1.32 
   3   2   0   -0.44    1.81 
  -3  -2   0    2.52    2.28 
   3   2   0   -1.35    2.12 
  -3  -2   0    0.04    1.37 
   4  -2   0 2000.57   57.04 
   4  -2   0 2026.39   56.72 
  -4  -2   0 1926.39   57.77 
  -4  -2   0 1960.01   49.05 
   4  -2   0 2076.75   53.61 
   4  -2   0 2017.69   54.48 
   4   2   0 2035.64   58.73 
   4   2   0 2019.67   55.29 
  -4  -2   0 1948.95   52.85 
   5  -2   0    2.30    2.91 
   5  -2   0   -1.19    2.73 
  -5  -2   0    1.83    3.25 
  -5  -2   0   -2.19    1.39 
   5   2   0    2.94    3.69 
   5  -2   0   -0.21    2.93 
   5  -2   0   -3.07    1.82 
  -5  -2   0    1.03    1.76 
   5   2   0   -1.88    2.20 
   6  -2   0 1687.56   52.69 
   6  -2   0 1668.18   50.52 
   6   2   0 1660.01   54.32 
   6  -2   0 1684.31   51.90 
  -6   2   0 1645.78   47.22 
   6   2   0 1686.08   51.03 
  -6  -2   0 1575.78   52.60 
  -6   2   0 1674.84   41.98 
  -6  -2   0 1671.77   46.57 
  -7  -2   0    3.79    2.69 
   7   2   0    1.67    3.67 
   7  -2   0   -0.45    3.46 
  -7   2   0    2.55    1.79 
  -7   2   0   -1.52    4.10 
  -7  -2   0    1.01    4.59 
   7  -2   0   -0.42    3.67 
  -7   2   0   -1.52    3.01 
   7   2   0   -2.23    3.83 
  -8  -2   0 1071.04   33.72 
   8   2   0 1061.39   41.84 
  -8  -2   0 1093.88   40.90 
   8  -2   0 1103.80   39.45 
   8  -2   0 1032.73   39.02 
  -8   2   0 1083.32   30.20 
   8   2   0 1079.67   39.53 
  -8   2   0 1082.24   40.32 
  -9  -2   0    3.95    5.68 
  -9   2   0    1.22    2.38 
   9  -2   0    1.82    4.68 
   9   2   0    5.01    4.81 
  -9   2   0    0.19    5.01 
  -9  -2   0   -1.34    2.80 
   9   2   0    3.00    5.13 
   9  -2   0   -1.79    3.81 
 -10   2   0  700.49   32.26 
 -10  -2   0  710.95   26.32 
 -10   2   0  725.66   23.32 
  10  -2   0  678.60   31.72 
  10   2   0  723.76   32.38 
 -10  -2   0  719.65   33.99 
 -11   2   0    1.25    2.76 
  11   2   0   -1.99    4.31 
  11  -2   0   -4.47    3.83 
 -11  -2   0    1.87    3.82 
 -11  -2   0    0.45    6.18 
 -11   2   0    2.16    7.49 
 -12   2   0  414.52   25.30 
 -12  -2   0  388.28   18.89 
 -12   2   0  367.03   15.79 
 -12  -2   0  388.10   24.93 
  12   2   0  369.02   23.85 
  12  -2   0  335.26   22.81 
   0   3   0    2.43    2.08 
   0  -3   0    0.76    1.46 
   0  -3   0   -0.43    1.52 
   0   3   0    1.03    0.78 
  -1  -3   0  145.41    7.09 
  -1  -3   0  150.73    6.68 
  -1   3   0  139.30    7.22 
  -1   3   0  143.92    5.29 
   1   3   0  137.49    7.52 
  -1   3   0  149.19    4.84 
   1   3   0  145.93    6.03 
   1  -3   0  150.59    6.88 
   1  -3   0  142.58    7.57 
  -1  -3   0  156.71    5.92 
   2   3   0    3.16    2.64 
   2   3   0    0.88    1.77 
   2  -3   0    1.11    1.44 
   2  -3   0    2.91    2.25 
   2  -3   0   -0.12    1.90 
  -2  -3   0    3.25    1.38 
   2  -3   0    8.78    3.00 
  -2  -3   0    2.98    2.72 
  -2  -3   0   -0.24    1.51 
   3  -3   0    9.96    3.05 
   3   3   0   18.20    4.68 
   3  -3   0    9.42    3.30 
  -3  -3   0   10.34    4.16 
  -3  -3   0   10.05    2.95 
   3  -3   0   16.59    4.40 
  -3  -3   0   12.96    1.87 
   3   3   0   10.62    3.51 
   3  -3   0   16.19    3.95 
  -4  -3   0    1.40    1.22 
   4   3   0    5.73    3.63 
   4   3   0   -0.54    2.40 
  -4  -3   0   -2.42    1.80 
   4  -3   0   -2.70    2.19 
  -4  -3   0    1.35    3.35 
   4  -3   0   -0.88    2.46 
   4  -3   0   -2.40    2.00 
   4  -3   0    0.11    2.47 
   5  -3   0  123.31   11.41 
   5  -3   0  101.63    9.44 
  -5  -3   0  108.17    4.61 
  -5  -3   0  114.68   11.63 
   5   3   0  102.82    8.50 
  -5  -3   0   81.96    6.78 
   5   3   0  113.31   11.46 
   5  -3   0  102.13    8.33 
   5  -3   0  106.47    9.96 
   6   3   0    1.92    4.60 
   6  -3   0    3.30    4.02 
   6  -3   0   -2.34    2.71 
  -6  -3   0   -1.69    2.17 
  -6  -3   0   -2.65    3.88 
   6   3   0   -1.49    2.78 
   6  -3   0    2.99    3.64 
   6  -3   0    2.81    3.50 
  -7   3   0    7.79    2.02 
  -7  -3   0    8.54    5.81 
   7   3   0    4.41    3.94 
  -7  -3   0    6.32    3.08 
   7  -3   0    7.22    4.45 
   7  -3   0    9.43    5.25 
  -7   3   0   13.92    4.90 
   7   3   0   11.51    6.37 
   7  -3   0    0.52    4.60 
  -8   3   0   -0.42    1.88 
   8   3   0   -0.43    4.33 
  -8  -3   0    2.37    5.15 
  -8  -3   0   -0.74    2.51 
   8  -3   0   -2.03    3.02 
   8   3   0   -1.36    5.00 
  -8   3   0    0.71    4.85 
   8  -3   0    6.24    5.35 
  -9  -3   0    4.56    6.41 
  -9  -3   0    0.54    3.13 
   9   3   0    1.49    5.57 
   9  -3   0    2.29    4.37 
  -9   3   0    1.82    5.49 
  -9   3   0    2.82    2.30 
   9   3   0    9.63    5.97 
  10  -3   0   -0.83    3.95 
 -10  -3   0   -4.98    5.70 
 -10   3   0   -5.77    5.75 
  10   3   0    3.08    5.49 
 -10   3   0    1.60    2.65 
 -10  -3   0    5.07    3.53 
 -11  -3   0   15.49    8.80 
 -11  -3   0   21.58    5.98 
  11   3   0   27.36    8.57 
 -11   3   0   14.58    3.62 
 -11   3   0   32.47   10.45 
  11  -3   0   13.86    6.69 
   0   4   0 6980.32  182.28 
   0  -4   0 7194.87  178.04 
   0   4   0 7135.00  170.06 
   0  -4   0 7559.76  169.17 
   1   4   0    0.33    1.39 
   1  -4   0   -0.09    2.00 
   1   4   0   -0.23    2.37 
  -1  -4   0    0.62    1.53 
  -1   4   0    2.49    1.03 
  -1   4   0   -0.59    1.14 
  -1   4   0   -1.36    1.98 
   1  -4   0    2.22    2.07 
  -1  -4   0    4.07    2.25 
  -1  -4   0   -2.58    1.16 
   2   4   0   84.98    7.05 
   2  -4   0   69.04    6.50 
   2   4   0   90.60    5.69 
  -2   4   0   90.34    6.43 
  -2  -4   0   79.13    5.73 
   2  -4   0   88.99    4.65 
  -2   4   0   90.61    4.05 
  -2  -4   0   94.43    4.66 
   2  -4   0   97.07    6.35 
  -2  -4   0   96.05    6.91 
   3  -4   0   -0.69    2.13 
   3  -4   0   -0.40    1.75 
   3  -4   0   -0.21    2.27 
   3   4   0    4.18    3.26 
  -3  -4   0    0.75    1.28 
  -3  -4   0    3.10    2.08 
   3   4   0    3.75    2.66 
   3  -4   0    2.55    2.75 
  -3  -4   0    3.20    3.42 
  -4  -4   0 4159.01  107.74 
  -4  -4   0 4329.98  114.17 
   4   4   0 4165.61  114.23 
   4   4   0 4309.32  108.06 
   4  -4   0 4242.67  105.82 
  -4  -4   0 4409.23  100.04 
   4  -4   0 4366.67  107.01 
   4  -4   0 4204.39  112.90 
   4  -4   0 4266.21  112.52 
  -5  -4   0    2.07    3.56 
   5  -4   0   -3.37    2.55 
   5   4   0    1.49    3.70 
   5  -4   0   -1.51    2.69 
  -5  -4   0    0.72    2.36 
   5  -4   0    3.59    3.85 
   5   4   0   -3.12    2.44 
   5  -4   0   -0.53    2.82 
   6   4   0   74.78   11.03 
   6  -4   0   93.30   11.18 
  -6  -4   0   80.86   10.97 
   6  -4   0   70.60    8.95 
  -6  -4   0   77.13    7.98 
   6  -4   0   58.77    8.75 
   6   4   0   72.86    9.49 
   6  -4   0   88.37    9.76 
   7  -4   0    2.55    3.48 
   7  -4   0   -1.64    3.77 
  -7  -4   0   -1.89    4.71 
  -7  -4   0    1.43    2.71 
   7   4   0    4.82    5.66 
   7   4   0    1.46    4.00 
   7  -4   0    4.90    4.41 
  -8  -4   0 1575.44   47.12 
  -8  -4   0 1498.84   53.87 
   8   4   0 1530.82   54.72 
   8  -4   0 1522.61   50.42 
   8  -4   0 1523.83   51.20 
  -8   4   0 1583.35   48.71 
   8   4   0 1497.21   50.72 
   9   4   0   -7.35    3.53 
   9  -4   0    6.86    5.15 
  -9  -4   0   -3.44    5.41 
  -9   4   0   -0.68    1.87 
  -9  -4   0   -3.18    2.91 
   9   4   0   -0.64    5.14 
  -9   4   0   -0.13    5.38 
  10  -4   0  104.70   13.45 
 -10   4   0   94.66    6.20 
 -10  -4   0  100.89   10.43 
 -10   4   0   99.68   14.37 
 -10  -4   0  113.88   15.55 
  10   4   0   84.50   13.25 
 -11  -4   0    5.30    4.34 
  11  -4   0    4.05    5.46 
 -11   4   0    3.08    2.61 
  11   4   0   -0.41    5.53 
 -11   4   0   -7.43    5.02 
 -11  -4   0   -6.06    6.67 
   0   5   0    2.76    1.14 
   0   5   0    5.21    3.15 
   0  -5   0   -0.03    2.09 
   0  -5   0    5.65    2.50 
   1  -5   0    7.68    3.65 
   1  -5   0    5.65    2.64 
  -1   5   0    3.78    3.03 
  -1  -5   0    7.12    2.48 
  -1   5   0    6.14    2.04 
   1   5   0    2.14    3.09 
   1   5   0    7.00    2.05 
  -1   5   0    5.54    1.40 
  -1  -5   0    9.46    2.61 
  -1  -5   0    5.95    2.97 
  -2   5   0    0.01    1.35 
   2   5   0    2.46    2.04 
  -2  -5   0    4.14    2.01 
  -2   5   0    5.13    3.23 
   2   5   0    3.50    3.43 
  -2  -5   0    3.35    2.94 
   2  -5   0    0.37    2.28 
  -2  -5   0    2.18    2.21 
  -2   5   0    1.38    1.46 
   2  -5   0    5.44    3.32 
  -3   5   0  124.33    8.86 
   3  -5   0  124.64    9.09 
   3   5   0  150.03    8.67 
   3   5   0  129.03    9.87 
  -3   5   0  138.22    5.44 
  -3  -5   0  139.60    9.79 
  -3  -5   0  136.90    6.18 
  -3  -5   0  132.93    8.44 
   3  -5   0  136.04    8.87 
   3  -5   0  130.33    6.87 
   4   5   0    4.74    4.13 
   4  -5   0    2.55    3.18 
   4  -5   0   -1.53    2.19 
   4  -5   0    9.27    4.45 
  -4  -5   0    1.03    1.48 
  -4  -5   0    1.57    2.44 
   4   5   0   -1.99    2.36 
  -4  -5   0    1.35    3.89 
   4  -5   0   -1.28    2.76 
   5  -5   0   10.30    3.94 
  -5  -5   0    8.30    3.75 
  -5  -5   0   17.84    6.58 
   5   5   0    6.23    4.54 
   5  -5   0    1.25    3.53 
   5  -5   0    6.58    3.83 
   5   5   0    9.71    4.41 
   5  -5   0   10.50    4.94 
  -6  -5   0    6.30    5.29 
   6  -5   0    3.89    4.51 
   6  -5   0    5.48    4.15 
   6   5   0   -1.62    3.57 
   6  -5   0    4.85    4.09 
   6   5   0    2.66    3.71 
  -6  -5   0    0.40    2.53 
   6  -5   0   -0.68    3.46 
  -7  -5   0   47.95   10.41 
  -7  -5   0   44.92    7.42 
   7  -5   0   56.54    9.27 
   7   5   0   54.31    9.19 
   7  -5   0   70.04   10.95 
   7   5   0   69.92   11.67 
   7  -5   0   65.42    9.92 
   7  -5   0   64.13   10.01 
   8   5   0    6.63    5.03 
   8  -5   0   -1.95    3.30 
   8  -5   0    1.53    4.27 
   8  -5   0   -2.84    4.14 
  -8  -5   0   -0.52    3.25 
  -8  -5   0    6.45    6.08 
   8   5   0    5.08    6.02 
  -8   5   0    2.98    4.44 
  -9  -5   0    4.03    6.91 
  -9   5   0   -4.87    6.07 
  -9  -5   0   11.35    4.78 
   9  -5   0    2.84    4.61 
   9   5   0    5.56    4.94 
   9   5   0   12.68    7.21 
  10  -5   0    1.75    4.77 
 -10   5   0    1.53    2.42 
 -10   5   0    4.38    6.49 
 -10  -5   0    0.76    3.59 
  10   5   0    4.56    5.93 
 -10  -5   0   -6.01    5.99 
  11   5   0   -9.26    4.22 
 -11  -5   0    9.11    7.83 
 -11  -5   0    2.05    4.50 
  11  -5   0    2.32    5.12 
 -11   5   0    1.74    2.28 
 -11   5   0   -3.94    5.80 
   0   6   0  675.64   17.30 
   0   6   0  656.88   24.95 
   0  -6   0  657.59   22.90 
   0  -6   0  673.67   22.04 
  -1   6   0    6.04    3.47 
  -1  -6   0    1.14    2.32 
   1  -6   0    8.92    3.50 
   1   6   0    3.45    3.80 
  -1  -6   0    8.10    3.28 
   1   6   0   -0.02    1.54 
   1  -6   0    4.86    3.14 
  -2   6   0 1976.64   57.75 
  -2   6   0 2016.08   48.62 
  -2  -6   0 2043.86   51.06 
  -2   6   0 1972.38   50.78 
   2   6   0 2045.76   51.90 
   2   6   0 1857.10   58.55 
   2  -6   0 1967.85   57.74 
  -2  -6   0 2008.82   56.82 
   2  -6   0 1981.52   53.82 
  -2  -6   0 1968.57   54.55 
   3   6   0    1.64    3.31 
  -3  -6   0    2.43    2.04 
   3  -6   0    3.41    3.59 
  -3  -6   0    3.88    2.98 
  -3   6   0    5.65    3.54 
  -3  -6   0    1.40    2.75 
  -3   6   0   -1.23    1.50 
   3   6   0    3.42    2.70 
   3  -6   0   -3.59    2.36 
   4   6   0  691.91   28.12 
  -4  -6   0  761.79   20.55 
  -4   6   0  731.85   27.13 
  -4  -6   0  731.50   26.28 
  -4   6   0  736.80   20.24 
   4  -6   0  730.28   23.31 
  -4  -6   0  742.72   28.76 
   4   6   0  755.44   25.80 
   4  -6   0  706.28   27.12 
   4  -6   0  722.36   26.57 
   5  -6   0    3.10    3.71 
  -5   6   0    2.10    3.98 
   5   6   0   -1.52    3.67 
   5  -6   0   -1.29    2.78 
   5  -6   0    4.95    3.99 
   5   6   0   -2.66    2.65 
  -5  -6   0    2.09    4.08 
  -5  -6   0    4.64    3.49 
  -6  -6   0 1557.02   48.29 
   6  -6   0 1602.31   51.90 
  -6  -6   0 1577.50   53.73 
   6  -6   0 1580.59   47.58 
   6  -6   0 1561.56   50.83 
   6  -6   0 1558.15   49.11 
   6   6   0 1605.33   52.91 
   6   6   0 1578.69   49.22 
   7  -6   0    2.92    4.20 
   7  -6   0    6.14    4.24 
  -7  -6   0   -5.29    2.39 
   7   6   0    0.47    4.02 
  -7  -6   0    3.55    6.01 
   7  -6   0    3.72    4.52 
   7   6   0    9.84    5.99 
   7  -6   0   -4.23    4.94 
   8  -6   0  606.79   26.17 
   8  -6   0  570.53   27.88 
   8   6   0  602.08   29.16 
   8   6   0  545.34   26.00 
   8  -6   0  594.40   26.97 
  -8  -6   0  558.36   29.16 
  -8  -6   0  583.09   24.51 
   9   6   0   -0.27    5.85 
   9  -6   0   10.26    6.29 
   9   6   0    4.92    4.42 
  -9  -6   0    2.83    3.98 
   9  -6   0    1.61    4.99 
  -9  -6   0    3.92    6.59 
 -10   6   0  727.54   34.95 
 -10  -6   0  761.06   36.67 
  10   6   0  721.47   32.96 
 -10  -6   0  723.69   29.84 
  10  -6   0  750.71   33.35 
  11   6   0   -2.04    4.77 
 -11  -6   0   -3.79    5.60 
 -11  -6   0    7.96    4.92 
  11  -6   0    7.33    5.72 
   0  -7   0    2.09    3.06 
   0   7   0    6.11    4.38 
   0  -7   0    9.00    3.43 
   1   7   0   16.01    5.41 
  -1  -7   0   17.60    4.05 
   1   7   0   17.05    2.81 
  -1  -7   0   17.29    4.75 
   1  -7   0   21.11    5.91 
  -1   7   0   21.30    5.49 
   1  -7   0   12.39    4.03 
  -1  -7   0   10.97    3.23 
   2  -7   0    1.71    3.59 
  -2   7   0   -0.79    1.57 
   2   7   0   -0.39    2.93 
  -2  -7   0    0.90    2.70 
   2   7   0   -2.23    1.96 
   2  -7   0   -2.22    2.22 
  -2   7   0    3.05    1.61 
  -2  -7   0   -0.37    2.20 
  -2   7   0    2.82    3.25 
  -2  -7   0   -3.74    1.39 
  -3   7   0   12.25    4.69 
   3  -7   0    5.99    3.96 
  -3   7   0   15.70    3.04 
  -3  -7   0    5.01    3.58 
  -3   7   0   15.15    2.86 
  -3  -7   0   17.60    3.50 
   3   7   0   13.56    3.70 
   3  -7   0   14.60    5.84 
  -3  -7   0   17.03    5.65 
   3   7   0   17.00    5.97 
   4   7   0    1.38    4.26 
   4  -7   0   -3.73    2.80 
   4   7   0    0.08    3.15 
  -4  -7   0    1.14    3.04 
   4  -7   0   10.95    4.65 
  -4  -7   0    6.58    2.57 
  -4   7   0   -0.44    1.89 
  -4   7   0    5.16    4.16 
  -4   7   0   -2.59    2.21 
  -4  -7   0    6.96    4.93 
  -5  -7   0   22.53    5.69 
   5   7   0   38.78    7.20 
   5  -7   0   42.16    8.85 
   5  -7   0   20.93    6.12 
  -5   7   0   33.46    3.33 
  -5  -7   0   29.71    7.90 
   5   7   0   38.39    8.45 
  -5   7   0   45.56    8.29 
   5  -7   0   26.68    5.22 
  -6  -7   0   -2.41    3.87 
   6  -7   0   -5.70    3.64 
   6  -7   0    5.86    4.07 
   6  -7   0   -0.40    3.56 
   6   7   0    3.51    4.17 
  -6   7   0   -4.14    4.32 
  -6  -7   0   -1.24    2.70 
   6   7   0   -1.46    3.54 
   7  -7   0    2.78    4.28 
   7  -7   0    1.62    4.86 
  -7  -7   0   -1.22    5.77 
  -7   7   0    6.81    5.91 
  -7  -7   0   -3.37    2.87 
   7   7   0    8.47    5.54 
   7   7   0    3.51    4.62 
   7  -7   0    8.90    4.94 
   8   7   0    2.34    5.60 
   8  -7   0    2.39    3.95 
   8  -7   0   -0.39    4.82 
  -8  -7   0   10.10    7.34 
   8  -7   0    5.38    4.50 
   8   7   0   -2.58    4.45 
  -8  -7   0   -6.07    2.76 
  -8   7   0   13.94    7.05 
  -9  -7   0    4.34    7.14 
   9   7   0    4.97    5.81 
  -9   7   0   -4.63    4.38 
   9   7   0    0.78    4.75 
   9  -7   0    0.28    4.77 
   9  -7   0    0.55    4.79 
  -9  -7   0    4.35    3.90 
 -10  -7   0    1.95    4.08 
 -10   7   0    8.56    7.70 
 -10  -7   0    0.50    7.17 
  10   7   0   -1.91    4.65 
  11   7   0    2.96    5.48 
 -11  -7   0   -0.10    4.95 
 -11  -7   0   -4.81    7.06 
   0   8   0 2809.82   82.59 
   0  -8   0 2914.34   75.33 
   0  -8   0 2836.65   78.46 
   1   8   0   -1.15    1.40 
   1  -8   0    1.28    2.89 
  -1   8   0    3.26    3.94 
  -1  -8   0    1.00    3.16 
   1   8   0   -7.04    3.27 
   1  -8   0    3.05    3.94 
  -1  -8   0    0.90    2.15 
  -1  -8   0   -2.89    2.07 
  -2  -8   0  566.69   21.70 
   2   8   0  549.99   18.23 
  -2   8   0  554.11   23.51 
   2  -8   0  534.32   21.94 
  -2  -8   0  553.35   22.66 
  -2  -8   0  539.39   19.59 
   2   8   0  517.09   23.85 
   2  -8   0  540.12   23.71 
   3   8   0   -0.55    2.14 
   3  -8   0    7.38    4.64 
   3   8   0   10.04    5.32 
  -3  -8   0   -1.67    2.20 
  -3  -8   0   -1.79    2.38 
  -3  -8   0   -1.81    2.97 
  -3   8   0    3.07    3.96 
   3  -8   0   -3.86    2.73 
   4   8   0 1697.17   56.15 
   4   8   0 1740.71   48.84 
  -4  -8   0 1542.92   53.73 
  -4   8   0 1704.13   53.78 
   4  -8   0 1719.40   53.70 
  -4  -8   0 1780.85   44.73 
   4  -8   0 1562.32   50.89 
  -4  -8   0 1785.10   52.32 
  -5  -8   0   -1.73    3.04 
   5  -8   0   -2.77    3.03 
   5   8   0    4.45    3.48 
   5   8   0    2.18    4.52 
  -5   8   0    2.17    4.54 
  -5  -8   0    0.24    3.61 
   5  -8   0   -0.77    4.49 
  -6  -8   0  209.14   15.92 
   6  -8   0  227.23   15.51 
   6   8   0  229.00   14.18 
   6   8   0  239.24   16.10 
  -6  -8   0  238.79   15.22 
   6  -8   0  237.44   15.57 
  -6   8   0  223.22   15.18 
   7   8   0   -2.88    4.52 
  -7   8   0    0.27    5.52 
  -7  -8   0    7.05    6.68 
   7  -8   0   -3.91    3.42 
  -7  -8   0   -0.88    3.03 
   7   8   0    3.77    4.86 
   7  -8   0    3.25    5.13 
  -8   8   0  706.81   30.66 
   8   8   0  716.54   32.37 
   8   8   0  616.43   28.35 
   8  -8   0  655.97   30.81 
  -8  -8   0  687.71   28.87 
  -8  -8   0  617.19   31.90 
   8  -8   0  633.32   29.19 
   9  -8   0   -0.43    4.36 
  -9  -8   0   -1.60    5.88 
  -9   8   0    1.51    6.13 
   9   8   0   -0.39    6.19 
  -9  -8   0   -2.39    3.47 
   9   8   0   -0.05    4.60 
 -10  -8   0  171.97   19.87 
 -10  -8   0  163.43   13.78 
  10   8   0  152.67   15.94 
   0  -9   0   -4.21    3.04 
   0   9   0    1.53    4.72 
   0  -9   0    7.19    4.13 
  -1  -9   0    6.66    3.62 
  -1  -9   0    9.38    4.75 
   1  -9   0    6.95    4.03 
   1   9   0   12.42    6.30 
   1  -9   0    6.03    4.96 
  -1   9   0    7.01    4.75 
   2  -9   0    9.03    4.85 
   2   9   0    3.54    2.53 
  -2   9   0    2.29    4.07 
  -2  -9   0    2.77    3.42 
   2  -9   0    3.14    4.16 
   2   9   0   -0.71    3.35 
  -2  -9   0    5.20    3.00 
  -2  -9   0    7.86    4.04 
   3   9   0    5.50    5.66 
  -3  -9   0    2.56    3.98 
   3  -9   0    3.78    4.42 
   3   9   0   -2.37    2.56 
  -3  -9   0    3.88    3.30 
  -3   9   0    4.01    4.57 
   3  -9   0    3.32    4.27 
  -3  -9   0    6.90    3.27 
   4   9   0   -1.26    3.72 
  -4  -9   0    2.44    3.51 
  -4  -9   0    4.36    4.45 
   4   9   0   -1.44    3.01 
   4  -9   0   -5.41    3.99 
   4  -9   0   -0.21    3.49 
  -4   9   0    4.16    4.77 
  -5  -9   0   16.23    6.63 
  -5  -9   0    8.61    4.87 
  -5   9   0    8.81    5.93 
   5   9   0   18.50    6.95 
   5   9   0   18.56    5.37 
   5  -9   0    9.40    5.36 
   5  -9   0   13.81    6.19 
  -6  -9   0    3.38    4.74 
   6   9   0    0.04    4.26 
   6  -9   0    7.30    4.66 
  -6  -9   0    1.34    4.14 
   6   9   0    0.60    4.48 
  -6   9   0   -2.56    4.35 
   6  -9   0    0.49    4.02 
  -7  -9   0   -5.78    4.16 
   7   9   0    0.17    4.86 
   7   9   0    1.64    4.53 
   7  -9   0   -5.53    3.80 
  -7   9   0   -0.80    5.62 
  -7  -9   0    1.94    3.79 
   7  -9   0    4.51    5.01 
  -8  -9   0    3.89    4.62 
   8   9   0    5.48    5.42 
   8  -9   0    6.85    5.52 
   8   9   0    6.15    5.88 
   8  -9   0    9.31    6.28 
  -8  -9   0   -1.45    5.99 
   9  -9   0    9.21    6.39 
  -9  -9   0    5.10    7.20 
   9   9   0    5.46    5.77 
  -9  -9   0    1.10    4.02 
  -9   9   0    7.01    7.36 
   9   9   0   -1.53    5.03 
 -10  -9   0    6.56    7.50 
  10   9   0   -8.23    4.19 
 -10  -9   0    0.61    3.96 
   0  10   0  211.52   15.14 
   0 -10   0  238.70   14.05 
   0 -10   0  234.78   14.26 
   1  10   0    8.81    6.16 
  -1 -10   0    5.26    4.04 
   1 -10   0   13.68    4.45 
  -1 -10   0    0.92    3.70 
   1 -10   0    1.85    4.33 
  -1  10   0    5.49    5.02 
  -2 -10   0  984.91   35.59 
   2 -10   0  961.07   36.50 
   2  10   0  948.16   37.69 
   2 -10   0  934.55   34.62 
  -2  10   0  968.77   37.30 
  -2 -10   0  962.83   31.77 
   3  10   0   10.04    6.25 
  -3  10   0    8.50    5.86 
  -3 -10   0    5.04    4.58 
   3 -10   0    1.24    4.55 
   3 -10   0   20.44    6.27 
  -3 -10   0    4.61    3.87 
  -4  10   0  270.19   17.34 
   4  10   0  316.02   14.97 
   4 -10   0  317.11   18.09 
   4 -10   0  304.63   18.29 
   4  10   0  299.86   19.86 
  -4 -10   0  291.98   18.10 
  -4 -10   0  311.07   17.73 
  -5 -10   0    6.06    5.28 
  -5 -10   0    5.22    4.37 
   5 -10   0    1.74    4.39 
   5  10   0   12.56    6.54 
  -5  10   0    5.24    5.24 
   5  10   0   -0.98    3.96 
   5 -10   0   18.61    6.09 
  -6  10   0  843.68   35.29 
   6 -10   0  862.24   35.07 
  -6 -10   0  869.65   34.48 
  -6 -10   0  826.48   36.06 
   6  10   0  838.41   36.13 
   6 -10   0  749.06   33.48 
   6  10   0  864.95   31.73 
   7 -10   0   10.52    6.27 
  -7 -10   0    7.31    5.07 
   7  10   0   -3.71    3.96 
   7  10   0    9.28    5.54 
  -7 -10   0    0.60    5.67 
  -7  10   0   -1.07    5.44 
   7 -10   0    9.49    5.72 
   8  10   0  296.75   20.20 
   8 -10   0  301.09   19.73 
   8  10   0  275.77   17.56 
   8 -10   0  265.98   18.91 
  -8 -10   0  282.06   18.36 
  -8 -10   0  241.20   19.30 
  -9 -10   0   13.02    8.46 
  -9  10   0   -2.50    2.72 
   9  10   0    1.53    5.22 
  -9  10   0   -3.93    7.01 
   9  10   0    4.13    6.02 
  -9 -10   0    6.37    5.10 
 -10 -10   0  393.39   26.08 
  10  10   0  368.95   21.94 
 -10 -10   0  384.01   22.39 
   0 -11   0    3.81    4.77 
   0 -11   0    4.74    4.54 
   0  11   0   -0.59    4.97 
  -1 -11   0   23.28    5.94 
   1  11   0   26.95    8.25 
   1 -11   0   19.72    7.77 
   1 -11   0   18.15    6.56 
  -1 -11   0   26.98    7.13 
  -1  11   0   31.32    9.08 
   2  11   0   -0.57    4.45 
  -2 -11   0   -3.79    3.64 
  -2 -11   0   -3.88    3.31 
   2 -11   0    2.46    5.49 
  -2  11   0    0.91    5.10 
   2 -11   0   -3.56    4.02 
  -3 -11   0  107.91   12.93 
  -3  11   0   74.40   12.56 
   3 -11   0  102.09   12.81 
   3  11   0  109.13   15.04 
  -3 -11   0   85.33    9.03 
   3 -11   0   90.58   12.00 
   4 -11   0   -4.86    4.14 
  -4 -11   0   -0.75    4.82 
   4 -11   0   -0.28    4.72 
  -4  11   0    0.28    5.02 
   4  11   0   11.69    6.70 
  -5 -11   0    2.62    5.65 
   5 -11   0   17.03    6.78 
   5  11   0   -0.44    5.41 
  -5  11   0    7.94    6.59 
   5 -11   0   -2.38    5.72 
  -6 -11   0   -3.71    4.67 
  -6  11   0   -3.38    5.05 
   6 -11   0   -2.63    5.35 
   6 -11   0    1.99    5.19 
   6  11   0    6.20    6.21 
  -7  11   0   20.08    8.90 
   7 -11   0   35.11    9.79 
   7 -11   0   27.46    8.11 
   7  11   0   34.86   10.37 
  -7 -11   0   35.37   10.41 
   8 -11   0    2.73    5.57 
   8  11   0    8.92    6.67 
  -8 -11   0    9.53    6.76 
  -9 -11   0   14.38    9.24 
   9  11   0    4.59    6.79 
  -9  11   0    9.59    3.61 
   0 -12   0  971.50   36.39 
   0  12   0  955.45   39.24 
   0 -12   0  918.23   35.00 
   1  12   0   -2.16    4.67 
  -1  12   0   -2.50    4.87 
  -1 -12   0   -7.62    3.22 
   1 -12   0   -2.03    5.03 
   1 -12   0    2.25    5.13 
  -1 -12   0   -6.01    3.67 
   2 -12   0  273.58   17.84 
  -2  12   0  273.13   18.58 
  -2 -12   0  270.19   17.58 
   2 -12   0  282.99   18.58 
  -2 -12   0  302.02   16.46 
   2  12   0  265.26   19.10 
  -3 -12   0    1.50    4.97 
   3  12   0   -0.93    5.65 
   3 -12   0    5.96    5.31 
   3 -12   0    2.00    4.99 
  -3  12   0   -1.32    5.39 
   4  12   0  662.11   33.10 
  -4  12   0  601.01   29.86 
  -4 -12   0  649.70   30.36 
   4 -12   0  686.23   29.48 
   4 -12   0  582.69   29.45 
  -5  12   0    1.69    6.11 
   5 -12   0   -4.36    3.84 
   5  12   0    1.85    5.19 
  -5 -12   0    1.90    5.57 
   5 -12   0   -7.83    5.25 
   6  12   0  177.69   19.68 
   6 -12   0  186.49   18.25 
   6 -12   0  129.21   16.25 
  -6 -12   0  177.10   18.31 
  -6  12   0  164.99   18.36 
   7 -12   0    3.46    5.56 
   7  12   0   -0.86    6.02 
  -7 -12   0   -9.10    4.75 
  -7  12   0    1.20    6.51 
   8  12   0  288.89   21.10 
   8 -12   0  305.01   21.15 
  -8 -12   0  263.04   21.29 
   9  12   0   13.64    7.41 
  -9 -12   0    4.17    7.03 
   0 -13   0    4.02    5.18 
   0  13   0    0.02    5.51 
   0 -13   0    7.49    5.95 
  -1 -13   0   20.23    7.43 
  -1  13   0   20.24    8.12 
   1 -13   0   30.50    9.11 
  -1 -13   0   20.75    7.34 
   1 -13   0   15.74    7.29 
   1  13   0   17.02    8.35 
   2  13   0    1.64    5.63 
  -2 -13   0   -4.80    4.06 
  -2  13   0    4.81    7.03 
   2 -13   0   -2.63    5.34 
   2 -13   0   12.39    6.35 
  -2 -13   0    4.07    5.50 
  -3  13   0   -2.90    6.01 
   3 -13   0   -4.62    4.37 
  -3 -13   0   -0.78    4.91 
   3  13   0   -1.80    4.79 
   3 -13   0    1.18    5.85 
   4 -13   0    3.25    5.35 
   4  13   0   14.32    8.42 
   4 -13   0   -8.23    4.63 
  -4 -13   0    5.82    6.17 
  -4  13   0    4.57    6.79 
   5 -13   0   12.79    7.58 
   5  13   0   37.22   10.41 
  -5 -13   0   21.41    8.90 
  -5  13   0   28.32   10.31 
   5 -13   0   25.40    7.83 
   6 -13   0    4.37    6.46 
   6 -13   0   -0.09    5.25 
   6  13   0    2.62    6.38 
  -6  13   0   -2.01    6.60 
  -6 -13   0   -2.24    5.22 
   7  13   0    1.54    7.01 
  -7  13   0    3.80    7.08 
  -7 -13   0  -12.47    4.62 
   7 -13   0   -5.86    5.44 
   8 -13   0    1.66    5.97 
  -8 -13   0  -10.01    5.27 
   8  13   0   -1.93    6.95 
   0  14   0  180.11   19.43 
   0 -14   0  174.07   16.64 
   0 -14   0  170.35   14.59 
   1 -14   0   -1.38    5.07 
   1 -14   0    4.12    6.29 
  -1 -14   0    7.05    6.03 
   1  14   0    5.46    6.72 
  -1  14   0    1.09    6.16 
  -1 -14   0    5.63    5.72 
   2 -14   0  282.62   19.08 
  -2  14   0  268.76   20.43 
   2 -14   0  239.02   19.05 
  -2 -14   0  304.07   19.90 
  -2 -14   0  298.61   17.83 
   2  14   0  335.53   22.89 
  -3  14   0    7.53    7.73 
  -3 -14   0   12.21    6.65 
   3 -14   0    5.07    5.85 
   3 -14   0    5.49    6.89 
   3  14   0    3.20    6.06 
   4  14   0  229.18   23.88 
   4 -14   0  211.91   15.90 
  -4  14   0  189.74   17.41 
   4 -14   0  213.58   20.80 
  -4 -14   0  226.39   17.97 
   5 -14   0  -11.64    4.64 
   5  14   0   11.31    7.17 
  -5 -14   0    2.03    6.41 
  -5  14   0   -1.23    6.85 
   5 -14   0   -1.95    6.11 
  -6  14   0  276.29   21.20 
   6 -14   0  236.25   20.07 
   6  14   0  294.30   22.10 
  -6 -14   0  282.68   21.25 
  -7 -14   0    6.81    7.76 
   7  14   0   -2.57    6.85 
  -7  14   0   -0.07    7.33 
   7 -14   0    1.58    6.35 
   0 -15   0   -1.94    5.72 
   0  15   0    5.78    7.22 
   0 -15   0   -9.45    4.41 
  -1  15   0   11.47    8.71 
   1 -15   0   25.84    8.61 
  -1 -15   0   15.42    7.80 
  -1 -15   0   21.12    8.09 
   1  15   0   16.45    8.38 
   1 -15   0   12.91    8.10 
   2 -15   0   -2.70    6.18 
   2  15   0  -12.53    4.89 
  -2  15   0   -0.19    5.85 
  -2 -15   0    1.72    5.31 
   2 -15   0    2.26    5.31 
  -3 -15   0   38.16   10.63 
   3 -15   0   28.18   10.22 
  -3  15   0   33.44   11.45 
   3 -15   0   54.33   11.59 
   3  15   0   43.34   11.98 
   4 -15   0   -4.09    6.05 
   4  15   0   -5.23    6.56 
  -4  15   0    5.10    7.87 
  -4 -15   0   -4.74    6.22 
   4 -15   0    0.93    4.80 
   5 -15   0   11.02    7.75 
  -5 -15   0   11.10    8.21 
   5  15   0    1.66    7.44 
  -5  15   0    8.12    8.57 
  -6  15   0   -3.93    7.73 
   6 -15   0    3.62    6.25 
  -6 -15   0    2.39    5.88 
   6  15   0   12.65    8.64 
   0 -16   0  278.89   19.95 
   0  16   0  278.40   21.31 
   0 -16   0  254.18   19.88 
   1 -16   0    6.51    7.83 
   1 -16   0   -0.02    6.48 
  -1 -16   0   -0.32    6.12 
   1  16   0    7.00    6.80 
  -1 -16   0   -5.01    5.32 
  -1  16   0   -3.17    6.24 
   2 -16   0  121.28   16.36 
  -2 -16   0  117.68   16.73 
  -2  16   0  110.89   17.51 
   2 -16   0  113.77   17.48 
   2  16   0  119.24   18.49 
   3 -16   0   -0.31    6.72 
   3  16   0   -2.45    6.92 
  -3  16   0   -0.04    6.25 
   3 -16   0    2.06    6.25 
  -3 -16   0   -5.59    5.67 
   4 -16   0  264.96   24.76 
  -4 -16   0  224.45   19.30 
  -4  16   0  218.20   19.77 
   4  16   0  261.07   27.14 
   5  16   0   -5.42    6.57 
   5 -16   0    3.14    7.26 
  -5  16   0   11.04    9.36 
  -5 -16   0  -17.98    5.12 
   0 -17   0   10.30    7.90 
   0 -17   0  -13.15    6.29 
   0  17   0    4.84    7.56 
   1  17   0   -9.38    6.40 
  -1  17   0   -6.50    6.11 
   1 -17   0    3.63    7.69 
  -1 -17   0   13.61    7.67 
   1 -17   0    3.92    8.05 
   2 -17   0   12.39    8.38 
   2  17   0    0.22    7.76 
  -2 -17   0   12.28    8.23 
   2 -17   0    4.09    7.01 
  -2  17   0    2.61    7.51 
  -3  17   0    0.47    7.62 
   3  17   0    2.31    8.32 
  -3 -17   0   18.86    8.65 
   3 -17   0    0.07    6.76 
   4 -17   0    0.27    6.70 
  -4  17   0    1.22    8.08 
  -4 -17   0   -3.17    6.63 
   4  17   0   10.51    9.92 
   0 -18   0  108.29   17.20 
   0 -18   0   78.48   14.51 
   0  18   0   70.54   14.43 
   1  18   0   18.88    9.17 
  -1 -18   0   -6.62    7.46 
   1 -18   0    3.58    7.99 
  -1  18   0   -7.52    6.04 
   0   0  -1    5.51    1.22 
   0   0   1    6.28    1.34 
   0   0   1    1.43    0.97 
   0   0  -1    6.97    1.27 
   0   0   1    7.02    1.32 
   1   0   1    6.73    1.65 
  -1   0  -1    7.32    1.65 
   1   0   1    6.87    1.13 
  -1   0  -1    5.62    1.47 
   1   0  -1    9.60    1.90 
  -1   0   1    8.19    1.70 
  -1   0  -1    5.27    0.95 
   1   0  -1   12.01    2.32 
  -1   0   1   10.36    2.09 
   1   0  -1   11.15    1.47 
   1   0   1    8.12    2.70 
  -2   0  -1    1.60    1.05 
  -2   0   1    0.71    1.71 
  -2   0   1    1.32    1.39 
  -2   0  -1    2.05    1.38 
   2   0   1   -0.63    1.50 
   2   0   1   -1.58    2.29 
   2   0  -1    2.04    2.43 
   2   0  -1    5.72    2.42 
  -2   0  -1    0.75    1.95 
   2   0  -1    0.67    1.78 
   2   0   1    1.36    1.10 
  -3   0   1   16.17    2.59 
   3   0   1   13.55    4.65 
  -3   0  -1   14.05    3.76 
  -3   0  -1   17.07    2.12 
   3   0  -1   17.72    4.03 
   3   0   1   21.76    2.71 
   3   0  -1   23.12    4.76 
   3   0  -1   23.24    4.44 
   3   0   1   24.30    4.33 
  -3   0  -1   19.45    2.51 
  -3   0   1   15.55    3.29 
  -4   0  -1   -0.72    1.47 
   4   0   1   -0.59    2.95 
  -4   0   1    4.44    2.53 
  -4   0  -1    5.02    3.28 
   4   0  -1   -1.26    2.02 
   4   0  -1   -2.35    2.63 
  -4   0  -1    2.65    1.60 
   4   0   1   -0.85    2.35 
   4   0   1    1.20    2.03 
  -4   0   1   -0.27    1.40 
   5   0  -1    2.99    3.53 
  -5   0  -1    2.46    4.01 
   5   0  -1    6.92    3.76 
  -5   0   1    3.01    2.05 
   5   0   1    6.44    4.33 
  -5   0   1    4.82    2.91 
  -5   0  -1    5.65    2.02 
  -5   0   1   11.54    5.03 
   5   0   1    5.31    3.70 
  -5   0  -1    5.49    2.36 
  -6   0  -1    0.09    1.86 
  -6   0  -1    1.88    3.25 
   6   0   1    1.47    4.21 
  -6   0   1    1.74    2.51 
  -6   0  -1   -0.69    2.04 
   6   0  -1   -0.04    4.07 
   6   0  -1   -0.76    3.14 
   6   0   1    2.18    3.64 
  -6   0   1   -1.52    1.75 
  -6   0   1   -0.11    3.66 
   7   0  -1    2.37    3.81 
   7   0   1   -1.05    4.40 
  -7   0   1    3.70    2.62 
   7   0   1    4.47    4.07 
  -7   0   1    4.93    3.17 
  -7   0  -1    3.57    4.40 
   7   0  -1    2.43    4.60 
  -7   0  -1    2.87    2.19 
  -7   0   1    3.37    4.82 
   8   0   1   -8.78    4.49 
  -8   0  -1    5.99    4.84 
   8   0  -1   -3.47    3.52 
  -8   0   1   -3.93    4.26 
  -8   0   1   -2.68    2.03 
   8   0   1   -1.45    3.81 
   8   0  -1    5.05    4.67 
  -8   0  -1   -1.80    1.85 
   9   0   1    3.16    4.77 
  -9   0   1    2.79    6.03 
  -9   0  -1   10.99    6.68 
  -9   0   1    4.92    3.15 
   9   0  -1    3.91    4.71 
  -9   0  -1    5.36    2.96 
   9   0   1   14.25    6.20 
 -10   0  -1   -1.13    5.31 
 -10   0   1    4.86    6.19 
  10   0   1   -7.39    3.44 
 -10   0   1   -0.89    3.24 
 -10   0  -1   -0.94    2.78 
  10   0  -1   -3.36    4.65 
  11   0  -1   -1.95    4.43 
 -11   0  -1    3.26    3.40 
 -11   0  -1   -7.45    5.60 
 -11   0   1    6.28    7.32 
 -11   0   1    5.40    3.76 
  11   0   1   -0.74    4.52 
  12   0   1    1.00    5.39 
 -12   0  -1    1.11    3.85 
 -12   0  -1    0.87    6.73 
  12   0  -1    2.15    5.37 
 -12   0   1    5.76    7.75 
 -12   0   1   -1.79    3.33 
   0   1   1   64.54    3.23 
   0   1  -1   57.89    2.98 
   0   1   1   66.30    3.31 
   0  -1   1   57.11    3.06 
   0  -1   1   59.68    3.00 
   0  -1  -1   62.58    3.06 
   0  -1  -1   54.11    2.66 
   0   1   1   56.43    3.21 
   0  -1  -1   64.48    2.49 
   0  -1   1   62.47    2.37 
   0   1  -1   61.69    2.94 
   1   1  -1    2.79    1.69 
  -1   1   1    8.14    2.69 
  -1  -1   1    2.56    2.11 
   1  -1  -1   14.35    3.02 
  -1   1   1   10.32    1.60 
   1  -1   1    6.77    1.71 
  -1   1   1    6.43    1.56 
  -1  -1   1   10.92    2.09 
   1   1   1   14.44    3.14 
   1  -1   1    5.12    1.67 
   1   1  -1    4.75    2.00 
  -1   1   1    9.41    1.40 
   1   1   1    7.80    1.21 
  -1  -1  -1    0.37    1.38 
   1  -1  -1    8.00    1.84 
   1  -1   1    5.49    2.43 
   1   1   1    5.98    1.81 
  -1  -1  -1    5.00    2.10 
  -1  -1   1    8.83    2.12 
  -2  -1   1  139.09    6.32 
  -2  -1   1  163.36    6.69 
  -2   1   1  148.86    4.85 
  -2   1   1  157.44    7.62 
  -2  -1  -1  143.41    7.36 
   2  -1  -1  149.63    6.19 
  -2  -1  -1  159.43    6.07 
   2  -1  -1  151.79    7.77 
   2   1   1  148.66    8.37 
   2   1  -1  146.95    7.02 
   2   1   1  157.22    7.12 
   2  -1   1  151.03    5.88 
   2  -1   1  153.44    6.67 
   2  -1   1  152.10    6.95 
   2   1  -1  149.51    6.90 
   2  -1  -1  147.30    6.91 
   2  -1   1  140.52    7.70 
  -2  -1   1  137.13    7.64 
  -3   1   1    0.76    1.34 
   3   1  -1   -1.29    2.21 
  -3  -1   1   -1.54    1.66 
  -3  -1   1    3.20    2.08 
   3   1   1    4.05    2.84 
   3   1  -1   -0.11    2.62 
   3  -1   1    0.60    2.50 
  -3   1   1    4.88    2.85 
   3  -1   1    1.26    2.26 
   3  -1  -1   -0.98    2.29 
  -3  -1  -1   -0.68    2.59 
   3  -1  -1    4.05    3.37 
  -3  -1   1    2.16    3.32 
   3  -1  -1   -0.41    2.37 
  -3  -1  -1   -0.09    1.35 
   3   1   1    1.78    3.38 
   3  -1   1   -1.76    2.62 
   3  -1   1   -2.15    1.46 
  -3  -1  -1    0.50    1.64 
   4   1  -1    0.39    2.43 
   4  -1  -1    2.49    3.38 
  -4   1  -1    0.42    0.91 
  -4  -1   1   -1.12    3.01 
   4  -1   1    0.44    1.86 
  -4  -1  -1    2.63    2.75 
   4   1  -1    0.56    2.83 
  -4   1  -1    2.21    0.98 
   4   1   1    2.31    2.71 
  -4   1   1    0.47    1.35 
  -4   1   1    1.91    2.30 
  -4  -1  -1    4.38    1.65 
   4  -1  -1    4.00    2.94 
  -4  -1  -1    4.07    1.90 
   4   1   1    0.31    3.26 
   4  -1   1    2.84    2.66 
  -4  -1   1    2.48    1.90 
  -4  -1   1   -1.51    1.68 
   4  -1   1    5.94    3.58 
  -4   1  -1   -1.13    2.45 
   4  -1  -1   -0.60    2.16 
  -5   1  -1    0.23    1.37 
  -5   1   1    1.16    1.65 
   5  -1  -1   -1.06    2.98 
  -5  -1   1   -1.54    3.42 
  -5  -1  -1    3.54    3.63 
  -5  -1  -1    1.31    1.80 
   5  -1  -1    3.11    3.27 
   5  -1  -1    3.55    4.01 
   5   1   1    1.54    3.12 
   5  -1   1    1.23    3.60 
   5  -1   1   -1.51    2.87 
   5  -1   1   -1.36    2.30 
  -5   1  -1    2.10    1.54 
  -5   1  -1   -3.09    2.57 
  -5   1   1    3.42    2.95 
   5   1   1   -5.75    3.32 
   5   1  -1   -4.72    3.25 
   5   1  -1    3.04    3.23 
  -5  -1   1    1.05    2.30 
  -5  -1  -1   -1.79    1.63 
  -5  -1   1    0.35    2.02 
   6  -1   1    5.87    4.22 
  -6  -1   1    9.02    3.22 
  -6  -1  -1    9.90    2.52 
   6   1   1    9.94    5.10 
   6   1   1    6.32    3.85 
  -6   1   1    6.02    3.41 
  -6  -1  -1    1.08    2.17 
   6  -1  -1   -5.56    2.13 
  -6   1  -1    8.59    3.06 
   6  -1  -1    6.11    4.52 
  -6   1  -1    7.06    4.07 
  -6  -1   1    2.31    2.40 
  -6   1  -1    2.69    1.70 
  -6   1   1    4.66    2.24 
  -6  -1  -1   -3.13    2.66 
  -6   1   1    2.12    3.94 
  -6  -1   1    3.80    4.21 
   6  -1   1   -1.92    3.53 
   6   1  -1   -0.22    3.02 
   6   1  -1    2.71    4.46 
  -7   1   1    3.06    3.41 
   7   1  -1    2.35    3.32 
   7  -1   1    3.56    3.83 
   7   1   1    5.47    5.18 
  -7   1   1   -1.88    1.77 
  -7  -1   1    0.41    3.87 
  -7   1  -1    2.49    1.91 
   7   1  -1   -1.06    4.12 
   7   1   1   -2.63    2.75 
   7  -1  -1   -3.08    3.49 
  -7  -1  -1   -1.16    3.89 
  -7  -1   1   -0.08    2.41 
  -7   1   1    3.01    4.62 
  -7   1  -1   -0.21    4.02 
   7  -1   1    0.29    4.61 
   7  -1  -1   -1.01    3.01 
  -7  -1  -1    0.67    1.96 
   8  -1   1   21.70    7.72 
   8   1  -1   22.96    7.73 
  -8  -1   1   18.52    4.39 
  -8  -1  -1   13.33    6.49 
   8  -1   1   13.35    5.81 
   8   1   1   17.93    6.17 
  -8   1  -1   21.19    7.23 
  -8  -1   1   26.74    8.63 
  -8   1   1   26.22    8.36 
  -8   1   1   16.60    4.03 
   8  -1  -1   23.32    6.49 
   8  -1  -1   20.94    6.56 
   8   1   1   24.55    8.05 
   8   1  -1   18.92    6.11 
  -8   1  -1   17.01    3.49 
  -8  -1  -1   17.12    4.10 
   9  -1   1   -3.38    2.82 
   9   1   1    3.32    4.72 
   9  -1   1    0.16    4.03 
  -9   1   1    2.16    3.07 
  -9  -1  -1   -2.87    2.37 
  -9   1   1   -1.87    5.53 
  -9  -1   1    2.88    5.58 
  -9   1  -1   -0.86    5.31 
   9   1  -1   -0.05    4.66 
  -9   1  -1    0.20    2.48 
   9   1   1    2.13    4.37 
  -9  -1  -1    3.40    5.95 
  -9  -1   1   -0.49    3.06 
   9  -1  -1    1.51    4.15 
 -10   1   1    3.12    3.26 
 -10   1  -1   -4.08    5.80 
 -10   1   1   -2.33    5.82 
 -10  -1   1   -4.97    5.33 
 -10   1  -1   -0.55    2.66 
  10   1   1   -0.34    4.46 
  10   1  -1   -0.39    4.33 
 -10  -1   1    4.51    3.47 
 -10  -1  -1    0.46    6.53 
  10  -1   1    4.53    5.03 
 -10  -1  -1    2.71    3.13 
  10  -1  -1    0.95    4.55 
 -11   1  -1   -3.10    2.62 
 -11   1   1    1.52    3.32 
  11   1  -1    1.22    4.71 
 -11  -1  -1    1.71    3.63 
 -11  -1   1   -1.63    3.18 
 -11   1  -1    6.61    7.15 
 -11  -1   1    0.24    7.20 
  11  -1   1    4.82    4.92 
 -11   1   1    3.17    7.32 
 -11  -1  -1    2.99    6.95 
  11  -1  -1    1.12    4.58 
  11   1   1   -0.91    4.99 
 -12   1   1    2.35    3.30 
 -12  -1  -1   -0.13    7.77 
  12   1   1   -6.98    4.55 
  12  -1  -1    0.03    5.33 
 -12   1  -1    4.92    3.62 
 -12   1  -1    7.24    7.55 
  12  -1   1    8.65    5.98 
 -12   1   1    0.08    7.62 
 -12  -1   1    3.64    3.86 
  12   1  -1   -3.13    5.40 
 -12  -1   1    2.38    7.55 
 -12  -1  -1    5.32    4.27 
   0   2  -1    1.97    1.69 
   0  -2  -1    5.91    2.04 
   0   2   1    4.09    2.07 
   0  -2   1    2.14    1.30 
   0  -2  -1    0.15    1.12 
   0   2  -1    3.39    1.59 
   0  -2   1    0.87    1.34 
   0  -2  -1    5.93    1.99 
   0  -2  -1    0.58    0.75 
  -1  -2   1    4.43    2.19 
  -1   2   1    5.20    1.90 
  -1   2  -1    0.76    0.79 
  -1   2   1    2.36    1.33 
  -1  -2  -1    5.71    1.47 
   1   2   1    9.34    3.17 
   1  -2  -1    0.82    1.14 
   1  -2  -1    3.55    2.44 
   1  -2  -1    4.11    2.34 
  -1  -2   1    1.46    1.42 
  -1  -2  -1    0.93    1.21 
   1  -2   1    4.07    2.10 
   1   2  -1    3.99    1.75 
   1   2   1    2.41    1.38 
   1  -2   1    1.84    1.47 
   1   2  -1    2.40    1.93 
  -1   2  -1    2.90    1.21 
  -1  -2   1    0.98    1.49 
  -1  -2  -1    4.73    2.08 
   1  -2   1    6.31    2.05 
  -1   2  -1    5.22    1.43 
   2  -2   1   -0.07    1.51 
  -2  -2   1    1.08    1.56 
   2  -2  -1    1.64    1.88 
  -2  -2   1    2.34    2.53 
   2  -2  -1    5.37    2.18 
   2  -2   1    1.76    2.45 
   2  -2   1   -1.06    1.49 
   2  -2  -1    0.05    2.37 
  -2  -2   1    0.82    1.83 
  -2  -2  -1    4.14    2.91 
  -2  -2  -1   -1.60    1.23 
   2   2  -1    0.41    2.02 
   2   2  -1    2.07    2.42 
   2  -2  -1    0.67    2.15 
   2  -2   1    2.63    2.08 
   2   2   1    0.63    2.44 
   2   2   1   -0.10    1.89 
   3  -2   1   82.39    5.16 
   3   2  -1   93.24    6.60 
  -3  -2   1   81.01    4.79 
   3  -2  -1   77.21    5.94 
   3  -2  -1   74.58    6.57 
   3  -2   1   87.19    6.35 
   3   2   1   97.13    6.49 
  -3  -2  -1   84.96    6.77 
  -3  -2   1   98.47    7.40 
   3  -2  -1   83.94    6.46 
   3  -2   1   84.41    5.68 
  -3  -2   1   77.57    5.42 
  -3  -2  -1   90.01    5.39 
   3   2   1   80.87    7.14 
   3  -2   1   82.94    6.64 
   3  -2  -1   87.29    5.55 
   3   2  -1   85.01    6.31 
  -4  -2   1   -1.63    1.78 
   4   2  -1   -3.37    2.39 
  -4  -2   1    1.01    3.26 
   4  -2   1    0.33    1.98 
  -4  -2   1    4.13    2.13 
   4  -2  -1    2.04    3.44 
  -4  -2  -1   -0.72    2.33 
   4   2  -1    0.77    2.77 
   4  -2   1   -0.15    2.68 
   4  -2   1    0.30    2.32 
   4  -2   1   -2.85    2.09 
   4   2   1    3.50    3.82 
  -4  -2  -1   -1.98    1.67 
   4   2   1   -2.82    1.92 
   4  -2  -1    1.99    2.86 
   4  -2  -1    1.40    2.60 
   5   2  -1   17.65    5.24 
  -5  -2  -1   13.58    5.19 
   5  -2   1   16.22    4.11 
   5   2   1   11.99    4.26 
  -5  -2   1   12.00    2.95 
  -5  -2   1   19.75    6.03 
  -5   2   1   18.14    4.47 
   5  -2  -1    8.92    5.15 
   5  -2   1   10.48    4.91 
   5  -2  -1   12.57    4.03 
   5   2   1   17.58    6.00 
   5  -2   1   13.38    4.93 
  -5  -2  -1   13.64    3.15 
  -5  -2   1   14.77    3.47 
   5   2  -1   12.77    5.11 
  -5   2   1   12.40    2.16 
   5  -2  -1   13.76    4.57 
   5  -2   1   14.54    4.50 
   6   2   1    3.25    4.87 
  -6  -2   1   -0.71    2.41 
  -6   2  -1   -1.03    1.41 
  -6   2   1    1.25    1.71 
   6  -2   1    7.99    4.29 
  -6  -2   1    5.07    2.22 
   6  -2   1    2.17    3.41 
   6   2  -1    1.21    3.81 
  -6   2  -1    1.03    3.59 
   6  -2  -1   -4.87    2.34 
   6   2   1   -0.31    3.19 
  -6  -2  -1   -2.14    2.19 
   6   2  -1    3.91    4.01 
   6  -2   1   -2.54    3.08 
   6  -2  -1    1.64    4.15 
   6  -2  -1    4.23    3.53 
  -6  -2   1   -0.88    3.01 
  -6   2   1    0.60    3.01 
  -6  -2  -1    3.25    4.08 
  -6   2  -1   -1.80    1.16 
  -7   2   1   16.69    5.31 
   7   2   1    5.24    4.50 
   7  -2  -1   25.33    6.18 
  -7   2   1   29.06    8.16 
  -7  -2  -1   15.82    3.85 
  -7  -2   1   18.26    4.25 
  -7  -2   1   27.08    8.01 
   7   2  -1   16.16    7.08 
   7  -2  -1   27.24    6.81 
  -7  -2  -1   31.44    8.17 
   7  -2   1   25.16    6.35 
   7   2  -1   19.39    6.37 
   7  -2   1    9.95    5.75 
  -7   2  -1   34.78    6.08 
  -7   2  -1   26.68    7.20 
  -7   2   1   17.96    3.32 
  -7   2  -1   19.92    2.77 
   7   2   1    6.29    6.05 
   8  -2  -1    4.46    4.62 
   8   2   1   -0.13    4.24 
   8  -2  -1    1.14    4.56 
  -8   2  -1    0.36    1.99 
  -8  -2  -1   -3.04    4.66 
   8   2  -1   -4.94    4.71 
  -8   2   1   -3.43    2.09 
   8  -2   1    2.22    4.72 
  -8  -2   1    4.89    5.64 
   8   2  -1    5.08    4.84 
  -8   2   1   -2.26    4.55 
   8  -2   1    2.47    3.90 
   8   2   1    3.83    4.70 
  -8   2  -1    2.42    4.50 
  -8  -2   1   -2.90    2.75 
  -8  -2  -1   -2.04    2.53 
  -9   2   1   11.49    6.75 
   9   2  -1    5.45    4.62 
   9   2   1    5.03    4.47 
  -9  -2   1   -7.12    4.00 
   9  -2   1    1.31    3.99 
   9  -2  -1    6.09    5.12 
  -9   2   1   -2.01    2.11 
  -9  -2  -1    1.71    3.18 
  -9  -2  -1    1.85    6.01 
  -9   2  -1    0.45    2.03 
   9  -2   1    2.34    4.69 
  -9   2  -1    2.43    5.06 
  -9  -2   1    2.40    3.46 
   9   2   1    7.27    5.55 
 -10   2  -1   13.18    7.56 
 -10  -2  -1   -5.36    5.30 
 -10   2   1    3.87    6.10 
  10   2  -1    4.50    5.37 
  10  -2   1    1.28    4.28 
 -10  -2   1    3.08    3.59 
 -10   2  -1   -4.12    2.58 
  10   2   1   -0.39    4.68 
 -10   2   1    1.16    3.10 
 -10  -2   1    4.87    5.83 
 -10  -2  -1   -3.59    3.28 
  10  -2  -1   -3.02    3.95 
 -11  -2  -1   -4.22    3.27 
  11   2   1   -7.36    3.99 
  11   2  -1   -1.39    4.80 
  11  -2  -1   -6.48    4.54 
 -11   2  -1   -3.00    6.10 
 -11   2  -1    5.60    3.25 
 -11   2   1    1.08    3.33 
  11  -2   1    7.13    5.79 
 -11   2   1   10.29    7.37 
 -11  -2  -1   -0.77    6.50 
 -11  -2   1    8.70    4.42 
 -11  -2   1    1.23    7.12 
 -12  -2  -1   10.04    8.01 
  12  -2   1   -7.47    4.50 
 -12   2  -1    2.68    3.56 
 -12   2   1   -0.85    7.31 
  12  -2  -1   -1.32    5.16 
  12   2   1    9.87    6.51 
 -12  -2  -1   -2.54    3.92 
 -12   2   1   -3.00    2.92 
  12   2  -1   -4.12    4.64 
 -12   2  -1    3.05    6.22 
 -12  -2   1    9.27    4.70 
 -12  -2   1   -4.16    6.75 
   0  -3   1   53.37    3.56 
   0  -3  -1   56.41    4.06 
   0   3  -1   63.69    4.73 
   0  -3  -1   62.36    4.40 
   0  -3  -1   58.88    2.20 
   0  -3   1   60.02    3.94 
   0   3   1   62.88    4.80 
   0  -3  -1   49.53    3.33 
   0   3  -1   61.61    3.57 
  -1   3  -1    2.13    1.30 
   1  -3  -1    0.53    1.11 
   1  -3   1   10.04    2.80 
   1  -3   1   -1.21    1.79 
   1   3  -1   -0.05    1.70 
  -1   3   1    0.99    1.44 
  -1  -3  -1    0.64    2.19 
  -1   3   1    2.64    2.24 
   1  -3  -1    4.64    2.59 
   1   3  -1    1.94    2.54 
  -1  -3   1    2.62    1.88 
  -1  -3  -1    2.05    1.74 
   1   3   1    2.87    2.69 
  -1  -3  -1   -1.34    1.50 
  -1   3  -1   -1.06    1.25 
   1   3   1    2.21    1.62 
  -1  -3   1    1.13    1.99 
  -1   3  -1    4.19    2.87 
  -1  -3   1    5.70    2.59 
   1  -3  -1    2.70    2.74 
  -2   3   1  835.54   21.68 
   2   3  -1  829.85   24.12 
   2  -3  -1  846.11   23.06 
   2  -3   1  791.25   25.88 
   2  -3   1  812.43   23.60 
  -2   3   1  805.73   24.61 
  -2  -3   1  873.12   22.65 
   2  -3   1  814.84   24.77 
   2  -3  -1  766.23   25.96 
   2  -3   1  831.18   22.65 
  -2  -3   1  817.51   24.95 
  -2  -3  -1  847.43   26.02 
   2   3   1  845.38   23.90 
   2  -3  -1  817.59   25.27 
   2   3   1  786.19   26.88 
   2   3  -1  806.33   25.66 
  -2  -3   1  825.66   26.02 
  -2  -3  -1  869.31   21.05 
  -2  -3  -1  835.63   24.19 
   3   3   1    6.99    3.96 
   3  -3  -1    2.57    3.10 
   3  -3  -1    2.17    2.28 
   3  -3   1    0.69    2.23 
   3   3   1    0.83    2.43 
  -3  -3   1    0.88    1.60 
   3   3  -1    2.75    2.65 
   3  -3  -1    0.87    2.71 
   3  -3   1   -0.20    2.11 
  -3  -3   1    2.34    3.17 
   3  -3  -1   -3.34    1.79 
   3  -3   1    1.81    2.19 
   3  -3   1    0.20    2.60 
  -3  -3  -1    5.78    3.57 
   3   3  -1    1.70    2.72 
  -3  -3   1    0.08    2.00 
  -3  -3  -1   -1.80    1.47 
   4  -3  -1  114.58    7.54 
  -4  -3   1  126.30    6.12 
  -4  -3   1  109.48    9.27 
   4   3  -1  124.49    8.81 
   4   3   1  129.03    8.60 
  -4  -3  -1  109.59    7.19 
   4  -3  -1  129.10    8.34 
  -4  -3  -1  119.10    8.97 
   4   3   1  114.88    9.57 
   4  -3  -1  112.77    8.61 
   4  -3   1  116.70    7.36 
   4   3  -1  117.96    8.26 
  -4  -3   1  117.56    7.61 
   4  -3  -1  101.98    8.71 
   4  -3   1  121.51    8.49 
   4  -3   1  125.05    8.05 
   4  -3   1  124.53    8.98 
  -5  -3  -1    0.78    2.01 
  -5  -3   1    2.53    1.71 
   5   3   1    0.08    2.79 
  -5  -3   1    1.16    3.21 
   5   3  -1    1.16    3.41 
  -5  -3   1   -2.27    1.78 
   5  -3   1    0.86    3.21 
   5  -3  -1   -1.85    2.61 
   5  -3   1   -2.04    2.37 
   5  -3   1    0.47    3.55 
   5   3   1   -5.15    2.98 
   5   3  -1   -1.67    2.51 
   5  -3  -1    3.52    3.86 
   5  -3   1   -1.00    2.38 
   5  -3  -1    0.37    2.74 
  -5  -3  -1    1.20    3.61 
  -6  -3  -1   95.56    7.63 
   6  -3  -1  110.85    9.58 
   6   3   1  160.62   15.40 
  -6  -3   1  125.75    8.87 
  -6   3   1  123.44    9.41 
   6  -3   1  108.51    8.78 
  -6  -3   1  120.94   10.94 
  -6  -3  -1  135.03   13.05 
   6  -3  -1  141.67   13.80 
   6  -3   1  114.91   10.44 
   6  -3   1  112.53    9.66 
   6   3  -1  120.33    9.99 
   6   3   1  127.56   10.21 
   6  -3   1  130.14   10.78 
   6   3  -1  123.04   10.77 
   6  -3  -1  122.12    9.34 
   7  -3  -1    0.19    3.45 
   7   3   1    0.43    5.03 
   7   3   1   -2.59    3.61 
  -7   3   1    5.57    4.11 
   7  -3  -1   -4.14    2.98 
  -7  -3   1    2.97    4.88 
  -7  -3  -1    2.14    4.60 
   7  -3   1    2.24    4.44 
   7  -3   1    2.97    3.89 
   7  -3   1   -0.37    3.42 
  -7  -3   1    2.82    2.81 
   7   3  -1   -0.95    4.64 
   7  -3  -1   -0.94    3.60 
   7   3  -1    1.17    4.12 
  -7   3  -1   -2.46    3.64 
  -7  -3  -1   -0.18    2.41 
  -7   3   1   -1.13    1.68 
  -8  -3  -1  106.91    8.39 
  -8   3  -1   96.93    5.34 
  -8  -3  -1  141.07   15.13 
   8  -3   1  130.91   14.26 
  -8  -3   1  102.98    8.69 
   8  -3   1  107.39   12.47 
  -8   3   1   97.23    6.26 
  -8  -3   1  139.96   15.60 
   8  -3  -1  121.37   12.23 
   8   3   1  120.72   15.35 
   8   3   1   95.14   12.14 
  -8   3   1  117.46    9.92 
   8  -3  -1  125.17   13.06 
   8   3  -1  102.63   12.81 
  -8   3  -1  151.87   14.65 
   8   3  -1  124.39   14.47 
  -8   3   1  118.12   14.24 
  -9  -3  -1    3.85    5.81 
  -9  -3   1   -1.95    4.74 
  -9   3  -1    0.21    2.02 
  -9   3   1   -0.82    5.61 
  -9  -3   1   -2.83    2.55 
  -9   3   1   -0.10    2.44 
   9   3  -1   -1.00    4.95 
  -9   3  -1    4.55    5.54 
   9  -3  -1    3.16    4.28 
  -9  -3  -1   -1.52    2.76 
   9  -3   1   11.61    5.90 
   9  -3   1   -1.60    4.25 
   9   3   1    4.01    5.43 
   9   3   1   -0.87    3.92 
 -10   3   1   19.87    4.31 
 -10  -3  -1   21.65    5.48 
  10   3   1   32.87    8.70 
 -10  -3  -1   20.38    8.38 
 -10  -3   1   24.43    9.47 
 -10  -3   1   25.90    5.71 
 -10   3  -1   24.92    8.59 
 -10   3  -1   18.31    3.67 
  10  -3  -1   30.79    8.21 
  10   3  -1   17.29    7.38 
  10   3   1   35.61    9.28 
 -10   3   1   30.93   10.17 
  10  -3   1   21.34    7.01 
 -11  -3  -1    4.72    3.94 
  11   3  -1    3.30    5.60 
 -11  -3   1   -2.17    3.05 
  11   3   1   -2.14    4.68 
 -11  -3  -1    5.72    6.68 
  11  -3  -1   -2.34    4.73 
  11  -3   1    3.80    5.57 
 -11   3   1    3.60    6.73 
 -11   3  -1    8.03    7.10 
 -11   3   1    1.39    3.30 
 -11  -3   1    2.66    7.45 
 -11   3  -1    7.76    3.08 
   0   4  -1    6.79    3.28 
   0   4   1   11.72    3.85 
   0   4  -1    4.01    1.92 
   0  -4  -1    5.07    2.73 
   0  -4  -1    0.90    1.60 
   0  -4   1   -2.24    1.83 
   0  -4  -1    3.83    2.58 
   0  -4   1    4.52    2.33 
   1   4   1  104.04    4.75 
  -1   4  -1   94.19    6.58 
   1  -4   1  102.98    6.46 
  -1   4   1  102.22    5.13 
  -1  -4   1   89.67    5.87 
   1   4   1  101.98    7.07 
  -1   4   1  103.52    6.60 
  -1   4  -1  105.16    4.82 
   1  -4  -1  101.61    7.12 
  -1   4  -1   99.56    4.77 
  -1  -4  -1   95.28    6.21 
  -1  -4   1   92.44    5.83 
  -1  -4  -1   91.44    5.50 
   1  -4  -1  109.27    6.71 
   1   4  -1  108.07    5.40 
  -1  -4  -1  104.91    5.48 
  -1  -4   1  111.15    5.93 
   1  -4   1   97.39    6.00 
   1   4  -1  112.87    7.34 
   2   4   1   -3.21    1.54 
  -2  -4  -1   -3.71    1.45 
  -2   4   1    1.90    1.56 
  -2   4  -1    1.27    1.14 
   2  -4  -1    1.99    1.75 
   2   4  -1    3.38    2.34 
   2   4  -1    3.36    2.66 
  -2  -4   1    2.92    2.89 
  -2  -4   1    0.68    1.96 
   2  -4   1    8.25    3.05 
   2  -4  -1   -1.96    2.18 
   2  -4   1    1.50    2.26 
  -2   4   1    6.06    2.72 
  -2  -4  -1    0.90    2.42 
  -2  -4  -1    3.60    1.73 
  -2  -4   1    1.40    1.96 
   2   4   1    3.45    3.46 
   2  -4  -1    2.04    2.74 
  -2   4  -1    1.88    1.80 
   3  -4   1   -0.11    1.53 
   3   4  -1   -0.23    1.96 
   3  -4   1    1.84    2.29 
   3  -4  -1   -1.39    1.63 
   3   4   1    3.13    3.47 
   3  -4  -1    0.18    2.33 
   3   4  -1    2.07    3.00 
  -3  -4   1    2.08    1.66 
  -3  -4   1    0.92    2.52 
  -3  -4   1   -0.41    1.82 
   3   4   1    0.04    2.02 
  -3  -4  -1    1.87    2.68 
  -3  -4  -1    0.71    1.18 
   3  -4  -1    0.18    2.76 
  -3  -4  -1    3.03    1.99 
   3  -4   1    4.17    3.07 
  -3   4   1    1.85    1.22 
  -3   4   1    0.54    2.23 
   3  -4   1    2.51    2.78 
   4   4   1    3.44    3.60 
   4   4   1    2.25    3.49 
   4   4  -1    1.44    2.98 
   4  -4  -1   11.95    4.18 
   4  -4  -1    5.44    3.18 
   4   4  -1    7.83    3.93 
   4  -4  -1   -0.12    2.73 
  -4  -4   1   -0.80    3.27 
  -4  -4   1    2.09    2.80 
   4  -4   1    9.03    3.92 
  -4  -4   1    4.39    2.05 
   4  -4   1   -1.76    2.58 
  -4  -4  -1   -2.52    2.09 
   4  -4   1    1.09    2.77 
  -4  -4  -1    3.18    3.95 
   4  -4  -1   -0.80    3.23 
   4  -4   1    2.08    3.36 
   5  -4   1  109.40   10.73 
  -5  -4  -1   83.98    7.07 
   5  -4   1  104.00   10.49 
   5  -4  -1   94.82   10.64 
   5  -4  -1   97.39    9.28 
   5   4  -1  100.10    9.98 
   5   4   1  110.52   11.85 
   5  -4  -1   84.53    7.77 
  -5  -4  -1  104.11   11.16 
   5   4  -1  106.49   10.60 
   5  -4   1   91.04    8.58 
   5  -4   1   90.75    7.61 
   5  -4  -1   90.62    9.72 
  -5  -4   1   90.50    8.63 
  -5  -4   1  107.56   11.59 
   5   4   1   84.86    9.14 
  -5  -4   1  101.42    5.25 
   6  -4   1    1.50    3.76 
   6  -4   1   -3.25    2.91 
  -6  -4   1    0.23    3.83 
   6   4  -1    1.81    3.62 
  -6  -4  -1    0.70    4.10 
   6  -4   1    0.25    3.52 
  -6  -4   1    3.61    3.36 
   6  -4  -1   -1.35    3.06 
  -6  -4  -1    0.03    2.48 
   6  -4   1    2.37    4.18 
   6   4   1   -1.72    2.89 
   6  -4  -1    2.70    4.75 
   6   4   1    2.94    4.60 
   6   4  -1    8.03    4.75 
   6  -4  -1   -2.03    3.20 
   7   4   1    2.87    5.29 
   7  -4  -1    3.89    4.22 
   7  -4   1   -3.82    4.00 
  -7  -4  -1    3.19    5.15 
   7  -4   1    7.14    4.22 
   7  -4   1    3.44    5.20 
  -7  -4  -1    2.48    2.86 
   7   4   1   -1.01    3.88 
   7   4  -1    4.02    5.39 
   7  -4  -1   -4.69    4.17 
   7  -4  -1   -2.09    3.61 
  -7  -4   1    1.24    5.02 
  -7  -4   1    1.66    2.57 
   7   4  -1    1.81    4.13 
  -7   4   1    6.74    4.26 
   7  -4   1    4.57    3.93 
   8  -4   1   16.06    6.06 
  -8  -4  -1   -6.67    2.36 
  -8  -4   1    3.71    5.56 
   8  -4  -1    9.09    5.27 
   8   4  -1   -6.32    4.35 
   8  -4  -1   -6.82    3.32 
   8   4  -1   14.85    6.91 
   8   4   1   -3.77    3.43 
   8   4   1    5.89    5.97 
  -8   4  -1   10.32    4.55 
  -8   4   1    2.41    2.28 
  -8  -4  -1    4.78    5.66 
   8  -4  -1    6.12    5.04 
  -8   4  -1    1.52    4.73 
  -8   4   1   -1.96    4.16 
  -8  -4   1   -1.72    2.94 
   8  -4   1   -8.51    3.09 
   9   4  -1    7.03    5.98 
  -9   4   1    6.03    2.79 
  -9   4   1    0.78    6.72 
  -9  -4  -1    4.04    3.66 
   9  -4   1    3.68    5.58 
  -9   4  -1    2.63    6.27 
  -9  -4   1   10.31    7.12 
  -9  -4   1   10.55    4.17 
   9   4   1    4.38    6.67 
   9  -4   1    8.90    5.18 
  -9  -4  -1   15.14    7.73 
   9   4   1   -1.39    4.34 
  -9   4  -1    7.08    2.39 
   9  -4  -1    6.17    4.95 
  10   4  -1   -4.73    4.52 
 -10   4  -1    3.72    6.75 
 -10  -4  -1   -0.88    3.19 
 -10  -4  -1    4.77    7.41 
  10   4   1   -4.08    4.21 
 -10   4   1    3.32    2.74 
 -10   4  -1    1.15    2.17 
  10   4   1    0.70    6.37 
 -10  -4   1    6.75    3.96 
 -10   4   1    6.21    7.82 
  10  -4   1    4.09    5.19 
  10  -4  -1    1.43    4.98 
 -10  -4   1   -8.74    5.62 
 -11   4   1   10.40    8.43 
 -11   4   1    9.54    3.63 
 -11  -4   1    9.17    4.64 
 -11  -4  -1    8.49    5.16 
 -11   4  -1    5.07    2.96 
  11  -4  -1    9.67    5.64 
  11   4  -1    1.16    5.83 
 -11  -4   1    9.30    7.98 
 -11   4  -1    5.96    6.35 
  11  -4   1    6.81    6.43 
  11   4   1    8.89    6.25 
 -11  -4  -1    5.64    7.44 
   0  -5  -1   27.48    4.68 
   0  -5   1   35.62    4.62 
   0   5  -1   28.62    5.40 
   0  -5   1   27.79    4.15 
   0   5  -1   30.65    3.06 
   0   5   1   26.81    5.31 
   0  -5  -1   31.61    3.53 
   0  -5  -1   28.25    4.47 
   1  -5  -1    1.40    2.28 
  -1   5  -1    0.68    1.41 
  -1  -5   1   -2.79    1.53 
  -1  -5  -1    0.15    1.64 
   1  -5  -1   -1.41    2.26 
  -1   5   1   -2.17    2.33 
   1  -5   1    0.25    2.50 
   1   5   1   -0.22    1.27 
   1   5  -1   -0.83    2.67 
  -1  -5   1   -0.47    1.61 
  -1   5  -1    1.88    1.58 
  -1  -5  -1    0.23    2.10 
   1   5  -1    0.28    1.50 
   1   5   1   -3.45    2.14 
  -1   5  -1   -0.54    2.16 
  -1  -5   1    0.53    2.07 
  -1  -5  -1    1.02    1.82 
   1  -5   1    0.70    2.04 
   2   5   1   54.69    7.60 
   2  -5  -1   64.69    7.03 
   2   5  -1   59.85    7.17 
  -2  -5   1   66.49    4.93 
   2  -5   1   64.40    6.43 
  -2  -5   1   53.46    5.98 
  -2   5   1   52.13    3.82 
  -2   5  -1   58.46    3.71 
   2  -5   1   70.26    7.43 
  -2   5   1   66.86    6.79 
  -2   5  -1   56.55    3.85 
  -2  -5  -1   57.53    5.78 
  -2  -5  -1   60.29    4.41 
  -2  -5  -1   64.81    6.95 
   2   5   1   56.76    4.59 
   2  -5  -1   70.57    8.37 
   2   5  -1   54.61    4.70 
  -2   5  -1   57.43    6.94 
  -2  -5   1   61.37    6.79 
   2  -5  -1   55.70    3.39 
  -3  -5   1    2.04    2.33 
  -3   5   1   -0.45    2.11 
   3   5   1    1.98    3.21 
  -3  -5  -1    1.90    3.07 
  -3  -5  -1   -1.57    1.57 
  -3   5  -1   -0.63    0.85 
   3   5   1   -0.73    2.01 
  -3  -5   1   -2.38    1.35 
   3   5  -1    0.98    2.62 
   3  -5  -1   -0.58    2.61 
  -3  -5   1   -2.82    2.42 
   3   5  -1   -2.71    1.97 
   3  -5  -1   -0.07    1.90 
  -3  -5  -1    0.26    1.57 
  -3   5   1   -1.00    1.25 
  -3   5  -1    1.86    1.90 
   3  -5   1    2.62    2.91 
   3  -5  -1    0.90    3.20 
   3  -5   1    0.06    2.23 
   4   5   1    2.52    2.80 
   4  -5  -1    3.46    2.63 
   4   5   1    5.54    4.02 
  -4  -5   1    4.60    2.09 
   4  -5   1    0.67    3.28 
   4  -5  -1   -0.43    2.99 
   4  -5   1    1.03    2.16 
   4  -5   1    3.09    3.53 
   4  -5   1    4.82    3.18 
  -4   5   1    5.24    1.75 
  -4  -5  -1    3.72    3.97 
   4   5  -1    4.83    3.14 
   4  -5  -1    4.44    3.83 
  -4  -5   1    4.75    4.03 
  -4   5   1    0.90    2.90 
  -4  -5   1    9.63    3.29 
  -4  -5  -1    0.22    2.11 
   4   5  -1    2.67    3.24 
   5   5  -1    0.80    2.60 
  -5  -5   1    0.69    1.58 
  -5  -5  -1   -3.65    1.94 
  -5  -5  -1    4.84    4.75 
   5  -5  -1   -1.23    2.50 
   5  -5   1   -0.09    3.26 
   5  -5   1   -1.13    2.66 
   5  -5   1   -1.90    2.76 
   5   5  -1   -1.65    2.95 
  -5  -5   1   -1.25    2.06 
   5  -5  -1    0.69    3.84 
   5  -5  -1    7.03    3.99 
   5  -5   1   -1.21    3.21 
   5   5   1    0.37    2.97 
  -5  -5   1    1.13    4.08 
   5   5   1    3.77    3.87 
  -6  -5   1   71.79   10.90 
   6  -5   1   81.19   10.32 
   6  -5   1   62.57    9.76 
  -6  -5  -1   53.14    7.56 
   6   5  -1   65.00    9.33 
   6   5  -1   77.88   10.47 
   6  -5   1   41.48    7.33 
   6  -5   1   58.35    8.36 
   6  -5  -1   69.38   10.65 
   6  -5  -1   74.81    9.19 
  -6  -5   1   44.62    7.03 
   6  -5  -1   75.05    9.07 
  -6  -5  -1   63.81   10.70 
   6  -5  -1   72.25    9.95 
   6   5   1   79.06   11.59 
   6   5   1   67.82    9.41 
   7   5   1   -1.78    3.13 
  -7   5   1   -1.96    3.78 
   7  -5  -1    1.75    4.01 
   7  -5  -1    4.56    4.62 
   7   5  -1   -2.58    4.72 
  -7  -5   1   -2.34    2.17 
   7  -5   1   -3.61    3.72 
   7  -5  -1    3.88    4.12 
   7  -5   1   -3.04    2.89 
  -7  -5  -1    1.75    5.48 
   7  -5   1    4.14    4.89 
   7   5   1   -1.70    4.50 
  -7  -5  -1   -1.49    2.38 
  -7  -5   1   -0.91    4.74 
   7   5  -1    2.09    3.65 
   7  -5   1    2.56    3.82 
   8  -5   1   -3.15    3.37 
   8  -5  -1    5.27    5.14 
   8   5   1    1.05    4.17 
   8  -5   1    4.78    5.36 
   8  -5  -1    6.10    5.25 
  -8   5   1    4.19    5.30 
   8  -5   1    3.55    4.51 
   8  -5   1    7.48    5.24 
  -8  -5   1   -3.60    4.95 
   8   5   1   -4.89    4.69 
  -8  -5  -1    1.62    3.29 
  -8  -5  -1    4.74    6.24 
   8   5  -1    1.69    4.10 
   8   5  -1   13.25    6.24 
   8  -5  -1    6.14    4.30 
  -8  -5   1   -3.68    2.39 
   9   5  -1   -6.26    4.05 
  -9  -5  -1    0.58    6.14 
  -9  -5   1   -6.48    5.17 
  -9  -5  -1   -1.16    3.31 
  -9  -5   1    4.42    3.54 
   9  -5   1   -3.07    3.74 
   9   5   1    5.95    6.28 
   9  -5  -1    2.46    4.64 
   9   5   1   -2.02    4.35 
   9  -5  -1    1.51    5.00 
  -9   5  -1   -1.01    5.13 
  -9   5   1   -0.67    1.95 
   9  -5   1    2.84    4.41 
  10  -5   1   15.44    7.16 
 -10  -5  -1   16.92    5.64 
 -10   5   1   22.23    3.75 
 -10  -5  -1   27.05   10.39 
  10   5   1    9.87    6.23 
  10   5   1   37.61   10.44 
  10   5  -1   16.26    7.67 
 -10  -5   1   23.49    6.47 
  10  -5  -1   26.31    7.90 
 -10  -5   1   23.48   10.12 
 -10   5  -1   29.38    9.78 
 -10   5   1   56.56   12.94 
  11  -5   1   -3.17    5.16 
 -11   5   1    3.32    7.36 
 -11  -5   1    3.16    4.74 
 -11   5   1   -1.11    2.80 
 -11   5  -1    2.66    2.17 
 -11  -5   1   -9.16    5.67 
 -11  -5  -1    1.38    4.50 
 -11  -5  -1    3.51    6.95 
  11  -5  -1    2.80    4.85 
  11   5  -1   -7.33    4.65 
  11   5   1    1.73    5.20 
   0   6   1   -1.32    2.90 
   0  -6  -1    2.81    2.11 
   0  -6  -1    5.44    3.14 
   0  -6   1    3.42    2.97 
   0   6  -1    0.01    3.34 
   0  -6   1   12.03    3.42 
   0   6  -1    1.49    1.60 
   0  -6  -1    3.13    3.21 
   1  -6   1   96.31    7.08 
   1   6   1   96.21    4.61 
  -1  -6   1   82.45    6.67 
  -1   6  -1   91.87    7.77 
   1   6   1   91.52    8.12 
  -1  -6  -1   97.35    6.46 
   1  -6  -1   87.85    7.27 
  -1   6  -1   96.90    4.87 
   1  -6  -1   91.96    7.95 
  -1  -6   1   85.76    6.35 
  -1  -6  -1   91.26    6.23 
   1   6  -1  100.40    8.66 
  -1  -6   1   86.75    6.30 
  -1   6   1   91.13    7.89 
   1   6  -1   97.08    5.34 
  -1  -6  -1   88.50    7.01 
   1  -6   1   96.75    7.44 
  -2  -6   1   14.84    4.66 
   2  -6  -1   11.41    4.23 
   2   6   1   11.48    3.24 
  -2  -6   1    9.97    3.56 
  -2  -6  -1   13.71    3.37 
   2   6   1   13.98    5.06 
  -2   6   1   13.10    1.92 
   2   6  -1   11.31    4.86 
   2   6  -1   11.82    3.35 
  -2  -6   1   15.92    3.70 
  -2   6   1   17.43    4.96 
  -2  -6  -1    9.45    3.44 
   2  -6   1   16.16    4.41 
  -2   6  -1   21.93    3.10 
  -2   6   1   11.96    2.94 
  -2  -6  -1   12.77    4.62 
  -2   6  -1    9.80    2.79 
  -2   6  -1   16.07    5.19 
  -3  -6  -1  166.86   11.25 
  -3  -6   1  171.38   11.29 
  -3   6  -1  159.56    6.78 
   3  -6  -1  176.39    7.54 
   3   6   1  156.63    9.01 
   3  -6  -1  163.79   11.24 
  -3  -6   1  178.42    8.35 
   3  -6  -1  165.61   11.09 
   3   6   1  164.18   12.07 
  -3   6  -1  152.89   10.72 
  -3   6  -1  164.95    7.79 
   3  -6   1  155.28    9.90 
  -3   6   1  184.24   10.86 
  -3  -6  -1  169.15    7.45 
   3  -6   1  171.72   10.59 
  -3  -6   1  169.37   10.56 
  -3   6   1  185.62    7.83 
   3   6  -1  163.66   11.42 
   3   6  -1  166.57    9.49 
  -3  -6  -1  172.00   10.37 
   4   6   1    0.80    2.88 
  -4   6  -1    1.43    2.60 
   4  -6  -1    3.64    4.23 
  -4   6  -1    0.24    1.34 
   4   6  -1    1.67    3.21 
   4  -6  -1   -2.41    2.40 
  -4  -6  -1    0.83    1.71 
  -4   6  -1    3.72    3.53 
   4  -6   1    1.77    3.18 
   4  -6  -1    5.75    3.85 
  -4  -6  -1    5.11    4.25 
  -4  -6   1   -0.78    2.69 
   4  -6   1   14.66    4.57 
  -4   6   1    0.40    1.74 
   4   6   1    5.78    4.30 
   4   6  -1    5.92    4.05 
  -4  -6   1    5.88    4.30 
  -4  -6  -1   -1.13    2.67 
  -4   6   1    1.66    3.39 
  -4  -6   1    1.01    2.15 
   5   6   1   21.26    6.84 
  -5  -6  -1   22.33    5.53 
  -5   6   1   30.45    3.21 
   5   6  -1   24.65    5.97 
   5  -6   1   25.07    5.84 
  -5  -6   1   18.00    5.02 
  -5  -6   1   28.54    7.82 
   5   6  -1   34.08    7.30 
  -5   6   1   36.97    7.04 
   5  -6  -1   21.35    6.47 
   5   6   1   28.21    6.30 
   5  -6  -1   41.37    8.52 
   5  -6   1   37.36    7.25 
   5  -6   1   34.42    7.55 
  -5  -6  -1   36.65    8.15 
   5  -6   1   22.40    5.10 
   5  -6  -1   30.94    5.70 
  -6  -6   1    8.23    4.42 
   6   6   1    6.80    4.79 
   6   6  -1   28.93    6.58 
   6  -6  -1   32.93    7.55 
  -6  -6   1   12.25    6.34 
   6  -6  -1   11.39    5.71 
  -6  -6  -1    1.43    3.71 
   6  -6   1    7.54    4.93 
   6   6   1   15.94    6.51 
  -6   6   1   14.09    5.50 
   6  -6  -1    1.50    4.46 
   6  -6   1   15.38    5.45 
   6  -6   1   14.73    5.59 
   6  -6   1    3.55    4.25 
  -6  -6  -1   14.05    6.23 
   6   6  -1   12.04    5.64 
   7   6   1   51.11   10.72 
   7  -6   1   60.91    9.54 
  -7  -6  -1   59.08   10.96 
   7  -6  -1   52.88    8.94 
  -7  -6   1   61.91   11.95 
   7  -6   1   56.49    8.87 
  -7   6   1   60.45    9.66 
   7   6   1   60.07    9.63 
  -7  -6  -1   46.56    7.84 
   7   6  -1   46.85    8.88 
   7   6  -1   75.49   11.29 
   7  -6   1   72.98   10.51 
   7  -6  -1   65.32   11.70 
   7  -6   1   72.00   10.94 
  -7  -6   1   47.78    8.07 
   8   6  -1    8.43    5.85 
   8  -6   1    6.58    4.13 
   8  -6   1    2.85    4.22 
   8  -6   1    6.15    4.57 
   8   6   1   -7.37    4.15 
   8  -6  -1    7.26    5.31 
   8   6  -1   -0.02    4.74 
  -8  -6  -1   -5.73    3.06 
  -8  -6   1    2.73    5.79 
   8  -6   1   12.38    5.36 
   8   6   1   14.01    6.72 
   8  -6  -1    9.29    5.81 
  -8   6   1   -1.61    4.64 
  -8  -6   1    1.10    3.64 
  -8  -6  -1   -0.56    5.14 
   9   6   1   15.00    7.50 
  -9   6   1   32.51    8.89 
   9  -6  -1   26.27    7.48 
  -9  -6   1   21.85    6.08 
  -9  -6  -1   28.34    6.69 
  -9  -6  -1   23.24    9.09 
   9  -6  -1   27.09    9.52 
   9  -6   1   26.99    7.90 
   9   6   1   28.23    8.10 
  -9   6  -1   31.61    9.72 
   9   6  -1   29.30    8.26 
  -9  -6   1   44.64   11.95 
   9  -6   1   27.32    7.55 
 -10  -6   1   -7.53    3.56 
  10   6   1    5.11    5.73 
  10  -6   1   16.74    6.83 
  10  -6  -1   12.51    5.77 
  10   6  -1   10.64    6.62 
 -10  -6   1   10.09    8.24 
 -10   6   1   18.87    9.39 
 -10  -6  -1   10.29    5.58 
  10   6   1   25.39    8.35 
 -10  -6  -1   11.20    8.19 
  11  -6   1    0.35    5.27 
 -11  -6   1    2.34    4.69 
 -11  -6   1    5.78    7.61 
 -11  -6  -1    8.83    7.98 
  11   6   1    2.95    5.79 
 -11  -6  -1    1.99    4.30 
  11  -6  -1   -0.55    5.38 
  11   6  -1   -4.27    5.31 
 -11   6   1   -2.01    7.89 
   0   7  -1   92.22    4.63 
   0   7   1  106.95   10.45 
   0  -7  -1  100.33    9.28 
   0  -7  -1   95.36    7.55 
   0   7  -1  107.37   10.84 
   0  -7   1   83.87    6.94 
   0  -7   1   83.19    7.25 
   1  -7   1    6.86    3.60 
  -1   7  -1   -0.18    3.16 
   1   7   1    0.33    3.40 
   1   7   1   -1.10    1.39 
  -1  -7   1    4.17    3.28 
   1   7  -1    4.44    2.05 
  -1  -7  -1    0.32    2.77 
  -1  -7  -1   -0.75    2.13 
  -1   7  -1    1.57    1.66 
   1  -7  -1    6.54    3.78 
  -1   7   1    4.63    3.87 
  -1  -7   1   -0.63    2.17 
   1  -7   1   -2.96    2.38 
  -1  -7   1   -0.15    2.63 
  -1  -7  -1    1.35    2.70 
   1  -7  -1   -0.53    3.09 
   1   7  -1   -2.78    3.56 
  -2  -7  -1  242.32   10.96 
   2   7  -1  243.11   14.47 
  -2  -7  -1  258.13   12.32 
   2   7   1  252.08   15.24 
   2   7  -1  258.03   10.97 
   2  -7  -1  252.60   13.50 
   2  -7   1  229.33   12.56 
  -2  -7   1  258.19   11.56 
   2  -7   1  234.41   13.40 
  -2   7   1  240.49   13.60 
  -2   7  -1  250.00   10.35 
  -2  -7   1  243.19   13.30 
  -2   7  -1  243.54   14.26 
  -2  -7   1  252.13   12.88 
  -2   7  -1  267.93    9.83 
   2  -7  -1  254.08   14.64 
   2   7   1  261.32   10.52 
  -2  -7  -1  238.09   13.38 
  -2   7   1  255.09   10.95 
   3  -7  -1    2.79    3.64 
   3   7   1   -1.48    2.23 
  -3  -7   1   -2.52    2.48 
  -3   7  -1   -0.44    3.20 
  -3  -7   1   -0.78    2.09 
  -3  -7   1   -1.45    2.13 
   3  -7   1    1.54    3.17 
  -3  -7  -1   -0.22    2.33 
  -3   7  -1   -0.75    1.76 
   3   7  -1    3.66    4.09 
  -3   7  -1   -1.14    1.69 
   3  -7   1    2.16    3.08 
  -3   7   1    0.41    1.71 
  -3  -7  -1    1.38    3.00 
  -3   7   1   -3.15    2.65 
   3   7  -1    3.27    2.86 
   3  -7  -1    4.07    4.31 
  -3  -7  -1   -0.67    2.34 
   3   7   1    3.36    4.07 
  -4  -7  -1  117.71    6.13 
   4   7  -1  121.92    8.92 
   4   7   1  111.76    8.63 
   4  -7   1  135.74   12.12 
  -4   7  -1  110.21    9.88 
  -4   7   1  111.24    6.31 
  -4   7  -1  103.09    5.65 
   4  -7  -1  161.18   14.21 
  -4  -7   1  114.08    6.66 
   4  -7  -1  126.36   11.90 
   4   7  -1  138.98   13.35 
  -4  -7   1  117.19   12.19 
  -4  -7   1  119.50    9.46 
  -4  -7  -1  111.71    9.39 
  -4   7  -1  110.73    7.17 
   4  -7   1  102.53    8.91 
  -4  -7  -1  131.53   12.56 
  -4   7   1  103.30    9.10 
   4  -7  -1  101.15    6.86 
   4   7   1  134.86   13.05 
  -5  -7   1    6.28    4.79 
   5   7  -1    2.05    3.50 
  -5   7   1    0.38    3.57 
   5   7   1   -0.51    3.47 
   5  -7   1   -2.93    3.34 
   5   7   1   -1.39    3.74 
  -5  -7  -1    3.23    4.36 
  -5   7  -1   -1.15    2.79 
   5  -7  -1    7.89    5.38 
   5  -7   1    0.91    3.78 
  -5  -7  -1   -4.18    2.51 
  -5  -7   1   -1.29    2.27 
   5  -7  -1   -3.44    3.29 
   5  -7  -1   -3.74    2.46 
  -5   7  -1   -1.20    1.41 
   5   7  -1    0.34    3.97 
  -5   7   1    1.37    2.06 
  -5   7  -1    1.33    4.43 
   6   7   1   48.51    8.48 
   6  -7  -1   58.22   10.21 
  -6   7   1   76.42   10.58 
   6   7  -1   60.50   10.06 
   6   7   1   61.24   10.48 
  -6  -7  -1   50.09    8.24 
  -6  -7   1   67.49   11.22 
  -6  -7  -1   61.64   11.06 
  -6  -7   1   62.99    8.93 
   6  -7  -1   70.48   10.51 
   6  -7   1   71.35   10.43 
  -6   7   1   55.93    4.30 
  -6   7  -1   63.71   10.82 
   6  -7   1   61.59    9.34 
   6   7  -1   48.14    8.33 
   6  -7  -1   64.78    8.07 
   7  -7  -1    0.89    3.98 
   7   7   1    0.90    4.85 
  -7  -7   1    3.85    3.65 
  -7  -7  -1    0.11    3.32 
  -7   7   1   -0.76    5.03 
   7  -7   1   10.56    5.25 
   7   7  -1   -4.87    2.96 
  -7  -7   1    2.41    5.20 
  -7  -7  -1    1.15    5.64 
   7  -7   1    1.64    4.26 
   7   7   1   -0.32    3.79 
   7   7  -1   10.49    5.43 
   7  -7  -1    2.84    5.38 
   7  -7  -1   -1.40    3.93 
   7  -7   1    2.83    3.75 
   8   7   1   77.76   11.45 
   8  -7   1   76.37   10.60 
  -8   7   1  106.79   13.46 
   8   7   1   87.96   14.05 
   8  -7   1   74.46   11.56 
   8   7  -1   91.24   12.33 
  -8  -7   1   88.18   10.78 
   8  -7  -1   97.07   11.70 
  -8  -7  -1   79.95   10.52 
   8  -7  -1   87.90   13.47 
   8  -7   1  109.38   13.34 
  -8  -7   1   94.58   14.56 
  -8  -7  -1   91.08   14.36 
   8   7  -1   84.24   13.01 
   9  -7   1    2.86    5.37 
   9   7   1   -1.95    4.37 
  -9   7   1    0.19    5.50 
   9  -7  -1    6.40    5.16 
   9  -7  -1    5.76    6.19 
   9   7   1    8.22    6.82 
   9   7  -1   -8.70    4.94 
  -9  -7  -1   -0.96    3.34 
  -9  -7  -1   -0.62    6.05 
   9   7  -1    6.81    6.15 
   9  -7   1   -0.57    4.44 
  -9  -7   1   -0.77    3.24 
  -9  -7   1    9.34    7.65 
  10   7  -1   13.96    6.65 
 -10  -7   1    7.17    7.67 
 -10  -7   1   12.42    5.30 
 -10  -7  -1   12.80    5.41 
  10   7   1   30.61    9.89 
  10   7   1   10.12    6.44 
 -10  -7  -1   11.68    8.40 
 -11   7   1   -2.50    7.00 
 -11  -7  -1    1.86    4.63 
 -11  -7  -1    3.75    6.85 
 -11  -7   1    8.53    5.29 
 -11  -7   1   -1.46    6.95 
  11   7   1   -1.41    5.60 
  11   7  -1   -1.17    5.17 
   0  -8  -1   50.21    7.52 
   0   8   1   46.83    8.53 
   0   8  -1   54.43    8.90 
   0   8  -1   39.15    3.39 
   0  -8   1   37.35    6.28 
  -1  -8  -1  135.16    9.18 
   1  -8   1  149.10   10.28 
  -1  -8   1  140.16    9.07 
   1   8   1  131.62   11.21 
  -1   8  -1  143.90   10.88 
   1  -8  -1  132.22   10.60 
  -1  -8  -1  150.52   10.55 
  -1  -8  -1  138.00    8.83 
  -1   8  -1  146.75    5.63 
   1   8   1  131.44    5.77 
   1   8  -1  128.10   11.08 
   1  -8  -1  141.24   10.25 
   1   8  -1  144.47    6.83 
  -1  -8   1  131.08    9.34 
  -1  -8   1  138.38    9.13 
  -1   8   1  138.45   11.05 
   1  -8   1  161.10   10.72 
  -2  -8  -1    4.96    3.51 
  -2  -8   1    7.80    3.90 
  -2  -8  -1    8.78    4.25 
  -2  -8   1    7.01    3.58 
  -2   8  -1   10.35    4.90 
   2   8  -1    6.78    4.73 
   2  -8  -1   10.22    4.89 
   2  -8  -1   24.70    6.34 
   2  -8   1   19.76    5.30 
  -2  -8  -1    3.33    3.44 
   2   8  -1    9.37    3.32 
   2   8   1    5.09    2.73 
  -2  -8   1   11.69    4.45 
   2   8   1    6.18    5.11 
   2  -8   1    8.12    4.28 
  -2   8   1    9.12    4.73 
   3   8  -1   42.28    5.83 
   3  -8   1   46.21    7.35 
   3   8   1   47.07    9.59 
  -3   8   1   51.83    8.46 
   3   8  -1   24.18    7.48 
  -3  -8   1   47.24    8.30 
  -3  -8   1   32.53    6.54 
  -3  -8  -1   42.05    5.32 
   3  -8   1   51.38    9.06 
  -3  -8  -1   42.00    6.88 
   3  -8  -1   49.82    9.44 
   3  -8  -1   33.07    7.15 
  -3  -8  -1   42.17    7.95 
  -3   8  -1   53.51    4.83 
   3   8   1   43.02    5.61 
  -3   8  -1   34.73    7.57 
  -3  -8   1   41.56    5.59 
   4   8  -1   23.31    5.99 
  -4  -8   1   38.45    7.63 
  -4  -8   1   27.81    6.44 
  -4  -8  -1   22.69    6.44 
   4  -8  -1   34.18    7.99 
   4   8   1   28.97    6.24 
  -4   8  -1   32.45    7.80 
  -4   8  -1   47.06    5.37 
  -4   8   1   35.04    7.27 
   4  -8   1   35.12    7.57 
   4   8   1   30.30    8.29 
   4   8  -1   41.24    8.51 
  -4  -8   1   32.37    4.93 
  -4  -8  -1   44.72    8.53 
   5   8   1  108.05    9.42 
   5   8  -1  109.16    9.54 
   5  -8   1  118.07   10.69 
   5   8   1  121.27   14.00 
  -5   8   1  114.84   10.30 
  -5  -8  -1  115.79   11.62 
  -5  -8  -1  138.15   14.26 
   5  -8   1  110.77   11.66 
  -5  -8   1  127.23   13.73 
  -5   8  -1  140.34   14.21 
   5  -8  -1  148.15   14.32 
   5   8  -1  150.75   14.38 
  -5   8  -1  114.24    8.34 
  -5  -8   1  120.52   10.64 
   5  -8  -1  134.72   13.43 
   6   8   1    3.68    4.47 
  -6  -8  -1    5.60    5.61 
   6   8   1    1.88    4.34 
   6   8  -1   12.21    5.68 
  -6  -8   1    2.88    5.18 
   6   8  -1    3.09    4.50 
   6  -8  -1   14.16    5.87 
   6  -8  -1    4.57    4.48 
  -6   8   1   11.87    5.73 
   6  -8   1    4.47    4.48 
  -6   8  -1   11.64    6.35 
   6  -8   1    3.87    5.11 
  -6  -8   1    1.58    3.79 
  -6  -8  -1    6.78    4.76 
   7   8   1   22.36    6.79 
  -7  -8   1   16.72    7.76 
  -7   8  -1   20.89    8.13 
   7  -8  -1   19.63    7.10 
   7   8  -1   25.08    7.67 
  -7   8   1   17.00    7.26 
  -7  -8  -1   18.50    8.08 
   7  -8   1   20.87    6.50 
  -7  -8  -1   17.55    5.98 
   7  -8   1   27.97    7.92 
   7   8   1   24.96    7.70 
  -7  -8   1   20.44    6.19 
   7   8  -1   25.56    7.18 
   7  -8  -1   18.93    7.68 
   8  -8  -1   46.13    9.67 
  -8   8   1   15.69    3.48 
  -8  -8  -1   10.85    6.08 
   8   8   1   40.43    9.40 
   8   8  -1   55.51    9.51 
   8  -8   1   26.33    7.41 
   8  -8   1   37.01    9.10 
  -8   8   1   47.62    9.78 
  -8  -8  -1   29.79    9.06 
   8   8   1   19.52    7.46 
  -8  -8   1   11.86    6.09 
  -8  -8   1   17.97    8.35 
   8   8  -1   13.17    6.88 
  -8   8  -1   30.21    9.05 
  -9  -8  -1   20.68    9.82 
   9   8  -1   21.88    8.08 
  -9  -8  -1   22.88    6.41 
  -9  -8   1   29.06    7.34 
   9  -8   1   19.61    6.71 
   9   8   1    8.84    6.02 
   9   8   1   12.76    7.51 
   9   8  -1   15.98    7.07 
   9  -8  -1   17.82    8.47 
  -9   8   1   17.75    7.71 
  -9  -8   1   10.15    7.47 
 -10  -8   1   -5.93    3.98 
  10  -8  -1   -1.99    5.83 
  10   8  -1    8.42    6.46 
 -10  -8  -1   -0.61    6.11 
 -10  -8  -1   -0.01    4.67 
 -10  -8   1    0.76    5.89 
  10   8   1    9.76    6.49 
  10   8   1   -2.01    5.11 
   0  -9   1   27.36    6.66 
   0   9  -1   31.21    7.82 
   0  -9  -1   37.73    6.84 
   0  -9   1   44.74    7.24 
   0   9   1   39.15    8.30 
   0  -9  -1   49.30    8.21 
   1   9   1    2.82    4.35 
  -1  -9  -1   -0.63    2.91 
   1  -9   1    7.13    3.95 
   1  -9  -1    6.91    4.44 
   1  -9   1    3.53    3.61 
   1   9  -1    0.22    1.85 
  -1  -9  -1   -0.60    3.11 
   1  -9  -1    2.17    3.60 
  -1   9  -1   -5.43    2.80 
  -1   9   1    3.44    4.31 
   1   9  -1    2.95    4.59 
  -1  -9   1    1.67    3.27 
  -1  -9   1   -0.64    3.39 
   2  -9  -1   12.33    4.93 
  -2  -9  -1    8.17    3.69 
   2   9  -1   12.12    3.33 
   2  -9   1    7.76    4.27 
  -2  -9   1    6.01    3.28 
   2   9  -1   16.55    6.23 
  -2   9   1   17.18    6.24 
  -2  -9   1    7.41    3.74 
  -2  -9  -1   18.66    4.93 
  -2  -9   1   15.07    5.41 
   2   9   1   11.38    2.98 
  -2   9  -1   20.81    6.49 
   2  -9  -1   11.26    6.24 
  -2  -9  -1   14.23    5.41 
   2  -9   1   13.90    5.99 
   2   9   1   10.74    6.33 
  -3  -9  -1   -7.21    3.14 
   3  -9   1    0.28    4.37 
   3   9   1    0.56    3.84 
  -3  -9   1    0.34    2.69 
   3   9  -1   -2.64    4.63 
   3  -9  -1    4.15    4.80 
  -3  -9   1    1.41    3.55 
  -3  -9   1    0.43    2.81 
  -3  -9  -1   -1.52    2.68 
  -3   9  -1    3.38    4.38 
   3   9  -1   -2.10    2.47 
   3  -9  -1    1.72    4.57 
  -3   9   1   -0.16    4.01 
  -3  -9  -1   -0.71    2.93 
   3  -9   1   -4.14    3.15 
   3   9   1    0.02    2.79 
  -4   9   1   -3.79    3.36 
   4  -9   1    4.05    3.79 
  -4  -9   1   10.11    4.74 
   4   9  -1    3.99    5.28 
   4  -9  -1    4.88    5.29 
   4  -9  -1    3.92    3.98 
  -4  -9  -1    1.78    4.31 
  -4  -9   1   13.78    5.48 
   4   9  -1    6.13    3.77 
  -4   9  -1   10.80    5.55 
  -4  -9  -1    4.22    3.99 
   4   9   1    3.34    4.58 
   4   9   1    2.19    3.32 
   4  -9   1    4.90    5.21 
  -4  -9   1    2.26    2.90 
  -5  -9  -1    5.99    5.05 
   5  -9  -1    3.27    4.44 
  -5  -9   1   -6.67    2.18 
  -5   9  -1    0.82    4.82 
  -5  -9   1   -0.30    4.45 
   5  -9   1   -1.54    3.35 
   5   9  -1   -3.14    3.72 
   5  -9   1    0.10    4.31 
   5   9   1   -4.55    3.02 
   5  -9  -1   -0.94    3.98 
  -5   9   1    2.55    4.52 
  -5  -9  -1   -3.87    3.11 
   5   9  -1   -0.94    3.31 
   5   9   1   -5.68    3.49 
  -6  -9   1    2.37    5.43 
   6  -9   1    2.15    4.88 
  -6  -9  -1    4.42    6.16 
   6   9  -1    2.85    4.89 
   6   9   1   -1.98    4.22 
  -6  -9  -1    6.53    4.29 
   6   9   1    1.31    3.88 
  -6   9  -1    0.96    5.50 
   6  -9  -1   10.61    6.73 
   6  -9  -1    0.02    4.04 
  -6   9   1    1.52    4.95 
   6   9  -1    5.64    4.58 
   6  -9   1    6.45    5.11 
  -6  -9   1    8.00    4.45 
   7  -9   1   -3.96    3.77 
  -7  -9   1    0.40    3.78 
   7  -9  -1    1.84    4.67 
   7  -9   1    2.76    4.93 
   7   9   1    6.81    5.49 
   7   9  -1    2.70    5.05 
  -7   9   1   -7.26    4.22 
   7   9  -1   -0.29    4.23 
  -7  -9  -1    3.26    4.24 
   7  -9  -1    0.94    4.70 
  -7  -9   1   -4.82    4.22 
  -7  -9  -1    0.98    5.82 
  -7   9  -1   -2.13    5.87 
   7   9   1   -0.58    4.09 
  -8   9   1    3.95    2.61 
   8   9   1    3.25    4.89 
  -8  -9   1    6.45    6.63 
  -8   9  -1    7.38    6.97 
   8   9   1    5.25    5.52 
  -8  -9  -1   -1.91    5.00 
   8  -9  -1    7.67    6.60 
   8   9  -1    0.02    4.87 
  -8  -9   1    7.78    5.14 
   8  -9   1    3.49    4.62 
   8   9  -1    3.08    5.38 
   8  -9   1   10.10    5.85 
  -8  -9  -1   -0.69    3.92 
   9  -9   1    3.61    5.78 
  -9  -9  -1   -0.54    3.90 
   9  -9  -1   -0.11    5.38 
   9   9   1   -3.24    4.28 
   9   9   1   -2.64    5.83 
  -9   9   1   -0.31    2.57 
  -9  -9  -1  -10.49    4.33 
   9   9  -1   -0.81    4.78 
  -9  -9   1    4.21    4.47 
  -9   9   1   -8.14    5.43 
  -9  -9   1   -2.19    6.66 
 -10  -9   1    6.56    5.22 
 -10  -9   1   -2.32    6.72 
  10   9   1    9.56    7.43 
  10   9  -1    7.57    6.15 
 -10  -9  -1   -2.99    6.68 
 -10  -9  -1    4.37    4.67 
  10   9   1    2.15    5.52 
  10  -9  -1    7.66    7.91 
   0 -10  -1   24.61    6.45 
   0 -10  -1   16.92    5.80 
   0 -10   1   20.67    5.98 
   0  10  -1   15.69    6.58 
   0  10   1   18.64    6.85 
  -1  10   1   57.65   10.46 
  -1  10  -1   44.03    9.43 
   1  10   1   56.41   10.43 
  -1 -10  -1   55.39    9.15 
  -1 -10  -1   34.94    7.05 
   1 -10   1   53.95    9.31 
   1 -10  -1   57.70   10.49 
   1 -10  -1   48.65    8.39 
  -1 -10   1   59.37    9.02 
   1  10  -1   43.86    9.52 
   1 -10   1   42.69    8.17 
  -1 -10   1   45.01    7.78 
   2 -10   1   40.72    8.55 
  -2  10  -1   51.20    9.89 
   2 -10  -1   58.27   10.28 
  -2 -10  -1   43.49    7.34 
  -2 -10   1   43.86    7.37 
   2  10   1   67.63   11.95 
   2  10  -1   43.51    9.47 
  -2  10   1   62.38   10.62 
   3 -10  -1  109.87   13.38 
   3 -10   1  100.38   12.40 
   3  10   1   79.00   12.91 
  -3 -10  -1   94.55    8.56 
   3  10  -1  123.29   15.32 
  -3  10  -1   76.12   11.40 
   3 -10  -1   76.39   11.55 
  -3 -10   1   89.98   11.59 
  -3  10   1   84.47   11.94 
   3 -10   1   78.34   10.84 
  -3 -10   1   77.10    8.22 
   3  10  -1   84.78    7.13 
  -3 -10  -1  117.34   12.70 
  -4 -10  -1    7.03    5.25 
  -4 -10  -1   27.87    7.90 
   4 -10  -1   27.48    7.02 
   4  10   1   33.22    8.83 
   4 -10  -1    8.63    5.36 
  -4 -10   1   16.53    6.40 
  -4  10  -1   15.65    7.01 
   4 -10   1   17.33    6.21 
   4  10  -1   11.55    4.63 
  -4  10   1   11.47    6.66 
   4  10   1    9.52    4.47 
   4 -10   1   36.68    7.68 
  -4 -10   1    6.37    4.99 
   4  10  -1   28.55    8.04 
  -5 -10  -1   12.72    5.17 
   5  10  -1   18.81    7.00 
  -5  10  -1   16.43    7.54 
  -5  10   1   24.68    7.85 
  -5 -10  -1    7.26    6.07 
   5  10   1   22.57    5.72 
   5 -10  -1   19.22    6.91 
   5  10  -1   19.14    5.43 
  -5 -10   1   27.72    8.01 
   5  10   1   13.26    7.34 
   5 -10   1   14.05    5.93 
   5 -10   1   16.96    6.86 
   5 -10  -1   26.69    8.49 
  -5 -10   1    6.88    4.34 
  -6 -10  -1   39.59    9.65 
  -6 -10  -1   41.64    9.06 
   6  10  -1   71.73   11.33 
  -6 -10   1   39.46    8.31 
  -6 -10   1   51.77   11.24 
   6 -10   1   37.41    8.45 
  -6  10   1   53.22   10.37 
   6  10   1   18.57    7.10 
   6  10  -1   39.33    8.22 
   6  10   1   60.11   10.67 
  -6  10  -1   28.83    8.81 
   6 -10  -1   35.16    9.01 
   7 -10  -1   28.78    9.20 
   7  10   1   32.38    7.71 
   7 -10  -1   35.14    8.62 
   7 -10   1   31.24    8.30 
  -7 -10  -1   35.87    9.91 
   7 -10   1   37.23    9.42 
  -7 -10  -1   26.73    7.82 
  -7  10  -1   13.04    8.01 
   7  10  -1   23.75    7.25 
  -7 -10   1   36.98   10.41 
  -7 -10   1   30.68    7.75 
  -7  10   1   38.31    9.67 
   7  10  -1   25.57    8.02 
   7  10   1   23.66    8.66 
   8  10   1    7.81    5.93 
  -8 -10  -1   14.98    8.46 
  -8  10  -1   15.33    8.22 
   8  10   1   34.58    8.35 
  -8 -10  -1   10.02    6.50 
  -8 -10   1   15.08    7.58 
   8  10  -1   13.55    6.98 
  -8 -10   1   20.30    6.48 
   8  10  -1   30.61    8.47 
   8 -10   1   27.26    7.85 
   8 -10  -1   30.16    9.05 
   9  10   1   13.34    6.67 
   9  10  -1   20.43    7.83 
  -9  10   1   19.32    8.67 
  -9  10   1   18.96    4.21 
   9 -10   1   20.91    8.25 
   9  10  -1   23.03    7.70 
  -9 -10  -1   15.95    5.94 
  -9 -10  -1    1.45    7.94 
   9  10   1   23.57    9.33 
  -9 -10   1   22.75    7.20 
  -9 -10   1    9.05    8.12 
   9 -10  -1    9.42    6.78 
 -10 -10   1   25.94    9.91 
 -10 -10   1   23.52    7.75 
 -10  10   1   20.43    9.05 
 -10 -10  -1   12.68    6.32 
  10  10  -1   20.02    7.75 
  10  10   1   33.80    8.79 
  10  10   1   60.47   12.59 
 -10 -10  -1   25.44    9.79 
   0  11   1   -5.31    4.42 
   0 -11  -1   -0.69    3.83 
   0 -11   1    4.90    5.00 
   0 -11   1    8.48    4.96 
   0  11  -1   -0.61    4.94 
   0 -11  -1   -1.92    4.41 
  -1 -11  -1   -1.70    3.74 
  -1  11  -1    0.90    5.39 
   1 -11  -1    1.86    5.17 
  -1 -11   1    1.56    4.00 
   1 -11   1    0.20    3.85 
  -1 -11   1    2.74    4.92 
   1  11  -1    2.76    4.98 
  -1  11   1   -1.51    4.58 
   1  11   1   -6.87    4.13 
   1 -11  -1    5.06    4.80 
  -1 -11  -1    3.25    3.80 
   1 -11   1   -0.09    4.86 
  -2 -11   1   41.47    7.41 
  -2 -11   1   39.20    8.51 
   2  11  -1   25.42    8.14 
   2 -11   1   46.78   10.48 
   2  11   1   41.25   10.36 
  -2 -11  -1   48.04    7.62 
  -2  11   1   33.56    8.97 
  -2  11  -1   45.00   10.39 
   2 -11   1   32.37    7.92 
   2 -11  -1   38.78    8.95 
   2 -11  -1   42.16   10.08 
  -2 -11  -1   41.03    9.08 
  -3  11  -1    5.86    5.59 
  -3 -11   1   -0.62    3.45 
   3  11  -1    5.18    6.09 
  -3 -11  -1    3.29    4.76 
   3  11   1    6.17    5.79 
   3 -11  -1   -0.05    4.56 
  -3  11   1   10.59    6.49 
  -3 -11  -1   -1.05    3.25 
  -3 -11   1   -2.34    3.93 
   3 -11   1   -2.99    5.01 
   3 -11   1    4.11    4.84 
   3 -11  -1    3.61    5.40 
   4 -11   1   17.49    6.44 
  -4 -11   1    6.93    5.78 
   4 -11  -1   16.51    7.08 
   4 -11   1   10.04    4.82 
  -4  11  -1    9.48    6.62 
   4  11   1    5.27    7.08 
   4 -11  -1    5.42    6.10 
  -4  11   1    7.21    6.14 
   4  11  -1    8.58    6.60 
  -4 -11  -1    5.31    5.74 
   5  11  -1   -0.11    5.82 
   5 -11  -1    7.83    6.10 
   5 -11  -1   -6.57    3.95 
  -5 -11   1    0.43    4.78 
  -5  11   1    0.67    5.26 
   5 -11   1    0.99    4.00 
   5 -11   1   -1.59    4.61 
  -5 -11  -1   -0.55    5.17 
   5  11   1   -1.36    5.94 
  -5  11  -1    0.58    5.15 
  -6  11   1    5.25    5.91 
  -6 -11  -1   14.74    6.98 
   6 -11   1    3.63    5.19 
   6 -11   1    4.07    5.79 
   6 -11  -1    7.07    5.79 
  -6  11  -1    8.48    6.74 
   6  11  -1   12.41    6.61 
   6 -11  -1    3.30    5.67 
  -6 -11   1    0.96    4.94 
   6  11   1    2.44    6.26 
   7  11  -1    6.51    5.02 
  -7  11   1    9.19    6.17 
  -7 -11   1   -0.85    4.87 
   7 -11   1   12.48    5.80 
   7  11  -1   -1.28    5.23 
   7 -11  -1    5.94    5.68 
  -7 -11  -1   -0.91    5.25 
   7 -11  -1   -7.79    4.45 
  -7  11  -1    2.37    7.12 
   7  11   1   17.24    7.36 
  -8  11  -1    3.09    7.17 
  -8 -11   1    4.02    7.15 
   8  11   1   12.76    7.14 
   8  11  -1   14.89    8.07 
  -8 -11  -1    6.82    7.21 
   8 -11  -1    3.70    6.43 
   8  11  -1   12.68    6.93 
   8 -11   1   12.94    6.90 
   9  11   1   -2.44    5.93 
  -9 -11  -1    2.50    6.14 
  -9  11   1   -0.34    2.89 
  -9 -11   1   -2.19    6.50 
   9 -11   1   -3.52    5.29 
  -9  11   1   -3.07    5.64 
   9  11  -1    7.26    5.54 
   0 -12   1   93.81   12.11 
   0  12  -1   99.68   13.88 
   0 -12  -1   99.52   12.61 
   0  12   1   99.02   14.11 
  -1  12  -1   17.30    7.99 
   1  12  -1   29.30    9.12 
   1 -12  -1   25.40    8.34 
   1 -12   1   27.99    8.67 
  -1 -12   1   28.83    7.50 
   1  12   1   31.90    9.40 
  -1 -12  -1   34.80    8.92 
   1 -12  -1   17.29    7.01 
  -1 -12   1   39.88    8.81 
   1 -12   1   21.22    6.98 
  -1  12   1   30.98    9.06 
  -1 -12  -1   34.72    8.02 
   2 -12  -1   66.19   11.20 
   2 -12  -1   39.43    9.71 
   2  12   1   30.86    9.92 
   2 -12   1   21.75    7.69 
  -2 -12  -1   45.13    9.31 
  -2  12   1   27.30    9.17 
   2 -12   1   75.78   11.29 
  -2 -12   1   26.83    7.45 
  -2 -12   1   33.77    7.90 
   2  12  -1   37.05    9.85 
  -2  12  -1   36.99    9.77 
  -2 -12  -1   38.51    7.96 
   3 -12   1    7.34    5.82 
   3 -12  -1    8.03    5.84 
  -3  12   1    9.40    6.77 
   3 -12   1    8.04    5.70 
   3  12   1    6.89    6.91 
  -3 -12   1    6.93    4.63 
  -3 -12  -1    9.79    5.74 
  -3 -12   1   -1.25    4.37 
   3  12  -1   -0.32    6.10 
   3 -12  -1    2.01    5.73 
  -3  12  -1   -3.07    5.71 
   4 -12   1   79.88   12.62 
   4 -12  -1   74.58   13.24 
  -4 -12   1  158.57   13.93 
   4  12  -1  107.88   15.89 
   4  12   1  109.82   16.27 
  -4 -12  -1  100.74   13.53 
  -4  12  -1   79.53   13.14 
  -4  12   1   75.35   13.09 
   5  12   1   15.82    8.40 
   5 -12  -1   31.04    8.56 
   5 -12   1   28.73    8.55 
  -5 -12  -1   32.20    9.52 
  -5  12   1   19.77    8.33 
  -5  12  -1   22.43    9.30 
  -5 -12   1   40.21   10.34 
   5  12  -1   27.21    9.18 
   5 -12   1   24.74    9.04 
   5 -12  -1   47.89   10.93 
  -6 -12   1   30.92    9.14 
   6 -12   1   16.61    8.18 
  -6 -12  -1   35.58   10.02 
   6  12   1   30.28    9.63 
   6  12  -1   35.88   10.08 
   6 -12  -1   24.12    8.29 
   6 -12  -1   42.18   10.52 
  -6  12   1   29.68    9.66 
  -6  12  -1   26.95    9.07 
  -7  12  -1    2.74    6.23 
   7  12   1    5.17    6.39 
   7 -12  -1    7.67    6.72 
   7  12  -1   -5.21    5.46 
   7 -12   1    4.81    5.34 
   7 -12  -1    3.11    5.34 
  -7 -12  -1   19.35    8.52 
  -7 -12   1   -1.41    5.53 
  -8  12  -1   70.18   12.42 
  -8 -12   1   47.44   12.35 
   8 -12  -1   71.71   12.63 
   8 -12   1   52.69   11.49 
   8  12  -1   66.60   12.00 
   8  12   1   81.17   13.78 
  -8 -12  -1   59.60   13.36 
  -9  12   1    0.93    3.43 
  -9 -12   1   -3.27    6.50 
   9 -12   1    4.21    6.46 
   9  12   1   -6.41    7.60 
  -9  12   1    2.13    6.70 
  -9 -12  -1    1.63    7.04 
   0 -13  -1   -9.76    4.25 
   0 -13   1   -9.18    3.64 
   0 -13  -1   -5.64    5.02 
   0  13  -1    0.70    5.34 
   0  13   1   -8.87    3.96 
   0 -13   1    2.03    4.74 
   1 -13  -1   -3.50    4.94 
  -1 -13   1   11.00    5.71 
  -1  13   1    4.05    6.50 
   1  13  -1    0.03    5.28 
   1 -13   1    7.52    5.87 
   1 -13  -1   10.28    6.14 
   1 -13   1   20.02    6.54 
  -1 -13   1    2.10    5.34 
   1  13   1    2.24    5.26 
  -1 -13  -1    5.87    5.35 
  -1 -13  -1    2.62    5.84 
  -1  13  -1   10.89    7.63 
  -2  13   1    6.90    6.91 
   2 -13   1    2.74    5.58 
   2 -13  -1   -2.99    5.45 
  -2 -13  -1   -2.00    4.51 
   2 -13  -1   10.34    6.59 
   2  13  -1   -2.23    5.46 
  -2  13  -1   -2.84    6.32 
  -2 -13   1   -0.75    4.75 
  -2 -13   1   -0.60    4.86 
  -2 -13  -1   -0.44    4.45 
   2  13   1    8.04    6.74 
   2 -13   1    1.12    5.96 
  -3  13  -1    8.50    7.49 
   3  13  -1    2.99    6.25 
   3 -13  -1    4.88    6.38 
  -3 -13  -1    5.74    5.70 
   3 -13   1   14.55    6.32 
  -3  13   1   10.98    7.72 
  -3 -13   1    1.33    5.31 
   3 -13  -1   10.36    5.76 
   3  13   1   -0.59    6.01 
   3 -13   1    2.06    6.09 
   4  13   1    5.71    6.77 
   4  13  -1   13.30    8.25 
   4 -13   1    6.02    6.35 
   4 -13  -1   -3.44    5.67 
  -4 -13  -1   10.29    6.60 
   4 -13   1   11.33    6.85 
  -4  13  -1    8.64    7.79 
  -4  13   1    1.62    6.99 
   4 -13  -1    9.79    5.98 
  -4 -13   1   10.51    6.54 
   5  13  -1    4.19    7.15 
   5 -13   1    4.12    5.91 
   5 -13  -1    9.12    7.27 
  -5  13  -1    0.81    6.46 
  -5 -13   1    2.44    5.52 
   5  13   1    4.13    7.25 
  -5 -13  -1   12.99    7.17 
  -5  13   1    0.96    6.58 
   5 -13  -1    3.85    5.65 
   6  13  -1    0.91    7.34 
  -6 -13  -1   -2.94    5.32 
  -6  13  -1    1.64    6.84 
   6 -13  -1    8.68    6.84 
  -6  13   1   -1.04    6.71 
   6 -13   1   -1.29    5.15 
   6  13   1   13.60    7.60 
  -6 -13   1    5.01    6.38 
   6 -13  -1   17.07    7.21 
   7  13  -1    6.27    6.76 
   7  13   1    8.47    7.85 
  -7 -13  -1   15.58    8.42 
   7 -13  -1   -0.94    6.37 
  -7  13  -1   -3.42    6.79 
   7 -13   1    2.97    6.39 
   7 -13  -1    3.32    6.59 
  -7 -13   1    3.99    6.57 
   8 -13   1   11.25    7.80 
   8  13   1   25.26   10.55 
  -8 -13   1    8.36    7.58 
  -8 -13  -1    5.21    7.44 
   8  13  -1   12.44    7.27 
   0  14   1   40.11   10.69 
   0  14  -1   43.93   11.17 
   0 -14  -1   36.53    9.95 
   0 -14  -1   74.56   12.42 
   0 -14   1   27.73    8.92 
   0 -14   1   71.17   11.53 
  -1  14  -1    2.62    6.22 
   1  14   1   -2.61    5.54 
   1 -14  -1   -1.07    5.67 
   1 -14  -1    9.38    6.39 
   1 -14   1    3.56    6.47 
   1  14  -1   -4.67    4.59 
   1 -14   1    0.48    5.75 
  -1 -14   1   -1.26    4.97 
  -1 -14  -1    1.82    5.70 
  -1  14   1    3.00    6.59 
  -1 -14  -1   -6.98    4.29 
  -1 -14   1    4.20    5.70 
   2  14  -1   96.63   14.83 
  -2  14  -1   91.79   15.07 
   2 -14  -1   60.57   12.80 
   2 -14   1   69.56   12.56 
   2  14   1  125.70   17.45 
  -2 -14   1   98.30   12.62 
  -2 -14  -1  130.84   15.22 
  -2  14   1   68.59   13.07 
   3 -14   1    1.09    5.67 
  -3 -14   1   14.67    7.49 
   3  14  -1   21.80    9.09 
   3 -14  -1   12.00    7.86 
  -3 -14  -1   11.35    7.14 
   3 -14   1   12.89    7.67 
  -3  14  -1    5.71    7.81 
   3 -14  -1   10.26    6.80 
  -3  14   1   -1.50    6.48 
   3  14   1    3.51    6.71 
   4 -14  -1   44.96   11.36 
  -4 -14  -1   49.09   11.72 
  -4  14  -1   39.76   11.56 
   4 -14  -1   75.79   12.25 
   4 -14   1   28.96    9.80 
  -4  14   1   28.20   10.32 
  -4 -14   1   51.50   11.53 
   4  14   1   54.98   13.15 
   4  14  -1   52.64   12.49 
   5  14  -1   -0.64    6.31 
  -5 -14  -1   -4.32    5.86 
  -5  14   1   -0.85    7.03 
   5  14   1   12.85    7.89 
   5 -14   1    3.70    5.80 
   5 -14  -1   -7.03    5.47 
   5 -14  -1    0.99    5.68 
  -5 -14   1    7.65    6.78 
  -5  14  -1   -5.21    6.77 
   6 -14   1   83.15   14.15 
  -6  14  -1   66.45   13.83 
   6 -14  -1   73.38   14.41 
  -6 -14  -1   90.34   15.13 
   6  14  -1  120.04   17.83 
  -6  14   1   90.05   15.15 
  -6 -14   1  100.15   15.62 
   6 -14  -1   97.73   13.83 
   6  14   1   91.94   15.58 
   7  14  -1    6.45    7.69 
   7 -14  -1   -0.26    6.88 
  -7 -14   1   -1.90    6.68 
   7  14   1   17.91    9.17 
   7 -14   1    2.75    6.47 
  -7  14  -1    6.10    8.00 
  -7 -14  -1   -7.29    5.21 
   0 -15  -1    5.79    6.31 
   0 -15   1    5.89    5.97 
   0  15  -1   -1.07    7.04 
   0  15   1   13.17    7.87 
   0 -15  -1   -1.11    6.40 
   0 -15   1   -1.28    5.59 
  -1 -15   1    6.45    5.97 
   1  15   1    3.35    6.82 
   1 -15   1    5.65    6.12 
   1  15  -1    4.12    6.06 
   1 -15   1    3.59    6.27 
  -1 -15   1   -0.37    5.20 
   1 -15  -1   -0.04    5.72 
   1 -15  -1    2.45    6.42 
  -1 -15  -1   -4.03    4.27 
  -1  15  -1    4.50    7.64 
  -1 -15  -1   -1.83    6.49 
  -1  15   1   -4.40    5.53 
  -2  15  -1   12.48    8.81 
  -2  15   1    9.19    7.73 
  -2 -15   1   13.77    6.98 
   2 -15   1   13.42    7.55 
   2  15   1    9.85    7.93 
   2  15  -1    0.71    7.44 
   2 -15  -1    8.36    7.31 
  -2 -15  -1   19.63    8.01 
   2 -15  -1   15.13    8.60 
   2 -15   1   12.46    7.80 
   3 -15  -1    0.74    5.65 
   3  15   1    4.68    8.12 
   3  15  -1   -6.78    5.18 
  -3  15   1    4.25    7.21 
   3 -15   1    2.54    7.29 
  -3  15  -1   14.68    8.81 
   3 -15  -1    8.06    7.35 
  -3 -15   1   -0.45    5.83 
  -3 -15  -1    1.40    5.12 
   4 -15  -1    1.13    6.03 
   4  15   1   11.50    8.96 
  -4  15   1    1.10    7.50 
   4  15  -1   -1.61    6.26 
  -4 -15   1    1.65    6.59 
   4 -15   1    4.04    7.22 
  -4 -15  -1   10.21    8.15 
   4 -15  -1   -8.80    5.82 
  -4  15  -1   -5.74    6.76 
  -5  15   1    4.88    7.79 
   5 -15  -1   14.73    7.57 
  -5  15  -1    2.04    8.02 
  -5 -15   1   -1.94    6.36 
   5  15  -1   -7.78    6.39 
  -5 -15  -1   -7.11    4.95 
   5 -15   1    4.45    7.06 
   5 -15  -1    1.43    6.17 
   5  15   1    1.41    6.90 
  -6 -15   1    1.95    7.91 
  -6 -15  -1    2.49    7.35 
   6  15  -1    4.20    8.25 
   6 -15  -1   10.44    7.58 
  -6  15   1   16.67    9.22 
  -6  15  -1   11.19    9.06 
   6  15   1    6.86    8.89 
   6 -15   1    4.72    6.10 
   0 -16   1  107.68   15.53 
   0 -16   1  137.03   16.09 
   0  16   1  105.37   16.62 
   0  16  -1  113.36   16.90 
   0 -16  -1  110.95   15.59 
   0 -16  -1   84.62   14.80 
   1 -16  -1   -6.11    6.06 
   1 -16   1    6.47    7.08 
   1  16   1   -3.28    6.93 
  -1 -16  -1    2.26    5.55 
  -1 -16   1    4.56    6.54 
   1 -16  -1   -5.36    5.90 
  -1 -16  -1   -2.34    5.40 
  -1  16  -1   -0.98    6.86 
  -1  16   1   -8.48    4.69 
  -1 -16   1    1.63    6.24 
   1 -16   1   10.68    7.75 
   1  16  -1    2.91    7.14 
   2 -16  -1   38.84   11.64 
   2  16   1   72.31   15.02 
  -2  16  -1   52.45   12.43 
   2 -16  -1   63.11   13.02 
   2 -16   1   41.13   11.73 
  -2 -16  -1   55.33   12.03 
  -2  16   1   45.89   12.20 
   2  16  -1   59.77   13.46 
  -2 -16   1   76.65   13.14 
  -3  16   1   -1.30    7.60 
  -3 -16  -1    7.12    6.97 
   3 -16   1    6.06    8.15 
   3 -16  -1   -1.68    6.22 
  -3  16  -1    3.20    6.99 
   3  16  -1    5.30    7.96 
   3 -16  -1   -8.59    5.82 
  -3 -16   1    4.65    6.99 
   3  16   1   -4.98    6.79 
   4  16  -1  103.42   18.25 
  -4 -16   1   98.39   15.60 
   4 -16  -1  106.03   14.75 
  -4  16  -1   99.48   16.99 
   4 -16   1   70.56   14.87 
   4 -16  -1   75.24   15.28 
  -4  16   1   93.39   16.11 
  -4 -16  -1   98.42   15.80 
   4  16   1  112.91   19.05 
   5 -16   1   -4.48    6.51 
  -5  16   1    0.82    7.73 
   5 -16  -1   -6.14    6.23 
  -5  16  -1   -0.12    8.46 
  -5 -16   1   -4.51    6.74 
   5  16  -1    5.55    9.35 
  -5 -16  -1    2.54    7.36 
   5  16   1    0.95    7.75 
   0 -17  -1    6.71    7.35 
   0  17  -1    2.59    7.21 
   0  17   1    3.28    8.46 
   0 -17   1    7.10    7.28 
   0 -17   1   -1.55    7.00 
   0 -17  -1   14.84    8.85 
   1  17   1   15.27    8.30 
  -1  17   1    2.64    7.15 
  -1 -17   1    3.32    6.82 
   1 -17  -1   -4.49    7.12 
   1 -17   1    4.36    8.02 
  -1 -17  -1    1.16    7.32 
  -1 -17   1    2.99    6.37 
  -1  17  -1    3.63    7.21 
   1 -17  -1    9.87    7.21 
   1  17  -1   12.99    8.11 
   2 -17  -1   -6.49    5.75 
  -2  17  -1    4.19    8.01 
   2  17   1   -1.94    7.37 
   2  17  -1    6.47    8.30 
   2 -17   1    2.22    7.51 
   2 -17  -1    0.16    7.06 
  -2 -17   1   -2.56    5.75 
  -2 -17  -1    1.01    6.91 
  -2  17   1    5.22    7.51 
   3  17   1   -0.97    8.32 
  -3 -17  -1    6.73    7.53 
  -3  17  -1   -5.88    7.01 
   3 -17  -1    6.45    6.48 
  -3  17   1    5.94    9.00 
   3 -17  -1    1.92    7.90 
   3  17  -1    9.73    8.45 
  -3 -17   1    3.64    7.15 
   3 -17   1   -0.63    7.26 
  -4 -17  -1    2.76    7.11 
   4 -17   1   -1.77    7.25 
   4  17  -1  -10.28    7.12 
  -4  17   1   -3.77    6.80 
   4 -17  -1    8.54    8.36 
   4  17   1    5.39    8.80 
  -4  17  -1   -5.02    7.67 
  -4 -17   1    9.41    7.64 
   0 -18   1   48.70   13.36 
   0 -18  -1   61.68   14.30 
   0  18   1   41.03   12.16 
   0  18  -1   66.17   14.28 
   0 -18  -1   41.94   11.95 
  -1  18   1    3.19    7.12 
   1  18   1    5.92    8.21 
  -1 -18  -1   11.55    9.01 
   1  18  -1   -8.67    6.68 
   1 -18  -1   13.16    8.92 
   1 -18   1    9.75    9.12 
   1 -18  -1   10.96    9.33 
  -1  18  -1    4.90    7.94 
  -1 -18   1   -9.18    6.76 
   0   0  -2 2655.75   66.68 
   0   0  -2 2426.26   64.33 
   0   0   2 2762.37   64.47 
   0   0   2 2677.16   68.05 
   0   0   2 2695.51   66.21 
   0   0  -2 2723.33   65.63 
   1   0  -2    0.44    1.26 
  -1   0  -2    0.01    0.97 
  -1   0   2    0.18    1.63 
  -1   0   2   -0.01    1.20 
  -1   0  -2    0.60    0.83 
  -1   0  -2   -0.15    0.94 
   1   0   2    1.01    2.15 
   1   0  -2   -0.35    1.41 
   1   0   2    0.66    1.01 
  -2   0   2 3593.08   89.57 
   2   0  -2 3703.97   94.75 
   2   0  -2 3844.68   93.82 
  -2   0  -2 3635.51   90.48 
   2   0   2 3798.73   89.57 
   2   0   2 3563.38   97.66 
  -2   0  -2 3427.29   92.57 
   2   0   2 3783.71   86.76 
  -2   0  -2 3957.29   88.90 
  -2   0   2 3655.48   90.86 
   2   0  -2 3637.06   90.08 
   3   0   2    2.97    2.11 
   3   0   2    3.04    1.31 
  -3   0   2    2.41    1.77 
   3   0  -2    5.95    2.56 
  -3   0  -2    2.19    1.24 
  -3   0  -2    3.51    1.85 
  -3   0   2    3.38    2.40 
   3   0  -2   -0.04    2.76 
  -3   0  -2    3.39    2.64 
   3   0   2    1.40    3.33 
   3   0  -2    3.98    2.36 
  -4   0  -2 1978.65   48.75 
  -4   0  -2 1884.14   49.89 
   4   0   2 1965.49   52.90 
   4   0   2 1928.33   47.50 
   4   0  -2 1911.51   53.41 
  -4   0   2 1976.96   50.77 
   4   0   2 1940.97   58.70 
  -4   0   2 1874.03   51.37 
   4   0  -2 1859.74   56.05 
   4   0  -2 1991.45   53.46 
  -4   0  -2 1842.08   54.28 
  -5   0  -2   -2.03    2.77 
   5   0   2    1.00    2.38 
   5   0  -2   -3.43    2.44 
   5   0  -2   -2.50    2.26 
  -5   0  -2    0.79    1.92 
  -5   0   2    3.17    2.62 
   5   0   2   -1.04    1.89 
  -5   0  -2   -1.55    1.35 
   5   0   2   -4.27    3.22 
  -5   0   2   -1.73    1.78 
  -5   0   2    0.83    3.60 
   6   0   2 1766.68   58.50 
  -6   0   2 1763.54   56.94 
   6   0  -2 1881.72   53.65 
   6   0  -2 1714.83   53.94 
  -6   0   2 1752.33   48.80 
   6   0   2 1828.84   53.90 
  -6   0  -2 1753.26   54.66 
  -6   0  -2 1836.54   47.14 
  -6   0  -2 1826.80   47.51 
  -6   0   2 1921.72   50.76 
  -7   0   2    0.25    2.32 
  -7   0  -2    1.53    4.11 
   7   0   2   -1.02    4.59 
  -7   0   2   -0.06    3.00 
   7   0  -2    0.92    3.69 
   7   0   2    0.08    3.46 
  -7   0  -2    1.28    1.87 
   7   0  -2   -4.14    3.59 
  -7   0   2   -2.32    3.69 
   8   0   2  848.26   33.63 
   8   0   2  870.33   36.54 
   8   0  -2  825.50   33.51 
  -8   0  -2  818.92   33.04 
  -8   0  -2  853.08   26.02 
  -8   0   2  828.85   27.50 
  -8   0   2  798.31   34.45 
  -9   0   2   -1.13    5.29 
  -9   0  -2   -0.26    2.64 
  -9   0   2   -1.30    2.67 
   9   0   2   -3.35    3.54 
   9   0   2    1.53    4.97 
  -9   0  -2   -5.78    4.25 
   9   0  -2   -1.49    3.98 
 -10   0   2  709.87   34.00 
 -10   0  -2  682.88   24.20 
  10   0   2  656.67   31.19 
  10   0   2  710.06   33.45 
  10   0  -2  694.22   32.17 
 -10   0  -2  704.24   31.89 
 -10   0   2  693.59   24.99 
 -11   0  -2   -0.44    3.31 
 -11   0  -2   -5.04    5.91 
 -11   0   2   -1.27    5.75 
  11   0  -2   -0.30    5.03 
 -11   0   2   -0.61    3.59 
  11   0   2   -3.82    4.88 
 -12   0  -2  401.45   24.05 
  12   0  -2  338.54   22.76 
 -12   0  -2  347.49   16.65 
  12   0   2  367.43   23.98 
 -12   0   2  350.62   17.32 
 -12   0   2  348.05   24.05 
   0  -1   2    8.94    2.50 
   0   1  -2    8.69    2.38 
   0   1   2    9.26    2.56 
   0  -1   2    5.87    1.56 
   0   1   2    7.53    2.62 
   0   1  -2   11.03    2.62 
   0   1   2    5.67    2.39 
   0  -1  -2    7.17    2.13 
   0  -1   2    7.17    2.26 
   0  -1  -2    5.47    2.26 
   0  -1   2    6.70    2.32 
   0  -1  -2    8.00    2.13 
   1   1   2   19.73    3.62 
  -1   1   2   17.51    3.25 
  -1  -1  -2   12.43    2.02 
   1   1   2   14.63    2.80 
   1  -1  -2   12.41    2.35 
   1   1  -2   14.28    1.86 
  -1  -1  -2   16.42    2.12 
   1   1   2   16.11    2.17 
  -1   1  -2   16.41    2.10 
  -1  -1   2   11.97    2.39 
  -1  -1   2   13.35    2.72 
  -1   1  -2   16.14    1.41 
   1  -1  -2   16.41    3.22 
  -1   1   2   15.02    2.41 
   1   1  -2   19.45    2.99 
  -1   1  -2   14.25    2.19 
  -1   1  -2   11.78    1.79 
  -1  -1  -2   11.98    1.89 
   1  -1   2   12.60    2.17 
  -1   1   2   14.21    1.55 
   1  -1   2   15.05    3.08 
   2  -1   2   -0.83    1.71 
  -2  -1   2   -1.16    1.91 
  -2  -1   2    4.03    3.29 
   2   1   2   -0.46    1.94 
   2  -1   2    6.21    3.20 
   2  -1   2    2.84    1.80 
  -2  -1   2   12.08    3.20 
   2  -1  -2    2.93    1.47 
  -2   1  -2    0.73    1.37 
  -2   1   2   -0.13    1.87 
  -2  -1  -2   -1.32    1.30 
   2   1  -2    4.50    2.13 
   2   1   2   -0.67    1.07 
  -2   1  -2    0.14    1.98 
   2   1  -2    1.16    2.23 
  -2  -1  -2    1.22    2.45 
   2  -1  -2    2.75    2.37 
   2   1   2    7.58    3.86 
   2  -1  -2    3.79    3.14 
  -2   1  -2    0.10    1.02 
  -2   1   2   -3.43    2.21 
  -3  -1  -2   -0.17    2.29 
  -3   1  -2    1.33    0.85 
  -3   1   2    3.52    2.51 
   3  -1  -2   -0.20    1.69 
  -3   1  -2    3.87    2.43 
   3  -1   2    1.36    1.28 
   3   1   2    1.47    0.92 
   3  -1   2    4.95    3.21 
   3   1  -2   -0.28    2.11 
  -3  -1   2    3.40    1.77 
  -3   1  -2    3.18    1.27 
   3  -1   2    1.41    1.98 
  -3  -1   2    1.29    2.64 
   3  -1  -2    1.67    2.33 
  -3  -1  -2    2.33    1.88 
  -3  -1  -2   -0.61    1.15 
   3  -1  -2    5.16    1.87 
   3   1   2    0.17    2.97 
   3   1   2    1.11    1.81 
  -3  -1   2    1.62    1.99 
   3   1  -2    1.19    2.10 
  -3   1   2    2.08    1.65 
   4   1   2   -1.56    2.22 
  -4   1  -2   -1.19    1.02 
  -4  -1  -2    0.94    2.75 
   4   1  -2    6.91    3.43 
  -4  -1  -2   -2.45    1.74 
  -4  -1   2   -0.51    3.12 
  -4   1   2    2.44    1.89 
  -4  -1   2   -0.10    1.98 
  -4   1   2   -2.52    2.34 
   4  -1   2   -1.74    1.58 
   4  -1  -2    1.06    2.74 
  -4   1  -2    1.74    1.69 
   4  -1   2   -0.60    3.03 
  -4  -1   2    0.65    2.32 
   4   1   2    1.39    3.85 
   4   1   2    0.40    1.58 
  -4  -1  -2    1.39    1.75 
   4   1  -2   -1.83    2.60 
   4  -1  -2    0.18    2.33 
   4  -1   2   -0.37    2.51 
   4  -1  -2    5.40    3.74 
  -4   1  -2    4.35    3.06 
   5   1   2   12.59    4.27 
   5  -1  -2    5.30    3.45 
  -5  -1   2   15.76    5.66 
  -5  -1   2    9.73    3.43 
  -5   1   2   11.05    3.71 
  -5  -1  -2   13.49    2.32 
   5  -1   2    9.38    3.06 
  -5   1  -2    9.62    1.96 
  -5  -1   2    8.65    2.87 
   5  -1  -2   12.99    5.33 
   5   1  -2    7.73    3.45 
  -5   1   2    9.08    2.50 
  -5   1  -2   11.65    2.40 
  -5   1  -2   16.01    4.74 
  -5  -1  -2    7.49    4.03 
   5  -1   2    1.84    3.82 
  -5  -1  -2    8.13    2.59 
   5   1   2    3.10    4.94 
   5  -1   2    4.64    3.06 
   5   1  -2   13.53    4.64 
   5  -1  -2   10.84    3.75 
   6   1   2   -3.24    2.34 
  -6  -1   2    2.88    4.31 
   6  -1   2   -0.81    3.41 
  -6   1  -2   -3.13    2.66 
   6   1  -2   -0.43    3.29 
  -6  -1  -2    0.44    2.04 
   6   1   2   10.08    5.18 
  -6  -1   2    3.22    2.71 
   6  -1   2   -0.14    3.74 
  -6   1   2    0.71    2.99 
   6  -1  -2    0.75    3.08 
  -6   1   2    2.01    2.05 
  -6  -1   2    3.93    2.83 
  -6   1  -2   -0.14    1.55 
   6  -1   2   -0.56    2.69 
  -6   1  -2   -0.47    1.78 
   6  -1  -2    0.20    3.25 
  -6  -1  -2   -0.21    3.28 
   6   1  -2    5.97    4.36 
   6  -1  -2    3.44    4.39 
  -7   1  -2    0.99    1.77 
  -7   1   2    0.92    2.24 
  -7   1   2    5.30    3.55 
  -7   1  -2   -0.99    3.78 
   7  -1  -2    0.74    3.89 
   7  -1   2    1.38    3.54 
   7   1  -2   -1.58    4.25 
   7  -1  -2    0.63    3.49 
   7  -1   2    1.21    4.47 
   7   1   2    2.10    3.70 
  -7  -1  -2   -5.23    3.28 
   7   1   2    4.31    5.76 
   7   1  -2    0.57    3.36 
  -7  -1  -2    1.16    2.04 
  -7  -1   2    0.59    2.66 
  -7  -1   2    0.97    4.88 
  -7   1   2   -1.75    4.36 
   8   1  -2   -0.03    3.51 
   8  -1   2   -2.14    3.86 
  -8  -1  -2   -1.68    4.17 
   8   1   2    2.98    3.74 
   8   1   2    6.22    5.09 
   8  -1  -2   -1.94    3.45 
  -8   1   2    0.34    2.47 
  -8   1   2   -5.93    3.95 
  -8   1  -2    3.46    2.26 
  -8  -1   2   -1.43    2.51 
  -8  -1  -2   -1.29    2.64 
  -8  -1   2   -0.75    4.72 
   8  -1   2   -0.18    4.58 
  -8   1  -2   -3.35    3.99 
   9  -1   2    1.09    3.94 
  -9   1   2    3.23    3.07 
  -9   1   2   -3.07    5.12 
   9  -1   2    3.48    5.40 
  -9  -1  -2   -0.60    2.90 
   9   1   2   -1.03    3.43 
  -9   1  -2    3.51    2.85 
   9   1   2    4.84    5.44 
  -9  -1  -2   -1.12    5.00 
  -9  -1   2    3.44    6.10 
   9  -1  -2    6.31    4.78 
   9   1  -2    2.62    4.71 
  -9   1  -2   -0.44    4.85 
  -9  -1   2    4.08    3.52 
 -10  -1   2   -1.99    3.49 
  10   1  -2   -4.75    4.35 
 -10  -1  -2   -4.65    2.63 
 -10  -1   2   -1.04    5.64 
  10   1   2   -3.21    3.55 
 -10   1   2   -0.41    3.30 
 -10   1  -2   -4.39    2.63 
 -10   1  -2   -2.68    5.23 
 -10   1   2    2.80    6.22 
  10  -1   2    5.71    6.11 
  10  -1   2    2.56    4.49 
  10   1   2    3.26    5.74 
 -10  -1  -2    0.65    5.79 
  10  -1  -2    2.68    5.25 
  11  -1  -2    1.05    4.80 
 -11   1   2   -0.76    3.36 
 -11  -1   2    1.34    3.64 
 -11   1   2    5.47    7.34 
  11   1   2    0.76    5.12 
  11   1  -2   -2.02    4.82 
  11  -1   2   -2.42    4.66 
 -11  -1  -2   -5.12    3.12 
 -11  -1   2    2.71    6.61 
 -11   1  -2   -1.78    3.14 
 -11   1  -2   -6.63    5.54 
 -11  -1  -2    4.95    6.58 
  12   1  -2   -1.42    5.79 
 -12  -1   2   -3.19    3.07 
 -12  -1  -2   -1.73    6.50 
 -12  -1   2    5.30    8.14 
 -12   1   2   -7.78    7.10 
 -12   1   2   -1.08    3.62 
 -12   1  -2    0.86    3.36 
  12   1   2    0.08    5.83 
  12  -1  -2   -1.43    4.94 
  12  -1   2    4.05    5.95 
 -12  -1  -2   -2.45    3.32 
   0  -2  -2  907.36   23.37 
   0  -2   2  924.51   23.88 
   0   2   2  874.59   26.17 
   0   2  -2  896.02   26.04 
   0   2   2  906.30   26.26 
   0  -2   2  929.93   24.93 
   0   2   2  908.05   25.41 
   0  -2  -2  865.65   24.40 
   0   2  -2  895.75   24.98 
   0  -2  -2  912.64   25.83 
   0  -2   2  937.01   24.86 
   1   2   2    3.52    1.68 
  -1  -2  -2    3.18    1.51 
  -1  -2   2    2.23    2.04 
  -1   2  -2    2.10    1.34 
  -1   2  -2    2.50    1.59 
   1  -2   2    4.15    2.54 
   1   2   2   -0.59    1.81 
  -1  -2  -2    2.62    1.87 
  -1  -2   2    0.86    1.63 
  -1  -2  -2   -0.06    1.18 
   1  -2   2    0.73    1.53 
  -1   2   2    1.21    1.74 
   1   2   2   -3.60    2.07 
  -1  -2   2    1.39    1.68 
   1   2  -2    3.17    1.94 
   1  -2   2    0.67    1.21 
   1   2  -2    2.74    2.20 
   1  -2  -2    1.34    1.51 
  -1   2   2    0.40    1.56 
  -1   2  -2    1.47    1.46 
   1  -2  -2    2.72    2.62 
  -1   2   2    5.98    2.77 
  -2  -2  -2 5794.48  145.66 
  -2   2  -2 6016.24  140.37 
  -2  -2   2 5807.75  146.47 
   2   2   2 5630.62  150.11 
   2  -2   2 5919.73  149.11 
   2  -2   2 5829.07  137.36 
   2  -2   2 5865.91  143.91 
   2   2  -2 5458.96  146.31 
  -2  -2  -2 6114.79  140.50 
  -2   2   2 5846.82  140.69 
   2   2  -2 5850.97  140.12 
  -2   2   2 5915.11  139.75 
   2   2   2 5858.82  138.89 
  -2   2   2 5540.56  140.48 
  -2  -2   2 5887.05  138.05 
  -2  -2   2 5834.14  142.17 
  -2   2  -2 5852.92  140.54 
  -2   2  -2 5932.78  138.64 
   2   2   2 6217.56  138.58 
  -2   2   2 5890.18  145.70 
   2  -2  -2 5559.02  138.55 
   2  -2  -2 6057.09  147.69 
  -3  -2   2   -0.32    1.71 
   3  -2  -2   -1.05    2.51 
  -3   2   2   -1.66    2.39 
  -3  -2   2    1.26    2.63 
  -3  -2  -2    1.35    2.63 
   3  -2  -2    2.81    2.33 
   3   2   2   -0.84    2.66 
   3  -2   2   -1.94    2.52 
  -3   2   2    1.04    1.37 
   3  -2   2   -0.14    1.69 
  -3  -2  -2    0.38    1.51 
   3  -2   2    3.49    2.30 
   3   2  -2    6.03    2.73 
   3   2   2    4.42    2.64 
   3  -2  -2    4.48    2.07 
  -3  -2   2    5.65    2.48 
   3   2  -2   -0.13    2.18 
   3  -2   2    5.11    2.71 
   4  -2  -2  544.68   22.40 
  -4  -2   2  519.54   18.50 
   4  -2  -2  548.32   20.23 
  -4   2   2  543.42   16.44 
   4   2  -2  548.14   20.22 
  -4   2   2  560.13   20.81 
  -4  -2  -2  549.82   21.42 
   4  -2   2  563.51   20.29 
  -4  -2   2  555.08   22.12 
   4   2   2  519.53   23.18 
  -4  -2   2  559.67   19.56 
   4   2   2  568.36   20.66 
   4  -2   2  560.10   19.95 
   4  -2   2  555.29   17.73 
  -4  -2  -2  556.02   18.31 
   4  -2   2  543.50   22.50 
   4   2  -2  554.38   20.96 
   4  -2  -2  559.40   18.53 
  -5   2  -2    3.47    3.31 
   5  -2  -2    3.21    4.13 
   5  -2   2    0.27    2.25 
   5  -2   2   -0.97    2.44 
  -5  -2  -2   -0.68    3.00 
  -5   2   2   -0.37    1.65 
   5   2  -2   -2.74    2.50 
  -5   2   2   -2.22    2.68 
   5  -2   2    0.68    3.67 
   5   2   2    2.72    3.33 
  -5  -2   2    3.25    3.81 
   5  -2  -2    0.44    2.54 
  -5  -2  -2   -1.16    1.75 
   5   2   2   -0.40    3.50 
  -5  -2   2   -0.62    2.06 
   5   2  -2    1.30    3.26 
   5  -2  -2    4.45    3.27 
  -5  -2   2   -0.91    1.87 
   6  -2  -2 2907.37   76.77 
   6   2   2 2783.31   76.95 
   6  -2  -2 2728.47   81.56 
   6  -2   2 2758.71   76.44 
  -6   2   2 2885.07   75.12 
  -6  -2   2 2651.93   73.62 
  -6   2  -2 2721.05   77.81 
  -6   2   2 2730.29   70.50 
   6  -2   2 2830.80   82.39 
   6  -2   2 2862.95   72.16 
  -6  -2  -2 2825.30   72.55 
  -6   2  -2 2895.64   69.23 
  -6  -2   2 2710.44   71.57 
  -6   2  -2 2827.39   68.08 
   6   2  -2 2882.81   80.18 
  -6  -2  -2 2717.57   79.99 
   6   2   2 2828.26   84.79 
   6  -2  -2 2664.62   76.54 
  -6  -2   2 2753.91   81.04 
   6   2  -2 2756.63   77.90 
  -7   2   2    1.19    2.25 
   7   2  -2    4.00    4.71 
  -7  -2   2   -3.94    4.25 
   7   2  -2    0.39    3.82 
   7   2   2    2.84    3.67 
   7  -2  -2    1.67    3.80 
  -7   2  -2   -4.88    3.16 
  -7   2  -2    0.46    1.42 
   7  -2   2    1.35    4.22 
  -7  -2  -2   -2.23    2.29 
   7   2   2    0.21    5.30 
  -7   2  -2    2.03    2.10 
  -7   2   2   -3.13    2.83 
  -7  -2   2    1.79    2.54 
   7  -2   2   -0.61    2.73 
   7  -2  -2    3.24    4.05 
   7  -2  -2    6.31    5.13 
   7  -2   2    2.02    3.36 
  -7  -2  -2    4.30    4.57 
  -8   2  -2  283.08   16.72 
   8   2  -2  281.76   17.90 
  -8   2   2  330.71   16.63 
   8  -2   2  302.24   17.85 
   8  -2  -2  272.86   17.20 
  -8  -2   2  282.19   18.55 
   8   2   2  300.00   20.20 
  -8   2   2  272.38   18.78 
  -8   2  -2  283.95   10.99 
  -8  -2  -2  284.63   13.75 
   8   2   2  301.58   17.84 
   8  -2   2  303.51   19.18 
  -8  -2  -2  276.72   17.96 
  -8   2   2  284.51   12.31 
  -8  -2   2  299.69   14.67 
   9  -2  -2   -7.60    3.94 
   9   2  -2   -2.64    3.45 
  -9   2   2    0.43    2.68 
   9  -2   2   -0.17    4.57 
  -9   2  -2    2.41    2.44 
  -9  -2  -2    0.77    2.95 
  -9  -2   2   -0.42    5.81 
   9  -2   2   -1.77    3.85 
  -9  -2  -2    0.58    5.17 
  -9   2   2    2.19    6.11 
  -9  -2   2   -0.43    2.76 
   9   2   2    4.25    4.84 
  -9   2  -2    2.28    5.49 
   9   2   2   -0.53    5.07 
 -10   2   2  986.06   31.61 
  10   2   2  970.50   42.07 
  10  -2  -2  946.40   39.27 
  10   2  -2 1031.90   41.30 
 -10   2  -2  989.75   39.21 
 -10  -2  -2 1019.32   41.04 
  10  -2   2  964.23   40.35 
 -10   2   2 1002.30   42.41 
 -10   2  -2 1024.13   30.26 
  10  -2   2 1041.92   41.12 
 -10  -2   2 1024.47   34.60 
 -10  -2   2  973.52   41.49 
 -10  -2  -2 1043.74   33.88 
  10   2   2 1044.68   40.43 
 -11   2  -2    2.54    3.12 
 -11  -2   2   -3.68    6.92 
  11   2   2    9.58    6.05 
 -11   2   2   -0.83    3.26 
 -11   2   2    7.98    7.15 
 -11  -2   2   -2.16    3.24 
 -11  -2  -2   -1.02    3.74 
  11   2  -2    3.81    5.55 
  11  -2  -2    3.25    5.03 
 -11  -2  -2   -0.52    6.36 
  11  -2   2   -2.95    4.54 
 -11   2  -2    1.62    6.50 
  12  -2   2  186.30   19.18 
  12   2   2  194.35   20.18 
 -12  -2   2  255.34   23.75 
 -12  -2  -2  183.77   12.78 
 -12   2   2  193.19   11.38 
 -12  -2  -2  210.93   18.00 
  12  -2  -2  195.81   16.93 
 -12   2  -2  182.81   10.53 
 -12   2   2  237.18   23.04 
 -12  -2   2  163.93   12.51 
  12   2  -2  175.45   19.70 
   0   3  -2    5.55    2.60 
   0  -3  -2    3.49    2.54 
   0  -3  -2    1.15    2.63 
   0  -3  -2   -1.02    1.57 
   0  -3   2    1.09    1.67 
   0  -3  -2    2.59    1.48 
   0   3  -2    1.29    2.29 
   0   3   2    3.15    2.74 
   0  -3   2    3.49    2.09 
   0  -3   2    3.56    2.37 
   1  -3  -2  147.71    5.58 
  -1  -3   2  140.11    6.95 
  -1   3  -2  142.57    6.14 
   1   3   2  150.74    5.88 
   1  -3   2  135.91    7.96 
   1  -3  -2  134.38    8.26 
  -1  -3  -2  138.05    7.18 
  -1  -3   2  147.40    7.38 
   1   3  -2  156.50    7.37 
  -1   3  -2  136.12    6.34 
   1  -3   2  145.79    6.37 
  -1  -3  -2  139.33    6.58 
   1  -3   2  145.45    7.19 
  -1   3  -2  146.56    6.41 
   1   3  -2  141.00    7.63 
   1   3   2  143.26    8.66 
  -1   3   2  150.59    7.42 
  -1  -3   2  141.84    7.52 
   1  -3  -2  144.13    8.15 
  -2   3  -2    0.88    1.09 
   2  -3   2    1.17    1.98 
   2  -3  -2    0.42    2.68 
   2   3   2   -3.02    2.05 
   2  -3  -2   -1.99    1.47 
  -2   3  -2    0.53    1.71 
  -2  -3   2    0.07    2.80 
   2  -3  -2   -0.02    2.78 
  -2  -3   2   -0.64    1.76 
  -2   3   2    2.88    1.87 
   2   3   2    1.17    3.12 
   2  -3   2    1.75    2.59 
  -2  -3   2   -0.58    1.63 
  -2   3   2   -0.34    1.74 
  -2   3  -2    1.73    1.49 
   2  -3   2    1.23    1.93 
   2   3   2    3.87    2.13 
   2   3  -2    1.28    2.27 
  -2  -3  -2   -2.83    1.87 
  -2  -3  -2   -0.64    1.65 
   2   3   2    1.46    1.46 
   2   3  -2   -1.50    1.76 
   3  -3   2   59.87    4.86 
  -3  -3  -2   70.74    6.43 
   3   3   2   72.00    5.61 
   3   3  -2   63.92    5.69 
   3  -3   2   60.24    4.84 
  -3  -3  -2   63.19    5.02 
   3   3   2   75.10    8.57 
   3  -3   2   82.48    7.14 
   3  -3  -2   64.14    5.39 
   3  -3  -2   75.83    8.04 
  -3  -3   2   62.16    5.59 
   3   3  -2   78.12    7.20 
  -3   3   2   66.81    4.96 
  -3  -3   2   64.40    4.86 
  -3  -3   2   78.08    8.04 
   3  -3   2   63.31    5.20 
  -3   3   2   62.31    3.67 
   4  -3  -2   -1.32    2.70 
   4   3   2   -0.97    2.54 
  -4  -3  -2   -0.32    2.90 
   4  -3   2   -5.13    1.73 
  -4  -3  -2   -2.15    1.69 
  -4  -3   2    0.23    2.23 
  -4   3   2   -0.15    1.32 
   4  -3   2    1.88    2.23 
   4  -3  -2   -1.60    1.88 
  -4  -3   2    2.47    2.17 
   4  -3   2    1.70    2.71 
  -4  -3   2    2.84    3.52 
   4   3  -2   -0.11    2.73 
   4  -3  -2    5.26    3.49 
   4   3  -2    0.12    2.57 
  -4   3   2   -3.66    2.12 
   4   3   2    0.75    3.63 
   4  -3   2    3.95    3.89 
   5  -3  -2   79.59   10.37 
  -5  -3   2   90.31   10.46 
  -5   3   2   80.79    8.99 
  -5  -3   2   83.46    5.85 
  -5  -3   2   72.24    7.39 
   5  -3   2   76.79    8.35 
   5   3  -2   84.79    8.99 
  -5  -3  -2   70.64    6.07 
  -5  -3  -2   90.41   10.22 
   5   3   2   75.48    8.75 
   5  -3  -2   79.31    8.69 
   5  -3   2   71.91    6.88 
   5  -3   2   84.09    8.82 
   5   3  -2   77.81    9.08 
   5  -3  -2   72.76    6.36 
   5   3   2   71.01   10.86 
  -5   3   2   71.35    4.44 
   5  -3   2   76.28    9.65 
   6  -3   2   -1.86    2.81 
   6   3  -2   -0.96    3.78 
  -6   3  -2   -1.41    3.20 
   6   3   2   -0.82    3.14 
  -6   3   2    0.45    1.75 
  -6  -3   2   -0.98    2.39 
   6   3  -2    0.43    3.60 
   6  -3   2    3.25    3.60 
  -6  -3  -2   -2.65    1.95 
   6   3   2   -0.18    4.83 
   6  -3   2   -4.72    3.39 
   6  -3  -2   -6.20    2.61 
   6  -3  -2   -2.52    2.69 
  -6   3   2   -0.26    3.12 
  -6  -3   2    5.09    4.70 
  -6  -3  -2    0.82    3.84 
   6  -3  -2    2.10    4.49 
  -6  -3   2    3.29    2.45 
  -7   3   2   38.45    7.39 
   7  -3   2   26.85    6.05 
  -7   3  -2   29.96    3.19 
   7   3   2   34.59    7.66 
  -7   3  -2   40.41    7.86 
   7  -3  -2   26.53    7.71 
   7   3  -2   26.06    7.65 
   7   3  -2   21.53    6.70 
   7  -3   2   30.24    7.07 
   7  -3  -2   29.94    6.96 
   7  -3  -2   34.20    6.25 
  -7   3   2   30.06    4.21 
  -7  -3   2   33.16    8.84 
  -7  -3  -2   30.42    8.17 
  -7  -3   2   30.26    5.65 
   7  -3   2   39.95    8.84 
   7   3   2   33.74    9.39 
  -7   3  -2   26.74    2.59 
  -7  -3  -2   23.80    5.02 
  -8   3   2    3.63    4.21 
  -8   3  -2    3.07    5.02 
   8   3   2   -1.27    4.47 
   8   3   2    0.51    5.20 
   8   3  -2   -3.13    4.11 
   8  -3   2    3.52    5.15 
   8  -3  -2    2.10    4.81 
   8  -3  -2    3.95    4.13 
   8   3  -2   -1.23    4.66 
  -8  -3  -2   -0.95    2.98 
  -8   3  -2    1.74    1.88 
  -8  -3  -2   -0.52    4.62 
  -8  -3   2   -0.79    3.12 
   8  -3   2   -0.06    3.45 
  -8  -3   2    9.41    5.90 
  -8   3   2    0.86    2.41 
  -9   3   2   21.42    9.58 
   9   3  -2   20.70    7.54 
  -9   3   2   19.82    4.30 
   9  -3  -2   24.43    7.57 
  -9  -3  -2   17.02    7.84 
  -9  -3   2   25.90    9.68 
   9  -3   2   13.39    6.26 
  -9   3  -2   18.77    3.33 
  -9  -3  -2   16.65    4.91 
   9  -3   2   24.31    8.39 
   9   3   2   23.62    7.51 
   9   3   2   27.25    9.41 
  -9   3  -2   12.93    6.35 
  -9  -3   2   28.46    5.99 
 -10   3   2    1.36    3.14 
  10  -3  -2    1.28    4.26 
  10   3   2    0.31    5.67 
 -10   3  -2    3.08    6.30 
 -10  -3  -2   -2.18    3.20 
 -10  -3  -2    0.33    6.21 
 -10   3  -2    0.08    2.33 
  10   3  -2    2.09    5.27 
 -10   3   2    0.05    7.10 
 -10  -3   2   -1.66    5.49 
 -10  -3   2    0.81    3.45 
  10  -3   2    0.38    5.37 
  10  -3   2   -0.20    4.60 
  10   3   2    0.42    4.60 
 -11  -3  -2   14.32    4.95 
 -11  -3   2   15.92    5.29 
  11   3  -2   11.26    7.45 
 -11   3   2   18.89   10.18 
 -11   3  -2   22.71    4.39 
 -11   3   2   16.65    4.71 
  11   3   2   20.13    7.85 
  11  -3   2   15.07    7.52 
  11  -3  -2   12.14    6.05 
 -11  -3   2   19.03    9.95 
 -11  -3  -2   15.82    9.05 
   0  -4  -2 2334.18   54.34 
   0  -4   2 2299.59   57.24 
   0   4  -2 2201.76   61.69 
   0  -4   2 2297.71   57.47 
   0  -4  -2 2285.94   57.25 
   0  -4  -2 2289.40   60.46 
   0  -4  -2 2287.34   58.23 
   0  -4   2 2236.96   58.16 
   0   4   2 2155.66   61.55 
   0   4  -2 2160.06   56.48 
   1  -4   2    2.31    2.23 
   1  -4  -2    1.39    1.07 
  -1  -4   2    1.95    1.96 
  -1  -4   2    2.12    2.00 
   1  -4   2   -1.28    1.74 
   1  -4  -2    0.93    2.53 
  -1   4  -2   -0.02    1.49 
  -1  -4  -2    0.88    1.53 
   1   4   2   -1.66    1.16 
  -1  -4  -2    0.59    1.99 
  -1  -4  -2    0.37    2.09 
  -1   4  -2    0.21    1.48 
  -1   4   2   -1.99    2.12 
   1  -4  -2    1.60    2.58 
   1   4  -2    2.95    2.60 
  -1  -4   2   -1.42    1.63 
  -1   4  -2    3.07    2.75 
   1   4  -2    0.53    1.85 
   1   4   2    0.70    2.59 
   2  -4  -2 1599.75   44.82 
  -2  -4   2 1593.86   45.07 
  -2   4   2 1611.65   41.24 
  -2   4  -2 1594.84   40.34 
  -2  -4  -2 1491.41   44.32 
  -2  -4  -2 1515.55   42.31 
   2   4  -2 1572.60   42.08 
   2  -4   2 1612.67   42.14 
  -2   4  -2 1556.05   40.43 
   2   4   2 1561.18   47.16 
   2   4  -2 1499.15   44.89 
   2  -4   2 1515.51   42.53 
   2  -4  -2 1505.02   46.32 
  -2  -4   2 1639.64   41.42 
   2   4   2 1602.34   40.99 
  -2  -4  -2 1596.73   39.72 
  -2  -4   2 1530.33   43.94 
  -2   4   2 1588.21   44.04 
   2  -4   2 1499.38   45.70 
  -2   4  -2 1536.86   39.21 
   2  -4  -2 1573.07   40.02 
   3  -4   2    1.80    2.90 
  -3  -4  -2    1.44    2.90 
  -3   4  -2   -0.08    0.82 
   3   4   2    1.05    2.34 
  -3  -4  -2   -1.74    1.38 
   3  -4  -2    0.50    2.67 
   3   4  -2    0.73    2.32 
  -3   4   2    1.51    1.50 
   3  -4   2   -1.95    1.56 
   3  -4  -2    1.46    3.27 
   3   4   2   -3.54    2.06 
   3  -4   2    0.40    2.31 
  -3  -4   2   -1.17    1.79 
  -3   4  -2    0.97    1.76 
  -3  -4   2   -0.51    2.91 
   3   4   2    0.26    1.07 
   3   4   2    1.15    3.38 
   3  -4  -2   -1.83    1.61 
  -3   4   2    3.65    2.53 
  -3   4  -2   -0.46    1.14 
   3   4  -2    0.12    2.65 
  -3  -4   2    0.91    1.88 
  -4   4   2 1626.46   46.75 
   4  -4   2 1654.47   47.24 
   4  -4  -2 1670.00   48.56 
   4  -4   2 1627.13   45.02 
   4   4  -2 1597.89   48.35 
   4  -4   2 1652.53   50.66 
  -4  -4   2 1669.33   43.15 
   4  -4  -2 1635.29   46.13 
  -4  -4  -2 1704.83   50.47 
  -4  -4   2 1608.18   47.22 
   4  -4  -2 1574.56   50.46 
  -4   4   2 1670.87   41.38 
  -4  -4  -2 1620.45   46.15 
   4   4   2 1648.31   46.73 
  -4  -4   2 1584.73   50.60 
   4   4   2 1591.80   51.75 
   4  -4   2 1647.05   45.00 
   4   4  -2 1605.34   47.17 
  -5   4   2    3.15    3.22 
   5   4   2   -0.74    4.15 
   5  -4  -2    3.54    3.28 
  -5  -4   2    0.86    2.13 
   5   4  -2   -2.47    3.07 
   5  -4   2   -2.70    3.25 
   5   4   2    1.21    3.08 
   5  -4   2    1.25    2.54 
   5  -4   2   -1.36    2.38 
  -5   4   2    0.31    1.39 
   5  -4  -2   -4.64    2.91 
   5  -4   2    2.34    3.33 
   5   4  -2    2.95    3.36 
   5  -4  -2    3.05    2.91 
  -5  -4  -2   -0.27    2.20 
  -5  -4  -2   -0.96    3.22 
  -5  -4   2   -1.57    1.91 
  -5  -4   2   -1.36    3.70 
  -6  -4   2 1042.09   33.93 
   6  -4  -2 1028.16   38.09 
   6   4   2  967.52   39.00 
  -6  -4   2  999.85   38.20 
   6   4   2 1053.36   35.53 
   6  -4   2  973.56   34.11 
   6  -4   2 1033.54   35.15 
   6   4  -2 1032.07   36.30 
  -6   4   2  964.12   34.43 
   6  -4   2  965.91   36.92 
  -6  -4  -2  980.56   32.48 
   6  -4  -2  980.63   32.95 
  -6   4   2 1002.34   27.40 
   6  -4   2 1049.01   32.71 
   6   4  -2 1013.29   35.55 
  -6  -4  -2  936.86   36.62 
   6  -4  -2  953.17   34.05 
   7  -4  -2   -5.33    2.97 
   7  -4   2    2.44    3.71 
  -7   4  -2   -3.98    3.31 
  -7  -4   2    3.17    5.16 
  -7  -4  -2    2.74    5.69 
   7   4   2   -1.77    4.53 
  -7   4   2    3.31    2.44 
   7   4  -2   -5.17    4.52 
  -7  -4   2    0.47    2.69 
   7   4  -2    3.18    4.76 
   7   4   2   -1.27    3.53 
  -7  -4  -2    0.79    2.79 
   7  -4  -2    0.19    4.49 
   7  -4  -2    0.39    3.75 
  -7   4   2    3.56    3.88 
   7  -4   2    2.62    4.54 
   7  -4   2   -4.47    3.13 
  -8  -4   2  800.15   36.07 
   8   4   2  827.75   37.62 
  -8   4   2  847.02   25.41 
   8  -4   2  850.58   35.38 
  -8   4  -2  820.93   32.74 
  -8  -4  -2  832.10   35.66 
  -8  -4  -2  813.42   29.56 
   8   4  -2  812.30   33.54 
   8  -4   2  884.25   31.10 
  -8   4   2  874.74   32.35 
   8   4   2  864.36   33.47 
   8   4  -2  862.79   35.08 
   8  -4  -2  833.42   33.25 
   8  -4  -2  836.33   36.21 
   8  -4   2  831.36   33.62 
  -8  -4   2  853.25   30.80 
  -9   4   2    2.21    2.69 
  -9  -4  -2   -2.70    2.72 
   9   4  -2    5.67    5.60 
  -9   4  -2   -0.65    1.75 
   9  -4   2   10.44    5.81 
  -9   4  -2   -1.03    5.39 
   9   4   2   -3.90    4.86 
   9  -4  -2   -0.54    4.04 
  -9  -4   2    3.22    3.27 
  -9  -4   2   -4.65    5.38 
   9  -4   2    5.64    4.54 
  -9  -4  -2    0.45    6.18 
   9   4   2   -2.25    3.98 
  10  -4   2  444.41   24.42 
 -10   4   2  462.71   16.89 
 -10  -4  -2  460.41   20.88 
 -10   4  -2  441.69   14.94 
  10   4   2  416.98   26.32 
 -10  -4   2  432.16   26.21 
 -10   4  -2  459.21   23.69 
 -10  -4  -2  457.99   26.14 
  10  -4  -2  454.32   24.07 
  10   4  -2  381.18   23.76 
  10   4   2  418.04   23.94 
 -10   4   2  484.02   27.22 
 -10  -4   2  447.49   20.93 
  10  -4   2  465.98   25.40 
 -11   4   2    0.34    3.23 
  11   4  -2    0.06    5.97 
 -11   4   2    0.33    7.28 
 -11  -4   2    7.35    7.12 
  11   4   2   -5.45    3.89 
 -11  -4  -2   12.87    8.26 
  11  -4   2    2.72    5.86 
 -11   4  -2    0.34    2.64 
 -11  -4  -2    5.89    4.22 
  11  -4  -2   -4.49    4.83 
 -11  -4   2   -4.46    3.52 
   0  -5  -2    2.78    2.77 
   0   5   2    2.59    2.90 
   0   5  -2    1.31    1.90 
   0  -5   2    2.10    2.34 
   0  -5  -2    1.94    1.15 
   0  -5   2    0.92    2.03 
   0  -5  -2    3.22    3.04 
   0  -5  -2    0.14    1.70 
   0   5  -2    1.61    2.66 
  -1  -5   2    0.48    1.73 
  -1  -5   2    1.51    2.02 
  -1  -5  -2    0.60    1.55 
  -1   5   2   -0.67    2.41 
   1   5   2   -0.93    1.25 
   1  -5  -2    1.00    2.48 
  -1   5  -2   -3.25    2.11 
   1   5  -2   -0.70    1.71 
  -1  -5  -2    0.74    2.16 
  -1  -5   2   -0.28    2.08 
   1  -5  -2    1.91    2.70 
  -1   5  -2    2.29    1.88 
   1   5  -2   -1.57    2.28 
   1  -5   2    4.10    2.74 
   1  -5   2    0.06    2.03 
  -1  -5  -2   -2.74    1.86 
   1   5   2    0.99    2.83 
  -2  -5  -2   -2.28    1.54 
  -2   5  -2    0.76    2.80 
   2  -5  -2   -0.96    2.77 
  -2  -5  -2   -0.06    2.12 
  -2   5   2   -2.41    2.01 
  -2   5   2    2.27    1.92 
  -2  -5   2   -2.09    2.03 
  -2  -5   2   -0.67    2.09 
   2  -5  -2   -1.00    1.50 
  -2   5  -2    0.27    1.51 
   2  -5   2   -0.69    2.25 
   2   5  -2    0.20    2.90 
   2   5   2    2.13    1.93 
  -2  -5   2   -0.30    2.02 
  -2   5  -2   -0.46    1.60 
   2   5  -2    1.13    2.13 
   2   5   2    2.56    3.75 
  -2  -5  -2    3.43    3.08 
   2  -5   2    5.00    2.42 
   2  -5  -2    1.57    2.73 
  -3  -5  -2    3.14    2.04 
  -3  -5   2    3.35    2.49 
   3  -5   2    3.05    2.84 
   3   5   2    2.36    3.23 
  -3   5  -2    0.81    1.17 
  -3   5  -2    4.11    2.18 
  -3  -5   2    3.22    2.15 
   3  -5   2    3.08    3.56 
  -3  -5  -2    1.21    2.13 
   3   5  -2    1.76    2.93 
   3   5  -2    2.67    2.44 
   3  -5  -2    1.55    2.05 
   3   5   2    2.32    2.42 
  -3  -5   2    3.60    3.44 
  -3  -5  -2    2.82    3.17 
   3  -5  -2   -2.96    2.62 
  -3   5   2    2.59    2.00 
  -3   5  -2    2.43    1.62 
   3  -5   2    4.40    3.12 
  -3   5   2    3.11    2.63 
   3  -5  -2    2.17    2.84 
   4  -5  -2    0.91    2.76 
  -4  -5  -2    1.97    3.42 
   4  -5  -2    3.08    3.48 
  -4   5  -2   -1.73    2.25 
   4   5   2   -1.17    2.58 
   4  -5  -2   -2.88    2.95 
   4  -5   2    3.58    2.94 
  -4  -5   2    3.69    2.24 
  -4  -5   2    3.91    4.01 
  -4   5   2   -1.59    2.51 
   4   5  -2   -1.42    3.06 
   4  -5   2    2.46    2.78 
   4   5  -2   -1.82    2.62 
  -4  -5   2    0.64    2.58 
  -4  -5  -2    2.52    2.65 
  -4   5   2    1.49    1.57 
   4  -5   2    1.00    3.23 
   4   5   2   -0.70    3.36 
   4   5   2   -2.49    2.42 
   5   5  -2    1.50    3.19 
   5   5   2    2.52    4.47 
   5   5   2   -1.26    2.86 
   5  -5   2    0.52    3.05 
  -5  -5  -2    3.57    4.27 
  -5  -5   2    1.48    3.99 
   5  -5   2    1.08    2.49 
   5  -5   2    1.40    2.67 
   5  -5   2   -1.43    3.61 
   5  -5  -2   -1.98    3.93 
   5  -5  -2    2.75    3.75 
  -5  -5  -2   -1.63    2.40 
   5   5  -2    6.61    4.01 
  -5   5   2    0.46    1.49 
   5  -5  -2    5.38    3.47 
  -5  -5   2   -0.39    1.86 
  -5  -5   2    1.60    2.80 
  -5   5   2    2.60    3.38 
   6   5  -2    3.51    3.90 
   6   5   2   -1.12    3.64 
   6  -5  -2    1.04    3.93 
  -6   5   2    3.16    3.81 
   6  -5   2   -2.44    3.53 
   6  -5   2    0.29    4.03 
  -6  -5  -2    2.86    4.61 
  -6  -5  -2    0.68    2.68 
   6   5  -2    3.04    4.09 
  -6   5   2    0.98    1.54 
   6  -5   2    0.51    3.05 
  -6  -5   2   -3.60    2.46 
   6   5   2    0.47    4.61 
   6  -5  -2   -4.79    3.93 
  -6   5   2    5.41    4.01 
  -6   5   2    0.44    1.58 
   6  -5   2    1.56    3.54 
  -6  -5   2    4.96    4.31 
   7   5   2    1.78    3.88 
   7   5  -2   -2.33    3.27 
   7  -5  -2   12.82    7.15 
  -7  -5  -2   -2.13    5.03 
   7   5   2   -3.17    3.90 
  -7  -5   2    3.96    3.37 
  -7   5   2    0.13    4.24 
   7  -5   2   -3.43    2.96 
  -7   5   2    0.31    2.06 
   7   5  -2    6.61    4.78 
   7  -5   2   -3.69    3.39 
  -7   5   2   -0.82    1.71 
   7  -5  -2    4.89    4.80 
  -7  -5   2   -1.72    4.52 
  -7  -5  -2    1.23    2.94 
   7  -5   2    0.93    3.38 
  -7   5   2    0.27    4.09 
   7  -5   2    4.46    4.89 
   8  -5  -2   -4.52    3.45 
  -8  -5   2    1.56    3.29 
   8  -5  -2    3.07    5.06 
  -8  -5   2   -1.49    5.48 
   8  -5   2   -5.07    3.14 
  -8   5   2   -1.79    2.37 
  -8  -5  -2   -1.75    5.25 
  -8   5   2   -0.56    5.12 
   8  -5   2   -4.98    2.98 
   8   5   2   -3.33    4.98 
   8  -5   2   -3.80    4.11 
   8   5  -2    4.37    5.44 
  -8   5  -2    0.31    4.86 
   8   5   2   -2.02    3.40 
   8   5  -2   -7.66    3.50 
  -8  -5  -2   -4.60    2.51 
   9   5  -2    5.70    5.50 
  -9   5   2   10.33    5.82 
  -9  -5   2    5.30    6.27 
  -9   5  -2    2.06    5.27 
  -9   5   2   -1.23    2.34 
   9  -5   2   -0.02    4.61 
   9   5   2    7.03    7.17 
  -9  -5  -2   10.17    6.95 
   9  -5   2    5.02    4.78 
   9  -5  -2    6.77    5.99 
  -9  -5   2    0.42    3.56 
   9   5   2    3.20    4.52 
  -9  -5  -2   -1.99    3.58 
   9  -5  -2   -2.97    4.43 
 -10  -5   2   -2.95    6.30 
  10   5   2   -0.67    4.98 
 -10   5   2    1.48    8.04 
  10   5  -2    3.69    5.86 
 -10   5   2    1.97    2.75 
  10   5   2    2.61    7.58 
 -10  -5   2   -3.78    3.43 
 -10  -5  -2   -0.09    3.90 
  10  -5  -2   -3.63    3.82 
  10  -5   2   -3.33    4.35 
 -10  -5  -2   -0.58    5.65 
  11   5   2   -2.04    4.55 
 -11   5   2   -3.66    8.09 
 -11  -5  -2   -3.63    3.90 
 -11  -5  -2    6.73    8.06 
 -11  -5   2    6.51    7.88 
 -11   5  -2    1.67    2.39 
  11  -5   2    3.61    4.73 
  11   5  -2   -0.91    5.91 
 -11  -5   2   -5.25    3.64 
 -11   5   2    1.21    2.87 
  11  -5  -2   -0.45    5.09 
   0   6   2 1194.21   38.59 
   0  -6   2 1178.97   34.65 
   0   6  -2 1158.28   38.11 
   0  -6  -2 1141.69   36.54 
   0  -6  -2 1249.41   33.78 
   0   6  -2 1233.66   32.41 
   0  -6   2 1154.58   34.45 
   0  -6  -2 1173.18   35.52 
  -1  -6  -2   -2.47    1.32 
  -1  -6   2    1.75    2.31 
   1   6  -2   -1.99    1.41 
  -1   6  -2    1.52    2.69 
  -1  -6   2    0.06    2.05 
  -1  -6   2   -0.86    1.69 
   1  -6  -2    2.99    3.06 
   1   6   2   -0.11    1.12 
  -1   6   2   -2.79    2.29 
  -1  -6  -2   -1.39    2.53 
   1  -6   2   -1.86    1.74 
   1   6  -2    0.37    2.73 
  -1   6  -2    2.22    2.10 
   1  -6  -2   -1.70    2.65 
  -1  -6  -2    3.12    2.72 
   1  -6   2    1.39    3.01 
   1   6   2    1.49    3.34 
   2   6   2 2627.00   78.99 
   2   6  -2 2658.62   77.61 
   2  -6   2 2743.62   71.76 
   2   6  -2 2787.15   70.31 
   2   6   2 2820.10   68.71 
  -2   6   2 2708.26   76.26 
   2  -6  -2 2825.52   74.47 
  -2   6  -2 2669.13   77.63 
  -2   6   2 2788.87   70.62 
  -2  -6  -2 2898.03   72.60 
   2  -6   2 2784.03   74.79 
  -2   6  -2 2775.48   69.07 
  -2   6  -2 2717.84   69.26 
   2  -6  -2 2831.86   66.22 
  -2  -6  -2 2711.64   75.71 
  -2  -6  -2 2780.07   69.66 
   2  -6  -2 2664.03   77.71 
  -2  -6   2 2854.37   75.85 
  -2  -6   2 2859.50   70.39 
  -2  -6   2 2788.93   73.54 
  -3   6   2    0.10    1.86 
   3  -6  -2   -0.47    3.46 
  -3  -6   2   -0.52    3.05 
  -3   6  -2    1.13    3.38 
  -3   6  -2   -0.32    1.42 
  -3   6  -2   -0.80    1.49 
   3   6   2   -1.17    1.87 
  -3  -6   2    1.26    2.14 
   3  -6   2    2.19    2.78 
  -3  -6   2   -3.77    1.33 
  -3  -6  -2    2.69    3.14 
   3  -6  -2   -1.35    1.74 
   3   6  -2    3.68    3.53 
   3   6  -2   -0.15    2.22 
  -3  -6  -2    2.17    2.19 
   3   6   2    6.02    4.56 
  -3  -6  -2   -1.35    1.91 
  -3   6   2    1.94    2.94 
   3  -6   2   -2.66    2.89 
   3  -6  -2    1.54    3.29 
   4  -6   2  821.34   28.05 
   4   6   2  781.09   27.06 
   4   6   2  861.44   21.80 
   4  -6  -2  810.94   25.72 
   4  -6  -2  821.94   30.46 
  -4  -6  -2  832.17   28.38 
  -4  -6   2  818.78   31.21 
  -4  -6   2  816.67   29.12 
   4  -6   2  793.23   30.60 
   4   6  -2  805.88   28.02 
  -4   6   2  826.60   28.47 
   4  -6   2  783.65   27.47 
  -4  -6   2  834.21   24.86 
   4   6  -2  780.62   29.64 
   4  -6  -2  754.96   30.80 
  -4  -6  -2  785.51   30.35 
  -4   6  -2  813.37   22.65 
  -4   6  -2  791.81   25.55 
  -4   6   2  852.25   24.37 
   4   6   2  754.80   31.22 
  -4   6  -2  823.79   21.98 
   5  -6   2    2.16    3.14 
  -5   6   2    0.83    3.55 
   5  -6  -2    1.43    3.90 
  -5  -6   2    0.91    2.55 
  -5  -6   2    0.74    2.11 
  -5  -6   2    3.79    4.45 
   5   6   2    2.29    3.19 
  -5  -6  -2   -0.86    2.46 
   5  -6   2    1.84    3.42 
   5   6   2   -0.69    3.70 
   5  -6  -2    0.83    3.76 
   5  -6   2    2.08    4.35 
  -5   6   2    1.16    2.13 
  -5   6  -2    2.26    2.71 
   5   6  -2    1.79    3.22 
   5   6  -2   -3.19    3.51 
  -5  -6  -2    2.96    4.01 
   5  -6  -2   -1.74    2.66 
   6  -6   2 1377.59   48.07 
   6   6   2 1369.50   44.22 
  -6   6   2 1403.26   37.27 
   6   6   2 1396.86   49.24 
  -6  -6   2 1369.49   44.39 
   6   6  -2 1403.85   45.70 
   6  -6   2 1365.20   45.05 
   6  -6   2 1416.01   43.38 
  -6  -6  -2 1436.92   44.55 
   6  -6  -2 1415.16   43.22 
  -6  -6  -2 1374.08   48.25 
  -6   6   2 1424.47   36.85 
   6  -6  -2 1325.78   48.17 
  -6  -6   2 1388.54   49.26 
  -6   6   2 1377.31   44.55 
   6   6  -2 1346.78   45.92 
  -7   6   2    2.02    4.26 
   7  -6  -2    1.51    3.74 
   7   6  -2   -1.56    4.11 
   7  -6  -2   -1.65    4.83 
   7  -6   2    0.44    4.08 
   7   6   2    0.27    5.59 
   7  -6   2    2.98    3.59 
   7   6   2    7.74    4.65 
  -7  -6  -2   -2.65    4.61 
   7  -6   2    0.89    3.23 
  -7  -6   2    0.68    3.22 
  -7  -6  -2    2.57    3.30 
   7   6  -2    0.66    4.84 
   7  -6   2   -3.61    3.80 
  -7   6   2   -0.41    1.91 
  -7  -6   2   -2.58    4.75 
  -8   6   2  427.87   22.15 
   8   6  -2  420.76   22.79 
  -8  -6   2  401.28   19.87 
   8   6   2  428.43   25.26 
   8  -6   2  415.18   21.75 
  -8  -6   2  406.35   24.41 
   8  -6   2  429.88   21.11 
  -8  -6  -2  392.30   19.96 
  -8   6   2  426.01   15.23 
   8  -6  -2  456.20   21.76 
  -8  -6  -2  356.26   22.63 
   8   6   2  415.87   21.39 
   8  -6   2  435.74   23.78 
   8  -6   2  421.71   21.23 
   8  -6  -2  412.10   23.93 
   8   6  -2  421.59   22.35 
  -9  -6  -2    3.24    6.88 
  -9  -6   2   -4.75    2.96 
   9  -6  -2    7.97    5.54 
   9  -6   2    6.64    4.59 
  -9  -6   2   -6.38    5.73 
  -9   6   2    1.52    6.03 
  -9   6   2    2.46    2.58 
   9   6   2    1.55    4.59 
   9   6  -2    1.52    5.18 
   9   6   2   -0.66    5.81 
  -9  -6  -2   -3.26    3.48 
   9  -6   2    1.04    5.48 
   9  -6  -2   -4.32    3.76 
  10   6   2  573.75   31.31 
 -10  -6   2  529.48   24.69 
 -10  -6   2  524.58   30.33 
 -10  -6  -2  593.79   30.71 
  10  -6  -2  553.90   27.34 
 -10   6   2  557.50   18.72 
  10   6   2  529.18   27.36 
 -10  -6  -2  581.94   25.40 
  10   6  -2  546.29   28.39 
  11   6   2    0.73    5.30 
 -11  -6  -2    0.42    4.16 
  11   6  -2    8.97    7.15 
 -11  -6  -2   -1.56    7.01 
 -11  -6   2    1.52    4.77 
 -11   6   2   -0.33    2.61 
 -11   6   2    2.34    7.58 
 -11  -6   2   -4.98    6.35 
 -11   6  -2    5.61    6.32 
   0  -7  -2    3.46    2.31 
   0  -7  -2    3.15    3.28 
   0   7  -2    7.19    4.13 
   0  -7   2   13.39    3.94 
   0   7   2    9.37    4.87 
   0  -7  -2   10.10    3.92 
   0   7  -2    4.51    2.31 
   0  -7   2    0.57    2.92 
  -1  -7  -2   14.09    4.12 
   1   7  -2   21.10    3.58 
  -1   7  -2   30.74    3.99 
  -1  -7   2   25.43    5.15 
   1   7  -2   20.40    5.88 
  -1  -7   2   22.47    4.71 
   1  -7  -2   20.51    5.40 
  -1   7   2   27.44    6.13 
   1  -7  -2   15.95    5.66 
  -1  -7   2   27.58    4.85 
  -1   7  -2   21.70    5.86 
  -1  -7  -2   26.41    4.65 
   1  -7   2   15.88    5.10 
  -1  -7  -2   20.07    5.23 
   1   7   2   27.81    6.80 
   1  -7   2   27.59    5.66 
   2  -7   2    0.53    3.22 
  -2  -7  -2    0.23    3.10 
   2  -7   2   -0.91    2.50 
  -2  -7  -2   -0.94    1.84 
   2   7  -2   -0.76    2.24 
  -2   7  -2   -5.57    2.59 
  -2  -7   2   -0.58    1.99 
  -2  -7   2   -3.11    2.53 
   2   7   2   -0.24    3.63 
  -2   7  -2   -0.43    1.71 
  -2   7  -2    3.05    2.28 
  -2   7   2    2.89    3.62 
  -2  -7   2   -1.49    2.10 
  -2   7   2    0.93    1.92 
   2   7   2   -0.34    1.85 
   2  -7  -2   -3.57    2.92 
   2  -7  -2    0.23    2.90 
  -2  -7  -2    2.23    2.42 
   2   7  -2    2.63    3.88 
   3   7  -2   10.05    4.96 
  -3  -7  -2    9.09    3.34 
  -3  -7  -2   12.85    4.08 
   3  -7  -2    7.95    2.36 
  -3   7   2   12.78    3.13 
  -3  -7   2    9.81    3.77 
   3  -7  -2   12.11    5.11 
  -3   7   2   17.36    4.94 
  -3  -7   2   16.60    4.09 
  -3   7  -2   11.32    4.75 
  -3  -7  -2   14.04    5.56 
   3  -7  -2    4.41    4.84 
   3  -7   2    8.53    3.75 
   3  -7   2   15.43    5.22 
  -3   7  -2   10.07    2.97 
   3   7   2   11.99    3.41 
  -3   7  -2   15.35    2.93 
  -3  -7   2   13.16    5.08 
   3   7  -2    9.57    3.60 
   3   7   2   15.39    6.13 
  -4   7  -2    0.86    1.71 
  -4   7  -2    7.40    4.82 
   4   7  -2    7.45    4.67 
  -4   7  -2    4.01    2.81 
  -4   7   2    3.97    2.46 
   4   7   2    6.02    3.77 
   4   7   2   -1.39    3.85 
   4  -7  -2    0.91    2.68 
  -4  -7  -2    4.00    4.27 
  -4  -7   2    0.47    3.13 
   4  -7   2   11.53    4.20 
   4  -7   2   -0.32    3.05 
   4  -7  -2   11.98    5.25 
  -4   7   2    1.75    3.15 
   4   7  -2    0.48    2.92 
  -4  -7  -2   -2.09    3.11 
  -4  -7   2    4.60    2.88 
  -4  -7   2    6.25    4.67 
   4  -7  -2   11.79    5.30 
   5   7  -2   15.81    5.16 
  -5   7   2   10.31    3.05 
  -5   7   2   13.68    5.35 
  -5  -7  -2   11.59    6.10 
  -5   7  -2   12.38    4.17 
  -5   7  -2   17.72    6.49 
   5   7  -2    8.69    5.11 
   5  -7   2   21.19    6.09 
   5   7   2   14.10    4.86 
   5  -7   2    7.60    4.49 
   5   7   2   15.71    6.20 
  -5  -7  -2    6.44    3.97 
   5  -7  -2    9.94    3.85 
  -5  -7   2   13.99    4.72 
   5  -7  -2   10.92    6.23 
  -5  -7   2   15.88    6.23 
  -5   7  -2   14.65    2.42 
   5  -7  -2   15.29    5.70 
   6  -7  -2    2.01    3.70 
   6  -7  -2   -7.47    3.07 
   6   7  -2   -6.08    3.11 
  -6  -7   2    3.34    3.42 
   6  -7   2    1.49    4.16 
  -6   7   2    1.17    3.95 
  -6   7  -2    1.15    3.47 
   6   7  -2    0.73    4.05 
   6  -7   2    1.56    4.07 
  -6  -7   2    0.95    4.83 
  -6  -7  -2   -0.83    4.32 
   6   7   2   -2.22    4.39 
  -6   7  -2   -1.13    1.22 
   6  -7  -2   -3.76    3.94 
   6   7   2   -0.21    3.50 
  -6  -7  -2    0.06    2.86 
   6  -7   2   -2.88    3.01 
  -7   7  -2    2.87    4.62 
  -7   7   2    3.61    5.26 
   7  -7   2   20.16    6.31 
   7  -7   2    6.45    4.73 
   7   7  -2    2.50    4.71 
   7  -7  -2    9.96    4.87 
   7  -7   2   19.64    6.74 
  -7  -7   2   14.74    7.10 
   7   7   2   14.93    5.77 
   7   7  -2   11.12    5.27 
  -7  -7   2    8.31    4.40 
   7   7   2    5.79    5.73 
  -7  -7  -2    7.09    6.29 
   7  -7  -2    9.10    6.58 
  -7   7   2   10.26    3.04 
  -7  -7  -2    7.61    4.24 
   8  -7  -2    9.24    6.23 
  -8  -7  -2    3.51    6.49 
   8   7  -2    2.06    4.90 
  -8  -7  -2    3.74    4.34 
   8  -7  -2    2.37    4.12 
  -8  -7   2    3.42    4.31 
   8  -7   2    5.01    4.63 
   8   7   2    3.33    4.58 
  -8   7   2    1.63    2.82 
   8   7  -2   10.69    6.37 
  -8   7  -2   -4.50    4.39 
   8   7   2    4.97    5.44 
   8  -7   2    4.49    6.45 
  -8  -7   2   -1.73    4.68 
  -8   7   2    4.70    6.05 
   8  -7   2    4.59    5.00 
   9   7   2    8.76    7.17 
  -9   7  -2   -2.17    5.19 
   9   7   2   10.74    5.99 
  -9  -7   2    4.35    7.37 
   9  -7   2    7.64    4.88 
  -9  -7  -2    2.48    6.68 
  -9   7   2    2.83    2.96 
   9  -7  -2    6.58    6.03 
   9  -7   2   -3.54    4.92 
  -9  -7  -2   -0.99    3.36 
   9   7  -2    7.13    5.91 
  -9   7   2    3.04    6.48 
  -9  -7   2    6.71    4.37 
 -10  -7   2   -2.69    7.00 
  10   7   2    1.19    4.98 
 -10  -7   2   -1.73    3.75 
 -10  -7  -2   -0.55    6.68 
  10   7  -2    5.18    5.95 
  10  -7  -2    7.31    7.56 
 -10  -7  -2    0.79    4.08 
 -10   7   2    2.27    2.69 
  10   7   2    5.31    6.54 
 -11  -7   2   15.74    9.13 
 -11   7   2    5.27    2.84 
  11   7   2    6.94    5.66 
  11   7  -2    3.65    6.20 
 -11  -7  -2   -1.48    6.16 
 -11  -7  -2    0.70    4.11 
 -11   7   2   -0.46    8.08 
 -11  -7   2    9.76    5.59 
   0   8  -2 1721.79   44.72 
   0   8   2 1717.20   54.96 
   0  -8  -2 1739.18   50.82 
   0   8  -2 1743.18   55.16 
   0  -8   2 1785.33   50.03 
   0  -8   2 1768.84   50.71 
   0  -8  -2 1700.86   52.71 
  -1  -8  -2    2.22    3.33 
  -1  -8   2    4.51    3.03 
  -1   8  -2    3.53    3.75 
   1   8  -2    2.85    2.35 
   1   8  -2    0.33    3.64 
  -1  -8   2   -1.13    2.44 
  -1  -8  -2    2.38    3.26 
   1  -8   2   14.22    4.41 
  -1   8   2    6.87    4.42 
  -1  -8  -2   -0.86    1.85 
  -1   8  -2    4.76    2.37 
   1   8   2    1.03    3.99 
   1  -8  -2    0.15    3.53 
   1  -8   2   -1.18    3.06 
   1  -8  -2    7.76    4.05 
  -1  -8  -2    1.67    1.48 
  -1  -8   2   -2.27    2.54 
  -2  -8  -2  589.91   22.09 
  -2  -8   2  561.21   21.04 
   2  -8  -2  627.94   25.21 
  -2  -8   2  577.83   22.99 
  -2   8  -2  592.84   25.43 
  -2   8   2  575.30   23.97 
  -2  -8  -2  582.66   23.99 
   2   8   2  594.42   18.34 
   2  -8  -2  556.22   25.27 
  -2  -8  -2  603.08   21.44 
   2   8  -2  592.26   26.05 
   2  -8   2  578.50   23.57 
  -2  -8   2  590.09   23.43 
   2  -8   2  580.38   22.80 
   2   8   2  586.96   26.50 
   2   8  -2  569.59   19.80 
  -2   8  -2  608.44   19.32 
  -3  -8  -2    1.50    2.98 
   3  -8   2    0.42    3.27 
   3  -8  -2    6.43    4.23 
  -3   8  -2    5.58    2.61 
  -3  -8  -2    2.00    3.08 
  -3  -8   2   -2.20    2.41 
   3  -8   2    7.14    3.98 
  -3   8   2    3.00    4.31 
  -3   8  -2    5.19    4.31 
  -3  -8   2    1.62    3.68 
  -3  -8   2   -2.17    2.20 
   3   8  -2    0.86    2.80 
   3   8   2    8.16    5.37 
   3  -8  -2    1.11    4.06 
   3   8   2   -5.73    2.33 
  -3  -8  -2    4.24    3.86 
   3   8  -2    2.15    3.96 
  -4   8   2 1289.05   43.11 
   4  -8  -2 1258.42   44.70 
   4  -8   2 1313.41   42.44 
  -4  -8   2 1296.62   45.01 
   4  -8  -2 1331.22   44.72 
   4   8   2 1317.83   39.08 
   4   8  -2 1260.28   44.68 
   4   8  -2 1312.87   40.36 
   4   8   2 1239.70   46.44 
   4  -8   2 1299.70   41.59 
  -4   8  -2 1317.96   37.33 
  -4  -8  -2 1298.79   44.83 
  -4  -8   2 1360.92   37.58 
  -4  -8  -2 1321.52   42.41 
  -4  -8   2 1351.01   42.89 
  -4   8  -2 1268.56   44.95 
   5  -8  -2    2.37    4.31 
  -5   8   2   -0.03    3.45 
  -5   8  -2    2.17    4.92 
  -5   8  -2   -0.53    2.47 
   5   8   2    3.59    4.72 
  -5  -8  -2   -0.50    4.18 
   5  -8   2    7.31    4.85 
   5  -8   2    3.81    3.98 
  -5  -8  -2    1.08    3.33 
   5   8   2   -5.59    2.90 
   5   8  -2   -1.87    3.20 
   5   8  -2   -0.11    4.16 
  -5  -8   2   -2.05    3.08 
   5  -8  -2   11.92    5.41 
  -5  -8   2    3.02    4.70 
  -6  -8  -2  399.37   22.67 
   6  -8  -2  408.27   21.95 
   6   8   2  387.21   19.35 
   6  -8  -2  407.72   22.46 
   6   8  -2  406.43   20.34 
   6  -8   2  392.25   19.95 
  -6   8  -2  448.00   18.86 
  -6  -8  -2  421.90   20.98 
  -6  -8   2  418.96   23.10 
  -6   8   2  433.91   20.93 
  -6   8  -2  405.01   22.35 
  -6  -8   2  433.71   21.10 
   6  -8   2  401.81   20.20 
   6   8   2  414.96   23.05 
   6   8  -2  415.25   21.22 
  -7   8   2   -0.98    2.54 
  -7   8   2    5.49    5.89 
   7   8  -2    2.15    4.18 
   7   8   2   10.06    5.77 
  -7  -8   2    1.40    5.09 
  -7  -8   2   -1.72    3.70 
   7  -8   2   -0.58    4.18 
  -7  -8  -2    0.28    3.72 
   7   8  -2    1.30    4.31 
  -7  -8  -2    4.25    5.70 
   7   8   2    0.24    3.86 
  -7   8  -2    2.53    5.83 
   7  -8   2    3.57    4.68 
   7  -8  -2    7.21    5.91 
   8   8   2  686.34   33.57 
  -8  -8  -2  707.79   30.03 
   8  -8   2  728.97   30.74 
  -8  -8   2  714.83   30.13 
   8   8  -2  737.43   31.75 
  -8   8   2  743.86   32.39 
  -8   8   2  734.06   22.59 
  -8  -8  -2  634.83   32.57 
   8   8   2  709.11   30.24 
  -8  -8   2  674.00   33.80 
  -8   8  -2  705.52   32.62 
   8  -8  -2  696.96   33.18 
   8   8  -2  692.67   30.64 
   9   8  -2    1.62    5.43 
  -9   8  -2   -2.90    6.22 
   9  -8  -2    8.62    6.10 
   9  -8   2    3.47    4.77 
  -9  -8   2    6.72    6.75 
  -9  -8  -2    8.69    4.67 
  -9  -8  -2    1.66    6.50 
  -9   8   2    1.44    3.14 
   9   8   2    4.36    5.18 
   9   8   2    6.34    6.78 
  -9  -8   2    5.72    3.70 
  -9   8   2   -0.99    5.69 
 -10  -8  -2  232.02   15.58 
 -10   8   2  215.74   10.18 
 -10  -8   2  228.12   19.98 
 -10  -8   2  223.79   16.08 
  10   8   2  209.86   16.32 
 -10  -8  -2  242.30   23.09 
  10   8   2  234.01   19.56 
  10  -8  -2  216.02   18.64 
  10   8  -2  237.79   18.08 
   0   9   2   -1.04    3.56 
   0   9  -2   -2.27    3.36 
   0  -9  -2    0.98    3.60 
   0   9  -2    0.46    1.89 
   0  -9   2    3.33    3.09 
   0  -9  -2    5.94    4.64 
   0  -9   2    3.26    3.74 
   1  -9   2   51.85    8.50 
   1  -9  -2   55.00    9.50 
   1  -9  -2   42.82    7.98 
   1   9  -2   56.35    5.16 
  -1  -9  -2   48.77    8.31 
  -1  -9   2   47.48    7.63 
  -1   9  -2   56.64    9.54 
  -1  -9   2   47.97    7.42 
   1   9  -2   47.48    9.49 
  -1  -9  -2   53.03    7.83 
   1   9   2   53.65    9.56 
   1  -9   2   53.43    7.95 
  -1   9   2   44.18    8.35 
   2   9   2    3.95    5.48 
   2   9  -2   14.42    3.71 
  -2  -9  -2    7.68    3.76 
  -2  -9  -2   21.39    6.41 
   2  -9   2   13.48    4.92 
  -2  -9   2   25.84    6.11 
  -2   9  -2   13.61    5.36 
   2  -9  -2   -0.61    4.34 
  -2  -9   2    8.92    3.82 
  -2   9   2    8.46    5.02 
   2   9  -2   12.57    6.26 
   2  -9  -2   14.43    5.91 
  -2  -9  -2    9.81    4.72 
  -2  -9   2   11.50    4.62 
   2  -9   2   25.35    6.21 
   3   9   2   30.93    4.92 
   3  -9   2   31.76    7.08 
  -3   9  -2   25.99    7.76 
   3   9   2   26.07    8.69 
   3  -9  -2   34.07    8.10 
   3   9  -2   34.07    8.54 
  -3  -9   2   29.55    5.66 
  -3  -9   2   35.64    8.08 
  -3  -9  -2   30.05    5.68 
  -3  -9  -2   28.90    7.38 
  -3   9   2   39.25    8.11 
   3  -9  -2   17.00    7.13 
  -3  -9  -2   20.61    5.37 
  -3  -9   2   17.78    5.03 
   3  -9   2   37.79    8.43 
   3   9  -2   20.53    4.89 
   4   9   2    4.67    3.54 
  -4  -9  -2    4.42    4.47 
  -4   9   2    3.46    4.57 
   4   9   2   -2.24    4.25 
   4  -9   2   -2.67    2.49 
   4  -9  -2   -0.02    3.73 
   4   9  -2   -4.20    3.72 
  -4  -9   2   -5.72    2.50 
   4  -9  -2    6.41    5.14 
   4  -9   2   -2.11    4.22 
  -4  -9  -2   -1.23    2.62 
  -4  -9   2    3.96    3.70 
  -4  -9   2   -2.20    3.60 
   4   9  -2    1.94    3.22 
  -4   9  -2   -2.06    4.48 
   5  -9  -2   27.02    7.85 
   5   9  -2   39.55    8.99 
   5  -9   2   40.62    8.86 
  -5   9   2   52.51    9.36 
   5   9  -2   49.42    8.32 
  -5  -9   2   37.58    7.55 
  -5  -9  -2   34.71    9.14 
  -5   9  -2   36.51    9.02 
   5   9   2   25.57    8.26 
   5   9   2   21.52    5.58 
   5  -9  -2   42.98    9.88 
  -5  -9   2   27.91    7.92 
  -5  -9  -2   25.81    6.60 
   5  -9   2   45.60    8.64 
   6   9   2    6.79    4.99 
  -6  -9   2    6.25    5.74 
  -6  -9  -2    2.48    5.48 
  -6   9  -2    6.53    6.62 
   6  -9  -2    2.63    4.90 
  -6  -9   2    8.35    4.69 
   6  -9   2   12.49    6.25 
   6   9  -2    3.80    4.42 
   6  -9  -2   -0.17    4.23 
  -6  -9  -2    3.57    3.85 
   6  -9   2    4.57    4.58 
  -6   9   2   -4.24    4.30 
   6   9   2    8.02    6.19 
   6   9  -2    8.83    5.49 
   7   9   2   16.63    7.34 
  -7  -9  -2   13.00    7.69 
   7   9   2   19.89    6.75 
   7   9  -2   10.47    5.74 
  -7   9  -2   13.23    7.74 
  -7  -9   2    9.55    5.23 
   7  -9  -2   17.76    7.71 
   7   9  -2   19.03    7.43 
   7  -9   2    1.11    4.74 
  -7  -9   2   22.89    8.69 
  -7  -9  -2    8.25    5.41 
  -8  -9  -2    1.32    5.86 
  -8  -9  -2    3.19    3.93 
   8   9  -2    3.92    5.83 
   8  -9   2   -8.51    4.18 
  -8  -9   2    5.65    6.55 
  -8   9   2   -2.29    5.17 
   8  -9  -2   -0.55    5.05 
  -8   9  -2    8.97    7.83 
  -8  -9   2    3.68    4.62 
   8   9   2   -2.02    4.58 
   8   9  -2   -6.31    4.28 
  -8   9   2   -2.67    2.42 
   8   9   2    1.86    5.74 
   9   9  -2   13.93    7.07 
   9  -9  -2    4.72    6.12 
   9   9   2   10.15    5.96 
  -9  -9  -2    5.49    4.92 
   9  -9   2   12.95    6.54 
  -9  -9   2    3.38    4.56 
  -9   9   2   19.29    8.42 
  -9  -9  -2   15.35    8.25 
  -9  -9   2   18.20    9.34 
   9   9   2    8.89    7.62 
  -9   9   2   12.77    4.04 
  -9   9  -2    8.86    8.14 
 -10  -9  -2    5.24    4.85 
 -10  -9   2   -2.19    6.68 
 -10  -9  -2   -1.72    6.38 
 -10   9   2    6.17    6.13 
 -10  -9   2   -1.99    4.72 
  10   9   2   11.26    6.52 
  10   9   2    6.71    7.09 
 -10   9   2   -2.57    2.65 
  10  -9  -2   13.39    8.49 
  10   9  -2   -2.71    5.83 
   0 -10  -2  536.38   24.09 
   0  10   2  561.13   25.80 
   0 -10  -2  513.56   23.37 
   0 -10   2  527.09   22.40 
   0  10  -2  526.72   25.45 
   0 -10   2  558.22   22.77 
  -1 -10  -2    0.15    3.63 
  -1 -10   2   -2.76    2.97 
  -1  10   2    7.05    5.49 
   1 -10  -2    1.17    4.14 
   1 -10   2   -1.08    4.14 
   1  10   2    3.61    5.06 
   1 -10   2    0.79    3.99 
   1  10  -2   -0.67    4.21 
  -1 -10   2   -1.89    3.61 
   1 -10  -2   -1.34    3.98 
  -1 -10  -2   -1.32    3.42 
  -1  10  -2   -2.64    3.96 
  -2 -10  -2  857.22   30.04 
  -2  10  -2  869.03   35.04 
   2 -10  -2  869.37   35.17 
   2  10  -2  902.90   36.20 
  -2 -10   2  841.69   29.62 
  -2  10   2  861.36   34.19 
   2 -10  -2  842.18   33.53 
  -2 -10   2  913.88   32.89 
  -2 -10  -2  880.90   33.75 
   2  10   2  881.75   36.68 
   2 -10   2  778.90   31.05 
   2 -10   2  861.13   32.67 
  -3 -10   2   -2.58    3.00 
  -3 -10  -2   -0.88    3.72 
   3  10  -2    5.80    3.56 
   3 -10  -2    1.65    4.52 
   3 -10  -2    4.27    5.04 
   3  10   2   12.29    6.41 
   3 -10   2    3.87    4.69 
   3  10  -2    2.25    4.32 
   3 -10   2   -2.73    4.13 
  -3  10   2    1.78    4.55 
  -3  10  -2    0.32    4.49 
  -3 -10  -2    2.31    3.46 
  -3 -10   2   -1.01    3.99 
   4  10  -2  424.39   23.49 
   4 -10   2  429.62   21.32 
  -4 -10   2  450.52   22.69 
  -4  10  -2  467.96   24.01 
  -4 -10  -2  443.10   23.13 
  -4  10   2  439.79   22.59 
   4 -10   2  425.61   20.89 
  -4 -10  -2  424.29   21.16 
   4 -10  -2  403.59   22.77 
   4  10  -2  433.54   18.99 
   4 -10  -2  447.19   22.82 
   4  10   2  433.93   24.46 
   5 -10   2    7.11    4.83 
  -5 -10  -2    3.98    5.08 
  -5 -10  -2    5.24    4.24 
   5 -10   2   -1.07    4.52 
   5  10  -2    1.16    5.20 
   5 -10  -2    4.76    5.31 
   5  10   2   -2.90    3.50 
   5  10  -2    1.92    3.62 
   5 -10  -2    7.09    6.08 
  -5 -10   2    6.64    5.35 
  -5 -10   2    5.64    4.45 
   5  10   2    3.64    5.78 
  -5  10  -2   -0.20    4.96 
  -5  10   2   -8.65    4.49 
   6  10  -2  532.33   26.57 
  -6  10  -2  498.57   26.53 
  -6 -10   2  539.47   25.82 
   6  10   2  508.34   22.92 
   6  10  -2  507.71   23.26 
   6 -10  -2  491.62   25.96 
  -6 -10  -2  494.00   26.81 
  -6 -10  -2  533.95   25.76 
  -6  10   2  545.41   25.72 
   6 -10  -2  578.02   27.94 
   6  10   2  530.56   28.21 
   6 -10   2  521.09   25.49 
  -6 -10   2  518.80   27.22 
   6 -10   2  540.00   24.75 
   7  10  -2  -11.06    3.73 
  -7 -10   2    1.40    5.42 
  -7  10  -2    5.61    6.27 
   7 -10  -2    7.22    6.75 
  -7 -10  -2    6.50    4.85 
   7 -10   2    3.89    4.96 
  -7 -10   2    1.72    4.10 
  -7 -10  -2    3.42    5.83 
   7  10  -2    2.67    4.86 
   7  10   2   -0.73    4.06 
   7  10   2   11.69    6.68 
  -8 -10   2  235.22   19.40 
  -8  10  -2  268.00   19.61 
  -8  10   2  258.32   18.99 
   8  10   2  246.53   16.73 
  -8  10   2  236.35   12.10 
  -8 -10  -2  250.75   19.54 
  -8 -10  -2  257.13   17.66 
  -8 -10   2  272.65   18.14 
   8  10  -2  294.92   19.35 
   8 -10   2  265.22   18.29 
   8  10   2  277.00   20.20 
   8 -10  -2  238.47   19.00 
   8  10  -2  258.35   17.35 
   9 -10  -2   -4.43    4.71 
   9 -10   2    3.07    5.29 
  -9  10   2    1.58    6.28 
  -9 -10   2   12.46    7.26 
  -9  10   2   -0.91    3.06 
   9  10   2    1.78    5.41 
   9  10   2    3.69    6.73 
  -9 -10  -2   -3.79    4.87 
  -9 -10   2   -4.18    4.39 
  -9 -10  -2   -1.21    3.97 
   9  10  -2    2.99    5.55 
 -10 -10  -2  248.96   17.96 
  10  10  -2  255.46   18.43 
  10  10   2  284.14   22.09 
 -10 -10   2  253.43   20.93 
 -10 -10   2  253.55   17.97 
 -10  10   2  251.76   11.85 
 -10 -10  -2  244.77   20.37 
  10 -10  -2  228.66   19.59 
  10  10   2  259.38   18.10 
 -10  10   2  263.07   20.61 
   0  11   2    1.04    4.64 
   0 -11   2   -1.80    4.10 
   0 -11  -2    0.57    4.48 
   0  11  -2    6.48    5.71 
   0 -11  -2   -0.12    4.76 
   0 -11   2    5.69    4.88 
  -1 -11   2    3.83    4.24 
   1  11   2   12.80    7.01 
  -1 -11  -2   19.64    6.22 
  -1  11   2   11.02    6.46 
  -1 -11   2    2.14    4.32 
   1 -11  -2    5.25    5.46 
   1  11  -2    9.30    5.81 
   1 -11   2   14.87    6.99 
  -1  11  -2   11.53    6.99 
   1 -11  -2    2.02    5.33 
  -1 -11  -2    5.18    4.52 
   1 -11   2   13.08    5.72 
   2 -11  -2   12.63    6.99 
   2  11  -2    0.24    4.61 
  -2 -11   2    0.36    4.28 
  -2 -11  -2    6.68    4.63 
  -2 -11  -2   -1.46    3.78 
  -2  11  -2    3.25    5.35 
   2 -11   2   -0.63    4.44 
   2  11   2    4.46    5.97 
   2 -11   2    3.58    5.86 
  -2 -11   2    3.27    4.33 
  -2  11   2   -1.50    4.40 
   2 -11  -2    4.31    4.77 
   3 -11   2    4.28    4.44 
  -3 -11  -2    9.48    5.99 
   3 -11  -2   13.40    6.35 
  -3 -11   2   14.52    5.09 
   3  11   2   11.29    6.69 
   3 -11   2    9.37    6.16 
  -3  11   2    6.34    5.59 
  -3 -11   2    5.10    5.09 
  -3  11  -2   11.32    6.84 
   3 -11  -2   16.82    7.38 
   3  11  -2    3.77    5.97 
  -4 -11  -2    2.51    4.67 
  -4  11  -2    3.99    5.68 
   4 -11  -2   -5.56    4.94 
   4  11   2    8.54    6.61 
   4 -11   2    3.67    4.86 
   4 -11   2    5.05    5.54 
   4 -11  -2   11.79    5.81 
   4  11  -2    4.12    5.31 
  -4  11   2    2.02    5.28 
  -4 -11   2    4.25    4.90 
  -5  11  -2    7.01    6.17 
   5 -11   2   11.20    5.86 
   5  11   2   -0.68    5.60 
  -5 -11  -2    3.27    5.54 
   5  11  -2    6.52    6.64 
  -5 -11   2    8.65    6.44 
   5 -11  -2    9.42    6.28 
  -5  11   2   -0.94    5.74 
   5 -11  -2   -1.99    5.47 
   5 -11   2   -2.24    3.93 
  -6  11  -2   -3.32    5.64 
  -6 -11   2    5.99    5.67 
   6  11  -2  -10.27    4.73 
  -6 -11  -2    3.04    6.31 
   6 -11   2    1.61    4.83 
   6 -11  -2   -1.66    4.60 
   6  11   2   14.53    7.17 
   6 -11  -2    0.64    5.94 
  -6  11   2    2.41    6.01 
   6  11  -2   -1.63    4.03 
  -7  11  -2   -2.45    6.19 
  -7 -11   2   -2.22    5.77 
   7 -11  -2    4.17    6.81 
   7 -11   2    5.04    5.37 
   7  11  -2    2.06    4.73 
   7  11   2   11.73    7.19 
  -7 -11  -2    1.51    6.52 
   7  11  -2    3.35    5.64 
  -8  11  -2   -2.16    6.33 
  -8  11   2    2.87    3.56 
   8  11   2   -2.53    5.21 
   8 -11   2    3.16    4.90 
  -8 -11   2   -0.52    5.96 
  -8  11   2   -0.71    5.50 
   8 -11  -2    7.62    6.88 
   8  11  -2   11.29    6.58 
  -8 -11  -2    0.93    6.03 
   8  11  -2    3.68    5.81 
   9 -11  -2    7.73    7.18 
   9 -11   2    3.49    7.25 
   9  11  -2   -0.37    5.95 
  -9 -11   2    4.81    7.18 
   9  11   2    4.20    7.59 
  -9 -11  -2    3.57    7.02 
  -9  11   2   25.38    9.49 
  -9  11   2    9.63    3.72 
   0 -12  -2  598.80   28.38 
   0 -12   2  635.71   27.15 
   0  12  -2  606.51   29.59 
   0  12   2  625.38   29.66 
   0 -12  -2  589.44   27.32 
   0 -12   2  619.74   26.50 
   1  12  -2    5.74    5.95 
  -1 -12  -2    1.19    3.94 
   1 -12   2   -1.31    4.84 
   1 -12  -2    8.23    6.00 
   1  12   2    6.55    6.64 
  -1 -12   2    4.22    4.12 
  -1 -12   2   -0.65    4.41 
  -1  12   2    2.50    5.52 
  -1  12  -2    7.87    6.84 
   1 -12   2   -1.85    4.47 
  -1 -12  -2    2.94    4.69 
   1 -12  -2   -2.47    4.96 
  -2  12   2  308.33   19.87 
  -2 -12   2  341.98   18.26 
   2  12   2  392.11   23.74 
   2  12  -2  341.94   21.47 
   2 -12   2  334.52   19.23 
  -2 -12  -2  328.07   17.95 
  -2  12  -2  326.26   21.25 
   2 -12  -2  312.98   20.12 
  -2 -12   2  325.81   18.93 
  -2 -12  -2  316.23   19.42 
   2 -12   2  300.98   18.79 
   2 -12  -2  344.44   21.17 
  -3 -12  -2    0.76    4.80 
   3  12   2    5.50    6.72 
   3 -12   2    0.12    4.57 
  -3 -12   2   -2.41    4.35 
  -3  12  -2    8.02    6.64 
   3 -12  -2    8.18    5.80 
   3  12  -2    0.51    5.57 
  -3  12   2   -3.95    5.52 
   3 -12  -2    5.33    5.63 
   3 -12   2    0.59    4.52 
  -3 -12   2    1.70    4.45 
  -4 -12  -2  525.96   27.30 
  -4  12  -2  532.96   28.01 
   4 -12   2  588.15   25.22 
   4  12  -2  521.86   28.57 
   4 -12  -2  539.94   26.85 
   4 -12   2  536.27   26.71 
  -4  12   2  531.59   27.04 
  -4 -12   2  598.20   28.11 
   4  12   2  490.26   28.81 
   4 -12  -2  519.85   27.99 
  -5  12  -2    1.39    5.95 
   5  12  -2    7.40    6.56 
   5 -12   2    5.72    4.85 
   5 -12  -2   -1.35    4.94 
  -5 -12  -2    2.07    5.69 
  -5 -12   2    0.68    5.23 
   5 -12  -2    3.07    5.79 
  -5  12   2    7.04    6.73 
   5  12   2   11.28    6.99 
   6 -12  -2  242.38   17.88 
  -6  12   2  239.51   17.91 
   6 -12  -2  212.31   17.54 
  -6 -12  -2  240.09   18.67 
  -6  12  -2  209.19   17.63 
  -6 -12   2  237.33   18.61 
   6  12  -2  257.67   18.90 
   6 -12   2  229.24   17.65 
   6  12   2  220.41   18.83 
  -7  12  -2   -7.22    5.95 
   7  12  -2    9.66    7.26 
  -7 -12   2   -3.91    5.52 
   7 -12  -2   15.87    7.81 
   7  12   2   -9.36    5.46 
   7 -12   2    6.34    5.75 
  -7 -12  -2    8.86    6.61 
   8  12  -2  360.53   22.66 
   8 -12   2  298.82   21.16 
  -8  12   2  309.81   15.43 
   8 -12  -2  322.35   21.51 
  -8  12   2  333.79   22.37 
  -8 -12  -2  294.53   22.03 
   8  12   2  311.98   22.81 
  -8 -12   2  269.31   21.43 
  -8  12  -2  284.16   21.75 
  -9 -12   2    8.82    7.77 
   9 -12  -2    0.67    7.18 
  -9 -12  -2   -0.97    5.36 
   9  12   2    3.73    7.37 
  -9  12   2    0.01    3.30 
   0 -13   2    2.12    4.91 
   0  13   2    1.23    6.02 
   0 -13  -2   -2.51    4.19 
   0 -13   2    4.81    5.33 
   0 -13  -2   -2.04    4.89 
   0  13  -2    6.22    6.88 
  -1 -13   2   78.11   11.49 
   1  13  -2   50.12   11.45 
  -1  13  -2   56.93   12.20 
  -1 -13  -2   43.18    9.69 
   1 -13  -2   66.79   12.25 
   1 -13   2   30.12    8.57 
   1 -13   2   63.39   11.12 
  -1 -13  -2   72.66   12.27 
   1  13   2   50.65   12.16 
  -1  13   2   39.28   10.36 
  -1 -13   2   49.82    9.72 
   1 -13  -2   36.45    9.65 
   2 -13  -2   22.09    7.94 
   2  13  -2   -1.09    5.37 
   2 -13   2   -0.74    5.34 
   2 -13  -2    1.40    6.00 
  -2  13  -2   -1.25    5.28 
  -2  13   2    4.70    6.55 
  -2 -13   2   -1.33    4.57 
  -2 -13  -2    7.87    6.50 
  -2 -13   2    3.53    5.62 
  -2 -13  -2    4.42    5.38 
   2 -13   2   14.94    6.54 
   2  13   2    6.49    7.58 
  -3 -13   2   35.09    9.53 
   3 -13  -2   54.49   12.00 
   3 -13   2   52.22   10.47 
   3  13   2   51.64   12.74 
  -3 -13  -2   44.17   10.53 
  -3  13  -2   34.20   10.06 
   3 -13   2   38.36    9.79 
   3  13  -2   40.20   10.74 
  -3  13   2   53.13   11.60 
   3 -13  -2   22.92    8.97 
  -4 -13   2    8.68    5.76 
   4  13  -2   -0.42    6.35 
  -4 -13  -2    4.40    5.43 
  -4  13   2    1.76    6.34 
   4 -13   2   -5.01    4.72 
  -4  13  -2    4.99    6.19 
   4 -13  -2    2.94    5.75 
   4 -13  -2    5.30    6.11 
   4  13   2   10.78    7.74 
  -5 -13  -2   27.52    9.32 
  -5 -13   2   30.53   10.39 
  -5  13   2   41.74   11.06 
   5  13   2   41.54   11.99 
   5  13  -2   49.79   12.70 
   5 -13   2   32.22    8.97 
   5 -13  -2   39.04   10.80 
  -5  13  -2   38.18   11.19 
   5 -13  -2   40.03   11.32 
   6  13   2   13.06    7.79 
   6  13  -2   -5.71    5.62 
  -6  13  -2    2.87    6.66 
   6 -13   2   11.59    6.43 
  -6  13   2    7.52    6.61 
  -6 -13   2    0.97    5.83 
  -6 -13  -2    0.88    6.01 
   6 -13  -2    9.40    6.44 
   6 -13  -2    7.31    6.65 
   7  13   2   29.20   10.89 
  -7 -13   2   32.75   10.61 
   7 -13  -2   42.52   11.26 
   7 -13   2   23.95    9.28 
  -7  13  -2   16.89    8.30 
   7  13  -2   21.79    8.65 
  -7 -13  -2   13.43    8.04 
  -8  13  -2  -11.66    6.62 
   8  13  -2   16.71    8.59 
   8 -13   2   -0.74    6.57 
  -8 -13  -2   -0.42    6.57 
   8  13   2   14.48    9.22 
  -8 -13   2   10.37    7.91 
  -8  13   2    3.14    4.02 
   8 -13  -2   10.07    7.99 
  -8  13   2    0.03    6.52 
   0 -14   2  193.97   15.27 
   0 -14   2  187.25   17.39 
   0  14   2  184.53   19.27 
   0 -14  -2  173.34   17.52 
   0  14  -2  213.09   20.81 
   0 -14  -2  181.48   15.80 
  -1  14   2   -3.97    5.22 
   1 -14   2    8.71    6.13 
  -1 -14  -2   -1.59    5.73 
  -1 -14   2    2.24    5.29 
   1  14  -2    5.69    5.51 
  -1 -14  -2    1.77    5.52 
  -1 -14   2   -5.37    4.79 
  -1  14  -2    4.66    7.04 
   1 -14  -2   -0.80    5.67 
   1  14   2    1.97    6.98 
   1 -14  -2   -2.79    5.17 
   1 -14   2    2.49    5.42 
  -2 -14  -2  341.35   21.77 
  -2 -14   2  347.97   19.90 
  -2  14   2  307.14   21.76 
   2 -14  -2  327.44   22.24 
   2  14  -2  337.80   22.51 
   2 -14  -2  335.97   21.85 
   2 -14   2  358.67   20.59 
  -2 -14   2  357.99   21.27 
   2  14   2  375.90   24.80 
   2 -14   2  327.56   21.47 
  -2  14  -2  339.84   22.79 
   3 -14  -2    2.84    5.86 
   3  14   2   -8.42    6.00 
  -3  14   2   -6.40    5.62 
   3 -14   2   -4.13    5.22 
   3 -14  -2    0.75    5.01 
   3  14  -2   -4.30    6.23 
  -3 -14   2   -7.31    4.19 
  -3 -14  -2   -7.24    4.93 
  -3  14  -2    8.60    6.96 
   4 -14   2  106.43   15.62 
  -4  14   2  155.46   18.61 
   4  14  -2  195.41   21.33 
   4 -14  -2  161.94   19.22 
  -4  14  -2  174.83   20.01 
  -4 -14  -2  172.02   18.78 
   4  14   2  198.44   22.71 
  -4 -14   2  189.23   18.69 
   4 -14  -2  188.85   18.64 
   5 -14  -2   -1.80    6.32 
  -5 -14  -2   -0.76    5.25 
  -5 -14   2   -6.95    4.50 
   5 -14  -2   -0.87    5.71 
  -5  14  -2    1.46    6.86 
  -5  14   2    4.92    7.65 
   5 -14   2    9.96    6.50 
   5  14  -2    6.18    7.35 
   5  14   2   -3.61    6.77 
   6 -14  -2  242.97   22.83 
  -6 -14   2  218.03   18.94 
   6 -14   2  213.31   21.27 
  -6  14  -2  212.43   22.09 
   6  14  -2  254.11   20.45 
   6  14   2  258.41   21.42 
   6 -14  -2  228.42   17.30 
  -6 -14  -2  209.31   18.63 
  -7 -14  -2    8.59    7.74 
   7  14  -2    5.55    8.37 
   7  14   2   11.41    9.48 
   7 -14   2    3.91    6.84 
   7 -14  -2   -2.56    6.16 
  -7 -14   2    8.40    8.33 
  -7  14  -2   -6.28    7.16 
   0 -15   2    7.22    5.48 
   0 -15   2    0.64    5.61 
   0  15   2   -5.77    5.52 
   0  15  -2   -0.09    6.75 
   0 -15  -2   -4.75    5.36 
   0 -15  -2    7.21    6.79 
   1  15   2    3.89    6.96 
  -1  15  -2    3.92    7.88 
  -1 -15   2    5.97    6.45 
  -1 -15  -2    0.31    5.77 
  -1 -15  -2    1.18    6.45 
   1 -15  -2   -0.60    6.04 
   1 -15   2   11.96    6.81 
  -1  15   2   -3.28    6.46 
   1 -15   2    4.04    6.58 
   1  15  -2   11.46    7.42 
   1 -15  -2    3.33    6.91 
  -1 -15   2   11.92    6.49 
  -2 -15  -2    8.42    6.32 
  -2  15  -2    0.47    7.33 
   2 -15  -2   -6.74    5.30 
  -2 -15   2    1.91    5.43 
   2  15  -2   -2.89    5.87 
   2 -15  -2   -2.59    6.26 
  -2  15   2   -4.28    5.63 
   2  15   2   -5.27    6.48 
   2 -15   2    8.52    7.17 
  -2 -15   2    0.31    5.18 
   3 -15   2    7.38    6.45 
  -3  15  -2   -3.82    7.51 
   3 -15  -2    5.24    6.26 
  -3 -15  -2   -7.66    5.28 
   3  15  -2    3.51    7.70 
   3 -15  -2   -2.03    6.89 
  -3 -15   2    0.53    5.66 
   3  15   2   19.14    9.85 
  -3  15   2    4.36    7.36 
  -4  15  -2   10.29    8.82 
   4 -15  -2    6.67    5.88 
   4 -15  -2    7.85    7.13 
  -4 -15  -2   -3.28    5.92 
   4 -15   2   -2.48    6.50 
  -4  15   2   -9.49    6.02 
   4  15  -2    9.20    7.60 
  -4 -15   2   -2.77    5.64 
   4  15   2    1.99    7.59 
  -5  15   2    5.91    8.36 
   5 -15   2    6.88    7.64 
  -5 -15  -2    8.32    8.22 
  -5  15  -2   -7.59    7.21 
   5 -15  -2   -3.97    6.18 
   5 -15  -2   15.31    8.30 
   5  15  -2    6.97    8.89 
  -5 -15   2    1.66    7.04 
   5  15   2   16.00    9.75 
   6 -15  -2    8.66    7.32 
   6  15  -2   -2.57    6.72 
   6 -15  -2    3.49    5.99 
   6  15   2    1.78    9.16 
   6 -15   2    0.16    5.89 
  -6  15  -2   -4.24    7.18 
  -6 -15   2    5.53    6.89 
  -6 -15  -2    8.14    7.86 
   0 -16  -2  192.35   20.26 
   0  16  -2  167.32   20.82 
   0  16   2  176.37   21.06 
   0 -16   2  172.96   18.74 
   0 -16  -2  181.73   19.65 
   0 -16   2  191.11   18.93 
  -1  16   2    2.14    6.95 
  -1  16  -2   -3.18    7.52 
   1 -16  -2    4.20    6.63 
  -1 -16  -2    9.16    7.01 
   1  16   2   -0.20    7.83 
  -1 -16   2    3.46    6.79 
  -1 -16   2    4.37    6.11 
   1 -16  -2    9.39    7.20 
   1  16  -2    4.86    6.48 
   1 -16   2    9.78    7.59 
   2 -16   2  124.87   17.33 
   2  16  -2  182.02   21.88 
  -2  16  -2  156.27   20.26 
   2  16   2  148.18   20.50 
   2 -16  -2  123.02   18.29 
  -2 -16  -2  157.82   18.65 
   2 -16  -2  139.01   18.13 
  -2  16   2  158.73   19.33 
  -2 -16   2  198.24   19.45 
  -3 -16   2  -11.24    4.89 
  -3  16  -2   11.68    9.22 
   3 -16  -2    0.11    6.52 
   3  16  -2    2.25    7.28 
  -3  16   2   -5.07    6.60 
   3 -16  -2    1.55    5.80 
   3  16   2   -5.38    7.55 
   3 -16   2    1.76    7.21 
  -3 -16  -2    7.06    7.23 
   4 -16  -2  189.86   19.17 
  -4 -16   2  187.78   20.29 
   4  16  -2  195.06   23.58 
   4 -16  -2  144.37   19.96 
   4 -16   2  132.87   19.17 
  -4 -16  -2  155.08   19.28 
   4  16   2  206.20   24.28 
  -4  16   2  150.24   19.23 
  -4  16  -2  148.80   20.41 
  -5 -16   2    5.62    8.01 
  -5 -16  -2    2.22    6.91 
   5 -16  -2   11.16    7.72 
   5  16   2    4.94    8.31 
  -5  16   2   -6.86    7.71 
   5  16  -2   15.25    9.71 
   5 -16   2   -5.86    6.50 
   5 -16  -2    1.94    6.92 
  -5  16  -2   -3.25    7.34 
   0 -17  -2   13.19    7.32 
   0  17   2   -4.82    6.97 
   0 -17  -2    3.62    7.22 
   0 -17   2   -1.07    6.83 
   0  17  -2   -4.56    5.98 
  -1 -17  -2    6.75    8.34 
  -1  17  -2   15.37   10.24 
  -1 -17   2    9.36    6.94 
  -1  17   2   12.93    8.46 
   1 -17  -2    8.05    8.02 
   1  17  -2   17.05    9.99 
   1 -17   2    7.65    8.66 
   1 -17  -2   11.78    7.99 
  -1 -17   2    7.08    7.57 
   1  17   2   19.64    9.80 
   2 -17  -2    1.49    7.30 
  -2  17  -2   -1.72    7.21 
   2 -17   2    0.20    7.51 
  -2 -17   2    9.59    8.05 
   2  17  -2   -4.41    6.66 
   2  17   2   -1.51    7.83 
  -2  17   2   -7.01    6.59 
   2 -17  -2   11.09    8.36 
  -2 -17  -2   -3.24    6.38 
   3 -17   2    0.17    7.48 
   3 -17  -2    0.10    7.89 
  -3 -17  -2    7.52    7.83 
   3 -17  -2    5.76    7.80 
   3  17   2    0.10    9.12 
  -3  17   2   -0.02    7.45 
   3  17  -2    3.56    8.43 
  -3 -17   2    7.96    7.17 
  -3  17  -2   -2.50    8.15 
  -4  17   2    6.59    8.18 
  -4 -17   2    1.92    8.05 
   4  17  -2    5.28    8.42 
  -4  17  -2    9.79    9.14 
   4 -17  -2   17.44    8.55 
  -4 -17  -2   10.92    8.65 
   4  17   2    7.99    9.46 
   0  18  -2   69.60   15.09 
   0 -18  -2   78.01   15.61 
   0 -18   2   78.15   15.10 
   0  18   2   89.90   16.46 
   0   0  -3   -0.48    1.32 
   0   0  -3    0.71    1.45 
   0   0  -3    0.91    1.47 
   0   0   3   -0.24    1.54 
   0   0   3   -0.10    1.59 
   0   0   3   -0.17    1.57 
  -1   0   3    5.51    3.05 
  -1   0   3    8.21    2.94 
   1   0   3    4.76    2.34 
  -1   0  -3    3.95    2.03 
   1   0  -3    5.44    2.85 
   1   0   3   12.60    4.03 
  -1   0   3    5.14    1.56 
   1   0  -3    1.41    2.36 
  -1   0  -3    5.58    1.54 
  -1   0  -3    1.90    2.14 
   1   0  -3    3.29    2.22 
   2   0   3    1.66    2.80 
   2   0   3    1.13    1.31 
  -2   0  -3    2.71    1.31 
  -2   0   3   -0.87    1.95 
  -2   0   3   -0.57    1.42 
  -2   0  -3    1.21    1.60 
   2   0  -3    4.04    2.70 
   2   0  -3   -0.41    1.77 
  -2   0  -3    2.79    1.73 
  -2   0  -3    2.47    1.95 
   3   0  -3    3.59    3.58 
   3   0   3    2.47    1.59 
   3   0   3    7.97    4.70 
  -3   0  -3    4.77    2.68 
   3   0  -3    3.84    2.93 
  -3   0   3    3.24    2.27 
  -3   0   3    5.10    3.16 
   3   0  -3    3.55    1.85 
   3   0   3    3.23    2.42 
  -3   0  -3    9.92    2.72 
  -3   0  -3    3.05    1.76 
  -4   0   3    2.53    2.15 
   4   0   3    1.39    1.41 
   4   0  -3   -1.10    2.25 
  -4   0  -3    1.61    2.19 
   4   0  -3    1.35    2.03 
   4   0   3    1.53    3.51 
  -4   0  -3   -0.33    1.57 
  -4   0   3   -2.10    2.19 
   4   0  -3   -2.07    2.37 
  -4   0  -3    0.97    1.37 
   4   0   3    3.58    2.49 
  -5   0   3    0.55    2.28 
   5   0  -3    5.47    2.97 
  -5   0  -3   -0.29    2.01 
   5   0  -3   -4.37    2.28 
  -5   0   3    5.88    3.44 
   5   0   3    0.63    4.00 
   5   0   3    0.57    1.68 
   5   0  -3   -1.12    3.73 
  -5   0  -3    3.26    3.36 
   5   0   3   -1.62    2.63 
  -5   0  -3    0.59    1.90 
   6   0  -3    0.90    3.29 
   6   0   3   -4.68    3.77 
  -6   0   3   -2.89    1.69 
   6   0  -3   -0.32    2.87 
  -6   0  -3    0.13    1.87 
  -6   0  -3   -1.82    2.03 
  -6   0  -3    2.01    3.47 
   6   0   3    2.45    2.42 
  -6   0   3   -2.91    3.70 
   6   0   3   -0.49    2.90 
  -6   0   3   -0.37    2.65 
  -7   0   3    8.08    3.42 
   7   0   3    1.77    3.56 
  -7   0  -3    9.02    5.30 
   7   0   3    1.61    5.54 
   7   0  -3    9.05    4.70 
  -7   0   3    8.47    4.35 
  -7   0  -3    6.37    2.79 
  -7   0   3    1.95    4.93 
  -8   0   3    3.88    3.11 
   8   0   3   -1.69    5.15 
  -8   0   3    0.10    5.21 
  -8   0  -3   -0.49    2.45 
  -8   0  -3    3.79    5.21 
   8   0   3   -2.09    3.56 
   8   0  -3   -0.70    3.39 
   9   0   3   -6.44    4.43 
   9   0   3    7.07    5.23 
   9   0  -3   12.27    5.85 
  -9   0  -3    4.79    6.41 
  -9   0   3   -2.55    2.94 
  -9   0   3    3.47    5.86 
  -9   0  -3   -1.18    2.68 
  10   0   3    6.63    6.25 
  10   0  -3   -8.13    3.72 
 -10   0   3    2.59    6.39 
  10   0   3   -1.85    4.08 
 -10   0   3    0.48    3.71 
 -10   0  -3    0.91    3.53 
 -10   0  -3    4.08    6.41 
 -11   0   3   11.73    8.57 
  11   0   3    4.97    6.03 
  11   0  -3   20.64    7.84 
 -11   0  -3   10.59    4.66 
 -11   0  -3   15.99    8.42 
 -11   0   3   10.29    4.97 
 -12   0   3   -4.46    5.96 
   0  -1   3  419.13   14.12 
   0   1   3  427.11   14.52 
   0   1   3  413.14   15.13 
   0  -1   3  415.83   14.03 
   0   1  -3  428.21   12.34 
   0  -1  -3  447.89   14.32 
   0  -1   3  423.70   14.60 
   0   1  -3  418.34   14.51 
   0   1  -3  431.72   14.56 
   0   1   3  422.40   14.51 
   0  -1  -3  429.86   13.85 
  -1   1  -3    2.15    1.75 
   1   1  -3    2.59    1.51 
  -1  -1   3    1.93    2.12 
   1   1   3    6.38    3.24 
   1  -1  -3    2.09    2.18 
  -1   1   3   -0.96    2.11 
   1   1  -3    3.73    2.55 
  -1  -1  -3   -0.26    1.43 
   1   1   3    2.36    2.30 
  -1   1   3    2.76    1.66 
  -1   1  -3    2.43    1.95 
   1   1   3    0.51    1.84 
   1  -1   3    1.94    2.39 
   1  -1   3   -1.01    1.75 
  -1  -1  -3   -0.67    1.29 
   1   1  -3    0.71    2.30 
  -1  -1  -3    1.25    1.51 
   1  -1  -3    2.09    2.62 
  -1  -1   3    0.58    2.06 
  -1   1   3   -0.05    1.79 
   2  -1   3  658.20   24.68 
   2  -1  -3  749.11   22.06 
  -2  -1  -3  696.41   21.16 
  -2  -1  -3  732.48   21.54 
  -2  -1  -3  720.36   20.68 
   2   1  -3  686.14   23.47 
   2   1   3  701.99   25.70 
  -2   1  -3  718.05   21.41 
   2  -1  -3  696.10   23.94 
  -2   1   3  735.29   23.75 
  -2  -1   3  736.33   23.11 
  -2   1  -3  707.42   19.99 
  -2   1  -3  743.79   21.24 
  -2   1   3  735.28   22.40 
   2   1  -3  709.93   19.87 
   2   1  -3  735.49   22.90 
  -2   1   3  739.94   21.30 
  -2   1  -3  759.39   20.52 
   2  -1   3  733.09   20.45 
  -2  -1   3  696.68   22.95 
   2   1   3  740.87   19.45 
  -3   1  -3   -1.74    1.01 
  -3   1  -3   -1.69    1.83 
   3   1   3    0.31    3.11 
   3   1  -3    0.75    2.43 
  -3  -1   3    0.12    1.77 
  -3   1   3    2.30    2.24 
   3   1  -3   -1.33    2.54 
   3  -1   3   -2.38    2.67 
   3   1  -3    4.20    2.15 
   3   1   3    0.00    1.10 
   3  -1  -3    1.98    1.36 
  -3  -1  -3    0.59    1.99 
  -3  -1   3   -2.17    1.81 
  -3   1   3   -3.07    2.32 
  -3  -1  -3    1.00    2.23 
   3  -1  -3    1.72    3.23 
   3   1   3   -1.49    1.83 
  -3  -1  -3   -0.41    1.39 
   3  -1  -3    1.92    2.42 
   3  -1   3   -0.29    1.41 
  -3   1  -3    1.20    1.90 
  -4   1  -3  297.98   13.21 
   4  -1  -3  307.07   11.04 
  -4   1   3  304.42   12.37 
  -4  -1  -3  315.18   14.28 
  -4  -1   3  288.66   15.43 
  -4   1   3  312.49   14.67 
  -4  -1   3  308.44   13.69 
   4   1  -3  325.87   12.96 
   4   1   3  311.82   13.87 
  -4  -1   3  301.74   13.13 
   4  -1   3  310.71   13.84 
  -4  -1  -3  307.83   11.73 
  -4   1  -3  335.81   12.02 
   4  -1  -3  298.79   13.95 
   4  -1   3  275.56   16.00 
  -4  -1  -3  313.65   13.20 
   4  -1  -3  303.29   15.89 
   4  -1   3  296.46   10.73 
   4   1  -3  296.31   14.37 
   4   1   3  317.67    9.19 
  -4   1  -3  294.03    9.92 
   4   1   3  279.35   16.76 
   5  -1  -3   -1.66    3.69 
  -5  -1  -3    0.13    2.25 
  -5  -1   3    1.22    3.71 
  -5  -1   3    1.40    2.80 
  -5   1  -3   -0.02    1.44 
   5   1   3    0.11    1.66 
   5   1   3   -3.00    2.44 
   5   1  -3    1.57    3.10 
   5  -1   3    2.90    4.29 
  -5   1  -3   -4.07    2.65 
   5   1   3   -2.21    3.72 
   5  -1  -3    0.37    2.20 
   5  -1  -3   -1.10    2.65 
   5  -1   3   -2.53    2.39 
  -5   1   3    1.27    2.09 
  -5  -1  -3   -1.83    1.64 
   5  -1   3   -0.35    1.78 
  -5  -1   3    0.28    2.05 
  -5   1  -3    3.06    2.00 
  -5  -1  -3    1.75    3.15 
  -5   1   3    1.53    3.09 
   5   1  -3   -2.14    2.70 
  -6  -1  -3  147.30    8.39 
  -6  -1  -3  139.15   11.15 
  -6   1  -3  147.83   10.61 
   6   1  -3  133.55   10.90 
  -6   1  -3  146.98    7.12 
  -6  -1   3  142.72    9.12 
   6  -1  -3  141.51   10.96 
   6   1   3  155.44   11.31 
  -6  -1   3  159.35   10.04 
   6  -1   3  164.43    8.72 
  -6   1   3  150.92    8.91 
   6  -1   3  146.14   11.01 
   6  -1  -3  155.89    9.00 
  -6   1   3  159.19   10.89 
  -6   1  -3  164.12    8.45 
   6  -1   3  144.36   12.75 
   6   1   3  153.77   14.12 
   6  -1  -3  148.56   12.47 
  -6  -1   3  136.25   11.87 
   6   1  -3  164.34   10.51 
  -7   1   3   -3.78    4.61 
  -7  -1   3   -0.21    2.46 
  -7   1   3    1.10    2.65 
  -7  -1   3   -0.57    4.55 
  -7  -1  -3    2.61    2.65 
   7   1  -3   -5.58    3.55 
   7   1  -3   -4.11    3.37 
   7   1   3    0.28    3.61 
  -7  -1  -3    5.08    4.50 
  -7  -1   3   -1.36    2.57 
   7  -1  -3    1.18    2.98 
   7   1   3   -1.17    4.94 
   7  -1   3   -3.26    4.36 
  -7   1  -3    2.68    4.04 
   7  -1   3   -4.09    2.80 
  -7   1  -3    0.50    1.99 
  -7   1   3   -0.84    3.37 
   8   1   3  134.53   14.10 
  -8   1  -3  137.98    8.14 
   8  -1  -3  137.48   11.93 
   8  -1   3  165.57   17.10 
   8   1   3  190.48   18.50 
  -8   1  -3  155.23   14.24 
   8   1  -3  153.85   15.31 
  -8   1   3  139.78    9.29 
  -8   1   3  153.81   16.19 
   8  -1   3  160.14   13.19 
  -8  -1   3  132.42    9.91 
  -8  -1  -3  138.57    9.13 
  -8  -1  -3  161.81   15.11 
  -8  -1   3  141.97   15.55 
   9  -1  -3   -0.81    3.38 
  -9  -1  -3   -0.47    2.89 
  -9   1  -3    0.50    2.72 
  -9   1   3   -0.75    2.60 
  -9   1  -3   -4.20    4.61 
   9   1  -3   -0.09    4.54 
  -9   1   3   -1.02    5.16 
   9  -1   3    4.43    5.64 
  -9  -1   3    0.20    3.08 
   9   1   3    2.66    4.28 
  -9  -1  -3   -3.80    4.25 
  -9  -1   3    1.39    5.45 
   9  -1   3   -1.15    3.57 
   9   1   3    6.40    5.92 
 -10   1   3   26.11    5.59 
  10  -1   3   45.15   11.41 
 -10  -1  -3   32.74    6.31 
 -10  -1  -3   55.29   11.01 
  10   1  -3   42.36    9.64 
  10  -1   3   40.48    9.62 
 -10   1  -3   33.76    9.50 
 -10   1   3   25.92   10.37 
  10   1   3   34.59    9.24 
  10  -1  -3   41.79    9.61 
 -10  -1   3   40.24   11.39 
 -10  -1   3   46.66    7.74 
  10   1   3   41.92   10.67 
 -10   1  -3   37.98    5.95 
 -11  -1  -3   -6.26    5.26 
 -11   1   3   -4.18    5.52 
  11   1   3    2.77    5.44 
 -11  -1   3    5.38    3.99 
 -11   1  -3   -2.78    3.12 
  11   1   3    5.27    6.19 
 -11   1   3   -3.61    3.66 
  11  -1  -3    4.67    5.66 
 -11  -1  -3    3.93    3.95 
 -11  -1   3   -0.17    6.51 
  11  -1   3   -7.44    3.67 
  11   1  -3    1.17    5.22 
   0  -2   3    0.49    1.98 
   0  -2  -3    2.58    1.74 
   0   2  -3   -0.56    1.55 
   0   2   3    1.79    1.85 
   0  -2  -3    3.41    1.71 
   0   2  -3    5.34    2.34 
   0  -2   3    1.60    1.37 
   0  -2   3    2.61    2.36 
   0   2   3    1.83    2.16 
   0  -2   3    2.20    1.66 
   0   2   3    2.48    2.41 
   0  -2  -3    0.03    1.90 
   1  -2   3    8.66    2.76 
  -1  -2  -3    5.00    2.23 
  -1  -2   3   12.19    3.37 
   1   2   3   13.53    4.10 
   1   2  -3   14.24    3.05 
   1  -2  -3   19.70    3.35 
  -1   2  -3   11.36    2.90 
   1   2  -3   13.36    3.70 
   1  -2  -3   10.09    3.76 
  -1  -2  -3   15.23    2.99 
  -1   2   3    8.03    2.89 
  -1  -2  -3    4.43    2.19 
   1   2   3    6.48    3.12 
   1  -2   3   21.76    4.35 
  -1   2   3   17.68    4.22 
  -1   2   3   15.86    2.98 
   1   2   3   13.33    3.03 
  -1  -2   3   12.41    3.01 
  -1  -2   3    9.12    2.95 
  -1   2  -3    7.57    2.63 
  -2  -2   3    1.90    1.95 
   2  -2   3    1.60    1.77 
  -2   2   3    3.43    2.74 
  -2  -2   3    9.43    2.66 
   2   2   3   -0.74    1.96 
   2   2  -3    2.24    1.87 
  -2   2  -3    5.25    2.08 
  -2   2   3    4.40    1.73 
  -2   2   3    5.16    2.29 
  -2  -2  -3    2.69    1.73 
   2   2  -3    0.68    2.27 
  -2  -2   3    2.13    2.37 
  -2   2  -3    4.64    1.69 
   2  -2   3    7.54    3.15 
   2  -2  -3    8.25    3.40 
  -2  -2  -3    2.79    2.15 
   2   2   3    5.44    3.41 
  -2   2  -3    2.70    1.56 
   2  -2  -3    2.64    2.10 
  -2   2   3    2.30    1.82 
   2   2   3    8.54    1.77 
   3   2  -3    9.70    2.94 
  -3  -2   3    9.61    4.03 
  -3   2   3   11.53    2.56 
   3   2  -3    6.58    3.45 
  -3   2   3   10.05    2.72 
  -3   2   3   13.81    4.36 
   3   2   3   10.91    3.22 
   3  -2  -3   10.66    4.44 
  -3   2  -3    7.89    2.00 
  -3  -2   3    7.41    2.89 
  -3  -2  -3    8.63    3.50 
  -3   2   3   12.43    2.28 
  -3   2  -3   10.79    3.23 
   3   2   3    8.53    1.38 
  -3  -2  -3    3.90    2.19 
  -3   2  -3   17.08    3.36 
   3   2   3    7.73    4.27 
   3  -2   3   12.91    2.82 
   3  -2   3    6.44    3.83 
  -3   2  -3    5.06    1.55 
  -3  -2   3    3.65    2.72 
   3  -2  -3   12.22    3.34 
   4  -2  -3    0.94    1.80 
  -4   2   3    1.78    2.99 
  -4  -2   3    3.86    2.79 
  -4   2  -3   -0.72    1.06 
   4   2  -3   -0.27    2.24 
  -4  -2  -3    2.77    2.07 
   4   2  -3    2.21    2.43 
  -4   2  -3   -0.97    2.13 
  -4  -2   3    1.82    2.22 
   4   2   3   -3.03    2.30 
   4   2   3    2.13    4.05 
  -4   2  -3    1.44    1.10 
   4  -2  -3    0.82    3.10 
  -4  -2   3    2.05    2.78 
   4  -2  -3   -3.90    2.05 
  -4   2   3    2.29    1.97 
   4  -2   3    0.56    1.74 
   4  -2   3   -3.21    1.64 
   4  -2   3    1.36    3.58 
  -4  -2  -3   -0.25    2.80 
   5   2   3    9.97    5.56 
  -5  -2   3    6.76    4.77 
   5  -2  -3   17.85    3.55 
  -5   2   3   16.38    3.68 
   5  -2  -3   14.36    4.78 
  -5  -2   3   15.42    4.35 
  -5   2   3   19.90    5.32 
  -5  -2   3   14.19    3.88 
  -5   2  -3   25.09    5.22 
  -5  -2  -3   12.82    3.48 
   5  -2   3   11.91    4.27 
   5  -2   3   10.92    5.79 
   5  -2   3   15.04    3.50 
  -5   2  -3   15.06    2.98 
  -5  -2  -3   20.87    5.71 
   5   2  -3   11.56    4.37 
   5  -2  -3    8.31    5.75 
   5   2   3   11.65    4.44 
   5   2  -3   15.32    5.05 
  -5   2  -3   17.29    2.30 
   6  -2   3   -0.54    2.57 
   6   2  -3    0.76    3.69 
  -6  -2   3   -1.31    2.85 
  -6   2   3   -1.65    3.16 
  -6  -2   3    4.46    3.14 
   6  -2   3   -2.42    3.19 
   6   2   3    3.46    5.26 
   6  -2   3    3.42    4.19 
   6   2  -3   -2.39    2.83 
   6  -2  -3   -1.19    2.63 
  -6  -2  -3    1.06    2.59 
   6  -2  -3   -2.51    3.77 
  -6   2  -3    1.26    3.25 
  -6  -2  -3    2.24    3.92 
  -6  -2   3   -2.48    2.08 
  -6   2   3    2.74    2.36 
  -6   2  -3   -0.42    1.97 
   6   2   3   -2.50    3.03 
   6  -2  -3   -1.62    3.37 
  -6   2  -3    0.34    1.67 
  -7   2  -3    7.16    4.84 
   7  -2  -3    2.95    3.95 
   7   2  -3    5.09    4.48 
  -7  -2   3    9.63    5.87 
   7   2   3    1.60    4.03 
  -7   2   3    7.01    3.06 
   7  -2   3    1.65    5.06 
  -7  -2  -3   -5.83    3.27 
   7   2  -3    8.20    4.42 
   7  -2   3    4.38    3.56 
  -7   2  -3    1.82    2.06 
  -7   2   3   -3.38    3.27 
   7   2   3    6.78    6.35 
  -7  -2   3    5.78    3.16 
  -7  -2  -3    1.74    2.60 
   7  -2   3    3.09    3.62 
   7  -2  -3    1.97    4.88 
   8  -2   3    1.59    4.35 
  -8   2  -3    5.76    5.03 
  -8  -2   3    2.46    3.12 
   8   2  -3    0.32    4.04 
  -8  -2  -3    3.80    5.42 
  -8   2   3   10.50    6.85 
  -8   2  -3   -2.43    2.10 
  -8   2   3    0.36    2.97 
   8  -2  -3   -7.55    2.89 
  -8  -2  -3   -0.48    2.89 
   8   2   3    2.32    5.78 
   8  -2   3   -2.00    4.77 
   8   2   3   -4.19    3.47 
  -8  -2   3   -3.30    5.21 
  -8   2   3    6.85    4.28 
   9   2  -3   -3.56    3.84 
   9  -2  -3   -2.22    3.93 
  -9  -2   3    0.07    2.99 
  -9   2   3   -1.90    2.68 
   9  -2   3    0.29    4.31 
  -9   2   3    0.02    6.38 
  -9  -2  -3   -2.51    4.90 
   9   2   3    3.45    4.87 
  -9   2  -3    3.85    5.26 
  -9   2  -3    0.65    2.47 
  -9  -2  -3    4.34    3.66 
   9  -2   3   -1.36    6.18 
   9   2   3   12.24    6.85 
  -9  -2   3    6.34    7.26 
  10   2   3   15.84    6.96 
  10  -2   3    6.17    5.78 
 -10   2   3   -1.54    3.24 
 -10  -2   3   -3.84    5.80 
 -10  -2   3    0.97    3.44 
  10   2   3    1.60    5.46 
 -10  -2  -3    1.93    3.98 
 -10  -2  -3    0.79    6.30 
  10  -2   3    4.04    4.50 
 -10   2  -3   -0.98    5.03 
 -10   2   3    3.53    6.91 
  10   2  -3    2.39    4.78 
 -10   2  -3   -0.98    3.00 
  10  -2  -3    2.31    5.22 
 -11  -2  -3    4.35    6.98 
  11  -2   3   -4.33    4.46 
 -11  -2  -3    3.08    4.15 
  11   2   3    6.31    6.47 
  11   2  -3   -0.11    5.37 
 -11   2   3   -0.45    3.40 
 -11  -2   3   -1.06    6.00 
  11  -2  -3   -1.04    5.46 
 -11   2   3    0.93    7.00 
 -11  -2   3    9.83    4.58 
 -11   2  -3   -0.94    3.13 
  11   2   3   -2.37    5.14 
   0  -3  -3    5.50    2.14 
   0  -3  -3    4.62    2.80 
   0  -3  -3    4.75    1.92 
   0   3   3   16.08    3.87 
   0   3  -3    3.76    2.52 
   0  -3   3    4.79    2.50 
   0   3   3    7.34    2.95 
   0  -3   3    4.36    1.55 
   0   3   3    8.02    3.31 
   0   3  -3    8.62    2.86 
   0  -3   3    7.23    2.43 
   1   3   3    2.50    1.90 
  -1  -3  -3   -0.18    1.33 
  -1  -3  -3    2.08    2.10 
  -1  -3   3    3.23    2.58 
   1   3   3    0.05    2.63 
   1  -3   3    2.45    1.60 
   1   3   3   -0.10    2.11 
  -1  -3   3    1.15    1.78 
  -1  -3  -3    1.05    1.43 
  -1   3   3    0.82    2.42 
  -1   3  -3    4.74    2.28 
   1  -3   3    1.17    2.29 
   1   3  -3    0.72    1.79 
  -1   3  -3    0.82    1.59 
   1  -3   3    2.23    1.90 
   1  -3  -3    0.67    2.36 
  -1   3   3    1.96    2.15 
  -1   3   3   -0.09    1.91 
  -1  -3   3    1.94    2.21 
   1   3  -3   -0.30    2.07 
   1  -3  -3    1.90    1.78 
  -2   3   3  147.88    9.45 
   2   3   3  149.12    6.40 
  -2  -3  -3  140.29    7.33 
   2  -3   3  138.62    7.56 
   2   3  -3  140.18    7.55 
   2   3   3  142.67    7.06 
  -2  -3   3  138.23    7.87 
  -2  -3   3  149.90    8.73 
   2   3   3  138.99    9.64 
  -2   3  -3  145.33    6.33 
   2  -3  -3  139.37    6.99 
  -2   3   3  149.36    7.05 
  -2   3  -3  153.26    7.34 
   2   3  -3  139.89    8.13 
  -2   3   3  153.67    7.88 
   2   3   3  142.99    9.37 
   2  -3   3  139.20    9.15 
  -2  -3   3  127.54    8.14 
  -2  -3  -3  143.08    7.99 
   2  -3  -3  132.79    9.06 
  -2   3   3  149.25    7.67 
   2  -3   3  144.89    6.05 
  -2   3  -3  145.65    6.84 
  -3   3   3    2.13    1.93 
   3  -3   3   -0.05    1.87 
  -3   3   3   -1.05    2.34 
  -3  -3   3    2.08    3.17 
   3  -3  -3   -0.52    2.64 
  -3   3  -3   -0.71    1.11 
  -3   3   3    0.39    1.56 
  -3   3  -3   -0.54    1.11 
  -3   3  -3   -1.54    1.80 
   3   3   3    2.42    3.37 
   3   3   3   -1.48    1.57 
   3   3  -3   -2.49    1.99 
   3  -3  -3    1.92    2.11 
   3  -3   3   -0.32    2.62 
  -3  -3  -3    2.77    2.79 
   3  -3   3   -0.17    1.60 
   3   3  -3    0.99    2.06 
  -3  -3  -3   -0.03    1.74 
  -3  -3   3   -0.33    2.09 
  -3  -3   3   -1.41    1.89 
  -3   3   3    3.12    1.91 
   4   3  -3    4.17    3.15 
  -4   3   3   14.13    4.47 
   4  -3   3    2.31    3.67 
   4  -3  -3    6.48    3.33 
   4   3  -3    6.66    3.56 
  -4  -3   3    4.86    3.96 
  -4  -3   3    3.62    2.78 
  -4   3  -3    5.89    3.24 
  -4   3  -3    6.34    1.50 
   4  -3   3    4.87    3.19 
  -4   3   3    8.42    2.52 
   4  -3   3    1.97    2.29 
   4   3   3    2.96    3.04 
   4   3   3    8.24    4.97 
  -4   3   3    6.79    2.22 
  -4  -3  -3    2.06    2.26 
  -4  -3   3    2.43    2.79 
  -4   3  -3    5.72    1.42 
   4  -3  -3    8.56    5.01 
  -4   3   3    7.02    2.74 
  -4  -3  -3    5.09    3.58 
  -5   3  -3   -3.46    2.13 
   5  -3   3    0.44    3.27 
  -5  -3   3    0.00    2.58 
   5   3   3   -1.30    2.81 
  -5   3  -3    2.32    1.33 
   5  -3   3   -2.00    1.88 
  -5   3  -3   -1.50    0.95 
   5  -3  -3   -2.39    2.39 
  -5  -3   3    1.64    3.74 
  -5  -3   3   -2.74    2.07 
   5  -3   3   -1.34    2.21 
  -5   3   3    3.27    2.12 
  -5   3   3   -3.25    2.37 
  -5  -3  -3   -0.92    3.18 
   5   3  -3   -3.12    2.59 
  -5  -3  -3    1.00    2.25 
   5   3  -3   -2.92    2.62 
   5  -3  -3   -2.54    3.43 
   5  -3  -3    2.73    2.47 
   5   3   3    1.97    4.52 
  -6  -3   3   10.13    3.93 
  -6   3  -3   21.46    5.57 
   6  -3  -3   14.62    4.28 
  -6   3   3   19.54    3.99 
  -6  -3  -3   11.74    5.52 
   6  -3   3   19.16    4.43 
   6  -3   3   13.89    6.30 
  -6  -3  -3    9.64    3.52 
   6   3  -3   14.49    5.24 
   6  -3   3    8.24    4.39 
  -6   3  -3   20.05    3.08 
  -6   3  -3   14.46    2.15 
   6  -3  -3    6.58    4.29 
   6   3  -3    9.80    4.91 
  -6   3   3   16.22    5.43 
   6  -3  -3   21.71    7.90 
   6   3   3   18.39    5.79 
   6   3   3   14.85    6.88 
  -6  -3   3   21.65    7.04 
  -6  -3   3   13.80    4.03 
  -7   3  -3    4.04    2.40 
  -7  -3   3    4.52    5.23 
   7   3  -3   12.03    5.58 
   7   3   3   -3.62    3.43 
   7  -3   3    0.11    4.10 
   7  -3  -3    2.60    4.47 
  -7   3  -3    0.76    1.60 
   7  -3   3   -1.93    3.32 
   7   3  -3   -0.52    3.55 
   7  -3   3   -1.12    3.28 
  -7  -3  -3   -0.92    4.35 
   7   3   3    4.30    5.59 
  -7   3   3   -4.34    3.08 
  -7  -3   3    4.43    3.17 
  -7   3  -3   -2.20    3.81 
  -7  -3  -3    6.07    3.08 
  -7   3   3   -0.22    2.01 
   7  -3  -3   -1.67    3.23 
   8  -3   3   22.29    7.26 
   8   3   3   21.41    8.52 
   8   3   3   19.74    6.92 
   8  -3  -3   21.65    8.09 
  -8   3  -3   19.49    3.27 
  -8  -3   3    7.45    6.50 
   8  -3  -3   13.71    6.00 
  -8   3   3   16.99    4.34 
   8  -3   3   11.80    5.32 
   8   3  -3   25.60    8.08 
  -8   3   3   22.22    7.11 
  -8  -3  -3   12.36    4.33 
  -8  -3  -3    7.02    6.91 
  -8   3  -3   22.78    6.56 
  -8  -3   3   12.32    4.72 
   9  -3  -3    2.10    4.88 
  -9  -3  -3    0.96    5.65 
   9   3   3    4.72    5.07 
  -9   3  -3   -0.25    2.24 
  -9  -3   3    5.46    6.55 
  -9   3   3   -0.72    6.57 
  -9  -3   3    0.32    3.40 
  -9   3  -3    4.04    5.64 
   9   3  -3   -2.12    4.36 
   9  -3   3   -2.84    3.66 
   9   3   3    7.17    6.57 
  -9   3   3    2.43    3.11 
  -9  -3  -3   -1.13    3.03 
   9  -3   3   -5.78    5.06 
 -10  -3   3    1.13    3.68 
 -10   3   3   -4.03    6.63 
  10   3  -3    6.35    6.70 
 -10   3   3   -3.95    2.89 
  10  -3  -3    4.01    5.15 
  10  -3   3   11.35    7.70 
  10  -3   3    3.12    4.63 
  10   3   3    0.75    5.15 
 -10   3  -3    0.86    2.82 
 -10  -3  -3    6.96    7.20 
 -10  -3   3    6.10    7.28 
 -10  -3  -3    2.78    3.57 
  10   3   3   11.46    7.48 
 -11   3  -3    1.99    3.13 
 -11  -3   3    5.19    4.23 
 -11  -3   3    2.48    6.96 
  11  -3  -3    0.71    4.96 
  11   3   3    7.49    6.30 
  11   3   3   -0.45    5.01 
  11   3  -3    1.18    6.38 
 -11   3   3   -7.29    6.30 
 -11   3   3   -0.65    3.18 
 -11  -3  -3   -2.26    3.68 
 -11  -3  -3   -2.78    6.57 
  11  -3   3   -7.08    4.96 
   0   4  -3    6.98    2.82 
   0  -4   3    0.88    2.23 
   0   4   3   -0.58    2.23 
   0  -4   3    8.24    2.23 
   0  -4   3    4.04    2.23 
   0   4   3    6.07    3.33 
   0   4   3    4.38    3.03 
   0  -4  -3    6.64    2.98 
   0   4  -3    2.49    2.38 
   0  -4  -3   12.34    2.09 
   0  -4  -3    1.25    1.74 
  -1  -4   3   22.00    4.20 
   1   4  -3   17.28    3.97 
  -1  -4   3   14.49    3.37 
  -1  -4  -3   21.98    2.80 
  -1   4  -3   16.62    3.67 
   1   4   3   19.87    5.14 
   1  -4   3   25.59    4.32 
   1  -4  -3   22.41    2.78 
  -1  -4   3   20.51    4.05 
  -1   4   3   14.83    4.56 
   1  -4  -3   19.01    5.15 
   1   4  -3   20.84    3.98 
  -1  -4  -3   27.60    4.43 
  -1   4  -3   19.26    3.53 
   1   4   3   18.36    3.92 
  -1   4   3   26.62    4.63 
   1   4   3   19.53    4.74 
  -1  -4  -3   16.80    3.24 
  -1   4   3   11.87    3.47 
   1  -4   3   32.02    3.74 
   2   4   3    1.06    1.73 
  -2   4  -3    2.04    1.46 
   2  -4   3    1.28    2.32 
   2  -4  -3    5.46    2.95 
   2  -4   3    2.48    2.83 
  -2  -4  -3    1.40    2.47 
  -2   4   3   -0.60    2.05 
  -2  -4   3    3.47    2.98 
  -2   4   3    5.13    2.22 
   2  -4  -3   -1.41    1.50 
  -2   4  -3    3.41    1.93 
   2   4   3    7.27    4.27 
   2   4   3    0.07    2.63 
  -2   4  -3    3.04    2.09 
  -2  -4  -3    0.67    1.70 
  -2   4   3    4.43    3.31 
  -2   4   3    5.61    2.52 
   2   4  -3    0.67    2.10 
   2   4   3   -1.98    1.51 
   2  -4   3    0.75    1.76 
   2   4  -3    1.73    2.36 
  -2  -4   3    1.01    2.13 
  -2  -4   3    1.51    2.05 
   3  -4   3   81.98    9.06 
   3  -4   3   67.63    5.39 
  -3   4  -3   75.67    5.74 
   3   4   3   72.67    5.94 
  -3  -4  -3   71.45    5.90 
   3   4   3   75.83    8.53 
   3  -4  -3   78.03    9.48 
   3   4   3   77.89    3.92 
  -3   4   3   76.06    5.46 
   3   4  -3   72.38    6.16 
  -3  -4  -3   76.05    6.97 
  -3  -4   3   79.11    7.63 
  -3   4  -3   77.72    4.94 
  -3   4  -3   71.37    4.10 
  -3  -4   3   74.09    5.78 
  -3   4   3   84.94    8.94 
  -3   4   3   72.18    5.45 
  -3  -4   3   86.75    9.33 
  -3   4   3   77.88    5.61 
   3   4   3   74.03    9.45 
   3  -4   3   65.34    5.75 
   3   4  -3   86.33    7.98 
   3  -4  -3   68.35    5.63 
   4   4   3    3.67    3.20 
   4   4  -3    4.60    3.11 
  -4  -4  -3    2.44    2.36 
  -4  -4   3    5.74    2.80 
  -4   4   3    1.65    1.85 
   4  -4   3    3.09    3.03 
  -4   4  -3    0.03    2.67 
   4  -4   3   -0.16    2.32 
  -4   4   3    2.97    2.35 
  -4  -4   3    9.17    4.79 
  -4   4   3    2.52    1.97 
   4  -4   3    4.93    3.75 
  -4  -4   3    1.11    2.52 
  -4   4   3    3.50    3.37 
  -4   4  -3    1.40    1.15 
   4   4  -3    3.09    3.60 
  -4   4  -3    1.91    1.37 
  -4  -4  -3    2.37    3.41 
   4  -4  -3    9.65    4.28 
   4   4   3    8.79    4.94 
   4  -4  -3    2.14    3.06 
   5  -4  -3    0.41    3.74 
  -5  -4  -3   -3.86    1.70 
  -5  -4  -3   -1.58    3.14 
   5   4  -3    3.53    3.55 
   5  -4  -3    0.19    3.02 
   5   4   3    3.98    4.49 
   5   4  -3    5.17    3.71 
   5   4   3    1.91    3.33 
  -5  -4   3    0.59    2.47 
  -5   4   3    0.39    3.16 
  -5   4   3   -0.88    2.49 
   5  -4   3    2.65    2.87 
  -5  -4   3    0.78    3.80 
  -5   4   3    0.63    1.71 
  -5   4  -3    3.21    3.32 
  -5   4   3    1.70    1.85 
  -5  -4   3    5.53    3.04 
   5  -4   3    1.84    3.92 
   5  -4   3    2.76    3.13 
  -6   4   3    3.98    2.46 
  -6   4  -3    3.41    3.76 
   6  -4  -3   -3.13    3.41 
  -6   4   3   -0.68    3.64 
   6  -4   3    8.16    4.78 
   6  -4  -3    5.84    4.80 
  -6  -4   3    8.37    3.15 
  -6  -4  -3    4.00    3.29 
  -6  -4   3    2.13    3.43 
   6   4  -3   -0.94    3.70 
  -6  -4   3    2.68    4.67 
  -6   4   3    2.85    3.64 
   6  -4   3    0.42    3.12 
  -6   4   3    2.73    2.27 
   6   4   3    0.37    3.59 
   6   4   3   -4.71    4.55 
  -6  -4  -3    1.17    3.91 
   6   4  -3    4.81    3.93 
   6  -4   3   -1.74    2.88 
   7  -4  -3   27.79    6.72 
  -7  -4  -3   31.04    8.87 
  -7   4   3   24.44    4.82 
   7   4  -3   39.40    8.30 
  -7   4   3   25.50    6.99 
  -7   4  -3   21.38    2.49 
  -7  -4   3   20.95    7.94 
   7  -4   3   22.83    5.92 
  -7   4  -3   30.13    6.68 
   7  -4   3   32.71    8.48 
   7  -4   3   27.68    6.75 
   7  -4  -3   30.44    9.22 
   7   4  -3   22.10    6.73 
  -7   4  -3   25.71    3.39 
  -7  -4   3   32.47    6.33 
  -7  -4  -3   29.68    5.83 
   7   4   3   23.51    6.83 
   7   4   3   24.72    8.53 
   8  -4   3    7.09    5.73 
  -8   4  -3   -0.90    1.72 
   8  -4  -3    6.12    5.76 
  -8   4  -3    8.23    5.49 
   8  -4  -3    1.89    4.39 
   8   4   3    7.88    6.24 
  -8  -4  -3    0.38    5.47 
   8   4  -3   -5.22    4.79 
  -8  -4   3    1.51    5.15 
   8   4   3    3.75    4.86 
   8  -4   3    4.58    4.22 
  -8  -4   3   -0.18    3.45 
  -8   4   3    1.80    5.13 
  -8  -4  -3   -3.75    2.76 
  -8   4   3    5.95    3.08 
   9  -4   3    6.07    5.41 
  -9  -4  -3    5.07    7.42 
   9   4  -3   -1.20    4.93 
   9   4   3   10.89    7.69 
   9  -4  -3    6.69    5.16 
   9  -4   3    3.78    5.22 
  -9   4   3    2.92    3.18 
   9   4   3    5.97    5.22 
   9  -4  -3   13.93    7.32 
  -9  -4  -3    0.40    2.85 
  -9  -4   3   -0.52    3.35 
  -9  -4   3   -0.14    5.88 
  -9   4  -3    1.59    2.26 
  10   4   3    6.87    6.38 
  10  -4   3   -5.41    4.33 
 -10   4   3    7.66    8.72 
  10   4   3   -0.57    4.95 
  10   4  -3    5.75    6.27 
 -10   4   3    3.94    3.59 
  10  -4   3   12.02    5.49 
 -10  -4  -3    2.07    6.22 
 -10  -4   3    3.27    3.87 
 -10   4  -3   -1.11    2.63 
 -10  -4  -3   -2.61    3.41 
  10  -4  -3    2.42    5.10 
 -10  -4   3   -2.36    5.91 
  11   4  -3  -10.41    4.07 
 -11   4  -3    0.85    3.08 
 -11   4   3    1.96    3.54 
 -11   4   3    2.89    8.06 
 -11  -4   3   -1.77    3.75 
  11  -4  -3   -2.76    4.22 
 -11  -4  -3    1.71    7.26 
 -11  -4  -3    5.30    4.66 
  11   4   3    4.45    5.76 
 -11  -4   3    0.26    7.30 
  11   4   3   30.36    8.72 
   0  -5  -3 1196.24   36.88 
   0  -5   3 1220.52   35.07 
   0   5  -3 1206.31   34.21 
   0   5   3 1190.22   37.92 
   0  -5   3 1169.54   33.49 
   0  -5  -3 1211.65   36.17 
   0  -5  -3 1245.32   30.97 
   0   5  -3 1126.86   37.12 
   0  -5   3 1259.50   34.40 
   0  -5  -3 1223.10   34.13 
  -1  -5   3    3.14    2.59 
  -1   5   3    1.81    3.00 
   1   5  -3    7.50    2.99 
  -1   5  -3    9.96    2.67 
  -1  -5   3    3.89    2.71 
   1  -5  -3   -0.29    3.17 
   1   5  -3    7.91    3.39 
   1   5   3    4.92    3.62 
  -1  -5  -3    5.76    2.44 
   1  -5   3   16.02    3.30 
   1  -5  -3    8.48    3.63 
   1  -5  -3    5.53    1.70 
  -1  -5   3    3.55    2.37 
  -1  -5  -3    5.10    2.81 
  -1   5  -3    4.26    3.05 
   1  -5   3    2.89    2.76 
  -1  -5  -3    0.54    1.48 
   2  -5   3  319.32   13.54 
  -2   5  -3  318.64   12.36 
   2   5   3  333.84   16.13 
  -2  -5   3  333.80   14.80 
   2  -5   3  287.34   12.29 
  -2  -5   3  319.37   13.41 
   2  -5  -3  300.84   10.73 
   2   5   3  311.71   12.29 
  -2  -5  -3  301.47   12.93 
   2  -5  -3  320.41   15.83 
  -2  -5   3  309.02   14.30 
   2   5  -3  298.29   14.47 
   2   5  -3  326.13   13.59 
   2  -5   3  310.69   15.33 
   2  -5  -3  285.38   15.52 
  -2   5  -3  319.69   12.27 
  -2   5  -3  312.01   11.68 
  -2   5   3  308.05   13.50 
  -2  -5  -3  318.32   14.38 
   2   5   3  315.18   16.35 
   2   5   3  315.26   11.68 
  -2   5   3  324.84   12.81 
   3   5   3   -0.77    1.57 
   3  -5  -3   -0.47    2.81 
  -3   5  -3    1.15    1.79 
  -3  -5   3    2.65    2.61 
   3   5   3    0.28    2.58 
  -3  -5   3   -1.03    2.00 
   3   5  -3    0.89    2.73 
  -3   5  -3   -0.60    1.61 
   3  -5   3   -0.82    2.11 
   3   5  -3   -2.99    2.37 
   3   5   3    0.26    2.35 
  -3  -5   3    3.59    3.43 
  -3   5  -3    3.08    1.52 
   3   5   3   -1.14    3.13 
  -3   5   3    3.22    2.66 
   3  -5   3    3.03    2.39 
  -3   5   3    3.27    2.36 
   3  -5  -3   -3.67    1.93 
  -3  -5  -3    1.91    2.91 
   3  -5   3    3.17    3.51 
  -3  -5  -3    1.41    2.12 
  -4   5  -3  747.85   24.29 
  -4   5  -3  717.49   20.96 
  -4   5  -3  717.42   19.99 
   4   5  -3  766.22   26.50 
   4  -5  -3  686.48   24.27 
  -4  -5   3  684.86   27.82 
  -4  -5   3  708.27   26.14 
  -4   5   3  766.96   24.77 
   4  -5  -3  677.43   27.97 
  -4  -5  -3  717.61   27.58 
   4  -5   3  725.71   24.38 
  -4  -5  -3  710.08   25.02 
   4   5   3  768.79   25.34 
   4   5  -3  717.34   26.18 
  -4  -5   3  744.71   23.52 
  -4   5   3  749.67   22.62 
  -4   5   3  736.59   28.18 
   4   5   3  689.49   29.17 
  -4   5   3  742.58   22.89 
   4  -5   3  736.32   24.65 
   4  -5   3  732.55   28.73 
   4   5   3  744.99   28.17 
  -5   5   3    6.39    4.48 
  -5   5  -3    4.22    1.70 
   5  -5  -3   -1.65    2.83 
  -5   5   3    1.91    2.18 
  -5   5   3    4.38    3.36 
  -5   5  -3    2.31    1.24 
   5   5   3    8.10    5.06 
  -5  -5  -3   -0.50    2.68 
  -5  -5   3    5.90    3.56 
   5   5  -3    5.45    3.99 
   5  -5   3    4.77    3.59 
  -5  -5   3   11.14    3.10 
  -5   5  -3    3.66    3.17 
  -5  -5  -3    7.53    4.27 
   5  -5   3    3.04    3.34 
   5  -5   3    7.44    4.59 
  -5  -5   3    2.98    4.35 
  -5   5   3    4.76    2.43 
   5   5  -3   13.38    4.70 
   5   5   3   -2.29    3.11 
   5  -5  -3    4.75    4.53 
  -6   5   3  105.22    6.46 
   6   5   3  139.92   15.72 
   6   5  -3  113.37   10.01 
   6  -5  -3   98.14   10.36 
   6  -5   3  123.47   13.84 
   6  -5  -3  120.07   13.61 
   6  -5   3   99.95    8.65 
  -6   5   3  126.61   12.47 
   6   5   3  132.00   12.05 
  -6  -5   3  116.13   11.01 
  -6   5   3  109.88    8.50 
  -6   5  -3  108.84    9.41 
   6  -5   3  109.26    9.48 
  -6  -5   3  124.42   14.07 
  -6  -5  -3  102.70    8.78 
  -6  -5  -3  117.56   13.15 
  -6   5   3  107.71    6.80 
   6   5  -3  109.91   12.02 
   7  -5   3   -2.84    4.17 
  -7   5   3    0.10    4.46 
   7   5   3    4.21    5.83 
   7   5  -3   -5.01    2.94 
   7  -5   3   -0.81    3.46 
  -7  -5  -3    1.91    5.09 
  -7   5   3   -1.02    2.56 
  -7  -5   3   -3.55    2.43 
  -7  -5   3    6.37    5.55 
  -7   5  -3    7.28    4.62 
   7  -5  -3    2.33    5.62 
   7  -5  -3    2.76    3.81 
   7   5   3   -2.93    3.18 
  -7  -5  -3    1.68    2.89 
   7   5  -3   -4.59    4.08 
   8   5  -3  276.86   18.53 
   8   5   3  275.92   20.38 
  -8  -5   3  265.35   19.24 
   8  -5  -3  252.63   18.93 
  -8  -5   3  255.50   15.57 
   8  -5   3  282.14   15.60 
  -8  -5  -3  276.37   15.51 
   8  -5   3  291.39   19.29 
  -8   5   3  277.95   12.79 
   8  -5  -3  248.91   16.72 
  -8   5   3  279.79   17.46 
   8   5   3  280.92   17.47 
  -8  -5  -3  242.91   18.15 
  -8   5  -3  259.28   15.96 
   9  -5  -3    5.34    5.95 
  -9  -5  -3    1.20    3.55 
  -9   5   3    0.85    5.62 
   9   5   3    0.32    4.56 
   9   5  -3    2.09    5.18 
  -9  -5   3   11.23    7.77 
   9  -5   3   -8.75    4.54 
  -9  -5  -3    1.07    6.49 
  -9  -5   3    3.04    3.74 
   9   5   3   10.49    7.49 
   9  -5  -3    2.44    4.97 
  -9   5   3    5.10    3.15 
 -10  -5   3   35.94    7.33 
  10  -5  -3   47.24   10.29 
 -10   5  -3   27.88    3.93 
 -10   5   3   48.60   13.16 
  10   5   3   32.95   11.15 
 -10  -5  -3   25.66    9.66 
 -10   5   3   39.85    6.02 
 -10  -5  -3   26.74    6.64 
  10   5  -3   31.90    9.04 
  10   5   3   33.12    9.02 
 -10   5  -3   39.33   10.09 
 -10  -5   3   52.77   12.85 
  10  -5   3   34.32   10.19 
 -11   5   3   -0.08    3.10 
  11   5   3   -3.72    6.34 
  11  -5  -3    0.83    4.86 
 -11  -5   3   -4.52    3.58 
 -11  -5  -3   -1.48    6.29 
  11   5   3   -3.65    4.91 
 -11  -5   3    4.56    7.40 
 -11  -5  -3   -2.04    4.45 
  11   5  -3    0.92    5.87 
 -11   5  -3   -0.15    2.66 
 -11   5   3   -7.13    7.03 
 -11   5  -3   12.45    7.19 
   0  -6  -3   20.54    5.02 
   0  -6   3   16.17    4.19 
   0  -6  -3    9.95    2.95 
   0   6   3   11.58    4.39 
   0   6  -3    4.52    3.70 
   0   6  -3   12.80    3.25 
   0  -6  -3    6.06    4.16 
   1  -6  -3  106.04    9.14 
  -1   6   3  131.26    9.22 
  -1  -6   3  117.09    8.07 
  -1  -6   3  113.13    7.49 
   1   6  -3  121.66    9.39 
   1  -6  -3  104.33    8.88 
  -1  -6  -3  110.40    8.16 
   1   6   3  119.14    9.87 
  -1   6  -3  132.34    7.91 
  -1  -6  -3  119.53    7.47 
   1  -6   3  106.74    7.94 
   1   6  -3  119.43    7.40 
   1  -6   3  109.31    7.15 
  -1  -6  -3  114.74    5.46 
  -1   6  -3  114.13    9.08 
  -1  -6  -3  114.22    8.43 
  -1  -6   3  121.16    8.07 
  -2   6   3    9.10    2.95 
  -2  -6   3   10.94    3.60 
   2   6   3    6.49    2.81 
  -2   6  -3    7.01    2.71 
   2   6  -3    8.67    3.45 
  -2  -6  -3    6.79    3.20 
  -2  -6  -3   13.31    4.61 
   2  -6  -3   11.68    2.36 
   2  -6  -3    9.42    4.99 
   2   6   3    7.37    4.62 
   2  -6   3    5.63    3.58 
  -2  -6   3   10.92    3.96 
  -2   6   3    6.30    3.94 
   2   6  -3   11.33    4.51 
  -2  -6   3    7.65    3.69 
   2  -6  -3   23.77    5.82 
  -2   6  -3    8.92    4.47 
   3   6  -3   66.52    7.31 
   3  -6   3   42.75    6.41 
  -3  -6  -3   62.94    8.17 
   3  -6  -3   62.50    9.21 
  -3   6   3   51.72    5.48 
  -3  -6   3   65.27    8.03 
   3   6   3   50.08    5.06 
  -3   6  -3   52.77    4.36 
   3   6   3   63.36    6.29 
  -3  -6   3   56.75    8.16 
   3  -6   3   63.52    6.86 
  -3  -6  -3   48.68    6.35 
   3   6   3   32.40    7.85 
  -3   6   3   64.65    7.36 
  -3   6  -3   56.03    4.75 
  -3  -6   3   60.98    6.62 
   3   6  -3   50.32    7.48 
   3   6   3   59.91    8.53 
  -3   6  -3   48.49    5.67 
   3  -6  -3   53.97    5.31 
   3  -6  -3   47.40    8.34 
   3  -6   3   57.96    8.87 
   4   6  -3    3.81    3.71 
  -4  -6  -3    6.71    4.49 
  -4  -6   3    2.11    3.27 
   4   6   3    5.10    4.16 
   4  -6   3    2.48    3.22 
  -4   6  -3    5.45    1.94 
  -4  -6   3   13.36    3.65 
   4   6   3   -2.59    2.89 
   4  -6  -3   18.33    6.01 
   4   6  -3   14.41    4.66 
   4  -6  -3    3.54    3.32 
  -4  -6  -3    4.73    3.44 
  -4   6   3    9.69    3.94 
  -4  -6   3   10.59    5.13 
  -4   6  -3    9.09    2.65 
   4   6   3   11.31    5.46 
   4  -6   3    7.11    3.97 
   4  -6   3   14.21    5.27 
  -4   6  -3    7.44    3.28 
   5  -6  -3   85.26   11.83 
  -5   6  -3   67.47    4.82 
  -5   6  -3   70.82    4.15 
   5   6   3   91.46    9.51 
   5   6   3   84.49   12.09 
  -5   6  -3   83.87    8.53 
  -5  -6   3  101.50   11.89 
   5  -6   3   74.75   11.14 
  -5   6   3   79.95    6.31 
   5   6  -3   82.25    9.96 
  -5  -6   3   63.24    8.81 
  -5  -6  -3   76.72    8.57 
   5  -6   3   84.80    8.97 
   5  -6   3   94.49    9.15 
  -5   6   3   77.57    5.86 
  -5   6   3   85.72    7.46 
   5   6  -3   81.81    9.42 
  -5  -6   3   78.05    6.40 
  -5  -6  -3   93.31   11.28 
  -5   6   3   91.03   11.19 
   5  -6  -3   89.30    8.80 
   6   6   3   19.83    6.58 
   6   6  -3   22.06    5.72 
  -6  -6  -3    7.24    5.96 
   6  -6   3   -2.07    3.65 
   6   6   3   -0.57    3.77 
   6  -6  -3   14.00    5.84 
  -6   6   3    3.97    4.75 
  -6   6  -3    3.87    3.99 
  -6  -6   3   10.13    5.54 
   6  -6   3   19.47    6.58 
  -6   6   3    3.41    3.89 
   6  -6   3   10.55    4.87 
   6   6  -3    4.75    4.43 
   6  -6  -3    4.39    4.39 
  -6  -6   3    5.59    4.05 
  -6  -6  -3    1.24    3.49 
  -6   6   3    6.13    2.94 
  -6   6  -3    4.06    1.49 
   7   6   3   24.96    6.87 
  -7   6   3   31.17    8.24 
   7   6  -3   33.39    8.00 
  -7   6  -3   31.59    7.50 
   7  -6  -3   39.97   10.30 
  -7  -6   3   35.21    7.32 
  -7  -6  -3   31.84    8.75 
   7  -6   3   27.74    6.70 
   7   6  -3   29.67    7.74 
  -7   6   3   31.10    4.81 
  -7  -6   3   25.00    8.75 
  -7  -6  -3   35.32    6.85 
   7  -6   3   22.97    7.27 
   7   6   3   28.61    9.18 
   7  -6   3   34.66    8.96 
   7  -6  -3   26.90    7.25 
   8   6  -3    2.22    5.42 
  -8   6   3    0.47    2.82 
  -8   6  -3   -3.76    4.56 
  -8  -6  -3    3.98    6.13 
  -8  -6   3    8.71    4.39 
   8  -6   3    2.25    3.78 
   8  -6   3   19.35    6.85 
  -8   6   3   -3.23    5.35 
   8  -6  -3   -5.55    3.59 
   8   6   3    2.63    5.09 
   8  -6  -3    9.62    5.89 
  -8  -6   3    0.47    5.72 
  -8  -6  -3   -0.79    3.58 
   8   6   3   14.83    6.99 
  -9   6  -3   -4.82    5.14 
   9  -6  -3    8.83    5.75 
   9   6   3    4.74    5.60 
  -9   6   3   22.14    8.13 
   9   6   3   16.80    7.71 
  -9  -6  -3   13.29    7.94 
  -9   6   3    9.36    3.89 
   9  -6   3   10.29    7.31 
   9   6  -3   15.95    7.44 
  -9  -6   3   14.72    5.63 
   9  -6  -3   12.13    7.89 
  -9  -6   3    9.22    7.51 
  -9  -6  -3   14.40    5.31 
  10  -6   3   11.97    6.75 
  10   6   3   20.61    7.98 
 -10  -6   3    8.89    8.20 
  10   6   3    7.65    6.40 
 -10   6   3    4.96    3.51 
  10   6  -3    8.68    6.52 
 -10  -6  -3    6.71    6.76 
 -10   6  -3    5.59    6.77 
  10  -6  -3   10.95    6.16 
  10  -6  -3    9.33    6.77 
 -10  -6  -3   -1.31    3.84 
 -10  -6   3   -1.98    3.73 
 -11   6   3   30.52   11.85 
 -11  -6  -3   18.83    9.36 
  11   6   3   14.42    8.93 
 -11   6  -3   18.08    8.39 
 -11  -6   3   19.26    9.24 
  11   6  -3   17.76    8.62 
 -11   6   3   11.93    4.14 
 -11  -6   3    5.66    5.01 
 -11  -6  -3   18.74    6.46 
  11   6   3   33.94    9.48 
   0  -7  -3    5.89    3.92 
   0   7  -3    3.05    3.51 
   0  -7  -3   -0.30    2.98 
   0   7   3    3.38    3.81 
   0  -7   3    3.81    3.47 
   0  -7   3    9.97    3.62 
   0  -7  -3    2.07    2.08 
   0   7  -3    0.01    2.10 
  -1  -7  -3    1.57    2.09 
   1   7   3    7.50    4.85 
  -1   7  -3    9.25    4.52 
   1  -7  -3   -1.11    2.77 
   1  -7   3    8.37    3.47 
  -1   7   3    6.34    4.12 
  -1  -7   3    5.65    3.16 
  -1  -7  -3    0.58    1.37 
  -1   7  -3    8.42    2.94 
   1  -7   3    0.32    2.72 
   1   7  -3    8.39    4.46 
  -1  -7   3    4.21    3.09 
  -1  -7  -3    3.95    3.86 
  -1  -7  -3    0.86    3.24 
  -1  -7   3    0.29    2.52 
   1   7  -3    1.24    2.23 
   1  -7  -3    4.92    3.96 
  -2  -7  -3   19.84    4.49 
   2   7  -3   20.21    4.44 
  -2  -7   3   17.04    4.44 
  -2  -7  -3   20.12    5.65 
   2   7  -3   17.84    5.68 
  -2  -7   3   15.37    4.94 
  -2   7   3   14.94    3.67 
  -2   7   3   25.85    6.01 
   2  -7  -3   15.25    5.31 
  -2   7  -3   25.37    4.21 
   2  -7  -3   25.20    7.27 
  -2  -7  -3   23.14    4.91 
   2  -7   3   22.56    5.16 
   2   7   3   11.92    6.10 
  -2  -7   3   18.14    4.54 
   2  -7   3   14.81    4.87 
  -2   7  -3   18.33    5.53 
  -2   7  -3   17.67    3.97 
   3   7  -3   -0.95    2.41 
   3   7   3    3.59    2.63 
  -3  -7   3    1.22    2.78 
  -3   7  -3    6.79    4.78 
   3   7   3    3.33    4.55 
   3  -7   3   -1.02    2.67 
   3  -7  -3    0.59    4.03 
   3   7  -3    1.44    3.59 
   3  -7   3   -1.88    2.23 
  -3   7  -3    3.65    2.49 
  -3  -7   3    0.24    2.39 
   3   7   3    4.59    2.61 
  -3  -7  -3    1.34    2.33 
  -3  -7  -3    0.67    3.45 
  -3   7   3    2.00    3.05 
   3  -7  -3    4.83    2.21 
   3   7   3   -1.03    2.66 
   3  -7  -3   -1.12    3.15 
  -3  -7   3    3.09    3.70 
  -3   7  -3   -1.72    1.66 
   4  -7  -3    2.04    4.39 
   4  -7  -3    5.71    5.33 
  -4   7  -3    0.55    4.04 
  -4   7   3    7.43    4.04 
   4   7   3   -2.13    2.71 
   4   7  -3    2.37    3.95 
   4  -7   3    5.04    3.66 
   4   7   3    3.35    4.55 
   4  -7  -3    3.66    2.98 
  -4   7  -3    2.76    2.04 
   4  -7   3    5.48    4.11 
  -4  -7  -3    3.40    3.25 
  -4  -7   3    6.06    3.15 
  -4  -7   3    3.08    3.04 
  -4  -7  -3    3.88    3.94 
   4   7  -3    7.48    3.70 
  -4   7  -3    3.25    2.87 
  -4  -7   3    2.76    4.67 
  -5   7  -3    1.86    1.97 
  -5  -7   3    3.77    2.89 
   5  -7  -3    1.25    3.44 
   5   7  -3    1.62    3.91 
  -5  -7   3   -2.42    3.59 
  -5   7   3    2.76    3.55 
   5  -7   3    3.38    3.88 
   5   7  -3    2.19    3.91 
  -5   7  -3    3.16    2.03 
   5  -7   3   -2.19    2.76 
  -5  -7   3    2.23    3.20 
   5  -7   3   12.72    5.74 
   5   7   3   -0.44    4.67 
  -5  -7  -3    2.65    4.46 
  -5  -7  -3    0.23    3.31 
   5   7   3    2.50    3.36 
   5  -7  -3    1.88    4.42 
  -5   7  -3   -5.03    2.64 
   6   7  -3   -0.64    3.92 
  -6   7  -3    1.71    1.65 
  -6  -7  -3   -1.59    4.44 
   6  -7   3   -0.16    4.18 
   6   7   3   -2.22    3.27 
  -6   7  -3   -0.26    1.88 
  -6   7  -3   -0.18    3.47 
   6  -7  -3    3.45    4.07 
  -6  -7  -3    5.61    3.26 
   6   7   3    2.97    4.53 
  -6  -7   3    2.08    4.91 
   6   7  -3    0.69    3.84 
  -6   7   3    1.82    4.16 
   6  -7   3    4.29    3.59 
  -6   7   3   -0.08    4.16 
   6  -7   3   -0.30    3.81 
  -6   7   3    2.08    2.44 
   6  -7  -3    2.04    4.14 
  -6  -7   3   -2.02    2.82 
  -7   7   3    2.95    4.96 
   7  -7  -3    0.12    4.10 
   7   7   3   -1.08    4.67 
  -7   7  -3   -0.44    1.80 
   7  -7   3    2.86    4.58 
   7  -7  -3   -4.02    4.66 
  -7  -7   3   -1.74    3.21 
  -7  -7   3   -1.17    5.25 
  -7   7  -3   -2.04    3.96 
   7   7  -3    1.58    4.50 
   7  -7   3    8.66    6.00 
   7   7  -3   -4.73    3.83 
  -7  -7  -3    0.82    5.11 
   7  -7   3    6.40    4.40 
  -7  -7  -3   -0.71    3.03 
  -7   7   3    1.09    2.54 
   7   7   3    1.03    4.00 
   8   7   3   11.63    6.94 
   8  -7  -3   13.34    7.14 
   8   7  -3   14.82    6.78 
  -8  -7   3    3.33    3.89 
  -8  -7  -3    0.74    6.04 
   8   7   3   -1.05    4.38 
  -8  -7   3   13.24    7.59 
  -8   7  -3    3.81    5.29 
  -8   7   3    6.88    3.81 
  -8  -7  -3    5.49    4.36 
  -8   7   3    9.30    6.20 
   8  -7   3   -0.66    3.90 
   8  -7   3    9.08    6.10 
  -9  -7   3   -6.53    5.14 
   9  -7   3    2.74    5.82 
  -9  -7  -3   -2.65    3.35 
   9   7   3   -2.02    5.74 
   9   7   3   -1.26    4.32 
  -9   7   3    3.52    3.34 
  -9  -7  -3   -4.32    5.51 
  -9  -7   3    1.35    3.43 
   9  -7  -3   14.90    7.49 
  -9   7  -3    3.64    5.52 
   9   7  -3   -2.88    4.99 
  -9   7   3    4.51    6.08 
 -10  -7   3   -1.78    6.54 
 -10  -7  -3    2.62    4.46 
 -10   7   3    2.75    3.08 
  10   7  -3    3.36    5.87 
  10  -7  -3    5.69    6.96 
 -10  -7   3   -2.76    3.79 
  10   7   3    5.98    7.00 
  10  -7   3   12.54    7.43 
  10   7   3    8.38    6.42 
 -10  -7  -3    0.84    6.13 
 -11  -7   3    1.16    8.07 
 -11  -7   3    4.27    4.73 
 -11   7   3    5.14    7.78 
  11   7  -3    4.57    5.97 
 -11  -7  -3    7.38    7.25 
 -11  -7  -3    1.24    4.00 
  11   7   3   13.70    9.17 
  11   7   3   11.78    6.96 
 -11   7   3    0.35    3.17 
   0   8  -3   30.84    7.26 
   0  -8   3   32.73    6.43 
   0   8   3   32.34    7.60 
   0  -8  -3   21.06    4.63 
   0  -8  -3   21.47    6.23 
   0   8  -3   25.35    4.39 
  -1  -8  -3   71.97    8.69 
  -1  -8  -3   68.18    7.14 
   1  -8   3   66.64    8.03 
   1   8  -3   74.26   10.17 
   1  -8  -3   76.18   10.26 
   1  -8  -3   69.05    9.89 
  -1  -8  -3   54.35    3.79 
  -1   8  -3   73.99    6.64 
   1   8   3   81.98   11.04 
  -1   8   3   74.80    9.96 
  -1   8  -3   63.62    9.30 
   1   8  -3   70.19    6.28 
  -1  -8   3   76.29    8.38 
  -1  -8   3   64.35    7.48 
  -1  -8  -3   69.15    8.70 
   1  -8   3   56.66    8.12 
  -1  -8   3   71.08    8.21 
  -2  -8  -3   15.36    5.55 
   2   8  -3   12.29    3.85 
  -2  -8  -3   10.35    2.94 
  -2   8   3   13.52    5.63 
  -2  -8   3   20.07    5.30 
  -2  -8  -3   17.55    5.32 
   2  -8   3    3.41    3.87 
   2  -8  -3   18.92    6.64 
   2   8  -3   20.82    6.47 
  -2  -8   3   17.39    4.90 
  -2  -8  -3    9.80    3.65 
  -2   8  -3   25.41    6.38 
   2   8   3   18.39    6.88 
   2  -8  -3   35.23    7.87 
  -2  -8   3   25.30    5.48 
   3   8  -3   95.24    8.95 
  -3  -8  -3  102.63    9.88 
  -3  -8   3  101.65    8.28 
  -3  -8  -3  119.17    7.98 
  -3   8   3  106.17    9.25 
  -3  -8   3  105.40   10.92 
   3   8  -3  110.48   12.04 
   3  -8  -3  131.08   13.85 
  -3  -8   3  104.87   10.62 
   3  -8  -3  103.19   12.41 
  -3  -8  -3  124.31   12.22 
   3   8   3  135.04   14.55 
   3  -8   3  104.01   10.36 
  -3   8  -3  102.76   11.86 
  -3   8  -3  104.88    7.65 
   3   8   3   97.71    7.05 
   3  -8   3   95.06    8.51 
  -4   8  -3   28.85    4.82 
   4   8  -3   34.63    7.43 
  -4  -8  -3   18.32    5.78 
  -4  -8   3   35.19    7.92 
   4   8  -3   15.68    5.34 
  -4  -8   3   17.56    5.38 
  -4  -8   3   23.94    5.33 
   4   8   3   20.20    5.51 
  -4   8   3   18.90    6.10 
   4  -8   3   17.35    5.39 
  -4  -8  -3   33.95    7.89 
   4   8   3   25.27    7.90 
   4  -8  -3   29.86    7.93 
  -4   8  -3   24.58    7.18 
   5   8  -3   23.80    6.58 
   5  -8   3   25.47    6.75 
  -5   8  -3   27.79    5.73 
  -5  -8   3   19.91    5.76 
  -5  -8  -3   20.45    5.94 
  -5   8  -3   21.90    7.92 
   5   8  -3   26.14    7.71 
  -5  -8  -3   17.06    7.18 
  -5   8   3   22.53    6.11 
   5   8   3   20.08    7.74 
   5  -8  -3   29.17    8.62 
   5  -8  -3   20.78    6.83 
  -5  -8   3   22.44    7.37 
   5  -8   3   28.04    6.50 
   5   8   3   13.08    4.96 
  -6   8  -3   36.20    8.80 
   6  -8   3   19.50    5.83 
  -6   8  -3   11.83    4.78 
  -6   8   3   13.62    5.05 
  -6  -8  -3   15.28    6.59 
   6   8   3    7.29    5.14 
  -6   8   3   19.37    7.10 
   6  -8  -3   20.68    6.23 
  -6  -8   3    7.76    5.26 
   6  -8   3    7.18    4.99 
   6   8   3   37.39    8.54 
   6   8  -3    8.95    5.43 
  -6  -8   3    7.20    4.51 
  -6  -8  -3    8.67    4.92 
  -6   8   3   10.84    3.71 
   6   8  -3   30.68    6.63 
  -7  -8  -3   39.14   10.29 
  -7   8   3   29.76    8.25 
   7   8  -3   41.99    9.02 
  -7  -8  -3   36.88    7.61 
  -7  -8   3   39.11    8.28 
   7  -8   3   31.43    7.60 
   7   8  -3   38.29    8.64 
   7   8   3   35.71    7.93 
   7  -8  -3   60.66   12.29 
  -7  -8   3   32.29    9.14 
  -7   8   3   31.94    5.26 
   7   8   3   41.32   10.90 
   8  -8  -3   32.48    8.89 
  -8   8   3    7.08    7.13 
  -8   8   3   15.90    4.54 
  -8  -8  -3   23.17    8.52 
   8   8   3   16.98    7.06 
   8   8   3   26.12    8.59 
  -8  -8  -3    9.56    5.69 
  -8  -8   3   15.66    6.09 
  -8  -8   3   19.70    7.79 
   8   8  -3    4.66    5.47 
   8  -8   3   16.22    5.98 
  -9  -8  -3   12.94    5.60 
  -9   8   3   27.14    9.26 
  -9  -8  -3   25.80    9.23 
   9   8   3   29.16    9.87 
   9  -8  -3   10.86    7.43 
  -9   8   3   13.26    4.51 
   9   8   3   12.46    6.30 
   9  -8   3   21.45    6.85 
  -9  -8   3    8.28    7.10 
  -9  -8   3   21.83    6.51 
   9   8  -3    9.57    7.19 
 -10   8   3    7.94    3.60 
 -10  -8  -3   -0.21    6.06 
  10  -8  -3   17.94    8.08 
  10   8   3   31.32    9.09 
  10   8  -3   11.03    7.09 
 -10  -8   3    7.36    7.55 
 -10  -8  -3    7.60    5.61 
  10   8   3    2.53    5.75 
 -10  -8   3   -0.41    4.69 
   0   9  -3   87.15   11.72 
   0  -9   3   89.66    9.98 
   0   9  -3   83.42    6.13 
   0  -9  -3   83.00   10.38 
   0  -9   3   87.35    7.58 
   0  -9  -3   97.32   11.24 
   0   9   3   90.41   11.58 
   1   9  -3    3.74    2.83 
   1  -9  -3    3.70    4.11 
  -1  -9   3    2.99    3.74 
   1   9   3    4.66    5.46 
  -1  -9  -3    1.42    3.97 
  -1  -9   3    5.85    3.61 
   1  -9   3    4.66    4.15 
   1   9  -3    8.31    4.98 
  -1   9  -3   -0.96    2.53 
   1  -9   3    2.76    3.94 
  -1   9   3    5.24    4.72 
  -1  -9  -3    3.41    4.31 
   1  -9  -3    0.13    4.25 
  -1   9  -3   -0.14    4.27 
   2   9  -3  200.50   14.60 
  -2  -9  -3  210.38   12.36 
  -2  -9   3  191.91   12.32 
  -2  -9  -3  172.90   12.90 
  -2  -9   3  213.79   12.35 
  -2   9  -3  187.17   14.04 
   2   9   3  197.14   15.52 
  -2  -9  -3  206.48    8.71 
  -2   9   3  197.42   13.34 
   2  -9   3  187.10   12.90 
   2  -9   3  197.66   12.76 
  -2  -9  -3  179.31   11.56 
   2   9  -3  214.86   10.67 
   2  -9  -3  186.34   14.30 
   2  -9  -3  187.97   14.46 
   3  -9   3   -5.72    2.44 
  -3   9  -3    3.54    4.59 
  -3   9   3    2.23    4.29 
   3   9   3   -0.42    2.74 
   3  -9   3    8.37    5.27 
  -3  -9  -3   -1.72    3.49 
   3   9  -3    0.52    4.28 
   3  -9  -3    1.67    4.36 
  -3  -9   3    0.89    3.83 
   3   9  -3    0.13    3.16 
   3   9   3    7.35    5.68 
  -3  -9   3   -1.37    2.29 
  -3  -9   3    2.96    3.67 
   3  -9  -3   -3.40    3.73 
  -3  -9  -3    1.27    2.78 
  -3  -9  -3    0.57    3.97 
  -4  -9   3   90.61   11.55 
   4  -9   3  142.73   12.77 
   4   9   3  115.04   14.65 
  -4  -9  -3   92.53   10.38 
  -4  -9  -3  129.10   13.77 
   4   9   3  103.82    8.34 
  -4   9   3  116.45   12.12 
   4  -9   3   99.56   11.39 
   4   9  -3  106.14   10.31 
   4  -9  -3  101.97   13.03 
   4   9  -3  108.69   12.90 
  -4  -9   3   95.02    9.13 
  -4  -9   3  111.01   11.70 
  -4   9  -3  121.89   13.80 
   4  -9  -3  142.13   14.56 
  -5   9   3   -2.85    4.01 
   5  -9  -3    3.60    4.59 
   5   9   3    0.40    3.57 
   5  -9   3    5.00    4.47 
   5  -9   3   -1.49    3.49 
   5   9  -3    8.20    5.25 
  -5  -9   3   -0.26    4.21 
   5   9   3    0.64    5.17 
  -5  -9   3    2.55    3.36 
   5   9  -3    0.23    3.93 
  -5  -9  -3   -0.86    3.29 
  -5  -9  -3    4.25    4.83 
  -5   9  -3    7.30    5.98 
   5  -9  -3    4.27    5.05 
  -6   9   3   54.60   11.29 
  -6  -9  -3   60.01   11.80 
  -6   9   3   54.05    6.54 
  -6   9   3   58.76    9.84 
  -6  -9   3   61.22   10.00 
   6   9  -3   57.02    9.73 
   6  -9   3   53.84    9.51 
  -6   9  -3   61.46   11.87 
  -6  -9   3   61.92   11.71 
   6   9  -3   62.55   10.77 
   6   9   3   44.95   10.99 
   6   9   3   50.22    8.66 
   6  -9  -3   57.62   12.09 
  -6  -9  -3   62.98   10.02 
  -7   9  -3   13.09    7.83 
   7  -9  -3    0.91    5.87 
   7   9  -3   -3.78    4.12 
   7  -9   3    2.06    4.03 
  -7   9   3    1.56    5.30 
  -7   9   3    2.64    3.39 
   7   9  -3   -1.65    4.70 
  -7  -9  -3    0.12    5.63 
   7   9   3    0.10    5.66 
  -7  -9   3    4.48    4.40 
  -7  -9   3    1.44    5.31 
   7   9   3   -0.67    4.38 
  -7  -9  -3   -1.19    4.05 
  -8   9   3   80.38    7.62 
   8  -9   3   75.79   12.00 
  -8  -9  -3   65.23   10.70 
   8   9   3   61.97   10.54 
   8  -9  -3  104.12   15.77 
  -8   9   3   62.90   12.32 
  -8  -9   3   75.53   14.00 
  -8  -9   3   68.04   10.97 
  -8   9  -3   80.91   14.71 
   8   9  -3   78.78   12.16 
   8   9   3   58.96   12.74 
  -8  -9  -3   55.58   12.32 
  -9   9  -3    0.23    7.78 
  -9  -9  -3    3.56    4.12 
  -9  -9   3    6.24    4.69 
  -9  -9  -3    1.06    6.63 
   9   9   3   10.96    7.01 
   9   9   3   -3.04    5.55 
  -9  -9   3    6.78    6.90 
  -9   9   3   -1.81    3.44 
   9  -9   3    2.00    5.11 
  -9   9   3   -1.08    6.23 
   9  -9  -3    2.97    5.64 
   9   9  -3   -2.60    4.75 
 -10  -9  -3   15.72    9.17 
 -10  -9   3    4.27    7.61 
  10   9   3    7.64    6.16 
 -10  -9   3   11.52    5.62 
  10   9  -3   12.67    7.43 
 -10   9   3   27.58    9.60 
  10   9   3   11.78    7.78 
 -10   9   3    8.60    4.08 
 -10  -9  -3   14.20    6.28 
  10  -9  -3   10.93    8.66 
   0  10   3   25.24    7.61 
   0  10  -3   53.22   10.17 
   0 -10   3   31.72    7.67 
   0 -10  -3   39.79    8.62 
   1 -10   3  108.13   11.16 
  -1 -10   3  103.88   10.81 
   1  10   3   87.60   13.03 
  -1 -10  -3   87.61   10.82 
  -1  10  -3   86.40   12.48 
  -1  10   3   70.82   11.07 
   1 -10   3   85.17   10.81 
   1 -10  -3   90.81   12.16 
   1 -10  -3  100.02   12.41 
  -1 -10  -3   94.42   11.46 
  -1 -10   3  102.57   10.75 
   1  10  -3   83.29   12.65 
   2 -10  -3   41.82    9.42 
   2  10  -3   40.81    8.44 
  -2 -10  -3   23.59    7.01 
   2  10   3   50.63   11.02 
  -2  10   3   33.29    8.31 
  -2 -10  -3   41.88    8.32 
  -2  10  -3   23.12    7.16 
   2 -10   3   35.45    8.08 
   2  10  -3   39.30    6.03 
  -2 -10   3   28.79    6.61 
  -3 -10  -3   47.79    9.51 
   3 -10  -3   46.67    9.77 
  -3 -10   3   46.93    9.06 
   3  10  -3   39.41    9.06 
  -3  10  -3   32.78    9.20 
   3 -10   3   50.65    8.96 
   3 -10  -3   28.63    8.43 
   3  10   3   34.29   10.27 
  -3  10   3   42.60    9.19 
  -3 -10   3   39.77    7.25 
   3 -10   3   54.61    9.28 
   3  10  -3   42.32    6.65 
  -4  10  -3   38.88    8.82 
   4 -10   3   36.25    7.20 
   4  10  -3   21.08    6.17 
  -4  10   3   24.76    7.64 
  -4 -10   3   28.29    6.07 
   4 -10   3   21.15    6.55 
   4  10   3   21.08    7.59 
  -4 -10   3   30.89    7.66 
   4 -10  -3   25.84    8.55 
  -4 -10  -3   40.35    9.37 
   4  10  -3   49.38    9.61 
   4 -10  -3   41.25    8.66 
   5 -10  -3   98.12   14.79 
  -5 -10  -3   62.79    9.84 
   5  10  -3   68.44   12.08 
   5  10  -3   51.41    8.66 
  -5  10  -3   62.09   12.12 
  -5 -10   3   66.67   11.27 
   5 -10  -3   62.88   11.40 
  -5  10   3   70.23   11.11 
   5  10   3   72.82   13.26 
   5 -10   3   61.36   10.08 
  -5 -10  -3   46.23   10.66 
   6 -10   3   22.68    6.84 
   6  10   3   11.38    5.46 
  -6 -10  -3   17.05    6.84 
  -6 -10   3   28.50    7.23 
   6  10  -3   36.45    7.57 
  -6  10   3   16.68    4.83 
  -6  10  -3   36.44    9.34 
   6  10  -3   25.38    7.46 
   6  10   3   35.15    9.01 
   6 -10  -3   47.93    9.30 
  -6 -10  -3   31.81    9.06 
  -6 -10   3   18.85    7.15 
  -7 -10   3   16.97    6.62 
  -7  10  -3   26.62    9.95 
  -7  10   3   22.22    8.20 
   7  10   3   28.34    9.97 
   7  10  -3   17.87    6.73 
   7  10  -3   29.93    8.16 
  -7 -10   3   16.99    8.03 
  -7 -10  -3   25.95    9.46 
  -7 -10  -3   19.95    6.69 
  -7  10   3   13.70    4.56 
   7  10   3   34.03    8.16 
   7 -10  -3   29.19    9.88 
   7 -10   3   23.99    7.60 
  -8 -10   3   34.03    8.55 
   8  10   3   23.52    8.54 
   8  10   3   11.64    6.85 
  -8  10  -3   25.75    9.52 
   8 -10   3   17.02    6.67 
  -8  10   3   13.24    4.59 
   8 -10  -3   30.21    9.02 
  -8  10   3   21.17    8.48 
   8  10  -3   20.57    7.65 
  -8 -10  -3   16.82    7.20 
  -8 -10  -3    9.86    7.13 
  -8 -10   3   17.63    7.53 
  -9 -10  -3   15.59    6.10 
  -9 -10  -3    8.70    7.46 
  -9 -10   3   14.92    6.36 
   9  10   3    1.65    7.31 
   9  10   3   20.56    7.45 
   9 -10   3   17.23    7.26 
  -9  10   3   10.30    4.72 
   9 -10  -3   19.96    8.68 
  -9  10   3   21.53    9.38 
  -9 -10   3   15.93    8.42 
   9  10  -3   12.79    6.83 
  -9  10  -3   11.63    9.33 
   0  11   3    6.53    5.73 
   0 -11  -3   -0.29    4.78 
   0 -11   3    2.08    4.70 
   0 -11   3    0.63    4.22 
   0 -11  -3    2.27    4.77 
   0  11  -3    9.41    6.17 
   1 -11  -3   -1.26    4.98 
  -1 -11  -3   -0.67    4.45 
  -1  11  -3    8.41    6.57 
   1 -11   3   24.22    6.45 
  -1 -11   3   10.49    5.12 
  -1 -11  -3   10.98    5.56 
   1 -11  -3    6.82    5.10 
   1  11  -3    5.27    5.62 
   1  11   3   11.38    6.84 
  -1 -11   3    4.44    4.36 
  -1  11   3    2.99    5.03 
   1 -11   3    1.05    4.87 
  -2  11  -3   59.72   11.71 
   2  11  -3   91.56   13.64 
  -2 -11  -3   81.02   11.71 
  -2 -11   3   71.72   10.01 
  -2  11   3   74.55   11.68 
   2 -11   3   99.43   12.31 
   2 -11  -3   88.88   13.19 
  -2 -11  -3   72.84    9.86 
   2  11   3   79.61   13.90 
   2 -11  -3   63.33   11.77 
   2 -11   3   71.08   11.18 
  -2 -11   3   61.53    9.74 
   3  11   3   10.68    7.55 
   3 -11  -3   -8.73    3.70 
  -3  11   3    4.64    5.38 
  -3 -11  -3   -1.19    4.24 
   3 -11   3    2.24    4.48 
  -3  11  -3   -0.63    4.33 
   3 -11   3    8.41    5.90 
  -3 -11   3    7.73    5.44 
  -3 -11   3    2.10    4.38 
   3  11  -3   11.02    6.22 
   3 -11  -3    2.54    5.52 
   4  11   3   -2.48    5.51 
   4 -11  -3   -4.36    4.42 
  -4  11  -3   -1.91    5.37 
   4 -11  -3   -1.15    4.95 
   4 -11   3    4.22    4.56 
   4  11  -3    2.96    4.92 
  -4 -11   3   -1.65    4.78 
  -4  11   3   -1.35    5.33 
  -4 -11  -3   -0.82    4.71 
  -5  11  -3    5.27    5.90 
  -5 -11  -3   15.78    7.13 
  -5  11   3    9.59    6.59 
   5  11  -3   15.21    6.90 
   5 -11  -3    4.10    5.64 
   5 -11  -3    6.54    5.13 
   5  11   3    7.49    6.68 
   5 -11   3    5.61    5.12 
   5  11  -3    5.77    4.67 
  -5 -11   3   14.60    6.55 
  -6 -11  -3   23.50    8.89 
   6  11  -3   23.52    8.15 
  -6 -11   3   33.99    9.42 
   6 -11  -3   20.01    8.32 
   6 -11   3   18.72    7.00 
   6  11  -3   19.65    7.14 
   6  11   3   24.29    9.35 
  -6  11  -3   18.07    8.49 
  -7 -11   3   -2.97    4.84 
  -7  11   3    8.32    6.25 
  -7  11   3   -3.06    3.37 
  -7  11  -3    2.12    7.12 
   7  11  -3   -7.99    5.47 
   7  11  -3    0.21    5.03 
  -7 -11  -3   -2.93    5.83 
   7  11   3    9.47    7.22 
   7 -11   3   -3.27    4.18 
   7 -11  -3    7.16    6.69 
  -8 -11  -3   -0.78    6.72 
  -8  11   3    1.73    3.78 
  -8 -11   3   11.20    7.37 
   8 -11  -3    7.83    7.65 
  -8  11  -3    5.77    8.52 
   8 -11   3    1.98    4.87 
  -8  11   3    9.55    7.66 
   8  11   3    6.25    6.36 
   8  11  -3    5.89    6.18 
  -9  11   3    3.41    3.96 
  -9 -11   3    4.88    7.16 
  -9 -11  -3   -7.55    5.65 
   9  11  -3    7.50    6.77 
   9 -11  -3    5.44    7.45 
   9  11   3    7.77    8.21 
   9 -11   3   12.56    6.78 
  -9  11   3    0.00    7.42 
  -9  11  -3   -8.39    6.71 
   0 -12   3   54.63   10.03 
   0 -12  -3   35.83    9.57 
   0  12   3   52.91   10.65 
   0  12  -3   60.29   11.44 
   1 -12  -3    3.37    5.24 
  -1 -12   3    2.04    4.89 
  -1  12   3   -8.16    4.25 
   1  12   3    6.67    6.14 
   1 -12   3    5.28    5.95 
  -1  12  -3    3.82    6.11 
   1  12  -3   -0.35    5.23 
  -1 -12  -3    1.77    5.13 
  -1 -12   3    5.15    4.86 
  -1 -12  -3    2.04    4.58 
   1 -12  -3    7.31    6.26 
   1 -12   3    6.54    5.58 
  -2 -12  -3   42.42    9.40 
  -2 -12  -3   18.39    6.97 
   2 -12   3   55.97    9.88 
   2  12  -3   36.83    9.43 
  -2 -12   3   57.05    9.33 
  -2  12  -3   21.93    8.01 
  -2  12   3   31.99    9.27 
  -2 -12   3   30.54    8.02 
   2  12   3   41.33   10.77 
   2 -12   3   24.17    7.39 
   2 -12  -3   55.26   10.34 
   2 -12  -3   25.73    8.67 
  -3  12   3   11.60    6.91 
  -3 -12  -3   10.57    6.44 
  -3  12  -3   13.21    8.24 
   3  12   3    8.86    8.22 
   3 -12  -3   19.49    8.08 
   3 -12   3   17.36    7.20 
   3 -12  -3   33.70    9.61 
   3  12  -3   11.00    6.58 
  -3 -12   3   11.34    5.60 
  -3 -12   3   14.96    6.98 
  -4 -12  -3   46.98   10.61 
  -4  12   3   46.67   10.63 
   4 -12   3   49.51    9.51 
   4  12  -3   76.62   12.57 
   4  12   3   65.32   13.19 
  -4  12  -3   45.70   10.40 
  -4 -12   3   67.12   11.26 
   4 -12  -3   52.59   11.45 
   5 -12   3   -0.01    4.45 
  -5 -12  -3    5.28    5.73 
   5 -12  -3    4.20    6.45 
   5 -12  -3   -0.24    6.62 
  -5 -12   3   -2.55    4.87 
  -5  12  -3    5.48    6.73 
   5  12   3   -0.97    5.53 
  -5  12   3    1.71    6.38 
   5  12  -3   -0.25    5.93 
   6  12  -3   62.26   11.81 
  -6  12  -3   44.31   11.25 
   6  12   3   38.75   10.65 
   6 -12  -3   48.25   10.28 
  -6 -12  -3   36.46   10.07 
  -6 -12   3   33.59    9.20 
   6 -12   3   19.90    7.40 
  -7  12  -3    4.52    6.93 
  -7 -12  -3   13.68    7.78 
   7 -12   3   -0.31    5.55 
  -7  12   3   11.67    7.63 
   7  12   3    0.73    6.52 
   7  12  -3    4.07    5.76 
  -7 -12   3   16.90    7.81 
   7 -12  -3    6.02    6.92 
  -7  12   3    1.17    3.86 
  -8 -12   3   35.94   10.27 
  -8  12  -3   66.86   13.47 
   8 -12  -3   43.93   10.50 
  -8 -12  -3   44.41   11.86 
  -8  12   3   36.98    7.29 
   8 -12   3   63.76   11.22 
  -8  12   3   37.65   11.36 
   8  12   3   63.00   12.92 
   0 -13   3   37.85    8.66 
   0 -13  -3   38.40   10.07 
   0  13   3   26.93    9.77 
   0  13  -3   27.80    9.66 
   0 -13   3   39.28    9.34 
   0 -13  -3   17.73    7.99 
   1  13   3   -3.82    5.00 
  -1 -13  -3    2.56    5.16 
  -1  13  -3    2.78    6.03 
   1 -13  -3   -2.08    5.60 
   1 -13   3    2.05    4.54 
   1  13  -3    6.45    6.60 
  -1  13   3   -0.43    4.86 
   1 -13   3    2.19    5.11 
  -1 -13   3    9.70    5.40 
  -1 -13  -3    0.70    4.74 
  -1 -13   3    4.52    5.67 
   1 -13  -3    0.91    4.65 
   2  13  -3   15.46    7.39 
   2 -13  -3   13.73    7.33 
  -2  13   3   16.14    7.97 
  -2  13  -3    4.32    6.98 
  -2 -13  -3   11.79    7.05 
   2 -13   3    8.32    6.18 
   2  13   3   18.73    8.81 
  -2 -13   3   14.05    6.32 
   2 -13   3   16.42    6.94 
  -2 -13   3   16.87    7.35 
   2 -13  -3    7.12    6.94 
  -3 -13  -3   -6.96    4.22 
  -3 -13   3    9.36    5.07 
  -3  13  -3    4.33    6.60 
   3 -13  -3    4.58    6.92 
  -3 -13   3    1.54    5.60 
   3  13   3  -10.78    5.76 
   3  13  -3    4.91    5.83 
   3 -13  -3    1.36    5.21 
   3 -13   3   -1.32    5.09 
  -3  13   3   -4.08    5.46 
   4 -13  -3   35.26   10.28 
  -4  13  -3   41.27   11.30 
   4 -13  -3   28.61    9.79 
   4 -13   3   34.77    9.74 
  -4 -13   3   49.56   11.13 
   4  13   3   50.50   12.66 
  -4 -13  -3   31.23    9.86 
   4  13  -3   25.43    9.75 
  -4  13   3   41.34   10.31 
   5 -13  -3    4.31    6.74 
  -5 -13   3   14.07    7.45 
   5  13   3    9.43    8.93 
  -5  13   3   -1.03    6.18 
   5 -13   3    1.10    4.75 
   5  13  -3    9.70    7.06 
  -5 -13  -3    1.05    5.52 
  -5  13  -3   -6.10    5.58 
   5 -13  -3    5.68    7.10 
   6 -13   3   -0.71    5.00 
  -6 -13  -3    3.81    6.49 
   6 -13  -3   -3.43    5.57 
  -6  13  -3    1.93    7.27 
  -6 -13   3   -0.40    5.74 
   6  13  -3    1.66    6.44 
   6  13   3   12.39    8.04 
   7  13   3   -3.58    6.97 
  -7 -13  -3   -0.43    5.83 
  -7  13   3   -3.18    3.70 
  -7  13   3   -4.29    5.55 
  -7  13  -3   -0.54    7.68 
  -7 -13   3    1.84    6.09 
   7 -13  -3    3.34    7.05 
   7  13  -3    0.86    6.98 
   7 -13   3    0.23    5.46 
  -8 -13  -3   28.89   10.86 
   8 -13   3   35.50   10.21 
  -8  13   3   25.71    6.38 
   8 -13  -3   28.34   10.19 
   8  13   3   17.49   11.00 
  -8  13   3   26.84   10.42 
  -8  13  -3   14.35    9.45 
  -8 -13   3   19.58    8.64 
   0 -14  -3   65.19   12.63 
   0  14  -3   51.67   12.01 
   0  14   3   50.43   11.63 
   0 -14   3   60.86   11.74 
   0 -14  -3   44.39   11.05 
   0 -14   3   98.00   12.37 
   1 -14   3    4.41    6.32 
  -1  14  -3    4.45    7.29 
   1 -14  -3    4.63    6.33 
   1  14   3   14.74    8.30 
  -1 -14   3    2.58    6.09 
   1 -14   3   27.78    7.91 
  -1 -14   3   10.75    6.71 
  -1 -14  -3   12.38    7.67 
  -1  14   3   14.62    8.16 
   1 -14  -3    4.34    6.05 
   1  14  -3    4.41    6.01 
  -1 -14  -3    9.63    6.60 
   2  14   3   60.58   13.60 
  -2  14  -3   89.85   14.31 
   2 -14  -3   82.24   13.97 
   2 -14   3   68.44   11.98 
  -2 -14   3   65.38   10.96 
  -2 -14  -3   80.76   13.10 
   2  14  -3   56.79   12.09 
  -2  14   3   57.31   11.73 
  -2 -14   3   83.33   12.35 
   2 -14  -3   55.51   12.22 
  -3  14  -3   -0.63    6.63 
   3 -14  -3   -1.98    4.91 
   3  14  -3   -7.85    5.53 
  -3 -14  -3    6.86    6.28 
   3  14   3   -0.10    7.23 
  -3 -14   3   11.49    7.22 
  -3  14   3    4.10    7.04 
   3 -14   3   -4.15    5.46 
   3 -14  -3   -5.07    5.78 
  -4  14   3   45.37   10.96 
   4 -14  -3   38.17   11.35 
   4 -14   3   45.67   10.82 
  -4  14  -3   56.86   12.18 
  -4 -14  -3   47.30   11.60 
   4 -14  -3   72.92   12.63 
  -4 -14   3   53.00   11.62 
   4  14   3   52.85   13.14 
   4  14  -3   63.90   12.76 
   5 -14   3    8.71    5.89 
   5  14  -3   12.00    8.25 
   5  14   3   11.64   10.04 
  -5  14   3    7.84    7.84 
  -5  14  -3    9.70    8.52 
  -5 -14   3   21.53    8.96 
  -5 -14  -3   -2.09    6.76 
   5 -14  -3    9.56    7.50 
   5 -14  -3   21.51    9.32 
   6 -14  -3   69.69   13.47 
   6 -14   3   61.54   12.91 
  -6 -14  -3   36.98   10.90 
  -6  14   3   45.97   12.21 
  -6 -14   3   64.81   13.56 
  -6  14  -3   51.44   12.59 
  -6  14   3   32.91    7.75 
   6  14   3   66.03   14.34 
   6  14  -3   66.93   13.38 
   7  14  -3    3.53    7.75 
  -7 -14  -3   -6.11    6.67 
  -7  14  -3    2.55    7.37 
   7  14   3   -5.49    6.56 
  -7 -14   3   -4.46    6.44 
  -7  14   3    7.06    7.20 
  -7  14   3    0.44    4.08 
   7 -14   3   -2.21    6.12 
   7 -14  -3    3.10    7.61 
   0 -15  -3    4.93    7.22 
   0 -15   3    9.24    6.93 
   0 -15  -3   15.71    7.29 
   0  15  -3    5.04    7.07 
   0 -15   3   10.30    6.63 
   0  15   3    7.44    7.86 
   1  15   3    8.83    7.85 
  -1 -15   3   13.69    6.18 
  -1 -15  -3   10.93    6.22 
  -1  15  -3    4.20    7.15 
   1 -15  -3    4.76    6.33 
  -1  15   3   -0.08    6.29 
   1 -15  -3   -2.03    6.17 
   1  15  -3   13.07    7.79 
   1 -15   3    0.77    6.42 
  -1 -15  -3   -2.18    6.04 
  -1 -15   3    2.67    6.26 
  -2  15   3   16.13    8.45 
  -2 -15  -3   28.40    9.82 
  -2 -15   3   17.42    7.79 
   2  15   3   14.99    9.76 
  -2 -15   3   26.15    8.77 
   2 -15  -3    4.20    7.78 
   2 -15  -3   20.17    8.84 
   2 -15   3    7.31    6.64 
  -2  15  -3   31.51   10.04 
   2  15  -3   14.31    7.85 
   3  15   3   10.08    9.28 
   3 -15   3    4.31    7.02 
   3 -15  -3   13.06    6.51 
  -3  15   3   -3.05    6.53 
  -3 -15  -3    3.70    6.65 
  -3 -15   3    9.43    6.78 
  -3  15  -3   11.45    8.62 
   3 -15  -3    5.82    6.99 
   3  15  -3   12.02    7.82 
   4 -15  -3   -5.53    4.71 
  -4  15  -3    4.35    8.23 
  -4  15   3    5.05    7.64 
  -4 -15  -3   -0.61    6.48 
   4 -15  -3    0.28    6.97 
  -4 -15   3   11.46    6.67 
   4 -15   3    2.34    6.64 
   4  15   3    9.36    8.46 
   4  15  -3   -6.09    7.08 
   5 -15  -3    3.36    6.59 
  -5 -15  -3   10.72    8.24 
   5  15   3   11.68    9.12 
  -5  15  -3    4.93    7.93 
   5 -15  -3   -1.28    6.55 
  -5  15   3    5.84    7.88 
   5  15  -3    9.52    8.60 
  -5 -15   3   17.36    8.19 
   5 -15   3   -1.08    6.64 
   6 -15  -3    6.54    7.33 
  -6  15  -3   16.59    9.51 
   6 -15   3   13.34    8.03 
   6  15  -3   -2.12    7.75 
  -6 -15   3   17.10    9.21 
   6  15   3    0.65    8.50 
  -6  15   3    5.36    5.03 
  -6 -15  -3   -3.96    6.97 
  -6  15   3    8.71    7.84 
   0 -16   3   82.29   13.70 
   0  16   3   55.18   13.04 
   0  16  -3   94.25   16.04 
   0 -16  -3   77.20   14.48 
   0 -16  -3   54.65   12.48 
   1 -16  -3   -2.95    6.40 
  -1 -16  -3    2.49    6.94 
   1  16   3   -3.49    6.95 
  -1 -16   3   10.19    7.03 
   1 -16  -3   13.71    8.08 
   1  16  -3    0.82    7.24 
  -1  16   3    4.07    7.47 
   1 -16   3    5.93    6.84 
  -1  16  -3    5.87    7.70 
  -2 -16  -3   49.25   12.35 
   2  16   3   37.18   12.14 
   2 -16  -3   51.30   12.66 
  -2  16  -3   63.05   14.54 
   2 -16   3   40.54   11.26 
   2  16  -3   68.73   13.89 
   2 -16  -3   40.53   11.86 
  -2  16   3   35.15   11.41 
  -2 -16   3   71.15   12.32 
  -3 -16   3   -4.70    6.53 
   3 -16   3    3.88    7.14 
  -3 -16  -3    3.48    6.50 
   3  16   3   -5.90    6.54 
  -3  16  -3   -1.48    6.31 
   3  16  -3  -12.54    6.67 
   3 -16  -3   -5.42    6.88 
  -3  16   3  -14.66    5.27 
   3 -16  -3    7.22    6.80 
   4 -16   3   75.25   14.48 
   4 -16  -3   80.70   14.29 
   4  16   3   74.87   16.25 
  -4 -16   3   67.73   13.70 
  -4 -16  -3   44.35   12.86 
  -4  16   3   57.26   13.28 
   4  16  -3  107.42   18.20 
   4 -16  -3   56.31   13.14 
  -4  16  -3   63.20   13.90 
   5 -16   3   -2.55    6.59 
  -5  16  -3    7.84    9.19 
   5  16   3    8.29    9.74 
  -5 -16   3    6.54    7.82 
  -5 -16  -3   -2.41    7.33 
   5  16  -3    9.52    8.79 
   5 -16  -3   -0.73    6.60 
   0  17   3    1.38    7.28 
   0  17  -3    7.17    8.56 
   0 -17   3   -1.04    7.02 
   0 -17  -3    5.27    8.36 
   0 -17  -3    4.38    7.93 
  -1  17   3   -3.18    7.02 
  -1 -17   3    3.89    6.85 
   1  17   3    4.58    7.12 
   1  17  -3    4.05    7.01 
  -1 -17  -3    1.67    7.05 
   1 -17  -3    3.78    7.92 
   1 -17   3   -2.11    7.42 
   1 -17  -3    1.25    7.51 
  -1  17  -3   -3.78    6.60 
   2 -17  -3   21.91    9.88 
  -2  17   3    3.76    6.92 
   2 -17   3   15.79    9.13 
  -2 -17  -3   -5.32    6.99 
   2  17  -3   -0.08    8.26 
   2  17   3   17.05   10.18 
   2 -17  -3    5.04    7.55 
  -2  17  -3    6.00    8.83 
   3 -17   3    3.44    7.06 
   3 -17  -3   10.53    7.72 
   3 -17  -3   -4.06    6.31 
  -3  17  -3    6.56    9.14 
  -3 -17  -3   -6.38    7.06 
   3  17  -3    0.30    8.07 
   3  17   3    3.55    7.38 
  -3  17   3    2.17    7.23 
  -3 -17   3   -0.12    6.79 
   0   0   4 2622.20   69.37 
   0   0  -4 2471.49   66.86 
   0   0  -4 2680.15   67.56 
   0   0  -4 2770.39   68.51 
   0   0   4 2660.75   67.10 
   1   0  -4   -0.91    1.69 
   1   0  -4    4.18    2.51 
  -1   0   4   -0.57    2.15 
  -1   0   4    1.27    1.99 
   1   0   4   -0.04    1.76 
  -1   0  -4    3.03    2.06 
   1   0  -4    3.80    2.48 
  -1   0   4   -0.89    1.30 
  -1   0  -4    0.57    1.40 
   1   0   4    6.19    3.28 
  -1   0  -4    2.31    1.91 
   1   0   4    2.50    1.96 
   2   0  -4  321.17   13.60 
  -2   0  -4  345.12   12.62 
   2   0   4  307.37   15.40 
   2   0  -4  320.41   13.87 
  -2   0   4  329.33   14.31 
  -2   0  -4  325.59   10.83 
   2   0   4  334.22   11.84 
  -2   0  -4  336.43   11.99 
  -2   0   4  327.94   13.81 
  -3   0   4   -1.20    1.59 
  -3   0  -4   -0.11    1.40 
  -3   0   4    3.10    2.85 
   3   0   4   -0.11    1.26 
  -3   0  -4    0.70    2.03 
  -3   0  -4    4.35    2.51 
   3   0  -4    1.02    2.18 
   3   0  -4    1.41    3.36 
   3   0   4   -2.59    3.03 
  -3   0  -4   -0.44    1.96 
   4   0   4 2493.18   65.76 
  -4   0  -4 2398.60   66.53 
  -4   0  -4 2587.96   66.17 
   4   0  -4 2437.21   67.08 
  -4   0   4 2307.36   66.60 
   4   0  -4 2522.09   71.63 
   4   0   4 2464.58   74.37 
  -4   0  -4 2573.28   63.05 
   4   0   4 2484.44   60.29 
   4   0  -4 2584.34   63.48 
  -4   0   4 2429.25   66.28 
   5   0   4   -0.99    3.71 
   5   0  -4    0.85    2.02 
  -5   0  -4   -3.55    1.65 
  -5   0  -4   -0.55    1.64 
   5   0   4   -2.86    2.30 
   5   0  -4   -1.44    3.63 
   5   0  -4    1.50    3.03 
  -5   0   4    1.11    2.87 
   5   0   4   -0.48    1.48 
  -5   0   4    0.98    2.46 
  -5   0  -4    1.21    2.96 
  -6   0  -4  674.13   25.59 
  -6   0  -4  651.99   21.31 
   6   0   4  575.62   24.90 
   6   0   4  631.58   29.55 
  -6   0   4  630.75   24.94 
  -6   0   4  636.48   23.27 
   6   0   4  689.33   19.84 
   6   0  -4  623.83   26.57 
   6   0  -4  658.02   21.40 
   7   0   4    2.75    3.77 
   7   0   4   -0.91    5.03 
  -7   0   4    0.64    3.52 
  -7   0   4    5.32    5.58 
  -7   0   4   -0.94    2.43 
  -7   0  -4   -0.83    2.32 
   7   0  -4    1.44    3.37 
  -7   0  -4   -1.57    3.52 
  -8   0  -4 1506.48   49.43 
   8   0   4 1508.98   50.50 
  -8   0   4 1452.16   53.06 
   8   0  -4 1523.68   51.46 
  -8   0   4 1452.91   44.67 
   8   0   4 1435.00   54.94 
  -8   0  -4 1511.73   43.06 
   9   0   4    3.53    4.71 
  -9   0  -4    2.12    5.15 
  -9   0   4   -0.18    3.08 
   9   0   4    2.35    5.56 
  -9   0   4    4.14    6.46 
   9   0  -4    4.55    4.74 
  -9   0  -4    1.25    3.24 
  10   0   4  387.93   24.96 
  10   0  -4  378.04   23.12 
  10   0   4  353.97   22.19 
 -10   0  -4  407.36   22.04 
 -10   0  -4  387.36   17.09 
 -10   0   4  369.92   17.97 
 -10   0   4  377.72   23.95 
 -11   0  -4   -1.42    3.38 
  11   0   4    1.60    5.34 
 -11   0   4    0.34    4.14 
 -11   0   4   -2.58    6.57 
  11   0   4   -2.86    6.55 
  11   0  -4    8.47    6.53 
   0  -1  -4    1.82    2.12 
   0  -1  -4    2.08    2.57 
   0   1   4   -0.58    2.66 
   0   1   4    2.83    2.79 
   0  -1   4    3.14    2.48 
   0  -1   4    8.22    2.63 
   0   1   4    0.03    2.27 
   1   1   4  353.90   15.07 
  -1   1   4  327.02   11.33 
   1  -1  -4  326.30   13.41 
  -1   1   4  342.61   14.13 
   1   1  -4  342.08   13.27 
  -1  -1   4  331.87   13.68 
   1  -1   4  345.40   12.60 
  -1  -1  -4  327.09   11.26 
  -1   1  -4  338.65    9.86 
   1   1  -4  347.24   13.58 
  -1   1   4  355.05   14.27 
  -1   1  -4  352.99   12.90 
   1   1  -4  331.92   12.67 
   1   1   4  335.10   13.91 
   1  -1   4  350.48   14.00 
  -1   1  -4  326.81   12.83 
   1  -1  -4  327.59   12.84 
  -1  -1   4  334.58   14.01 
  -1  -1   4  357.98   11.52 
   1  -1  -4  347.47   13.20 
   1   1   4  350.19   12.73 
  -1  -1  -4  344.65   12.20 
  -2  -1  -4   -1.38    1.80 
  -2   1  -4    4.39    2.15 
  -2   1   4    1.25    2.74 
  -2   1  -4    1.65    1.43 
   2   1   4    2.59    3.80 
  -2   1   4   -0.03    2.06 
   2   1  -4    0.63    1.40 
  -2  -1   4    5.77    2.85 
   2  -1   4    8.78    3.94 
  -2  -1  -4    0.76    1.83 
  -2   1  -4    6.58    2.86 
   2   1  -4    3.08    3.92 
   2  -1   4   -0.87    1.93 
   2   1   4    2.55    1.80 
  -2  -1  -4    2.59    2.13 
  -2   1  -4    2.17    2.23 
   2  -1  -4    1.63    2.60 
   2   1  -4    0.46    2.72 
  -2  -1   4    4.31    2.85 
   2  -1  -4    6.08    3.28 
  -3  -1   4   42.70    6.47 
  -3   1  -4   55.41    4.04 
  -3   1   4   56.82    6.13 
   3  -1  -4   57.96    6.45 
   3   1  -4   85.16    8.90 
   3  -1   4   57.07    4.38 
  -3  -1  -4   54.79    5.77 
   3   1   4   60.17    3.73 
  -3   1  -4   69.21    6.40 
   3   1   4   68.12    9.56 
  -3   1  -4   61.07    5.19 
  -3   1   4   65.82    5.15 
  -3   1   4   65.02    7.69 
   3   1  -4   50.71    3.58 
   3  -1  -4   78.97    8.67 
  -3  -1  -4   55.46    4.38 
   3   1  -4   70.49    7.16 
   3  -1   4   68.60    8.70 
  -3  -1  -4   58.22    4.95 
  -3  -1   4   50.91    6.38 
  -3   1  -4   64.92    4.59 
  -4  -1  -4   -4.52    1.53 
  -4  -1   4    7.52    3.55 
   4   1   4    9.99    5.08 
   4  -1  -4   -0.44    1.24 
   4   1   4   -1.37    1.26 
   4  -1  -4   -1.67    2.63 
   4  -1   4   15.39    4.95 
  -4  -1  -4   -2.40    2.49 
   4   1  -4    6.32    4.12 
  -4   1  -4    7.70    2.55 
   4  -1   4   -1.62    1.72 
  -4  -1  -4   -0.36    2.42 
  -4   1  -4    0.01    1.67 
  -4   1   4    5.71    2.58 
  -4   1  -4   -1.27    2.44 
   4   1  -4   -0.91    3.03 
  -4  -1   4    1.87    2.59 
   4   1   4   -0.48    2.52 
   4  -1  -4   10.73    4.53 
  -4   1   4   -2.48    2.82 
  -4   1  -4   -3.70    2.21 
  -5   1   4  188.54   12.26 
   5   1  -4  235.48   10.95 
   5  -1   4  200.78   14.68 
   5  -1   4  214.97   12.09 
  -5   1  -4  220.52    9.12 
   5  -1  -4  226.48   14.79 
   5   1   4  202.42   15.49 
  -5   1  -4  225.02   11.49 
   5   1  -4  229.27   13.54 
   5  -1  -4  208.41   12.64 
  -5  -1   4  195.46   12.01 
  -5  -1   4  220.05   14.47 
   5  -1  -4  219.34    8.68 
   5   1   4  232.57    7.77 
  -5  -1  -4  212.46   12.41 
   5  -1   4  213.72    9.11 
  -5  -1  -4  217.28   11.53 
  -5   1   4  186.44   10.58 
   5   1   4  230.89   12.83 
  -5   1  -4  228.98   10.92 
  -5  -1  -4  210.89   10.09 
  -5  -1   4  220.99   11.75 
   6   1  -4    0.50    2.99 
  -6  -1  -4    0.53    2.36 
  -6   1  -4   -0.35    3.18 
   6  -1  -4   -2.26    4.02 
  -6   1   4    2.13    2.33 
   6   1   4   -3.67    3.54 
   6   1  -4    2.77    3.88 
  -6   1  -4   -0.50    1.89 
  -6  -1   4    3.28    3.47 
   6  -1   4    0.23    3.67 
   6  -1   4   -0.62    2.28 
   6   1   4    3.99    4.98 
  -6  -1   4   -0.36    2.38 
  -6   1   4   -0.98    3.10 
   6  -1   4   -2.02    4.08 
   6  -1  -4    1.11    3.61 
  -6  -1  -4   -0.20    3.42 
  -6  -1   4    1.87    4.09 
   7   1  -4   35.40    7.94 
  -7   1   4   28.42    5.34 
  -7  -1  -4   29.15    5.10 
   7   1   4   22.16    6.55 
   7  -1  -4   24.00    6.60 
  -7   1   4   40.35    7.48 
  -7   1  -4   27.00    4.50 
   7  -1  -4   20.91    7.51 
  -7  -1   4   22.72    5.21 
   7   1   4   29.88    8.68 
  -7  -1  -4   38.33    7.61 
  -7  -1   4   34.86    7.00 
  -7   1  -4   29.00    7.07 
  -7  -1   4   39.50    9.80 
   7  -1   4   17.89    5.97 
   7  -1   4   32.04    8.69 
  -8  -1  -4    1.26    5.05 
   8   1   4   -2.55    4.25 
  -8  -1  -4   -2.00    2.90 
   8  -1  -4    1.64    4.61 
  -8   1   4    0.12    3.02 
   8   1  -4   -0.86    4.16 
   8  -1   4    1.04    3.91 
   8   1   4   11.98    6.41 
  -8   1   4    3.22    6.09 
  -8   1  -4   -2.60    2.63 
  -8  -1   4   -2.11    2.81 
  -8   1   4    7.64    4.27 
  -8   1  -4    1.37    4.47 
  -8  -1   4   -0.65    5.19 
   8  -1   4    5.71    5.51 
  -9  -1  -4   23.33    5.51 
   9  -1   4   24.98    8.79 
  -9  -1  -4   19.23    7.22 
  -9  -1   4   19.22    5.52 
   9  -1   4   23.99    7.37 
   9  -1  -4   29.02    8.23 
   9   1   4   30.02    8.46 
   9   1  -4   33.18    9.05 
  -9   1  -4   22.06    8.23 
  -9   1  -4   23.66    4.90 
  -9  -1   4   15.12    7.68 
  -9   1   4   36.30   10.65 
   9   1   4   26.31    9.48 
  -9   1   4   28.22    6.20 
 -10   1  -4   -4.47    2.97 
 -10  -1   4   -5.46    3.42 
  10   1   4   -6.61    4.02 
  10   1  -4   -2.13    4.17 
  10  -1  -4    2.86    5.17 
  10  -1   4    0.05    4.40 
 -10  -1   4    2.02    7.18 
  10   1   4    0.50    6.02 
 -10   1   4    2.64    7.06 
 -10  -1  -4   -1.16    6.14 
 -10   1   4    0.97    3.58 
  10  -1   4    4.00    5.47 
 -10  -1  -4   -4.35    3.29 
  11  -1   4   40.20    9.73 
 -11  -1   4   35.07    7.07 
 -11  -1   4   38.64   11.36 
  11   1  -4   41.90    9.99 
  11   1   4   28.25    8.86 
  11  -1   4   45.58   11.10 
 -11   1   4   33.70    6.96 
 -11   1   4   37.76   11.44 
  11   1   4   22.28   10.16 
 -11  -1  -4   45.62   11.04 
 -11  -1  -4   36.06    6.96 
 -11   1  -4   51.22    7.14 
  11  -1  -4   54.72   11.33 
   0   2   4 5751.76  142.43 
   0  -2  -4 6029.64  144.13 
   0  -2   4 5692.45  145.31 
   0  -2  -4 5803.00  137.87 
   0   2  -4 5155.46  138.75 
   0   2   4 5821.58  138.28 
   0   2   4 5771.96  146.13 
   0  -2   4 5811.60  141.14 
   0  -2   4 5683.29  137.28 
   0  -2   4 5937.63  140.64 
   0   2  -4 5746.83  140.80 
  -1   2   4    0.34    2.15 
  -1  -2  -4    2.27    1.83 
  -1   2  -4    1.63    1.98 
  -1   2   4    6.89    2.65 
   1  -2  -4    4.33    2.75 
   1  -2   4    4.16    2.94 
   1   2  -4    2.23    1.96 
  -1   2  -4    2.66    2.24 
  -1  -2  -4    1.91    1.81 
   1  -2   4    0.17    2.09 
   1   2   4    4.58    2.43 
  -1  -2   4   -0.55    2.11 
  -1  -2   4    3.62    2.25 
   1   2   4   -2.32    2.64 
  -1   2   4    2.02    2.45 
   1  -2  -4    1.43    1.85 
   1   2  -4   -0.21    1.98 
   1  -2  -4    4.70    2.37 
  -1  -2   4    3.58    2.49 
  -1  -2  -4    0.56    2.03 
   1   2   4    5.13    2.69 
  -2  -2  -4  385.54   13.86 
  -2  -2   4  359.32   15.31 
   2   2   4  400.93   16.37 
   2  -2  -4  376.09   16.66 
  -2   2   4  418.42   12.61 
  -2   2  -4  413.60   11.38 
  -2  -2  -4  384.15   13.92 
  -2   2  -4  417.84   14.12 
   2  -2   4  388.71   14.18 
  -2   2   4  374.64   15.13 
   2  -2  -4  419.63   14.88 
  -2   2   4  395.93   17.17 
   2   2   4  389.52   13.00 
  -2  -2  -4  389.51   13.97 
   2   2  -4  402.29   13.26 
  -2  -2   4  390.35   15.87 
   2   2   4  396.29   18.02 
   2  -2   4  367.61   16.74 
   2   2  -4  388.18   15.91 
  -2   2  -4  376.82   14.00 
  -2  -2   4  389.67   15.93 
  -2   2  -4  400.54   14.61 
  -3   2  -4    2.41    1.62 
   3  -2   4    0.14    2.94 
   3  -2  -4   -0.44    2.86 
  -3  -2  -4    4.54    2.52 
  -3  -2  -4    0.53    1.54 
  -3   2   4    1.44    1.41 
   3   2   4   -0.08    1.41 
  -3   2  -4    0.85    1.64 
   3  -2   4    0.86    1.81 
   3  -2  -4    0.25    2.11 
  -3  -2  -4    0.08    2.03 
  -3   2  -4    1.41    1.70 
   3   2  -4   -2.84    1.73 
  -3   2   4    0.09    2.16 
  -3   2  -4   -0.53    2.01 
   3   2   4    2.50    3.72 
  -3  -2   4    1.70    2.56 
   3   2  -4    0.77    1.75 
  -3   2   4   -1.57    1.63 
  -3  -2   4   -0.12    1.80 
  -3   2   4    0.60    2.79 
  -3  -2   4    2.92    3.49 
   4  -2  -4 3511.34   89.96 
  -4  -2   4 3576.60   91.07 
  -4  -2  -4 3373.92   92.40 
  -4   2  -4 3452.23   90.16 
   4   2   4 3549.97   89.54 
   4  -2   4 3353.47   98.43 
   4   2   4 3487.99   81.61 
  -4   2   4 3566.54   87.94 
  -4  -2   4 3519.30   95.94 
  -4   2   4 3424.87   91.69 
   4  -2   4 3497.52   85.38 
   4   2   4 3434.04  100.12 
  -4  -2   4 3419.78   89.55 
   4   2  -4 3538.43   90.60 
  -4   2   4 3579.31   87.78 
   4  -2  -4 3392.90   95.88 
   4   2  -4 3457.92   91.14 
  -4   2  -4 3495.41   88.98 
  -4   2  -4 3671.96   87.42 
  -4   2   4 3452.16   89.32 
  -4  -2  -4 3594.14   88.17 
  -4   2  -4 3404.45   85.49 
  -5  -2   4    0.09    3.01 
   5   2  -4   -2.88    2.46 
   5   2  -4    2.39    3.19 
   5  -2  -4   -1.73    3.82 
  -5  -2   4    3.04    2.55 
   5   2   4    6.68    4.97 
  -5   2  -4   -0.80    1.37 
  -5   2  -4   -0.11    2.71 
  -5  -2   4   -2.55    2.34 
  -5   2   4    3.98    2.66 
   5  -2  -4    1.25    2.94 
  -5  -2  -4    0.23    2.18 
  -5  -2  -4    3.85    3.71 
  -5   2  -4    2.04    3.02 
   5   2   4    1.43    2.96 
  -5   2   4    3.30    3.65 
   5  -2   4   -2.21    3.72 
   5  -2   4   -1.13    1.63 
  -5   2  -4    3.57    2.32 
   6   2   4  164.38   14.79 
   6  -2   4  212.85   10.08 
  -6  -2   4  200.05   14.57 
  -6   2   4  210.15   13.38 
   6  -2   4  193.28   15.22 
   6   2   4  206.89   13.34 
   6  -2  -4  199.45   13.42 
   6  -2   4  203.48   12.78 
  -6   2  -4  196.14    8.58 
  -6   2  -4  223.01   10.25 
  -6  -2  -4  209.03   13.48 
  -6  -2   4  186.37   11.52 
  -6  -2   4  223.38   12.72 
  -6   2   4  202.54   10.69 
   6   2  -4  202.64   14.02 
   6   2  -4  224.08   12.25 
  -6   2  -4  208.86   11.94 
  -6  -2  -4  181.21   10.39 
   6  -2  -4  144.76   13.38 
   7  -2  -4   -4.97    2.44 
   7  -2   4   -0.09    3.27 
  -7   2   4   12.10    4.70 
   7  -2   4   -0.49    2.71 
   7   2   4    2.56    5.47 
   7   2  -4    4.19    4.14 
   7   2   4   -1.77    3.58 
  -7  -2  -4   -2.58    4.38 
  -7  -2   4    3.85    3.75 
  -7   2  -4   -2.72    1.74 
  -7   2  -4    3.18    3.53 
  -7   2   4   -1.01    2.57 
   7  -2   4    0.45    4.35 
   7  -2  -4   -3.74    3.31 
  -7  -2  -4    2.63    2.58 
  -7  -2   4    3.06    4.25 
  -7  -2   4   -2.69    2.45 
   8  -2  -4 1191.17   43.47 
   8   2   4 1253.44   43.82 
  -8   2   4 1189.92   37.27 
   8  -2   4 1162.29   42.59 
  -8   2   4 1255.66   41.22 
   8  -2  -4 1157.30   46.60 
  -8  -2  -4 1194.62   43.67 
  -8   2  -4 1238.15   34.55 
  -8  -2   4 1187.85   45.75 
  -8  -2   4 1162.96   38.97 
  -8  -2  -4 1200.09   37.70 
   8  -2   4 1221.25   47.26 
  -8   2  -4 1256.45   41.20 
   8   2   4 1231.71   49.00 
   8   2  -4 1196.20   44.84 
  -9  -2  -4    1.15    5.45 
  -9   2  -4   -4.86    4.07 
  -9  -2   4   -0.46    5.72 
   9  -2  -4    7.54    5.22 
  -9  -2   4    2.40    3.31 
  -9  -2  -4   -0.52    3.24 
   9  -2   4   -1.16    4.65 
   9   2   4    3.36    5.65 
  -9   2  -4   -1.48    2.59 
  -9   2   4    2.66    7.16 
   9   2   4    3.74    5.80 
   9  -2   4    0.47    4.65 
   9   2  -4   -1.50    4.08 
  -9   2   4    1.78    3.29 
 -10   2   4  187.94   20.54 
  10   2   4  204.94   21.28 
 -10  -2   4  160.01   11.96 
 -10  -2  -4  172.19   12.06 
  10  -2   4  162.33   18.85 
  10   2   4  181.20   17.77 
 -10   2   4  185.06   11.69 
 -10  -2   4  194.76   19.80 
  10  -2   4  172.48   16.87 
 -10  -2  -4  192.50   18.16 
  10   2  -4  166.74   17.86 
 -10   2  -4  155.29    9.74 
  10  -2  -4  168.28   17.00 
 -11   2  -4    0.32    3.40 
  11  -2   4    6.20    7.05 
 -11   2   4    3.16    3.85 
 -11  -2  -4   -0.01    3.52 
  11   2   4   -0.87    6.65 
 -11  -2  -4   -0.19    6.65 
  11  -2  -4   -2.10    5.00 
 -11  -2   4   -1.37    6.43 
 -11  -2   4   -4.33    3.85 
 -11   2   4   11.09    8.80 
  11   2  -4   -1.78    5.75 
  11   2   4    3.84    5.71 
   0  -3  -4    8.53    2.70 
   0  -3   4    5.94    3.14 
   0  -3   4    6.91    2.11 
   0   3   4    8.83    3.95 
   0   3   4    2.83    3.07 
   0   3   4    5.49    2.86 
   0   3  -4    7.04    2.76 
   0  -3  -4   11.06    3.49 
   0  -3   4    4.30    2.33 
   0  -3   4    6.44    3.05 
  -1  -3  -4   57.17    5.72 
   1   3   4   48.81    5.23 
  -1   3   4   59.91    7.07 
   1   3   4   54.59    7.24 
  -1  -3  -4   50.03    4.97 
   1   3  -4   48.11    5.23 
  -1  -3   4   52.21    5.86 
  -1   3  -4   55.92    5.58 
   1  -3   4   60.73    6.64 
  -1   3  -4   50.47    5.57 
   1  -3   4   58.10    5.88 
  -1   3   4   56.23    6.21 
   1   3   4   65.60    7.22 
  -1  -3   4   56.50    5.25 
  -1  -3   4   41.96    5.28 
   1   3  -4   55.25    6.37 
  -1  -3  -4   48.23    3.85 
   1  -3  -4   59.35    6.99 
   1  -3  -4   48.05    4.71 
  -1   3   4   67.64    6.03 
  -2  -3   4    8.77    3.81 
   2  -3   4    9.12    3.99 
  -2  -3  -4    3.09    2.06 
   2   3   4    4.37    2.18 
   2   3   4    2.01    2.61 
   2  -3  -4    6.17    3.49 
  -2   3  -4    0.89    2.26 
  -2   3   4    2.59    2.30 
  -2   3   4    4.76    3.45 
   2  -3   4    0.09    2.09 
   2   3   4    5.32    3.94 
   2   3  -4    3.76    3.06 
  -2   3  -4    7.38    2.49 
  -2  -3  -4   -0.98    2.00 
  -2   3   4    4.53    2.70 
   2   3  -4    4.81    2.91 
   2  -3   4    2.62    1.51 
  -2  -3   4    5.93    2.79 
  -2  -3  -4    3.48    2.20 
  -2   3  -4    5.89    2.36 
  -2  -3   4   11.82    3.35 
   2  -3  -4    5.52    2.64 
  -3  -3   4    1.56    2.76 
  -3  -3   4    0.49    2.48 
  -3   3   4    1.49    2.03 
  -3   3  -4    3.21    2.11 
  -3   3  -4    2.02    1.84 
   3   3  -4    0.15    2.35 
   3  -3  -4    0.71    2.09 
   3   3  -4    2.18    2.15 
   3   3   4    4.40    4.00 
  -3   3   4   -0.79    1.74 
   3   3   4    2.15    2.50 
  -3   3   4   -0.18    3.05 
  -3  -3  -4   -3.18    1.61 
   3   3   4    0.62    1.26 
  -3   3  -4   -1.78    1.82 
   3  -3  -4    3.99    3.86 
  -3   3   4   -0.53    1.73 
   3  -3   4    1.76    2.18 
  -3  -3   4   -1.38    2.06 
  -3  -3  -4    3.74    2.30 
  -3   3  -4    0.76    1.54 
   3  -3   4    4.60    3.50 
  -4  -3   4   -0.14    2.48 
  -4  -3  -4   -3.04    1.72 
   4   3   4   -1.14    2.47 
  -4   3   4    0.05    3.09 
   4  -3   4   16.06    4.75 
   4  -3  -4   15.86    5.03 
  -4   3   4    3.35    2.67 
  -4   3  -4    1.49    1.90 
  -4  -3  -4   -0.37    3.55 
   4  -3   4   -0.79    2.46 
  -4   3  -4    1.72    2.03 
   4  -3  -4   -2.65    2.45 
  -4   3  -4    1.70    2.71 
   4   3  -4    7.95    2.97 
  -4  -3   4   18.65    3.92 
  -4   3  -4    1.05    2.81 
  -4   3   4    0.78    2.23 
  -4   3   4   -0.45    1.91 
   4   3  -4   -1.71    2.82 
   4   3   4   20.00    6.21 
  -4  -3   4    5.16    3.51 
  -5   3  -4   40.98    4.16 
  -5   3  -4   54.49    6.41 
  -5   3  -4   43.49    3.88 
  -5  -3   4   45.37    6.82 
  -5   3   4   46.34    8.13 
  -5  -3  -4   41.89    6.08 
   5  -3  -4   42.88    7.31 
  -5   3   4   44.47    5.08 
   5  -3   4   42.88    5.48 
  -5   3   4   45.48    4.70 
   5   3   4   36.83    9.26 
   5  -3   4   53.07    9.74 
  -5   3  -4   38.20    6.73 
   5   3   4   40.77    7.17 
  -5  -3  -4   57.56    8.33 
  -5  -3   4   43.55    8.40 
   5   3  -4   46.71    6.44 
  -5  -3   4   41.60    6.65 
   5   3  -4   45.85    8.00 
   5  -3  -4   33.86    8.48 
  -5   3   4   37.73    5.50 
   6  -3   4   -5.21    1.90 
  -6   3   4   -2.57    3.77 
  -6  -3  -4   -1.91    2.17 
   6  -3   4    7.70    5.63 
   6   3  -4    6.35    4.07 
  -6   3  -4   -0.72    2.98 
  -6   3  -4    4.82    2.51 
   6  -3  -4   10.62    6.09 
  -6   3  -4    3.92    3.92 
  -6  -3   4    5.48    5.26 
   6   3   4    3.82    5.15 
   6  -3  -4   -3.82    3.37 
  -6   3  -4    0.63    1.60 
  -6  -3   4    2.08    3.11 
  -6  -3  -4   -0.94    3.67 
   6   3   4    0.32    3.88 
  -6  -3   4    2.84    3.33 
  -6   3   4    2.30    2.85 
   6   3  -4   -3.51    3.01 
   7  -3  -4    7.54    5.89 
   7   3   4    1.10    4.01 
  -7   3   4    1.71    4.60 
  -7  -3  -4    1.87    4.87 
  -7   3  -4    3.11    2.17 
   7  -3   4    1.79    3.19 
  -7  -3   4    8.46    6.01 
  -7   3   4    6.38    3.26 
  -7  -3  -4    6.35    3.28 
  -7   3  -4    5.34    4.56 
   7   3   4    1.10    5.79 
   7  -3  -4    3.39    3.98 
   7  -3   4    8.89    5.41 
  -7  -3   4   -1.06    2.98 
   7   3  -4    2.33    4.39 
   8   3  -4    4.79    5.75 
   8  -3   4    1.42    4.65 
   8  -3  -4   11.64    5.85 
   8   3   4   12.17    7.02 
   8   3   4   -5.63    4.21 
  -8   3   4    0.07    4.79 
  -8  -3  -4   -0.44    5.05 
  -8   3   4    1.08    2.57 
  -8   3  -4    4.18    4.98 
  -8  -3   4    0.03    3.09 
  -8  -3   4   -0.47    5.02 
  -8   3  -4   -2.80    2.12 
   8  -3   4   15.00    6.60 
  -8  -3  -4   -1.38    2.92 
   8  -3  -4    5.67    4.23 
   9   3   4    2.71    5.05 
   9  -3   4    3.39    5.56 
  -9  -3   4   -1.46    3.41 
  -9  -3  -4   -1.97    5.64 
  -9  -3   4   -0.45    6.07 
  -9   3  -4    2.57    2.76 
   9   3   4    8.19    7.34 
   9  -3  -4    3.77    4.78 
  -9  -3  -4    2.19    3.49 
  -9   3   4    3.89    3.81 
   9   3  -4    2.02    5.68 
 -10  -3  -4   -4.84    5.59 
  10   3  -4    1.65    4.84 
  10  -3  -4    9.07    5.79 
 -10   3   4   -5.22    3.22 
  10  -3   4    2.84    6.26 
 -10  -3   4   -2.12    6.59 
  10   3   4    4.43    5.39 
 -10  -3  -4    0.39    3.93 
  10   3   4   14.22    6.81 
 -10   3  -4   -2.83    2.75 
 -10  -3   4   -0.45    3.74 
 -10   3   4   -5.96    6.57 
  11  -3   4   10.27    7.88 
 -11   3   4   20.39   10.41 
 -11   3  -4   16.38    8.45 
 -11  -3   4   14.66    9.19 
 -11  -3  -4   20.03    5.71 
  11   3   4   11.24    7.09 
 -11  -3   4   12.69    5.86 
 -11   3   4   17.93    5.07 
 -11   3  -4   15.61    4.52 
  11  -3  -4    5.17    6.24 
  11   3   4   21.73    8.92 
  11   3  -4    9.30    7.33 
 -11  -3  -4    8.75    8.69 
   0   4  -4 2919.34   80.41 
   0   4   4 2996.16   79.93 
   0  -4   4 3056.11   76.81 
   0  -4  -4 3039.38   76.41 
   0   4   4 2910.92   81.42 
   0   4  -4 2901.99   76.66 
   0  -4   4 3014.36   76.11 
   0  -4  -4 2994.74   80.03 
   0   4   4 2997.68   77.32 
   0  -4   4 3077.40   75.31 
   0  -4  -4 2989.39   73.69 
   1   4   4    1.88    2.37 
  -1  -4   4    2.60    2.56 
  -1   4  -4    2.29    2.49 
  -1   4  -4    0.64    1.93 
   1   4  -4   -1.19    2.33 
  -1   4   4   -3.18    1.53 
   1   4   4    0.00    2.36 
  -1   4   4    0.08    2.78 
  -1  -4  -4    0.80    1.65 
  -1   4   4    4.12    2.97 
  -1  -4   4   -3.18    1.68 
  -1  -4  -4   -0.51    1.36 
   1  -4   4    1.25    2.22 
   1   4   4    2.85    3.43 
   1  -4   4    2.32    1.89 
   1  -4  -4   -0.49    1.75 
   1  -4   4    0.74    3.21 
  -1  -4   4    0.40    2.35 
   1   4  -4    1.30    2.41 
  -1  -4  -4   -1.29    2.22 
   1  -4  -4    2.77    3.50 
  -2  -4  -4 1372.11   41.42 
  -2   4   4 1463.82   41.64 
   2   4   4 1418.23   38.00 
   2  -4   4 1454.35   37.16 
   2  -4  -4 1454.76   37.92 
  -2   4   4 1429.59   43.70 
   2   4  -4 1448.85   41.66 
   2  -4  -4 1368.01   44.06 
  -2  -4  -4 1380.98   39.97 
  -2  -4   4 1441.18   42.32 
  -2   4   4 1492.74   40.85 
   2   4   4 1388.23   45.38 
  -2   4  -4 1403.93   39.73 
   2  -4   4 1445.05   44.36 
  -2   4  -4 1475.85   38.97 
   2   4  -4 1444.98   42.01 
  -2  -4   4 1429.35   40.66 
  -2  -4  -4 1439.72   38.33 
  -2   4  -4 1411.17   39.99 
   2  -4   4 1387.92   39.99 
   2   4   4 1444.81   44.44 
  -2  -4   4 1354.41   42.12 
  -3   4   4    3.19    2.43 
  -3  -4   4    5.43    2.96 
  -3   4  -4    0.84    1.68 
   3   4  -4    2.31    2.55 
   3   4   4    5.07    4.28 
  -3   4  -4    1.18    2.17 
   3  -4  -4   -1.47    1.86 
  -3  -4   4    4.58    2.97 
  -3   4   4   -0.37    1.91 
  -3  -4  -4    0.88    2.04 
   3   4   4    0.96    1.70 
   3   4   4   -2.05    2.30 
  -3  -4  -4   -0.21    2.51 
   3  -4   4    2.44    3.35 
  -3   4  -4    1.15    1.72 
  -3   4   4   -1.71    2.67 
   3  -4   4    1.35    1.89 
  -3   4   4    0.78    2.15 
   3  -4  -4    0.98    3.62 
  -3  -4   4    1.05    2.89 
   3   4  -4   -1.28    2.56 
   3  -4   4    1.13    2.19 
   4   4   4 2336.62   62.21 
   4  -4   4 2369.37   61.82 
  -4  -4   4 2385.64   62.15 
   4  -4  -4 2292.77   61.62 
  -4   4   4 2364.60   60.81 
   4  -4   4 2235.72   69.07 
  -4   4   4 2332.07   65.89 
  -4   4   4 2264.51   60.98 
  -4  -4   4 2249.29   67.56 
   4   4  -4 2236.18   63.58 
  -4   4  -4 2358.77   58.97 
  -4   4  -4 2320.87   58.14 
  -4  -4   4 2380.88   64.84 
   4   4  -4 2304.68   64.26 
  -4  -4  -4 2312.70   65.75 
  -4  -4  -4 2365.14   62.28 
   4  -4   4 2353.79   60.80 
   4  -4  -4 2129.09   67.66 
   4   4   4 2095.71   69.85 
  -4   4  -4 2274.87   61.75 
  -4   4   4 2326.88   61.40 
   5  -4  -4    2.34    4.24 
  -5   4   4    0.08    3.55 
  -5  -4  -4    1.53    2.53 
  -5   4   4    2.79    2.18 
  -5  -4   4   -1.38    3.57 
   5   4  -4    0.74    3.10 
  -5   4   4   -0.24    1.87 
   5  -4   4    0.87    2.47 
  -5  -4   4   -1.83    2.23 
   5   4  -4   -2.42    2.56 
  -5   4  -4    0.34    2.81 
   5   4   4   -2.51    2.70 
  -5   4  -4   -0.42    2.70 
  -5   4  -4    0.16    1.59 
  -5  -4  -4   -2.05    2.88 
   5  -4  -4   -2.18    2.74 
   5  -4   4    5.19    4.29 
   5   4   4   -0.45    4.66 
  -5   4   4    1.02    2.26 
  -5  -4   4   -1.52    2.76 
  -5   4  -4    0.43    1.63 
   6  -4  -4 1002.89   35.79 
   6   4   4 1069.74   36.84 
  -6  -4   4 1067.38   33.20 
  -6   4   4 1029.70   32.16 
   6   4  -4 1038.38   37.67 
  -6   4   4 1051.24   37.08 
   6  -4   4 1039.90   32.57 
  -6  -4  -4 1026.57   37.75 
  -6   4  -4 1088.04   28.72 
   6   4   4  951.34   41.22 
   6   4  -4 1073.94   35.58 
  -6   4  -4 1048.65   35.37 
  -6  -4   4 1032.28   35.23 
  -6  -4  -4 1051.23   34.49 
  -6  -4   4 1032.67   40.04 
  -6   4  -4 1067.25   28.97 
  -6   4  -4 1074.59   34.17 
   6  -4   4 1067.28   40.87 
   6  -4  -4 1026.50   40.43 
   7   4   4    2.69    4.45 
  -7   4  -4    0.13    2.01 
   7   4   4    1.01    5.14 
   7  -4  -4    3.87    5.91 
   7   4  -4   -0.19    3.71 
   7  -4   4    5.12    5.17 
   7  -4   4    3.15    3.59 
  -7   4   4   -0.69    4.14 
  -7  -4   4   -0.63    2.64 
  -7   4  -4   -8.40    3.08 
  -7  -4  -4    3.61    3.33 
  -7   4  -4    1.12    4.03 
   7  -4  -4    0.55    3.39 
  -7  -4  -4   -7.14    4.06 
  -7   4   4   -2.57    2.38 
  -7  -4   4    2.48    4.56 
   8  -4   4 1182.95   46.32 
  -8   4  -4 1172.13   42.18 
   8   4   4 1153.80   42.87 
  -8  -4   4 1254.68   46.47 
  -8  -4  -4 1127.00   43.63 
   8  -4  -4 1146.89   46.69 
  -8   4   4 1248.43   42.69 
  -8  -4  -4 1156.24   38.77 
   8   4  -4 1159.18   44.31 
   8  -4  -4 1158.87   41.74 
  -8  -4   4 1207.05   40.11 
  -8   4   4 1123.24   35.95 
  -8   4  -4 1179.51   32.55 
   8   4   4 1161.17   48.60 
  -9   4   4    2.46    5.15 
  -9   4   4   -2.14    3.08 
   9   4   4    0.08    4.63 
  -9   4  -4   -0.52    2.53 
  -9  -4  -4   -1.15    6.01 
   9  -4   4   -3.08    5.42 
  -9  -4   4    7.29    6.84 
   9   4   4  -11.69    5.07 
   9  -4  -4    7.69    6.55 
  -9   4  -4    0.11    5.10 
  -9  -4   4   -2.38    3.04 
   9   4  -4   -1.80    4.25 
   9  -4  -4   -5.98    3.51 
  -9  -4  -4    0.05    3.26 
  10  -4   4  472.28   27.42 
  10   4   4  463.07   25.50 
  10   4   4  505.45   29.53 
 -10  -4  -4  461.53   26.07 
 -10  -4  -4  476.67   21.92 
  10  -4  -4  462.81   25.16 
 -10   4  -4  473.54   17.15 
  10   4  -4  475.70   26.90 
 -10   4  -4  491.17   26.04 
 -10   4   4  473.36   29.15 
 -10  -4   4  476.25   22.84 
 -10  -4   4  508.88   29.02 
 -10   4   4  460.12   19.41 
 -11  -4   4    2.73    7.27 
 -11   4  -4  -11.43    4.48 
 -11  -4   4    0.55    4.34 
 -11  -4  -4   10.52    7.79 
  11   4   4    6.39    6.12 
 -11   4   4   -2.54    3.09 
  11  -4  -4   -2.47    5.25 
  11  -4   4   -6.22    6.74 
 -11   4   4    2.06    8.55 
  11   4  -4    4.61    6.18 
 -11  -4  -4    4.45    4.25 
 -11   4  -4    2.53    3.11 
  11   4   4   -4.51    6.55 
   0  -5   4    6.14    2.72 
   0  -5  -4    6.63    3.72 
   0   5   4    2.46    3.05 
   0   5   4   -0.90    2.49 
   0  -5  -4    4.04    2.15 
   0   5  -4    4.33    3.23 
   0   5  -4   15.94    3.60 
   0  -5   4    5.05    2.92 
   0   5   4    3.08    3.52 
  -1  -5  -4  279.97   13.26 
  -1  -5   4  284.56   11.99 
   1   5  -4  269.94   13.47 
   1  -5   4  277.13   10.46 
  -1  -5   4  282.77   13.25 
   1   5  -4  280.86   12.99 
   1  -5  -4  281.10   14.76 
  -1   5  -4  268.93   14.22 
  -1  -5  -4  283.51   10.35 
  -1   5   4  299.84   13.59 
   1  -5  -4  274.63    9.94 
   1   5   4  273.03   14.75 
  -1   5   4  302.28   14.27 
   1  -5   4  267.90   12.91 
   1   5   4  287.49   15.05 
  -1  -5  -4  256.64   11.88 
  -1   5  -4  296.85   13.18 
  -1  -5   4  282.53   13.15 
  -1   5   4  268.85   14.29 
   1   5   4  281.49   12.88 
   2   5   4    3.64    2.35 
   2  -5  -4   16.64    4.58 
   2   5   4    6.51    3.59 
  -2  -5  -4    4.76    3.37 
  -2   5  -4    8.94    2.92 
  -2   5   4    5.57    3.24 
  -2  -5   4    2.16    2.31 
   2   5  -4    3.05    3.05 
   2  -5   4    3.06    3.02 
  -2   5   4    6.88    3.18 
  -2   5  -4    5.69    2.79 
  -2  -5  -4    3.94    2.35 
  -2   5  -4    1.71    2.20 
   2  -5   4    4.37    3.70 
  -2  -5  -4    4.94    2.60 
   2  -5   4    4.58    2.27 
   2  -5  -4    3.48    2.08 
   2   5  -4    6.57    3.47 
  -2   5   4   11.42    4.68 
  -2  -5   4    7.74    3.32 
   2   5   4    6.36    4.43 
  -2  -5   4    8.40    3.44 
  -3  -5  -4   43.61    6.55 
   3  -5   4   37.60    7.53 
  -3   5   4   44.54    5.67 
  -3  -5   4   52.50    7.99 
  -3   5   4   35.24    7.23 
  -3  -5   4   40.26    6.70 
   3   5   4   41.87    8.32 
   3   5  -4   46.01    6.68 
  -3   5   4   35.10    5.31 
  -3  -5   4   45.10    6.07 
  -3   5  -4   44.37    4.44 
   3  -5  -4   36.30    7.62 
   3  -5  -4   39.20    4.90 
   3  -5   4   37.56    5.82 
   3   5  -4   46.82    6.54 
   3   5   4   46.56    3.92 
   3   5   4   49.25    8.12 
  -3   5  -4   53.88    6.06 
  -3  -5  -4   36.22    5.51 
  -3   5   4   49.86    6.00 
   3  -5   4   44.67    4.64 
  -3   5  -4   40.51    5.06 
   4  -5   4    0.47    2.80 
  -4   5  -4    1.75    2.47 
  -4  -5   4    5.76    4.08 
  -4  -5   4    7.58    3.74 
  -4   5   4    2.10    3.51 
   4   5   4   -0.58    2.67 
   4   5   4    2.16    4.53 
  -4  -5   4   10.08    3.53 
  -4   5   4    5.91    2.70 
  -4  -5  -4    0.90    2.35 
  -4   5   4    2.46    2.50 
   4   5  -4    6.43    3.15 
   4   5   4   -1.73    2.94 
  -4   5  -4    3.21    2.04 
   4   5  -4   -0.66    3.00 
   4  -5  -4    1.16    2.78 
  -4   5   4    5.92    2.96 
   4  -5   4    6.60    4.33 
  -4   5  -4    7.02    2.43 
   4  -5  -4    9.18    4.85 
   4  -5   4   -0.67    2.34 
  -4  -5  -4    6.09    4.00 
  -5   5   4  242.54   11.25 
  -5   5  -4  233.61    8.93 
   5  -5  -4  213.76   15.52 
  -5  -5  -4  219.13   12.61 
  -5   5   4  239.06   11.36 
   5  -5   4  187.26   14.52 
  -5  -5   4  228.05   13.84 
  -5  -5   4  241.72   12.20 
  -5  -5  -4  239.55   14.89 
  -5   5   4  242.03   15.37 
  -5   5  -4  241.35   12.81 
   5  -5   4  215.77   12.20 
   5  -5   4  235.80   12.33 
   5   5  -4  254.95   14.71 
   5   5   4  263.64   13.95 
  -5   5  -4  231.36    9.87 
   5   5   4  223.42   16.57 
  -5  -5   4  234.19   15.61 
   5   5  -4  238.83   12.93 
   5  -5  -4  253.37   13.36 
  -6   5  -4    1.64    3.58 
   6   5  -4    8.88    4.24 
   6   5  -4    3.70    4.56 
   6   5   4   -2.69    3.71 
  -6   5   4   -1.10    4.45 
  -6   5   4    3.33    2.88 
  -6   5  -4    4.20    2.26 
  -6  -5   4    6.68    5.60 
  -6   5  -4    1.89    3.82 
   6  -5   4    1.72    3.51 
   6  -5  -4   -2.89    4.10 
  -6  -5  -4   -1.43    4.37 
   6   5   4   12.99    6.16 
   6  -5   4    9.93    4.86 
  -6  -5  -4    2.05    3.20 
   6  -5  -4    3.99    4.50 
  -6  -5   4   -2.34    2.95 
  -6   5  -4    3.92    2.05 
   7   5   4   10.45    5.72 
   7   5   4   28.88    9.14 
   7  -5  -4   31.87    9.66 
  -7  -5   4   16.17    5.05 
  -7   5  -4   18.02    3.23 
  -7  -5  -4   24.98    6.04 
  -7   5   4   25.74    5.11 
  -7  -5   4   29.91    9.31 
   7  -5   4   32.75    8.72 
  -7   5   4   25.65    7.46 
   7  -5  -4   27.49    6.92 
   7  -5   4   25.39    6.04 
  -7  -5  -4   23.82    7.90 
   7   5  -4   18.34    6.67 
  -7   5  -4   19.49    6.48 
   8   5  -4    0.28    5.15 
   8   5   4    0.20    4.98 
  -8   5   4    1.40    2.83 
  -8   5   4    1.32    5.21 
  -8  -5  -4   -0.68    5.15 
   8  -5   4    9.08    5.89 
   8  -5  -4    7.21    5.90 
   8  -5  -4    1.91    4.38 
   8   5   4   15.97    6.92 
  -8   5  -4    8.06    5.70 
   8  -5   4    9.47    4.29 
  -8   5  -4    0.38    2.28 
  -8  -5   4    5.78    4.35 
  -8  -5   4    6.31    6.39 
  -8  -5  -4   -3.11    3.16 
  -9  -5   4   63.71   13.42 
  -9   5  -4   38.43    4.90 
  -9  -5   4   46.54    8.43 
   9  -5  -4   49.08    9.69 
  -9   5  -4   39.09    9.63 
  -9  -5  -4   41.98   10.78 
   9   5   4   40.45    9.14 
  -9   5   4   46.29    6.61 
   9  -5  -4   48.29   12.40 
  -9   5   4   46.00   10.35 
  -9  -5  -4   36.89    7.62 
   9   5  -4   40.86   10.72 
   9  -5   4   42.69   10.84 
   9   5   4   44.31   11.38 
 -10   5  -4    1.91    3.20 
  10  -5  -4    8.15    5.82 
 -10  -5   4    3.95    7.43 
  10   5   4   -3.83    4.81 
 -10  -5  -4    4.35    4.09 
 -10   5  -4    2.21    6.06 
  10   5  -4    3.35    6.26 
  10   5   4    6.74    7.03 
 -10  -5   4   -4.22    3.82 
 -10   5   4    6.09    3.43 
  10  -5   4    9.44    7.21 
 -10  -5  -4    5.81    6.96 
 -11  -5   4   30.78    7.32 
 -11   5  -4   30.67    9.56 
 -11   5   4   26.61    5.71 
 -11  -5   4   34.74   11.74 
  11   5   4   31.81    9.18 
  11   5  -4   24.38    8.93 
 -11   5  -4   33.36    5.06 
 -11  -5  -4   32.57   10.71 
 -11  -5  -4   32.39    7.41 
  11   5   4   22.02    9.17 
  11  -5  -4   31.89    8.86 
 -11   5   4   22.73   11.11 
   0  -6  -4 3112.29   85.64 
   0   6   4 3121.86   82.30 
   0  -6  -4 3273.36   81.07 
   0  -6   4 3145.03   81.26 
   0  -6  -4 3122.48   76.09 
   0  -6   4 3155.08   80.73 
   0   6   4 2930.71   86.77 
   0   6   4 3101.44   85.21 
   0   6  -4 3105.19   86.94 
   0  -6   4 3283.84   81.30 
   0   6  -4 3164.92   80.72 
   1  -6   4    1.60    2.53 
   1   6  -4   -1.95    2.07 
  -1   6  -4    2.83    3.35 
   1   6  -4    1.08    2.58 
  -1   6   4   -0.14    2.40 
  -1   6   4    2.47    3.22 
   1  -6  -4    1.96    3.31 
   1  -6   4    1.38    2.84 
  -1   6   4   -1.44    2.77 
  -1  -6  -4   -1.56    1.59 
  -1  -6   4   -3.79    2.63 
  -1   6  -4    1.07    2.61 
   1   6   4   -3.09    2.15 
  -1  -6  -4    1.53    1.52 
   1   6   4   -0.43    2.44 
  -1  -6   4    2.93    2.71 
  -1  -6   4    0.70    2.29 
   1   6   4   -0.95    3.54 
   1  -6  -4    0.54    1.50 
  -1  -6  -4   -2.38    2.42 
   2  -6  -4 1153.91   30.24 
   2  -6   4 1113.58   32.76 
  -2   6  -4 1117.98   33.80 
   2  -6  -4 1073.85   38.66 
  -2  -6   4 1127.08   36.58 
   2   6   4 1145.78   33.38 
  -2   6  -4 1116.61   38.41 
   2  -6   4 1106.08   34.85 
  -2   6   4 1040.32   37.18 
  -2   6   4 1161.52   35.99 
  -2  -6   4 1130.85   35.80 
  -2   6   4 1085.90   35.45 
  -2   6  -4 1144.96   33.21 
  -2  -6   4 1124.43   34.35 
   2   6  -4 1099.92   37.34 
  -2  -6  -4 1156.88   34.73 
  -2  -6  -4 1102.67   36.30 
  -2  -6  -4 1191.85   31.71 
   2   6   4 1153.85   39.95 
   2   6   4 1150.72   38.82 
   2   6  -4 1173.04   34.78 
   3  -6   4    2.65    2.33 
  -3  -6   4   -3.78    1.78 
   3  -6   4   -4.34    2.73 
  -3  -6  -4    1.30    3.08 
  -3   6  -4   -3.07    2.11 
  -3   6   4    2.01    3.03 
   3  -6  -4   -1.25    3.63 
  -3  -6   4    0.27    2.63 
   3   6   4    0.14    4.13 
  -3   6   4    0.91    3.15 
   3  -6   4    2.34    3.06 
   3   6  -4    0.05    2.65 
  -3  -6   4    0.35    3.52 
   3   6   4    1.01    2.49 
   3  -6  -4    0.09    2.29 
  -3   6   4    4.49    2.71 
  -3   6  -4    0.27    1.92 
  -3  -6  -4   -0.88    2.05 
   3   6   4    4.39    2.27 
   3   6  -4   -0.13    2.96 
  -3   6  -4   -3.16    1.61 
  -3   6   4    1.05    2.39 
   4  -6  -4 1797.02   49.63 
   4   6  -4 1801.44   52.62 
  -4  -6   4 1853.56   50.46 
  -4   6  -4 1802.46   50.49 
   4  -6   4 1831.68   50.17 
   4  -6   4 1788.47   57.72 
  -4  -6   4 1815.70   56.17 
  -4   6  -4 1810.13   48.49 
   4   6   4 1892.61   50.88 
  -4  -6   4 1814.03   54.53 
   4   6  -4 1741.40   53.67 
  -4   6   4 1826.33   50.15 
   4  -6   4 1791.66   51.21 
  -4   6   4 1802.01   55.33 
   4   6   4 1725.02   58.55 
   4  -6  -4 1695.21   57.14 
  -4   6  -4 1748.57   47.01 
  -4   6   4 1793.70   51.97 
  -4  -6  -4 1839.12   55.63 
  -4  -6  -4 1813.47   52.42 
   5  -6   4    2.72    3.35 
  -5   6   4   -5.15    2.24 
   5   6   4   -5.08    3.87 
  -5   6  -4    1.39    2.81 
   5  -6  -4   -1.73    3.76 
  -5  -6  -4    2.22    2.76 
   5   6   4   -4.55    2.54 
   5   6  -4    2.12    3.84 
   5  -6   4    1.90    3.32 
  -5  -6   4    2.13    3.27 
  -5   6  -4    0.07    2.00 
   5   6  -4   -3.59    2.80 
  -5  -6   4   -0.17    2.81 
   5  -6  -4    0.97    3.49 
   5  -6   4   -1.62    3.87 
  -5   6   4    3.12    4.41 
  -5   6  -4    1.75    1.74 
  -5  -6  -4   -2.19    3.55 
  -5  -6   4   -0.70    3.99 
  -5   6   4    2.30    2.63 
  -6   6  -4  467.96   20.38 
  -6  -6  -4  487.49   23.39 
  -6   6   4  447.90   17.31 
   6   6  -4  428.88   20.15 
   6  -6   4  448.43   23.82 
   6  -6  -4  431.61   23.51 
  -6  -6   4  435.92   23.69 
   6  -6   4  476.44   19.79 
   6  -6  -4  431.77   19.66 
   6   6   4  450.95   24.97 
   6   6  -4  419.11   21.77 
  -6  -6   4  439.60   21.34 
  -6   6   4  465.72   23.08 
  -6  -6  -4  442.15   20.20 
   6   6   4  442.77   21.11 
   6  -6   4  430.43   19.26 
  -6   6  -4  438.22   15.67 
  -7   6  -4   -1.80    4.03 
  -7   6   4   -0.23    4.70 
   7   6  -4    1.56    4.58 
  -7   6   4    2.87    3.10 
  -7  -6  -4    2.47    3.25 
   7   6   4   -7.26    3.20 
   7  -6  -4    3.13    5.20 
  -7  -6   4    2.05    3.51 
  -7  -6  -4   -0.59    4.94 
   7   6   4    7.58    5.96 
  -7   6  -4    2.34    2.43 
  -7  -6   4    7.36    5.99 
   7  -6  -4   -2.92    3.12 
   7  -6   4    3.76    3.65 
   7  -6   4    4.01    5.33 
  -8   6  -4  649.34   20.07 
  -8   6  -4  644.33   28.58 
   8   6   4  638.00   29.04 
   8  -6  -4  683.39   28.47 
   8  -6  -4  665.53   32.79 
  -8   6   4  692.27   29.68 
  -8   6   4  631.77   23.39 
  -8  -6  -4  624.91   26.87 
  -8  -6   4  614.62   31.69 
   8  -6   4  653.19   32.04 
  -8  -6  -4  599.91   30.32 
  -8  -6   4  622.35   27.55 
   8   6   4  645.60   33.45 
   8  -6   4  654.45   26.57 
   8   6  -4  622.49   30.06 
   9  -6   4    0.06    5.32 
   9   6  -4   -1.39    5.11 
  -9   6   4    5.02    6.27 
   9   6   4    3.15    5.39 
  -9  -6   4    1.26    3.53 
  -9   6  -4    0.75    2.53 
  -9  -6   4   -5.57    5.24 
  -9  -6  -4   11.39    6.80 
   9  -6  -4    2.37    5.71 
  -9  -6  -4    0.45    3.25 
   9   6   4   -3.14    5.44 
   9  -6  -4   -1.67    4.44 
  -9   6   4   -1.89    2.98 
  -9   6  -4   -4.73    4.78 
 -10  -6   4  219.98   15.22 
 -10  -6  -4  233.67   18.94 
 -10   6  -4  224.60   10.24 
  10   6  -4  214.98   18.00 
 -10  -6  -4  210.73   14.75 
  10   6   4  237.28   17.61 
  10  -6  -4  220.27   19.53 
  10  -6   4  248.59   19.81 
 -10   6  -4  205.89   17.09 
 -10  -6   4  221.03   18.95 
 -10   6   4  233.75   12.66 
  10   6   4  249.82   20.67 
 -11   6   4    2.58    8.06 
 -11  -6  -4   -6.69    3.19 
 -11  -6   4    9.59    7.53 
 -11   6  -4   -0.22    2.73 
  11   6   4    0.75    5.26 
 -11  -6  -4   -3.74    6.53 
  11   6  -4    6.38    6.32 
  11   6   4    5.25    7.48 
 -11   6  -4    3.93    6.75 
 -11  -6   4    2.69    5.03 
 -11   6   4   -0.47    3.25 
   0   7  -4   15.45    4.07 
   0   7  -4   12.64    4.71 
   0  -7  -4   16.64    4.86 
   0  -7  -4   13.60    3.68 
   0   7   4   11.65    5.19 
   0  -7   4   12.45    4.66 
  -1  -7  -4   46.82    4.12 
  -1  -7  -4   46.13    5.99 
   1   7   4   41.46    7.55 
   1  -7  -4   46.33    3.05 
   1   7  -4   44.62    6.12 
  -1  -7   4   60.66    7.71 
   1  -7   4   47.76    7.21 
  -1  -7   4   47.88    6.46 
  -1  -7  -4   56.33    8.02 
   1  -7  -4   61.33    9.22 
  -1   7   4   61.72    8.28 
  -1   7  -4   47.83    8.19 
   1   7  -4   49.30    8.36 
   1   7   4   58.36    9.60 
   1   7   4   50.77    7.37 
  -1  -7   4   46.18    6.54 
   1  -7   4   61.60    6.69 
  -1   7  -4   56.54    6.81 
   2   7  -4    2.75    3.77 
   2   7   4    3.26    4.22 
   2   7  -4    0.29    2.97 
   2  -7  -4    1.76    1.74 
  -2   7   4    1.37    3.11 
  -2  -7  -4    1.75    3.51 
  -2  -7  -4   -0.22    2.29 
   2   7   4   -3.72    2.52 
  -2   7  -4    2.29    2.96 
  -2  -7   4   -0.24    2.68 
  -2  -7   4   -2.64    2.30 
  -2  -7   4   -0.61    2.78 
   2  -7   4    2.44    3.13 
  -2   7  -4   -1.73    3.78 
  -2  -7  -4    1.02    1.98 
   2  -7  -4    1.61    3.70 
   2  -7   4    3.00    2.89 
   2   7   4    1.81    3.30 
  -3  -7   4    0.96    2.65 
  -3  -7  -4    2.69    2.44 
  -3   7  -4    0.72    3.58 
  -3  -7  -4    1.77    2.74 
   3   7  -4    4.72    3.87 
   3   7   4   -2.96    2.71 
   3   7  -4    0.59    3.00 
   3  -7  -4    1.64    2.18 
   3  -7  -4    2.45    4.30 
   3  -7   4   -1.52    2.71 
   3  -7   4   -0.87    3.00 
   3   7   4    0.07    2.14 
  -3  -7  -4    4.40    3.78 
  -3   7   4    1.08    3.86 
   3   7   4    4.38    5.05 
  -3   7  -4    3.89    2.91 
  -3  -7   4    0.22    2.56 
  -3  -7   4   -1.96    3.27 
  -3   7   4   -0.80    2.86 
  -3   7   4   -0.29    2.34 
   4  -7   4   17.58    6.32 
  -4   7  -4   11.65    3.29 
   4  -7  -4   23.25    6.70 
   4  -7   4    6.12    4.17 
   4   7   4    1.97    4.67 
  -4  -7   4    5.22    3.99 
   4  -7  -4    1.10    3.20 
   4   7  -4   13.38    4.94 
   4   7   4   -0.53    3.38 
  -4  -7   4   12.42    5.55 
  -4  -7  -4    4.28    4.78 
  -4   7   4    0.24    4.47 
   4  -7   4    6.50    3.51 
   4   7  -4    8.29    4.61 
  -4   7   4   -0.69    3.42 
  -4   7   4    2.45    3.14 
  -4   7  -4   10.94    3.57 
  -4  -7   4    8.39    3.61 
  -4  -7  -4    3.04    3.54 
   5  -7  -4   55.10    7.37 
  -5   7   4   48.97    9.59 
  -5  -7   4   52.84   10.06 
  -5  -7   4   66.27    7.42 
   5   7  -4   48.80    8.62 
  -5  -7   4   54.57    8.94 
   5  -7   4   43.38    9.39 
   5   7  -4   57.04    9.03 
   5  -7   4   56.42    8.13 
  -5  -7  -4   44.15    7.50 
  -5   7  -4   62.62    5.85 
   5   7   4   63.65   11.74 
   5   7   4   59.16    8.09 
  -5   7   4   50.08    6.42 
  -5   7   4   66.98    8.33 
  -5   7  -4   57.27    7.53 
   5  -7  -4   48.67   10.09 
  -5  -7  -4   51.77    9.57 
   5  -7   4   52.94    7.38 
  -6  -7   4    3.35    3.58 
   6  -7   4    3.16    5.24 
   6   7   4    1.10    3.90 
   6  -7   4   -0.35    3.09 
  -6   7   4   -3.23    2.32 
  -6   7  -4    0.68    3.41 
  -6  -7  -4   -1.12    3.40 
   6  -7  -4    5.01    4.24 
  -6   7   4    0.16    4.68 
   6   7   4   -0.58    4.90 
   6   7  -4    0.02    3.98 
  -6  -7   4   -3.19    3.81 
   6   7  -4    1.32    4.35 
  -6   7  -4   -0.93    2.15 
  -6  -7  -4    0.33    4.41 
   6  -7  -4    9.12    5.72 
   7   7   4    0.21    3.99 
   7  -7   4    5.81    3.77 
  -7   7  -4    9.88    5.36 
  -7   7   4    5.45    3.43 
  -7  -7  -4   -8.36    3.75 
   7  -7   4   17.45    7.17 
  -7   7   4   -1.56    5.20 
  -7  -7   4    1.07    3.35 
   7   7  -4    0.70    4.63 
  -7   7  -4    3.99    2.83 
   7  -7  -4    2.51    4.54 
   7   7   4    9.03    6.53 
  -7  -7  -4    0.61    3.86 
  -7  -7   4   11.28    6.87 
   7  -7  -4    4.17    4.99 
   7   7  -4   -2.68    4.30 
  -8   7   4    2.22    6.17 
  -8   7  -4    2.64    2.65 
   8  -7   4   13.18    6.93 
  -8  -7  -4    3.94    5.82 
  -8   7   4    5.53    3.74 
  -8  -7   4    3.54    4.06 
  -8   7  -4    4.75    5.84 
   8   7   4   22.36    8.12 
   8  -7  -4    3.79    5.84 
  -8  -7  -4   -5.51    2.88 
   8  -7   4   -0.32    3.79 
  -8  -7   4    0.21    5.37 
   8   7   4   -2.16    4.72 
   8   7  -4   -1.70    5.15 
  -9  -7  -4    0.02    3.89 
   9  -7   4    4.92    6.13 
  -9  -7  -4    9.13    7.33 
  -9   7   4    3.21    3.62 
   9   7   4   -4.31    4.81 
   9   7  -4    0.20    5.61 
  -9   7   4   -1.14    6.11 
   9   7   4   11.26    7.25 
  -9  -7   4    1.38    6.08 
  -9  -7   4    2.51    3.90 
  -9   7  -4    1.24    2.80 
  -9   7  -4   -1.19    5.33 
   9  -7  -4    8.57    6.58 
  10   7   4   -0.39    6.67 
  10   7   4    4.27    5.87 
 -10  -7   4    8.86    4.88 
  10  -7  -4    9.81    7.00 
  10  -7   4    5.60    6.97 
 -10  -7   4   -0.31    7.05 
 -10   7   4    6.06    3.45 
 -10  -7  -4   -0.94    3.92 
 -10  -7  -4    7.46    7.42 
  10   7  -4    0.19    6.04 
   0   8  -4  649.44   27.66 
   0  -8   4  673.03   23.49 
   0  -8  -4  689.23   26.90 
   0  -8  -4  697.45   27.65 
   0  -8   4  677.60   25.55 
   0   8  -4  695.86   23.53 
   0   8   4  707.86   28.77 
   1  -8  -4    2.31    4.19 
   1   8   4    4.38    4.98 
   1  -8  -4    7.12    4.54 
   1  -8   4   10.41    4.28 
  -1   8   4   -3.33    3.48 
  -1  -8   4    2.01    3.29 
   1  -8   4   -0.14    3.24 
  -1   8  -4    4.75    4.02 
   1   8  -4    4.28    2.86 
  -1  -8   4    0.02    2.35 
  -1  -8  -4   -1.03    2.13 
  -1  -8  -4    1.96    3.20 
  -1   8  -4   14.12    3.78 
  -1  -8   4    8.28    3.46 
  -1  -8  -4    1.49    1.78 
   1   8  -4   -0.91    3.36 
  -2  -8   4  757.14   27.45 
   2   8   4  784.95   33.02 
  -2  -8  -4  817.27   23.89 
  -2  -8  -4  773.21   27.73 
   2   8  -4  798.94   26.77 
   2  -8  -4  746.98   31.68 
  -2  -8   4  836.22   29.23 
   2   8   4  802.66   27.25 
  -2  -8   4  808.76   28.98 
  -2  -8  -4  839.62   30.73 
   2  -8   4  791.22   29.04 
  -2   8   4  826.12   30.22 
   2   8   4  803.03   31.70 
  -2   8  -4  792.25   31.60 
   2  -8   4  820.75   27.51 
  -2   8  -4  784.33   26.82 
   2  -8  -4  767.38   31.02 
   2   8  -4  805.23   31.61 
   3   8   4    0.75    3.57 
   3   8  -4    9.88    5.17 
   3  -8   4   11.91    3.79 
  -3  -8   4    1.27    2.89 
  -3  -8  -4    6.18    3.03 
   3  -8   4    4.52    3.89 
   3  -8  -4   11.61    5.73 
   3   8   4    2.81    3.28 
   3   8  -4    1.18    3.32 
  -3  -8   4    9.21    4.05 
  -3   8   4   11.29    4.84 
  -3  -8  -4    3.16    4.57 
  -3  -8  -4    4.48    3.21 
  -3   8  -4    6.85    3.11 
   3   8   4    7.37    5.50 
  -3   8  -4   14.54    5.87 
  -3  -8   4    1.36    4.13 
   4  -8   4  675.68   26.55 
  -4   8   4  668.91   26.13 
   4   8   4  670.49   30.70 
   4  -8   4  705.86   24.56 
   4   8   4  692.90   24.12 
  -4   8   4  660.22   24.68 
  -4  -8  -4  692.98   26.90 
  -4  -8  -4  678.30   28.65 
   4   8  -4  705.72   28.72 
  -4   8  -4  686.07   24.29 
  -4  -8   4  688.78   28.76 
  -4   8   4  669.13   29.55 
   4  -8  -4  683.84   29.83 
  -4  -8   4  709.08   24.51 
   4   8  -4  633.02   25.43 
  -4  -8   4  637.10   27.10 
  -4   8  -4  679.72   30.09 
  -5   8   4   -1.41    3.65 
   5   8   4    3.13    4.90 
  -5   8   4   -1.03    2.81 
  -5  -8  -4   -6.25    3.87 
   5   8   4    2.50    3.64 
  -5  -8   4    8.52    5.64 
   5   8  -4    3.00    4.55 
  -5  -8   4    2.71    3.14 
  -5  -8  -4    1.12    3.00 
  -5   8   4    2.59    4.71 
  -5  -8   4    1.65    3.41 
  -5   8  -4    5.10    5.75 
   5  -8   4    0.24    3.42 
   5   8  -4    0.03    4.19 
  -5   8  -4    7.23    3.42 
   5  -8  -4   -4.87    3.97 
  -6   8  -4  723.95   27.14 
   6   8   4  665.53   32.47 
   6   8  -4  705.21   28.98 
  -6  -8   4  689.79   29.07 
   6  -8   4  743.95   33.20 
  -6  -8   4  699.34   32.14 
   6  -8   4  718.03   27.88 
  -6  -8  -4  695.36   28.70 
  -6   8  -4  704.57   22.92 
  -6  -8  -4  716.14   31.92 
   6   8  -4  730.49   29.95 
   6   8   4  677.53   27.75 
  -6   8   4  689.04   24.74 
  -6   8   4  757.81   31.88 
   6  -8  -4  715.23   32.82 
   7   8   4   -0.80    4.42 
  -7  -8   4   -2.75    5.20 
   7   8   4    7.76    6.19 
  -7   8  -4   -1.31    4.04 
   7  -8   4    8.20    6.44 
  -7  -8   4   -1.14    3.53 
  -7   8  -4   -0.76    2.39 
  -7  -8  -4    1.50    3.44 
  -7  -8  -4    3.66    5.48 
   7   8  -4    8.48    4.99 
   7  -8   4    2.31    3.92 
  -7   8   4   10.89    6.96 
  -7   8   4    2.64    3.25 
   7  -8  -4   -8.92    4.35 
   7   8  -4    5.91    5.10 
   8  -8   4  512.56   24.39 
  -8   8  -4  488.79   16.57 
  -8  -8  -4  475.88   23.49 
  -8   8   4  471.59   25.80 
  -8  -8  -4  462.19   26.20 
   8  -8   4  507.51   28.07 
  -8  -8   4  459.35   27.49 
  -8  -8   4  519.81   24.50 
   8   8  -4  474.02   25.32 
   8   8   4  506.33   28.83 
   8  -8  -4  427.46   26.52 
   8   8   4  472.66   24.23 
  -8   8   4  493.38   19.81 
  -9  -8  -4   -1.84    6.41 
  -9   8  -4    1.69    2.40 
  -9  -8  -4    4.57    4.22 
   9   8   4    6.20    6.10 
   9  -8  -4    0.07    6.73 
   9  -8   4   -2.43    6.06 
  -9   8   4   -4.14    6.01 
   9   8  -4   -1.21    5.16 
  -9   8   4    3.02    3.72 
   9   8   4    6.21    6.92 
  -9  -8   4    0.25    4.20 
  -9  -8   4   -2.59    5.75 
  10   8  -4  368.20   23.29 
 -10  -8   4  342.81   20.77 
 -10   8   4  397.14   23.55 
 -10  -8  -4  352.81   23.89 
  10  -8   4  380.66   25.17 
 -10  -8   4  355.76   25.39 
 -10  -8  -4  337.56   19.92 
  10   8   4  339.81   21.30 
 -10   8   4  368.23   16.41 
  10   8   4  376.41   25.83 
  10  -8  -4  365.44   25.57 
   0  -9  -4    5.69    4.67 
   0  -9  -4   -4.09    3.72 
   0   9  -4    3.56    2.96 
   0   9  -4    2.49    4.22 
   0  -9   4   -2.24    3.39 
   0   9   4    0.14    4.69 
   0  -9   4   -2.41    2.98 
  -1  -9  -4    8.38    4.72 
  -1  -9  -4   13.04    5.96 
  -1   9  -4   15.70    4.28 
   1  -9  -4   13.35    6.44 
   1   9  -4   14.27    3.95 
  -1  -9   4   11.78    4.83 
  -1  -9   4   25.40    5.95 
  -1   9   4   15.51    5.91 
   1  -9   4   15.60    5.56 
   1   9  -4    5.82    4.59 
   1   9   4   19.67    7.07 
   1  -9   4   13.08    5.25 
   1  -9  -4   15.94    6.21 
  -1   9  -4   13.83    5.55 
   2   9   4   20.44    7.54 
  -2  -9  -4    7.86    2.86 
   2   9   4   10.72    4.75 
  -2  -9  -4   15.82    6.06 
   2  -9   4   29.65    6.43 
  -2   9   4   13.06    6.10 
   2   9  -4   11.73    4.30 
   2  -9  -4   25.64    6.90 
  -2  -9   4   22.24    5.70 
  -2   9  -4   17.47    6.17 
   2  -9  -4   -0.09    5.04 
   2  -9   4   13.24    5.57 
   2   9   4    2.08    3.89 
   2   9  -4   19.93    6.72 
  -2  -9   4    4.25    4.25 
  -2   9  -4   27.38    4.99 
  -3  -9  -4    2.29    4.44 
  -3  -9  -4    3.88    3.46 
   3   9   4    4.20    5.04 
   3   9   4    0.91    3.20 
  -3  -9   4    4.53    3.68 
  -3   9   4    4.04    4.27 
   3   9   4    4.37    4.34 
   3  -9   4   -1.87    3.14 
  -3  -9   4    0.92    3.47 
   3  -9   4    8.80    4.55 
   3  -9  -4    4.85    5.10 
   3  -9  -4    3.43    4.94 
  -3  -9  -4    1.57    2.64 
  -3   9  -4    2.96    4.83 
  -3   9  -4    1.60    3.68 
   3   9  -4    6.43    5.03 
  -3  -9   4    5.05    4.50 
   3   9  -4    5.62    3.56 
  -4  -9   4    1.04    2.97 
   4  -9   4    1.61    3.72 
   4   9  -4   -0.50    4.28 
  -4  -9   4    0.33    3.63 
   4   9  -4    2.45    3.29 
  -4  -9   4    2.11    4.42 
  -4   9   4    2.88    3.53 
   4  -9  -4    3.17    5.37 
  -4   9  -4   -0.65    4.76 
  -4  -9  -4    3.45    3.81 
  -4  -9  -4    1.21    4.18 
   4   9   4    2.27    5.14 
  -4   9   4   -0.06    4.32 
  -4   9   4    1.64    3.97 
  -5   9   4   20.33    6.90 
   5   9  -4   22.25    7.32 
   5  -9  -4   21.48    8.38 
  -5   9   4   20.13    6.15 
  -5   9  -4   10.18    6.93 
   5   9   4   20.82    7.99 
   5   9   4   29.34    6.39 
  -5  -9  -4   18.80    5.85 
   5   9  -4   16.10    5.70 
   5  -9   4   14.15    5.29 
  -5   9   4   13.53    4.56 
  -5  -9   4   33.18    8.40 
  -5  -9   4   20.17    6.16 
  -5  -9  -4   29.23    8.95 
  -6  -9   4   11.56    6.31 
   6   9  -4    7.30    5.30 
  -6   9  -4    6.78    6.57 
  -6   9   4    0.47    5.13 
  -6  -9   4    8.39    4.87 
  -6  -9  -4   11.08    5.30 
   6  -9   4    8.95    5.01 
  -6   9   4   -0.31    3.42 
   6   9   4   11.68    6.72 
   6   9   4    4.05    4.90 
   6  -9  -4   19.47    7.15 
  -6  -9  -4    1.93    5.36 
   6   9  -4   19.38    5.96 
  -7   9   4    2.29    3.52 
   7   9  -4    8.96    5.47 
   7   9   4    1.40    5.33 
   7  -9   4    1.72    4.67 
   7   9   4    1.03    4.49 
  -7  -9   4    7.62    6.13 
  -7  -9  -4    4.58    3.95 
  -7   9   4    1.44    5.57 
  -7  -9   4   -3.29    3.71 
  -7  -9  -4   -3.77    4.58 
   7   9  -4    1.81    5.15 
   7  -9  -4   -2.59    4.90 
  -7   9  -4   -0.45    6.66 
   8   9   4   -0.75    4.93 
  -8  -9  -4   -3.95    3.41 
  -8   9   4   -7.01    5.90 
  -8   9   4    2.96    3.84 
   8   9  -4    2.32    5.32 
   8   9   4   -1.90    4.77 
  -8  -9   4    3.43    4.09 
  -8  -9   4   -0.30    5.30 
   8  -9  -4    1.76    5.75 
  -8   9  -4   -1.42    6.32 
   8  -9   4   -0.26    4.30 
  -8  -9  -4   -2.14    4.95 
  -9   9   4    3.24    3.95 
   9   9   4   10.90    8.51 
   9  -9   4    9.62    5.27 
  -9  -9  -4   -5.53    3.17 
   9   9  -4   -0.57    5.17 
  -9  -9   4    3.50    4.50 
   9  -9  -4   16.01    8.32 
  -9   9  -4   -1.29    7.31 
  -9  -9  -4   -3.53    5.34 
  -9   9   4    0.51    6.39 
  -9  -9   4   -2.00    6.66 
   9   9   4   -0.02    4.97 
  10   9   4    2.63    5.88 
 -10  -9  -4    0.53    6.48 
  10   9   4   11.25    8.67 
 -10  -9   4   -0.80    7.37 
  10  -9  -4    5.22    6.85 
 -10   9   4    4.51    3.52 
 -10  -9   4   -2.36    4.14 
 -10   9   4    4.46    7.30 
 -10  -9  -4    5.41    6.19 
 -10   9  -4    6.81    8.36 
  10   9  -4   -2.28    5.52 
   0 -10   4  960.26   32.66 
   0 -10   4  971.56   34.48 
   0  10  -4 1013.24   38.60 
   0  10   4  936.89   37.88 
   0 -10  -4  960.88   35.75 
   0 -10  -4  922.89   36.40 
  -1 -10  -4    3.69    4.41 
  -1 -10  -4    6.21    4.45 
   1 -10   4    4.95    4.80 
   1  10   4   -0.51    4.54 
   1  10  -4   -1.65    2.61 
   1 -10  -4    4.92    4.95 
  -1 -10   4    4.47    4.02 
  -1  10  -4   -2.66    4.18 
   1  10  -4    3.66    5.50 
   1 -10   4    1.88    4.03 
  -1 -10   4   -2.16    3.89 
  -1  10   4   -6.16    3.98 
   1 -10  -4    3.62    4.88 
   2 -10   4  676.56   27.87 
  -2 -10  -4  702.17   29.35 
   2 -10  -4  659.65   30.18 
   2  10  -4  653.16   29.88 
  -2 -10   4  699.83   27.49 
  -2  10   4  701.97   29.14 
   2 -10   4  712.49   26.93 
  -2  10  -4  677.45   30.23 
   2 -10  -4  666.82   30.31 
   2  10   4  659.45   31.92 
  -2 -10   4  681.02   26.68 
   2  10  -4  692.82   23.91 
   3  10  -4    3.04    3.53 
  -3  10  -4   -3.52    4.51 
  -3  10   4   -1.12    4.38 
   3  10  -4    5.90    5.31 
   3 -10  -4   -0.63    4.60 
  -3 -10   4    3.40    4.00 
   3 -10  -4    1.76    5.22 
   3 -10   4    6.23    4.67 
  -3 -10   4    8.00    5.22 
  -3 -10  -4   10.43    5.78 
   3  10   4   -2.37    4.75 
   4 -10  -4  640.50   29.23 
  -4  10  -4  611.47   29.53 
   4  10  -4  588.90   24.45 
   4  10   4  608.42   31.09 
   4  10  -4  655.97   29.99 
  -4  10   4  615.41   26.80 
  -4 -10  -4  597.98   28.41 
  -4 -10   4  624.93   24.22 
   4 -10   4  591.73   26.14 
  -4 -10   4  659.42   28.59 
   5  10  -4    0.77    4.59 
  -5  10   4    1.59    5.03 
   5  10  -4   -1.87    3.87 
  -5  10   4   -1.58    3.25 
  -5 -10   4    0.24    4.30 
   5 -10   4    1.51    4.26 
  -5 -10  -4   -0.15    4.96 
  -5  10   4    3.08    5.28 
   5 -10  -4   -3.63    4.79 
  -5 -10  -4   -0.71    3.55 
  -5  10  -4    3.39    5.76 
   5  10   4   -5.53    4.93 
  -6 -10  -4  319.07   21.02 
   6  10   4  310.41   21.50 
  -6  10  -4  321.75   21.47 
  -6  10   4  321.47   20.73 
  -6 -10  -4  346.24   19.68 
   6 -10   4  292.37   18.42 
   6  10  -4  279.55   17.47 
   6 -10  -4  319.38   21.18 
  -6 -10   4  322.30   20.87 
   6  10  -4  337.84   19.84 
  -6  10   4  311.56   15.61 
  -7 -10   4    0.04    3.92 
  -7  10   4    4.35    3.76 
   7 -10  -4   -4.07    5.39 
   7  10  -4    9.82    6.26 
  -7 -10   4    3.91    5.45 
  -7  10  -4   -5.87    6.15 
  -7 -10  -4    1.04    5.66 
   7  10   4    2.02    4.52 
   7  10  -4    3.37    5.07 
  -7  10   4   10.07    5.99 
   7  10   4    0.76    5.57 
   7 -10   4    0.71    4.26 
  -7 -10  -4   -1.18    4.21 
  -8  10   4  266.56   19.80 
   8 -10   4  241.66   17.46 
  -8 -10  -4  261.29   17.96 
  -8 -10   4  230.74   19.26 
   8  10   4  246.03   20.33 
  -8  10   4  246.29   13.67 
   8 -10  -4  255.04   19.74 
  -8 -10   4  279.68   18.43 
  -8 -10  -4  245.93   19.43 
   8  10   4  224.92   16.21 
  -8  10  -4  263.06   20.53 
   8  10  -4  246.48   17.85 
  -9 -10   4   -1.19    5.79 
  -9  10   4   -4.42    4.06 
   9 -10  -4   11.53    8.25 
   9 -10   4    6.16    5.66 
   9  10  -4   -1.02    5.65 
  -9  10  -4    7.17    8.24 
   9  10   4    5.01    7.33 
  -9 -10   4   -0.66    4.52 
  -9 -10  -4   -9.06    5.00 
  -9 -10  -4    5.31    4.92 
  -9  10   4    4.67    7.48 
   9  10   4    9.22    6.13 
   0  11  -4   12.00    6.84 
   0 -11  -4   20.53    7.06 
   0 -11  -4    4.53    5.37 
   0 -11   4   28.32    6.42 
   0 -11   4    8.13    5.76 
   0  11   4   15.85    7.25 
  -1 -11   4   71.21   10.36 
   1 -11   4   73.51   10.95 
  -1  11  -4   80.56   12.81 
   1 -11  -4   76.01   12.31 
   1  11  -4   80.78   13.54 
  -1 -11  -4   97.57   12.67 
   1 -11  -4   99.55   13.21 
   1 -11   4   97.57   11.42 
   1  11   4   82.11   13.51 
  -1 -11  -4   72.84   11.08 
  -1 -11   4   74.11    9.91 
  -1  11   4   85.53   12.14 
   2 -11   4    9.16    5.74 
   2 -11  -4   -0.98    5.09 
  -2 -11   4    8.95    4.71 
  -2 -11  -4    5.57    4.87 
   2 -11  -4    5.04    5.75 
  -2  11   4    5.71    5.42 
   2  11  -4   -1.07    4.56 
  -2 -11   4    2.64    4.48 
  -2  11  -4    5.02    5.89 
   2  11   4    2.34    5.84 
   2 -11   4   -0.62    4.55 
  -3  11  -4   20.90    8.12 
   3  11   4   21.93    8.58 
  -3  11   4   13.25    7.04 
   3  11  -4   28.99    8.11 
   3 -11   4   12.25    6.16 
  -3 -11   4   24.08    6.45 
   3 -11  -4   14.80    7.57 
  -3 -11  -4   26.73    8.30 
  -3 -11   4   24.87    7.46 
   3 -11  -4   24.46    8.35 
   4  11   4    8.92    7.27 
  -4  11   4    6.89    6.13 
  -4  11  -4    8.27    6.74 
   4 -11   4    8.63    5.25 
  -4 -11  -4    7.00    5.84 
  -4 -11   4    5.71    5.25 
  -4 -11   4    5.36    4.04 
   4 -11  -4    9.39    5.51 
   4  11  -4   12.66    6.84 
   5 -11  -4   90.83   14.39 
  -5  11   4   41.30    7.66 
  -5  11  -4   74.47   13.14 
  -5  11   4   63.46   11.11 
  -5 -11   4   80.10   12.47 
   5 -11   4   60.13   10.43 
  -5  11   4   56.44   11.75 
   5  11  -4   68.00   10.11 
  -5 -11  -4   86.60   13.30 
   5  11   4   69.62   13.85 
   5  11  -4   87.44   13.62 
  -6  11  -4    1.49    6.89 
   6  11  -4   -6.76    4.81 
   6  11  -4    8.58    5.63 
   6 -11  -4   -0.86    5.40 
  -6  11   4    1.89    5.54 
  -6  11   4    0.69    3.59 
   6 -11   4   -1.42    4.58 
   6  11   4   -0.06    6.38 
  -6 -11  -4    0.71    5.87 
  -6 -11   4    5.15    5.44 
  -7  11  -4   13.26    8.59 
  -7 -11  -4   12.29    7.73 
   7  11   4   12.72    7.20 
  -7 -11   4    8.35    6.12 
  -7  11   4   20.99    8.54 
   7  11  -4    6.39    5.97 
   7 -11  -4   29.27    9.51 
   7 -11   4    7.82    6.15 
  -7  11   4    5.83    4.56 
   7  11  -4   14.51    6.73 
   8 -11   4    1.35    5.68 
   8  11  -4   -1.63    4.86 
  -8  11   4    4.34    3.98 
  -8 -11  -4    3.15    6.83 
  -8  11   4   16.40    8.43 
   8 -11  -4    9.93    8.14 
   8  11   4   -1.68    6.35 
  -8  11  -4   12.15    8.03 
  -8 -11   4    5.35    6.57 
  -9 -11  -4   11.29    7.58 
   9 -11  -4   17.68    9.05 
   9  11  -4   11.64    7.30 
   9  11   4   -6.68    7.13 
  -9 -11   4   10.56    8.87 
  -9  11   4   10.27    5.09 
   9 -11   4   17.43    6.97 
  -9  11   4   10.03    7.93 
  -9  11  -4   17.76    9.97 
   0 -12  -4  310.11   19.92 
   0 -12  -4  297.44   18.97 
   0  12  -4  307.03   20.21 
   0 -12   4  305.90   18.45 
   0 -12   4  301.29   16.78 
   0  12   4  298.66   20.30 
  -1 -12   4    5.35    4.48 
  -1 -12   4    6.99    5.17 
   1 -12  -4    3.15    5.32 
  -1  12  -4    3.93    6.79 
   1 -12  -4    4.35    5.80 
   1  12  -4    6.07    6.15 
   1 -12   4   13.40    6.30 
  -1 -12  -4    5.17    5.65 
  -1 -12  -4    5.45    4.94 
  -1  12   4   -2.42    4.16 
   1 -12   4    4.92    5.12 
   1  12   4   -4.13    5.26 
  -2 -12   4  303.79   17.86 
   2  12  -4  324.71   20.75 
   2  12   4  317.93   22.33 
  -2  12  -4  317.86   20.72 
  -2  12   4  298.41   19.03 
   2 -12  -4  262.19   19.43 
  -2 -12  -4  265.09   18.22 
   2 -12  -4  280.62   19.72 
  -2 -12   4  292.57   17.47 
   2 -12   4  277.40   18.24 
   3 -12  -4   -1.04    5.12 
  -3 -12   4    3.96    5.16 
   3 -12   4    1.55    5.22 
  -3  12  -4    0.60    5.68 
   3  12   4    4.20    6.86 
   3 -12  -4    4.33    5.84 
  -3 -12  -4   -3.47    4.52 
   3  12  -4    3.99    5.72 
  -3 -12   4    4.29    4.85 
  -3  12   4    7.13    6.43 
   4  12   4  341.82   23.32 
  -4 -12  -4  320.70   21.22 
   4 -12   4  345.83   20.85 
  -4 -12   4  349.78   20.44 
  -4  12   4  314.75   19.78 
   4  12  -4  398.19   23.80 
   4 -12  -4  335.77   21.12 
  -4  12  -4  294.83   20.57 
   5 -12  -4    3.07    6.06 
  -5  12   4    1.89    3.68 
  -5 -12  -4    1.85    5.65 
  -5  12   4    6.53    6.45 
   5 -12   4   13.09    5.96 
   5  12   4   -0.47    6.16 
   5  12  -4    4.30    5.88 
  -5  12   4    0.78    5.57 
  -5 -12   4   -0.93    4.76 
  -5  12  -4   -3.04    5.60 
  -6 -12   4  316.53   21.39 
  -6  12   4  297.03   20.88 
  -6  12  -4  324.31   22.28 
   6 -12   4  290.43   19.85 
  -6 -12  -4  321.15   21.94 
   6 -12  -4  343.85   21.82 
   6  12   4  319.76   23.41 
   6  12  -4  341.97   21.51 
  -6  12   4  295.71   16.74 
  -7  12   4   -1.36    5.79 
   7 -12  -4   -3.46    5.45 
   7 -12   4    1.90    5.82 
   7  12   4   14.07    8.21 
  -7  12  -4   -0.17    7.81 
   7  12  -4   -4.30    6.09 
  -7 -12   4    6.73    6.60 
  -7 -12  -4   -1.17    6.79 
  -7  12   4    6.57    4.22 
  -8  12   4  265.14   14.89 
   8 -12  -4  263.72   21.15 
   8 -12   4  263.91   19.62 
  -8  12  -4  248.11   20.35 
   8  12   4  296.99   22.96 
  -8 -12   4  219.66   19.81 
  -8 -12  -4  235.52   20.19 
  -8  12   4  290.81   21.63 
   0  13  -4   11.26    7.74 
   0 -13  -4   -0.07    5.55 
   0  13   4   -1.14    6.17 
   0 -13   4   -2.83    4.85 
   0 -13  -4    3.25    5.58 
   0 -13   4    2.32    4.11 
   1  13   4   -1.92    5.32 
  -1 -13   4    2.63    5.52 
  -1  13  -4    0.60    5.74 
   1  13  -4    3.88    5.97 
   1 -13  -4    3.20    5.99 
  -1  13   4   12.07    6.90 
  -1 -13   4    0.07    4.57 
  -1 -13  -4   -2.24    5.21 
  -1 -13  -4    2.48    5.26 
   1 -13   4   10.65    6.51 
   1 -13  -4   -0.19    6.00 
   2 -13  -4   -1.81    6.09 
  -2 -13   4   11.60    5.91 
  -2  13  -4    3.80    6.88 
   2  13   4    5.83    7.15 
   2 -13  -4   11.98    6.60 
  -2  13   4    5.84    6.09 
   2 -13   4    7.69    6.43 
  -2 -13   4    4.85    4.78 
  -2 -13  -4    7.22    5.89 
   2  13  -4    9.23    6.55 
   3  13   4   26.74   10.09 
  -3 -13   4   20.88    6.49 
  -3 -13  -4   25.05    9.00 
  -3  13  -4   43.84   11.58 
   3 -13  -4   35.07    9.92 
   3 -13   4   24.12    8.85 
   3  13  -4   25.44    9.03 
  -3 -13   4   33.86    9.47 
  -3  13   4   23.17    8.17 
   3 -13  -4   22.80    8.81 
  -4  13   4    1.84    5.90 
   4  13  -4   -3.73    4.94 
  -4  13  -4    5.81    7.03 
  -4 -13   4   -4.89    5.09 
   4  13   4   -8.75    6.31 
   4 -13  -4    3.60    6.11 
   4 -13   4    2.69    5.15 
  -4 -13  -4    5.34    5.99 
   5  13  -4    8.45    6.76 
   5  13   4   -9.51    5.63 
  -5 -13  -4   -1.92    5.50 
  -5  13  -4    6.49    6.73 
   5 -13  -4   -2.39    5.77 
  -5  13   4    0.28    3.90 
   5 -13   4    8.13    5.72 
  -5  13   4   -7.32    5.45 
  -5 -13   4   11.00    6.79 
   6 -13   4    0.49    5.47 
  -6  13  -4    5.04    7.62 
  -6  13   4    6.41    4.65 
  -6  13   4   -5.72    5.49 
  -6 -13  -4   -0.63    5.94 
   6  13   4    5.33    7.78 
   6 -13  -4   10.22    7.32 
   6  13  -4   -3.78    5.68 
  -6 -13   4    7.23    5.99 
   7 -13  -4   10.92    9.21 
  -7  13   4   10.98    8.28 
  -7  13  -4   13.13    9.26 
   7  13  -4   31.57    9.99 
   7  13   4   17.92    9.90 
  -7  13   4   14.62    5.80 
  -7 -13  -4   -0.62    6.88 
  -7 -13   4   15.79    8.80 
   7 -13   4   16.78    7.84 
  -8  13  -4   -3.24    6.93 
   8  13   4    8.06    8.41 
  -8  13   4    0.13    6.54 
  -8  13   4    3.62    4.00 
   8 -13   4    8.09    7.38 
  -8 -13   4  -10.11    5.97 
   8 -13  -4   -4.47    6.07 
  -8 -13  -4    2.08    6.69 
   0 -14   4  325.32   21.20 
   0 -14  -4  348.91   22.33 
   0  14  -4  382.49   24.31 
   0 -14  -4  365.68   22.56 
   0  14   4  373.64   23.50 
  -1 -14  -4    4.50    5.52 
  -1  14  -4   -3.63    4.89 
  -1 -14   4    4.38    5.74 
   1  14   4    0.03    5.51 
  -1 -14   4   -4.05    5.12 
   1 -14  -4    1.33    5.92 
   1 -14  -4   -2.83    5.73 
   1  14  -4    0.37    5.81 
  -1  14   4   -2.71    5.66 
   1 -14   4    5.02    6.27 
  -1 -14  -4   -1.29    5.21 
   2 -14  -4  254.62   19.54 
  -2 -14  -4  219.42   17.83 
  -2  14  -4  242.70   19.25 
   2 -14  -4  203.79   20.64 
  -2 -14   4  246.34   17.24 
   2  14   4  230.26   20.04 
  -2 -14   4  218.70   16.56 
  -2  14   4  219.89   17.39 
   2 -14   4  230.89   18.20 
   2  14  -4  243.53   18.91 
   3 -14  -4    1.47    6.75 
  -3  14  -4    4.14    6.70 
   3  14   4    1.86    7.33 
  -3 -14  -4    2.99    5.38 
   3 -14   4   11.16    6.77 
  -3 -14   4   11.46    6.15 
   3 -14  -4    5.23    5.81 
  -3  14   4   -4.98    5.12 
   3  14  -4    7.29    6.38 
  -4 -14  -4  237.85   19.59 
   4  14  -4  257.83   20.07 
  -4  14  -4  275.56   21.05 
  -4 -14   4  263.70   19.02 
   4  14   4  290.01   23.14 
   4 -14  -4  267.79   19.21 
   4 -14   4  253.79   19.39 
  -4  14   4  244.52   18.80 
   5 -14   4   -0.18    5.52 
  -5  14   4   -2.11    4.08 
   5  14   4    4.41    8.41 
  -5 -14   4    1.19    6.20 
  -5  14   4   -5.36    5.22 
  -5 -14  -4   -2.24    5.95 
   5 -14  -4   -1.11    6.04 
   5  14  -4    0.88    6.49 
  -5  14  -4    0.14    6.67 
  -6  14  -4  129.03   18.19 
  -6  14   4  125.45   13.08 
  -6 -14  -4  136.08   18.37 
   6  14  -4  168.87   19.87 
  -6  14   4  119.28   17.02 
   6  14   4  149.74   21.54 
  -6 -14   4  186.44   20.09 
   6 -14   4  129.52   17.14 
   6 -14  -4  162.24   19.21 
  -7 -14   4   -6.22    6.44 
  -7  14  -4    3.12    6.70 
  -7  14   4   11.92    7.96 
   7  14   4   -6.19    7.43 
   7  14  -4    3.94    7.41 
  -7 -14  -4   -2.71    6.14 
   7 -14   4   -1.73    5.96 
  -7  14   4   -0.65    4.54 
   7 -14  -4   14.14    8.20 
   0 -15   4    9.93    6.99 
   0  15  -4    5.39    6.82 
   0 -15  -4    6.53    6.33 
   0 -15  -4    7.44    7.01 
   0  15   4   13.22    8.64 
   1  15  -4   19.11    9.44 
  -1 -15   4   20.26    8.27 
  -1 -15  -4   38.07   10.72 
   1 -15  -4   30.57    9.85 
  -1  15  -4   30.81   11.09 
  -1  15   4   29.80   10.56 
   1  15   4   21.71    9.60 
   1 -15   4   17.57    8.61 
   1 -15  -4   12.51    7.84 
   2 -15   4    5.17    6.84 
  -2 -15  -4   -6.50    5.23 
   2 -15  -4    8.44    7.53 
  -2 -15   4    3.62    5.53 
  -2  15  -4    1.95    7.46 
   2 -15  -4   -4.96    6.51 
   2  15  -4   13.75    8.35 
   2  15   4   17.79    9.31 
  -2 -15   4    5.85    7.08 
  -2  15   4    0.54    5.46 
   3  15  -4   -4.63    6.69 
   3  15   4   19.11    9.85 
   3 -15   4    6.65    6.94 
  -3  15  -4    9.09    8.15 
  -3  15   4    2.05    6.72 
  -3 -15  -4    8.23    6.35 
   3 -15  -4   -0.19    5.58 
  -3 -15   4   14.71    7.56 
  -4  15   4    4.56    6.78 
  -4  15   4   20.75    8.89 
   4 -15  -4    5.28    6.87 
   4 -15   4   -7.06    4.89 
   4  15   4    6.05    8.87 
  -4  15   4    6.24    5.25 
  -4  15  -4    0.81    8.42 
   4  15  -4    6.61    8.12 
  -4 -15   4    1.06    6.39 
  -4 -15  -4   11.35    7.31 
   5 -15   4   24.94    9.28 
  -5  15   4   15.27    6.50 
   5  15  -4   38.34   11.47 
   5 -15  -4    8.44    8.84 
  -5  15   4   16.70    8.05 
  -5 -15  -4   23.27   10.36 
  -5 -15   4   25.35   10.10 
   5  15   4   33.49   12.55 
  -5  15  -4   23.67   10.31 
   6  15  -4   16.59    9.69 
   6 -15  -4    2.47    6.12 
  -6  15   4   -1.65    6.74 
   6 -15   4   -2.95    6.06 
  -6 -15   4   -2.86    6.52 
   6  15   4    0.96    8.55 
  -6  15  -4   -4.24    6.83 
  -6 -15  -4    3.07    7.92 
  -6  15   4    3.48    4.98 
   0 -16  -4  152.68   19.16 
   0  16   4  146.17   19.48 
   0  16  -4  138.43   19.75 
   0 -16   4  139.95   17.40 
  -1 -16  -4    2.33    7.83 
   1  16  -4   10.20    8.51 
  -1  16   4   -0.26    6.95 
   1 -16   4   -3.35    5.96 
   1 -16  -4   -1.79    6.06 
  -1  16  -4   -0.84    6.48 
   1  16   4    0.60    7.64 
  -1 -16   4    7.78    7.19 
  -2  16   4   81.61   15.00 
   2 -16  -4  104.50   16.75 
   2  16   4   67.85   15.79 
   2 -16   4   85.55   14.64 
  -2  16  -4   83.60   16.25 
  -2 -16  -4  110.65   17.12 
   2  16  -4   88.69   16.52 
  -2 -16   4   71.86   12.94 
   3  16   4    0.68    7.25 
   3  16  -4   -0.53    7.22 
  -3  16   4    7.83    6.87 
  -3  16  -4    0.40    6.80 
   3 -16  -4   -0.18    7.06 
  -3 -16  -4    7.69    8.04 
  -3  16   4   -8.03    4.30 
  -3 -16   4    2.63    6.36 
   3 -16   4    3.99    7.34 
  -4  16   4  138.78   17.27 
  -4 -16   4  173.29   19.52 
  -4 -16  -4  156.83   19.90 
   4 -16   4  143.26   19.02 
   4  16   4  149.64   21.94 
  -4  16   4  144.05   19.39 
  -4  16   4  145.34   16.17 
   4  16  -4  196.57   22.89 
  -4  16  -4  170.53   21.46 
   4 -16  -4  179.49   20.04 
   5  16  -4   -1.20    8.28 
  -5 -16  -4   -0.71    7.04 
   5 -16   4   -3.25    7.09 
   5 -16  -4   -3.52    7.70 
  -5 -16   4   -2.62    7.12 
   5  16   4    6.18    8.36 
  -5  16   4   -3.30    6.47 
  -5  16   4    4.61    5.98 
  -5  16  -4    4.50    7.46 
   0 -17  -4    0.72    5.95 
   0  17   4    0.78    6.10 
   0  17  -4   -3.41    7.81 
   0  17   4    2.13    7.31 
   0 -17   4    0.32    6.29 
   0  17   4   17.95    7.17 
   1 -17  -4    7.96    8.15 
  -1 -17   4    1.78    7.11 
  -1  17   4    0.42    6.74 
   1  17   4   -3.33    7.28 
   1  17  -4   -2.97    7.38 
   1 -17   4    3.35    7.68 
  -1 -17  -4    5.96    7.46 
  -1  17  -4   -3.39    7.54 
  -1  17   4   -5.71    5.52 
  -1  17   4   -2.52    6.82 
   2 -17  -4   -1.41    8.02 
   2  17  -4    2.08    8.07 
  -2 -17  -4    4.03    7.04 
  -2  17   4    7.45    7.46 
  -2  17   4   -2.44    6.95 
   2 -17   4    6.99    7.81 
  -2  17  -4    5.27    8.32 
  -2  17   4   -2.05    5.35 
   2  17   4   -2.17    7.93 
  -3 -17  -4   -1.66    6.90 
  -3  17  -4    9.78    9.61 
  -3  17   4    9.95    8.57 
   3 -17  -4   -2.43    7.45 
  -3  17   4    2.48    5.42 
  -3  17   4    2.27    6.84 
   3  17   4   -0.49    6.67 
   3 -17   4    2.49    7.68 
   3  17  -4   -7.04    7.27 
   0   0   5    0.18    1.78 
   0   0   5    1.25    2.00 
   0   0   5   -1.23    2.03 
   0   0  -5   -0.33    2.05 
   0   0  -5   -0.54    1.58 
   0   0  -5   -0.48    1.54 
   1   0  -5   56.13    5.85 
  -1   0   5   35.23    3.42 
  -1   0   5   42.77    5.86 
   1   0  -5   51.51    6.09 
   1   0   5   47.04    6.44 
  -1   0   5   59.47    7.27 
   1   0   5   47.17    5.85 
   1   0  -5   57.16    6.65 
  -1   0  -5   41.17    3.46 
   1   0   5   49.70    5.41 
  -1   0  -5   43.69    5.34 
  -1   0  -5   43.38    5.29 
   2   0   5    4.47    2.30 
   2   0  -5    7.12    3.62 
  -2   0  -5    6.98    1.97 
  -2   0  -5    6.32    2.31 
   2   0   5    6.81    3.71 
  -2   0  -5    6.09    2.61 
  -2   0   5   11.85    3.98 
   2   0  -5    2.69    2.50 
  -2   0   5    4.32    2.43 
   3   0   5  106.91    6.16 
   3   0   5  109.89    9.83 
  -3   0   5  112.02    8.77 
  -3   0  -5   96.54    7.14 
   3   0  -5  106.57    8.90 
  -3   0  -5  122.98    6.20 
   3   0  -5   98.86    7.86 
  -3   0   5   96.18    7.54 
  -3   0  -5  104.43    6.61 
   4   0  -5   -0.86    3.95 
  -4   0  -5   -1.50    2.05 
  -4   0  -5    0.98    1.86 
  -4   0   5   -0.27    2.04 
  -4   0   5    0.60    3.17 
  -4   0  -5    2.58    2.47 
   4   0   5    0.94    1.59 
   4   0   5    2.05    3.99 
  -4   0  -5    2.85    2.40 
   4   0  -5    1.59    2.62 
  -5   0   5    8.65    3.46 
  -5   0  -5    3.80    2.47 
  -5   0  -5    4.38    3.44 
  -5   0  -5    3.97    3.30 
   5   0   5    5.30    2.20 
   5   0   5    7.75    5.46 
   5   0  -5    8.53    5.24 
   5   0  -5    4.25    4.00 
  -5   0   5    6.59    3.96 
   6   0  -5    7.88    6.11 
  -6   0   5    9.03    4.43 
   6   0   5    9.35    6.43 
   6   0  -5    5.08    3.79 
  -6   0  -5    6.57    2.86 
  -6   0  -5    1.57    3.76 
  -6   0   5    1.11    2.47 
  -7   0  -5   28.39    6.72 
   7   0   5   40.57   10.00 
  -7   0  -5   26.06    4.96 
   7   0   5   27.90    6.83 
  -7   0   5   24.92    6.40 
   7   0  -5   33.17    7.85 
  -7   0   5   17.84    7.99 
  -7   0   5   24.73    5.95 
   8   0   5   12.75    6.49 
  -8   0   5    0.27    3.35 
  -8   0  -5    2.35    3.12 
   8   0   5    8.52    4.64 
  -8   0   5   -1.68    5.26 
  -8   0   5   -6.51    3.14 
   8   0  -5   -3.54    3.55 
  -8   0  -5    2.45    4.44 
   9   0   5   31.76    8.10 
   9   0  -5   23.41    8.01 
  -9   0   5   22.80    9.45 
  -9   0   5   12.57    5.18 
  -9   0  -5   22.13    5.27 
   9   0   5   15.76    7.86 
  -9   0  -5   19.79    7.44 
  10   0   5    1.17    6.07 
 -10   0   5    0.02    4.13 
 -10   0  -5    6.60    4.13 
 -10   0   5    0.84    6.65 
  10   0  -5    7.50    5.21 
  11   0  -5    3.16    5.28 
 -11   0   5    0.88    4.27 
 -11   0  -5   -2.59    4.99 
 -11   0   5   -3.46    6.79 
 -11   0  -5   -0.99    3.40 
  11   0   5   -1.88    5.53 
   0   1  -5  146.09    8.69 
   0  -1  -5  141.56    8.50 
   0   1  -5  141.25    6.46 
   0  -1   5  131.20    7.53 
   0   1   5  128.74    8.41 
   0  -1   5  115.05    7.62 
   0  -1   5  138.63    8.64 
   0  -1  -5  142.21    8.36 
   0  -1  -5  140.48    7.74 
   0   1   5  137.43    9.05 
   0   1  -5  132.86    8.29 
   0   1   5  137.75    8.20 
   1  -1   5    3.21    2.43 
   1   1  -5    4.05    2.98 
   1   1   5   -0.61    2.65 
  -1   1   5    2.76    2.75 
  -1  -1  -5    1.53    2.21 
   1  -1  -5    5.04    3.28 
   1  -1  -5    1.14    2.71 
  -1  -1   5    1.17    2.11 
   1   1   5   -3.72    1.92 
   1   1   5    0.16    2.05 
  -1  -1  -5    1.57    2.21 
  -1   1  -5   -1.10    1.29 
   1  -1  -5   -2.44    1.93 
  -1   1   5    0.59    2.09 
  -1   1  -5   -1.18    2.07 
  -1  -1   5    2.46    2.95 
  -1  -1  -5   -1.97    1.67 
  -1  -1   5   -0.38    2.06 
   1  -1   5   -1.21    2.09 
   1   1  -5    2.94    2.45 
   1  -1   5    4.46    3.00 
  -1   1  -5    0.50    2.12 
  -1   1   5   -1.06    2.71 
   1   1  -5    2.29    2.47 
   2   1  -5   76.21    6.71 
  -2  -1  -5   69.71    5.42 
  -2   1  -5   67.46    5.44 
   2   1   5   88.53    9.82 
  -2  -1  -5   63.65    5.35 
   2  -1  -5   82.76    8.09 
  -2   1   5   68.96    7.44 
  -2   1  -5   70.35    5.80 
  -2  -1   5   70.71    7.59 
   2   1  -5   75.96    7.56 
   2  -1   5   77.34    8.62 
  -2   1   5   78.77    8.40 
  -2   1  -5   67.75    3.37 
   2   1   5   71.10    5.02 
   2   1   5   75.82    7.28 
   2  -1  -5   74.34    6.06 
   2   1  -5   74.13    3.94 
  -2  -1  -5   71.83    4.64 
   2  -1   5   69.09    5.43 
  -2  -1   5   74.87    8.07 
  -3   1  -5    1.15    2.65 
   3   1  -5    1.48    3.93 
   3  -1  -5    3.44    4.11 
   3  -1   5    2.56    3.94 
   3   1   5   -3.56    1.70 
  -3  -1  -5    3.74    2.38 
  -3   1  -5   -0.64    1.60 
  -3  -1  -5   -0.64    1.98 
  -3   1   5    2.03    3.21 
   3   1   5    0.06    3.76 
   3  -1   5    1.10    2.02 
  -3  -1   5   -0.89    2.07 
   3   1  -5    0.06    2.54 
  -3  -1  -5   -1.59    1.42 
  -3  -1   5    1.17    3.00 
   3  -1  -5    4.29    2.81 
  -3   1  -5   -1.13    1.99 
  -3   1  -5    1.96    1.88 
  -3   1   5   -2.18    2.11 
   4  -1   5   30.61    4.00 
  -4   1   5   30.13    5.12 
   4   1   5   30.88    7.93 
   4   1  -5   27.01    5.88 
  -4   1  -5   24.39    3.96 
  -4  -1   5   30.61    5.74 
  -4  -1   5   35.00    6.65 
  -4   1   5   26.11    6.32 
   4  -1  -5   33.71    7.78 
  -4   1   5   25.65    5.05 
  -4   1  -5   26.82    5.22 
  -4  -1  -5   28.02    4.39 
   4  -1  -5   31.77    6.11 
   4  -1   5   34.62    7.73 
  -4   1  -5   34.16    4.71 
  -4  -1  -5   39.84    5.56 
   4   1  -5   44.66    8.31 
  -4   1  -5   41.43    6.12 
  -4  -1  -5   26.33    5.23 
   4   1  -5   40.07    3.46 
   4   1   5   34.15    3.27 
  -5  -1   5   -3.45    2.65 
  -5   1   5   -0.66    2.20 
  -5  -1   5   -2.35    2.00 
   5   1   5   -0.68    4.27 
   5  -1  -5   -0.09    3.79 
   5  -1  -5   -2.96    2.71 
  -5   1   5    2.45    3.96 
  -5   1  -5   -2.59    2.27 
   5   1  -5    1.02    2.06 
   5  -1   5    0.34    1.99 
   5   1   5   -0.28    1.51 
  -5   1  -5   -1.35    2.73 
  -5   1  -5    3.04    2.67 
   5   1  -5   -1.01    2.92 
   5  -1   5   -3.18    3.95 
  -5  -1  -5    2.27    2.13 
  -5  -1  -5    1.10    3.31 
  -5   1  -5   -1.95    1.64 
  -5  -1  -5    4.07    3.40 
  -6  -1  -5  117.44   11.01 
   6   1   5   90.58   13.68 
  -6  -1   5  105.64   10.88 
  -6   1   5   90.46   10.67 
   6  -1  -5  108.50   11.55 
   6  -1   5   95.46   13.31 
   6   1   5   99.65   10.49 
   6   1  -5  107.70   11.83 
  -6   1   5   86.28    8.89 
   6  -1   5   90.87    6.19 
  -6  -1   5   93.00    8.18 
  -6  -1   5  138.28   14.42 
  -6   1  -5   88.50    6.48 
   6  -1  -5  109.63   14.05 
  -6   1  -5   86.09    7.85 
  -6   1  -5   98.33   10.84 
  -6  -1  -5   83.86    6.95 
  -7   1  -5    2.42    2.79 
   7   1   5    4.53    4.17 
  -7   1   5    3.53    3.22 
  -7  -1   5    1.78    2.94 
   7   1  -5   -0.15    3.57 
  -7  -1   5    0.63    4.06 
  -7  -1   5   -2.87    4.07 
   7  -1  -5    0.10    3.69 
   7  -1  -5   -6.39    4.58 
  -7  -1  -5    1.84    4.39 
  -7   1  -5   -2.53    3.89 
   7  -1   5    1.19    4.54 
   7   1   5    0.81    4.88 
  -7   1   5    2.13    4.01 
  -7  -1  -5   -0.91    2.54 
   8   1  -5   -3.43    3.52 
  -8  -1   5    2.94    6.18 
   8   1   5    1.61    5.39 
  -8  -1  -5   -0.19    3.35 
   8  -1   5   -5.04    4.84 
  -8   1  -5    3.50    3.41 
  -8  -1  -5    5.85    5.66 
   8  -1  -5    2.85    4.71 
  -8   1   5    2.92    3.53 
  -8   1   5   -5.40    3.94 
  -8   1  -5   -1.37    4.39 
  -8  -1   5    4.61    3.50 
  -8   1   5   -5.81    4.86 
   8   1   5    1.10    4.27 
   9  -1   5   -4.97    4.85 
  -9   1   5    0.05    3.27 
  -9  -1   5    2.58    3.60 
  -9  -1   5   -2.79    5.15 
   9   1   5    0.05    5.95 
   9   1  -5    0.96    4.61 
  -9   1  -5   -3.08    2.84 
  -9   1   5    4.50    6.69 
  -9  -1  -5   -1.26    3.06 
   9  -1  -5    7.36    4.80 
   9   1   5    0.69    5.07 
  -9  -1  -5    5.57    5.82 
 -10  -1  -5   41.13   10.01 
 -10   1   5   28.68    6.29 
 -10   1  -5   30.15    9.27 
  10   1   5   36.73    9.97 
 -10  -1   5   45.26   12.46 
  10   1   5   35.63    8.97 
  10   1  -5   26.90    8.94 
 -10  -1   5   29.31    6.87 
 -10  -1  -5   34.37    6.78 
  10  -1  -5   38.24    9.43 
  10  -1   5   54.07   12.28 
 -10   1   5   33.01   11.07 
 -10   1  -5   28.24    5.93 
 -11  -1   5   -1.49    7.05 
 -11   1   5   16.66    5.00 
 -11  -1   5    5.79    5.21 
 -11   1  -5    1.69    3.74 
  11   1   5    1.59    5.94 
  11  -1   5   -0.43    6.21 
 -11   1  -5    8.85    6.74 
  11  -1  -5   -1.11    4.58 
  11   1  -5   -2.15    4.62 
 -11   1   5    3.05    6.94 
 -11  -1  -5   -0.70    4.37 
   0  -2   5   14.67    3.52 
   0  -2  -5   19.19    3.40 
   0  -2  -5    9.01    2.78 
   0   2  -5   10.18    3.04 
   0  -2   5    5.51    2.63 
   0   2   5    9.67    3.47 
   0  -2  -5   13.74    3.81 
   0   2   5    7.13    3.45 
   0   2   5    7.48    3.39 
  -1   2  -5    5.58    2.80 
  -1  -2   5   -0.16    2.02 
   1   2  -5    0.99    2.13 
   1   2   5    1.01    2.65 
  -1   2   5    1.23    2.88 
   1   2   5    2.34    3.33 
   1   2  -5    1.49    2.58 
  -1   2  -5   -0.57    2.15 
  -1  -2  -5    0.16    1.85 
   1  -2  -5    5.55    2.64 
   1  -2   5    0.64    2.22 
  -1   2   5   -1.64    2.23 
   1  -2  -5   -1.71    2.15 
  -1  -2  -5   -0.78    1.81 
  -1  -2   5    0.18    2.15 
   1  -2   5   -0.80    2.48 
  -1  -2  -5    2.31    2.20 
  -1   2   5    4.72    2.89 
   1  -2  -5    2.46    2.64 
   1   2   5    0.48    2.52 
  -2   2   5    2.06    2.30 
   2   2  -5    0.70    1.82 
  -2  -2  -5    2.43    1.84 
   2   2   5    1.26    3.31 
  -2  -2   5    2.68    2.69 
   2  -2   5    3.57    3.02 
   2   2   5    4.22    1.96 
  -2  -2  -5    3.12    2.25 
  -2   2   5    1.13    1.89 
   2  -2   5    4.54    2.52 
   2  -2  -5    9.25    4.11 
   2  -2  -5    1.19    2.44 
  -2   2  -5    1.82    1.99 
   2   2   5    0.93    2.45 
  -2  -2   5    5.84    3.38 
  -2  -2   5    2.72    2.83 
  -2   2   5   -0.60    2.58 
   2   2  -5    0.03    2.41 
  -2  -2  -5    3.46    2.13 
  -2   2  -5    1.54    2.15 
  -3   2   5   61.09    7.01 
  -3  -2  -5   47.39    5.38 
   3  -2  -5   74.46    7.13 
  -3   2  -5   62.39    6.53 
   3   2   5   73.01   10.33 
  -3   2  -5   63.85    5.26 
   3   2   5   62.07    4.32 
  -3  -2   5   67.05    7.97 
   3   2  -5   52.80    3.98 
   3  -2   5   67.95    5.50 
   3   2  -5   70.20    7.96 
   3  -2  -5   83.44    9.87 
  -3   2  -5   61.35    3.93 
  -3   2  -5   62.29    5.57 
  -3  -2   5   85.52    9.51 
  -3  -2   5   47.87    6.91 
  -3   2   5   78.99    9.13 
   3  -2   5   67.46    9.15 
  -3  -2  -5   58.60    6.27 
  -3  -2  -5   59.03    5.43 
   4   2  -5    4.81    3.95 
  -4  -2  -5    0.32    2.63 
  -4  -2   5    7.00    3.12 
   4  -2   5    7.69    4.78 
   4   2   5    4.77    4.59 
   4  -2  -5    3.38    3.04 
   4   2  -5    9.09    2.78 
  -4   2   5    5.95    2.83 
  -4  -2  -5   -1.17    2.09 
   4   2   5    2.71    1.63 
  -4  -2   5   13.83    4.15 
  -4   2  -5    2.35    2.04 
  -4   2   5    6.98    3.06 
  -4   2   5    0.83    3.46 
  -4  -2   5   14.34    4.79 
  -4   2  -5    9.44    2.77 
   4  -2  -5    9.12    4.55 
  -4   2  -5    2.42    2.42 
   4  -2   5    1.10    2.03 
  -4   2  -5   -0.62    2.60 
  -4  -2  -5    3.48    2.27 
  -5  -2   5    6.71    3.61 
   5   2  -5    1.74    3.29 
   5  -2   5    8.18    3.29 
  -5  -2   5   10.16    5.42 
  -5   2  -5    5.26    3.15 
   5  -2  -5    6.63    4.00 
  -5  -2   5    3.16    3.76 
  -5   2   5    7.16    4.25 
  -5   2   5    6.77    3.43 
  -5  -2  -5    4.53    2.95 
   5   2  -5    5.31    3.28 
   5  -2   5    7.93    5.58 
  -5   2  -5    9.50    3.74 
   5  -2  -5   12.53    6.07 
   5   2   5   11.59    6.55 
  -5  -2  -5    8.44    4.57 
  -5   2  -5    7.09    3.91 
  -5   2  -5    7.39    2.79 
  -6   2  -5    3.07    3.29 
  -6  -2  -5    3.22    2.68 
   6  -2   5    5.03    4.85 
  -6  -2   5   -4.32    1.76 
   6   2  -5    1.30    3.09 
   6   2   5    0.00    3.43 
   6   2   5    0.98    4.20 
   6  -2   5    1.81    2.58 
  -6   2   5   -3.98    3.20 
  -6  -2   5    0.95    4.19 
  -6   2  -5   -1.09    1.98 
  -6   2   5    1.13    2.22 
   6  -2  -5   -2.84    5.05 
   6  -2  -5   -2.18    3.14 
  -6  -2  -5   -1.72    3.63 
  -6  -2   5   -3.08    3.27 
  -6   2  -5    3.26    4.12 
  -7   2  -5   31.76    6.52 
   7  -2   5   34.10    9.37 
  -7   2   5   36.84    7.59 
   7  -2  -5   31.09    9.27 
  -7  -2   5   29.95    8.64 
   7   2   5   25.11    7.15 
   7   2  -5   32.41    8.23 
  -7  -2  -5   18.51    4.82 
  -7  -2   5   19.08    5.30 
  -7   2  -5   24.19    6.89 
  -7   2  -5   26.98    4.54 
   7  -2  -5   25.23    6.98 
  -7  -2  -5   30.74    7.79 
  -7   2   5   18.64    5.16 
  -7  -2   5   18.11    5.71 
   7   2   5   27.84    9.45 
  -8   2   5    4.28    3.36 
  -8   2  -5   -0.01    2.58 
  -8   2   5   -0.84    5.07 
   8   2  -5    1.16    4.85 
  -8  -2  -5   -5.13    2.23 
   8  -2  -5   -5.19    3.66 
  -8  -2   5    8.77    5.75 
   8   2   5   -2.82    4.14 
   8  -2   5    6.86    5.73 
  -8  -2   5   -3.98    2.56 
   8   2   5    4.68    6.33 
  -8  -2  -5    0.64    5.29 
  -8   2  -5    0.97    5.41 
   8  -2  -5   16.61    7.28 
   9   2   5   -0.75    4.45 
  -9  -2  -5    7.47    6.23 
   9   2  -5    6.37    6.13 
  -9  -2   5    1.30    6.31 
  -9   2  -5    3.35    3.20 
  -9   2  -5   -2.36    5.04 
  -9  -2  -5    4.69    3.65 
   9  -2  -5    2.55    4.99 
  -9  -2   5    2.83    4.11 
  -9   2   5   -2.76    6.16 
   9   2   5    7.00    6.73 
   9  -2   5    4.40    6.14 
  -9   2   5    5.35    4.11 
  10   2   5   -1.71    4.82 
  10   2   5    4.64    6.10 
 -10   2   5   10.09    8.35 
 -10  -2  -5   -2.40    5.47 
 -10  -2  -5   -0.98    3.18 
 -10  -2   5    0.88    6.99 
 -10   2   5    2.66    4.27 
  10  -2   5   -1.88    5.46 
 -10  -2   5   12.40    5.22 
  10   2  -5   -3.55    4.50 
  10  -2  -5   -2.25    4.71 
 -10   2  -5    2.96    3.18 
 -10   2  -5    2.25    5.73 
 -11   2   5    4.18    4.67 
  11  -2   5   -2.95    6.21 
  11   2   5   -2.65    4.56 
  11  -2  -5   -2.26    5.06 
 -11   2  -5  -15.81    4.37 
 -11  -2   5    0.47    6.71 
 -11   2  -5   -1.63    3.18 
  11   2  -5   -4.50    5.56 
  11   2   5   -6.49    5.97 
 -11  -2  -5    6.04    4.76 
 -11   2   5   -1.66    7.48 
 -11  -2   5    0.50    4.25 
   0   3   5  652.76   24.89 
   0   3  -5  693.73   23.49 
   0  -3  -5  689.80   21.76 
   0  -3   5  659.61   23.18 
   0  -3   5  687.80   22.90 
   0   3   5  687.39   23.64 
   0   3  -5  655.16   23.41 
   0   3   5  702.36   24.16 
   0  -3   5  708.69   23.76 
   0  -3  -5  621.46   22.84 
   1  -3   5    6.90    3.45 
  -1  -3   5   -1.99    1.49 
  -1   3   5    2.24    2.33 
  -1   3  -5    3.00    2.81 
  -1  -3   5    3.41    2.70 
   1   3  -5   -2.44    2.32 
   1  -3  -5    1.12    2.31 
   1  -3   5    0.11    2.46 
  -1   3  -5    1.61    2.32 
  -1  -3  -5    1.70    2.26 
  -1   3   5    4.06    2.89 
   1   3   5    1.63    3.57 
   1   3   5    3.20    2.60 
   1   3   5    0.43    2.49 
  -1  -3  -5    2.34    2.05 
  -1   3   5   -2.06    2.60 
   1   3  -5    1.36    2.24 
   1  -3  -5   -0.54    2.85 
   1  -3  -5   -0.89    1.89 
  -1  -3  -5    1.14    1.85 
  -1  -3   5    1.09    2.55 
   2   3  -5  288.35   11.98 
  -2  -3   5  268.13   13.71 
  -2   3   5  299.35   11.73 
   2   3   5  330.74   16.07 
  -2  -3  -5  284.07   12.43 
   2   3   5  288.89   16.20 
  -2   3   5  253.30   13.36 
  -2  -3   5  294.49   13.79 
  -2   3   5  289.51   15.45 
   2  -3  -5  297.66   12.40 
   2  -3   5  293.30   15.05 
  -2  -3  -5  293.89   12.11 
  -2   3  -5  294.23   13.06 
   2  -3   5  306.42   13.06 
  -2   3  -5  315.70   12.80 
  -2  -3  -5  300.55   12.69 
   2   3  -5  293.28   14.33 
   2  -3  -5  304.20   14.78 
  -2   3  -5  288.23   12.99 
   2   3   5  303.44   12.00 
  -2  -3   5  288.78   13.23 
  -3  -3  -5   -2.08    2.07 
  -3   3   5    0.83    2.27 
  -3   3  -5   -2.19    1.72 
   3   3   5   -1.94    2.26 
   3  -3  -5   -1.52    1.93 
   3  -3   5    2.10    2.24 
   3  -3  -5    2.93    3.33 
  -3   3   5   -0.70    1.79 
   3   3   5    4.80    4.63 
  -3   3   5   -4.20    1.72 
   3  -3   5    2.82    3.24 
  -3   3  -5   -1.02    1.72 
  -3  -3  -5   -1.58    1.44 
  -3   3   5   -1.33    3.14 
  -3   3  -5    1.84    1.87 
   3   3  -5    0.23    1.83 
  -3  -3  -5    1.61    2.33 
   3   3  -5   -1.80    2.22 
  -3  -3   5    0.92    2.48 
  -3   3  -5    1.20    1.43 
  -3  -3   5    4.49    3.28 
  -3  -3   5   -0.21    2.59 
   3   3   5    0.40    1.60 
  -4   3   5  223.95   11.33 
  -4  -3   5  236.73   13.19 
  -4   3  -5  241.06   10.48 
  -4  -3  -5  253.53   12.49 
   4   3   5  226.65    7.63 
  -4  -3   5  224.59   14.06 
  -4  -3  -5  236.67   12.42 
   4  -3   5  229.72   10.96 
  -4   3  -5  240.62    9.91 
  -4  -3  -5  223.76   11.35 
  -4   3   5  248.47    8.73 
  -4  -3   5  204.69   12.23 
   4   3  -5  242.37   13.88 
   4  -3  -5  232.13   12.14 
   4  -3   5  205.92   14.39 
   4  -3  -5  207.69   14.32 
  -4   3  -5  237.72   10.37 
  -4   3   5  208.11   11.60 
  -4   3   5  241.90   14.93 
   4   3  -5  221.71   10.18 
  -4   3  -5  222.94   12.07 
   4   3   5  207.20   15.46 
  -5  -3   5    2.47    3.02 
  -5   3  -5    1.03    1.80 
   5   3   5    1.27    2.99 
  -5   3   5   -2.83    1.87 
  -5  -3  -5    2.08    3.49 
   5   3  -5    1.54    2.76 
   5  -3   5    1.08    2.61 
   5   3  -5    1.03    3.06 
  -5   3  -5   -1.89    1.73 
  -5  -3   5    2.85    2.99 
  -5  -3  -5    0.92    2.36 
  -5   3  -5   -3.53    2.34 
  -5   3  -5    2.16    2.90 
   5  -3  -5    2.59    4.56 
  -5   3   5   -2.35    3.94 
   5  -3   5    2.28    4.25 
   5   3   5    3.15    4.83 
   5  -3  -5   -0.69    2.99 
  -5  -3   5    0.70    3.54 
   6  -3   5  278.49   12.79 
   6   3   5  260.62   19.10 
  -6  -3   5  265.99   17.02 
  -6  -3  -5  271.83   13.89 
  -6   3  -5  276.65   13.40 
   6  -3   5  249.97   17.51 
  -6   3  -5  291.01   15.80 
   6   3  -5  280.68   16.85 
  -6  -3  -5  268.11   15.66 
  -6   3   5  259.36   16.43 
   6  -3  -5  288.38   16.21 
  -6  -3   5  291.80   15.18 
  -6   3   5  277.17   13.88 
   6  -3  -5  275.28   18.24 
  -6   3  -5  285.20   11.60 
  -6  -3   5  262.88   15.00 
   6   3   5  284.66   15.95 
   7   3  -5    0.62    4.26 
   7  -3   5    0.82    3.18 
  -7   3  -5   -4.58    3.05 
   7   3   5    7.24    5.81 
  -7   3   5    0.00    5.12 
   7   3   5    0.53    4.34 
  -7  -3  -5    3.28    5.09 
  -7  -3   5    2.16    3.06 
  -7   3   5    2.61    3.13 
  -7  -3  -5    1.51    2.82 
   7  -3   5    2.60    5.29 
  -7   3  -5    3.23    2.44 
   7  -3  -5   -0.14    3.30 
  -7  -3   5    3.86    5.11 
   7  -3  -5    0.73    5.54 
  -8   3   5   35.55    8.83 
   8  -3  -5   31.57    8.19 
  -8   3   5   20.16    5.55 
   8   3   5   22.85    7.58 
   8  -3  -5   18.86    8.35 
  -8  -3   5   31.06    6.53 
  -8   3  -5   28.29    7.98 
  -8  -3  -5   23.63    8.25 
  -8   3  -5   21.88    4.50 
  -8  -3   5   33.07   10.40 
  -8  -3  -5   25.19    5.64 
   8   3  -5   35.34    9.26 
   8  -3   5   34.72    9.50 
   8   3   5   23.60    9.22 
   9  -3  -5    0.58    4.08 
   9   3   5   -4.70    4.20 
  -9  -3  -5    1.49    3.12 
   9   3  -5   -4.89    4.65 
  -9  -3  -5   -7.89    4.13 
  -9  -3   5   -3.87    4.80 
   9  -3  -5   -6.90    4.21 
   9   3   5   -5.62    5.05 
  -9   3  -5    2.36    5.48 
  -9   3  -5    1.70    3.17 
  -9  -3   5    1.55    3.60 
  -9   3   5    0.45    3.33 
   9  -3   5    0.62    5.12 
 -10  -3  -5  113.82   14.82 
 -10  -3  -5  106.98   11.21 
 -10   3   5  108.71   10.52 
  10  -3  -5  109.37   14.63 
  10   3  -5  101.78   15.44 
 -10   3  -5   96.21    8.11 
 -10  -3   5  130.81   16.95 
  10   3   5  144.62   18.79 
 -10   3  -5   99.07   14.18 
 -10   3   5  134.06   18.78 
  10   3   5  121.49   14.96 
  10  -3   5  145.12   18.85 
 -10  -3   5  107.94   12.08 
 -11  -3  -5    1.16    6.11 
 -11   3  -5    5.67    3.82 
 -11   3   5   14.28   10.14 
 -11   3  -5   -0.96    5.48 
 -11   3   5    1.08    3.77 
  11   3  -5   -7.79    4.93 
 -11  -3   5   -2.91    4.21 
  11   3   5   -5.59    4.81 
 -11  -3   5    0.29    7.18 
 -11  -3  -5    1.46    3.97 
  11   3   5    2.00    7.08 
  11  -3   5   15.84    7.93 
  11  -3  -5   -4.16    5.07 
   0  -4   5    1.10    2.49 
   0   4   5    6.27    3.67 
   0  -4  -5    1.44    2.27 
   0   4  -5   25.63    4.34 
   0   4   5    4.10    2.97 
   0  -4  -5   13.94    2.81 
   0   4  -5    6.49    3.46 
   0  -4  -5    5.68    3.23 
   0   4   5    1.83    3.17 
   0  -4   5    1.29    2.48 
   0  -4   5    1.86    1.83 
   1   4   5  111.20    9.22 
  -1  -4  -5  105.98    7.59 
   1  -4  -5  114.04    9.02 
   1   4   5  102.63    8.91 
  -1   4   5  123.74    8.31 
  -1   4   5  100.93    8.84 
  -1  -4  -5  124.28    6.96 
  -1   4  -5  110.50    7.82 
  -1  -4   5  121.08    8.42 
   1  -4   5  117.45    9.21 
   1   4  -5  111.91    8.41 
   1   4   5  115.47    7.98 
   1  -4  -5  110.75    6.59 
  -1  -4   5  106.94    8.04 
  -1   4   5  120.98    8.91 
   1  -4   5  123.26    8.23 
  -1  -4  -5  108.98    7.34 
  -1   4  -5  111.58    8.23 
   1   4  -5  107.79    7.60 
  -1  -4   5   99.35    6.65 
   1  -4  -5  119.14    7.75 
   2   4   5   -1.00    2.37 
  -2  -4  -5    0.97    2.07 
  -2   4   5    2.09    3.30 
  -2  -4  -5    0.19    2.14 
  -2   4  -5    7.23    2.59 
  -2  -4   5    5.86    3.22 
  -2   4   5    0.87    2.36 
  -2  -4   5    0.31    2.43 
  -2   4   5    2.00    2.86 
   2  -4  -5    0.54    2.00 
   2   4  -5    2.53    2.83 
   2  -4  -5    6.73    3.58 
  -2   4  -5    3.67    2.39 
   2   4   5   -2.00    3.40 
   2   4   5   -1.62    2.50 
   2  -4   5    2.40    2.71 
  -2  -4  -5    2.14    2.73 
  -2   4  -5    5.08    2.79 
  -2  -4   5    6.51    3.24 
   2   4  -5    1.93    2.62 
   2  -4   5    7.45    3.76 
  -3  -4   5  248.58   13.04 
   3  -4  -5  246.59   11.30 
  -3   4  -5  230.86   11.49 
   3  -4   5  230.37   14.29 
  -3   4   5  249.96   10.52 
  -3   4  -5  249.57    8.65 
  -3   4   5  236.14   12.46 
   3  -4   5  246.52   12.06 
  -3  -4  -5  236.00   12.44 
   3   4  -5  214.60   10.89 
   3   4   5  272.55   15.02 
  -3   4   5  274.77   12.87 
  -3  -4  -5  238.11   11.34 
   3   4   5  244.24    9.56 
  -3   4  -5  232.04   11.82 
  -3  -4   5  231.90   13.23 
  -3  -4   5  247.58   13.49 
  -3   4   5  231.92   14.22 
   3  -4  -5  225.09   14.32 
   3   4   5  220.72   15.07 
  -3   4  -5  247.74   10.78 
   3   4  -5  234.90   12.92 
  -3  -4  -5  247.43   11.98 
  -4  -4  -5    1.61    2.50 
  -4   4   5    6.14    2.63 
   4   4  -5    0.87    3.14 
  -4  -4  -5   -1.26    2.54 
   4   4   5   -0.17    4.76 
  -4   4   5   -1.23    1.99 
  -4  -4   5    3.43    3.39 
  -4   4  -5   -1.50    2.20 
   4  -4   5   -2.97    2.24 
   4  -4  -5   12.03    4.93 
   4   4   5    4.84    1.51 
  -4  -4   5   16.67    4.25 
  -4   4   5   -0.64    2.17 
  -4  -4   5    9.49    3.41 
  -4   4   5    0.23    3.83 
  -4   4  -5    4.46    2.39 
  -4   4  -5    1.19    1.92 
   4  -4   5    8.37    4.33 
   4   4  -5    7.49    3.10 
  -4   4  -5    2.09    2.97 
   4  -4  -5   -1.40    2.60 
  -4  -4  -5    3.80    3.49 
   5  -4   5   22.41    7.36 
  -5   4   5   29.40    5.36 
  -5   4  -5   27.83    4.87 
  -5   4   5   28.00    6.92 
   5  -4   5   28.46    5.30 
  -5   4  -5   28.86    4.04 
  -5  -4   5   28.69    6.49 
   5   4  -5   28.46    5.33 
  -5  -4   5   26.68    5.94 
   5   4  -5   25.43    6.61 
   5  -4  -5   21.49    7.14 
   5   4   5   23.68    7.84 
   5   4   5   29.47    6.04 
   5  -4  -5   29.93    6.21 
  -5  -4   5   31.26    8.04 
  -5   4  -5   24.96    5.83 
  -5   4  -5   25.61    4.26 
  -5  -4  -5   19.01    4.71 
  -5  -4  -5   32.51    7.06 
   6  -4   5   -4.85    2.53 
   6  -4   5    0.86    4.58 
  -6   4   5    0.44    2.58 
   6  -4  -5    9.36    5.78 
   6  -4  -5    0.40    3.70 
   6   4   5    1.20    5.49 
  -6  -4   5    1.97    3.60 
   6   4   5    1.19    4.06 
  -6   4  -5    1.41    2.38 
   6   4  -5    0.21    4.01 
  -6  -4  -5    4.13    4.82 
  -6  -4  -5    0.18    2.84 
  -6   4  -5   -0.29    3.82 
  -6  -4   5    0.36    3.02 
  -6   4   5   -3.69    4.41 
  -6  -4   5    3.45    4.53 
   7  -4   5   75.96   13.03 
   7  -4  -5   93.78   14.93 
  -7   4   5   84.49    8.66 
  -7  -4  -5   90.77   11.83 
  -7  -4   5   89.88   13.12 
   7   4  -5   74.32   11.65 
   7   4   5   83.14   14.37 
  -7   4  -5   65.00    5.75 
   7  -4  -5   93.46   11.54 
  -7  -4  -5   70.34    8.71 
   7   4   5   84.21   11.18 
  -7   4  -5   71.58   10.57 
   7  -4   5   76.11    8.34 
  -7   4   5   90.00   12.42 
  -7  -4   5   70.27    9.56 
  -8   4  -5   -0.69    5.02 
  -8   4  -5   -3.36    2.49 
  -8  -4   5    3.46    4.11 
   8  -4  -5    0.85    5.22 
   8  -4   5   10.38    6.51 
   8   4   5   -6.68    4.01 
  -8  -4  -5   -0.24    3.46 
  -8   4   5   -3.20    4.68 
   8   4   5    9.59    6.39 
  -8  -4  -5   -1.63    4.98 
  -8   4   5   -0.58    2.66 
   8   4  -5   -2.16    4.40 
  -8  -4   5    0.31    4.94 
   8  -4  -5    0.34    3.99 
  -9   4  -5   19.43    7.84 
  -9  -4  -5   44.11   10.50 
  -9   4  -5   23.29    5.16 
   9  -4   5   46.79   11.06 
   9   4   5   46.18   12.47 
   9   4   5   32.46    8.78 
  -9  -4   5   37.18   11.06 
  -9  -4  -5   34.05    6.87 
  -9   4   5   29.32    8.80 
  -9   4   5   28.55    6.25 
  -9  -4   5   39.39    7.94 
   9   4  -5   26.94    9.47 
   9  -4  -5   23.90    9.60 
   9  -4  -5   37.52    8.68 
 -10   4   5   -4.41    6.62 
  10   4   5    5.90    7.10 
 -10  -4   5    0.62    7.07 
  10  -4   5   11.46    7.55 
 -10  -4  -5    4.42    4.25 
 -10  -4  -5   10.71    7.56 
 -10   4  -5   -1.95    3.29 
 -10  -4   5    5.23    4.87 
  10   4   5    1.95    5.50 
 -10   4   5    3.86    3.97 
  10  -4  -5   11.36    5.52 
  10   4  -5    7.23    6.69 
 -10   4  -5    5.49    6.13 
  11  -4   5   -3.22    7.19 
 -11   4   5    5.93    4.51 
 -11  -4   5    7.56    5.15 
  11   4   5    1.41    5.46 
 -11  -4  -5    0.49    6.15 
 -11  -4  -5   11.02    4.92 
 -11   4  -5    5.83    3.82 
  11   4  -5   -4.79    5.63 
 -11   4  -5   -5.31    6.29 
  11   4   5   -6.98    7.86 
 -11   4   5   -1.01    7.71 
  11  -4  -5    7.47    6.34 
 -11  -4   5   15.42    8.73 
   0   5   5   65.73    8.72 
   0  -5  -5   67.12    8.05 
   0  -5   5   53.54    6.33 
   0  -5  -5   53.07    6.16 
   0   5   5   65.56    8.49 
   0   5  -5   74.46    7.88 
   0   5   5   44.35    7.12 
   0  -5  -5   66.41    5.11 
   0   5  -5   64.96    8.10 
   0  -5   5   57.20    4.20 
   0  -5   5   59.60    7.25 
  -1   5   5    1.46    3.28 
   1   5   5    2.37    2.66 
  -1  -5  -5    2.57    2.31 
   1  -5   5    4.96    2.30 
  -1  -5   5    0.86    2.12 
  -1  -5  -5    2.52    2.94 
   1  -5   5    3.71    3.07 
   1  -5  -5    4.01    2.15 
   1  -5  -5    2.91    3.90 
  -1   5   5   -0.77    2.48 
   1   5   5    2.49    3.16 
   1   5  -5    0.84    3.11 
   1   5   5   -0.37    3.79 
  -1   5  -5    5.34    3.12 
  -1   5   5    0.02    2.57 
  -1  -5  -5    1.93    2.07 
   1   5  -5    6.98    3.45 
  -1  -5   5    0.97    2.65 
  -1  -5   5    1.83    2.49 
   2  -5  -5   21.13    3.83 
  -2  -5   5   22.27    5.09 
  -2  -5   5   31.34    5.84 
  -2   5   5   25.41    6.10 
  -2   5   5   27.24    5.48 
   2  -5   5   30.95    2.93 
   2  -5  -5   41.82    7.62 
  -2   5  -5   35.82    4.88 
  -2  -5  -5   39.61    6.17 
   2   5  -5   35.19    6.36 
   2   5   5   32.20    7.43 
   2   5   5   34.22    7.07 
   2  -5   5   35.07    5.90 
  -2  -5  -5   40.72    4.99 
  -2   5   5   43.60    6.23 
   2   5  -5   30.77    5.98 
  -2  -5   5   43.39    6.50 
  -2  -5  -5   30.64    5.04 
   2   5   5   38.70    5.41 
   2  -5   5   42.52    7.89 
  -2   5  -5   35.36    5.41 
  -2   5  -5   33.05    5.72 
   3  -5  -5    4.91    4.54 
  -3   5  -5    1.68    2.08 
  -3   5   5    0.98    3.67 
   3   5   5    8.70    5.23 
   3  -5   5   -1.25    3.13 
  -3  -5   5    5.58    3.20 
  -3  -5   5    5.45    3.29 
  -3   5   5   -0.45    2.55 
  -3  -5  -5    0.79    2.25 
  -3  -5  -5    1.65    2.90 
  -3  -5  -5    4.23    2.82 
  -3   5  -5    5.16    2.77 
  -3  -5   5    4.55    3.80 
   3   5  -5    0.11    2.70 
   3   5   5    1.87    2.11 
   3  -5   5    1.63    1.89 
   3   5  -5    5.46    3.52 
  -3   5  -5    1.10    2.57 
  -3   5   5    1.86    2.70 
   3  -5  -5    3.59    2.56 
   3  -5   5    2.76    2.99 
  -3   5   5    2.11    2.60 
   3   5   5    2.36    3.08 
  -4   5   5    8.05    3.45 
   4  -5  -5    5.05    4.92 
  -4  -5  -5    4.98    3.07 
   4   5  -5    7.38    4.21 
   4   5   5   11.55    5.90 
   4  -5   5    3.36    2.99 
   4   5  -5    4.21    3.16 
   4  -5  -5    7.58    3.48 
  -4   5  -5    9.88    4.08 
  -4  -5   5    9.40    4.13 
  -4  -5  -5    7.60    4.08 
   4  -5   5    5.91    2.96 
  -4  -5   5    6.63    5.09 
  -4   5   5    5.41    4.49 
  -4   5  -5    4.35    2.51 
  -4   5  -5   11.11    3.52 
   4  -5   5    5.13    4.84 
  -4   5   5    4.52    2.82 
  -4  -5   5    7.62    3.70 
  -4  -5  -5    6.17    3.56 
   5  -5   5   -1.13    2.75 
  -5  -5   5    0.15    2.89 
   5  -5  -5   -3.00    2.63 
   5  -5   5    0.23    3.88 
   5   5  -5   -2.44    3.37 
  -5  -5  -5   -3.98    3.16 
   5  -5  -5    3.10    4.08 
  -5  -5   5    4.62    3.28 
  -5   5  -5    2.49    2.50 
  -5   5   5    0.96    2.92 
   5   5   5   -1.98    4.11 
  -5  -5  -5    1.20    2.98 
   5   5  -5    6.70    3.58 
  -5   5   5    1.90    4.23 
   5   5   5    0.34    2.93 
  -5   5  -5   -1.60    2.63 
  -5  -5   5    2.30    4.32 
  -6  -5   5    1.79    3.26 
   6  -5  -5    2.36    5.64 
   6   5   5   -1.90    3.71 
  -6  -5  -5   -3.34    3.83 
  -6   5   5    0.39    2.90 
   6  -5  -5    5.27    3.98 
   6  -5   5    2.44    3.47 
   6  -5   5    9.41    5.08 
  -6   5  -5    3.20    4.08 
  -6  -5   5    2.49    3.56 
  -6   5   5   -3.81    4.23 
   6   5  -5    2.35    3.67 
   6   5   5    2.38    5.05 
  -6   5  -5   12.33    3.71 
   6   5  -5    4.33    4.73 
  -6  -5   5    4.76    5.75 
  -6  -5  -5    1.01    3.01 
   7  -5  -5    3.31    5.73 
  -7  -5  -5    5.87    3.91 
  -7   5   5    2.93    5.14 
   7   5  -5    5.72    5.14 
  -7  -5  -5    1.25    4.71 
   7  -5   5    3.51    3.33 
   7   5   5    6.90    5.84 
  -7  -5   5    3.90    5.62 
   7  -5  -5   -4.11    3.63 
  -7   5  -5    2.41    2.82 
  -7   5  -5    2.55    4.47 
  -7   5   5    1.85    3.08 
  -7  -5   5    1.44    3.28 
   7  -5   5    2.05    5.16 
   7   5   5   -3.93    3.53 
   8  -5  -5    1.13    5.95 
  -8   5  -5    0.74    4.58 
  -8  -5   5    7.88    4.49 
   8   5   5   -1.75    4.34 
  -8   5   5    5.36    6.66 
   8  -5  -5    1.28    4.08 
   8   5  -5   10.73    6.47 
   8   5   5   -1.87    5.32 
  -8   5  -5   -1.16    2.67 
  -8  -5  -5   -2.70    3.13 
  -8   5   5    4.79    3.71 
   8  -5   5    7.44    6.28 
  -8  -5   5   -0.02    6.25 
  -8  -5  -5    2.51    5.53 
  -9   5   5    2.95    3.48 
  -9  -5  -5    6.62    4.09 
  -9   5   5    6.38    6.28 
   9   5  -5    7.01    6.35 
   9   5   5   -3.26    5.38 
  -9   5  -5    8.13    6.30 
  -9  -5  -5    0.91    5.87 
   9  -5   5   -3.77    5.25 
  -9  -5   5    1.48    5.90 
   9   5   5    3.79    5.05 
   9  -5  -5    2.89    6.13 
  -9   5  -5   -3.79    2.83 
   9  -5  -5   -1.06    4.71 
  -9  -5   5   -0.87    3.28 
 -10   5  -5   -4.77    5.34 
 -10  -5   5   -5.17    6.30 
  10   5   5   -3.51    4.39 
 -10   5   5    0.55    3.82 
  10   5  -5    0.70    5.36 
  10  -5  -5    0.35    5.43 
  10   5   5   -1.32    6.08 
  10  -5   5    5.98    6.50 
 -10   5  -5   -1.46    3.02 
 -10  -5  -5    4.94    7.29 
 -10  -5  -5    2.19    4.02 
  10  -5  -5   -0.64    6.33 
 -10  -5   5    0.17    3.80 
  11  -5  -5    7.73    6.89 
 -11   5  -5   -2.48    6.09 
 -11   5   5   -0.82    3.72 
 -11   5   5   -0.09    8.12 
 -11  -5  -5   -3.57    3.55 
 -11  -5   5    1.47    4.40 
 -11  -5  -5    1.40    6.97 
  11   5   5  -11.18    6.38 
  11  -5   5    2.27    6.48 
  11   5   5    0.48    5.26 
 -11  -5   5   -4.53    7.27 
  11   5  -5    1.41    5.93 
 -11   5  -5    0.16    3.19 
   0  -6   5    4.85    3.28 
   0  -6   5    3.51    2.95 
   0   6   5    9.83    5.07 
   0   6   5    5.60    3.86 
   0   6  -5    7.33    3.77 
   0  -6  -5   12.16    3.25 
   0  -6  -5   15.91    4.81 
   0   6   5    5.99    4.09 
   1   6  -5   61.59    8.05 
  -1   6  -5   55.45    7.41 
  -1   6   5   45.04    7.31 
   1  -6  -5   59.74    8.98 
   1  -6   5   44.88    7.00 
  -1  -6   5   53.45    7.07 
   1   6  -5   54.22    7.29 
  -1   6   5   30.14    6.88 
   1  -6  -5   48.08    4.55 
   1   6   5   48.38    6.92 
  -1   6   5   48.34    7.57 
  -1  -6  -5   56.23    5.13 
   1   6   5   39.93    7.53 
  -1  -6  -5   45.67    7.05 
  -1  -6   5   57.50    7.44 
  -1   6  -5   53.54    8.21 
  -1  -6  -5   50.35    6.27 
  -1  -6   5   54.90    5.67 
   1  -6   5   62.70    5.67 
   1   6   5   62.78    9.60 
  -2   6  -5    1.19    2.54 
  -2   6  -5   13.36    3.96 
  -2  -6   5    0.02    2.62 
   2   6  -5    4.06    3.26 
  -2  -6  -5    0.77    2.08 
   2   6   5    1.93    4.08 
   2  -6  -5   -0.77    1.89 
  -2   6   5   -2.47    3.19 
  -2  -6  -5    3.50    2.54 
  -2  -6   5   -0.54    2.75 
  -2  -6   5    4.31    3.23 
   2  -6  -5    5.31    4.33 
  -2   6  -5    3.35    2.77 
   2  -6   5    8.20    2.65 
  -2   6   5    0.49    2.82 
   2   6   5    0.38    3.15 
   2   6  -5    6.13    3.88 
  -2   6   5   -0.68    2.97 
  -2  -6  -5    6.74    3.97 
   2  -6   5    3.34    3.33 
   2   6   5    3.32    2.87 
   3   6   5    1.37    4.02 
  -3   6   5   -3.23    2.89 
  -3  -6  -5    0.19    3.29 
  -3   6   5   -0.97    2.40 
  -3  -6  -5   -1.50    2.00 
   3   6  -5    5.96    3.41 
  -3  -6   5   -1.45    2.61 
   3   6   5   -2.64    2.39 
   3  -6  -5    1.89    2.43 
   3   6   5    2.78    2.23 
  -3   6  -5    2.38    2.48 
   3  -6   5    1.24    2.20 
   3  -6   5   -0.15    2.72 
  -3   6  -5    1.50    2.80 
   3   6  -5    3.08    3.35 
  -3  -6   5    1.51    4.05 
  -3   6   5    6.24    4.43 
  -3  -6  -5    1.33    2.28 
   3  -6   5   -1.38    3.92 
  -3  -6   5    5.68    3.31 
   3  -6  -5    3.11    3.81 
  -4   6   5    7.04    3.52 
  -4   6   5    8.39    3.93 
  -4  -6   5   21.48    5.69 
   4  -6   5   21.55    6.00 
   4   6   5   10.72    5.87 
   4  -6   5    7.26    3.03 
  -4   6  -5    3.12    3.18 
  -4  -6   5    7.75    4.51 
  -4   6   5    0.22    4.43 
   4  -6  -5   29.27    7.52 
  -4  -6   5   15.79    4.51 
   4  -6  -5   -0.26    3.13 
   4   6  -5    7.68    4.35 
  -4  -6  -5    4.68    3.45 
   4  -6   5    1.48    3.45 
   4   6  -5   19.85    4.97 
  -4  -6  -5    5.08    4.48 
  -4  -6  -5    0.49    3.15 
  -5   6  -5   53.08    6.11 
   5  -6  -5   63.78   10.98 
  -5   6  -5   52.87    7.66 
  -5  -6  -5   70.38   10.16 
  -5  -6   5   56.35   10.35 
   5  -6  -5   60.56    7.80 
   5   6  -5   60.65    9.72 
  -5  -6   5   57.88    7.59 
  -5   6   5   46.49    9.31 
  -5  -6   5   54.45    8.62 
  -5  -6  -5   61.71    8.27 
   5   6   5   45.58    7.32 
   5  -6   5   51.31    7.63 
   5   6  -5   54.79    7.98 
  -5   6   5   45.63    6.66 
   5   6   5   44.36   10.22 
   5  -6   5   52.27   10.23 
   6  -6   5    8.26    5.12 
  -6   6  -5   -0.91    4.02 
  -6  -6  -5   -0.17    2.76 
  -6   6   5    1.52    4.72 
  -6  -6  -5   -1.93    4.20 
  -6   6   5    3.29    3.06 
   6  -6   5    0.46    3.19 
  -6  -6   5   -1.99    4.58 
   6   6   5    6.16    5.54 
  -6   6  -5    5.69    2.96 
   6  -6  -5   12.18    5.45 
   6   6  -5   12.13    4.49 
   6  -6  -5    1.71    4.47 
   6   6   5    0.43    4.01 
   6   6  -5    3.08    4.18 
  -6  -6   5    5.11    4.16 
   7  -6   5   -0.14    4.79 
   7   6   5    4.75    6.05 
   7  -6  -5    2.83    3.42 
  -7  -6  -5    2.03    3.32 
  -7   6  -5    0.55    2.85 
  -7   6   5   -4.01    3.04 
  -7  -6  -5    5.05    5.94 
   7  -6  -5    3.88    6.03 
  -7   6  -5   -0.85    4.00 
  -7  -6   5    0.43    3.56 
   7   6   5   -1.21    3.82 
  -7  -6   5   -1.84    5.34 
  -7   6   5    0.07    4.89 
   7  -6   5    7.11    4.09 
   7   6  -5    3.74    5.22 
  -8   6   5    5.75    3.97 
  -8   6  -5    5.51    5.54 
  -8  -6   5    6.08    4.26 
   8   6   5   -1.51    4.85 
   8  -6   5    3.54    4.53 
  -8  -6   5    8.72    6.80 
  -8   6  -5    7.31    3.47 
   8  -6  -5   11.06    6.63 
  -8   6   5    4.77    6.44 
  -8  -6  -5   -3.34    3.02 
   8   6  -5    0.62    5.62 
  -8  -6  -5    3.90    5.58 
   8  -6   5   12.74    6.35 
   8  -6  -5   -3.68    3.88 
   8   6   5   22.29    7.64 
   9   6  -5    3.71    6.41 
  -9   6  -5    2.63    3.20 
  -9  -6   5    1.47    4.07 
  -9  -6  -5    3.77    3.77 
  -9  -6   5   -3.41    5.59 
  -9   6   5    3.24    3.93 
   9  -6  -5   -4.64    6.43 
  -9   6   5    0.05    5.91 
   9  -6   5    2.99    5.77 
   9  -6  -5    7.45    5.00 
   9   6   5    7.40    5.75 
  -9  -6  -5    3.31    6.52 
   9   6   5    2.87    5.41 
  -9   6  -5    1.61    5.68 
  10  -6   5    2.23    6.89 
 -10   6  -5    7.37    7.05 
  10  -6  -5   -2.47    6.55 
 -10  -6   5    4.05    4.98 
  10   6  -5    9.88    6.87 
 -10  -6  -5    0.60    4.06 
  10   6   5   23.10   10.01 
 -10  -6   5   -5.93    6.39 
 -10   6   5    4.03    4.12 
 -10  -6  -5   10.55    7.42 
  10   6   5    3.41    5.76 
 -10   6  -5    0.44    3.45 
 -11  -6  -5   14.83    7.83 
  11   6   5    6.88    8.58 
 -11   6  -5   19.39    8.62 
 -11  -6  -5    4.07    4.98 
  11   6   5    5.87    5.87 
 -11   6   5    6.84    8.60 
  11   6  -5   -4.31    5.52 
 -11   6   5   10.67    4.59 
 -11  -6   5   10.02    5.28 
 -11   6  -5   11.53    3.92 
 -11  -6   5    3.54    8.41 
  11  -6   5   10.78    7.81 
   0  -7   5  355.18   15.12 
   0   7   5  368.55   18.75 
   0  -7  -5  341.52   12.11 
   0   7   5  347.71   17.35 
   0  -7   5  318.39   13.27 
   0  -7  -5  330.85   14.95 
   0  -7   5  342.94   16.47 
   0   7   5  341.95   18.10 
   0   7  -5  336.51   17.63 
   0  -7  -5  308.16   16.98 
   0   7  -5  363.17   16.05 
  -1   7   5   -1.81    2.74 
  -1   7  -5    0.89    3.63 
  -1  -7   5   -1.02    2.81 
   1  -7   5    1.77    2.97 
   1   7   5   -3.40    2.56 
   1   7  -5    2.02    3.27 
   1   7   5   -1.08    2.45 
  -1   7   5    3.47    3.84 
   1  -7  -5   -1.19    1.72 
  -1  -7  -5    0.96    2.29 
   1  -7   5    5.03    3.52 
   1   7   5   -1.50    3.93 
  -1  -7  -5    1.08    2.98 
  -1   7  -5    0.46    3.01 
  -1  -7   5    1.50    2.56 
  -1   7   5   -0.61    3.13 
  -1  -7   5   -0.21    2.54 
   1   7  -5   -1.82    2.62 
   1  -7  -5    2.25    3.99 
  -1  -7  -5    2.65    2.07 
   2  -7   5  124.42    9.69 
  -2  -7  -5  131.09   10.16 
  -2   7   5  143.17   13.60 
   2   7   5  150.60   12.07 
  -2   7   5  146.47   10.64 
   2  -7   5  129.38    7.68 
  -2   7   5  129.80    9.86 
   2   7   5  155.75   14.77 
   2  -7  -5  130.94   11.65 
  -2  -7  -5  140.58    7.66 
   2   7  -5  127.89   10.67 
  -2  -7  -5  133.76    9.30 
  -2  -7   5  143.39    9.76 
   2   7  -5  140.22    9.91 
  -2   7  -5  150.18    9.95 
   2   7   5  118.10    8.82 
   2  -7  -5  139.13    6.77 
  -2  -7   5  133.95    9.76 
  -2  -7   5  134.77   10.36 
  -2   7  -5  125.09   11.20 
  -3   7   5    1.52    3.41 
   3  -7   5    2.73    2.44 
  -3  -7  -5    0.81    2.63 
   3  -7  -5    0.88    2.51 
   3   7   5    2.71    2.55 
  -3   7   5   -3.61    3.55 
  -3  -7   5    1.50    3.33 
  -3  -7   5    1.26    3.63 
  -3  -7   5    1.76    2.77 
   3  -7   5   -2.68    2.88 
  -3  -7  -5   -1.90    3.41 
  -3   7   5    4.96    3.37 
  -3  -7  -5   -0.31    2.55 
   3   7   5   -2.84    3.73 
  -3   7  -5    1.46    2.95 
   3   7  -5    3.76    3.64 
   3   7  -5    5.83    4.18 
   3  -7  -5    3.91    4.21 
   3   7   5   -1.89    3.19 
  -4  -7   5  131.61   12.53 
   4   7   5  151.92   16.04 
  -4  -7  -5  127.60    9.03 
  -4  -7  -5  125.36    9.95 
   4  -7   5  146.93   14.70 
   4   7  -5  122.30   10.15 
  -4   7   5  113.95    8.80 
   4  -7   5  112.41    9.77 
  -4  -7   5  127.43    9.62 
   4   7  -5  132.03   10.51 
  -4   7   5  161.14   14.91 
   4  -7  -5  160.83   15.56 
  -4   7  -5  119.60    9.32 
  -4   7  -5  114.46    8.17 
  -4  -7  -5  122.19   10.85 
  -4   7   5  122.58    9.41 
  -4  -7   5  151.84   13.87 
   4  -7  -5  125.84    8.46 
  -5   7   5    0.82    2.90 
   5   7  -5    0.15    3.98 
  -5  -7  -5   -0.45    2.90 
  -5  -7  -5    2.92    4.63 
   5  -7  -5    2.55    4.41 
  -5  -7   5   -0.05    3.05 
  -5  -7   5   -5.20    2.40 
   5  -7  -5    0.91    3.71 
   5  -7   5    2.18    3.33 
  -5   7   5   -1.48    4.64 
  -5   7  -5    1.30    3.41 
  -5   7  -5   -1.18    2.64 
   5  -7   5    5.86    4.97 
  -5  -7   5   -3.58    3.57 
   5   7   5    4.45    5.81 
   5   7  -5   -2.36    3.29 
   6  -7   5  156.16   11.69 
   6   7   5  201.94   19.74 
  -6  -7   5  172.44   13.42 
  -6   7   5  163.68   10.86 
   6   7  -5  194.08   12.84 
  -6  -7   5  158.97   14.21 
  -6   7  -5  175.84   10.10 
  -6   7  -5  170.12   12.06 
  -6  -7  -5  188.37   13.00 
   6  -7  -5  187.63   12.51 
   6  -7  -5  192.21   18.50 
   6   7  -5  183.30   14.06 
   6  -7   5  176.46   15.50 
  -6   7   5  168.38   14.43 
   6   7   5  168.38   12.19 
  -6  -7  -5  160.46   13.75 
   7  -7  -5   -0.34    5.39 
   7   7   5   -2.29    5.69 
  -7  -7  -5   -8.48    2.74 
   7  -7   5   -6.38    3.23 
   7  -7   5   -3.24    4.92 
  -7   7  -5    2.07    3.00 
  -7   7   5    1.11    3.17 
   7   7   5   -2.39    3.88 
  -7   7   5    2.71    5.87 
  -7  -7   5   -3.02    4.55 
   7   7  -5    4.85    5.46 
  -7  -7   5   -1.22    3.58 
  -7   7  -5   -2.46    4.38 
  -7  -7  -5    2.07    5.68 
  -8   7   5   14.76    5.31 
   8   7   5   18.81    9.31 
   8  -7   5   13.78    7.69 
  -8  -7  -5   11.80    6.98 
  -8  -7   5   10.35    7.20 
   8  -7  -5   10.90    7.73 
  -8  -7  -5   14.75    5.44 
   8   7   5   12.59    6.40 
   8  -7   5   14.45    5.69 
  -8   7  -5   11.87    3.84 
  -8  -7   5    3.10    4.71 
   8   7  -5   22.62    7.91 
  -8   7  -5   10.38    6.42 
  -8   7   5    9.43    7.05 
  -9  -7   5   -5.45    3.07 
  -9   7  -5    0.61    2.98 
  -9   7   5   -8.38    6.16 
  -9   7   5    2.00    3.60 
   9   7   5    4.91    5.94 
  -9  -7  -5   -1.42    3.75 
  -9   7  -5    6.30    6.85 
   9   7   5   -5.58    4.39 
  -9  -7  -5   -3.35    5.77 
   9   7  -5   -2.70    5.57 
   9  -7  -5   -2.03    4.69 
  -9  -7   5   -0.05    6.59 
   9  -7   5    2.82    6.20 
 -10   7  -5   76.83   13.43 
  10   7   5   81.15   12.73 
  10   7   5   82.58   16.28 
 -10   7   5   85.17   14.39 
 -10  -7  -5   64.88   13.33 
 -10   7   5   65.36    8.11 
  10  -7   5   92.83   16.08 
 -10   7  -5   78.08    6.43 
 -10  -7  -5   86.07   11.78 
  10  -7  -5   83.35   16.18 
 -10  -7   5   80.83   11.71 
  10   7  -5   86.07   14.20 
 -10  -7   5   98.96   16.81 
   0   8   5    2.99    3.88 
   0  -8   5    9.57    4.60 
   0   8   5    2.44    4.01 
   0  -8  -5   12.53    4.93 
   0   8   5    9.98    5.59 
   0   8  -5   19.98    5.66 
   0   8  -5   25.49    5.30 
  -1  -8  -5  137.71    7.35 
  -1  -8  -5  141.32   10.94 
   1   8   5  130.10   10.23 
  -1  -8   5  137.24    9.11 
   1  -8  -5  128.10   11.46 
   1   8   5  149.66   12.88 
  -1  -8  -5  132.65    9.40 
  -1   8   5  148.96   11.50 
   1   8   5  142.83   13.58 
   1  -8   5  146.71    8.86 
   1   8  -5  136.39    9.45 
  -1   8   5  137.20   11.37 
  -1  -8   5  143.80   10.65 
  -1   8  -5  130.37   13.39 
  -1   8   5  124.49   12.58 
  -1   8  -5  142.71    9.87 
   1  -8   5  130.49   10.44 
   1   8  -5  129.67   11.34 
   2   8   5   20.41    7.51 
  -2   8  -5   54.39    7.10 
   2  -8   5   18.58    5.77 
   2  -8  -5   18.11    5.90 
  -2  -8  -5   12.81    4.39 
  -2  -8  -5   18.50    3.78 
   2   8  -5   28.05    6.95 
   2   8  -5   24.46    5.54 
  -2  -8  -5   32.23    7.29 
  -2   8   5   27.21    6.66 
   2  -8   5   32.10    5.53 
  -2   8   5   15.27    5.19 
  -2  -8   5   25.85    5.84 
  -2  -8   5   25.14    5.72 
  -2   8  -5   25.05    6.73 
   2   8   5   10.63    4.63 
   2   8   5   27.32    7.22 
  -2   8   5   11.86    5.47 
  -3   8  -5  254.30   13.78 
  -3  -8  -5  231.40   11.42 
  -3  -8  -5  220.37   14.68 
   3  -8  -5  256.15   16.49 
  -3  -8   5  279.11   14.25 
   3   8   5  237.44   17.13 
  -3  -8   5  205.66   13.63 
  -3  -8   5  232.99   14.76 
  -3   8   5  229.37   15.82 
  -3   8   5  247.20   14.15 
   3   8  -5  244.57   13.88 
   3  -8   5  232.82   14.29 
   3   8   5  268.71   12.39 
   3   8  -5  211.40   14.57 
  -3  -8  -5  240.36   13.72 
  -3   8   5  245.29   14.07 
   3   8   5  255.92   16.61 
  -3   8  -5  220.61   15.66 
  -4  -8  -5   17.50    6.21 
   4  -8   5   13.46    5.24 
  -4   8  -5   22.74    5.39 
  -4  -8   5   12.75    5.52 
   4   8  -5    0.73    4.00 
  -4   8   5    3.55    3.74 
  -4   8   5   13.76    5.19 
  -4   8   5   11.23    6.15 
  -4   8  -5   23.21    7.08 
  -4  -8  -5    4.90    4.22 
  -4  -8   5   15.08    4.61 
   4   8  -5   22.61    6.39 
   4   8   5   10.37    6.67 
  -4  -8  -5    2.19    3.32 
  -4  -8   5    9.00    4.84 
   4  -8  -5   30.19    7.67 
  -5  -8  -5   63.89   10.85 
  -5   8  -5   55.82    6.69 
  -5  -8   5   47.18    8.88 
  -5  -8   5   50.07    7.44 
   5  -8  -5   58.94   11.49 
   5  -8   5   48.36   10.52 
  -5   8   5   53.78    7.56 
  -5  -8   5   54.51   10.10 
   5   8  -5   53.28    9.23 
  -5  -8  -5   46.41    7.78 
  -5  -8  -5   56.96    8.89 
   5   8   5   62.63   11.91 
   5  -8   5   46.71    8.20 
   5   8  -5   54.48    9.38 
  -5   8  -5   41.01    7.42 
  -5   8   5   60.39   10.90 
  -6   8  -5   18.75    5.58 
   6   8  -5   13.13    6.08 
   6   8   5    6.54    4.89 
  -6   8  -5   10.63    3.70 
  -6  -8   5    7.30    6.33 
  -6  -8  -5   12.45    6.54 
   6  -8  -5   24.55    7.43 
  -6  -8  -5    4.22    4.35 
   6   8  -5   27.12    6.73 
  -6   8   5    5.74    5.96 
   6  -8   5   30.80    8.75 
  -6   8   5    8.22    4.20 
   6  -8   5   17.66    5.90 
  -6  -8   5   16.08    6.23 
   6   8   5   13.61    6.70 
  -7   8  -5   90.73   11.54 
  -7  -8   5   97.87   12.15 
   7   8  -5   86.35   12.78 
  -7   8  -5   84.67    6.96 
   7  -8  -5  107.77   15.38 
  -7  -8   5  127.43   15.81 
  -7   8   5   92.19   13.84 
   7  -8   5  109.89   15.57 
   7  -8   5   89.03   11.43 
  -7  -8  -5   81.89   11.24 
  -7   8   5   95.22    9.52 
   7   8   5  100.65   11.59 
   7   8   5  119.27   17.23 
  -7  -8  -5   96.28   13.85 
  -8  -8   5    3.59    5.85 
   8  -8  -5   25.73    9.17 
  -8   8   5    1.76    5.77 
  -8   8   5   10.24    4.93 
   8   8   5    7.70    6.37 
   8   8   5   17.92    8.01 
  -8  -8   5    3.92    4.38 
  -8  -8  -5   -0.54    4.32 
   8  -8   5   21.58    7.22 
  -8  -8  -5   12.93    6.81 
  -8   8  -5    3.47    3.02 
   8  -8   5    2.93    4.80 
   8   8  -5    5.86    6.45 
  -9  -8   5   43.01    8.81 
   9   8  -5   41.57   10.91 
  -9   8   5   52.43   12.01 
  -9   8   5   45.22    7.99 
   9   8   5   46.36    9.74 
   9  -8   5   28.41    9.81 
  -9   8  -5   35.87    5.13 
  -9  -8  -5   30.23   10.15 
  -9  -8   5   41.06   11.75 
   9  -8  -5   76.68   15.14 
   9   8   5   49.74   13.21 
  -9  -8  -5   50.62    8.96 
  10  -8   5   23.41    9.32 
 -10   8   5    4.26    7.39 
  10   8   5   -3.51    7.20 
 -10  -8   5    1.12    4.75 
 -10  -8  -5    4.05    4.93 
 -10  -8   5    5.21    7.97 
  10   8   5    2.38    6.03 
 -10  -8  -5   14.54    8.43 
 -10   8   5    9.35    4.10 
 -10   8  -5    7.59    3.19 
  10   8  -5   14.06    7.75 
  10  -8  -5   13.11    8.22 
   0   9   5  146.24   14.05 
   0  -9  -5  152.03   14.56 
   0   9  -5  138.25    9.68 
   0  -9   5  129.52   12.12 
   0  -9   5  109.68    8.47 
   0   9   5  138.00   14.31 
   0   9  -5  117.97   13.48 
   0   9   5  144.69   12.96 
   1   9  -5    2.28    4.45 
   1  -9   5    5.52    4.46 
  -1   9  -5    1.19    3.56 
  -1  -9   5    2.28    4.02 
   1   9  -5    0.08    3.00 
   1   9   5   -1.83    3.08 
   1   9   5    1.97    5.15 
   1  -9  -5    1.85    4.37 
  -1  -9   5    2.17    3.76 
  -1   9   5    2.24    3.77 
   1  -9   5    6.56    4.39 
  -1   9   5    2.18    4.79 
  -1  -9  -5    6.57    5.09 
   1   9   5   -0.87    2.89 
  -1   9  -5    5.44    4.91 
  -1   9   5    2.51    4.23 
   2  -9  -5   24.86    8.15 
  -2   9  -5   28.44    7.79 
  -2  -9  -5   26.72    7.20 
   2  -9   5   39.11    7.04 
   2   9  -5   29.36    6.05 
   2   9   5   25.80    8.56 
  -2   9  -5   39.99    6.99 
  -2   9   5   26.68    6.67 
   2   9  -5   35.31    8.66 
  -2  -9   5   33.83    7.18 
  -2  -9   5   40.01    7.38 
   2   9   5   23.07    5.86 
   2   9   5   25.27    7.19 
  -2   9   5   25.74    6.92 
   2  -9   5   31.73    7.04 
  -2   9   5   25.35    7.37 
  -3  -9  -5    1.63    3.06 
   3   9   5    4.91    6.13 
  -3  -9   5    4.35    4.40 
   3   9   5    3.91    3.27 
  -3  -9  -5    3.19    4.67 
  -3   9   5   -6.69    3.21 
   3  -9  -5   -0.83    3.95 
   3   9  -5   -0.70    4.53 
  -3  -9   5    1.47    3.72 
  -3   9  -5    4.33    5.07 
  -3   9   5   -0.24    4.19 
   3  -9   5    1.52    3.77 
  -3   9   5    3.42    3.44 
  -3  -9  -5    0.49    2.76 
  -3   9  -5    9.13    4.21 
   3   9  -5    4.79    3.98 
  -4  -9   5   60.34    9.67 
   4   9  -5   52.03    8.74 
  -4   9   5   42.85    7.38 
  -4  -9   5   56.22    9.15 
  -4  -9  -5   54.29    8.48 
  -4   9   5   53.23    8.80 
  -4  -9   5   56.96    8.30 
  -4   9  -5   43.63   10.05 
  -4   9   5   41.03    9.53 
  -4   9  -5   36.70    6.98 
   4   9   5   47.27   11.33 
   4  -9  -5   53.11   10.83 
  -4  -9  -5   43.48    6.61 
  -4  -9  -5   50.91    9.75 
   4  -9   5   36.55    7.90 
   4   9  -5   57.44   10.16 
   5   9  -5   -3.31    3.69 
  -5  -9  -5    1.97    3.35 
  -5  -9  -5    0.31    5.31 
  -5   9   5    1.01    3.48 
  -5   9  -5   -1.10    5.45 
  -5   9   5    1.70    5.21 
  -5  -9   5   -1.30    4.35 
   5  -9  -5    0.02    5.39 
   5  -9   5    2.76    4.27 
  -5  -9  -5   -4.95    2.88 
   5   9   5   -1.22    5.17 
  -5  -9   5    1.33    3.66 
   5   9  -5    3.40    4.22 
   6   9  -5   -1.78    4.56 
  -6  -9   5    3.96    3.79 
  -6   9  -5   -1.12    5.90 
   6   9   5   -5.86    5.07 
  -6  -9   5    2.22    5.36 
  -6   9   5    2.44    5.66 
   6  -9   5    0.46    3.89 
  -6  -9  -5   -0.79    3.52 
  -6  -9  -5   -6.79    4.02 
   6  -9  -5    9.88    6.54 
  -6   9   5    2.68    3.76 
   6   9  -5   -2.29    4.38 
  -7   9   5   -0.68    3.59 
  -7  -9  -5   -5.64    5.53 
   7  -9   5    4.80    4.68 
   7  -9  -5   -0.53    5.97 
  -7  -9   5   -1.16    5.59 
  -7   9  -5    3.40    7.28 
   7   9   5    1.88    4.54 
   7   9   5    7.54    6.57 
  -7  -9  -5   -7.56    3.26 
   7   9  -5    5.97    5.88 
  -7   9   5   -2.25    5.35 
  -7  -9   5    6.40    4.20 
   8   9   5   -7.62    5.82 
   8  -9   5    8.82    5.52 
   8   9  -5   10.16    7.16 
  -8  -9  -5   11.26    7.43 
  -8  -9   5    2.53    6.43 
  -8   9   5   -2.27    5.62 
  -8  -9   5    7.77    4.97 
  -8   9  -5    9.23    8.77 
   8  -9  -5   22.29    8.37 
  -8  -9  -5    1.92    4.53 
   8   9   5   13.16    5.96 
  -8   9   5    2.88    4.33 
  -9   9   5    3.55    4.71 
  -9   9   5    2.49    7.57 
  -9  -9  -5   -7.87    3.14 
   9   9  -5   -3.77    5.38 
  -9   9  -5    4.08    8.08 
   9  -9  -5   -7.87    5.63 
  -9  -9  -5   -0.77    6.05 
   9   9   5   -1.59    4.92 
   9   9   5   12.54    8.46 
  -9  -9   5    1.28    7.26 
  -9  -9   5   -2.16    4.32 
 -10  -9   5    8.29    8.88 
 -10   9   5   -3.71    3.73 
 -10   9   5   -0.18    7.69 
 -10  -9  -5    0.42    5.79 
 -10   9  -5   10.26    9.17 
  10   9  -5    1.11    6.49 
 -10  -9  -5    4.63    5.45 
 -10  -9   5   10.29    5.52 
  10  -9  -5    5.58    8.04 
  10   9   5    0.97    7.37 
   0 -10   5   43.48    8.31 
   0  10   5   23.40    8.15 
   0  10  -5   39.84    6.55 
   0  10   5   22.31    7.16 
   0  10   5   27.63    7.59 
   0  10  -5   48.27    9.32 
   0 -10  -5   49.26    9.50 
  -1  10   5   16.28    6.17 
   1 -10   5   35.05    7.08 
   1 -10  -5   22.36    7.63 
  -1  10   5   17.37    6.59 
  -1  10   5   28.13    8.04 
   1  10   5   25.63    6.51 
   1  10   5   38.32    9.46 
   1  10  -5   24.52    8.24 
  -1 -10  -5   20.17    7.44 
  -1 -10   5   29.58    7.08 
   1  10  -5   26.68    5.64 
  -1 -10   5   32.75    6.95 
   1 -10   5   27.03    6.99 
  -1  10  -5   38.74    8.72 
   1  10   5   12.10    5.97 
  -2  10   5    2.78    5.40 
   2  10   5    3.74    4.85 
  -2 -10   5   12.27    5.59 
  -2  10   5   13.88    5.78 
   2  10   5   11.17    5.53 
   2 -10  -5   28.79    8.02 
  -2 -10   5   31.86    6.71 
   2  10  -5   39.13    8.87 
   2  10  -5   21.14    5.15 
  -2 -10  -5   24.77    7.39 
  -2  10  -5   26.50    7.63 
   2 -10   5   24.90    6.83 
  -2  10   5   18.41    6.55 
   2  10   5   19.29    7.98 
   3  10  -5   -0.84    3.57 
  -3 -10   5   -4.70    3.08 
  -3  10   5   -0.05    3.13 
  -3 -10   5   -4.16    3.34 
  -3 -10  -5    1.13    4.31 
   3 -10  -5    0.63    5.36 
   3 -10   5   -3.40    3.45 
   3  10  -5    2.68    4.70 
  -3  10   5    5.96    5.08 
  -3  10   5    2.44    4.58 
   3  10   5    1.10    5.58 
  -3  10  -5    0.91    4.86 
   4  10  -5   32.26    7.14 
  -4 -10  -5   32.13    8.77 
  -4 -10   5   35.82    8.01 
   4  10  -5   50.77    9.01 
  -4  10   5   28.31    7.86 
   4  10   5   22.96    8.55 
   4 -10   5   33.30    7.72 
  -4  10   5   15.91    5.42 
   4 -10  -5   44.85    9.37 
  -4  10   5   26.55    7.84 
  -4 -10   5   41.86    7.66 
  -4  10  -5   50.85   10.09 
   5  10  -5   26.46    7.24 
   5  10   5   30.23   10.08 
  -5 -10   5   25.78    8.48 
  -5 -10  -5   32.28    9.48 
  -5  10  -5   33.00   10.11 
   5 -10  -5   52.00   12.37 
   5 -10   5   25.48    7.31 
  -5  10   5   31.97    6.62 
  -5  10   5   38.37    9.84 
   5  10  -5   43.13    9.58 
  -6 -10   5   18.42    7.12 
   6 -10  -5   25.50    8.50 
  -6 -10  -5   10.30    6.10 
  -6 -10  -5    5.60    5.70 
   6  10   5   12.83    7.70 
   6  10  -5   24.22    7.48 
   6 -10   5   14.46    6.27 
   6  10  -5   22.17    6.92 
  -6  10   5    6.15    4.43 
  -6  10  -5   24.32    8.47 
  -6 -10  -5   20.35    8.01 
  -6  10   5    8.22    7.29 
   7 -10   5   -0.68    4.37 
  -7 -10  -5    0.33    5.74 
   7 -10  -5    3.68    5.98 
  -7  10  -5    5.91    8.13 
   7  10  -5    8.70    5.80 
  -7  10   5    1.13    5.85 
  -7 -10  -5   -1.52    4.13 
  -7 -10   5    4.45    5.41 
  -7  10   5    3.12    3.77 
   7  10   5    4.59    6.65 
  -8  10   5   27.38    9.55 
   8  10  -5   29.74    8.76 
   8  10   5   33.99   10.25 
  -8 -10  -5   14.69    6.74 
  -8  10   5   21.59    6.22 
  -8 -10  -5   37.34   10.62 
   8 -10   5   25.52    7.63 
  -8  10  -5   40.25   11.56 
   8 -10  -5   34.64    9.97 
  -8 -10   5   23.92    9.25 
  -9 -10  -5    4.56    5.22 
  -9  10   5    2.54    4.23 
   9 -10   5   -2.95    5.29 
   9  10  -5    0.35    5.49 
   9  10   5    2.47    7.90 
   9 -10  -5   11.18    9.01 
  -9 -10  -5   -4.53    5.14 
  -9  10   5    2.02    6.97 
  -9 -10   5    8.55    7.99 
  -9  10  -5    6.04    8.89 
   0  11   5   24.32    7.28 
   0 -11   5   23.27    7.02 
   0 -11   5   20.42    6.66 
   0  11   5   14.64    7.33 
   0  11  -5   29.78    9.35 
   0 -11  -5   20.02    8.18 
   0  11   5   33.94    8.12 
  -1  11  -5    3.10    5.46 
  -1 -11  -5    4.75    4.37 
  -1  11   5   -1.05    3.45 
   1  11   5    3.67    4.73 
  -1 -11   5    0.40    3.91 
   1 -11  -5   -1.68    4.29 
   1  11   5    2.72    5.02 
  -1 -11   5    6.21    4.07 
   1  11  -5   -2.01    5.18 
   1 -11   5   -1.95    4.32 
  -1  11   5    1.24    4.40 
   1  11   5    4.84    5.82 
  -1  11   5    2.80    5.75 
  -2  11   5   47.33   10.21 
  -2  11   5   57.48    9.92 
   2 -11   5   42.42    9.08 
  -2 -11  -5   59.76   10.96 
   2  11  -5   56.33   11.08 
   2  11   5   67.51   13.24 
   2 -11  -5   58.57   12.00 
   2  11   5   65.52   11.51 
  -2  11   5   48.13    9.61 
   2  11   5   62.34    9.38 
  -2  11  -5   49.33   10.37 
  -2 -11   5   50.75    8.98 
  -2 -11   5   79.17   10.23 
   3 -11   5    4.23    4.06 
  -3 -11  -5    7.32    6.03 
   3 -11  -5    1.97    4.58 
   3  11  -5    2.23    4.61 
  -3  11   5   -0.95    4.44 
  -3  11   5    2.97    4.13 
   3  11   5   -7.35    5.30 
  -3 -11   5    1.42    3.96 
  -3  11  -5    6.24    5.99 
  -3  11   5    3.36    5.00 
  -3 -11   5   -4.56    4.10 
  -4 -11   5    7.93    4.48 
  -4  11  -5    6.54    6.67 
  -4  11   5   -0.09    4.88 
  -4  11   5    6.82    5.46 
  -4  11   5    1.41    3.48 
   4 -11   5   -0.81    4.55 
   4  11  -5   -5.69    3.45 
  -4 -11  -5    2.60    5.21 
   4  11   5    0.36    6.44 
  -4 -11   5    9.96    5.31 
   4 -11  -5    6.34    5.63 
   4  11  -5    2.61    5.69 
   5  11   5    4.83    6.51 
  -5 -11  -5   -1.47    4.88 
   5 -11   5   -0.95    4.27 
  -5 -11   5    0.34    4.85 
   5  11  -5    6.35    5.55 
   5 -11  -5   -4.82    4.81 
  -5  11   5   -0.47    4.05 
   5  11  -5    0.48    4.60 
  -5  11   5   -1.26    5.57 
  -5  11  -5    2.43    6.97 
  -6  11   5   82.40   10.10 
   6 -11   5   85.75   12.33 
  -6  11  -5  105.95   15.32 
  -6 -11   5   72.72   13.01 
   6  11   5   86.34   15.69 
   6  11  -5   82.99   13.14 
  -6  11   5   80.59   14.01 
   6  11  -5   93.72   12.34 
   6 -11  -5  106.15   15.31 
  -6 -11  -5   96.18   14.49 
   7  11  -5    2.30    6.08 
   7 -11  -5   12.59    7.09 
  -7  11   5   -1.63    3.46 
   7 -11   5   -1.99    4.44 
  -7 -11   5    3.85    7.19 
  -7  11  -5    0.22    7.85 
   7  11   5   -3.80    5.95 
  -7 -11  -5    7.47    6.21 
  -7  11   5   -3.65    6.19 
   8 -11   5   13.63    6.09 
   8  11  -5   16.68    7.14 
  -8 -11  -5   15.23    8.22 
   8  11   5    5.89    7.40 
  -8  11   5    3.77    4.78 
  -8 -11   5   10.23    7.79 
  -8  11  -5   -2.52    7.47 
  -8  11   5    0.41    7.49 
   8 -11  -5   13.24    8.42 
  -9  11   5   -4.17    3.58 
   9 -11   5   11.89    6.69 
   9 -11  -5   -2.71    7.89 
  -9 -11   5   -0.42    5.32 
  -9  11   5    5.40    7.46 
   9  11   5    3.42    7.00 
  -9 -11  -5   -4.78    5.77 
  -9  11  -5   -7.66    7.48 
   9  11  -5    6.25    6.61 
   0  12   5   21.17    7.72 
   0  12   5   18.88    7.40 
   0  12  -5   51.46   10.76 
   0 -12  -5   31.06    8.20 
   0 -12   5   44.32    9.37 
   0  12   5   25.98    8.69 
   1  12   5   18.76    6.71 
  -1 -12  -5   17.34    7.28 
   1  12   5   22.59    8.68 
  -1  12   5   25.41    7.47 
  -1  12  -5   27.80    9.27 
  -1 -12   5   29.87    8.13 
  -1  12   5   19.42    7.16 
  -1  12   5   28.94    8.74 
  -1 -12   5   34.59    7.80 
   1  12  -5   31.22    9.81 
   1 -12  -5   23.45    8.52 
   1  12   5   20.84    7.03 
   1 -12   5   19.82    6.95 
   2  12   5   37.75    8.06 
   2  12   5   35.56    8.88 
  -2  12   5   25.13    7.36 
  -2  12   5   35.76    8.89 
  -2 -12   5   50.27    9.04 
   2  12  -5   60.24   11.49 
  -2 -12  -5   57.27   10.81 
  -2 -12   5   42.85    8.67 
   2 -12   5   32.43    8.76 
  -2  12  -5   55.05   11.25 
  -2  12   5   34.69    9.78 
   2 -12  -5   58.38   11.95 
   2  12   5   37.15   11.05 
  -3 -12   5   54.17    9.78 
  -3  12  -5   65.65   12.32 
  -3 -12  -5   74.81   12.65 
  -3  12   5   62.67   10.41 
   3  12   5   76.40   14.36 
  -3  12   5   65.24   11.23 
   3 -12   5   45.30    9.96 
  -3  12   5   67.17   12.25 
   3  12  -5   64.86   12.27 
   3 -12  -5   75.98   13.20 
  -3 -12   5   76.00   11.35 
   4 -12   5   38.28    8.73 
   4 -12  -5   42.28    9.75 
  -4 -12  -5   20.70    8.24 
   4  12  -5   27.40    7.90 
  -4  12   5   14.49    5.79 
  -4 -12   5   35.76    8.87 
  -4  12   5   13.22    7.16 
   4  12   5   39.06   11.01 
  -4  12  -5   39.80    9.66 
  -4  12   5   23.99    8.34 
  -5 -12   5   14.70    6.91 
   5  12  -5   12.17    7.02 
  -5 -12  -5   12.51    7.44 
  -5  12   5    5.00    4.70 
   5 -12  -5   13.73    8.85 
   5 -12   5    9.04    5.53 
  -5  12   5    7.91    6.54 
  -5  12  -5    4.32    7.53 
   5  12   5    7.44    7.09 
   6 -12   5   38.33    9.29 
  -6  12   5   18.76    8.34 
  -6  12   5   23.80    6.65 
  -6  12  -5   51.36   11.63 
   6 -12  -5   55.07   10.73 
   6  12   5   41.07   11.53 
  -6 -12   5   46.11   10.26 
  -6 -12  -5   31.86   10.48 
   6  12  -5   65.45   11.18 
  -7 -12   5   33.63   11.04 
  -7 -12  -5   35.09   11.61 
  -7  12   5   24.28    6.66 
   7 -12   5   26.58    8.09 
  -7  12  -5   56.19   13.81 
   7  12   5   18.75    9.75 
  -7  12   5   32.33   10.25 
   7 -12  -5   28.29   11.53 
   8  12   5   40.11   11.80 
  -8 -12   5   19.26    8.50 
  -8  12   5   16.72    5.92 
   8 -12   5   25.11    8.64 
  -8  12  -5   26.87   10.79 
  -8 -12  -5   17.62    8.94 
   8 -12  -5   33.63   10.30 
  -8  12   5   22.37    9.66 
   0  13   5   83.51   14.06 
   0  13   5   32.02    9.24 
   0  13   5   58.15   11.32 
   0 -13   5   61.01   11.40 
   0  13  -5   67.17   13.08 
   0 -13  -5   68.75   12.75 
   1  13  -5   19.03    8.16 
  -1 -13   5   -0.43    5.02 
   1  13   5   -1.62    4.06 
  -1  13   5   -1.91    4.15 
   1  13   5   -6.19    5.61 
  -1 -13  -5    1.68    5.10 
  -1  13  -5    3.35    7.05 
   1  13   5   10.00    5.80 
  -1  13   5    1.01    5.21 
   1 -13  -5   -0.07    5.44 
   1 -13   5    3.33    5.64 
  -1 -13   5    1.11    4.41 
  -1  13   5    4.14    6.45 
  -2  13   5    4.52    5.14 
   2  13  -5    3.36    6.21 
   2 -13   5   13.21    6.96 
  -2  13   5   12.68    6.96 
   2  13   5   13.77    8.40 
  -2 -13   5    2.15    5.09 
  -2  13   5   -2.73    5.26 
  -2 -13  -5   18.41    8.00 
  -2  13  -5    9.15    6.87 
  -2 -13   5   10.34    5.93 
   2 -13  -5    6.06    7.07 
  -3 -13   5    1.66    5.02 
  -3  13   5    3.29    5.74 
   3  13  -5    8.33    6.06 
   3 -13   5    4.18    5.62 
  -3 -13  -5   -4.91    4.52 
   3  13   5   -5.73    5.70 
  -3  13  -5    6.14    7.29 
  -3  13   5    4.70    5.80 
  -3  13   5   -0.13    4.32 
  -3 -13   5    0.27    5.36 
   3 -13  -5    3.40    5.74 
  -4  13   5   32.33    7.78 
   4 -13  -5   39.56   10.60 
  -4 -13   5   46.37   10.84 
  -4  13  -5   32.56    9.61 
  -4 -13  -5   31.31   10.45 
   4 -13   5   27.90    9.09 
  -4  13   5   33.28    9.17 
   4  13   5   42.60   12.88 
  -4  13   5   39.49   10.21 
   4  13  -5   36.00   10.42 
  -5 -13   5   -2.40    5.15 
  -5  13   5   -6.09    4.87 
  -5  13  -5    3.01    7.03 
   5 -13  -5   -1.72    6.41 
  -5  13   5    4.09    4.55 
   5  13   5   17.75    8.62 
   5 -13   5    9.39    6.22 
  -5 -13  -5   -4.10    5.99 
   5  13  -5   10.88    7.44 
   6  13   5   -8.81    6.68 
   6 -13  -5   -4.75    5.75 
  -6  13   5    6.83    7.29 
  -6  13   5   -2.51    3.62 
   6  13  -5    8.06    6.44 
  -6 -13   5   18.04    7.23 
  -6 -13  -5   -2.56    5.50 
  -6  13  -5    1.18    7.84 
   6 -13   5    7.71    6.63 
  -7 -13   5    7.61    7.00 
   7  13   5   16.02    9.76 
   7 -13   5   -3.01    4.67 
  -7  13  -5    1.84    7.39 
  -7  13   5    5.40    4.56 
   7 -13  -5    7.83    7.63 
  -7  13   5    4.84    7.46 
  -7 -13  -5  -10.37    5.12 
   0  14  -5   67.01   13.08 
   0  14   5   52.71   10.79 
   0 -14  -5   68.05   13.10 
   0 -14   5   81.87   12.64 
   0  14   5   44.79   10.55 
   0  14   5   68.73   13.70 
   1  14   5    1.59    4.55 
  -1  14   5    2.31    4.95 
   1 -14  -5    5.44    6.64 
  -1 -14   5   -1.10    5.83 
  -1  14   5   -1.55    5.63 
  -1 -14  -5    0.83    5.39 
   1  14   5    9.19    7.38 
   1  14  -5   -1.31    6.08 
  -1  14  -5  -11.46    4.11 
  -1  14   5   -9.15    3.73 
   1  14   5    5.42    5.36 
   1 -14   5   -5.92    5.06 
   2  14   5   44.05   12.13 
  -2  14   5   25.60    7.96 
  -2 -14  -5   42.56   10.43 
   2 -14   5   29.86    9.18 
   2  14  -5   51.19   11.86 
  -2 -14   5   35.23    9.12 
  -2  14   5   20.66    8.74 
   2 -14  -5   52.82   11.03 
  -2  14  -5   54.78   12.21 
  -2  14   5   23.13    8.65 
  -3  14   5   13.74    7.28 
  -3 -14   5   15.19    6.70 
  -3 -14  -5    1.35    5.38 
  -3  14   5   14.05    7.32 
   3  14   5   -0.69    7.42 
   3 -14   5    9.38    7.48 
  -3 -14   5   -2.36    5.16 
   3  14  -5    3.28    6.07 
   3 -14  -5   16.07    8.10 
  -3  14   5   13.62    5.71 
  -3  14  -5    7.40    7.92 
  -4 -14  -5   71.72   14.10 
   4  14  -5   78.33   14.43 
   4  14   5   82.98   16.56 
   4 -14  -5   75.04   13.26 
  -4  14   5   40.51    8.92 
  -4 -14   5   52.49   11.33 
  -4  14  -5   62.72   13.09 
   4 -14   5   67.78   12.90 
  -4  14   5   30.82    9.70 
   5 -14  -5   -6.89    5.93 
  -5  14   5    0.86    4.72 
   5 -14   5    6.06    6.82 
  -5 -14   5   16.18    7.94 
  -5 -14  -5   -4.46    6.56 
   5  14   5    0.98    7.08 
  -5  14   5   -1.78    5.79 
  -5  14  -5   -1.30    5.68 
   5  14  -5    2.31    6.86 
  -6 -14   5   36.08   11.15 
   6  14   5   33.52   11.63 
  -6  14  -5   40.08   10.82 
   6 -14  -5   36.86   10.41 
  -6  14   5   21.87    9.84 
  -6  14   5   19.71    6.90 
   6  14  -5   63.21   12.64 
  -6 -14  -5   35.32   10.59 
   6 -14   5   21.89    8.44 
   7  14   5   14.79   10.20 
  -7  14  -5   -1.64    7.62 
  -7 -14  -5    2.85    7.54 
  -7  14   5    6.05    6.79 
   7 -14  -5   -0.21    7.35 
  -7  14   5    1.99    4.50 
   7 -14   5    8.39    6.90 
  -7 -14   5   15.01    8.45 
   0 -15   5   -0.92    6.77 
   0 -15  -5    5.79    7.27 
   0  15   5    7.05    6.31 
   0  15   5    0.84    6.77 
   0  15   5   15.39    6.62 
   0  15  -5   13.22    8.32 
   1  15   5    3.50    7.56 
  -1  15   5    1.59    4.72 
   1 -15  -5   -4.89    5.85 
  -1  15   5   -1.40    5.08 
   1 -15   5    9.86    6.84 
  -1  15   5   -2.82    6.07 
  -1 -15  -5    5.27    6.55 
  -1 -15   5    1.04    5.72 
  -1  15  -5    2.71    6.72 
   1  15  -5    2.41    6.71 
  -2  15   5   18.38    8.72 
   2 -15  -5   24.21    9.76 
   2  15   5   23.92   10.64 
   2  15  -5   22.10    9.51 
  -2  15  -5   30.76   11.23 
  -2  15   5   20.56    8.19 
   2 -15   5   20.56    8.70 
  -2 -15  -5   15.12    7.95 
  -2  15   5   12.20    6.70 
  -2 -15   5   15.94    8.01 
  -3  15   5   -4.14    6.14 
  -3  15  -5   -1.50    7.46 
   3  15  -5   -2.32    5.83 
   3 -15  -5    2.57    6.39 
   3  15   5    6.28    8.53 
  -3  15   5   -2.07    5.16 
  -3 -15  -5   -6.10    4.97 
  -3  15   5   -0.92    4.72 
   3 -15   5    6.79    6.77 
  -4 -15  -5   -0.38    6.07 
  -4  15  -5   -3.02    6.26 
   4  15   5    4.63    8.23 
   4 -15  -5    0.54    5.83 
  -4  15   5   -0.91    5.99 
  -4 -15   5    9.20    7.23 
  -4  15   5    5.65    5.19 
   4 -15   5   -1.44    5.78 
   4  15  -5    3.09    7.31 
   5 -15  -5   -4.79    7.03 
  -5 -15  -5    5.54    7.83 
  -5  15  -5   -0.24    7.15 
  -5 -15   5   -7.44    6.43 
   5  15  -5   12.73    8.41 
  -5  15   5    1.12    4.91 
   5  15   5   -5.35    8.26 
  -5  15   5    2.50    6.29 
   5 -15   5    7.78    6.92 
  -6  15   5   24.02    7.31 
  -6 -15   5   33.75   10.89 
   6  15   5   31.54   12.34 
  -6 -15  -5   20.99    9.76 
   6  15  -5   28.46   10.25 
  -6  15   5   32.32   11.13 
  -6  15  -5   21.84   10.34 
   6 -15  -5   42.33   12.69 
   6 -15   5   18.48    8.63 
   0  16   5   32.15    9.48 
   0  16  -5   67.47   14.02 
   0  16   5   57.71   13.41 
   0 -16  -5   57.59   13.73 
   0 -16   5   76.07   13.70 
   0  16   5   32.24    9.73 
   1  16   5    6.69    8.16 
   1  16  -5    4.31    7.22 
  -1  16   5   -2.73    6.49 
  -1 -16  -5   -0.53    6.61 
   1 -16  -5   -7.66    6.99 
  -1  16  -5   -7.97    6.57 
  -1  16   5   -2.65    5.70 
   1 -16   5    2.18    6.78 
  -1 -16   5   10.99    7.06 
  -1  16   5    0.12    5.74 
  -2  16   5   49.97   11.16 
   2 -16   5   61.91   12.90 
  -2  16   5   54.55   12.64 
  -2 -16   5   55.22   11.05 
   2  16  -5   71.58   14.04 
  -2  16  -5   63.02   14.68 
   2 -16  -5   49.64   12.35 
  -2  16   5   41.53   10.30 
  -2 -16  -5   61.19   14.28 
   2  16   5   54.92   13.84 
   3 -16   5    8.86    7.59 
   3  16  -5   10.21    8.18 
   3 -16  -5   15.19    9.31 
   3  16   5   10.24    9.19 
  -3  16   5    2.32    6.79 
  -3  16   5    9.19    7.60 
  -3  16  -5    2.79    8.52 
  -3  16   5    3.34    5.30 
  -3 -16  -5   14.92    9.79 
   4  16  -5   75.24   15.36 
  -4 -16  -5   52.04   13.48 
   4 -16   5   57.51   12.66 
  -4  16  -5   82.82   16.09 
  -4  16   5   33.24    9.67 
   4 -16  -5   69.00   13.57 
   4  16   5   58.30   14.92 
  -4  16   5   45.17   11.98 
   0  17   5   12.17    7.94 
   0  17  -5   26.39   11.36 
   0  17   5   27.45   10.41 
   0 -17  -5   26.04   10.91 
   0 -17   5   40.93   11.76 
  -1  17   5    1.78    6.39 
   1 -17  -5   12.54    8.63 
   1  17   5    4.65    8.35 
  -1  17  -5    2.67    9.01 
   1  17  -5   11.09    7.92 
  -1  17   5  -10.13    6.73 
  -1  17   5   -6.35    4.98 
   1 -17   5  -13.23    5.67 
  -1 -17   5    4.83    7.21 
  -1 -17  -5    6.92    8.28 
   2 -17  -5   29.86   10.79 
  -2  17  -5   13.98    9.50 
  -2  17   5    9.92    9.05 
   2  17  -5   32.84   11.43 
  -2 -17  -5    4.51    8.15 
  -2  17   5   15.20    8.21 
   2 -17   5   13.12    8.19 
  -2  17   5   12.83    8.16 
   2  17   5   11.49    8.98 
   0   0   6  154.75    8.58 
   0   0  -6  142.43    9.22 
   0   0  -6  140.11    7.56 
   0   0   6  139.42    9.11 
   0   0  -6  146.73    9.36 
   0   0   6  133.80    9.28 
   1   0  -6    9.26    3.82 
  -1   0   6    5.92    2.44 
  -1   0  -6   10.16    3.33 
   1   0  -6    8.39    3.42 
   1   0  -6    4.86    2.99 
  -1   0  -6    7.10    2.91 
   1   0   6    6.04    2.91 
  -1   0   6    3.75    3.26 
  -1   0  -6   11.71    2.84 
   1   0   6    4.90    3.24 
  -1   0   6    9.21    3.41 
   1   0   6    5.58    2.95 
   2   0  -6 3587.42   94.28 
  -2   0   6 3661.88   95.78 
  -2   0  -6 3708.87   93.76 
  -2   0   6 3720.08   96.45 
  -2   0  -6 3876.08   91.89 
   2   0  -6 3718.90   97.84 
  -2   0  -6 3854.67   92.60 
   2   0   6 3466.43  100.58 
   2   0   6 3472.92   91.06 
  -3   0   6    2.28    2.53 
   3   0  -6   -0.19    2.57 
  -3   0  -6    3.21    1.85 
   3   0   6    2.02    4.09 
  -3   0  -6    3.11    2.19 
   3   0   6    3.56    2.34 
   3   0  -6    3.03    3.95 
  -3   0  -6   -1.05    1.70 
  -3   0   6    0.33    3.03 
  -4   0  -6  128.56    9.09 
  -4   0  -6  138.74    8.39 
   4   0  -6  116.50   10.68 
  -4   0  -6  153.61   10.49 
  -4   0  -6  132.16    7.44 
   4   0  -6  129.80    9.96 
   4   0   6  134.66   12.20 
  -4   0   6  140.00   10.84 
   4   0   6  139.10    7.13 
  -4   0   6  109.75    9.02 
  -5   0  -6    5.53    3.30 
  -5   0  -6    3.93    2.61 
  -5   0   6    1.42    2.85 
   5   0   6    0.62    4.26 
   5   0   6    9.03    2.47 
  -5   0  -6    6.06    3.58 
  -5   0   6   15.63    5.32 
   5   0  -6    2.32    5.04 
   5   0  -6    5.02    3.86 
  -6   0   6 1915.93   57.15 
  -6   0  -6 1946.64   57.73 
  -6   0  -6 1966.95   53.70 
   6   0  -6 1939.10   64.02 
  -6   0  -6 1961.81   56.50 
   6   0  -6 1921.00   58.93 
  -6   0   6 1900.03   58.33 
   6   0   6 2001.99   66.48 
  -7   0   6    2.75    4.23 
   7   0   6   -3.51    4.71 
   7   0  -6   -2.29    3.20 
  -7   0  -6   -3.89    2.83 
  -7   0   6   -1.41    3.09 
  -7   0   6   -2.46    3.83 
  -7   0  -6   -0.13    2.71 
  -7   0  -6   -3.01    3.54 
   8   0  -6  154.50   15.78 
  -8   0  -6  111.71    9.10 
  -8   0   6  120.82   11.40 
  -8   0   6  139.69   14.02 
  -8   0  -6  135.75   14.45 
  -8   0   6  124.38   15.90 
  -8   0  -6  118.58   10.82 
   8   0   6  146.50   18.00 
  -9   0   6    1.60    6.63 
  -9   0  -6   -2.93    4.59 
   9   0  -6    4.06    5.41 
  -9   0   6   -5.01    2.80 
  -9   0  -6    2.33    3.67 
   9   0   6   12.11    7.22 
  10   0   6  772.48   38.59 
 -10   0  -6  702.04   33.60 
 -10   0  -6  793.38   28.87 
 -10   0   6  774.95   30.64 
 -10   0   6  745.58   37.37 
  10   0  -6  798.45   35.86 
 -11   0   6   -4.38    3.75 
  11   0   6   -2.24    6.57 
 -11   0  -6    0.44    3.83 
  11   0  -6   -0.56    5.93 
 -11   0   6   -3.56    6.43 
 -11   0  -6   -7.69    5.15 
   0  -1  -6    2.58    2.50 
   0  -1  -6    6.00    2.60 
   0   1   6    2.65    3.00 
   0  -1   6   12.92    3.65 
   0   1   6    7.07    3.51 
   0   1  -6   15.79    3.93 
   0   1   6    3.49    2.73 
   0  -1   6    2.96    2.16 
   0  -1  -6    9.50    3.13 
   0  -1   6   11.75    3.15 
   1   1   6    2.69    2.54 
  -1   1   6    1.64    2.76 
  -1  -1   6    1.45    2.23 
   1   1  -6    2.36    2.35 
   1  -1  -6    1.26    2.84 
  -1   1   6    5.00    3.63 
   1  -1   6    2.27    2.72 
   1  -1   6    3.12    2.71 
  -1  -1   6    4.76    2.91 
   1   1  -6    9.42    3.50 
  -1   1  -6    3.29    2.38 
  -1  -1  -6    2.80    2.68 
   1   1   6    1.18    3.00 
   1   1  -6    2.30    2.88 
   1  -1  -6   -0.63    2.08 
  -1   1   6    1.77    2.29 
  -1   1  -6    3.33    2.62 
  -1  -1  -6    1.61    2.44 
   1  -1   6   -1.64    1.91 
  -1  -1   6    4.69    2.73 
  -1  -1  -6    3.21    2.43 
  -1   1  -6    6.74    1.95 
   1  -1  -6   -0.92    2.41 
   1   1   6   -0.61    2.22 
  -2  -1  -6    0.24    2.14 
  -2  -1  -6    1.65    2.27 
   2  -1  -6    7.98    2.73 
  -2   1  -6    1.08    2.49 
   2   1  -6    0.41    1.73 
  -2   1   6    4.25    2.71 
   2   1  -6    0.27    2.65 
  -2   1   6    1.58    3.07 
  -2   1  -6   -2.91    1.45 
   2   1   6   13.60    3.75 
   2  -1  -6    4.94    2.71 
   2  -1   6   15.90    3.43 
  -2  -1   6   25.13    4.97 
  -2  -1  -6   -2.75    1.86 
   2   1   6    3.83    4.05 
  -2   1  -6    1.79    2.49 
  -3  -1  -6   18.75    3.82 
  -3  -1   6   18.48    5.17 
  -3  -1   6   18.52    4.93 
   3   1  -6   30.48    7.45 
  -3  -1  -6   21.10    3.60 
   3  -1  -6   15.48    4.50 
  -3   1   6   22.11    4.82 
   3   1  -6   14.66    4.56 
   3  -1   6   18.19    6.15 
   3   1   6   26.62    7.28 
  -3   1  -6   18.70    4.05 
   3  -1   6   21.26    4.12 
  -3   1  -6   20.66    4.50 
  -3  -1  -6   15.71    4.08 
  -3   1   6   21.33    5.75 
   3   1   6   17.25    3.52 
  -3   1  -6   26.31    2.94 
   3  -1  -6   23.65    6.79 
   4   1   6    2.74    1.92 
  -4   1  -6   -2.61    2.46 
  -4  -1  -6    1.28    2.44 
   4   1   6   13.19    5.57 
  -4  -1   6    2.71    3.03 
   4  -1   6   -2.69    1.79 
  -4  -1   6    9.58    4.13 
   4  -1   6    6.93    4.59 
   4  -1  -6   -1.20    2.93 
  -4   1   6   -2.98    2.61 
   4   1  -6   18.41    5.20 
   4  -1  -6    7.59    4.20 
  -4  -1  -6   -0.95    2.30 
  -4   1  -6    0.52    2.14 
  -4  -1  -6   -0.85    2.73 
  -4   1  -6    4.40    2.55 
   4   1  -6   -2.22    2.83 
  -4   1   6    6.06    3.02 
  -4   1  -6   15.77    3.77 
   5  -1   6    1.80    2.11 
  -5   1  -6    2.46    2.86 
   5   1  -6    3.00    4.90 
   5   1  -6    2.59    3.10 
  -5  -1  -6    3.34    2.96 
   5  -1  -6    9.64    5.96 
  -5   1   6    4.00    3.98 
  -5   1  -6    0.51    2.15 
  -5  -1   6    0.01    2.69 
  -5   1  -6    3.09    2.54 
  -5  -1  -6    1.00    2.23 
   5  -1   6    3.86    5.15 
  -5   1   6    2.02    2.74 
   5   1   6   -0.55    1.58 
   5   1   6    0.00    4.42 
  -5  -1  -6    0.87    3.07 
  -5  -1   6    2.78    3.85 
   5  -1  -6    0.22    3.17 
  -6  -1   6   19.21    5.31 
  -6   1  -6    0.15    3.59 
  -6   1   6    5.79    3.13 
  -6   1   6    5.06    4.70 
   6  -1  -6   14.43    5.41 
   6  -1  -6    7.44    4.40 
  -6  -1  -6    1.05    2.63 
   6   1  -6    4.01    4.15 
  -6  -1  -6   -2.05    3.65 
  -6   1  -6    2.01    4.10 
   6  -1   6   26.23    6.80 
  -6   1  -6   -0.36    2.47 
  -6  -1  -6   -3.73    2.79 
   6   1   6   21.09    6.70 
  -6  -1   6    9.14    5.10 
   6  -1   6   -4.36    2.16 
  -6  -1   6    9.91    4.14 
   7  -1  -6    4.00    6.68 
   7   1  -6    3.65    4.97 
   7  -1  -6    4.64    4.25 
  -7  -1  -6    2.01    4.58 
  -7  -1  -6    5.52    3.24 
  -7   1  -6    5.98    3.27 
  -7  -1   6    2.27    5.28 
  -7   1  -6    8.33    4.89 
  -7   1   6    7.40    5.18 
  -7   1   6    0.58    3.32 
  -7  -1   6    1.87    3.32 
  -7  -1   6    7.41    4.97 
  -7  -1  -6    0.06    4.14 
   7   1   6    2.17    5.53 
  -7   1  -6    7.93    4.63 
   7  -1   6   -1.70    4.78 
  -8  -1  -6    2.05    4.96 
  -8  -1  -6   -0.39    4.82 
  -8   1  -6    1.52    3.31 
  -8   1   6    2.22    6.03 
  -8  -1  -6    2.33    3.53 
   8  -1   6    0.00    5.06 
   8   1   6    7.79    6.40 
  -8   1   6    5.70    4.95 
   8   1  -6    3.04    4.88 
   8  -1  -6    2.97    4.58 
  -8   1   6    5.42    4.27 
  -8  -1   6   -7.29    4.72 
  -8   1  -6   -5.37    4.53 
  -8  -1   6    1.23    3.79 
  -9  -1   6    2.42    3.32 
  -9   1  -6    5.96    5.46 
   9  -1  -6    7.96    5.41 
  -9  -1   6    5.00    6.87 
   9   1   6    0.85    6.10 
  -9   1  -6    0.96    3.53 
  -9   1   6    4.85    4.20 
   9   1  -6    9.75    5.92 
   9  -1   6    7.12    6.64 
  -9   1   6    9.55    7.81 
  -9  -1  -6    1.64    3.96 
  -9  -1  -6    1.14    4.68 
  10   1   6    2.65    5.85 
  10  -1  -6    0.56    5.53 
  10   1  -6   12.89    6.89 
 -10  -1  -6   -3.69    5.43 
  10  -1   6   16.63    7.83 
 -10  -1   6    4.34    4.57 
 -10   1   6    4.37    4.25 
 -10  -1  -6    0.57    3.93 
 -10  -1   6   -2.19    6.38 
 -10   1   6   17.62    9.02 
 -10   1  -6    3.57    4.39 
 -10   1  -6    0.76    6.04 
 -11   1   6   -1.87    4.16 
 -11   1  -6    2.89    5.77 
 -11  -1   6   -0.35    7.32 
  11   1  -6   -0.78    6.04 
 -11  -1  -6    0.66    6.53 
 -11   1   6   -0.60    7.08 
  11  -1   6    2.32    6.79 
 -11   1  -6    1.53    4.53 
 -11  -1  -6    2.79    3.92 
  11   1   6   -6.65    6.20 
 -11  -1   6   -0.84    4.16 
  11  -1  -6    1.21    5.29 
   0  -2  -6 1655.51   46.00 
   0   2   6 1543.62   47.75 
   0   2  -6 1543.10   46.39 
   0   2  -6 1579.93   46.31 
   0  -2  -6 1622.17   44.89 
   0  -2   6 1651.09   46.64 
   0   2  -6 1623.43   42.37 
   0  -2  -6 1640.24   46.25 
   0   2   6 1596.21   47.24 
   0   2   6 1597.92   45.97 
   0  -2   6 1554.09   45.99 
   0  -2   6 1522.58   45.48 
  -1  -2   6    3.98    2.59 
  -1   2   6   -0.01    2.29 
  -1   2   6    4.72    2.89 
   1   2  -6    3.39    3.05 
   1  -2  -6    3.00    3.04 
  -1   2  -6    4.88    2.91 
  -1  -2  -6    4.65    2.69 
   1  -2  -6    4.88    2.66 
   1   2  -6    0.92    2.26 
  -1   2   6    5.07    3.51 
   1   2   6   -0.84    2.01 
   1   2   6    1.59    3.49 
   1  -2  -6    3.03    2.70 
   1   2  -6    4.06    3.18 
   1   2   6    2.77    2.73 
  -1  -2   6    6.81    3.14 
   1  -2   6    3.36    3.05 
   1  -2   6    2.06    2.80 
   1  -2   6    2.13    2.39 
  -1  -2  -6    2.87    2.17 
  -1   2  -6    1.74    2.09 
  -1  -2  -6    1.61    2.34 
  -1  -2   6    0.59    2.86 
   2   2  -6 1787.59   48.92 
  -2   2  -6 1741.62   51.40 
   2   2  -6 1845.21   52.70 
  -2  -2  -6 1897.12   50.70 
  -2   2   6 1882.77   54.54 
  -2   2  -6 1821.48   50.60 
   2  -2  -6 1793.43   50.37 
  -2  -2   6 1830.77   52.52 
  -2  -2  -6 1845.46   49.60 
   2   2   6 1781.01   57.01 
  -2  -2  -6 1854.85   49.68 
   2   2   6 1915.83   54.34 
  -2  -2   6 1787.78   53.10 
   2   2  -6 1856.75   52.89 
   2  -2   6 1841.23   49.89 
   2  -2  -6 1721.11   53.75 
   2  -2   6 1758.57   54.91 
  -2   2   6 1863.54   48.53 
   2   2   6 1860.63   48.64 
  -2   2   6 1858.48   53.76 
   3   2   6   -1.84    3.81 
   3   2  -6    1.11    2.95 
  -3   2  -6    0.69    2.38 
  -3  -2   6   -1.10    2.29 
  -3  -2  -6   -0.67    2.05 
   3   2  -6    0.51    1.65 
   3  -2   6   -2.26    1.82 
  -3   2   6    0.28    3.11 
   3  -2   6   -2.84    2.72 
  -3   2  -6    0.48    2.12 
  -3  -2  -6   -2.99    1.62 
  -3   2  -6    1.50    1.18 
   3   2   6   -1.01    1.90 
  -3  -2   6    2.69    2.91 
  -3   2  -6   -2.17    2.12 
   3  -2  -6    4.24    3.17 
  -3   2   6    2.32    2.62 
   3  -2  -6    1.79    3.99 
  -3  -2  -6   -0.72    1.95 
  -4   2   6 1300.33   40.76 
   4   2  -6 1340.55   35.32 
   4  -2   6 1308.07   36.78 
   4  -2  -6 1339.50   39.90 
  -4  -2   6 1321.40   41.25 
  -4  -2  -6 1307.88   38.36 
  -4   2  -6 1253.64   37.41 
  -4  -2  -6 1300.60   39.15 
  -4   2  -6 1304.93   35.52 
   4   2  -6 1257.82   41.29 
  -4  -2   6 1304.35   43.80 
  -4   2  -6 1243.95   39.23 
  -4  -2   6 1322.38   41.66 
   4  -2  -6 1235.25   43.95 
   4   2   6 1278.54   33.84 
  -4   2   6 1201.81   42.40 
   4  -2   6 1240.72   45.35 
  -4   2  -6 1392.02   39.95 
  -4  -2  -6 1324.76   38.81 
   4   2   6 1212.44   46.45 
   5   2  -6    0.76    3.35 
   5  -2  -6    1.44    5.00 
  -5  -2  -6   -0.16    2.75 
  -5   2   6    2.76    2.76 
  -5  -2   6    5.13    3.78 
  -5  -2  -6    0.94    3.16 
   5  -2   6    3.46    2.63 
  -5   2   6   -0.14    3.42 
  -5  -2  -6    1.89    2.42 
  -5   2  -6    1.55    2.59 
  -5   2  -6   -0.29    2.92 
   5  -2  -6   -1.50    2.56 
  -5   2  -6    1.96    2.38 
  -5  -2   6    1.95    4.17 
  -5  -2   6    2.94    3.26 
   5   2   6    6.70    5.80 
   5  -2   6    2.51    5.23 
  -6   2  -6 1154.40   39.42 
  -6  -2  -6 1215.22   39.58 
   6  -2   6 1227.02   34.40 
  -6   2  -6 1160.48   35.29 
   6  -2  -6 1221.53   40.21 
  -6  -2  -6 1230.47   37.25 
  -6  -2  -6 1203.35   39.96 
  -6   2   6 1186.83   42.08 
   6  -2   6 1146.76   45.37 
  -6  -2   6 1170.30   39.64 
  -6   2   6 1151.24   37.87 
   6   2  -6 1167.65   41.56 
   6  -2  -6 1133.20   44.65 
  -6  -2   6 1197.58   43.96 
  -6  -2   6 1184.40   39.73 
   6   2   6 1181.62   47.75 
  -6   2  -6 1232.58   36.98 
   7  -2  -6    4.18    4.68 
  -7   2   6   -0.84    2.84 
  -7  -2  -6    1.21    4.43 
   7  -2   6    4.29    5.60 
  -7  -2   6    0.71    3.03 
   7   2   6   -2.21    4.95 
  -7  -2   6   -0.44    4.82 
  -7  -2   6    4.42    4.60 
  -7   2   6    1.33    4.73 
  -7  -2  -6    1.45    4.54 
   7   2  -6    1.65    4.26 
  -7   2  -6    2.68    4.58 
  -7  -2  -6    0.60    3.10 
   7  -2  -6   -1.31    5.49 
  -7   2  -6    3.25    3.05 
  -8   2   6  771.64   31.35 
  -8  -2  -6  701.62   29.73 
  -8   2  -6  664.44   29.74 
  -8  -2  -6  728.25   26.71 
   8  -2  -6  734.88   30.96 
  -8  -2  -6  733.89   31.56 
  -8  -2   6  702.41   32.99 
   8  -2   6  665.14   33.84 
  -8  -2   6  713.26   28.58 
   8   2   6  748.63   36.47 
  -8   2  -6  677.37   24.43 
  -8   2   6  711.19   27.87 
   8  -2  -6  653.56   34.00 
   8   2  -6  675.25   31.88 
   9  -2  -6    1.78    4.80 
  -9   2  -6    4.34    5.59 
   9  -2   6   -3.38    5.51 
  -9   2   6   -1.69    6.83 
  -9  -2  -6    0.61    5.13 
  -9   2  -6    3.63    3.61 
  -9  -2  -6   -1.33    4.83 
   9   2   6    0.56    6.15 
  -9  -2  -6    1.27    3.05 
  -9   2   6   -1.10    3.79 
   9   2  -6   -0.59    4.64 
  -9  -2   6    4.84    4.42 
  -9  -2   6    2.98    5.57 
 -10   2   6  518.05   30.54 
 -10  -2  -6  533.25   27.58 
 -10   2  -6  552.82   28.00 
 -10  -2  -6  525.26   23.10 
  10  -2  -6  521.39   27.08 
 -10   2   6  547.71   23.77 
 -10   2  -6  530.18   21.37 
 -10  -2   6  499.16   29.54 
  10   2  -6  477.79   28.14 
 -10  -2   6  517.27   24.04 
  10  -2   6  470.59   29.01 
  10   2   6  507.56   29.90 
  11  -2  -6    1.93    5.61 
 -11   2   6   -6.25    3.37 
  11  -2   6   -2.91    5.45 
 -11  -2  -6   -8.96    4.68 
  11   2  -6   -3.34    4.77 
 -11  -2   6   12.60    8.73 
 -11   2  -6   -1.22    5.83 
 -11   2  -6   -6.39    3.59 
  11   2   6   -5.95    6.38 
 -11   2   6   -3.81    6.45 
 -11  -2   6   -3.37    4.40 
 -11  -2  -6    5.45    4.37 
   0  -3  -6   23.61    4.97 
   0   3  -6   14.41    3.58 
   0  -3   6   14.02    3.88 
   0  -3   6   25.21    4.54 
   0   3   6    3.45    3.07 
   0   3   6    9.97    4.32 
   0  -3  -6   11.18    3.56 
   0   3   6    9.37    4.35 
  -1   3   6   70.05    7.05 
   1  -3  -6   71.76    8.07 
   1  -3   6   61.15    7.96 
  -1   3   6   62.32    8.04 
  -1   3  -6   62.33    7.50 
  -1  -3  -6   72.49    6.60 
  -1   3   6   54.58    8.08 
  -1   3  -6   56.13    7.24 
   1   3   6   58.01    7.99 
   1   3   6   69.61    9.17 
  -1  -3   6   55.28    5.53 
  -1  -3  -6   52.21    6.23 
   1  -3  -6   54.17    6.60 
   1  -3   6   53.12    7.03 
   1   3  -6   67.25    6.79 
  -1  -3   6   62.06    7.47 
   1   3  -6   64.58    7.92 
   1   3   6   49.64    6.41 
   1  -3  -6   64.41    6.86 
  -1  -3   6   56.34    7.49 
  -1  -3  -6   65.46    6.58 
  -2  -3   6    1.70    2.38 
   2   3   6   -0.28    4.01 
   2   3   6   -1.84    2.39 
  -2   3  -6   -3.00    1.65 
   2   3  -6   14.35    4.07 
  -2   3   6   -5.04    2.40 
  -2  -3  -6   -3.29    1.67 
   2  -3  -6    7.45    2.85 
  -2  -3  -6    1.74    2.88 
  -2   3   6   -1.39    2.86 
   2  -3   6   -1.26    2.51 
  -2   3   6    0.47    2.96 
  -2  -3  -6   -1.16    1.86 
   2   3  -6    0.86    2.16 
  -3  -3  -6   86.57    7.07 
   3   3  -6  110.35   10.34 
  -3  -3   6   96.70    8.56 
   3   3   6   96.05    5.96 
  -3   3  -6   90.58    7.28 
   3  -3  -6   98.39    7.55 
   3   3   6  116.60    9.95 
  -3  -3  -6   98.17    7.11 
   3   3  -6   87.53    5.84 
  -3   3   6   95.56   11.24 
  -3  -3  -6  103.77    7.31 
  -3  -3   6  101.58    8.67 
  -3   3  -6   98.08    7.63 
   3  -3   6  109.74   11.57 
  -3   3   6   97.47    8.33 
   3  -3  -6  119.45   11.44 
  -3   3  -6  100.62    7.30 
  -3  -3   6   95.99    9.72 
  -3   3   6   96.50    5.53 
   3  -3   6   89.89    7.11 
   3   3   6  138.88   14.18 
  -4  -3  -6    5.57    3.16 
   4  -3  -6   19.64    5.89 
  -4  -3   6   21.45    5.03 
   4  -3   6   25.49    6.32 
  -4   3   6    6.69    5.09 
   4  -3   6    7.03    3.19 
  -4  -3   6   17.61    5.63 
   4   3  -6   -0.25    3.60 
  -4   3  -6    7.86    2.80 
  -4   3   6    7.03    3.29 
  -4  -3   6    9.01    3.95 
  -4  -3  -6    5.73    3.72 
   4   3  -6   13.29    3.27 
  -4  -3  -6    3.57    3.35 
  -4   3  -6    6.73    2.30 
   4   3   6   18.66    6.70 
   4  -3  -6    4.88    3.33 
  -4   3  -6    5.21    3.23 
  -4   3  -6    4.07    2.94 
   5   3   6   15.93    7.58 
  -5  -3   6   20.40    7.26 
  -5  -3   6   10.99    4.88 
  -5  -3   6    9.37    3.95 
   5  -3  -6   15.48    5.11 
   5   3  -6   27.66    6.93 
   5  -3  -6   20.39    7.92 
  -5  -3  -6   13.90    4.84 
  -5  -3  -6   19.40    5.64 
   5  -3   6    9.74    3.57 
  -5   3  -6   21.08    5.29 
  -5  -3  -6   14.22    4.16 
  -5   3  -6   21.67    4.42 
   5  -3   6   19.36    7.07 
  -5   3   6   23.26    6.65 
  -5   3   6   10.60    4.51 
  -6  -3   6   19.23    4.95 
   6  -3   6    1.35    3.17 
  -6  -3  -6   -0.77    3.92 
  -6  -3  -6    1.71    4.17 
   6  -3   6   24.12    6.98 
  -6  -3  -6   -4.50    2.26 
   6  -3  -6   -0.17    3.57 
  -6   3   6    7.31    5.46 
  -6   3  -6    1.76    4.00 
   6   3   6   13.20    6.20 
   6   3  -6   -1.79    3.56 
  -6  -3   6    2.87    4.41 
  -6  -3   6    2.63    3.14 
  -6   3  -6    0.21    2.53 
  -6   3   6    9.15    3.54 
   6  -3  -6   23.32    6.90 
  -7  -3  -6   39.92    8.63 
   7   3  -6   46.19    9.44 
   7  -3  -6   31.18    7.69 
  -7   3   6   44.00    9.10 
  -7  -3  -6   31.78    6.30 
   7  -3   6   39.10   10.29 
  -7  -3   6   35.51    7.19 
  -7   3   6   47.61    7.28 
  -7  -3   6   45.41   10.25 
   7  -3  -6   54.13   12.68 
  -7   3  -6   39.34    8.68 
   7   3   6   61.38   13.16 
  -7  -3  -6   32.74    8.13 
  -7   3  -6   42.13    5.87 
   7  -3   6   40.22    6.18 
  -7  -3   6   45.66    8.12 
  -8  -3   6    2.78    5.86 
   8  -3  -6    0.32    4.49 
  -8   3  -6    4.09    5.36 
  -8  -3   6   -0.79    3.69 
  -8   3  -6    0.24    3.20 
  -8   3   6    6.04    5.93 
  -8   3   6    5.17    4.15 
  -8  -3  -6    4.86    5.16 
   8  -3  -6    5.40    5.56 
   8  -3   6   16.07    7.25 
   8   3   6   13.85    7.49 
  -8  -3  -6    1.35    3.45 
   8   3  -6    0.81    5.46 
  -8  -3  -6    5.70    5.37 
   9  -3   6   31.30    9.47 
  -9  -3   6    3.35    4.42 
  -9   3  -6   18.09    5.09 
   9  -3  -6   12.32    8.32 
  -9   3  -6   19.91    7.81 
   9   3  -6   11.39    6.27 
  -9  -3  -6    9.64    4.78 
  -9   3   6   11.24    6.10 
  -9  -3  -6    8.02    6.98 
  -9  -3  -6   14.24    7.03 
  -9   3   6   11.29    4.64 
   9  -3  -6    6.84    5.72 
   9   3   6   21.06    8.76 
  -9  -3   6   12.40    8.24 
 -10  -3  -6   -3.72    5.60 
 -10  -3  -6    1.67    6.39 
 -10  -3  -6   -1.37    4.05 
 -10  -3   6   11.15    7.93 
  10  -3   6    7.85    7.36 
  10   3   6    7.62    7.20 
 -10   3   6   -5.30    6.64 
 -10   3   6    4.40    4.60 
 -10  -3   6    3.33    4.52 
  10  -3  -6   -3.92    4.15 
 -10   3  -6    0.20    5.79 
  10   3  -6    3.76    5.53 
 -10   3  -6   -0.43    3.71 
  11   3  -6   19.21    8.41 
 -11  -3  -6    3.44    6.20 
 -11  -3   6   -2.89    7.01 
  11  -3   6   18.03    8.46 
 -11   3  -6    5.74    4.30 
  11  -3  -6    4.86    5.92 
 -11   3   6    5.29    4.65 
  11   3   6   15.10    8.48 
 -11  -3   6    1.63    4.99 
 -11   3   6   16.07   10.28 
 -11  -3  -6    2.51    3.96 
 -11   3  -6    5.11    7.41 
   0  -4   6  829.51   22.29 
   0   4  -6  755.57   27.20 
   0  -4  -6  788.48   25.02 
   0  -4   6  765.86   26.61 
   0  -4   6  734.28   26.55 
   0   4   6  772.01   28.26 
   0   4   6  803.63   27.88 
   0  -4  -6  751.45   27.38 
   0   4   6  806.47   29.86 
   0  -4  -6  782.77   26.40 
   1  -4  -6   -0.80    2.76 
   1   4  -6    4.14    3.03 
   1  -4  -6    1.48    2.18 
   1  -4   6   -0.39    2.29 
  -1  -4  -6    2.41    2.35 
   1  -4  -6    1.78    2.64 
  -1  -4   6    1.91    2.69 
   1   4   6    8.32    4.93 
  -1   4  -6    4.98    2.83 
  -1   4   6    2.43    3.29 
  -1   4   6   -1.03    2.50 
  -1  -4   6   -2.38    1.88 
  -1  -4  -6    1.84    2.57 
   1  -4   6    3.96    3.61 
  -1  -4  -6    0.29    1.82 
   1   4  -6    1.81    2.56 
  -1   4  -6    7.91    3.70 
   1   4   6   -1.95    2.56 
  -1  -4   6   -0.84    2.68 
   1   4   6    3.13    3.20 
  -1   4   6    8.18    4.08 
   2  -4   6 3105.31   89.25 
  -2  -4   6 3313.67   85.42 
  -2  -4  -6 3179.86   84.49 
  -2   4   6 3138.35   84.24 
  -2  -4   6 3105.00   83.07 
  -2  -4   6 3146.46   85.44 
  -2   4  -6 3153.93   83.02 
  -2   4  -6 3219.56   84.12 
   2  -4   6 3254.51   82.24 
   2   4  -6 3120.46   84.82 
   2   4   6 3143.55   91.09 
   2   4   6 3219.87   80.29 
   2   4  -6 3119.87   84.29 
  -2   4   6 3196.86   85.96 
  -2  -4  -6 3276.95   80.49 
  -2   4   6 3038.65   86.16 
   2  -4  -6 3154.97   80.33 
  -2  -4  -6 3207.65   82.98 
   2  -4  -6 3209.07   88.04 
   3  -4   6    7.83    4.56 
  -3  -4   6    1.26    2.60 
  -3   4   6   -1.35    3.39 
   3  -4  -6   -0.98    2.19 
  -3  -4   6    5.15    4.20 
  -3  -4  -6    3.40    2.50 
  -3  -4  -6    4.33    3.19 
  -3   4   6    5.31    3.04 
   3  -4   6   -0.32    2.34 
   3   4   6   -1.57    4.07 
   3   4   6    1.29    3.65 
   3   4  -6    2.82    3.42 
   3   4   6   -0.31    1.84 
  -3  -4  -6   -0.87    1.99 
  -3   4  -6    2.73    2.31 
  -3   4   6   -5.13    2.39 
  -3   4  -6    0.19    2.49 
  -3   4  -6   -0.49    2.31 
   3   4  -6    2.72    2.49 
   3  -4  -6    4.28    4.46 
  -3  -4   6    1.16    3.65 
   4   4  -6  482.29   21.44 
  -4  -4   6  467.90   22.26 
  -4   4  -6  497.34   19.94 
   4   4  -6  469.15   17.35 
  -4   4  -6  471.81   18.54 
  -4   4   6  476.33   23.00 
  -4  -4   6  452.87   20.89 
  -4  -4  -6  493.85   19.23 
   4  -4  -6  489.37   19.04 
   4  -4   6  457.90   23.08 
  -4   4   6  480.38   20.20 
   4   4   6  448.92   24.59 
  -4  -4  -6  480.87   19.73 
  -4  -4   6  459.49   20.46 
   4  -4   6  480.65   18.69 
   4  -4  -6  438.35   22.42 
   4   4   6  461.68   14.46 
  -4  -4  -6  467.04   18.94 
   5  -4  -6   -0.68    4.54 
  -5   4   6   -1.77    4.50 
  -5  -4   6   -0.65    3.18 
  -5   4   6    0.67    2.65 
  -5   4  -6    1.47    3.27 
  -5   4  -6    0.59    2.58 
  -5  -4  -6    1.15    3.34 
   5   4   6    5.41    5.63 
  -5  -4  -6   -2.44    2.83 
  -5  -4   6    2.94    3.62 
   5   4  -6    2.94    3.49 
   5   4  -6   -1.35    2.86 
   5  -4  -6    2.10    3.37 
  -5  -4   6   -1.00    4.43 
  -5  -4  -6    2.85    2.79 
   5  -4   6   -2.44    2.62 
   5  -4   6    1.42    4.29 
  -6   4   6 1427.41   46.27 
   6  -4  -6 1562.95   48.16 
  -6  -4   6 1511.98   48.78 
  -6  -4  -6 1546.94   46.92 
   6   4  -6 1577.17   50.91 
  -6   4   6 1559.89   51.19 
   6  -4  -6 1529.46   54.29 
  -6  -4   6 1494.93   47.19 
   6  -4   6 1479.42   55.05 
  -6   4  -6 1506.00   48.01 
  -6  -4   6 1507.12   52.91 
   6   4   6 1464.51   56.35 
  -6  -4  -6 1548.18   48.25 
  -6   4  -6 1567.48   43.78 
   6  -4   6 1492.83   43.57 
  -6  -4  -6 1515.64   49.52 
  -7  -4   6   -2.62    5.49 
   7  -4   6    7.16    5.45 
  -7   4   6    5.20    3.52 
   7  -4  -6    8.99    4.57 
  -7  -4   6   -3.25    2.60 
   7  -4  -6    0.66    5.35 
  -7   4  -6   -0.15    4.50 
   7   4  -6    2.16    4.46 
  -7  -4  -6   -0.25    2.94 
   7  -4   6   -1.91    2.95 
  -7  -4  -6   -7.45    3.72 
   7   4   6    3.65    5.99 
  -7  -4  -6    2.26    4.59 
  -7   4   6    3.67    5.35 
  -7   4  -6   -1.01    2.63 
  -8  -4  -6  230.03   16.01 
   8   4   6  216.33   19.41 
  -8   4   6  269.13   18.08 
  -8  -4   6  242.62   18.53 
   8  -4  -6  217.07   18.75 
  -8   4   6  258.45   14.37 
   8  -4  -6  251.10   16.76 
   8  -4   6  221.95   18.79 
  -8   4  -6  214.23   11.88 
  -8  -4  -6  221.15   14.32 
  -8   4  -6  233.39   16.38 
   8   4  -6  220.61   17.38 
  -8  -4   6  265.09   16.02 
  -9   4  -6   -0.16    5.39 
  -9  -4  -6   -3.17    4.91 
   9  -4   6    6.11    5.76 
  -9  -4   6   -5.25    3.17 
  -9   4   6   -5.32    3.19 
  -9   4   6    3.65    5.96 
  -9   4  -6   -0.87    3.31 
  -9  -4   6    5.59    6.20 
   9  -4  -6   -7.34    5.34 
   9   4  -6    2.78    5.18 
   9   4   6    3.87    6.72 
  -9  -4  -6   -1.66    3.53 
   9  -4  -6   -3.96    3.55 
 -10   4  -6  598.47   30.03 
  10   4   6  618.48   34.13 
  10   4  -6  577.47   31.55 
 -10  -4   6  572.20   32.64 
 -10  -4  -6  596.54   25.74 
 -10  -4  -6  561.03   29.25 
  10  -4  -6  642.22   29.79 
 -10   4  -6  581.42   22.38 
  10  -4   6  589.53   32.64 
 -10   4   6  575.31   24.83 
 -10  -4   6  613.73   27.02 
 -10  -4  -6  571.51   28.92 
  11  -4  -6    8.38    6.05 
 -11  -4   6   -7.64    7.31 
 -11  -4  -6    1.31    4.47 
 -11   4  -6   -2.92    3.68 
 -11  -4  -6   -9.54    4.90 
 -11  -4   6    0.62    5.26 
 -11   4   6   -5.13    6.68 
 -11   4  -6   -3.63    5.63 
  11  -4   6   10.98    7.38 
  11   4   6    0.57    7.16 
  11   4  -6   -3.53    5.71 
 -11   4   6   -2.16    3.68 
   0   5   6   -2.61    2.95 
   0  -5   6    2.73    2.66 
   0  -5  -6    2.07    2.51 
   0  -5  -6    7.70    3.70 
   0   5   6    3.98    4.42 
   0   5  -6    9.29    4.17 
   0  -5   6    7.70    3.65 
   0  -5  -6   20.17    3.73 
   0   5  -6   25.39    4.88 
   0   5   6    6.52    3.87 
  -1   5  -6    2.21    3.34 
  -1  -5  -6    0.99    2.34 
   1   5  -6    3.89    3.40 
   1  -5   6    1.85    3.01 
  -1  -5   6    0.39    2.67 
  -1  -5   6    1.23    2.59 
   1   5   6    8.03    3.82 
  -1   5   6    4.33    3.48 
  -1  -5  -6    1.44    2.03 
   1   5  -6    1.66    3.14 
   1   5   6    0.46    3.83 
   1  -5  -6    5.11    2.81 
   1  -5  -6    4.96    3.98 
  -1  -5  -6    2.63    3.47 
  -1   5  -6    3.15    2.72 
   1  -5  -6    1.70    2.32 
  -1   5   6   -0.26    2.97 
  -1   5   6    5.52    3.57 
  -1  -5   6    6.40    3.08 
   1  -5   6    1.97    4.24 
   1   5   6    0.28    2.93 
  -2  -5  -6    0.50    2.47 
  -2   5  -6   22.88    4.83 
   2   5  -6    6.05    3.41 
   2   5  -6   18.74    4.86 
  -2   5   6   -0.43    3.29 
  -2  -5   6   17.64    4.36 
   2  -5   6    5.46    3.66 
   2  -5  -6   24.57    5.89 
  -2  -5  -6    7.32    3.86 
  -2   5   6   -0.55    2.74 
  -2  -5   6    5.44    3.71 
   2   5   6    4.44    3.78 
   2   5   6    6.76    3.53 
   2  -5  -6    6.15    2.84 
   2   5   6   -2.16    3.85 
   2  -5   6   26.24    5.70 
  -2   5   6   -0.85    3.31 
  -2  -5  -6    7.29    2.85 
  -3  -5  -6    3.29    3.38 
  -3   5  -6   -0.37    2.44 
   3  -5   6   -0.76    3.71 
   3   5  -6   -3.19    2.55 
  -3   5  -6    2.39    3.00 
   3  -5  -6    0.59    2.26 
   3  -5   6    0.04    2.71 
  -3   5   6    4.19    4.07 
  -3  -5  -6    0.00    2.03 
  -3  -5   6    1.85    3.27 
  -3   5   6    0.66    2.68 
   3   5  -6    1.80    3.05 
   3   5   6    4.24    3.61 
  -3  -5   6   -2.68    3.36 
  -3   5   6    3.50    3.04 
  -3  -5   6   -0.20    2.63 
  -3  -5  -6    2.88    2.40 
   3   5   6    5.51    4.86 
   3   5   6    2.27    2.43 
   3  -5  -6   -2.72    3.32 
   4   5  -6    3.10    4.05 
  -4   5  -6    2.95    3.34 
  -4  -5  -6    0.21    2.83 
   4  -5  -6    9.69    4.82 
   4  -5   6   18.55    6.07 
  -4   5  -6   12.70    3.52 
  -4  -5   6    7.33    3.34 
  -4   5   6    3.22    3.16 
  -4  -5   6    2.93    3.51 
   4  -5   6   -0.34    2.83 
   4   5  -6    9.77    3.84 
   4   5   6   -1.42    4.43 
   4  -5  -6    1.10    2.81 
  -4  -5  -6    2.77    2.65 
  -4  -5  -6   -1.30    3.00 
  -4  -5   6   17.60    5.54 
  -4   5   6    1.14    3.92 
  -5   5   6    1.17    3.28 
   5   5  -6   10.52    5.27 
   5   5  -6   11.26    4.19 
   5  -5  -6   11.01    6.47 
  -5  -5   6    9.70    4.29 
  -5  -5  -6    6.39    3.82 
  -5  -5   6    8.16    4.23 
  -5  -5   6    3.39    4.72 
   5  -5  -6    2.48    3.76 
  -5   5   6   14.41    5.87 
   5  -5   6    1.42    4.72 
  -5   5  -6    2.53    3.66 
   5   5   6    3.48    5.07 
   5  -5   6    5.69    3.86 
  -5  -5  -6    3.40    3.37 
  -5  -5  -6    2.16    3.95 
  -5   5  -6    5.49    3.17 
   6  -5   6   23.68    7.10 
   6   5  -6   -1.03    3.88 
  -6   5   6    9.24    6.36 
  -6  -5   6   15.45    4.89 
  -6  -5  -6    4.59    4.67 
  -6  -5  -6    8.49    5.36 
  -6   5  -6    7.16    3.38 
   6  -5  -6    3.18    4.10 
  -6  -5  -6    5.55    3.81 
  -6  -5   6    3.25    3.50 
   6  -5   6    3.01    3.84 
  -6   5  -6   -0.32    3.94 
  -6   5   6    8.81    3.80 
   6   5   6   20.09    7.56 
   6  -5  -6   11.36    5.60 
  -6  -5   6   12.60    6.04 
  -7  -5  -6   -3.27    4.10 
  -7   5   6   -1.39    3.17 
   7  -5   6    2.34    3.39 
  -7  -5   6    6.84    6.17 
   7   5   6    1.66    6.39 
   7   5  -6    2.33    4.96 
   7  -5  -6    3.84    5.55 
  -7   5  -6   -0.35    2.97 
  -7   5   6    2.09    5.55 
  -7  -5   6   -1.91    2.99 
   7  -5   6   -1.88    4.96 
  -7   5  -6    4.93    4.77 
  -7  -5  -6    4.11    4.63 
   7  -5  -6    1.31    3.60 
  -7  -5  -6   -0.28    2.97 
   8   5  -6    9.19    5.94 
  -8   5  -6    5.08    3.58 
   8   5   6    6.89    6.85 
  -8   5   6    3.43    5.89 
  -8  -5  -6   -1.73    3.31 
  -8   5  -6    9.96    5.87 
  -8  -5  -6    6.37    5.98 
   8  -5  -6    1.11    5.74 
  -8  -5   6    8.54    4.79 
   8  -5  -6    5.10    5.12 
  -8  -5   6   -0.94    5.54 
  -8   5   6   -0.68    3.24 
   8  -5   6    4.97    6.30 
  -9  -5   6   -1.82    3.21 
  -9   5   6    1.65    6.45 
   9  -5  -6   -8.25    4.03 
  -9  -5  -6   -3.68    4.78 
  -9   5  -6    0.51    3.24 
   9   5  -6    2.83    6.26 
  -9  -5  -6    0.03    3.32 
  -9  -5   6   -5.23    5.70 
  -9   5   6   -0.18    3.37 
   9   5   6   -8.17    5.81 
   9  -5  -6    4.23    6.74 
   9  -5   6   -4.39    5.32 
  -9   5  -6    4.24    6.64 
 -10   5   6    8.00    4.90 
  10  -5  -6   -3.02    6.55 
 -10   5  -6    9.26    7.29 
  10   5  -6    6.89    6.90 
 -10  -5  -6   11.96    7.29 
 -10  -5  -6    3.47    4.88 
  10   5   6   11.87    7.82 
 -10  -5   6    7.42    5.09 
 -10  -5  -6    2.74    6.65 
  10  -5  -6   11.48    6.01 
  10  -5   6    5.27    6.86 
 -10  -5   6    7.61    8.26 
 -10   5  -6    2.29    3.79 
 -11  -5   6    8.01    5.27 
 -11   5   6   11.32   10.28 
 -11   5  -6    7.14    4.11 
 -11  -5  -6    1.90    6.08 
 -11   5   6    6.94    4.73 
 -11  -5  -6    8.49    5.64 
 -11  -5   6    6.58    7.94 
  11   5  -6    5.29    6.61 
  11   5   6   -0.09    7.70 
 -11   5  -6    2.57    6.90 
  11  -5  -6   14.67    6.83 
  11  -5   6   10.40    7.95 
 -11  -5  -6   12.05    6.35 
   0   6   6 1429.46   46.43 
   0   6  -6 1389.94   42.83 
   0  -6  -6 1314.80   44.24 
   0  -6  -6 1457.65   39.18 
   0   6  -6 1401.27   44.79 
   0  -6   6 1461.48   41.92 
   0  -6   6 1382.64   37.95 
   0  -6  -6 1357.90   41.62 
   0  -6   6 1372.88   42.71 
   0   6   6 1374.48   45.39 
   0   6   6 1369.18   43.62 
  -1  -6   6    1.34    2.53 
  -1   6  -6   11.10    4.09 
  -1   6  -6   10.05    4.67 
   1   6  -6    8.32    4.09 
  -1   6   6    2.06    3.08 
  -1   6   6   -3.53    2.67 
   1   6   6    5.65    4.61 
  -1   6   6    5.90    4.53 
   1   6  -6    3.61    3.19 
   1  -6  -6    9.10    2.76 
   1   6   6    2.65    3.35 
  -1  -6   6    1.40    2.83 
  -1  -6   6    1.36    2.37 
  -1  -6  -6    1.24    3.34 
  -1  -6  -6    1.73    2.31 
  -1  -6  -6    2.06    2.29 
   1  -6   6    7.46    3.79 
   1   6   6    6.90    3.84 
   1  -6   6    8.41    2.75 
   1  -6  -6    6.02    4.25 
  -2   6   6  683.18   25.13 
   2   6   6  673.68   29.23 
  -2  -6  -6  645.07   25.51 
   2  -6   6  654.77   24.89 
  -2  -6   6  686.71   24.95 
   2   6   6  695.20   28.94 
   2   6  -6  649.48   25.83 
  -2   6   6  654.88   27.58 
   2  -6   6  661.12   28.14 
   2  -6  -6  701.15   28.04 
  -2  -6  -6  693.64   22.45 
  -2   6   6  701.22   26.79 
  -2  -6   6  645.00   26.11 
   2   6   6  701.18   24.02 
  -2   6  -6  723.71   25.38 
  -2  -6  -6  690.92   25.01 
  -2   6  -6  672.65   25.14 
   2  -6  -6  697.97   21.58 
   2   6  -6  651.76   25.67 
  -2  -6   6  682.46   25.74 
   3   6  -6    4.86    3.78 
   3  -6  -6    2.21    2.52 
   3   6   6   -2.13    2.74 
  -3  -6   6    7.00    4.28 
   3  -6   6    9.04    4.93 
  -3   6  -6    0.52    2.82 
  -3   6   6    1.70    2.86 
  -3  -6  -6   -2.50    2.17 
   3   6   6    1.45    2.63 
  -3  -6  -6   -0.46    2.31 
   3   6  -6    5.59    3.72 
  -3   6  -6    1.36    2.64 
  -3  -6  -6    0.27    3.38 
   3  -6   6    0.13    2.43 
   3   6   6    2.05    4.65 
   3  -6  -6    6.87    4.71 
  -3  -6   6   -0.59    2.26 
  -3   6   6   -0.33    3.73 
  -3  -6   6    9.97    4.06 
  -3   6   6    3.09    3.34 
  -4   6  -6 1149.39   36.86 
  -4   6   6 1108.03   36.90 
   4  -6   6 1160.08   42.88 
  -4  -6  -6 1153.47   35.57 
  -4  -6   6 1071.30   39.53 
   4  -6  -6 1138.56   42.09 
   4   6  -6 1100.29   36.61 
   4   6  -6 1113.92   38.48 
  -4  -6  -6 1141.71   37.16 
  -4  -6   6 1159.58   37.61 
  -4   6   6 1149.67   40.94 
   4  -6  -6 1231.64   35.32 
  -4   6  -6 1126.33   35.82 
   4  -6   6 1070.79   36.09 
   4   6   6 1101.02   43.39 
  -4  -6  -6 1167.63   39.14 
  -4  -6   6 1140.23   39.33 
  -5  -6  -6    0.90    3.34 
  -5  -6   6    2.25    3.60 
  -5   6   6   -1.55    4.45 
  -5  -6  -6    6.01    4.42 
   5   6   6   -4.42    4.28 
  -5   6  -6    5.11    3.42 
   5   6  -6   -1.19    3.74 
   5  -6  -6   -1.40    3.66 
  -5   6   6   -0.02    3.08 
  -5   6  -6    0.11    3.05 
   5  -6   6    0.78    4.50 
  -5  -6   6    6.12    3.97 
   5  -6   6   -0.66    2.94 
  -5  -6   6    1.17    4.81 
   5   6  -6    2.90    3.72 
   5  -6  -6   -0.40    3.40 
  -5  -6  -6   -0.56    2.96 
  -6  -6   6  548.25   25.05 
   6   6  -6  528.78   25.07 
  -6  -6   6  493.82   26.31 
  -6  -6  -6  527.67   23.16 
  -6  -6  -6  527.02   24.74 
   6   6   6  443.67   26.99 
   6  -6   6  578.51   22.30 
   6  -6   6  538.43   27.40 
  -6   6   6  482.71   21.56 
   6  -6  -6  470.56   26.19 
  -6   6   6  499.71   25.34 
  -6  -6  -6  498.46   22.82 
  -6   6  -6  533.44   23.37 
  -6  -6   6  546.46   22.93 
  -6   6  -6  515.08   20.10 
   6  -6  -6  540.37   22.64 
  -7  -6  -6   -6.33    3.71 
  -7   6  -6    2.59    4.59 
  -7  -6  -6    1.53    4.55 
   7  -6   6    5.50    5.58 
  -7  -6   6   -2.83    4.62 
  -7  -6   6    1.49    4.24 
   7   6  -6   -0.52    4.53 
  -7   6   6    3.99    5.66 
  -7  -6  -6    9.40    4.14 
   7  -6  -6   -1.90    4.71 
   7  -6   6    6.59    4.17 
  -7   6   6    0.88    3.29 
   7  -6  -6    2.93    4.34 
   7   6   6   -5.40    5.39 
  -7   6  -6    3.10    3.36 
   8  -6  -6  731.97   29.20 
  -8   6  -6  654.59   23.75 
   8  -6   6  715.67   27.13 
  -8  -6  -6  651.28   28.18 
  -8  -6   6  637.65   32.73 
  -8   6  -6  659.48   29.61 
  -8   6   6  627.28   30.39 
   8   6  -6  667.95   31.82 
  -8  -6  -6  638.84   30.23 
  -8   6   6  657.97   26.40 
   8  -6  -6  608.64   33.10 
  -8  -6   6  666.50   29.26 
  -8  -6  -6  639.27   29.76 
   8  -6   6  673.62   33.38 
   8   6   6  601.10   33.50 
   9   6   6    2.00    6.46 
  -9  -6   6    1.53    6.24 
  -9   6   6   -2.62    5.59 
   9   6  -6    7.56    6.61 
  -9  -6   6   -2.32    4.07 
  -9   6   6   -4.77    3.17 
  -9   6  -6    1.41    6.16 
   9  -6  -6    1.48    6.82 
  -9   6  -6   -2.27    3.46 
   9  -6   6   11.58    6.96 
  -9  -6  -6    2.39    4.07 
  -9  -6  -6   -6.16    4.94 
  -9  -6  -6   -2.61    5.69 
 -10   6  -6  276.46   20.22 
 -10  -6  -6  255.32   18.98 
  10  -6   6  239.76   20.67 
 -10  -6  -6  259.84   19.24 
 -10  -6   6  272.82   18.07 
 -10  -6  -6  263.99   16.92 
  10  -6  -6  280.44   26.66 
  10   6   6  265.58   22.64 
  10   6  -6  279.26   21.10 
 -10  -6   6  320.73   23.74 
 -10   6  -6  282.86   13.85 
 -10   6   6  264.84   15.70 
   0   7   6    8.35    5.55 
   0   7   6   -4.34    2.90 
   0   7   6    5.71    4.33 
   0   7  -6   29.14    6.23 
   0  -7   6    9.29    3.93 
   0   7  -6   26.61    5.23 
   0  -7  -6   24.54    6.22 
   0  -7  -6   13.20    3.78 
  -1  -7   6    0.88    2.90 
   1   7   6    1.52    3.11 
   1  -7  -6   12.22    3.09 
   1  -7   6    9.75    3.64 
  -1  -7  -6    5.56    4.49 
  -1   7  -6    4.20    4.78 
  -1  -7   6    6.49    3.43 
   1   7   6   19.57    6.41 
   1  -7   6   -0.98    3.11 
   1   7   6    6.39    5.20 
   1   7  -6    8.25    4.23 
   1   7  -6    8.50    4.06 
  -1  -7   6    6.12    3.58 
   1  -7  -6    5.60    4.73 
  -1   7   6    6.42    4.46 
  -1  -7  -6    7.38    2.82 
  -1   7   6    3.31    3.89 
  -1   7   6   -1.84    2.51 
  -1  -7  -6    4.07    2.99 
  -1   7  -6   10.74    4.50 
   2  -7   6    4.59    3.96 
   2  -7  -6   12.60    4.98 
   2   7  -6   11.17    4.09 
  -2  -7   6    5.79    3.79 
  -2   7  -6   24.55    5.28 
   2   7   6    1.70    4.46 
   2  -7  -6   -0.31    2.16 
  -2   7  -6   20.17    6.13 
   2   7  -6   16.10    4.83 
  -2   7   6   -2.48    3.31 
   2   7   6    0.91    2.89 
   2   7   6   -2.75    3.21 
  -2  -7   6   -1.27    3.17 
  -2  -7  -6    3.36    3.59 
  -2   7   6   -1.65    2.82 
  -2  -7  -6    0.73    2.50 
  -2  -7  -6    6.88    2.90 
  -2  -7   6    3.63    3.07 
  -2   7   6    0.98    4.22 
   3  -7   6   19.86    7.07 
   3   7   6   22.71    7.49 
  -3  -7  -6   19.46    6.43 
  -3  -7   6   23.93    6.64 
   3  -7   6   13.05    5.01 
  -3   7  -6   20.20    4.77 
   3  -7  -6   21.47    4.13 
  -3  -7  -6   18.60    5.05 
  -3  -7  -6   20.75    4.60 
   3  -7  -6   18.15    7.06 
   3   7   6   19.42    6.00 
  -3   7   6   17.80    5.21 
  -3  -7   6   23.64    6.01 
   3   7   6   19.54    4.77 
   3   7  -6   21.28    6.08 
  -3   7  -6   19.62    5.48 
   3   7  -6   19.68    5.48 
  -3   7   6   21.85    5.48 
  -3   7   6   17.76    6.06 
  -3  -7   6   24.40    5.87 
   4   7  -6    6.20    4.48 
   4   7  -6   13.95    4.87 
  -4  -7  -6    1.05    3.27 
  -4  -7   6    7.26    4.80 
   4  -7  -6    5.04    3.90 
  -4  -7   6   20.90    5.22 
  -4   7   6    5.19    5.01 
   4  -7   6   21.63    6.67 
  -4  -7   6    7.45    4.14 
   4  -7   6    1.41    3.23 
  -4   7  -6    7.43    3.88 
  -4  -7  -6    7.09    4.74 
   4   7   6   12.69    6.90 
  -4   7   6   -0.28    3.67 
  -4   7   6    5.93    3.68 
  -4   7  -6    8.19    3.49 
  -4  -7  -6    4.32    3.49 
   4  -7  -6   27.28    7.00 
   5  -7  -6    2.27    3.57 
  -5   7  -6   -1.54    2.58 
   5   7  -6   -1.39    3.65 
  -5   7   6    1.39    3.39 
   5  -7   6   -1.09    4.09 
   5  -7  -6   -7.57    3.01 
  -5   7   6    0.18    4.82 
  -5   7  -6   -1.34    2.82 
  -5  -7   6   -3.79    3.74 
  -5  -7  -6    1.00    3.60 
  -5  -7  -6    1.29    3.81 
  -5  -7  -6   -0.44    3.55 
   5   7   6    3.24    6.12 
   5   7  -6    1.10    4.26 
   5  -7   6    5.18    3.82 
  -5  -7   6    5.10    3.67 
  -5  -7   6    3.63    3.59 
  -6  -7  -6   -0.07    3.69 
  -6  -7   6    5.59    3.92 
  -6  -7  -6    4.83    4.97 
   6   7   6    5.12    6.70 
  -6   7   6    2.43    3.63 
  -6  -7   6    9.91    5.90 
   6  -7   6   10.36    5.92 
  -6  -7  -6   -1.48    3.96 
  -6   7  -6    5.77    4.65 
   6   7  -6   -0.46    4.43 
  -6   7   6    8.82    6.16 
   6  -7  -6    9.98    5.68 
   6  -7   6    2.08    3.77 
  -6   7  -6    1.26    3.23 
   7  -7   6   15.01    7.14 
  -7  -7  -6    4.52    5.94 
   7  -7  -6   12.99    7.89 
  -7   7  -6    6.34    5.59 
  -7   7   6   12.95    5.11 
  -7   7  -6    2.41    3.56 
  -7  -7   6    5.10    6.03 
   7   7   6    8.31    7.57 
   7   7  -6   16.47    6.98 
  -7   7   6    6.31    6.15 
  -7  -7  -6    4.70    4.80 
  -7  -7   6   14.55    5.94 
  -7  -7  -6    5.44    3.88 
   7  -7   6    9.27    4.67 
  -8  -7  -6    4.62    5.79 
   8  -7   6    3.31    5.32 
  -8  -7   6    0.80    4.09 
  -8  -7   6    6.75    6.54 
  -8   7   6    2.13    6.98 
  -8   7   6    3.77    3.89 
  -8   7  -6    9.88    4.02 
  -8  -7  -6   -3.51    3.12 
  -8   7  -6    7.05    5.90 
   8  -7  -6   14.73    8.05 
  -8  -7  -6    5.74    6.46 
   8   7  -6    6.66    6.18 
   8   7   6   17.16    8.29 
   8  -7   6    6.08    4.66 
  -9   7  -6    4.81    3.48 
  -9   7   6    1.68    7.14 
  -9  -7  -6    7.37    4.31 
  -9   7  -6   13.85    7.55 
  -9  -7   6    4.02    4.31 
   9   7  -6   -0.97    6.25 
   9   7   6   -3.77    6.50 
  -9  -7  -6    1.61    5.64 
  -9  -7   6   -1.18    5.98 
  -9  -7  -6    1.93    5.50 
   9  -7   6    5.08    7.59 
  -9   7   6    1.49    3.62 
   9  -7  -6    7.65    7.17 
 -10   7   6   13.41    7.36 
 -10   7   6   -3.65    3.12 
  10   7  -6    9.57    7.18 
 -10   7  -6    0.01    3.35 
 -10  -7  -6   -4.11    5.56 
 -10  -7   6    4.34    8.56 
  10  -7  -6    6.37    7.74 
 -10  -7   6    4.88    4.85 
 -10  -7  -6    4.67    6.91 
  10  -7   6   10.69    8.00 
 -10   7  -6    1.81    6.51 
  10   7   6    8.73    7.83 
 -10  -7  -6    6.26    4.86 
   0   8  -6  707.99   25.54 
   0  -8   6  652.32   26.11 
   0   8   6  659.16   27.09 
   0   8  -6  664.12   27.99 
   0   8   6  652.66   28.69 
   0   8   6  678.02   28.99 
   0  -8  -6  651.68   20.19 
   0  -8   6  650.03   22.02 
   0  -8  -6  633.63   27.86 
   1   8  -6    4.50    4.08 
  -1   8   6   -6.56    2.09 
  -1  -8   6    7.36    4.18 
  -1   8   6    1.84    4.91 
   1  -8   6    2.25    3.31 
  -1  -8  -6    3.67    2.56 
  -1   8  -6    1.96    3.81 
   1   8   6    2.80    3.32 
   1   8   6    1.20    3.49 
  -1   8  -6    3.20    4.35 
  -1  -8  -6   -4.58    3.35 
   1   8   6   11.20    5.76 
  -1   8   6   -6.78    2.56 
  -1  -8   6    0.49    3.00 
   1   8  -6    0.29    3.07 
   1  -8   6   -2.24    3.11 
   1  -8  -6   -1.86    4.09 
  -2  -8   6 1186.04   37.78 
  -2  -8   6 1172.92   38.28 
  -2  -8  -6 1175.95   33.70 
  -2   8   6 1172.77   39.62 
  -2   8  -6 1152.05   42.26 
   2   8   6 1172.73   36.73 
   2  -8   6 1129.76   38.50 
  -2   8  -6 1187.19   38.32 
  -2   8   6 1107.23   41.17 
  -2  -8  -6 1144.90   38.00 
   2   8   6 1197.53   43.38 
   2  -8  -6 1157.02   42.53 
   2   8  -6 1168.56   40.94 
  -2  -8  -6 1086.56   39.70 
   2   8  -6 1190.39   38.01 
   2   8   6 1035.71   42.55 
  -2   8   6 1146.77   40.00 
   3  -8   6    0.91    3.46 
  -3  -8  -6    5.80    4.90 
  -3  -8   6    0.67    3.34 
  -3  -8  -6    1.95    2.56 
   3   8   6   -0.28    5.12 
  -3   8   6    3.54    4.16 
   3   8  -6   -1.66    3.77 
   3  -8  -6    7.35    5.26 
   3   8   6    1.82    2.87 
  -3   8  -6   -0.22    4.59 
  -3   8   6   -9.83    3.66 
  -3  -8   6    0.83    3.02 
  -3   8  -6    5.99    4.35 
  -3  -8   6    3.95    3.70 
  -3   8   6    5.20    4.20 
  -3  -8  -6    4.14    3.67 
   3   8  -6    2.61    3.79 
  -4  -8   6  459.62   20.52 
   4   8  -6  423.44   20.89 
  -4  -8  -6  459.20   18.96 
   4   8   6  449.72   25.56 
  -4  -8  -6  482.50   23.12 
  -4  -8   6  448.32   22.60 
  -4   8   6  433.73   23.92 
  -4   8  -6  449.18   20.64 
  -4   8   6  488.57   21.19 
  -4  -8   6  480.67   22.97 
   4  -8  -6  478.94   24.36 
  -4  -8  -6  474.66   21.36 
   4   8  -6  468.45   21.58 
   4  -8   6  463.00   21.54 
  -5  -8   6    2.13    3.71 
  -5  -8  -6   -3.20    4.16 
  -5  -8   6    2.85    3.83 
   5  -8  -6    2.88    5.58 
  -5   8   6   -0.20    4.96 
  -5  -8  -6   -0.07    3.36 
  -5   8  -6   -1.18    2.91 
  -5  -8  -6    0.12    3.80 
   5  -8   6   -3.08    3.07 
  -5   8  -6   -0.89    3.22 
   5   8  -6    4.29    4.70 
   5   8   6    2.26    6.10 
  -5   8   6    1.15    3.18 
  -5  -8   6    2.63    4.93 
   5   8  -6   -1.52    4.02 
   5  -8   6    2.18    6.05 
   6   8   6  582.06   31.24 
  -6  -8   6  631.34   28.13 
  -6  -8  -6  597.26   28.66 
   6  -8  -6  610.14   30.61 
   6  -8   6  579.45   30.35 
   6  -8   6  590.79   25.19 
  -6  -8  -6  630.76   25.70 
  -6   8  -6  594.83   25.18 
   6   8  -6  593.99   27.13 
  -6   8   6  594.52   24.65 
  -6  -8  -6  630.40   27.16 
  -6   8  -6  570.44   22.09 
  -6  -8   6  582.64   29.40 
  -6   8   6  590.30   28.76 
   7   8   6    0.83    5.78 
   7  -8  -6   -6.23    4.66 
  -7   8  -6   -0.77    4.41 
   7   8  -6    1.39    5.16 
  -7   8  -6    1.80    3.10 
  -7  -8   6    3.66    3.92 
  -7   8   6    4.08    6.08 
   7  -8   6    4.45    4.41 
  -7  -8  -6    2.67    4.67 
  -7  -8  -6    0.31    3.67 
  -7   8   6    3.67    4.03 
  -7  -8  -6    1.28    4.76 
  -7  -8   6    0.14    6.05 
   7  -8   6    3.23    5.68 
  -8  -8  -6  251.79   16.93 
   8  -8  -6  216.92   19.25 
  -8   8   6  234.07   18.06 
   8  -8   6  248.42   16.06 
  -8   8   6  252.22   15.23 
   8   8   6  248.04   20.67 
  -8   8  -6  216.73   12.25 
  -8  -8  -6  251.70   16.50 
  -8  -8  -6  239.11   18.39 
  -8  -8   6  277.91   17.89 
  -8   8  -6  227.95   16.81 
   8   8  -6  230.80   17.83 
   8  -8   6  261.79   20.67 
  -8  -8   6  233.18   19.63 
  -9   8  -6   -3.37    3.21 
  -9   8   6    0.74    4.87 
  -9  -8  -6    7.44    4.55 
  -9  -8   6   -6.60    6.25 
  -9   8   6   -1.95    6.25 
   9   8  -6    5.67    6.81 
   9  -8   6    4.67    6.78 
   9   8   6    6.50    8.15 
   9  -8  -6    1.72    6.63 
  -9  -8   6   -0.55    4.82 
  -9  -8  -6   -2.80    5.62 
  -9  -8  -6   -6.87    4.35 
 -10  -8  -6  279.53   20.66 
  10  -8   6  271.28   21.83 
 -10   8   6  277.04   20.46 
 -10  -8  -6  265.82   19.07 
  10   8   6  254.85   22.43 
  10   8  -6  296.85   21.67 
 -10  -8  -6  263.08   18.11 
 -10   8   6  260.88   14.96 
  10  -8  -6  260.69   22.17 
 -10  -8   6  269.25   18.42 
 -10  -8   6  304.08   23.33 
 -10   8  -6  267.00   12.55 
   0   9   6   -6.71    4.17 
   0   9  -6    2.06    4.38 
   0  -9   6    9.57    3.45 
   0  -9  -6    6.20    5.54 
   0   9   6   -7.36    2.76 
   0  -9   6    0.73    3.40 
   0   9  -6    5.12    3.99 
   0   9   6    0.85    3.98 
  -1  -9  -6   11.67    6.09 
   1   9   6   10.72    4.82 
  -1   9   6    3.94    4.14 
   1   9  -6   16.68    5.26 
   1   9   6   14.88    6.76 
  -1   9  -6   16.43    5.75 
  -1   9   6   11.71    5.99 
  -1  -9   6   15.41    4.91 
   1   9  -6   10.23    6.50 
  -1   9   6    7.31    4.68 
   1  -9  -6    8.21    6.17 
  -1   9  -6    4.86    5.73 
   1   9   6    5.61    4.59 
   1  -9   6    5.81    4.59 
  -1  -9   6    4.33    4.24 
   2   9   6    4.04    4.54 
   2   9   6    2.79    3.73 
   2   9   6   -0.15    5.20 
  -2  -9  -6    5.58    4.19 
  -2   9   6    1.94    3.63 
   2   9  -6   11.87    4.06 
  -2   9  -6   10.21    4.38 
   2  -9  -6    7.88    5.41 
  -2  -9   6    8.67    4.58 
  -2   9  -6    7.25    5.53 
  -2   9   6   -1.37    4.05 
   2  -9   6    6.04    4.63 
   2   9  -6   14.18    5.80 
  -2   9   6   -2.72    4.45 
  -2  -9   6   10.15    4.50 
   3   9  -6   32.64    8.26 
   3  -9  -6   32.84    9.24 
  -3   9  -6   23.15    8.31 
  -3  -9  -6   31.93    5.37 
   3   9  -6   23.44    5.71 
  -3   9   6   22.38    7.36 
  -3   9   6   40.21    7.58 
  -3  -9   6   46.45    8.27 
  -3   9   6   29.39    6.89 
   3   9   6   39.48   10.38 
   3  -9   6   24.84    6.72 
  -3  -9  -6   29.24    7.97 
  -3   9  -6   32.13    6.70 
  -3  -9   6   35.21    7.50 
  -4  -9  -6   -3.73    3.21 
   4   9  -6    6.92    4.41 
  -4  -9   6   -0.32    3.54 
  -4  -9  -6   -2.94    2.85 
  -4   9  -6    0.73    5.14 
   4  -9  -6    4.67    5.05 
  -4  -9  -6    0.14    4.61 
  -4  -9   6    1.20    3.90 
   4   9  -6    0.83    3.67 
   4  -9   6   -3.56    3.16 
   4   9   6   -2.20    5.27 
  -4   9   6   -5.50    3.94 
  -4   9   6    0.13    2.86 
  -4   9  -6    3.43    3.88 
  -5   9   6   -0.92    3.47 
   5  -9  -6   -4.70    4.47 
  -5  -9   6   -1.99    3.24 
   5  -9   6   -0.58    3.85 
  -5  -9  -6    1.64    4.01 
  -5  -9  -6    1.21    3.53 
   5   9   6    9.10    7.21 
  -5   9   6    5.79    6.06 
   5   9  -6    3.10    4.32 
   5   9  -6   -0.71    4.11 
  -5  -9   6    2.51    5.05 
  -5   9  -6   -0.61    5.51 
  -5  -9  -6    3.93    5.13 
  -5   9  -6    2.11    3.90 
  -6   9  -6   12.06    7.50 
  -6  -9   6    8.47    6.62 
   6   9   6    6.26    6.74 
  -6  -9   6    3.64    4.51 
   6  -9   6    7.21    4.95 
  -6  -9  -6    6.06    6.27 
   6  -9  -6   12.86    6.95 
  -6   9   6    1.81    3.77 
   6   9  -6    5.06    5.32 
  -6   9   6    0.57    6.00 
  -6  -9  -6    4.65    4.06 
  -6  -9  -6    0.73    3.87 
  -7  -9  -6   13.07    6.08 
  -7  -9   6    8.30    6.55 
   7  -9   6    9.65    5.14 
   7  -9  -6   12.40    7.51 
  -7   9   6    6.69    4.77 
  -7  -9  -6   11.90    6.06 
   7   9   6   10.38    7.52 
  -7  -9   6   13.80    6.30 
  -7  -9  -6    4.66    6.15 
  -7   9   6   31.25    8.71 
   7   9  -6   11.77    6.33 
  -8   9   6   13.20    7.77 
   8  -9  -6   12.59    7.40 
   8   9  -6    0.49    5.96 
  -8  -9  -6   -4.66    5.63 
   8   9   6   -1.56    5.65 
  -8  -9   6    6.02    6.71 
   8  -9   6   -2.99    4.11 
  -8   9   6    0.12    4.04 
  -8  -9  -6    0.88    4.26 
  -8  -9   6   -1.49    3.95 
  -8  -9  -6    3.61    5.30 
  -9   9   6    2.02    7.43 
  -9  -9  -6   -2.25    6.41 
   9   9  -6   -5.05    5.71 
  -9  -9  -6   -0.13    4.29 
  -9  -9  -6   -1.67    5.28 
  -9  -9   6    2.90    6.98 
  -9   9   6    0.35    4.13 
   9   9   6    7.92    8.60 
   9  -9  -6    2.91    8.36 
  -9  -9   6   16.16    5.99 
   0  10  -6  700.03   31.08 
   0  10  -6  712.45   25.85 
   0 -10  -6  729.60   31.13 
   0  10   6  624.65   30.08 
   0 -10   6  691.13   28.44 
   0  10   6  698.61   29.15 
   0  10   6  676.65   30.75 
  -1  10   6   -1.42    4.46 
   1 -10   6    0.19    3.66 
  -1 -10  -6    9.72    5.42 
   1  10   6   -0.52    4.03 
   1  10  -6   11.34    6.45 
   1  10   6   15.77    6.10 
  -1  10   6    1.25    4.05 
  -1  10  -6    9.84    4.65 
  -1  10  -6    9.92    5.46 
  -1 -10   6    7.67    3.66 
   1  10  -6   15.68    4.63 
  -1 -10   6   11.03    4.84 
   1  10   6    6.15    6.13 
   1 -10  -6    3.26    4.77 
  -1  10   6    9.86    5.94 
  -2 -10  -6  306.17   18.39 
  -2 -10   6  298.85   15.91 
  -2  10   6  273.17   18.48 
   2  10  -6  296.09   15.37 
   2 -10   6  278.84   17.18 
  -2  10   6  275.39   17.32 
  -2  10   6  292.29   17.80 
   2  10   6  297.82   19.37 
  -2 -10   6  284.05   16.87 
   2 -10  -6  286.49   18.91 
   2  10   6  289.32   20.20 
  -2  10  -6  289.82   19.04 
   2  10  -6  285.58   18.83 
   2  10   6  289.61   15.74 
   3  10   6   -2.92    4.87 
  -3  10  -6    0.94    5.78 
  -3 -10  -6    9.72    6.36 
  -3  10   6    2.38    3.64 
  -3 -10   6    2.85    4.21 
   3  10  -6    1.14    4.95 
   3 -10  -6    8.19    5.85 
   3  10  -6   -0.28    3.63 
  -3 -10   6    6.30    4.39 
  -3  10   6   -3.02    4.06 
  -3  10   6    8.93    5.41 
   3 -10   6    4.87    4.41 
   4  10  -6  605.51   25.42 
  -4  10   6  596.51   29.30 
   4 -10   6  587.82   26.91 
   4  10  -6  673.51   28.49 
  -4 -10   6  603.59   25.00 
   4  10   6  624.27   32.07 
  -4  10  -6  598.55   29.74 
  -4 -10  -6  570.01   28.31 
  -4  10   6  588.37   25.79 
   4 -10  -6  626.01   29.39 
  -4 -10   6  593.65   27.46 
   5  10   6    4.71    7.21 
  -5  10   6    1.92    3.96 
  -5  10  -6    3.50    6.82 
   5  10  -6    7.96    4.93 
   5 -10   6    2.86    4.17 
  -5 -10  -6    7.29    6.23 
   5 -10  -6    9.35    6.96 
   5  10  -6   -0.63    4.52 
  -5  10   6   10.68    6.65 
  -5 -10   6    1.73    4.02 
  -6  10   6  276.95   19.76 
   6  10   6  252.36   20.18 
  -6  10  -6  253.36   20.04 
  -6  10   6  221.43   14.36 
   6 -10  -6  255.59   19.16 
  -6 -10   6  225.96   17.70 
   6  10  -6  253.02   17.04 
   6 -10   6  248.16   16.92 
  -6 -10  -6  237.51   18.00 
   7 -10  -6   11.00    7.83 
   7  10  -6   -6.17    4.46 
  -7 -10  -6   11.17    4.86 
  -7  10   6   -6.16    3.55 
   7  10   6    2.36    6.16 
  -7 -10  -6   -0.23    4.62 
  -7 -10  -6    0.53    6.00 
   7 -10   6    4.33    3.98 
  -7 -10   6    2.01    5.44 
  -7  10   6    1.80    5.95 
  -7  10  -6    8.39    8.56 
  -8  10   6  436.86   20.70 
   8  10   6  361.15   25.91 
  -8 -10  -6  368.35   20.93 
  -8  10   6  391.96   24.34 
   8  10  -6  419.57   24.17 
  -8 -10  -6  375.93   24.36 
  -8  10  -6  347.24   25.37 
   8 -10  -6  383.13   25.40 
  -8 -10   6  328.73   24.05 
  -8 -10  -6  399.25   22.59 
   8 -10   6  391.33   21.78 
  -9 -10   6    5.05    7.90 
  -9  10  -6   -6.71    7.89 
   9  10   6    3.53    8.45 
   9  10  -6    5.33    6.70 
  -9 -10  -6   -2.39    6.10 
  -9  10   6    0.52    6.92 
   9 -10  -6    6.52    7.41 
  -9 -10  -6   -6.99    5.09 
  -9  10   6    1.78    4.06 
  -9 -10  -6    1.58    4.39 
   0  11   6    9.75    5.44 
   0  11  -6    6.45    5.82 
   0  11   6    3.16    5.49 
   0 -11   6    9.01    5.25 
   0  11   6    8.53    6.55 
   0 -11  -6    6.07    5.93 
   1  11  -6   20.70    7.74 
  -1  11  -6   24.13    8.48 
  -1 -11   6   22.76    7.00 
  -1  11   6   13.35    6.02 
   1  11   6   31.35    7.56 
  -1 -11   6   24.40    6.41 
  -1 -11  -6   21.51    8.12 
   1  11   6   19.09    7.48 
  -1  11   6   25.30    7.23 
   1  11   6   18.02    7.96 
  -1  11   6   26.31    8.48 
   1 -11  -6   20.87    8.36 
   1 -11   6   23.74    7.64 
   2  11   6    2.48    4.16 
  -2 -11   6    2.81    4.59 
   2 -11   6    0.34    4.52 
   2  11   6   -0.34    4.34 
  -2  11   6   -3.87    4.80 
  -2  11   6   -1.07    3.60 
   2 -11  -6    7.52    6.08 
  -2 -11   6    3.31    4.21 
   2  11   6   -5.90    4.96 
  -2  11   6   -0.43    4.32 
  -2 -11  -6    4.02    5.38 
  -2  11  -6    5.05    6.17 
   2  11  -6    1.60    5.57 
   3  11  -6    1.56    4.01 
   3 -11   6    2.57    4.28 
  -3 -11   6    7.69    5.33 
   3  11   6    2.84    6.72 
  -3 -11   6    7.28    5.32 
   3  11  -6   -2.97    4.77 
   3 -11  -6    1.81    5.86 
  -3 -11  -6   -1.26    5.42 
  -3  11   6    0.51    4.32 
  -3  11   6    5.66    4.58 
  -3  11  -6    6.23    6.41 
  -3  11   6    9.91    6.81 
   4 -11  -6    9.60    5.85 
  -4  11  -6   20.18    8.42 
  -4 -11  -6    1.49    5.46 
   4 -11   6    1.50    4.51 
   4  11  -6   18.78    6.77 
  -4 -11   6   -0.05    3.91 
  -4  11   6    5.05    5.45 
   4  11  -6    5.12    4.63 
  -4  11   6   -1.27    3.31 
  -4 -11   6    2.54    5.23 
   4  11   6    0.50    6.75 
  -5 -11  -6   25.53    9.03 
  -5  11   6   32.81    9.82 
   5  11  -6   39.30    9.28 
   5 -11   6   19.32    6.90 
  -5  11   6   27.34    6.74 
   5 -11  -6   23.24   10.13 
  -5  11  -6   33.58   10.05 
   5  11  -6   14.79    6.15 
   5  11   6   28.89   10.48 
  -5 -11   6   28.47    8.99 
   6  11  -6    4.66    5.54 
  -6 -11   6    4.88    5.27 
   6 -11   6   -2.22    4.36 
   6 -11  -6    5.54    7.25 
  -6 -11  -6    1.18    6.47 
  -6  11   6    0.11    6.28 
  -6  11   6    2.44    3.90 
   6  11   6   -0.46    6.29 
  -6  11  -6    5.95    8.08 
   7 -11  -6    3.37    6.98 
  -7  11  -6    7.25    8.18 
  -7 -11  -6   -6.80    5.78 
   7  11  -6    0.54    5.19 
  -7  11   6    0.31    6.05 
   7  11   6    4.57    7.01 
  -7 -11   6   -1.93    5.64 
  -7  11   6   -4.08    3.73 
   7 -11   6   -2.53    4.24 
  -8 -11  -6   -2.25    5.99 
  -8  11  -6    3.24    8.85 
   8  11   6    7.19    8.03 
   8 -11  -6   13.62    9.08 
  -8  11   6    4.03    6.86 
  -8 -11   6    6.47    7.16 
   8  11  -6    2.59    6.09 
  -8  11   6    3.54    4.50 
   8 -11   6   -0.22    5.45 
   0  12   6  277.47   19.43 
   0  12  -6  291.44   20.56 
   0 -12   6  274.68   18.00 
   0 -12  -6  269.31   19.06 
   0  12   6  301.05   20.41 
   0  12   6  322.70   19.49 
   1  12  -6    1.74    5.54 
  -1 -12  -6   -1.00    5.82 
   1  12   6    2.85    4.89 
  -1  12   6   -0.21    4.12 
  -1  12   6    2.83    5.96 
  -1 -12   6    4.00    5.06 
   1 -12  -6    5.04    6.13 
   1  12   6    8.10    5.36 
   1  12   6   -1.53    5.99 
   1 -12   6    4.82    5.96 
  -1  12  -6   -1.72    5.08 
  -1  12   6   -0.35    4.74 
  -2  12  -6  431.83   24.75 
  -2  12   6  456.00   24.15 
   2 -12  -6  467.60   25.88 
  -2  12   6  410.24   23.47 
   2 -12   6  416.80   22.82 
  -2 -12  -6  417.66   24.27 
  -2 -12   6  456.17   21.63 
   2  12   6  449.46   26.75 
  -2  12   6  406.81   24.19 
  -2 -12   6  447.14   22.31 
   2  12  -6  486.68   25.73 
   3 -12  -6    6.69    6.20 
  -3  12   6    1.74    4.37 
  -3  12  -6    7.70    6.58 
  -3 -12   6    9.04    5.87 
  -3 -12  -6    2.93    5.97 
   3  12   6   -1.42    7.20 
  -3 -12   6    4.57    5.08 
   3 -12   6    8.25    6.33 
  -3  12   6    0.52    5.36 
  -3  12   6   -2.26    4.65 
   3  12  -6    5.49    5.53 
   4 -12  -6  240.94   17.98 
  -4  12   6  196.44   19.42 
  -4 -12  -6  213.76   17.78 
  -4  12   6  233.99   15.95 
   4  12   6  222.00   19.47 
   4  12  -6  260.34   18.64 
  -4 -12   6  228.70   16.28 
  -4 -12   6  222.97   14.84 
   4 -12   6  229.57   17.04 
  -4  12  -6  212.06   17.85 
  -5  12  -6    3.27    7.30 
  -5 -12   6   -1.81    4.88 
   5  12  -6    2.55    5.20 
   5 -12  -6  -13.82    4.72 
  -5  12   6   -0.31    3.83 
   5  12   6   -2.68    7.45 
   5 -12   6   -6.60    3.62 
  -5 -12  -6    5.58    6.96 
  -5  12   6    0.83    5.51 
  -6  12  -6  243.45   20.10 
  -6 -12   6  270.10   19.79 
   6 -12  -6  261.32   19.25 
   6 -12   6  257.28   18.35 
   6  12   6  258.47   21.67 
  -6  12   6  260.17   19.96 
  -6 -12  -6  246.19   19.65 
  -6  12   6  221.57   15.28 
   7  12   6   11.81    8.34 
  -7  12  -6    7.57    8.11 
   7 -12  -6    1.96    7.26 
  -7 -12   6    2.76    6.07 
  -7 -12  -6    5.44    7.47 
   7 -12   6   -3.19    4.65 
  -7  12   6    0.90    4.36 
  -7  12   6    0.17    6.49 
  -8  12   6  138.50   11.95 
  -8  12  -6  155.13   20.60 
   8 -12   6  160.10   17.58 
   8  12   6  141.40   21.40 
  -8 -12   6  170.81   20.20 
   8 -12  -6  187.60   21.48 
  -8 -12  -6  130.14   17.70 
  -8  12   6  148.51   18.44 
   0  13   6    7.02    7.65 
   0  13  -6    2.44    6.62 
   0  13   6    6.63    5.75 
   0 -13  -6   11.00    5.91 
   0 -13   6   18.92    7.17 
   0  13   6    4.94    5.47 
   1 -13  -6   27.22    9.37 
  -1  13   6   22.93    7.71 
   1 -13   6   13.53    6.87 
   1  13   6   15.62    6.45 
  -1  13  -6    5.75    7.97 
  -1  13   6   11.77    6.98 
   1  13   6   19.84    9.24 
  -1  13   6   12.10    7.88 
  -1 -13   6    2.93    5.41 
   1  13   6   20.22    7.45 
   1  13  -6   14.39    8.08 
  -1 -13  -6   17.73    8.42 
   2  13  -6   14.79    7.63 
  -2  13   6   -1.88    5.43 
   2 -13  -6    1.88    6.35 
   2 -13   6    1.65    5.66 
  -2  13   6    5.99    5.65 
   2  13   6    3.49    7.14 
  -2 -13  -6    7.73    6.75 
  -2 -13   6   15.92    6.83 
  -2  13   6    0.39    5.90 
  -2  13  -6   12.92    7.53 
   3  13  -6   24.04    8.79 
  -3 -13   6   30.74    9.60 
   3 -13  -6   33.27   10.36 
  -3  13   6   14.44    6.31 
  -3  13  -6   20.79    9.16 
   3 -13   6   21.75    7.41 
   3  13   6   20.57    9.37 
  -3  13   6   23.91    8.44 
  -3 -13  -6   16.41    8.62 
  -3 -13   6   27.99    8.10 
  -3  13   6   19.81    8.42 
   4 -13   6    8.67    6.09 
  -4  13   6   -2.65    5.19 
   4 -13  -6    8.62    6.09 
  -4  13   6    3.74    4.38 
  -4 -13  -6    2.41    6.21 
   4  13   6    0.36    6.91 
  -4 -13   6    6.30    6.07 
  -4  13  -6   12.85    7.29 
   4  13  -6    7.47    6.71 
   5 -13   6    8.67    6.72 
   5  13  -6    7.61    7.16 
  -5  13  -6    8.90    8.03 
  -5 -13  -6    3.55    6.52 
  -5 -13   6   11.76    6.89 
  -5  13   6    8.31    5.27 
   5 -13  -6   13.08    8.04 
  -5  13   6    5.07    5.63 
   5  13   6    7.75    8.23 
  -6  13  -6    7.66    8.13 
   6  13   6    3.41    8.41 
  -6  13   6    3.74    5.16 
   6 -13   6   12.69    6.88 
  -6 -13  -6    5.93    7.65 
  -6  13   6    7.97    7.18 
   6 -13  -6   12.76    7.70 
  -6 -13   6   13.81    7.67 
  -7  13   6    2.62    7.68 
  -7 -13  -6    0.45    6.40 
   7 -13   6   14.27    7.64 
   7  13   6    8.10    9.14 
  -7  13  -6    3.46    8.49 
   7 -13  -6    4.08    7.72 
  -7  13   6    5.13    4.48 
  -7 -13   6   19.03    8.43 
   0  14   6  194.12   17.67 
   0  14  -6  216.47   18.55 
   0  14   6  175.96   18.67 
   0 -14   6  201.35   18.67 
   0 -14  -6  191.45   19.72 
   0  14   6  179.88   15.41 
  -1  14   6   15.37    7.65 
   1  14   6   -1.50    5.03 
   1  14   6    0.79    6.27 
  -1 -14   6    3.97    5.85 
  -1 -14  -6   -5.38    5.46 
   1 -14   6    2.61    6.07 
   1 -14  -6    2.83    5.82 
  -1  14  -6   -1.58    5.97 
   1  14   6    2.19    4.91 
  -1  14   6    1.22    4.95 
   1  14  -6    2.93    6.94 
  -1  14   6   -4.57    4.82 
  -2  14  -6  185.07   20.81 
   2  14   6  194.99   22.14 
   2 -14   6  161.08   17.71 
  -2 -14  -6  159.64   18.59 
   2 -14  -6  175.37   19.31 
  -2  14   6  136.25   16.30 
  -2 -14   6  174.38   14.95 
  -2  14   6  139.84   17.31 
   2  14  -6  181.17   16.63 
  -2  14   6  182.23   18.78 
  -3  14   6    4.15    4.84 
   3  14   6    7.88    8.47 
  -3 -14  -6    9.41    6.72 
   3 -14   6   -3.25    5.66 
  -3  14   6    0.01    6.95 
  -3 -14   6   -0.86    5.55 
   3  14  -6    7.74    6.68 
   3 -14  -6    7.70    6.72 
  -3  14   6   -5.96    4.46 
  -3  14  -6    7.75    7.54 
   4  14   6  232.08   24.48 
   4 -14  -6  184.76   16.35 
  -4  14   6  163.00   16.17 
  -4  14   6  199.32   20.52 
  -4  14  -6  231.50   22.87 
  -4 -14  -6  201.13   20.73 
  -4 -14   6  182.82   15.80 
   4  14  -6  221.98   18.53 
   4 -14   6  184.94   19.27 
   5  14   6   18.15    9.56 
  -5  14   6    2.00    5.45 
  -5 -14  -6    1.80    6.53 
   5 -14   6    2.11    6.19 
   5  14  -6    4.75    7.37 
   5 -14  -6    2.69    6.31 
  -5  14  -6    6.72    7.68 
  -5 -14   6   -0.66    5.92 
  -5  14   6    6.00    5.31 
  -6 -14  -6  140.82   19.13 
   6 -14   6  138.48   17.59 
  -6 -14   6  174.56   19.06 
  -6  14  -6  181.52   21.41 
   6  14   6  177.19   24.21 
   6 -14  -6  195.33   20.84 
  -6  14   6  130.29   14.02 
  -6  14   6  162.63   19.42 
   0  15   6    0.69    5.47 
   0  15   6    8.86    7.40 
   0  15   6    4.20    5.86 
   0 -15   6   14.11    8.18 
   0  15  -6    3.50    7.86 
   0 -15  -6    2.13    6.96 
   1  15   6   16.89    9.59 
  -1 -15   6   11.04    7.24 
   1  15  -6   12.68    8.54 
   1 -15   6    7.20    7.17 
  -1  15  -6   27.91   10.37 
  -1  15   6    5.92    7.13 
  -1  15   6   12.89    7.06 
  -1  15   6   25.30    7.86 
  -1 -15  -6    8.26    7.32 
   1 -15  -6   11.84    8.49 
  -2  15   6   -2.39    4.29 
   2  15   6   -2.63    7.15 
  -2 -15   6    3.59    6.85 
  -2 -15  -6   -0.63    6.27 
  -2  15   6    3.18    6.07 
   2  15  -6  -14.83    5.65 
  -2  15   6    0.28    6.52 
   2 -15  -6    9.06    8.33 
   2 -15   6   17.58    8.39 
  -2  15  -6    0.96    7.63 
  -3 -15  -6   -1.78    6.31 
  -3  15   6    6.46    5.79 
   3  15  -6    5.39    8.23 
  -3  15  -6    1.98    7.66 
   3 -15   6    1.89    6.35 
  -3  15   6    3.96    7.32 
  -3  15   6    7.70    6.36 
   3  15   6   -0.01    7.37 
   3 -15  -6    4.82    7.34 
  -4  15  -6    7.71    8.25 
   4  15   6  -13.00    7.21 
  -4  15   6    5.60    5.49 
  -4  15   6   -6.48    5.51 
  -4 -15  -6    0.57    7.43 
   4  15  -6    6.61    8.21 
   4 -15   6    3.07    7.02 
   4 -15  -6    6.46    7.35 
  -5  15   6   19.86    8.90 
   5 -15   6    7.93    7.16 
  -5 -15  -6   18.33    9.30 
   5 -15  -6   27.42   10.68 
   5  15  -6   17.06    9.57 
   5  15   6   29.49   11.54 
  -5  15   6   12.99    6.93 
  -5  15  -6   18.43    9.94 
   0 -16  -6  127.39   18.87 
   0  16   6   94.38   15.16 
   0  16   6  152.38   20.05 
   0  16  -6  147.29   20.31 
   0  16   6  127.01   15.80 
   0 -16   6  111.52   16.07 
  -1 -16  -6    1.16    7.64 
   1 -16  -6    8.30    8.20 
  -1  16   6    7.97    6.53 
  -1  16  -6    1.88    8.10 
  -1  16   6   10.69    6.56 
  -1  16   6    1.88    6.76 
   1 -16   6    3.86    7.27 
  -1 -16   6    6.12    7.64 
   1  16  -6    7.71    7.58 
   1  16   6    6.50    7.79 
  -2  16   6  192.67   17.82 
  -2 -16  -6  181.70   21.52 
  -2 -16   6  214.98   17.26 
   2  16   6  199.25   23.12 
  -2  16  -6  218.12   23.45 
  -2  16   6  205.08   21.02 
  -2  16   6  211.46   20.47 
   2 -16   6  206.60   21.04 
   2 -16  -6  209.43   22.40 
   2  16  -6  230.02   23.69 
   3  16   6    3.56    8.09 
  -3  16   6    0.84    7.02 
   3  16  -6    5.11    7.90 
   3 -16   6    8.34    7.48 
  -3  16   6    6.01    6.12 
  -3 -16  -6    4.69    8.67 
   3 -16  -6   -3.25    7.41 
  -3  16  -6   13.08    9.80 
   4  16  -6  119.04   18.51 
  -4  16   6   91.93   14.04 
  -4  16   6   72.05   14.00 
   4 -16   6  106.87   16.29 
  -4  16  -6  110.06   18.79 
   4  16   6  115.92   19.67 
  -4 -16  -6  102.06   17.49 
   4 -16  -6  107.32   16.92 
   0  17  -6    1.46    8.68 
   0  17   6   -1.65    7.69 
   0 -17  -6   17.64    9.58 
   0 -17   6   10.96    7.98 
  -1  17  -6  -10.11    6.53 
  -1  17   6    0.58    6.64 
  -1 -17   6   -1.94    6.89 
   1 -17   6    9.71    8.48 
  -1  17   6    5.18    7.38 
   1  17   6   -2.72    7.15 
  -1 -17  -6    3.35    7.83 
   1 -17  -6    1.75    8.10 
   1  17  -6   -3.88    8.09 
  -1  17   6    4.28    6.31 
   0   0   7   10.00    3.75 
   0   0  -7    9.31    4.11 
   0   0   7    5.91    2.98 
   0   0   7    5.42    3.28 
   0   0  -7    8.65    3.39 
   0   0  -7   15.73    3.98 
   1   0  -7  176.97   10.12 
   1   0   7  182.14   10.55 
  -1   0  -7  180.88   11.27 
  -1   0  -7  190.91   11.02 
  -1   0   7  176.78   11.72 
  -1   0   7  175.89    8.70 
   1   0  -7  180.89   11.09 
  -1   0   7  179.70   11.58 
  -1   0  -7  189.49    8.76 
   1   0   7  194.43   11.53 
   1   0  -7  183.18   11.06 
   1   0   7  172.26   11.06 
  -2   0   7    3.00    2.57 
   2   0   7    2.78    2.63 
  -2   0  -7    0.36    1.80 
   2   0  -7    2.10    2.88 
  -2   0  -7   -0.44    1.91 
  -2   0  -7   -0.23    2.24 
   2   0   7    1.82    3.20 
   2   0  -7    0.34    2.42 
  -2   0   7    3.74    3.50 
   2   0   7    3.13    2.35 
   2   0  -7    1.63    3.43 
  -2   0   7    2.02    2.09 
   3   0   7  136.56   11.54 
   3   0  -7  110.52    9.25 
   3   0   7  129.64    8.00 
  -3   0  -7  123.11    8.66 
   3   0  -7  137.36   10.55 
  -3   0   7  125.41   10.68 
  -3   0   7  129.81    9.73 
  -3   0  -7  127.23    6.36 
  -3   0  -7  122.66    8.54 
  -4   0   7    4.04    3.93 
   4   0   7    7.03    5.60 
  -4   0  -7    3.24    2.77 
   4   0  -7    6.52    5.53 
  -4   0  -7    4.41    2.51 
   4   0   7    7.14    2.98 
  -4   0   7    1.97    2.91 
   4   0  -7    1.26    3.23 
  -4   0  -7    7.96    3.59 
   5   0   7  117.26    6.89 
   5   0  -7  138.85   15.27 
  -5   0  -7  102.77    7.87 
  -5   0  -7  111.73   10.96 
  -5   0  -7  116.01    7.66 
   5   0  -7  119.69   10.31 
  -5   0   7  100.66   10.53 
  -5   0   7  104.33   12.34 
   5   0   7  142.54   16.14 
   6   0  -7    0.68    3.90 
   6   0  -7    1.90    5.42 
  -6   0  -7   -1.49    3.53 
  -6   0  -7   -2.21    2.36 
  -6   0  -7   -1.25    3.21 
  -6   0   7    0.89    3.58 
  -6   0   7    1.20    5.02 
   6   0   7   -0.99    5.13 
  -7   0  -7   51.83    7.53 
  -7   0   7   33.75    8.37 
  -7   0  -7   40.58    8.47 
  -7   0   7   38.92    7.65 
   7   0  -7   49.25    9.51 
   7   0   7   46.64   11.52 
   8   0  -7    6.97    5.11 
   8   0   7    0.66    5.35 
  -8   0   7    2.21    3.67 
  -8   0   7   -4.54    5.71 
  -8   0  -7    3.30    3.68 
  -8   0   7   -2.00    5.14 
  -8   0  -7    0.68    4.79 
  -9   0  -7   51.42    8.22 
   9   0   7   56.67   13.02 
  -9   0   7   64.30   13.61 
  -9   0  -7   45.93   10.82 
  -9   0   7   49.69    8.66 
   9   0  -7   57.70   10.83 
 -10   0  -7   -0.60    5.84 
 -10   0   7    6.07    7.98 
 -10   0   7    1.46    4.56 
  10   0  -7    9.11    6.10 
 -10   0  -7    2.01    4.23 
  10   0   7   -1.26    7.38 
 -11   0   7   15.95    6.83 
  11   0   7   13.41    9.37 
 -11   0  -7    7.28    5.31 
  11   0  -7   15.14    7.71 
 -11   0   7    7.46    7.97 
 -11   0  -7    8.30    7.13 
   0  -1   7   38.40    5.60 
   0  -1   7   32.95    5.97 
   0  -1   7   25.89    5.60 
   0   1   7   42.05    6.14 
   0  -1  -7   35.33    5.34 
   0  -1  -7   50.16    6.92 
   0   1   7   27.37    5.78 
   0  -1  -7   32.13    5.94 
   0   1  -7   37.90    6.28 
   0   1   7   30.36    6.23 
   0   1  -7   45.14    7.08 
   0   1  -7   45.64    4.98 
  -1   1  -7   -1.69    2.35 
  -1  -1   7   -0.16    2.08 
   1  -1  -7   -0.67    3.03 
  -1   1  -7    0.66    2.31 
  -1  -1  -7    2.76    2.35 
   1  -1  -7   -0.19    1.93 
  -1   1   7   -1.72    2.07 
   1   1   7   -4.07    1.63 
   1   1  -7    1.25    2.79 
  -1   1  -7   -0.60    1.85 
   1  -1   7   -1.60    2.93 
   1   1  -7    0.31    2.48 
   1   1  -7    0.57    2.81 
  -1  -1   7    0.10    2.49 
   1  -1   7    0.32    2.66 
  -1   1   7   -1.70    2.83 
  -1  -1  -7   -2.41    2.16 
  -1  -1  -7    0.19    2.35 
  -1  -1   7    0.92    2.38 
   1   1   7   -1.15    2.96 
  -1   1   7    1.50    2.86 
   1   1   7    1.61    2.55 
   1  -1   7   -4.16    1.83 
   1  -1  -7   -1.40    2.53 
   2   1  -7    4.33    3.55 
  -2  -1   7    2.02    2.78 
  -2   1  -7    0.93    1.75 
  -2  -1  -7    0.58    1.90 
   2   1   7   -2.60    3.10 
  -2  -1  -7    1.52    2.25 
  -2   1  -7    5.13    2.98 
  -2  -1  -7    0.22    1.94 
   2   1  -7    4.25    2.06 
   2   1   7    7.24    2.89 
  -2   1  -7    0.27    2.20 
  -2   1   7    3.96    3.71 
  -2   1   7    0.82    2.17 
   2  -1   7    6.21    3.82 
   2  -1  -7    3.61    3.48 
   2   1  -7    2.21    3.49 
  -2   1   7    4.85    1.93 
   2  -1  -7    7.96    3.16 
  -2  -1   7    5.54    3.48 
   2  -1   7    2.18    2.72 
   2   1   7   -0.02    2.23 
   2  -1  -7    0.07    2.86 
  -3   1   7    1.19    2.40 
   3   1   7    0.17    4.59 
  -3  -1  -7    0.28    2.03 
   3   1  -7    2.43    4.68 
   3  -1  -7    2.01    2.66 
  -3  -1  -7    2.27    2.27 
   3  -1   7   -0.96    2.68 
   3   1  -7   -1.00    2.79 
   3   1   7    1.92    2.54 
  -3   1  -7    0.61    2.50 
  -3  -1  -7    0.87    2.09 
   3  -1   7   -3.25    3.27 
  -3  -1   7   -5.90    1.75 
  -3   1   7    2.78    3.91 
   3  -1  -7    2.96    4.25 
  -3   1  -7   -1.34    1.96 
  -3   1  -7   -1.80    1.43 
  -3  -1   7    3.01    3.69 
   4  -1  -7   19.20    6.71 
   4  -1   7   15.29    3.80 
  -4   1   7    7.36    3.72 
   4   1  -7    5.16    3.87 
   4   1  -7   33.01    8.45 
   4   1   7   12.98    3.24 
  -4  -1  -7   13.97    3.72 
  -4  -1   7   10.97    4.65 
   4  -1   7   16.51    6.27 
  -4   1  -7   13.62    4.29 
  -4   1  -7   10.36    3.51 
  -4  -1  -7   12.03    3.67 
  -4   1   7    6.87    4.69 
  -4   1  -7   17.67    3.04 
  -4  -1   7   14.88    5.34 
   4   1   7   27.34    8.39 
  -4  -1  -7   14.32    4.35 
   4  -1  -7    8.40    4.27 
   5   1   7    2.36    1.82 
  -5  -1   7    2.06    3.26 
  -5  -1   7   -0.72    2.65 
   5  -1   7   -1.14    2.30 
   5   1  -7    1.65    5.44 
   5   1  -7   -1.63    2.98 
  -5   1   7    1.85    4.03 
  -5  -1  -7   -3.26    2.00 
   5  -1  -7   -1.07    3.29 
  -5   1  -7    1.19    2.26 
   5  -1  -7    1.31    5.04 
   5   1   7   -6.82    4.23 
  -5  -1  -7    1.01    2.95 
  -5   1   7    0.95    2.62 
   5  -1   7   -0.47    4.66 
  -5  -1  -7    1.09    2.82 
  -5   1  -7   -0.74    2.92 
  -5   1  -7    4.53    2.76 
  -6   1  -7    5.03    3.33 
  -6  -1  -7    7.83    3.50 
  -6  -1   7    6.83    3.78 
   6  -1   7    7.04    5.98 
   6   1   7    2.20    4.92 
   6  -1  -7   -2.11    5.48 
   6  -1   7    3.27    2.87 
  -6   1   7    1.50    4.63 
  -6  -1   7    3.96    4.86 
  -6   1   7    4.64    3.79 
   6  -1  -7    5.21    4.43 
  -6  -1  -7    4.99    4.46 
   6   1  -7    3.06    4.23 
  -6   1  -7    7.10    4.81 
  -6  -1   7    6.03    4.06 
  -6  -1  -7    7.28    3.99 
  -7   1  -7    0.34    4.38 
  -7   1   7    0.45    4.27 
  -7  -1  -7   -1.04    4.07 
  -7  -1  -7   -0.63    3.66 
  -7  -1   7    2.25    4.60 
  -7  -1   7   -2.33    2.95 
  -7   1  -7    2.46    3.43 
  -7   1   7    7.76    4.08 
   7  -1   7    3.29    5.53 
   7   1   7   -0.08    4.68 
  -7  -1  -7   -0.94    2.98 
   7  -1  -7    6.70    6.84 
  -7  -1   7    0.85    4.56 
   7  -1  -7    6.96    4.43 
   7   1  -7   -4.07    3.59 
  -8   1  -7    4.88    4.00 
  -8   1  -7    8.04    5.74 
  -8  -1   7    9.51    4.91 
  -8  -1   7    2.47    6.38 
  -8  -1  -7   -2.57    2.86 
   8   1  -7    6.24    5.83 
   8   1   7    6.47    6.89 
  -8  -1   7    1.19    5.15 
  -8  -1  -7    2.37    5.45 
  -8   1   7   -1.23    5.53 
  -8   1   7    3.41    4.20 
   8  -1  -7    1.92    4.78 
   8  -1   7    8.04    7.43 
  -9  -1   7    2.97    4.19 
  -9  -1  -7    5.15    5.96 
  -9  -1  -7    6.99    4.01 
  -9  -1   7    0.35    6.22 
  -9   1   7    6.59    8.14 
   9  -1   7    0.07    6.36 
   9   1   7    5.78    6.84 
  -9   1  -7    0.58    4.99 
  -9   1  -7    0.25    3.56 
  -9   1   7   -0.65    3.14 
   9  -1  -7    0.84    4.31 
   9   1  -7    3.44    4.78 
  10  -1  -7   11.73    6.85 
 -10   1  -7    1.78    4.35 
  10   1  -7    1.72    5.17 
 -10  -1   7   -0.45    4.15 
 -10  -1  -7    4.29    4.85 
 -10   1   7    5.06    4.71 
 -10   1  -7    1.84    5.54 
 -10  -1   7   -3.45    5.58 
  10  -1   7    9.41    7.25 
 -10  -1  -7    6.75    6.39 
 -10   1   7    4.88    8.24 
  10   1   7    2.45    6.56 
 -11   1   7    0.63    7.52 
 -11  -1  -7    3.59    4.63 
  11  -1  -7    3.30    5.81 
 -11   1   7    3.94    4.40 
  11   1  -7   -2.55    5.15 
 -11   1  -7   -0.90    5.96 
 -11   1  -7    1.95    4.14 
  11   1   7    3.07    7.86 
 -11  -1  -7   -2.18    5.36 
 -11  -1   7  -16.78    5.68 
 -11  -1   7    3.07    4.72 
  11  -1   7   -1.84    6.72 
   0   2   7    3.65    3.15 
   0  -2  -7    3.45    2.84 
   0  -2   7    9.58    3.45 
   0   2   7    9.22    3.89 
   0   2  -7    5.81    3.27 
   0  -2   7    5.83    3.56 
   0  -2   7   12.03    3.87 
   0   2   7    3.03    3.36 
   0   2  -7   10.26    3.51 
   0  -2  -7    7.86    3.58 
   0  -2  -7    9.28    3.53 
   0   2  -7   16.85    3.49 
  -1  -2  -7  121.17    8.50 
   1   2  -7  114.38    9.34 
   1  -2   7  120.45    8.78 
  -1  -2   7  106.20    8.97 
  -1  -2   7  136.02    8.30 
   1   2  -7  135.44    8.37 
  -1   2  -7  140.87    9.83 
  -1  -2  -7  118.61    8.71 
   1   2  -7  129.36    9.35 
   1   2   7  112.65    8.57 
  -1  -2   7  114.92    9.15 
  -1   2   7  129.76   10.38 
   1  -2  -7  113.89    8.74 
  -1  -2  -7  132.43    8.06 
  -1   2   7  124.01    7.91 
   1   2   7  111.84    9.90 
   1  -2  -7  127.60    9.00 
   1  -2   7  110.88    8.70 
   1  -2  -7  112.47    8.48 
   1  -2   7  101.56    8.47 
   1   2   7  135.32   10.63 
  -1   2  -7  114.82    8.92 
  -1   2   7  115.73    9.84 
  -2  -2  -7    4.08    2.87 
   2  -2  -7    6.65    3.16 
   2  -2   7    5.21    2.94 
   2   2   7    9.06    2.99 
   2   2   7    9.21    5.15 
  -2   2  -7    4.61    3.50 
  -2  -2  -7    1.59    2.65 
  -2  -2   7    3.43    2.91 
   2   2  -7    5.34    2.30 
  -2   2   7    3.37    3.74 
   2   2  -7    4.77    3.74 
   2   2  -7   18.07    5.06 
   2   2   7    6.70    4.03 
  -2   2   7    7.76    2.39 
   2  -2  -7    4.60    3.24 
  -2  -2   7    9.69    4.10 
   2  -2  -7   10.60    4.33 
  -2  -2  -7    4.49    2.89 
  -2   2  -7    7.23    3.27 
   2  -2   7   11.49    4.25 
  -2   2   7    4.51    3.09 
   3   2   7  132.76    8.03 
   3  -2  -7  158.88   10.22 
  -3  -2   7  171.96   11.67 
  -3  -2  -7  164.46   10.04 
  -3  -2   7  148.10   11.20 
   3  -2   7  155.88   12.15 
   3   2  -7  156.79   11.23 
   3   2   7  162.69   13.66 
   3   2  -7  164.19    6.91 
  -3  -2  -7  181.83    9.07 
   3   2  -7  168.53   11.72 
  -3   2   7  158.97   11.33 
  -3   2   7  149.31   12.10 
  -3   2  -7  151.18    9.75 
   3  -2   7  146.09    9.37 
  -3  -2  -7  160.84    9.93 
   3  -2  -7  155.55   12.01 
  -3   2  -7  153.32   10.07 
  -4  -2   7    6.45    4.19 
   4   2   7    3.52    2.33 
  -4   2   7    4.08    2.92 
   4   2  -7    5.71    3.90 
   4  -2  -7   13.12    5.88 
  -4   2  -7    3.01    3.15 
  -4  -2  -7    5.30    3.28 
  -4   2  -7    2.42    2.43 
  -4  -2   7    0.85    2.83 
  -4  -2   7    3.46    3.48 
   4  -2  -7    2.53    3.28 
  -4  -2  -7    2.25    2.65 
   4   2   7    9.72    6.40 
   4  -2   7    1.86    2.30 
   4  -2   7    3.60    4.26 
  -4   2   7    0.32    3.58 
  -4  -2  -7   -2.32    2.63 
  -5  -2  -7   48.08    7.89 
  -5   2  -7   49.02    7.95 
  -5  -2  -7   40.33    6.65 
   5  -2  -7   60.78   11.49 
  -5   2  -7   35.32    5.92 
   5   2   7   72.53   13.48 
  -5  -2  -7   55.79    6.99 
  -5  -2   7   60.25    9.19 
  -5   2   7   34.26    7.72 
  -5   2   7   48.43    7.58 
   5  -2   7   45.76   10.28 
  -5  -2   7   51.47   10.09 
  -5  -2   7   45.21    7.93 
   5   2  -7   44.09    8.23 
   5  -2  -7   48.28    7.94 
   5  -2   7   59.31    6.30 
   6  -2  -7    2.39    5.82 
  -6   2  -7   -1.06    4.16 
  -6  -2  -7    2.75    3.80 
  -6   2   7    2.98    3.28 
   6  -2   7    7.01    5.63 
  -6  -2  -7    0.77    2.96 
  -6  -2   7    2.65    4.05 
   6  -2  -7   -0.29    3.35 
   6   2   7    1.41    5.87 
   6   2  -7    3.42    4.14 
  -6  -2  -7    1.90    3.75 
  -6  -2   7    3.33    3.25 
  -6  -2   7    0.17    5.26 
  -6   2  -7    2.34    2.74 
  -6   2   7   -1.30    4.37 
   6  -2   7    1.31    2.94 
  -7   2   7   52.90    8.39 
   7  -2  -7   69.17   10.56 
  -7  -2  -7   69.87    9.35 
  -7  -2  -7   66.83    8.60 
  -7  -2   7   70.10   10.42 
   7  -2   7   78.38   13.77 
  -7  -2   7   70.48   12.21 
  -7   2   7   72.01   11.65 
   7  -2  -7   66.14   13.80 
   7   2  -7   56.07   10.51 
  -7   2  -7   58.04   10.26 
  -7  -2   7   70.55    9.84 
   7   2   7   67.78   13.65 
  -7   2  -7   75.01    8.10 
  -7  -2  -7   62.34   10.25 
  -8  -2   7    2.04    5.72 
  -8   2  -7    6.62    5.35 
  -8  -2   7    4.84    4.11 
  -8   2   7   -7.86    4.80 
   8  -2  -7    8.33    7.04 
  -8   2   7   -1.77    3.88 
   8  -2  -7    3.91    5.26 
  -8  -2  -7   -1.93    3.97 
  -8  -2  -7   -0.34    2.75 
  -8  -2  -7   -0.18    5.13 
   8  -2   7    2.75    6.28 
  -8   2  -7    2.45    3.66 
   8   2  -7   -6.09    3.41 
   8   2   7    4.43    6.42 
   9   2   7   16.81    8.60 
  -9  -2   7   12.71    5.47 
  -9   2  -7   23.31    8.30 
  -9   2   7    8.89    8.60 
   9  -2   7   16.28    8.25 
  -9  -2  -7   28.13    8.21 
  -9   2   7   24.27    7.77 
  -9   2   7   18.20    6.02 
  -9  -2  -7   17.64    5.63 
  -9  -2   7   23.55    9.47 
  -9   2  -7   23.78    5.86 
   9   2  -7   18.74    7.74 
   9  -2  -7   22.86    7.55 
 -10   2  -7    5.08    6.63 
  10  -2  -7   -7.13    3.86 
 -10  -2  -7    0.46    4.09 
  10  -2   7    7.40    6.81 
 -10  -2   7    7.09    4.80 
 -10   2   7   -2.79    7.09 
 -10  -2   7    0.79    7.33 
  10   2  -7   10.12    6.17 
  10   2   7   -6.55    6.22 
 -10   2   7    4.40    4.61 
 -10   2  -7   -3.33    3.64 
 -10  -2  -7    1.37    5.86 
  11  -2  -7   17.03    7.80 
 -11  -2   7   11.35    8.00 
 -11  -2  -7   12.07    5.84 
 -11   2  -7    8.61    6.22 
 -11  -2  -7   10.54    7.95 
  11   2  -7   -1.66    6.46 
 -11   2   7    2.84    4.68 
 -11   2   7   13.24    9.15 
 -11  -2   7   17.77    6.74 
 -11   2  -7    8.16    4.72 
  11   2   7   14.74    9.56 
  11  -2   7    5.43    7.22 
   0   3   7   23.70    6.05 
   0   3  -7   45.62    7.06 
   0  -3  -7   45.88    6.50 
   0  -3   7   54.47    7.45 
   0  -3   7   35.72    6.51 
   0  -3   7   34.70    6.07 
   0  -3  -7   45.25    6.46 
   0  -3   7   44.07    3.85 
   0   3  -7   41.33    6.77 
   0   3   7   42.62    7.30 
   0  -3  -7   37.92    6.46 
   0   3   7   38.83    7.30 
  -1  -3   7    4.77    3.54 
  -1  -3   7    4.23    2.89 
  -1  -3  -7    3.23    2.78 
  -1   3  -7    4.94    3.28 
   1   3  -7    4.09    2.99 
   1  -3   7    2.30    2.46 
  -1  -3  -7    6.02    2.90 
   1   3  -7    7.20    3.98 
  -1  -3  -7    3.27    3.13 
   1  -3  -7    2.95    2.97 
  -1   3   7    3.65    3.55 
  -1  -3   7    4.05    3.25 
  -1   3   7    3.43    3.35 
   1  -3   7   12.44    4.81 
   1   3   7    1.04    3.15 
   1   3   7    3.81    3.26 
   1  -3  -7    3.25    2.66 
  -1   3  -7    8.35    3.80 
   1  -3  -7    4.26    3.49 
   1  -3   7    2.55    3.11 
   1   3   7    3.51    4.41 
  -1   3   7    2.69    3.49 
  -2  -3   7  113.21    8.49 
  -2  -3   7  115.15   11.18 
  -2   3  -7   96.40    8.41 
   2   3   7  147.38   14.34 
   2   3  -7   99.01    6.82 
   2  -3   7  101.35    9.28 
  -2  -3  -7  105.97    7.44 
  -2  -3  -7  102.82    7.76 
   2   3   7  109.67    7.91 
  -2   3   7  100.82    7.03 
  -2  -3  -7  105.02    8.09 
   2   3  -7  112.26    9.51 
  -2   3   7  100.50   10.21 
  -2   3  -7  103.25    8.48 
   2   3   7  128.19   12.47 
   2  -3  -7  112.72   11.07 
  -2   3   7  123.32   12.68 
  -2  -3   7   99.46    8.82 
   2  -3  -7  105.86    8.07 
   2  -3   7  116.80   11.60 
   3   3   7    2.99    2.15 
  -3  -3  -7    3.86    3.19 
   3  -3  -7    3.46    3.02 
  -3   3   7    3.39    2.23 
  -3   3   7    1.64    2.97 
   3  -3   7    4.79    3.10 
  -3   3   7    5.53    4.61 
  -3   3  -7    3.57    3.02 
  -3  -3   7    0.91    3.49 
   3  -3   7    8.79    4.68 
  -3  -3  -7    7.94    3.37 
   3   3  -7    2.93    3.65 
   3   3  -7    6.32    2.73 
  -3  -3   7    4.84    3.89 
  -3   3  -7    3.10    3.41 
   3  -3  -7    2.30    3.88 
   3   3   7   10.58    5.94 
  -3  -3  -7    0.80    2.29 
  -3  -3   7    7.14    3.61 
   3   3   7   -0.35    2.98 
  -4   3   7   44.76    8.79 
   4  -3  -7   65.66   10.56 
  -4  -3   7   52.22    8.44 
  -4   3  -7   41.24    6.39 
  -4  -3   7   52.05    9.03 
   4  -3   7   52.87    9.58 
  -4  -3   7   49.80    8.35 
  -4   3   7   42.20    7.16 
  -4   3  -7   49.98    7.47 
  -4  -3  -7   52.45    6.82 
   4   3  -7   54.58    5.02 
   4   3   7   45.35   10.30 
   4  -3  -7   44.19    7.11 
   4   3  -7   50.69    8.22 
   4   3   7   59.26    5.16 
  -4  -3  -7   41.20    6.43 
  -4  -3  -7   42.82    6.87 
   4  -3   7   54.58    6.64 
  -5  -3   7    0.21    3.01 
   5  -3  -7   -2.86    2.75 
   5  -3   7    0.52    4.65 
  -5  -3  -7   -2.25    3.08 
   5   3  -7    2.02    3.37 
   5  -3  -7   -0.61    5.10 
  -5   3  -7   -0.12    3.38 
  -5   3   7    3.08    3.19 
  -5   3   7    5.38    5.24 
   5   3   7   -0.11    5.00 
  -5  -3   7    2.49    4.18 
   5  -3   7    2.96    3.23 
  -5  -3  -7    3.14    2.98 
  -5  -3  -7   -1.65    2.87 
  -5   3  -7   -3.32    2.36 
  -5  -3   7    3.13    4.19 
  -6  -3   7   26.11    6.65 
   6  -3  -7   20.02    5.99 
   6   3   7   29.11    9.70 
  -6  -3   7   30.88    8.81 
  -6  -3  -7   21.96    6.12 
  -6  -3  -7   19.27    5.09 
  -6   3   7   19.98    7.44 
  -6  -3   7   29.50    6.95 
  -6   3   7   16.00    5.00 
  -6   3  -7   19.94    5.11 
   6  -3   7   14.13    4.38 
  -6   3  -7   17.64    5.93 
  -6  -3  -7   20.47    6.18 
   6  -3  -7   32.04    9.88 
   6   3  -7   17.15    6.32 
   6  -3   7   19.71    7.73 
  -7   3  -7    3.17    3.38 
  -7  -3   7    0.79    5.26 
   7   3  -7    2.14    4.99 
  -7   3  -7    3.21    4.70 
  -7  -3   7    0.71    3.44 
  -7  -3  -7   -2.49    3.52 
  -7  -3  -7    2.47    3.49 
  -7   3   7    8.58    6.09 
   7   3   7    4.38    6.84 
  -7  -3  -7   -1.87    4.37 
   7  -3  -7    5.69    4.82 
   7  -3   7    5.49    5.52 
  -7   3   7   -2.71    2.99 
  -7  -3   7    2.14    4.66 
   7  -3  -7    3.31    6.31 
   8   3   7   29.04   10.04 
  -8   3  -7   30.34    6.50 
  -8  -3  -7   37.49    8.89 
   8  -3  -7   29.70    7.78 
  -8  -3  -7   54.16    9.73 
  -8   3  -7   38.06    9.18 
   8   3  -7   33.68    8.95 
  -8  -3  -7   32.85    7.22 
  -8   3   7   44.25    8.07 
  -8   3   7   35.25    9.05 
  -8  -3   7   32.81    7.34 
   8  -3  -7   54.87   13.80 
   8  -3   7   28.27    9.38 
  -8  -3   7   37.85   10.84 
  -9   3   7    2.67    3.83 
   9  -3   7   -2.69    5.84 
  -9   3  -7   -0.64    3.54 
  -9   3  -7    2.44    5.77 
  -9  -3  -7   -5.17    4.13 
   9   3   7   11.91    8.28 
  -9  -3   7   12.00    7.05 
   9  -3  -7  -11.29    4.02 
   9   3  -7   -8.28    3.80 
  -9  -3   7    4.68    3.85 
   9  -3  -7    1.01    4.98 
  -9   3   7   -3.17    5.76 
  -9  -3  -7   -1.37    3.54 
 -10   3   7   -0.50    8.21 
  10   3  -7   -2.60    5.53 
 -10  -3  -7   -1.24    4.96 
 -10   3  -7    1.91    4.24 
 -10   3   7    9.75    5.56 
 -10  -3   7    2.63    4.20 
  10  -3   7    3.92    6.91 
 -10  -3   7   16.82    8.15 
 -10  -3  -7   -0.22    4.16 
  10   3   7    1.36    6.76 
 -10   3  -7    7.38    6.68 
  10  -3  -7   13.24    6.47 
 -11  -3   7   14.77    9.01 
 -11   3  -7   -4.04    5.94 
  11   3  -7    2.73    6.41 
 -11  -3  -7   -6.11    3.82 
  11  -3   7    8.08    7.67 
 -11   3   7    3.12    9.83 
  11  -3  -7    5.06    5.51 
 -11  -3   7    0.28    4.36 
 -11  -3  -7    1.45    6.43 
 -11   3   7   -6.02    3.65 
  11   3   7   -3.61    7.64 
 -11   3  -7   -2.48    4.11 
   0  -4  -7    5.72    3.35 
   0   4   7    3.88    3.91 
   0   4  -7   17.06    4.35 
   0   4  -7    8.07    3.52 
   0   4   7   -1.51    2.88 
   0  -4   7    4.17    2.72 
   0  -4   7    4.95    2.17 
   0  -4   7   11.34    4.08 
   0   4   7    0.40    3.38 
   0  -4  -7    8.42    3.84 
   0  -4  -7   10.64    3.53 
   0  -4   7   11.11    4.25 
   1   4  -7   25.85    5.69 
  -1  -4  -7   34.92    6.05 
   1   4   7   42.82    8.14 
  -1   4  -7   40.50    6.90 
   1   4   7   30.89    6.84 
   1  -4   7   46.76    7.92 
   1  -4  -7   28.34    5.40 
   1  -4  -7   28.44    5.57 
  -1   4   7   46.23    7.10 
  -1   4   7   27.15    6.30 
  -1   4  -7   28.16    5.85 
   1  -4  -7   35.15    7.07 
   1  -4   7   34.91    6.69 
   1   4   7   30.35    6.14 
  -1  -4  -7   29.71    5.50 
   1   4  -7   37.02    7.09 
  -1  -4   7   31.82    6.43 
  -1  -4  -7   38.06    5.70 
  -1   4   7   25.85    6.72 
  -1  -4   7   43.54    5.74 
  -1  -4   7   24.07    5.51 
   2   4   7    5.33    4.57 
  -2   4   7   -1.74    3.24 
  -2  -4   7    8.18    3.34 
  -2  -4   7   28.10    5.19 
  -2  -4  -7   -0.03    2.65 
   2  -4  -7   20.43    4.61 
   2   4   7    7.11    3.21 
  -2  -4  -7    0.38    2.96 
  -2   4   7    3.89    3.53 
  -2  -4  -7    0.96    2.38 
   2  -4   7   30.54    6.04 
   2  -4  -7   10.79    3.10 
   2   4  -7   19.45    4.73 
  -2   4   7    3.11    3.53 
   2   4   7   -1.76    2.44 
  -2   4  -7    2.51    2.57 
   2  -4   7    8.09    3.47 
   2   4  -7    7.52    2.89 
  -3  -4   7   52.71    8.49 
   3   4   7   56.94    5.87 
   3  -4  -7   75.38   10.84 
   3   4  -7   60.78    6.54 
   3  -4  -7   53.81    6.84 
  -3  -4   7   65.51    9.46 
   3   4   7   63.38   11.48 
  -3  -4  -7   83.97    8.35 
  -3  -4   7   84.26   10.26 
   3   4  -7   51.51    8.45 
   3  -4   7   62.18   10.00 
   3   4   7   69.29   10.29 
  -3   4  -7   56.49    7.61 
  -3   4   7   68.30    6.27 
  -3   4  -7   79.09    8.89 
  -3  -4  -7   63.74    7.23 
  -3  -4  -7   55.12    7.24 
  -3   4   7   61.42    8.55 
   3  -4   7   65.14    7.73 
  -3   4   7   57.54    9.99 
   4   4   7    3.34    2.23 
   4  -4  -7    4.82    4.28 
  -4   4  -7    1.62    2.63 
  -4   4   7    0.29    2.71 
  -4   4   7    2.06    3.84 
   4  -4   7    9.97    5.38 
  -4  -4  -7    0.29    2.94 
  -4  -4   7    4.00    3.94 
   4   4   7    5.46    5.73 
   4  -4   7    4.37    3.09 
   4   4  -7    6.23    3.12 
  -4   4  -7    2.54    2.93 
  -4  -4  -7    2.66    3.20 
   4  -4  -7    0.63    2.79 
  -4  -4  -7   -1.45    2.84 
  -4  -4   7    1.50    3.25 
  -4  -4   7    3.71    4.46 
   4   4  -7   -0.08    3.63 
   5   4   7   10.78    7.03 
  -5  -4   7    8.11    4.46 
  -5  -4  -7   10.25    4.59 
  -5  -4  -7    7.42    3.89 
  -5  -4   7   13.39    6.70 
  -5  -4  -7    7.56    4.42 
  -5   4  -7   10.14    3.97 
   5  -4  -7    2.97    3.66 
  -5   4   7   11.89    4.13 
  -5   4   7   12.85    5.67 
   5  -4   7    7.58    3.57 
   5  -4   7    7.97    6.00 
  -5  -4   7    7.71    4.81 
   5  -4  -7   11.41    6.52 
   5   4  -7   10.79    5.34 
  -5   4  -7    4.01    4.23 
   6  -4   7    6.76    5.66 
  -6  -4  -7   -3.15    3.67 
  -6  -4  -7   -1.99    2.56 
   6   4   7   11.02    6.32 
  -6   4   7   -4.90    4.47 
  -6  -4   7    8.51    4.76 
  -6  -4   7    1.78    3.37 
  -6   4  -7   -0.94    3.21 
  -6   4   7    6.60    3.93 
  -6  -4   7   16.93    6.68 
   6   4  -7   -4.16    3.55 
  -6   4  -7    2.62    4.14 
   6  -4  -7   13.54    6.62 
  -6  -4  -7   -1.94    3.49 
   6  -4  -7    4.15    3.51 
   6  -4   7    2.61    3.13 
  -7  -4  -7   32.72    8.00 
  -7   4  -7   30.13    6.07 
   7  -4  -7   35.75   11.52 
  -7  -4   7   27.54    9.42 
  -7  -4   7   29.39    7.29 
  -7  -4   7   22.50    6.51 
   7  -4   7   21.86    5.44 
  -7  -4  -7   20.14    5.79 
   7  -4   7   34.94    9.78 
  -7   4   7   29.72    8.58 
  -7   4  -7   31.53    7.87 
   7   4  -7   25.64    7.47 
   7  -4  -7   25.29    6.89 
  -7  -4  -7   19.40    6.65 
   7   4   7   29.82   10.30 
  -7   4   7   26.48    6.17 
   8  -4  -7    3.47    5.76 
  -8   4  -7   -4.38    4.71 
  -8  -4  -7    2.31    3.75 
  -8  -4  -7    2.40    5.00 
   8  -4  -7   -1.97    3.94 
   8   4  -7    8.33    6.04 
   8  -4   7    1.11    6.25 
   8   4   7    1.66    6.87 
  -8  -4   7   -0.46    5.89 
  -8   4   7    1.08    5.37 
  -8  -4  -7   -0.35    5.01 
  -8   4  -7    2.27    3.65 
  -8  -4   7    6.78    4.55 
  -8   4   7    2.32    3.87 
  -9  -4  -7    8.99    6.99 
  -9   4   7    9.04    7.27 
  -9   4  -7    4.76    4.53 
  -9  -4   7   -2.30    2.94 
   9   4  -7    4.89    6.31 
   9  -4   7   11.86    7.19 
  -9  -4  -7    8.54    4.77 
   9  -4  -7   19.86    6.91 
  -9   4   7    9.23    4.73 
  -9  -4   7   15.36    8.09 
  -9  -4  -7   20.56    7.30 
   9  -4  -7   14.37    8.41 
  -9   4  -7    8.60    7.07 
   9   4   7   13.80    8.22 
 -10  -4  -7    5.76    4.89 
 -10   4   7    1.41    4.24 
 -10  -4  -7   -0.38    5.77 
  10   4  -7   12.10    7.85 
  10  -4   7   -4.82    6.08 
 -10  -4   7    7.30    4.72 
 -10  -4   7   -3.37    5.91 
 -10   4  -7    8.47    7.34 
  10   4   7   17.66    8.97 
 -10   4  -7    1.61    3.85 
  10  -4  -7   14.48    6.20 
 -11  -4   7    9.36    9.03 
 -11   4   7    3.59    9.68 
 -11  -4  -7    6.39    6.80 
 -11   4  -7   10.69    7.77 
   0   5   7  134.19   12.40 
   0  -5   7  140.82    6.45 
   0  -5   7  130.82   10.11 
   0  -5  -7  135.35    9.53 
   0   5  -7  151.00   10.87 
   0  -5  -7  126.40    8.69 
   0   5  -7  130.00   10.17 
   0   5   7  121.28   11.41 
   0  -5  -7  106.92    9.39 
   0  -5   7  125.39    9.40 
   0   5   7  124.44   11.05 
  -1  -5   7    4.44    2.86 
  -1  -5   7   -0.59    2.45 
  -1  -5  -7   -1.34    2.72 
   1   5   7    6.01    3.95 
   1  -5   7   -1.57    2.66 
  -1   5  -7    5.13    3.34 
  -1  -5  -7    2.87    2.81 
   1   5  -7    6.71    3.81 
   1  -5  -7    0.06    3.54 
   1   5   7   -0.28    3.09 
   1  -5  -7    2.77    2.61 
   1  -5  -7    2.78    2.94 
  -1   5   7    1.40    3.61 
  -1  -5   7    1.26    2.35 
   1   5  -7   -0.46    2.59 
   1   5   7   -4.36    3.91 
  -1   5   7   -1.57    3.31 
   1  -5   7   10.92    4.97 
  -1   5   7   -3.55    2.80 
  -1  -5  -7   -0.10    1.74 
  -1   5  -7    1.46    2.65 
  -2   5   7   52.58    7.39 
   2  -5  -7   53.69    8.90 
  -2   5   7   43.12    8.48 
  -2  -5   7   59.79    7.75 
   2   5   7   50.53    9.34 
   2  -5   7   45.99    7.33 
   2   5   7   42.13    9.06 
   2   5  -7   57.49    7.45 
   2  -5   7   63.12    9.94 
   2  -5  -7   67.06    6.84 
  -2   5  -7   66.34    8.58 
   2   5  -7   65.01    9.04 
   2   5   7   63.24    7.37 
  -2   5   7   41.67    7.66 
  -2  -5   7   50.45    8.47 
  -2  -5  -7   58.00    7.58 
  -2   5  -7   43.10    7.19 
  -2  -5  -7   45.38    6.81 
  -2  -5  -7   55.72    6.64 
  -2  -5   7   54.98    8.53 
  -3   5   7    4.10    4.49 
  -3  -5   7    5.10    3.91 
   3   5   7    2.61    4.81 
  -3   5   7    1.10    3.17 
   3   5   7    4.05    4.14 
  -3  -5   7    0.35    3.99 
   3  -5  -7   -2.05    2.30 
  -3   5   7   -1.69    2.21 
   3   5  -7   -0.11    3.15 
   3  -5   7    2.33    4.24 
  -3  -5  -7    1.41    3.59 
   3  -5  -7    0.63    4.02 
   3   5   7   -0.54    2.53 
  -3  -5   7   -2.74    2.95 
  -3  -5  -7   -3.99    2.16 
  -3   5  -7   -0.81    2.53 
   3  -5   7    6.47    3.53 
  -3   5  -7    1.42    2.95 
  -3  -5  -7    1.80    2.60 
   3   5  -7    0.78    3.11 
  -4  -5  -7   70.13    8.24 
   4   5  -7   84.73    6.96 
  -4   5   7   93.99   13.10 
  -4   5  -7   83.86    8.96 
   4  -5  -7   95.59    8.80 
   4  -5   7   75.26   11.94 
  -4  -5   7   86.84   10.52 
   4   5   7  103.03   14.79 
   4  -5  -7   73.98   11.08 
  -4   5   7   83.73    9.93 
  -4   5  -7   98.12   10.19 
  -4  -5   7   92.57   10.48 
   4  -5   7   98.12    9.53 
  -4  -5  -7   87.01    9.32 
  -4  -5  -7  101.61   10.07 
   4   5  -7   78.58   10.27 
  -4  -5   7   91.12   11.15 
   5  -5  -7    3.64    3.66 
  -5  -5  -7   -2.10    2.68 
  -5   5   7   -0.12    2.68 
   5  -5   7   -1.17    2.71 
   5   5   7   -3.17    5.85 
  -5  -5   7    2.65    4.23 
  -5  -5  -7   -1.60    2.21 
   5  -5   7   -1.97    3.78 
  -5   5  -7   -3.43    2.40 
   5  -5  -7   -1.09    4.84 
  -5   5  -7   -2.77    3.25 
  -5  -5   7    3.30    3.73 
  -5  -5   7   -2.12    3.27 
  -5  -5  -7    4.15    4.55 
   5   5  -7   -1.98    3.83 
  -5   5   7   -2.40    4.44 
  -6  -5  -7   23.64    6.57 
  -6  -5  -7   32.81    6.90 
   6   5   7   24.54    9.09 
   6  -5  -7   25.53    6.53 
  -6   5   7   31.83    6.93 
   6  -5   7   29.54    9.22 
   6  -5   7   26.16    5.76 
  -6  -5   7   18.55    5.58 
  -6   5  -7   31.36    7.53 
  -6   5   7   18.12    7.28 
  -6  -5   7   23.90    8.19 
  -6  -5   7   50.20    8.78 
   6  -5  -7   35.32   10.25 
   6   5  -7   25.43    7.58 
  -6  -5  -7   40.07    8.18 
  -6   5  -7   32.77    6.41 
  -7  -5  -7    7.66    4.68 
   7   5   7   -5.10    5.92 
  -7   5  -7    1.20    3.40 
   7  -5  -7   -1.03    5.60 
   7  -5   7   -0.26    4.51 
  -7   5   7   -1.26    5.32 
   7  -5  -7   -0.15    3.37 
  -7  -5  -7   -2.94    3.07 
  -7  -5   7    7.44    5.62 
  -7   5   7   -5.11    2.78 
   7  -5   7    0.09    3.35 
   7   5  -7    4.49    5.15 
  -7  -5   7    7.36    4.62 
  -7   5  -7    7.88    5.24 
  -7  -5  -7    0.63    4.31 
  -8  -5   7   21.85    9.93 
   8   5   7   26.21   10.58 
  -8  -5   7   53.67    9.58 
   8  -5  -7   43.61    9.07 
  -8  -5  -7   46.41    9.70 
  -8  -5  -7   46.45    9.90 
  -8   5   7   27.80    6.67 
  -8   5   7   40.35   10.34 
  -8   5  -7   23.63    8.37 
   8  -5  -7   40.23   12.13 
   8  -5   7   29.54   10.52 
  -8   5  -7   40.10    7.37 
   8   5  -7   37.02   10.03 
  -8  -5  -7   34.12    7.53 
  -9  -5  -7   -4.13    3.28 
  -9  -5   7   -3.47    5.60 
   9  -5   7    1.78    6.11 
  -9   5   7    4.18    3.66 
  -9   5  -7    7.10    6.37 
   9  -5  -7   -4.34    4.08 
  -9  -5   7    2.84    4.39 
   9   5  -7   -1.92    5.33 
  -9  -5  -7   -0.51    4.18 
  -9  -5  -7   -2.16    4.75 
   9  -5  -7   17.64    8.92 
  -9   5   7   -0.86    6.34 
   9   5   7   -0.94    6.35 
  -9   5  -7    4.41    4.39 
  10   5  -7    2.06    5.81 
  10  -5  -7   22.59    7.54 
 -10   5  -7   10.76    5.15 
  10   5   7   -1.86    7.67 
  10  -5   7   -4.26    6.30 
 -10  -5  -7    2.94    4.86 
 -10   5  -7   17.20    8.49 
  10  -5  -7   14.34    9.87 
 -10  -5   7   14.44    9.61 
 -10   5   7   14.67    5.91 
 -10  -5  -7   16.63    7.65 
 -10  -5   7    2.05    4.81 
   0   6   7   -3.36    4.21 
   0  -6   7   11.59    4.46 
   0  -6  -7    4.27    3.06 
   0   6  -7   22.21    5.11 
   0  -6  -7   22.28    4.00 
   0   6   7    1.78    3.30 
   0   6   7    5.44    4.18 
   0   6  -7   17.27    5.00 
   0  -6  -7    3.37    4.00 
  -1  -6  -7  214.48   13.16 
   1   6  -7  203.44   13.02 
  -1   6   7  196.34   13.86 
   1  -6   7  169.32   12.03 
  -1  -6  -7  207.57   10.97 
   1  -6  -7  227.27   14.40 
   1   6  -7  223.03   14.00 
   1   6   7  234.76   15.53 
   1   6   7  202.74   14.52 
  -1   6   7  198.85   13.96 
   1  -6  -7  180.25    9.80 
  -1   6  -7  245.49   14.95 
  -1  -6   7  210.02   13.18 
  -1  -6   7  196.69   12.42 
  -1  -6  -7  202.99   12.11 
  -1   6  -7  226.34   13.64 
   1   6   7  202.25   12.54 
  -1  -6   7  211.75   10.33 
  -1   6   7  211.62   13.42 
   2   6  -7    9.36    4.09 
  -2   6   7    2.00    3.31 
  -2  -6  -7    1.19    2.84 
  -2  -6   7   11.46    4.21 
  -2   6   7    3.49    4.26 
   2  -6  -7   11.37    3.18 
  -2  -6   7   13.26    4.40 
   2  -6  -7   15.16    5.46 
  -2   6  -7   12.16    3.69 
   2  -6   7   10.40    3.75 
  -2   6  -7   16.05    4.57 
  -2   6   7   -3.28    2.78 
   2   6  -7    5.83    3.71 
  -2  -6   7    3.71    3.43 
   2   6   7    1.80    3.46 
   2   6   7    8.56    4.39 
   2   6   7    1.45    4.60 
  -2  -6  -7    2.34    3.73 
   2  -6   7   19.09    5.40 
  -2  -6  -7    1.85    2.77 
   3  -6  -7  188.10   13.55 
  -3  -6  -7  205.78   11.26 
  -3  -6   7  176.92   12.30 
  -3   6  -7  217.93   12.93 
  -3   6  -7  168.94   11.45 
   3  -6   7  185.45   14.78 
  -3   6   7  217.69   11.92 
   3   6  -7  194.59   12.26 
   3   6   7  208.89   15.91 
  -3   6   7  202.69   15.02 
  -3  -6  -7  200.00   12.42 
   3  -6  -7  205.09   10.38 
   3  -6   7  190.45   12.51 
   3   6   7  212.93   10.80 
  -3   6   7  205.47   13.58 
   3   6  -7  187.61   13.04 
  -3  -6   7  211.54   13.34 
  -3  -6  -7  182.89   12.24 
  -3  -6   7  195.35   13.43 
   4   6   7   -1.86    5.00 
   4  -6  -7   15.10    6.19 
  -4   6  -7    3.37    3.47 
  -4  -6  -7    2.82    3.35 
  -4  -6  -7    0.78    3.56 
  -4   6  -7   13.61    4.09 
   4   6  -7    2.48    3.98 
  -4   6   7   -0.75    3.00 
  -4  -6  -7   -0.67    2.84 
  -4  -6   7   14.81    5.63 
  -4  -6   7   18.37    5.10 
   4  -6   7   14.45    6.29 
   4   6  -7    8.34    4.03 
  -4   6   7   -1.55    5.19 
  -4  -6   7    7.48    4.37 
   4  -6   7    5.76    3.91 
   4  -6  -7    0.61    2.96 
   5   6  -7  135.20   13.54 
  -5   6   7  115.63   11.35 
   5  -6  -7  118.74    9.36 
  -5  -6  -7  111.27   11.13 
   5   6   7  130.92   17.27 
  -5   6   7  121.81   15.01 
  -5  -6   7  124.26   12.31 
  -5   6  -7  125.40   11.83 
  -5  -6   7  139.60   14.86 
   5  -6   7  112.64    9.61 
   5  -6  -7  121.84   15.03 
  -5  -6   7  127.70   12.91 
  -5   6  -7  113.23    9.22 
  -5  -6  -7  123.85    9.96 
  -5  -6  -7  149.41   13.65 
   5  -6   7  109.50   14.82 
  -6   6   7   -7.24    4.71 
  -6  -6  -7   -1.69    3.44 
   6   6  -7   -2.28    3.69 
  -6   6   7    2.42    3.37 
  -6  -6   7   12.40    4.84 
   6  -6   7    8.68    4.00 
  -6   6  -7    6.74    3.59 
   6   6   7   12.78    7.56 
  -6   6  -7    7.10    4.86 
  -6  -6   7   10.18    5.91 
  -6  -6  -7    1.21    4.09 
   6  -6  -7    6.23    4.42 
  -6  -6  -7    2.39    4.56 
   6  -6   7    8.18    5.54 
  -6  -6   7    3.39    3.65 
   6  -6  -7    5.63    4.63 
  -7   6  -7   78.35   11.70 
  -7  -6  -7   76.90   11.57 
   7   6  -7  106.48   14.20 
   7  -6   7  103.88   15.74 
  -7   6   7   71.58   12.79 
  -7   6   7   70.46    9.73 
   7  -6   7  103.61   10.75 
   7  -6  -7   81.47   14.39 
  -7  -6   7   93.36   14.60 
  -7   6  -7   92.39    9.39 
   7   6   7   89.30   16.16 
  -7  -6  -7   77.75   11.12 
   7  -6  -7  113.28   11.83 
  -7  -6   7   84.28   11.96 
  -7  -6  -7   95.54   11.64 
  -8  -6  -7    0.05    5.26 
  -8   6   7    8.83    6.94 
  -8  -6   7    3.00    4.48 
  -8  -6  -7    1.73    4.12 
   8   6  -7    2.43    6.00 
  -8  -6  -7    2.65    5.84 
  -8  -6   7    3.12    5.92 
   8  -6  -7    8.82    5.49 
   8   6   7   24.03    9.50 
  -8   6   7    4.27    4.22 
   8  -6  -7    8.30    7.31 
  -8   6  -7    2.72    5.45 
   8  -6   7    8.08    6.51 
  -8   6  -7    9.62    4.07 
  -9  -6   7   38.83   11.56 
  -9  -6  -7   61.86   11.76 
   9   6   7   54.98   13.48 
  -9   6  -7   56.26    8.21 
   9  -6   7   67.16   14.05 
  -9   6   7   53.06   11.92 
  -9   6  -7   47.52   10.85 
  -9   6   7   40.10    7.41 
   9  -6  -7   53.59   14.42 
  -9  -6  -7   55.90    9.68 
  -9  -6  -7   43.43   10.04 
  -9  -6   7   48.02    9.71 
   9   6  -7   53.27   11.97 
 -10  -6  -7   -0.28    5.67 
 -10  -6   7    9.64    5.53 
  10   6  -7    7.49    7.23 
 -10  -6  -7   -2.84    5.00 
 -10  -6  -7    0.93    4.99 
 -10   6  -7   -0.52    4.24 
 -10   6  -7    9.77    7.54 
  10  -6   7   15.28    7.68 
 -10   6   7    7.86    6.74 
  10   6   7    6.39    8.52 
 -10   6   7    3.11    4.33 
 -10  -6   7    8.67    8.93 
  10  -6  -7    1.24    7.50 
   0   7   7   87.62   11.63 
   0   7  -7  112.56   11.57 
   0   7   7  103.59   12.14 
   0   7   7   97.86   11.40 
   0  -7   7  116.66   11.44 
   0  -7  -7   90.83    6.81 
   0  -7  -7  105.56   11.81 
   0   7  -7  104.60   11.87 
   0  -7   7   93.93    6.01 
  -1   7   7   -2.09    4.24 
   1   7   7    4.59    3.97 
   1   7  -7    1.61    3.92 
  -1  -7   7    5.69    3.51 
  -1  -7   7    3.31    3.55 
   1   7   7    5.40    3.95 
   1  -7   7    1.01    3.32 
  -1  -7  -7    2.23    2.85 
   1  -7  -7    7.06    3.02 
  -1   7  -7    8.68    4.59 
   1   7  -7    6.84    4.19 
   1  -7  -7    5.40    4.39 
   1   7   7   -0.01    4.37 
  -1   7  -7    4.14    4.35 
  -1   7   7    0.13    3.36 
  -1   7   7    0.40    3.62 
  -1  -7  -7    6.41    3.26 
  -1  -7  -7    5.55    4.12 
  -2   7  -7    1.93    5.28 
  -2  -7  -7   14.81    4.35 
  -2  -7  -7   15.10    4.08 
   2  -7  -7   21.55    4.12 
   2  -7   7   14.26    4.93 
  -2   7   7   12.36    5.04 
   2   7   7   25.50    7.20 
  -2  -7   7   25.78    6.35 
   2   7   7   17.41    5.43 
   2   7  -7   15.97    5.33 
   2   7   7   26.42    7.99 
  -2   7  -7   15.97    5.16 
  -2  -7   7   19.18    5.70 
   2  -7  -7   19.51    7.00 
  -2   7   7   14.60    6.40 
  -2  -7   7   16.38    5.10 
  -2  -7  -7   16.21    6.05 
  -2   7   7   25.86    6.65 
   2   7  -7   14.58    5.68 
   3   7   7    3.48    5.29 
   3  -7  -7    3.71    2.88 
  -3   7   7   -0.63    3.72 
   3   7  -7    3.20    3.91 
   3  -7   7    3.13    3.94 
  -3   7   7   -1.42    3.78 
  -3  -7  -7    4.58    3.07 
   3   7  -7    2.37    3.89 
  -3   7  -7    5.05    4.12 
  -3  -7   7    7.47    4.60 
  -3  -7  -7    1.74    4.20 
  -3  -7   7    1.80    3.88 
  -3   7  -7    3.89    3.24 
   3   7   7    5.14    3.45 
  -3  -7  -7    2.44    3.16 
   3  -7  -7    3.17    4.75 
  -3  -7   7   -1.87    3.19 
  -3   7   7    5.59    4.42 
   3  -7   7    8.67    5.79 
   4   7   7   89.95   14.22 
   4  -7  -7   91.31   13.05 
  -4  -7  -7   74.13    9.63 
   4  -7   7   83.80   13.17 
  -4  -7   7   62.75   10.22 
   4  -7   7   88.94   10.11 
   4   7  -7   94.68   10.06 
  -4   7  -7   76.35    8.81 
  -4  -7  -7   83.70    8.81 
   4  -7  -7   79.87    8.01 
  -4  -7  -7   82.70   10.58 
  -4   7   7   80.34   10.11 
  -4   7   7   78.72   12.71 
  -4   7  -7   91.71   10.62 
  -4  -7   7   91.88   11.66 
   4   7  -7   84.43   10.80 
  -4  -7   7   86.88   10.59 
  -5   7  -7   -2.59    3.72 
  -5  -7  -7   -0.41    3.52 
   5  -7   7   -5.37    2.93 
  -5  -7   7   -2.71    3.54 
   5   7   7    4.32    5.95 
  -5  -7  -7    5.89    3.90 
  -5   7  -7    2.12    3.44 
  -5  -7   7    5.08    4.52 
   5  -7  -7   -0.14    4.68 
   5  -7   7    5.10    5.36 
  -5  -7   7    5.62    4.88 
  -5  -7  -7    3.68    4.44 
  -5   7   7    1.24    3.36 
  -5   7   7   -1.94    4.81 
   5   7  -7   -3.29    3.70 
  -6  -7  -7    1.75    4.18 
  -6  -7  -7    9.56    4.53 
   6  -7   7    2.31    5.52 
  -6  -7   7    2.65    5.65 
  -6   7   7   -4.08    4.45 
   6  -7  -7    7.69    6.56 
  -6   7  -7   -1.35    3.87 
   6   7  -7   -1.90    4.21 
  -6   7   7    5.44    4.53 
  -6   7  -7    0.39    3.68 
  -6  -7   7    3.12    4.01 
  -6  -7   7    1.55    3.74 
   6   7   7    9.76    6.81 
  -6  -7  -7   -2.78    3.31 
   6  -7   7    3.50    4.01 
  -7  -7  -7   -1.48    4.52 
  -7  -7  -7    0.27    3.82 
  -7   7   7    0.21    5.58 
   7  -7   7    2.98    4.38 
   7  -7   7    0.82    5.80 
  -7   7  -7   -1.45    3.25 
  -7  -7  -7   -0.06    4.51 
  -7  -7   7    4.00    6.35 
   7  -7  -7    5.32    6.67 
   7   7  -7    2.15    5.27 
  -7   7  -7   -1.12    4.62 
   7   7   7    2.63    6.51 
  -7  -7   7    1.35    3.87 
  -7   7   7   -2.86    3.48 
  -8  -7  -7   53.69   10.29 
  -8  -7  -7   32.38    8.04 
  -8  -7   7   50.42    9.69 
  -8   7  -7   52.58    7.64 
   8  -7   7   44.58    8.45 
  -8   7   7   36.39   10.27 
  -8  -7  -7   44.98   10.40 
   8   7   7   47.62   13.06 
   8   7  -7   47.06   10.67 
  -8   7  -7   60.82   11.80 
   8  -7  -7   37.29   12.11 
  -8   7   7   52.77    9.10 
  -8  -7   7   24.50    9.66 
   8  -7   7   33.92    9.95 
  -9  -7  -7   -1.12    5.16 
  -9   7  -7    2.00    3.84 
  -9  -7   7    0.82    4.34 
   9   7  -7   -0.61    5.60 
   9   7   7   -5.80    7.07 
  -9  -7  -7    4.32    5.85 
  -9   7   7   -0.29    3.76 
   9  -7  -7    7.08    8.79 
  -9  -7   7    4.66    6.14 
  -9  -7  -7    3.50    4.60 
  -9   7   7    4.47    6.47 
  -9   7  -7   -5.56    4.87 
   9  -7   7    0.55    6.26 
  10  -7   7  -10.07    7.02 
 -10  -7   7    0.45    5.33 
  10  -7  -7  -14.35    5.28 
 -10   7  -7   -2.74    6.27 
 -10   7  -7   -1.57    3.67 
 -10  -7  -7   -0.64    6.06 
 -10  -7   7  -12.64    5.80 
  10   7  -7    4.07    6.96 
 -10  -7  -7   -5.45    5.04 
 -10   7   7    1.09    3.40 
 -10  -7  -7    2.67    5.59 
 -10   7   7   -7.09    6.24 
  10   7   7   -1.47    8.05 
   0   8   7    3.93    5.14 
   0  -8  -7   18.82    6.36 
   0   8   7    1.55    4.12 
   0   8  -7   13.04    4.83 
   0   8  -7   15.64    5.96 
   0   8   7   -0.17    3.53 
   0  -8   7    8.26    4.16 
  -1   8  -7    9.26    5.48 
   1  -8  -7    6.39    5.35 
   1   8   7    2.70    3.78 
   1   8   7    0.45    3.76 
  -1  -8   7    2.74    3.34 
  -1  -8  -7    1.11    4.24 
  -1   8   7    6.10    4.32 
  -1  -8  -7    5.26    3.45 
   1  -8   7    1.63    3.92 
  -1   8  -7    3.71    3.75 
  -1   8   7    0.68    3.29 
  -1   8   7    0.98    4.90 
  -1  -8   7    2.23    4.03 
   1   8   7    3.76    5.33 
   1   8  -7   -2.97    3.24 
   1   8  -7    0.33    3.88 
   2   8  -7   21.92    5.79 
  -2   8   7    4.53    5.00 
  -2  -8   7   33.76    6.66 
  -2   8   7    3.87    4.63 
   2   8   7   10.63    5.45 
   2  -8  -7   29.30    7.01 
  -2   8   7    7.47    5.15 
   2   8   7    6.93    4.48 
  -2   8  -7   41.32    8.05 
   2   8  -7   24.68    6.16 
   2   8   7   16.17    6.95 
  -2  -8   7   19.90    5.06 
  -2   8  -7   53.44    7.88 
   2  -8   7   22.33    5.80 
  -2  -8  -7   21.14    6.24 
  -2  -8  -7   20.79    4.66 
  -3   8  -7   10.39    5.05 
  -3   8  -7  -10.19    2.76 
  -3   8   7   -0.92    3.09 
  -3  -8  -7    0.40    2.60 
   3   8   7    1.64    5.99 
   3  -8   7   -0.13    3.48 
  -3  -8  -7    1.18    2.95 
  -3  -8   7    0.24    3.26 
  -3  -8   7    1.84    4.46 
  -3   8   7    1.24    4.05 
   3   8  -7    4.27    4.53 
   3  -8  -7   -3.40    4.74 
  -3   8   7   -2.26    3.83 
   3   8  -7    0.83    3.92 
  -3  -8  -7    5.26    5.03 
  -4  -8  -7    1.13    4.29 
   4  -8   7    0.93    5.06 
   4   8  -7    6.70    4.65 
  -4  -8   7    2.53    3.88 
   4  -8  -7   10.81    6.54 
   4   8   7    1.92    5.93 
  -4  -8   7   -1.22    3.35 
  -4   8  -7    5.54    4.15 
   4  -8   7    6.78    4.56 
  -4   8   7   -0.18    3.53 
  -4  -8  -7   -0.79    3.00 
  -4  -8   7    7.83    4.49 
  -4  -8  -7    1.09    3.86 
  -4   8  -7   16.94    5.63 
   4   8  -7    5.06    4.57 
  -4   8   7    1.00    5.25 
  -5  -8  -7    0.80    3.14 
  -5   8  -7    2.16    3.39 
   5   8  -7    0.47    4.79 
  -5  -8   7    0.57    3.82 
  -5  -8   7   -1.91    3.99 
  -5   8   7   -5.53    5.07 
   5   8  -7   -0.82    4.01 
   5  -8   7    1.03    4.03 
  -5  -8  -7    8.71    5.52 
   5   8   7   -1.58    6.13 
  -5  -8   7    1.81    5.21 
  -5  -8  -7    0.73    3.63 
   5  -8  -7   11.34    6.21 
   5  -8   7   12.91    6.93 
  -5   8  -7    4.77    4.40 
  -5   8   7    0.03    3.59 
   6  -8   7   19.30    5.69 
   6   8  -7   14.85    6.26 
  -6  -8  -7    8.03    5.71 
  -6  -8  -7    3.19    3.99 
  -6   8  -7   13.86    6.14 
   6  -8   7   24.21    7.68 
  -6   8  -7   16.95    4.76 
   6   8   7   19.65    8.58 
  -6  -8   7    5.32    4.61 
  -6   8   7    5.41    4.20 
  -6   8   7    8.31    6.56 
  -6  -8   7   10.82    6.30 
   6  -8  -7   23.85    7.49 
  -6  -8  -7    2.77    4.30 
  -7  -8  -7    2.73    4.47 
  -7   8  -7    5.49    4.05 
  -7   8  -7   -1.90    4.80 
   7  -8  -7    3.14    5.45 
  -7   8   7    3.54    5.85 
  -7  -8   7   -5.02    4.89 
   7  -8   7    1.74    5.75 
   7  -8   7   -0.16    4.11 
   7   8  -7    0.94    5.13 
  -7  -8   7    3.50    4.53 
   7   8   7    6.09    6.94 
  -7   8   7   -4.12    3.72 
  -7  -8  -7    0.87    4.28 
  -7  -8  -7    0.31    4.97 
  -8   8  -7    0.52    5.46 
   8  -8  -7   -1.79    6.54 
  -8  -8  -7   -2.28    5.96 
  -8   8   7    9.68    5.07 
  -8  -8   7   14.31    5.78 
   8  -8   7   -4.97    3.82 
   8   8   7   10.64    8.09 
   8   8  -7   -1.31    5.46 
  -8  -8   7    1.88    6.85 
  -8  -8  -7   -2.28    4.16 
   8  -8   7    6.73    7.34 
  -8  -8  -7   -1.52    5.02 
  -8   8  -7    4.40    3.67 
  -8   8   7   -6.29    5.53 
   9   8   7    4.11    7.68 
   9   8  -7   -1.23    5.90 
  -9   8   7   -0.46    6.75 
  -9   8  -7   -1.35    3.82 
  -9  -8  -7   -0.37    5.51 
  -9  -8   7    1.69    6.80 
  -9  -8   7    3.38    4.48 
   9  -8   7   -2.25    6.75 
   9  -8  -7    0.80    7.34 
  -9  -8  -7    3.26    5.86 
  -9  -8  -7   -2.34    4.19 
  -9   8   7    3.78    4.06 
   0  -9   7  135.01   11.50 
   0   9   7  136.65   14.78 
   0  -9  -7  139.99   12.56 
   0   9  -7  185.86   12.85 
   0   9   7  140.42   13.58 
   0   9  -7  134.42   12.45 
   0   9   7  144.40   15.18 
   1   9  -7    4.63    4.20 
  -1   9   7    2.70    4.29 
   1  -9  -7    0.70    5.44 
   1   9  -7    3.88    4.73 
  -1   9   7    0.38    4.45 
   1   9   7    1.12    4.96 
   1   9   7    3.88    4.28 
   1  -9   7    4.90    4.50 
   1   9   7   -4.38    3.42 
  -1   9  -7    6.42    4.45 
  -1  -9   7    6.11    4.40 
  -1  -9  -7    1.68    5.07 
  -1  -9   7    3.59    3.57 
  -1   9   7    0.09    5.08 
  -1   9  -7    6.45    5.06 
  -2  -9  -7   13.25    6.14 
  -2   9   7   10.39    6.08 
   2   9  -7    8.66    4.44 
  -2   9   7    3.64    4.57 
   2   9   7    5.46    4.62 
  -2   9  -7    7.54    6.18 
  -2   9  -7   12.79    5.34 
  -2  -9   7   14.94    5.37 
   2  -9   7    3.63    4.56 
  -2  -9   7    9.78    5.14 
   2   9   7   11.98    6.97 
  -2   9   7   10.47    6.00 
   2   9   7   10.56    6.43 
   2  -9  -7    7.23    6.45 
   2   9  -7   11.00    5.92 
   3  -9  -7    0.20    4.76 
   3   9  -7   -0.31    4.35 
   3   9   7    3.88    6.65 
  -3   9   7    4.20    3.95 
  -3  -9  -7    5.10    5.06 
   3  -9   7    1.87    3.97 
  -3   9  -7   -1.44    4.32 
  -3   9   7   -8.00    3.90 
  -3  -9   7    1.98    3.72 
   3   9  -7   -2.20    3.72 
  -3   9  -7    5.90    4.26 
  -3  -9   7    1.38    4.19 
  -3   9   7    1.95    5.13 
  -4   9   7   82.40   10.58 
   4   9  -7   98.65   11.64 
  -4  -9   7  117.59   12.87 
   4   9  -7   90.78   11.54 
  -4  -9  -7   99.91   12.70 
  -4   9  -7  118.41   12.27 
   4  -9   7   95.99   12.04 
  -4   9  -7  102.76   15.13 
  -4  -9  -7  103.79    9.45 
  -4  -9   7   96.76   11.42 
   4  -9  -7  128.50   15.44 
  -4   9   7   88.43   13.50 
   4   9   7   91.09   15.45 
   5   9  -7    0.34    4.27 
  -5  -9  -7    1.28    3.67 
  -5   9  -7    2.82    7.00 
  -5  -9   7   -1.36    4.54 
  -5   9   7   -0.89    5.22 
   5  -9  -7   -6.66    5.28 
   5   9   7    0.28    6.63 
  -5  -9  -7    2.03    3.67 
   5  -9   7   -3.00    3.19 
  -5   9  -7    4.08    4.70 
  -5  -9  -7    0.63    5.31 
  -5  -9   7    2.54    3.78 
  -5   9   7    2.67    4.22 
   5   9  -7    1.74    4.28 
   6   9   7    4.15    7.25 
  -6   9   7   -4.67    5.90 
  -6  -9  -7    3.46    6.44 
  -6   9   7    4.40    4.35 
  -6  -9  -7    0.15    4.02 
  -6  -9  -7   -4.32    3.64 
   6  -9  -7   -2.54    5.30 
   6  -9   7    4.07    5.03 
   6   9  -7    1.87    4.90 
  -6  -9   7    7.44    6.19 
  -7   9   7    1.18    5.73 
  -7  -9  -7    4.48    6.46 
  -7   9  -7   -3.27    3.72 
  -7  -9  -7    1.50    5.01 
   7  -9   7    3.74    6.72 
   7  -9  -7    5.07    7.24 
   7   9  -7   -2.56    4.96 
  -7   9   7    1.70    4.10 
   7   9   7    7.55    7.20 
  -7  -9   7    1.63    5.44 
   7  -9   7    0.57    4.04 
  -7  -9  -7   -8.05    2.53 
  -8  -9  -7   36.48    8.60 
   8  -9   7   59.15   10.25 
   8  -9   7   37.81   11.44 
   8  -9  -7   59.28   14.12 
  -8   9   7   27.10    7.17 
  -8  -9  -7   42.75   11.34 
  -8  -9  -7   25.59    8.25 
   8   9   7   48.78   13.07 
  -8   9   7   32.05   10.63 
  -8   9  -7   29.87    6.50 
  -8  -9   7   38.65   11.83 
   8   9  -7   26.91    9.13 
   9  -9   7  -12.65    5.39 
   9  -9  -7   -5.57    6.45 
  -9  -9  -7    2.67    5.62 
  -9   9   7   -1.57    7.13 
  -9   9  -7   -2.08    3.66 
  -9  -9  -7    4.08    5.32 
  -9  -9   7    6.51    8.03 
  -9  -9  -7    7.04    7.26 
  -9   9   7   -0.88    4.39 
   9   9   7   -2.48    8.02 
   9   9  -7    3.24    6.59 
   0  10  -7   48.75    9.64 
   0  10   7   23.07    7.17 
   0 -10  -7   40.97    9.79 
   0  10   7   21.05    7.49 
   0  10  -7   50.83    7.95 
   0  10   7   28.64    7.86 
   0 -10   7   34.79    7.85 
   1  10   7  120.29   15.47 
   1  10  -7  104.53   14.41 
   1  10   7   87.36   11.27 
  -1  10  -7  129.54   15.51 
  -1  10  -7  121.17   12.03 
  -1 -10   7  106.63   12.56 
   1 -10  -7  108.87   14.57 
  -1 -10  -7  112.35   13.86 
  -1  10   7   90.45   12.86 
  -1  10   7  105.76   13.53 
   1  10   7   92.63   13.41 
   1  10  -7  118.01   11.70 
  -1  10   7  128.45   14.67 
   1 -10   7  101.40   12.42 
   2  10   7    9.10    7.42 
  -2  10  -7   25.71    5.96 
  -2  10   7    6.11    5.66 
  -2 -10   7   22.05    6.13 
   2  10   7    2.77    4.45 
  -2  10  -7   22.76    7.14 
   2  10  -7    9.64    4.46 
   2  10  -7   28.76    7.76 
   2 -10  -7   23.11    8.10 
  -2  10   7   -1.52    4.60 
  -2  10   7   11.74    5.47 
  -2 -10   7   16.24    5.10 
   2 -10   7   17.74    5.98 
  -2 -10  -7   15.04    6.58 
   2  10   7    4.29    4.26 
  -3  10   7  128.34   13.06 
   3  10  -7   82.82   10.49 
  -3  10   7   88.27   11.68 
   3 -10  -7  111.84   14.83 
  -3  10  -7   73.43   12.91 
   3 -10   7   91.91   12.10 
   3  10   7   91.61   15.00 
   3  10  -7  107.57   13.58 
  -3 -10   7   90.32   11.62 
  -3 -10   7  125.70   12.64 
  -3 -10  -7  106.62   13.47 
  -3  10   7   72.12   12.53 
   4 -10  -7   48.12   10.30 
  -4  10   7   22.88    6.76 
  -4 -10   7   39.02    7.88 
   4 -10   7   34.76    7.81 
  -4  10   7   22.08    8.03 
   4  10  -7   27.46    6.98 
  -4  10  -7   43.50   10.17 
  -4 -10   7   26.51    6.99 
  -4 -10  -7   28.66    8.53 
   4  10  -7   42.62    8.45 
   4  10   7   22.39    9.07 
  -5 -10  -7   51.73   11.03 
   5 -10  -7   65.45   13.79 
  -5  10   7   49.44   11.14 
  -5 -10   7   59.73   10.74 
  -5  10  -7   43.40   11.71 
  -5  10   7   55.66    9.21 
   5  10  -7   61.00   11.13 
   5 -10   7   56.35   10.08 
   5  10   7   61.62   13.78 
   5  10  -7   53.32   10.28 
  -6 -10   7   13.09    7.05 
   6 -10  -7   28.00    8.71 
   6  10   7   12.45    8.11 
  -6 -10  -7   17.36    7.63 
   6 -10   7   19.35    6.33 
  -6  10   7    5.59    5.00 
  -6  10  -7   16.47    8.69 
   6  10  -7   22.24    7.23 
  -6  10   7   -0.42    6.76 
  -7  10  -7   49.23   12.99 
   7  10  -7   34.35    9.28 
   7 -10   7   51.14    9.84 
   7  10   7   50.55   13.56 
  -7 -10  -7   40.03   11.23 
   7 -10  -7   60.67   13.39 
  -7  10   7   34.21    7.39 
  -7  10   7   54.91   12.27 
  -7 -10   7   50.30   12.43 
   8  10   7   25.23    9.12 
  -8 -10   7   15.26    8.09 
   8 -10  -7   32.87   10.67 
  -8  10   7   16.06    5.95 
  -8 -10  -7   24.64    9.51 
   8 -10   7   48.57    9.22 
   8  10  -7   27.15    8.14 
  -8  10   7   22.31    9.70 
  -8  10  -7   36.65   11.78 
  -9  10   7   22.28    9.54 
  -9  10   7   22.67    6.84 
  -9 -10  -7   30.80   10.73 
  -9 -10   7   38.88   11.47 
  -9  10  -7   28.88   11.49 
   9  10  -7   20.01    8.67 
   9 -10  -7   25.28    9.86 
   9  10   7   33.34   11.72 
   0  11   7   28.45    9.76 
   0 -11   7   35.43    8.34 
   0  11  -7   42.49   10.27 
   0  11   7   30.73    8.41 
   0  11   7   24.33    8.23 
   0 -11  -7   35.69   10.16 
  -1  11  -7   -9.27    4.52 
  -1 -11  -7   -2.77    5.31 
  -1  11   7   -3.55    3.99 
   1 -11  -7   -1.10    5.92 
  -1  11   7   -1.38    4.69 
   1  11   7   -1.38    4.04 
  -1 -11   7    5.20    4.62 
  -1  11   7    0.83    4.09 
   1  11   7    3.03    6.06 
   1  11  -7    3.85    6.24 
   1  11   7   -5.04    3.88 
   1 -11   7   -3.38    4.03 
  -2 -11  -7   25.89    8.99 
  -2  11   7   15.39    6.21 
   2  11   7   16.52    5.42 
   2 -11  -7   30.05    9.19 
  -2  11   7   14.58    6.99 
   2  11  -7   13.07    7.10 
   2 -11   7   24.41    7.30 
  -2 -11   7   14.60    6.47 
   2  11   7   23.91    8.69 
  -2  11   7   31.67    8.55 
   2  11  -7   24.94    6.17 
  -2  11  -7   19.56    8.59 
  -3  11  -7   -6.00    5.26 
  -3  11   7   -2.22    4.72 
  -3  11   7    1.00    4.70 
  -3  11   7   -3.43    3.46 
  -3 -11   7    0.71    4.32 
  -3 -11  -7    4.06    6.09 
   3  11  -7    7.46    5.80 
   3 -11   7    1.10    4.27 
  -3 -11   7   -0.56    4.42 
   3  11   7    7.85    7.59 
   3  11  -7    4.36    4.06 
   3 -11  -7   -9.03    4.11 
  -4  11  -7   34.28   10.72 
  -4 -11  -7   44.95   10.80 
  -4 -11   7   42.44    9.51 
  -4  11   7   37.68    9.61 
   4 -11  -7   49.09   11.37 
   4  11  -7   33.01    7.53 
  -4 -11   7   31.53    7.97 
  -4  11   7   32.21    7.66 
   4 -11   7   29.41    7.99 
   4  11   7   23.03   10.32 
   4  11  -7   47.22    9.83 
   5  11  -7   -2.85    5.07 
   5  11   7   -5.50    6.58 
  -5  11   7   -2.67    3.81 
   5 -11   7    3.88    4.27 
   5 -11  -7    5.51    6.76 
  -5 -11  -7   -3.19    4.75 
   5  11  -7   -6.12    5.53 
  -5  11  -7   -1.23    6.26 
  -5  11   7    8.16    6.71 
  -5 -11   7    1.55    4.58 
  -6  11   7   13.37    5.86 
   6 -11   7   21.15    7.89 
  -6 -11  -7   28.27   10.13 
   6  11   7   26.41   11.03 
   6 -11  -7   25.21    9.90 
  -6  11   7   17.66    7.43 
  -6 -11   7   12.71    7.40 
   6  11  -7    8.72    6.20 
  -6  11  -7   14.78    9.52 
   7  11  -7   -3.94    5.22 
  -7 -11   7   -0.73    5.49 
   7  11   7   -3.44    7.59 
  -7  11   7   -5.01    6.24 
   7 -11   7    8.99    5.85 
  -7  11   7    0.78    4.63 
   7 -11  -7   11.96    7.66 
  -7  11  -7    6.20    7.82 
  -7 -11  -7   -3.64    5.74 
  -8  11   7   26.56    9.74 
   8  11  -7   11.88    7.48 
  -8 -11   7   17.24    8.26 
  -8  11  -7   23.15   11.49 
   8  11   7   31.44   12.31 
   8 -11   7   37.18    9.45 
  -8 -11  -7   25.51    9.59 
   8 -11  -7   19.66    9.32 
  -8  11   7   31.37    7.81 
   0  12   7    8.98    6.16 
   0 -12   7   30.10    8.22 
   0 -12  -7   27.12    9.34 
   0  12  -7   44.26   10.53 
   0  12   7   22.52    9.18 
   0  12   7   15.85    6.89 
   1 -12  -7   -1.93    4.71 
   1  12   7    2.19    5.30 
  -1  12  -7   -0.33    5.80 
   1  12   7   -0.03    4.29 
  -1  12   7    1.68    6.32 
  -1  12   7   -0.75    4.02 
   1 -12   7    0.22    4.79 
  -1 -12  -7   -1.66    5.75 
   1  12  -7    5.26    6.43 
  -1  12   7   -0.20    4.54 
  -1 -12   7   -0.57    4.94 
   1  12   7   -2.34    5.93 
   2 -12   7   50.51    9.78 
  -2  12  -7   60.57   11.32 
  -2  12   7   31.18    9.12 
   2 -12  -7   67.94   12.49 
  -2  12   7   34.61    9.08 
  -2  12   7   37.02    9.50 
   2  12   7   28.21    9.83 
   2  12  -7   70.17   12.52 
  -2 -12  -7   42.93   10.15 
  -2 -12   7   44.11    8.61 
  -3 -12   7    6.32    4.56 
  -3 -12  -7    0.60    5.83 
   3  12  -7   -3.89    5.05 
  -3  12   7   -4.90    4.75 
   3 -12  -7   -3.45    5.82 
  -3  12  -7    4.51    7.27 
   3 -12   7    0.50    4.64 
  -3  12   7    8.60    4.83 
   3  12   7   -6.16    6.18 
   4  12  -7   15.57    6.99 
   4 -12  -7   20.87    8.52 
  -4  12  -7   40.32   10.28 
  -4  12   7   14.95    6.46 
   4  12   7   24.34   10.75 
  -4 -12  -7   14.95    7.56 
  -4  12   7   27.09    8.99 
   4 -12   7   19.85    7.23 
  -4 -12   7   23.76    6.79 
  -4 -12   7   18.80    7.09 
  -5 -12  -7    1.14    6.05 
   5 -12  -7   -1.09    6.34 
  -5  12  -7    8.38    7.97 
  -5  12   7    0.60    3.96 
  -5 -12   7   -2.75    5.51 
  -5  12   7   -2.81    5.02 
   5  12   7    3.20    8.08 
   5  12  -7    1.39    5.80 
   5 -12   7    5.85    5.66 
  -6  12  -7   38.66   11.18 
   6  12   7   39.00   12.57 
  -6 -12   7   34.44   10.32 
  -6 -12  -7   24.50    9.84 
  -6  12   7   35.89   10.28 
  -6  12   7   10.78    6.09 
   6 -12  -7   49.33   11.29 
   6 -12   7   38.77    9.39 
  -7  12   7   -1.44    4.05 
  -7  12   7    2.18    6.94 
  -7  12  -7    3.63    8.12 
   7  12   7  -11.82    6.68 
  -7 -12   7    8.74    6.55 
  -7 -12  -7    2.17    6.36 
   7 -12  -7    1.23    7.85 
   7 -12   7    1.79    5.53 
   0  13   7   23.26    8.21 
   0  13   7   31.45    8.72 
   0 -13   7   25.97    8.35 
   0  13   7   23.43    9.31 
   0  13  -7   30.31   10.18 
   0 -13  -7   18.41    8.16 
   1 -13  -7   -1.43    5.26 
  -1  13   7    1.82    6.42 
  -1  13   7    1.84    5.14 
   1  13   7    3.58    4.51 
  -1 -13  -7    6.85    6.66 
  -1 -13   7    3.17    5.26 
  -1  13  -7    5.75    6.93 
   1  13   7    4.74    7.10 
   1  13   7    2.60    5.45 
  -1  13   7    1.18    5.48 
   1  13  -7    6.47    6.74 
   1 -13   7    8.49    6.44 
  -2  13   7   -7.22    5.14 
   2 -13   7    6.36    5.87 
  -2 -13   7    4.59    5.34 
  -2  13   7   11.83    6.25 
   2  13  -7   13.18    6.93 
  -2  13   7    8.03    5.92 
  -2 -13  -7    1.82    6.69 
  -2  13  -7   12.70    8.27 
   2  13   7    2.96    6.90 
   2 -13  -7    6.09    5.89 
  -3  13   7   -0.10    4.32 
  -3  13   7    0.51    5.50 
   3  13  -7    3.40    5.72 
   3 -13  -7   -2.35    5.29 
   3  13   7   12.70    9.15 
  -3 -13   7   10.28    5.75 
   3 -13   7   12.43    6.86 
  -3 -13  -7   -6.20    5.82 
  -3  13  -7    5.46    6.33 
   4  13  -7   52.28   11.07 
  -4  13  -7   13.66    8.12 
  -4  13   7   22.32    7.44 
   4 -13  -7   17.76    9.19 
  -4  13   7   24.70    8.88 
   4 -13   7   18.45    7.47 
   4  13   7   14.72   10.23 
  -4 -13  -7   22.87    8.98 
  -5  13   7    4.22    6.45 
   5 -13  -7    3.58    7.10 
  -5  13  -7    1.06    7.36 
   5  13   7    0.72    8.28 
   5  13  -7   12.82    6.63 
  -5 -13  -7    6.25    7.16 
  -5 -13   7   -2.50    5.14 
   5 -13   7   -1.64    4.71 
  -5  13   7    8.02    4.91 
   6 -13  -7   -8.11    5.42 
  -6 -13   7    8.22    6.73 
  -6  13  -7    8.75    8.68 
   6  13   7    4.53    9.17 
  -6  13   7   11.02    8.23 
  -6 -13  -7    6.36    8.30 
  -6  13   7    2.39    5.06 
   6 -13   7    9.42    6.13 
  -7 -13   7   -2.18    6.48 
   7  13   7   17.03   10.07 
  -7 -13  -7   -1.19    6.02 
  -7  13   7    3.14    4.85 
   7 -13  -7   -1.48    7.31 
  -7  13   7   -1.72    6.11 
   7 -13   7   -0.96    5.83 
  -7  13  -7    4.50    7.53 
   0  14   7   55.19   12.22 
   0  14  -7   75.40   13.92 
   0  14   7   43.33   11.53 
   0 -14  -7   60.21   12.75 
   0  14   7   45.45   10.33 
   0 -14   7   63.80   12.30 
   1 -14   7    5.64    6.34 
  -1  14  -7    1.72    7.90 
   1  14  -7    9.92    7.40 
  -1 -14  -7    4.18    6.92 
  -1  14   7   25.04    9.51 
  -1  14   7   10.64    6.71 
  -1  14   7    8.67    5.88 
  -1 -14   7   15.96    8.08 
   1  14   7   11.91    8.12 
   1 -14  -7    3.11    6.85 
   2  14   7   40.68   11.24 
  -2  14   7   23.97    9.43 
   2  14  -7   35.94    9.82 
  -2  14   7   32.56    9.24 
  -2  14  -7   42.44   10.88 
   2 -14  -7   39.89   10.81 
  -2 -14   7   16.48    7.60 
   2 -14   7   29.99    8.62 
  -2  14   7   13.22    7.43 
  -2 -14  -7   32.66   11.03 
  -3  14   7    7.48    6.21 
  -3 -14  -7    6.97    7.74 
  -3  14   7   13.56    6.89 
  -3  14  -7    1.93    8.36 
   3  14   7   21.81   10.43 
   3 -14   7    3.48    6.26 
   3  14  -7   28.84    8.76 
   3 -14  -7    0.66    7.01 
  -3 -14   7    7.72    6.25 
   4  14   7   26.74   11.46 
  -4  14  -7   69.44   13.36 
   4 -14   7   71.67   12.51 
  -4 -14  -7   56.54   13.09 
  -4  14   7   36.40    9.23 
  -4  14   7   35.25   10.53 
   4  14  -7   59.40   11.97 
   4 -14  -7   68.17   12.96 
   5 -14   7   -1.49    6.34 
   5 -14  -7    4.82    7.76 
  -5  14   7   11.65    6.04 
  -5 -14  -7   10.45    8.43 
   5  14  -7   20.26    9.17 
  -5  14  -7    6.85    8.47 
   5  14   7   -1.88    7.61 
  -5  14   7   11.05    7.77 
   6  14   7   35.52   13.19 
   6 -14  -7   27.71    9.65 
  -6  14   7   30.12    8.02 
   6 -14   7   38.22   10.00 
  -6  14   7   23.00    9.30 
  -6 -14  -7   35.07   10.89 
  -6  14  -7   35.64   11.11 
   0  15  -7   25.54   10.82 
   0  15   7   24.56    9.39 
   0  15   7   15.98    7.40 
   0  15   7   13.88    6.23 
   0 -15   7   21.11    8.67 
   0 -15  -7   10.03    7.83 
  -1  15   7    7.06    6.32 
  -1 -15  -7    2.80    6.81 
   1  15  -7  -10.92    5.93 
   1  15   7   -6.65    7.01 
  -1 -15   7    0.67    5.55 
  -1  15   7   12.55    8.30 
   1 -15   7   -3.95    5.36 
  -1  15   7    5.20    5.29 
   1 -15  -7    2.36    6.51 
  -1  15  -7    1.40    6.59 
  -2  15  -7    9.35    9.16 
  -2  15   7    7.47    7.01 
   2 -15   7   10.56    7.68 
   2 -15  -7   24.49    9.23 
   2  15   7   10.60    9.13 
   2  15  -7   14.88    9.40 
  -2 -15  -7   27.20   10.15 
  -2  15   7   18.59    8.23 
  -2  15   7   16.51    8.67 
  -2 -15   7   17.89    8.06 
  -3  15  -7   -6.95    6.18 
  -3  15   7   -0.54    5.65 
  -3  15   7    3.34    5.64 
   3  15   7    5.01    8.16 
   3  15  -7   -4.12    6.55 
  -3 -15  -7    0.96    6.89 
   3 -15  -7  -18.79    4.89 
   3 -15   7    3.75    6.81 
  -4 -15  -7   26.28   10.48 
   4 -15  -7   33.65   10.33 
   4  15  -7   29.40   10.54 
   4  15   7   30.70   12.26 
  -4  15   7   18.46    8.08 
  -4  15  -7   21.27   10.47 
  -4  15   7   32.13    9.02 
   4 -15   7    8.50    7.53 
  -5  15   7    0.22    5.52 
   5  15   7    1.14    8.42 
   5  15  -7   10.20    8.18 
  -5  15  -7    8.71    8.00 
   5 -15   7    1.19    6.23 
   5 -15  -7    2.43    6.99 
  -5 -15  -7    2.79    7.08 
  -5  15   7    4.97    6.47 
   0 -16  -7   64.01   15.02 
   0 -16   7   62.07   12.17 
   0  16  -7   32.66   10.99 
   0  16   7   35.61   11.58 
  -1  16   7   10.57    7.13 
  -1 -16  -7   -2.34    6.73 
   1  16   7    4.83    7.65 
  -1 -16   7    1.07    6.87 
  -1  16  -7    1.01    8.32 
  -1  16   7    6.74    8.39 
   1 -16   7    2.61    6.09 
  -1  16   7   12.40    6.65 
   1 -16  -7   -3.88    7.89 
   1  16  -7    5.73    7.74 
  -2 -16   7   77.64   13.23 
  -2  16   7   49.11   11.56 
   2 -16   7   85.32   14.55 
  -2  16   7   50.55   11.68 
   2  16  -7  108.25   17.81 
   2  16   7   71.51   14.87 
   2 -16  -7   70.25   14.58 
  -2  16  -7   74.25   14.95 
  -2  16   7   66.04   13.34 
  -2 -16  -7   53.86   14.04 
  -3  16  -7   11.56   10.54 
   3  16   7    4.55    8.64 
  -3  16   7    3.77    5.25 
  -3  16   7    1.29    6.11 
   3 -16   7    2.14    6.77 
  -3 -16  -7    6.55    8.43 
   3  16  -7    5.58    8.22 
   3 -16  -7   -6.44    6.06 
   0   0  -8 3334.42   85.60 
   0   0  -8 3153.46   86.70 
   0   0   8 3294.50   88.55 
   0   0   8 3214.82   85.51 
   0   0  -8 3235.73   87.55 
   0   0   8 3292.88   87.71 
   1   0   8   -2.30    2.51 
  -1   0  -8    2.34    2.51 
  -1   0  -8    3.63    2.86 
  -1   0  -8    4.58    2.98 
  -1   0   8    1.50    2.66 
  -1   0   8    5.32    3.69 
   1   0   8    0.81    2.90 
   1   0   8    3.15    2.57 
   1   0  -8    3.56    3.19 
   1   0  -8    5.16    3.84 
   1   0  -8   -1.09    3.13 
  -1   0   8   -1.75    2.35 
   2   0  -8 1036.57   35.05 
  -2   0   8 1072.43   29.95 
   2   0  -8 1019.88   35.45 
   2   0  -8 1072.79   35.58 
  -2   0  -8 1059.46   34.22 
  -2   0  -8 1087.38   30.52 
  -2   0   8 1043.72   37.06 
  -2   0   8 1029.84   36.01 
  -2   0  -8 1031.68   34.66 
   2   0   8 1037.84   37.36 
   2   0   8  987.51   32.97 
   2   0   8 1147.05   35.81 
  -3   0   8    1.05    3.81 
   3   0   8    3.76    4.24 
   3   0  -8    2.49    3.95 
   3   0   8   -0.73    3.39 
  -3   0  -8    1.53    2.43 
  -3   0   8    0.86    2.50 
   3   0  -8   -2.16    2.54 
  -3   0  -8    0.80    2.07 
  -3   0  -8   -1.00    2.60 
  -4   0   8 1894.77   56.78 
   4   0   8 1803.82   61.73 
  -4   0  -8 1915.72   54.50 
   4   0  -8 1915.08   60.04 
  -4   0   8 1810.43   58.72 
   4   0   8 1905.62   50.67 
  -4   0  -8 1795.89   53.93 
   4   0  -8 1879.19   55.63 
  -4   0  -8 1904.79   50.28 
  -5   0  -8    4.99    3.73 
   5   0  -8    2.71    5.92 
   5   0  -8    4.39    3.40 
   5   0   8    4.54    2.57 
  -5   0  -8    1.17    2.56 
  -5   0   8    2.29    4.66 
   5   0   8    4.19    5.66 
  -5   0   8    1.72    3.43 
  -6   0   8  385.51   22.25 
  -6   0  -8  434.77   20.73 
  -6   0  -8  425.03   18.75 
  -6   0   8  414.06   21.01 
   6   0  -8  438.15   21.55 
   6   0   8  430.10   24.89 
   6   0  -8  389.01   23.84 
   7   0   8    7.75    6.59 
   7   0  -8    1.79    4.27 
  -7   0   8   -4.15    2.75 
  -7   0  -8    1.34    4.73 
  -7   0   8    0.42    4.89 
  -7   0  -8    0.97    3.28 
  -8   0  -8  715.67   27.63 
  -8   0   8  632.42   33.63 
   8   0   8  746.40   36.48 
   8   0  -8  667.52   31.13 
  -8   0   8  704.21   29.63 
  -8   0  -8  699.15   31.19 
  -8   0   8  729.65   31.51 
  -9   0  -8    4.29    4.32 
   9   0  -8    8.55    5.63 
  -9   0   8   -0.15    3.92 
  -9   0  -8    3.22    5.55 
   9   0   8    4.40    6.97 
  -9   0   8   -0.79    5.53 
 -10   0   8  206.25   15.17 
  10   0   8  217.37   23.72 
 -10   0  -8  205.71   17.19 
  10   0  -8  238.82   18.86 
 -10   0  -8  210.10   14.52 
 -10   0   8  236.02   23.65 
 -11   0  -8    9.26    6.76 
  11   0  -8  -15.09    4.56 
 -11   0   8   -1.98    7.20 
  11   0   8    2.71    7.43 
 -11   0   8   -2.87    4.36 
 -11   0  -8   -3.44    4.24 
   0   1   8   15.46    4.38 
  -1  -1  -8   59.99    7.81 
   1   1  -8   90.91    8.48 
  -1   1   8   52.19    8.75 
   1   1  -8   72.05    9.36 
   1  -1   8   77.93    9.11 
  -1   1   8   53.25    8.17 
   1   1   8   52.50    8.13 
   1  -1  -8   47.87    7.77 
  -1  -1   8   57.98    8.42 
  -1   1  -8   58.64    8.12 
  -1   1   8   65.33    6.25 
  -1  -1  -8   57.06    7.88 
   1   1  -8   49.73    7.70 
   1   1   8   72.81    8.05 
   1  -1  -8   74.69    8.87 
  -1  -1   8   58.01    8.58 
  -1  -1   8   78.47    7.27 
  -1   1  -8   69.44    8.78 
   1  -1   8   75.90    8.65 
   1   1   8   71.30    9.11 
  -1   1  -8   61.94    4.65 
   1  -1  -8   87.77    8.88 
  -1  -1  -8   71.35    6.13 
   1  -1   8   64.41    8.60 
  -2  -1   8   24.99    5.43 
   2  -1   8   23.29    4.21 
  -2  -1  -8   -0.73    2.31 
   2   1  -8   26.91    5.48 
  -2   1   8   10.26    3.67 
   2  -1   8   25.12    5.34 
  -2   1  -8    1.02    3.10 
  -2  -1  -8    1.91    2.49 
   2   1   8   13.81    3.66 
  -2  -1   8   13.65    4.30 
  -2  -1  -8   -1.01    2.72 
  -2   1   8    3.79    3.39 
  -2   1  -8    5.43    3.30 
   2   1   8   16.81    5.42 
  -2   1  -8    6.70    2.07 
   2  -1  -8   23.53    4.61 
  -3   1  -8    1.75    3.09 
   3  -1   8   -0.34    4.08 
  -3  -1  -8    0.91    2.28 
   3  -1   8    1.14    2.79 
  -3   1   8    1.81    2.95 
  -3   1  -8   -0.70    1.72 
   3   1  -8    1.21    3.05 
  -3  -1   8    1.06    3.66 
  -3  -1   8    2.85    3.23 
  -3   1   8    1.92    3.63 
   3   1   8   -0.23    4.42 
   3  -1  -8   -2.11    2.50 
   3   1   8    1.77    2.82 
   3   1  -8   -1.23    4.44 
  -3   1  -8    1.37    2.82 
  -3  -1  -8    2.24    2.48 
   3  -1  -8    4.86    5.07 
  -3  -1  -8    0.84    2.24 
   4   1   8   38.35    8.10 
   4   1  -8   23.93    5.44 
  -4  -1  -8    2.26    2.78 
   4  -1  -8   21.25    4.80 
  -4   1   8   11.19    4.95 
  -4   1  -8    0.53    2.56 
  -4   1  -8    0.00    3.07 
  -4  -1  -8   -0.54    2.67 
  -5  -1  -8   66.58    8.20 
  -5   1  -8   68.65    8.16 
  -5  -1  -8   83.44    7.51 
   5   1  -8   91.51   13.51 
   5   1   8   80.15   13.66 
   5  -1  -8   69.77    9.56 
  -5   1   8   47.66    9.85 
   5   1  -8   63.75    9.56 
  -5  -1   8   51.29    8.51 
   5  -1   8   63.68    6.45 
   5  -1   8   65.00   12.07 
  -5  -1   8   67.27   10.49 
  -5   1  -8   56.35    8.46 
  -5  -1  -8   73.11    9.56 
  -5   1   8   46.93    7.91 
   5  -1  -8   73.53   12.87 
   5   1   8   63.33    5.81 
   6  -1  -8    3.82    3.66 
  -6   1   8    3.29    4.98 
   6   1  -8    3.29    3.91 
  -6  -1   8   -0.06    4.39 
   6  -1  -8   17.52    6.82 
   6   1   8   22.52    7.51 
  -6  -1  -8    0.69    3.93 
  -6   1  -8   -2.44    2.56 
   6  -1   8   12.86    5.84 
  -6   1  -8   -0.92    4.02 
  -6   1   8    7.08    4.03 
  -6  -1   8    5.62    3.29 
  -6  -1  -8   -0.41    2.87 
  -6  -1   8    5.87    4.82 
  -7   1   8   -2.99    4.48 
  -7  -1  -8   -0.07    3.06 
   7  -1   8    2.42    5.70 
  -7  -1   8    1.10    5.15 
  -7   1  -8    1.92    3.64 
  -7  -1  -8    4.44    4.45 
   7  -1  -8    2.64    6.87 
   7   1  -8    0.12    3.97 
  -7  -1   8   -2.12    4.99 
  -7   1  -8    2.48    4.85 
   7  -1  -8   -1.01    4.04 
  -7   1   8   -4.20    2.89 
  -7  -1   8    3.76    4.07 
   7   1   8    2.79    6.06 
   8  -1  -8   21.74    6.32 
  -8  -1  -8    2.64    4.73 
   8   1   8   43.75    9.90 
   8  -1   8   26.95    8.66 
  -8  -1   8   10.62    4.87 
  -8  -1   8   11.19    7.05 
  -8  -1  -8    9.63    4.29 
  -8   1   8   20.42    7.18 
  -8   1  -8   -0.65    3.55 
  -8   1   8   10.78    4.55 
  -8   1  -8    3.97    5.38 
  -8  -1   8   25.11    7.05 
   8   1  -8   16.02    6.70 
  -9   1   8    5.14    4.62 
  -9  -1  -8    8.26    4.95 
   9  -1  -8   -1.37    4.99 
  -9   1  -8    9.97    5.08 
  -9  -1  -8    0.13    5.48 
  -9  -1   8   11.58    7.92 
  -9  -1   8    6.54    4.68 
  -9   1   8    0.14    6.82 
   9  -1   8    4.94    7.15 
   9   1  -8    2.03    4.42 
   9   1   8   -7.17    5.35 
  -9   1  -8   10.98    7.05 
 -10  -1   8   -7.46    5.19 
 -10   1  -8   -2.56    5.93 
  10   1   8   11.97    7.17 
 -10   1  -8    0.91    4.10 
  10  -1  -8   14.63    6.80 
  10  -1   8    1.79    7.48 
  10   1  -8    7.66    6.53 
 -10  -1  -8    3.63    4.56 
 -10   1   8    7.30    4.97 
 -10   1   8    5.27    7.07 
 -10  -1   8    6.51    5.49 
 -10  -1  -8   -2.39    5.17 
  11   1  -8    2.93    6.59 
 -11  -1   8    7.67    5.29 
 -11  -1   8    3.90    8.07 
  11  -1   8   10.44    8.44 
 -11   1   8    8.87    5.70 
 -11   1   8   -1.21    6.79 
 -11   1  -8    8.67    5.58 
 -11  -1  -8   -0.83    5.60 
 -11   1  -8   15.43    7.74 
  11  -1  -8    5.56    6.30 
  11   1   8   21.20   10.42 
 -11  -1  -8    7.18    5.42 
   0   2   8 2593.35   73.61 
   0  -2  -8 2643.36   70.84 
   0  -2  -8 2617.96   70.08 
   0   2  -8 2493.03   71.60 
   0   2   8 2607.67   71.80 
   0   2   8 2536.57   72.68 
   0  -2  -8 2579.65   70.27 
   0   2  -8 2444.39   70.77 
   0  -2   8 2441.56   70.24 
  -1   2  -8   -0.32    2.94 
  -1  -2   8   -1.54    2.77 
  -1  -2  -8   -0.39    2.06 
   1  -2   8    1.38    2.97 
   1  -2  -8   -1.00    2.77 
   1   2  -8    3.28    2.90 
  -1   2  -8   -2.13    2.38 
  -1   2   8    0.51    2.37 
   1   2  -8    0.07    3.31 
  -1   2   8    0.39    3.67 
  -1  -2  -8   -1.99    2.69 
  -1  -2   8    4.31    3.35 
  -1  -2   8   -0.67    2.99 
   1   2  -8    4.26    3.69 
   1   2   8   -6.14    3.16 
   1   2   8    2.50    3.17 
  -1   2   8    1.87    2.57 
   1  -2   8    0.11    2.26 
  -1  -2  -8    0.14    2.33 
   1  -2   8   -1.03    3.17 
   1  -2  -8   -2.99    2.95 
   1  -2  -8    2.56    3.07 
   1   2   8    0.58    2.91 
  -2  -2  -8  234.18   11.28 
   2  -2   8  223.33   12.73 
  -2  -2  -8  247.95   13.05 
  -2   2   8  231.33    9.76 
  -2   2   8  226.66   15.22 
   2   2   8  243.68   16.18 
  -2   2  -8  232.15   13.59 
  -2  -2   8  221.70   13.93 
   2   2  -8  248.66   14.90 
   2  -2  -8  227.19   13.28 
  -2   2   8  234.63   14.83 
   2   2  -8  238.76   10.43 
   2  -2  -8  247.42   13.93 
   2  -2  -8  257.54   13.63 
   2   2   8  234.61   12.11 
  -2  -2  -8  251.02   13.36 
  -2   2  -8  263.59   13.90 
   2  -2   8  242.50   14.72 
  -2  -2   8  242.80   14.47 
   2   2   8  250.39   15.35 
   2   2  -8  217.91   12.84 
   3  -2   8    3.19    4.39 
  -3  -2  -8    3.91    2.99 
  -3  -2   8   -3.53    2.65 
  -3  -2  -8    2.04    2.79 
  -3   2  -8    3.06    3.29 
  -3   2   8   -1.86    2.34 
  -3  -2  -8   -0.35    2.52 
   3   2  -8    0.90    4.81 
   3  -2   8   -1.78    2.51 
  -3   2   8   -1.33    3.41 
   3   2  -8    2.90    3.72 
   3  -2  -8    1.08    3.13 
   3  -2  -8   -2.77    3.10 
  -3   2  -8    0.12    2.84 
   3   2   8   -2.29    4.17 
   3   2   8    0.17    2.40 
   3   2  -8    2.22    1.93 
  -3  -2   8    0.97    3.07 
  -4  -2  -8 2248.31   59.03 
   4  -2   8 2117.54   57.44 
  -4   2  -8 2114.90   61.16 
  -4  -2   8 2115.95   64.00 
  -4   2  -8 2183.75   61.25 
  -4   2   8 2096.96   65.55 
   4   2   8 2096.22   71.07 
   4  -2  -8 2123.74   60.26 
   4   2  -8 2042.58   62.18 
  -4   2   8 2063.92   62.50 
  -4  -2   8 2088.38   64.97 
   4  -2  -8 2172.57   67.05 
  -4  -2  -8 2157.63   60.23 
  -4  -2   8 2130.99   62.75 
   4  -2   8 2107.46   67.68 
  -4  -2  -8 2154.00   60.59 
   5  -2  -8   -1.01    2.76 
  -5  -2  -8   -0.10    3.03 
  -5   2   8   -2.92    3.93 
   5  -2   8   -1.74    5.44 
  -5  -2   8    2.75    4.39 
  -5   2   8    1.72    2.97 
   5  -2  -8   -1.52    5.52 
   5   2  -8   -2.06    2.95 
  -5  -2   8   -2.37    3.08 
  -5   2  -8    1.85    3.50 
  -5  -2  -8   -3.99    2.66 
  -5  -2   8   -1.40    4.42 
  -5  -2  -8   -2.72    2.24 
  -5   2  -8   -0.52    2.45 
   5   2   8    5.32    6.62 
   5  -2   8   -1.66    2.33 
  -6   2   8  300.70   16.93 
  -6   2  -8  319.46   17.63 
  -6  -2  -8  297.45   17.25 
  -6  -2  -8  312.29   16.43 
   6  -2  -8  315.63   17.34 
  -6  -2   8  309.56   19.50 
  -6  -2   8  322.93   18.59 
   6   2   8  293.29   21.77 
   6   2  -8  302.59   18.18 
   6  -2   8  300.82   20.42 
   6  -2  -8  325.34   21.44 
  -6   2   8  321.12   19.82 
  -6  -2  -8  315.20   15.65 
  -6   2  -8  323.03   16.08 
   6  -2   8  328.44   14.27 
  -6  -2   8  310.26   17.44 
  -7   2   8    2.24    3.38 
  -7  -2  -8   -4.28    3.71 
   7  -2  -8    0.15    6.32 
   7  -2  -8    7.35    4.59 
  -7  -2   8   -1.63    3.93 
  -7  -2   8   -0.79    5.22 
  -7   2  -8    0.32    3.27 
  -7   2   8    1.13    4.83 
  -7  -2   8   -1.01    2.94 
   7   2  -8   -3.23    3.08 
  -7   2  -8    4.99    4.43 
  -7  -2  -8    1.64    3.10 
   7   2   8   -2.91    4.51 
   7  -2   8   -0.98    4.89 
  -8  -2  -8 1146.02   39.49 
  -8  -2   8 1141.97   41.77 
   8  -2  -8 1068.71   47.35 
  -8  -2  -8 1130.10   42.63 
   8   2  -8 1124.36   44.01 
  -8   2  -8 1190.25   38.85 
  -8   2   8 1165.25   43.36 
   8  -2   8 1202.97   49.13 
   8  -2  -8 1183.31   43.07 
  -8   2  -8 1151.78   43.02 
   8   2   8 1126.54   48.75 
  -8   2   8 1084.21   40.95 
  -8  -2   8 1162.73   46.73 
  -9   2  -8    0.11    6.04 
   9  -2   8    6.72    7.25 
  -9  -2   8    2.75    6.18 
  -9  -2  -8   -8.92    3.95 
  -9   2  -8    1.88    4.15 
  -9  -2   8   -1.15    3.20 
   9   2   8   -3.44    5.65 
  -9   2   8    2.57    4.31 
  -9  -2  -8    5.30    4.17 
  -9   2   8   -0.35    5.89 
   9   2  -8   -1.94    4.80 
   9  -2  -8   -2.99    4.28 
  10  -2  -8  218.47   17.39 
  10   2   8  250.84   25.35 
 -10  -2  -8  196.86   19.43 
 -10   2   8  223.53   23.98 
 -10   2  -8  215.73   20.46 
 -10  -2   8  221.15   16.39 
  10  -2   8  246.37   24.82 
 -10   2  -8  207.45   14.09 
  10   2  -8  195.90   17.19 
 -10  -2   8  257.35   24.49 
 -10   2   8  222.61   15.49 
 -10  -2  -8  218.02   15.16 
   0   3   8    8.42    4.33 
   0  -3  -8   19.23    4.23 
   0   3   8    6.19    3.89 
   0  -3  -8   27.86    5.58 
   0   3   8    6.83    4.62 
   1   3  -8  133.93   10.91 
  -1  -3  -8  142.62    9.58 
  -1  -3   8  137.47    8.48 
   1   3   8  131.49   10.20 
   1  -3  -8  153.40   10.45 
   1  -3   8  139.69   10.59 
   1  -3  -8  139.60    9.68 
  -1  -3  -8  132.94    9.52 
   1  -3   8  133.52   10.33 
   1  -3   8  143.52    9.86 
  -1   3  -8  135.85   10.57 
   1  -3  -8  126.57    9.76 
   1   3   8  150.65   11.91 
  -1   3   8  141.04   11.58 
  -1   3   8  139.72   13.01 
  -1   3  -8  148.54   10.82 
  -1  -3   8  146.05   10.93 
  -1   3   8  160.03   10.22 
   1   3   8  131.35   11.72 
  -1  -3   8  146.17   11.13 
  -1  -3  -8  139.49   10.09 
  -2  -3  -8    5.15    3.40 
  -2  -3   8   19.70    5.06 
   2   3  -8   23.03    5.28 
   2  -3  -8   25.30    4.73 
  -2   3   8    5.50    4.56 
  -2  -3   8   29.59    5.60 
  -2   3   8    4.03    3.15 
   2  -3  -8   29.75    6.17 
  -2   3  -8   14.56    3.81 
  -2  -3  -8    6.30    3.50 
  -2   3   8    3.69    3.22 
   2  -3   8   21.82    4.65 
   2   3   8   21.67    4.60 
   2   3   8    1.95    3.55 
   2   3   8   13.24    5.97 
   2  -3   8   33.10    6.64 
  -3  -3   8   47.64    8.35 
   3   3   8   41.51    5.49 
  -3   3   8   36.10    8.33 
   3   3  -8   53.27    5.29 
  -3  -3  -8   55.13    6.68 
  -3   3   8   43.12    8.04 
  -3  -3  -8   38.23    6.48 
  -3   3  -8   47.50    7.64 
   3  -3  -8   39.33    8.23 
  -3  -3   8   49.64    8.63 
   3  -3   8   43.30    6.90 
   3   3  -8   31.01    7.15 
  -3  -3  -8   40.53    6.59 
   3  -3   8   61.46    9.93 
  -3   3  -8   34.43    6.60 
   3   3   8   39.56    9.65 
  -3  -3   8   40.30    7.85 
   3  -3  -8   46.51    7.14 
  -4   3  -8   -1.75    2.63 
  -4   3   8   -0.19    3.92 
   4   3   8    4.73    5.58 
   4  -3   8   10.21    3.42 
   4  -3  -8   15.85    4.18 
  -4   3  -8   11.14    3.38 
   4  -3   8   46.50    8.63 
  -4  -3  -8    2.78    2.99 
  -4  -3  -8   -1.77    2.35 
  -4  -3   8   11.55    3.96 
  -4   3   8   10.02    4.23 
   4   3  -8    7.14    3.85 
  -4  -3   8   23.72    5.66 
  -4  -3  -8   -0.73    3.11 
   5  -3  -8  114.81    9.81 
   5  -3   8  144.73   16.07 
   5  -3   8  108.70    8.56 
  -5  -3  -8  115.27    9.54 
  -5   3   8  121.91   11.72 
   5  -3  -8  124.21   14.87 
   5   3   8  144.02   17.83 
   5   3  -8  133.30   13.24 
  -5   3  -8  118.60   11.40 
  -5  -3   8  123.79   12.82 
  -5  -3   8  146.48   14.81 
  -5   3  -8  104.57    9.29 
  -5  -3   8  116.49   12.46 
  -5  -3  -8  115.83    9.95 
  -5  -3  -8  121.24    9.23 
  -5   3   8  110.23   14.04 
  -6  -3  -8   -2.38    4.25 
  -6  -3   8   13.00    5.26 
   6  -3   8    1.78    3.13 
  -6   3  -8    0.71    3.90 
   6  -3  -8   18.07    6.57 
   6   3   8    6.00    6.73 
  -6   3   8    5.16    3.96 
   6   3  -8    7.19    5.13 
  -6   3  -8   -0.70    2.87 
   6  -3  -8    2.14    3.97 
  -6  -3   8    2.87    3.44 
   6  -3   8   10.08    5.52 
  -6  -3  -8    3.89    3.61 
  -6  -3  -8    1.59    3.93 
  -6   3   8   -1.81    4.95 
  -6  -3   8   18.99    6.59 
  -7  -3   8   32.95    9.46 
  -7  -3   8   35.59    8.49 
  -7  -3   8   21.17    6.49 
  -7   3   8   34.28    9.42 
  -7   3   8   24.92    6.71 
   7   3  -8   38.36    9.04 
   7   3   8   25.63   10.19 
  -7  -3  -8   26.74    6.42 
  -7   3  -8   41.72    8.73 
  -7  -3  -8   26.51    6.84 
  -7   3  -8   30.58    6.44 
   7  -3   8   33.19   10.01 
   7  -3  -8   27.74    7.24 
   7  -3  -8   19.20    9.48 
  -7  -3  -8   37.67    8.49 
   8   3   8   21.35    7.48 
   8  -3  -8    7.74    5.27 
  -8   3   8    6.34    3.98 
  -8   3   8   13.17    7.32 
  -8  -3   8    9.72    4.62 
  -8  -3   8   13.22    6.51 
  -8  -3  -8    8.30    5.81 
   8  -3   8   19.52    7.97 
   8  -3  -8   12.09    7.27 
  -8   3  -8    0.53    5.70 
   8   3  -8   14.51    5.92 
  -8  -3  -8   -3.84    3.31 
  -8   3  -8    7.99    4.40 
  -9  -3   8   21.91    7.22 
   9  -3  -8   17.41    6.40 
  -9  -3  -8   17.56    7.02 
  -9   3   8    9.47    5.59 
  -9   3  -8   23.10    8.39 
  -9   3   8   10.17    7.13 
   9  -3   8   27.91    9.84 
  -9  -3   8   22.14    9.84 
  -9  -3  -8   12.19    5.20 
   9  -3  -8    9.72    9.43 
  -9   3  -8   20.07    6.00 
   9   3  -8   23.79    8.34 
   9   3   8    2.07    7.70 
 -10   3  -8    4.87    6.25 
  10  -3   8    3.87    7.80 
 -10   3  -8   -0.41    4.25 
  10   3  -8    7.02    5.90 
 -10  -3  -8    1.05    4.28 
  10   3   8   13.97    8.66 
 -10   3   8   -4.02    6.79 
 -10  -3  -8   16.97    7.89 
  10  -3  -8    6.94    5.54 
 -10  -3   8   -0.80    4.41 
 -10  -3   8   11.97    7.61 
 -10   3   8   -3.02    4.11 
   0   4   8 1738.77   54.22 
   0  -4   8 1695.81   51.73 
   0  -4   8 1713.94   52.79 
   0  -4  -8 1678.01   50.91 
   0   4  -8 1706.72   52.54 
   0  -4  -8 1742.59   50.15 
   0   4  -8 1743.49   53.10 
   0  -4  -8 1723.66   52.75 
   0   4   8 1755.77   53.11 
   0   4   8 1773.77   56.56 
   0  -4   8 1710.58   52.20 
  -1  -4   8    5.57    2.87 
   1   4   8   -1.59    3.18 
  -1  -4  -8    3.81    3.47 
   1   4  -8    8.49    4.51 
  -1   4   8   -3.53    2.97 
  -1  -4   8    4.41    3.52 
   1  -4   8    2.44    3.25 
   1   4   8    4.02    3.50 
   1   4  -8    0.52    3.04 
  -1  -4   8    5.47    3.84 
  -1   4   8    1.65    3.94 
  -1  -4  -8    3.12    3.22 
   1   4   8    6.47    4.80 
   1  -4   8    4.77    4.31 
   1  -4  -8    0.03    3.16 
  -1   4  -8    5.37    3.54 
  -1   4  -8    4.03    3.47 
   1  -4  -8    3.22    3.32 
   1  -4  -8   10.03    3.88 
  -1   4   8   -1.08    2.60 
  -1  -4  -8   -1.34    2.28 
  -2  -4   8  917.71   33.57 
   2  -4  -8  851.42   32.24 
   2   4   8  977.12   36.43 
  -2  -4   8  900.74   33.32 
   2  -4  -8  874.43   29.64 
  -2  -4  -8  886.70   31.03 
   2  -4   8  859.19   33.67 
   2   4   8  911.38   30.25 
  -2   4   8  871.14   34.13 
  -2   4   8  862.51   34.81 
  -2   4  -8  903.82   32.68 
  -2  -4  -8  926.81   30.20 
   2   4  -8  893.21   33.18 
   2  -4   8  909.36   31.40 
  -2  -4   8  914.57   30.97 
   2   4  -8  891.06   29.56 
   2   4   8  902.68   36.68 
  -2   4  -8  915.19   32.01 
  -2   4   8  906.55   29.49 
  -2  -4  -8  919.36   30.50 
  -3   4   8   -2.05    3.43 
   3   4  -8   -1.64    2.31 
   3   4  -8    3.52    3.81 
  -3  -4  -8   -4.98    2.31 
  -3  -4   8   -0.51    3.65 
  -3  -4  -8   -0.69    2.41 
   3  -4   8   -1.20    3.67 
   3   4   8   -0.64    4.90 
   3  -4   8   -2.90    2.21 
  -3  -4   8   -0.45    4.02 
  -3   4   8    1.35    3.21 
   3   4   8    3.45    2.53 
  -3  -4  -8    0.30    2.62 
   3  -4  -8    2.96    2.88 
  -3  -4   8    3.26    3.45 
   3  -4  -8    6.70    5.04 
  -3   4  -8    3.39    3.57 
  -3   4  -8    2.86    2.83 
  -4  -4  -8  999.31   33.73 
   4  -4   8  991.81   32.32 
   4  -4  -8  902.76   36.86 
  -4  -4   8 1006.22   36.53 
   4   4   8  963.11   28.50 
  -4  -4   8 1060.38   37.40 
   4   4  -8  978.60   35.64 
  -4  -4  -8  975.88   32.68 
   4  -4  -8 1002.96   32.42 
  -4   4   8  966.50   38.12 
  -4   4  -8  988.74   33.98 
  -4   4  -8  946.55   34.14 
   4   4   8 1004.45   42.25 
  -4  -4   8 1008.13   35.83 
  -4   4   8  976.53   35.89 
   4  -4   8  900.83   38.03 
  -4  -4  -8 1015.33   33.05 
   5  -4   8    0.75    3.34 
  -5  -4  -8    3.09    3.94 
  -5  -4   8   -0.56    3.98 
  -5   4  -8   -0.86    3.47 
   5   4   8   -2.74    5.50 
  -5  -4  -8   -0.66    3.49 
  -5  -4   8    5.03    5.28 
  -5  -4   8    4.03    3.58 
   5  -4   8   -1.21    4.64 
  -5   4  -8   -1.96    2.92 
   5  -4  -8   -0.46    2.99 
  -5  -4  -8    4.98    3.23 
  -5   4   8    2.59    3.44 
   5  -4  -8    4.48    6.28 
   5   4  -8   -1.84    3.88 
  -5   4   8   -3.75    4.52 
  -6  -4   8  390.45   20.89 
   6  -4   8  420.21   18.17 
   6   4   8  386.45   26.18 
   6   4  -8  407.22   22.24 
  -6  -4  -8  424.36   20.88 
  -6   4  -8  392.64   20.63 
  -6   4  -8  413.12   19.11 
  -6  -4  -8  426.38   20.23 
  -6  -4   8  404.31   23.42 
  -6  -4  -8  432.78   20.07 
  -6  -4   8  443.08   22.21 
   6  -4   8  388.03   24.53 
  -6   4   8  404.71   23.55 
   6  -4  -8  384.19   23.83 
   6  -4  -8  449.12   20.57 
  -6   4   8  400.83   20.21 
  -7   4   8   -1.92    2.80 
   7   4   8    2.81    6.63 
  -7   4  -8    2.19    3.78 
   7   4  -8    2.79    5.39 
  -7  -4   8   -0.66    3.61 
  -7  -4  -8   -3.35    3.74 
  -7  -4   8    0.75    4.20 
   7  -4   8    2.45    5.89 
   7  -4  -8    1.19    4.05 
  -7  -4  -8   -3.15    4.04 
  -7  -4  -8    2.06    3.21 
  -7   4  -8    3.27    4.49 
  -7   4   8   -0.82    5.35 
   7  -4  -8    2.77    7.94 
  -7  -4   8    5.21    6.57 
  -8  -4  -8  423.10   22.05 
  -8   4  -8  406.30   22.76 
  -8   4   8  418.97   20.72 
   8   4   8  378.41   27.22 
  -8  -4   8  426.04   23.09 
  -8  -4  -8  428.46   23.16 
  -8   4  -8  439.10   20.27 
   8  -4   8  409.00   26.52 
   8  -4  -8  451.95   22.78 
   8   4  -8  365.05   23.18 
   8  -4  -8  424.24   27.17 
  -8  -4  -8  449.52   21.94 
  -8   4   8  409.40   24.12 
  -8  -4   8  399.68   24.84 
  -9   4  -8   -1.29    5.29 
  -9  -4   8    5.11    5.09 
  -9  -4  -8   -2.24    4.19 
  -9   4   8    4.17    4.47 
  -9   4   8   -4.73    6.27 
   9   4  -8    1.97    6.13 
  -9   4  -8   -2.59    3.51 
   9  -4   8    5.13    6.69 
   9   4   8   -7.45    5.53 
  -9  -4   8   -5.99    5.76 
   9  -4  -8    8.69    5.37 
  -9  -4  -8   -0.18    4.57 
   9  -4  -8    8.18    8.97 
  10  -4   8  249.30   25.11 
 -10   4  -8  221.14   18.73 
 -10   4  -8  248.35   15.28 
 -10  -4   8  239.91   17.30 
  10  -4  -8  222.03   16.81 
 -10   4   8  190.61   14.57 
 -10  -4   8  208.23   18.89 
  10   4   8  255.51   25.38 
  10   4  -8  239.93   22.41 
  10  -4  -8  280.70   26.79 
 -10  -4  -8  224.24   15.99 
 -10  -4  -8  213.99   17.58 
   0   5   8    7.11    5.62 
   0  -5   8   23.42    4.80 
   0   5   8    8.20    4.58 
   0  -5  -8   18.91    5.69 
   0  -5  -8   -0.38    2.31 
   0   5   8    3.95    4.47 
   1  -5   8   29.92    7.45 
   1   5   8   21.22    5.72 
   1  -5  -8   23.91    5.61 
   1  -5   8   26.14    6.21 
  -1  -5   8   22.93    5.62 
  -1  -5  -8   21.55    5.94 
  -1   5   8   24.78    6.52 
   1   5  -8   22.47    5.83 
  -1  -5   8   29.48    6.74 
  -1   5  -8   33.98    7.39 
  -1  -5  -8   21.88    5.08 
   1  -5  -8   18.25    6.20 
  -1   5   8   14.75    5.37 
   1   5   8   29.61    7.95 
   1   5  -8   22.51    6.53 
  -1  -5   8   28.86    4.97 
  -1  -5  -8   15.69    4.51 
  -1   5   8   25.15    6.85 
  -1   5  -8   17.94    5.00 
   1   5   8   22.03    6.40 
   2  -5  -8   16.73    5.60 
  -2  -5  -8   12.25    3.93 
  -2  -5   8   15.14    4.81 
  -2   5   8   13.65    6.03 
   2  -5  -8   15.32    3.92 
  -2  -5  -8    5.32    3.46 
  -2   5   8    7.21    4.47 
   2  -5   8   19.71    6.01 
   2   5   8   -0.71    4.44 
  -2  -5   8   30.13    5.29 
  -2   5   8    6.77    4.04 
   2   5  -8   15.57    4.35 
  -2  -5   8   21.62    5.49 
  -2  -5  -8   11.10    4.70 
  -2   5  -8   14.34    5.17 
   2   5  -8   21.10    5.24 
   2  -5   8   10.78    4.12 
   2   5   8   16.93    4.62 
  -2   5  -8   11.67    3.98 
   2   5   8    1.86    3.83 
  -3  -5   8   -1.23    3.14 
   3   5   8    3.05    3.27 
   3  -5   8    4.96    3.52 
  -3  -5   8    4.72    3.90 
   3  -5   8    3.00    5.26 
   3  -5  -8    1.58    2.93 
  -3  -5  -8    4.87    3.09 
  -3  -5   8    0.47    3.80 
   3   5  -8    6.93    3.90 
  -3   5   8   -3.65    3.12 
  -3   5  -8   -1.32    3.09 
   3   5   8    7.31    5.97 
   3  -5  -8    0.87    4.24 
  -3   5   8    9.28    4.69 
  -3   5  -8    1.59    3.54 
   3   5  -8    3.34    4.25 
  -3  -5  -8    2.02    2.94 
  -3  -5  -8    4.09    3.66 
   4  -5  -8   13.36    4.01 
  -4  -5  -8    0.23    3.31 
  -4  -5  -8   10.73    4.99 
   4   5   8    5.50    5.97 
  -4  -5   8   25.24    6.11 
   4  -5   8   31.08    7.83 
  -4   5  -8    6.00    4.52 
  -4   5   8    4.94    5.76 
  -4  -5   8   27.08    6.03 
  -4   5   8    0.48    2.99 
   4  -5  -8   14.42    5.51 
   4  -5   8   12.05    4.27 
  -4  -5   8   12.10    5.12 
  -4  -5  -8    1.02    3.02 
   4   5  -8   11.24    4.72 
  -5  -5   8   21.70    6.91 
   5   5  -8   26.14    7.52 
   5  -5   8   38.92    7.07 
   5  -5  -8   24.17    5.80 
  -5  -5  -8   36.84    6.98 
   5  -5   8   37.86   10.25 
  -5   5   8   18.88    5.90 
  -5  -5   8   33.14    7.86 
  -5   5  -8   34.89    6.84 
  -5  -5   8   31.54    8.93 
   5  -5  -8   36.30    9.91 
  -5   5  -8   30.74    7.44 
  -5  -5  -8   36.13    7.10 
   5   5   8   45.74   11.99 
  -5   5   8   34.03    8.98 
  -5  -5  -8   45.64    7.77 
  -6  -5  -8    6.87    5.02 
  -6   5  -8    8.03    5.21 
  -6   5   8    0.15    3.34 
  -6  -5  -8    2.27    4.87 
  -6  -5   8   12.62    5.28 
   6  -5  -8   10.10    4.54 
  -6  -5   8    1.41    5.38 
   6  -5   8    6.52    3.63 
   6   5  -8    6.12    5.12 
   6  -5  -8   15.74    7.63 
  -6  -5  -8   -0.16    3.53 
   6   5   8   15.19    8.60 
  -6   5  -8    6.42    3.73 
  -6   5   8    3.09    5.84 
   6  -5   8    7.03    5.30 
  -6  -5   8    9.31    5.18 
   7  -5  -8    2.38    6.29 
  -7  -5  -8   -0.68    4.08 
   7   5  -8    0.49    5.08 
  -7   5   8    1.32    6.36 
  -7  -5   8    3.59    5.77 
  -7  -5   8    1.82    3.93 
   7  -5   8    3.45    5.37 
   7   5   8   -6.79    4.64 
  -7   5  -8   -8.08    3.81 
   7  -5  -8   -5.25    2.83 
   7  -5   8    0.78    3.23 
  -7   5  -8    0.55    3.56 
  -7   5   8    0.14    3.59 
  -7  -5  -8    3.25    4.16 
  -7  -5  -8    2.73    4.13 
  -8   5   8    4.88    6.83 
   8  -5   8    7.43    6.41 
   8   5   8   12.63    7.71 
  -8   5  -8    9.39    4.91 
  -8  -5   8    4.15    4.47 
   8   5  -8    8.06    6.88 
   8  -5  -8   10.89    7.38 
  -8   5  -8    6.87    5.95 
  -8  -5  -8    6.95    5.33 
   8  -5  -8    4.91    4.40 
  -8  -5  -8    0.63    5.42 
  -8  -5  -8   -0.69    3.90 
  -8   5   8    7.73    4.48 
  -8  -5   8   -0.11    6.14 
  -9  -5   8    1.00    4.02 
  -9  -5  -8    1.14    4.34 
  -9   5   8   -0.95    3.38 
  -9   5   8   -0.13    6.60 
   9  -5   8    5.59    7.84 
  -9  -5   8    2.92    6.56 
  -9   5  -8    0.91    5.67 
   9   5  -8    3.19    5.86 
   9   5   8   -1.13    7.49 
   9  -5  -8   -1.99    4.35 
   9  -5  -8   -1.86    7.14 
  -9   5  -8    2.40    4.24 
  -9  -5  -8    6.17    5.26 
 -10  -5  -8   14.57    7.11 
  10  -5   8    2.45    7.65 
 -10  -5   8   -8.80    6.40 
 -10   5  -8    2.87    6.24 
  10   5   8    2.11    7.65 
  10   5  -8   -2.92    5.02 
 -10   5   8    0.72    4.37 
 -10  -5  -8    2.35    4.89 
  10  -5  -8   10.31    6.02 
  10  -5  -8    3.89    7.74 
 -10   5  -8    2.79    4.73 
 -10  -5   8    9.02    5.79 
   0  -6  -8  881.46   33.88 
   0  -6  -8  935.39   29.97 
   0   6   8  904.63   34.67 
   0   6   8  908.09   36.66 
   0   6  -8  945.54   34.26 
   0   6  -8  914.48   33.52 
   0  -6   8  930.04   33.19 
   0   6   8  909.40   34.04 
   1   6  -8    4.12    3.70 
   1   6  -8   -1.21    3.98 
  -1  -6   8    6.12    3.00 
   1  -6  -8    7.06    4.99 
  -1   6  -8    2.90    4.06 
  -1  -6  -8    3.59    3.94 
  -1  -6  -8    1.49    3.07 
  -1  -6  -8    1.24    2.74 
  -1   6   8    6.95    4.37 
   1   6   8    0.85    3.75 
   1   6   8   -0.37    2.94 
  -1   6   8    3.67    4.67 
  -1   6   8    1.78    4.05 
  -1  -6   8    3.49    3.83 
  -1   6  -8   -0.65    4.09 
   1  -6  -8   -0.02    2.79 
   1   6   8   -2.62    4.54 
   1  -6   8    3.08    3.78 
  -2   6  -8  227.39   14.21 
   2   6  -8  226.99   14.85 
  -2   6  -8  239.66   14.85 
   2  -6   8  199.13   13.61 
   2   6   8  279.68   14.13 
  -2   6   8  256.62   16.89 
  -2  -6   8  231.84   14.67 
  -2   6   8  266.68   14.35 
  -2   6   8  249.18   15.92 
   2  -6  -8  240.30   11.91 
  -2  -6  -8  239.79   14.00 
  -2  -6  -8  242.42   12.65 
   2   6   8  197.18   15.86 
   2  -6   8  251.10   16.30 
  -2  -6  -8  230.51   13.52 
   2   6  -8  228.44   13.78 
   2   6   8  230.67   17.07 
  -2  -6   8  242.35   13.15 
   2  -6  -8  257.63   16.04 
  -2  -6   8  242.96   15.03 
   3   6   8    3.63    3.34 
  -3  -6  -8    1.09    3.71 
   3  -6  -8   -1.34    2.61 
  -3  -6   8   -4.72    3.26 
  -3  -6  -8    1.06    2.74 
  -3   6  -8   -1.18    3.64 
  -3   6   8   -2.06    2.55 
  -3   6  -8    2.09    3.21 
   3  -6   8    0.42    4.51 
   3   6   8    1.39    5.84 
   3   6  -8    3.58    3.59 
   3  -6   8   -3.02    2.82 
  -3  -6   8   -1.35    3.14 
   3  -6  -8    4.80    5.31 
   3   6  -8   -2.09    3.19 
  -3  -6   8    1.78    3.74 
  -3   6   8   -2.11    4.21 
  -3  -6  -8   -4.26    2.11 
  -4   6  -8  844.42   31.90 
  -4   6   8  830.77   35.69 
  -4  -6  -8  909.52   32.48 
   4  -6  -8  911.43   29.00 
  -4   6   8  854.17   33.18 
   4   6  -8  824.79   32.94 
   4  -6  -8  854.63   34.98 
  -4  -6  -8  835.93   29.79 
   4   6   8  818.06   38.16 
  -4  -6   8  910.27   34.60 
  -4  -6   8  855.19   33.59 
  -4  -6   8  861.36   33.83 
   4   6  -8  859.36   29.49 
   4  -6   8  871.12   31.11 
   4  -6   8  809.95   35.72 
  -4  -6  -8  875.64   32.17 
  -4   6  -8  868.86   31.45 
   5   6   8   -5.03    5.80 
  -5   6  -8    1.30    3.39 
  -5  -6  -8    4.77    4.08 
  -5   6   8    1.78    3.63 
  -5  -6  -8    3.14    4.36 
  -5  -6   8    6.57    5.81 
   5  -6  -8    5.01    4.17 
  -5  -6  -8    2.96    3.99 
  -5  -6   8    4.38    4.10 
  -5   6   8    2.16    5.26 
   5  -6  -8    8.68    6.45 
  -5   6  -8    0.41    3.96 
   5  -6   8   -1.80    3.04 
   5   6  -8    4.07    4.70 
  -5  -6   8    1.28    3.75 
   5  -6   8    2.32    5.37 
  -6  -6  -8  342.83   18.33 
  -6  -6  -8  322.49   17.80 
   6   6   8  250.28   21.35 
  -6   6   8  279.52   19.99 
  -6  -6   8  310.57   17.91 
  -6   6   8  274.79   16.97 
  -6  -6   8  332.75   19.34 
  -6  -6  -8  307.76   18.07 
   6  -6   8  305.40   16.29 
   6  -6  -8  358.28   17.44 
  -6   6  -8  285.11   17.11 
   6   6  -8  312.26   19.15 
   6  -6   8  254.61   20.16 
  -6  -6   8  272.11   19.37 
   6  -6  -8  305.26   20.95 
  -6   6  -8  325.39   16.80 
   7  -6  -8    2.38    4.09 
  -7   6   8   -6.02    5.05 
   7  -6   8    4.07    6.00 
   7  -6  -8   -1.09    6.30 
  -7  -6   8   -3.65    4.73 
   7   6  -8   -4.82    4.67 
  -7  -6   8    4.55    4.26 
  -7   6  -8    0.63    3.55 
  -7  -6  -8    1.71    4.47 
  -7  -6  -8    5.09    4.69 
   7   6   8   -3.83    5.41 
   7  -6   8    0.41    3.50 
  -7   6  -8   -0.89    4.43 
  -7  -6  -8   -9.33    3.56 
  -7   6   8    5.49    4.64 
   8   6  -8  587.90   30.29 
  -8   6  -8  600.62   28.92 
  -8  -6  -8  553.37   26.61 
  -8  -6   8  636.30   29.40 
   8   6   8  593.75   34.46 
  -8  -6  -8  566.51   27.71 
   8  -6  -8  574.86   32.25 
  -8   6   8  607.51   26.45 
  -8  -6   8  577.82   31.52 
   8  -6   8  595.04   33.06 
  -8   6  -8  586.41   24.59 
  -8   6   8  588.83   30.05 
  -8  -6  -8  587.56   28.06 
   9   6   8   14.66    9.01 
   9   6  -8    2.59    6.56 
  -9  -6   8    0.89    7.07 
   9  -6  -8  -10.05    5.58 
  -9  -6  -8    2.11    5.71 
  -9  -6   8    0.54    4.11 
  -9  -6  -8   -3.00    4.22 
   9  -6   8    8.02    7.10 
  -9  -6  -8    0.62    5.45 
  -9   6  -8    3.94    6.55 
  -9   6   8    3.68    6.45 
  -9   6  -8    0.56    3.94 
  -9   6   8    2.52    3.84 
  10   6   8  236.13   25.69 
 -10  -6  -8  204.71   15.86 
 -10  -6   8  222.88   23.33 
 -10  -6  -8  224.20   17.75 
 -10   6   8  233.20   19.03 
 -10  -6   8  243.86   17.99 
  10  -6  -8  226.42   24.55 
 -10   6   8  208.17   15.19 
  10  -6   8  231.69   24.39 
  10   6  -8  239.01   22.68 
 -10   6  -8  211.93   13.58 
 -10   6  -8  232.55   19.15 
   0   7  -8   25.46    6.09 
   0   7   8   -1.68    3.47 
   0   7   8    5.28    4.27 
   0   7  -8   19.88    5.84 
   0  -7  -8   20.21    4.10 
   0   7   8    2.76    5.25 
   0  -7  -8   17.16    5.88 
   0  -7   8   11.48    4.75 
   1  -7   8   42.04    8.08 
  -1  -7   8   45.86    8.54 
   1   7   8   65.12   11.23 
  -1  -7  -8   49.26    8.98 
   1  -7  -8   52.48   10.03 
   1  -7  -8   43.41    6.08 
  -1   7   8   43.59    8.59 
   1   7  -8   59.92    9.34 
   1   7  -8   58.53    9.78 
  -1  -7   8   62.01    6.89 
   1   7   8   46.84    8.39 
  -1  -7  -8   47.77    7.04 
  -1   7  -8   41.75    8.28 
  -1   7  -8   53.98   10.06 
  -1   7   8   58.03    9.80 
   1   7   8   34.70    8.21 
  -1   7   8   39.11    8.70 
  -2  -7  -8    8.23    5.04 
  -2  -7   8   12.17    4.54 
   2   7   8    6.67    6.22 
   2  -7  -8   11.45    3.49 
  -2   7   8    2.90    5.18 
  -2   7   8   -2.87    4.26 
  -2  -7  -8    5.50    3.48 
   2  -7  -8   12.54    5.70 
   2   7   8    1.99    3.53 
   2   7  -8   15.23    4.71 
  -2  -7   8   10.29    4.02 
  -2   7  -8   16.78    5.31 
  -2   7  -8   15.08    6.20 
  -2  -7  -8    2.89    3.29 
  -2   7   8   -2.18    4.04 
   2   7   8   -0.17    4.38 
   2   7  -8   16.06    5.43 
   2  -7   8    7.89    4.16 
   3   7   8    5.52    3.74 
  -3  -7  -8    1.12    4.06 
  -3  -7  -8    8.38    3.53 
  -3  -7  -8    4.09    3.29 
   3  -7   8    6.71    5.58 
  -3   7   8    1.64    5.45 
  -3  -7   8    8.00    4.94 
   3   7  -8    6.35    4.49 
   3   7  -8    6.07    4.74 
   3  -7  -8    8.29    3.44 
   3   7   8   11.16    7.16 
  -3  -7   8    8.69    4.16 
   3  -7  -8    2.58    5.14 
  -3   7  -8    2.13    3.38 
  -3  -7   8    1.62    4.36 
  -3   7   8    1.86    3.99 
   3  -7   8    4.40    4.36 
  -3   7  -8   14.60    5.46 
  -4  -7   8   14.72    5.60 
   4  -7   8   16.40    5.37 
  -4  -7  -8   -2.79    3.30 
   4   7   8    5.30    6.18 
  -4   7   8   -5.09    4.43 
  -4   7   8   -1.06    3.27 
   4  -7   8   24.53    7.71 
   4   7  -8   15.39    5.04 
  -4   7  -8   11.94    5.08 
  -4  -7   8   10.42    4.45 
  -4  -7  -8    7.23    5.20 
  -4   7  -8    8.58    3.71 
   4  -7  -8    8.63    3.78 
   4   7  -8   18.88    5.86 
  -4  -7   8   22.54    6.07 
  -4  -7  -8   -0.65    3.62 
   4  -7  -8    9.67    5.37 
  -5  -7  -8   50.96    9.28 
  -5   7  -8   50.14    8.25 
  -5  -7  -8   52.38    8.54 
   5   7   8   51.31   12.61 
  -5  -7   8   51.34    9.15 
  -5   7  -8   43.77    8.97 
   5  -7  -8   50.73   11.58 
  -5   7   8   44.52    8.59 
   5  -7   8   44.26    8.21 
   5   7  -8   43.22    9.13 
  -5  -7   8   51.46    9.95 
  -5   7   8   43.55   10.88 
  -5  -7   8   60.16   10.48 
  -5  -7  -8   50.96    8.56 
   5  -7   8   41.10   10.92 
  -6  -7  -8   15.17    5.72 
  -6  -7   8    6.41    4.50 
  -6  -7   8    6.38    6.36 
  -6   7   8    4.42    3.82 
  -6   7  -8    9.98    4.66 
   6  -7  -8    7.40    6.54 
  -6   7  -8    0.75    4.89 
   6  -7   8    7.50    4.21 
  -6  -7   8   14.83    5.50 
  -6  -7  -8    5.12    5.09 
   6   7   8   13.40    8.66 
   6  -7   8   11.70    5.92 
   6   7  -8    9.62    6.00 
  -6   7   8    2.11    6.17 
  -6  -7  -8    3.98    4.11 
  -7   7  -8    4.22    4.89 
  -7   7   8    2.14    6.47 
  -7   7  -8    4.89    4.11 
  -7  -7  -8    8.17    5.60 
  -7  -7  -8   12.40    6.73 
   7  -7   8   -1.04    5.85 
  -7  -7  -8    3.63    4.70 
   7   7   8    3.43    6.32 
   7  -7  -8    0.93    7.01 
   7  -7   8    4.49    4.64 
  -7  -7   8    7.75    5.09 
   7   7  -8    6.05    5.50 
  -7   7   8    3.14    4.33 
  -7  -7   8   -2.12    5.48 
  -8  -7  -8    4.10    4.62 
   8  -7  -8   12.41    7.75 
  -8   7  -8    3.07    5.72 
   8  -7   8   26.03    9.39 
  -8  -7   8    7.06    4.94 
  -8   7   8    7.17    7.14 
  -8  -7   8    4.49    6.57 
  -8   7  -8    8.47    4.78 
  -8  -7  -8    7.57    6.28 
  -8   7   8    3.97    4.68 
   8   7  -8   -1.66    4.51 
  -8  -7  -8    6.26    5.53 
   8   7   8    2.01    6.95 
  -9  -7   8    1.97    7.74 
   9   7  -8    5.11    6.61 
  -9   7   8    2.70    4.47 
   9  -7   8    3.87    7.00 
   9  -7  -8    5.18    8.38 
  -9   7   8    9.19    7.88 
  -9  -7   8    8.29    5.82 
  -9  -7  -8    7.22    6.32 
  -9  -7  -8   12.27    5.66 
   9   7   8    5.22    8.00 
  -9   7  -8    8.47    4.81 
  -9  -7  -8    7.74    6.65 
  -9   7  -8    4.48    6.01 
  10  -7   8   22.17   10.02 
 -10   7  -8    0.16    3.79 
 -10   7   8   16.07    5.50 
 -10   7  -8    2.25    6.83 
 -10  -7  -8   -7.01    5.76 
  10   7  -8   10.95    8.27 
 -10  -7   8    6.89    5.47 
 -10  -7  -8    3.00    5.36 
  10  -7  -8   -1.16    6.74 
  10   7   8    0.86    8.25 
 -10  -7   8    5.92    7.69 
   0  -8   8  657.21   28.16 
   0   8  -8  703.90   28.67 
   0   8   8  708.39   29.57 
   0   8   8  746.96   32.07 
   0  -8  -8  686.17   30.10 
   0   8   8  708.45   30.57 
   0   8  -8  744.07   30.71 
   1   8  -8    1.31    4.09 
   1   8  -8    2.23    4.40 
   1   8   8    0.13    5.44 
  -1  -8  -8   -1.03    3.82 
  -1   8  -8    5.66    4.75 
  -1   8   8    1.49    3.50 
   1   8   8   -5.49    3.46 
   1  -8  -8    0.00    3.89 
  -1   8   8   -0.42    4.57 
  -1   8  -8    7.01    5.36 
   1  -8   8    3.09    4.12 
  -1  -8   8   11.28    5.18 
  -1   8   8   -1.73    4.54 
  -1  -8  -8    1.57    3.24 
   1   8   8    3.92    4.54 
   2   8   8  835.82   36.16 
   2   8  -8  850.44   32.71 
   2   8   8  888.71   31.51 
  -2   8  -8  902.22   32.98 
   2  -8  -8  818.34   34.36 
  -2  -8   8  865.12   32.66 
  -2   8   8  783.34   34.45 
   2   8  -8  873.88   33.88 
  -2  -8  -8  856.16   28.86 
   2  -8   8  858.42   32.95 
  -2   8   8  869.12   32.53 
  -2  -8  -8  836.23   33.01 
  -2   8  -8  830.03   35.37 
  -2   8   8  858.83   34.48 
  -2  -8   8  853.13   29.83 
   2   8   8  869.68   36.98 
  -3   8  -8   -6.27    4.26 
  -3  -8   8   -4.49    3.23 
   3   8  -8    4.16    4.54 
  -3   8   8   -2.11    4.49 
   3  -8  -8   -0.42    4.38 
  -3  -8  -8    2.03    3.52 
   3   8   8   -7.68    4.90 
  -3   8  -8    4.65    4.95 
   3   8  -8   -0.18    4.34 
  -3   8   8    0.56    3.74 
   3  -8   8    3.00    4.10 
  -3  -8  -8    0.12    2.86 
  -3  -8   8    0.95    4.44 
  -3  -8  -8    5.62    4.90 
  -4   8  -8  442.20   22.04 
   4  -8   8  444.79   25.56 
  -4   8   8  469.41   22.73 
  -4  -8   8  413.65   21.71 
   4   8  -8  465.46   21.54 
  -4   8  -8  436.07   20.82 
  -4  -8  -8  433.63   22.16 
  -4  -8   8  420.01   22.04 
   4  -8   8  457.44   21.60 
   4   8  -8  427.91   21.96 
  -4   8   8  447.21   24.92 
  -4  -8  -8  426.69   21.63 
   4  -8  -8  468.33   24.83 
   4   8   8  448.00   26.37 
  -4  -8  -8  444.78   19.49 
   5  -8  -8    1.11    5.66 
   5  -8   8   -4.32    5.38 
  -5   8  -8   -0.76    4.78 
  -5   8   8    0.16    3.65 
   5  -8   8    0.42    3.81 
  -5   8  -8    6.92    4.67 
  -5  -8   8    5.12    5.74 
  -5  -8  -8    2.25    3.94 
  -5  -8   8    5.85    4.85 
  -5  -8  -8    1.83    3.94 
   5   8   8    1.34    6.51 
  -5  -8  -8    0.57    4.40 
  -5   8   8    4.83    5.94 
   5   8  -8    0.51    4.56 
  -6  -8  -8  418.13   21.02 
  -6  -8   8  448.88   24.21 
   6  -8   8  439.67   26.57 
  -6   8   8  446.39   25.62 
  -6  -8   8  415.32   24.41 
   6   8  -8  409.19   23.15 
   6   8   8  424.84   27.99 
  -6   8  -8  419.05   20.02 
  -6   8   8  421.20   21.77 
  -6  -8  -8  432.27   23.13 
   6  -8  -8  442.38   25.61 
   6  -8   8  434.33   21.43 
  -6  -8  -8  417.50   22.06 
  -6   8  -8  404.69   22.14 
   7   8   8    5.33    7.48 
  -7   8   8    2.26    6.64 
  -7  -8   8   -2.18    4.04 
   7  -8   8   -0.87    5.35 
  -7   8  -8    4.27    5.48 
   7   8  -8   -2.97    4.67 
  -7   8   8   -2.98    3.37 
  -7  -8  -8    6.03    5.58 
  -7  -8  -8   -4.50    4.39 
   7  -8   8    0.77    4.22 
  -7  -8   8    4.07    6.12 
  -7   8  -8    2.49    3.70 
  -7  -8  -8   -2.63    3.69 
   7  -8  -8    0.16    6.43 
  -8  -8  -8  193.10   16.53 
  -8   8  -8  217.96   16.77 
  -8   8   8  216.19   18.20 
  -8  -8   8  219.27   16.76 
   8  -8   8  213.92   14.77 
   8   8  -8  208.30   17.80 
  -8  -8   8  202.95   18.45 
   8   8   8  232.87   25.06 
   8  -8  -8  266.16   25.31 
  -8   8   8  195.57   14.56 
  -8  -8  -8  197.45   15.21 
  -8   8  -8  206.35   13.38 
  -8  -8  -8  195.74   15.40 
   8  -8   8  193.31   22.19 
  -9  -8  -8    0.37    3.88 
  -9  -8  -8   -2.16    5.52 
   9  -8  -8   13.43    8.63 
  -9  -8   8    4.05    4.83 
   9  -8   8    4.05    7.41 
   9   8   8    5.46    9.14 
  -9   8  -8   -1.32    3.68 
  -9  -8   8   -4.73    6.41 
  -9   8   8   -1.75    3.84 
  -9  -8  -8    0.66    6.77 
  -9   8   8    0.78    6.89 
   9   8  -8   -0.22    6.02 
   0  -9  -8   17.11    6.69 
   0   9   8    9.38    5.14 
   0   9  -8   30.80    7.02 
   0  -9   8   18.48    6.07 
   0   9  -8   25.85    7.41 
   0   9   8    3.15    5.23 
   0   9   8   16.17    6.80 
   1   9  -8   38.40    9.37 
   1  -9  -8   36.87    9.85 
   1  -9   8   37.69    8.42 
  -1   9  -8   51.34   10.66 
   1   9   8   43.33   10.22 
  -1   9  -8   30.11    7.94 
   1   9   8   58.27    9.44 
  -1   9   8   55.71   10.16 
  -1   9   8   50.26    9.94 
   1   9   8   45.04    9.67 
  -1  -9  -8   50.66   10.12 
  -1  -9   8   45.82    8.96 
  -1   9   8   53.10   10.13 
   1   9  -8   51.16    9.10 
  -2   9  -8   18.43    5.74 
   2   9   8   13.20    7.43 
   2  -9  -8   11.40    6.40 
   2   9  -8   24.40    6.69 
   2   9  -8   11.35    5.18 
  -2   9   8    1.15    5.44 
  -2   9  -8   17.13    6.89 
  -2  -9   8    7.73    4.55 
   2   9   8   -1.67    3.96 
  -2   9   8    4.28    5.34 
  -2  -9  -8    1.75    4.66 
   2  -9   8    9.12    5.10 
  -2   9   8    0.72    4.22 
   3   9  -8   20.98    6.54 
  -3  -9   8    8.04    5.33 
   3   9  -8   17.22    6.18 
  -3   9   8    9.64    5.41 
   3  -9   8    7.14    5.07 
   3   9   8   12.13    8.14 
  -3   9  -8   10.13    6.38 
  -3  -9  -8   12.29    6.33 
  -3  -9   8   11.85    5.43 
   3  -9  -8   17.52    8.10 
  -3   9  -8   11.34    5.88 
  -3   9   8    8.33    6.32 
  -4   9  -8   13.36    6.67 
  -4   9   8    1.98    4.20 
  -4   9   8   -0.84    5.57 
  -4  -9  -8    3.90    4.00 
   4   9  -8   24.22    6.20 
  -4  -9   8   15.89    6.17 
   4  -9  -8   25.14    8.47 
   4   9   8   10.84    8.50 
  -4  -9  -8   14.42    6.80 
  -4  -9   8    7.70    4.97 
   4  -9   8   13.24    5.44 
   4   9  -8   12.66    5.43 
  -4   9  -8   11.66    5.86 
   5   9  -8   44.39    9.41 
   5  -9   8   49.57    9.46 
  -5   9   8   34.33    9.39 
  -5  -9   8   45.35    9.23 
  -5  -9  -8   36.91    9.62 
   5  -9  -8   43.09   10.88 
  -5  -9   8   39.11    9.74 
  -5   9  -8   51.73    9.62 
  -5   9   8   31.15    7.48 
   5   9   8   24.38   11.01 
  -5   9  -8   36.50   11.03 
  -5  -9  -8   43.61    7.87 
  -6  -9  -8   -6.75    3.71 
  -6  -9  -8   -1.20    4.13 
  -6  -9  -8   -1.78    4.26 
   6  -9  -8   12.66    6.51 
   6  -9   8   11.76    7.18 
   6   9  -8    9.31    5.87 
   6   9   8    2.27    7.62 
   6  -9   8    6.21    4.84 
  -6   9   8    2.68    4.03 
  -6   9  -8    5.63    4.48 
  -6   9  -8    9.07    6.01 
  -6   9   8   -9.48    5.28 
  -6  -9   8   -2.19    4.47 
   7  -9   8   10.01    5.94 
  -7   9   8   20.77    8.79 
   7  -9   8    3.98    6.69 
   7   9   8    9.80    8.78 
  -7   9   8    8.36    5.59 
  -7  -9  -8   11.82    7.11 
  -7  -9  -8   49.17    9.91 
   7   9  -8   13.24    6.94 
   7  -9  -8   -0.27    6.23 
  -7   9  -8    7.77    4.83 
  -7  -9   8   15.34    7.84 
  -7  -9  -8   15.42    6.31 
   8   9  -8   -0.67    5.48 
  -8   9  -8    1.87    3.83 
  -8  -9   8   -2.55    6.14 
  -8   9   8    7.65    7.86 
  -8  -9  -8   11.30    7.08 
   8  -9   8    6.25    7.66 
   8  -9   8    9.68    5.01 
   8  -9  -8   11.75    7.55 
  -8  -9  -8    4.92    5.86 
  -8   9   8    1.86    4.95 
   8   9   8   19.35    9.63 
  -8  -9  -8    9.71    5.27 
  -9   9   8    2.36    4.54 
  -9   9  -8    7.36    4.93 
  -9  -9  -8   -3.89    4.43 
   9  -9  -8    4.74    8.81 
  -9   9   8   10.69    7.91 
   9  -9   8    5.40    7.35 
   9   9  -8   -3.88    6.01 
   9   9   8    7.19    8.62 
  -9  -9   8   -2.21    7.19 
  -9  -9  -8   -2.16    5.40 
  -9  -9  -8   10.33    7.43 
   0  10  -8  494.46   23.12 
   0  10   8  467.96   25.75 
   0  10   8  462.76   25.03 
   0  10   8  465.90   23.44 
   0  10  -8  495.50   25.30 
   0 -10  -8  426.18   24.27 
   0 -10   8  411.05   22.26 
   1 -10  -8    9.41    6.69 
  -1  10   8   11.54    6.53 
   1  10   8   -1.36    4.39 
   1  10  -8    4.44    5.52 
   1 -10   8    1.59    4.53 
  -1 -10  -8    2.18    5.51 
  -1  10  -8   16.69    6.61 
   1  10  -8    9.30    5.16 
  -1  10   8   11.00    5.72 
   1  10   8   -0.72    4.19 
  -1 -10   8    5.64    5.15 
  -1  10   8    1.19    4.76 
  -1  10  -8   10.59    7.03 
   1  10   8    3.43    6.38 
  -2  10  -8  302.39   17.15 
   2  10   8  266.36   15.80 
  -2  10   8  265.19   18.53 
  -2 -10  -8  240.77   17.02 
   2  10  -8  246.31   15.66 
   2 -10   8  284.91   17.63 
  -2  10   8  246.36   16.88 
   2  10   8  262.80   19.32 
   2  10  -8  250.97   17.81 
  -2  10   8  242.12   17.38 
  -2  10  -8  241.80   18.06 
  -2 -10   8  248.72   16.38 
   2 -10  -8  246.73   18.24 
   3 -10  -8    4.47    5.89 
   3  10  -8    1.95    4.30 
  -3 -10  -8    0.30    5.66 
  -3  10   8   -1.15    3.76 
   3  10  -8    4.05    5.00 
  -3 -10   8    5.10    5.32 
  -3  10  -8    7.82    6.04 
  -3 -10   8    4.47    4.55 
  -3  10   8   -0.76    4.25 
   3  10   8    4.70    7.25 
   3 -10   8   -4.08    4.08 
   4  10  -8  435.65   22.30 
  -4 -10   8  459.58   22.70 
   4  10   8  443.97   27.64 
  -4 -10  -8  435.71   23.94 
  -4 -10   8  478.47   23.37 
  -4  10   8  400.96   24.73 
   4 -10  -8  500.95   26.29 
   4  10  -8  468.96   23.40 
  -4  10   8  437.96   22.81 
  -4  10  -8  451.89   26.08 
   4 -10   8  443.63   23.06 
   5 -10  -8   13.39    7.46 
  -5  10   8    4.57    6.90 
  -5  10  -8    5.86    7.63 
  -5 -10   8    6.17    5.56 
   5  10  -8    2.59    5.06 
  -5 -10   8    1.68    4.69 
  -5 -10  -8    5.55    6.03 
  -5  10   8    1.65    4.64 
   5  10   8   -2.94    7.31 
   5 -10   8    5.56    4.97 
  -6 -10   8  247.49   18.34 
   6 -10  -8  280.57   20.48 
  -6  10   8  246.20   18.84 
   6  10   8  255.43   21.99 
   6 -10   8  271.97   17.76 
  -6  10  -8  263.93   21.74 
  -6  10   8  246.50   16.30 
  -6 -10  -8  250.72   18.79 
   6  10  -8  238.96   17.30 
   7  10  -8   -1.19    5.49 
  -7  10  -8    8.95    8.70 
   7 -10   8    4.28    5.29 
   7  10   8   -3.33    7.21 
  -7  10   8    0.32    4.86 
   7 -10  -8    7.72    8.27 
  -7 -10   8   11.01    6.58 
  -7 -10  -8    7.43    6.87 
  -7  10   8    0.29    6.74 
   8  10  -8  325.03   21.93 
   8 -10   8  313.00   19.60 
  -8  10   8  285.77   21.62 
   8 -10  -8  338.25   24.15 
  -8 -10  -8  268.93   20.49 
  -8  10   8  280.86   18.24 
   8  10   8  328.25   25.67 
  -8 -10   8  312.85   23.27 
  -8  10  -8  325.96   24.86 
   0  11   8   12.62    6.16 
   0  11   8    3.03    5.80 
   0  11  -8    6.57    6.26 
   0 -11  -8   13.92    7.40 
   0 -11   8    9.62    5.64 
   0  11   8    2.91    4.71 
  -1  11   8    0.24    5.23 
   1  11   8    1.69    5.06 
  -1  11   8   -0.86    4.85 
  -1 -11   8    0.56    4.97 
  -1  11  -8   -3.22    4.37 
   1  11   8    1.17    5.98 
   1 -11  -8   -8.32    4.65 
   1  11  -8   -1.55    5.63 
   1  11   8    3.25    4.93 
  -1 -11  -8   -1.15    5.19 
   1 -11   8   -0.74    4.10 
  -1  11   8   -0.34    4.65 
  -2  11   8   -6.15    5.15 
  -2  11  -8   14.40    7.44 
   2  11   8    0.08    6.93 
  -2  11   8    6.38    5.41 
   2 -11   8    6.92    5.28 
   2  11  -8    8.43    4.66 
  -2  11   8    0.68    4.58 
   2 -11  -8    4.63    5.75 
  -2 -11   8   10.14    5.59 
   2  11  -8    4.96    6.16 
  -2 -11  -8    2.79    5.48 
  -3  11   8    5.23    5.27 
   3  11   8   -1.11    6.22 
   3 -11   8    8.22    5.70 
   3  11  -8   14.03    7.45 
   3 -11  -8    6.30    6.90 
  -3  11  -8    6.91    6.88 
   3  11  -8   15.02    5.84 
  -3 -11  -8    5.46    6.78 
  -3 -11   8   13.20    6.35 
  -3  11   8    7.99    5.94 
   4  11   8   -3.26    6.67 
  -4  11   8    4.46    5.64 
  -4 -11   8   12.68    6.52 
   4 -11  -8    5.67    6.39 
  -4 -11   8   11.14    5.62 
  -4  11   8   -0.76    3.96 
   4 -11   8   10.06    5.78 
  -4 -11  -8    7.59    6.76 
   4  11  -8    4.94    5.25 
  -4  11  -8    7.95    6.64 
   4  11  -8    7.62    5.03 
  -5 -11  -8   -8.20    4.92 
  -5  11   8    4.57    4.64 
   5  11   8   -0.76    7.63 
   5 -11  -8   10.98    8.06 
  -5  11  -8   -1.05    6.51 
   5 -11   8    0.87    4.55 
   5  11  -8    0.66    5.66 
  -5  11   8   -0.70    5.72 
  -5 -11   8   -2.44    4.34 
  -6 -11  -8    8.62    7.05 
   6 -11   8    3.54    5.30 
  -6  11  -8   16.24    9.33 
   6 -11  -8    8.53    7.48 
  -6  11   8    4.44    4.85 
   6  11  -8   10.75    6.14 
  -6 -11   8   -1.25    5.78 
  -6  11   8   -1.99    6.45 
   6  11   8    7.87    9.03 
  -7 -11   8    0.26    5.98 
   7 -11   8   13.12    6.47 
   7  11   8   -4.77    7.22 
  -7  11   8    2.25    7.02 
   7 -11  -8    7.79    7.10 
  -7  11  -8   -1.11    7.83 
  -7  11   8   14.41    5.76 
  -7 -11  -8    3.14    6.34 
   7  11  -8    3.91    6.77 
   8 -11   8   10.86    6.21 
  -8  11  -8    8.81    8.71 
  -8 -11  -8   -4.56    5.76 
  -8  11   8   -2.10    6.72 
   8  11   8   -2.37    7.88 
  -8  11   8    4.51    5.74 
   8 -11  -8   17.90   10.18 
   8  11  -8    9.17    7.25 
  -8 -11   8    3.59    7.26 
   0 -12  -8  210.21   17.68 
   0 -12   8  238.09   17.00 
   0  12   8  237.86   18.96 
   0  12   8  242.91   17.21 
   0  12  -8  283.65   20.46 
   0  12   8  223.34   17.73 
   1 -12   8   -4.00    4.29 
   1  12  -8   10.83    7.01 
  -1  12   8    2.45    4.92 
   1 -12  -8   -1.19    6.22 
  -1  12   8   -7.51    5.54 
  -1  12  -8    3.20    7.01 
  -1 -12  -8    0.76    6.51 
   1  12   8    5.73    6.20 
   1  12   8   -5.47    5.28 
   1  12   8   -3.78    3.64 
  -1 -12   8    2.01    4.82 
  -1  12   8    1.46    5.15 
  -2  12  -8  287.17   20.82 
  -2  12   8  319.85   20.35 
  -2  12   8  270.45   19.67 
  -2  12   8  276.32   19.87 
   2  12  -8  298.31   20.81 
   2 -12  -8  295.79   21.10 
   2 -12   8  324.68   20.29 
  -2 -12  -8  268.49   20.01 
   2  12   8  299.34   21.86 
  -2 -12   8  293.10   18.92 
  -3 -12   8   -6.61    4.52 
  -3  12   8   -0.47    4.58 
  -3  12  -8    3.09    6.64 
   3 -12  -8   -2.41    5.49 
  -3 -12  -8   -9.34    4.63 
  -3  12   8    9.83    6.86 
   3  12  -8   -8.43    4.90 
   3  12   8    1.33    7.23 
   3 -12   8    9.82    6.08 
   4  12   8  212.09   23.16 
  -4 -12   8  157.43   13.69 
  -4  12   8  171.27   18.74 
  -4  12   8  160.65   15.78 
   4 -12   8  150.80   16.46 
   4 -12  -8  184.22   16.07 
  -4  12  -8  184.31   20.54 
  -4 -12  -8  225.58   20.74 
   4  12  -8  183.21   15.66 
  -5  12  -8    1.06    7.07 
  -5 -12  -8   13.57    7.49 
   5 -12  -8   11.49    8.19 
   5 -12   8    3.74    4.96 
   5  12   8    9.65   10.03 
  -5  12   8    7.87    6.11 
  -5 -12   8   18.71    6.66 
  -5  12   8   -0.14    4.93 
  -6 -12  -8  165.50   19.30 
   6 -12  -8  219.21   21.58 
  -6  12   8  162.98   14.24 
  -6 -12   8  201.50   20.12 
  -6  12   8  171.25   19.58 
   6  12   8  228.48   25.37 
  -6  12  -8  184.26   21.90 
   6 -12   8  195.38   18.52 
   7  12   8   14.03   10.50 
  -7 -12  -8   -3.84    5.97 
  -7 -12   8    6.17    6.83 
  -7  12  -8    9.02    8.14 
  -7  12   8   -3.32    4.12 
   7 -12  -8   -9.84    6.89 
  -7  12   8    7.68    7.52 
   7 -12   8    0.66    5.67 
   0  13   8    6.72    5.93 
   0  13   8    4.00    7.03 
   0 -13   8   11.89    6.43 
   0  13   8   25.44    8.18 
   0 -13  -8    2.17    7.55 
   0  13  -8   13.16    8.40 
  -1  13  -8   37.51   11.12 
   1  13   8   40.51    8.71 
  -1 -13   8   38.83    9.62 
   1  13   8   42.17   11.31 
  -1  13   8   42.16   10.27 
  -1 -13  -8   33.96   10.83 
   1 -13  -8   42.21   11.67 
  -1  13   8   34.30   10.31 
   1 -13   8   30.58    9.10 
  -1  13   8   35.34    9.31 
   1  13  -8   37.94   10.83 
  -2 -13  -8   -0.68    5.85 
   2  13   8    3.58    7.65 
  -2  13   8    3.03    6.30 
  -2  13   8    3.67    5.67 
   2  13  -8    8.11    7.27 
  -2  13  -8   13.67    7.98 
   2 -13   8    8.84    6.64 
  -2  13   8    7.57    5.95 
   2 -13  -8    2.28    5.94 
  -2 -13   8    4.10    5.54 
  -3  13   8   15.40    7.29 
  -3 -13  -8    9.06    8.00 
   3  13   8   22.76    9.52 
  -3 -13   8    9.46    6.24 
  -3  13   8   11.56    6.62 
  -3  13  -8   22.07    9.29 
   3 -13  -8   28.00    9.72 
   3 -13   8   15.13    7.34 
   3  13  -8    7.23    6.90 
  -4 -13  -8   -1.02    6.41 
   4 -13   8    3.17    5.70 
   4  13   8   -2.90    8.01 
   4 -13  -8   12.87    8.00 
  -4  13   8   -4.21    5.66 
   4  13  -8    5.03    6.18 
  -4  13   8    0.44    4.10 
  -4  13  -8    3.46    8.07 
   5  13   8   56.18   14.76 
   5 -13  -8   41.59   12.52 
  -5  13   8   31.42    8.42 
  -5  13  -8   21.02   10.40 
  -5 -13  -8   29.15   10.13 
   5 -13   8   31.66    8.96 
  -5  13   8   33.62    9.45 
  -6  13   8   -6.58    6.09 
   6 -13   8    4.69    6.54 
  -6  13   8    2.46    5.47 
   6 -13  -8   14.28    8.66 
   6  13   8   -7.36    7.79 
  -6 -13  -8    9.19    7.60 
  -6  13  -8   -0.76    7.67 
   0  14   8  220.05   21.54 
   0  14   8  236.48   19.19 
   0  14  -8  211.19   19.15 
   0  14   8  221.11   17.03 
   0 -14  -8  252.33   23.73 
   0 -14   8  212.89   17.47 
   1  14  -8    3.12    8.28 
  -1  14   8    4.35    7.47 
  -1  14   8   15.35    7.51 
   1  14   8    3.44    7.23 
  -1 -14  -8    6.54    7.90 
   1 -14   8    3.56    6.45 
  -1 -14   8   18.23    7.05 
  -1  14  -8    1.64    7.62 
   1 -14  -8    7.06    7.19 
  -1  14   8    5.28    6.05 
  -2  14   8   96.75   14.56 
  -2  14   8  106.46   15.38 
  -2 -14   8  103.72   14.40 
   2 -14  -8  131.46   17.63 
  -2 -14  -8  118.74   17.77 
   2 -14   8  125.17   16.06 
  -2  14  -8  128.04   19.03 
   2  14  -8  104.35   16.45 
   2  14   8  110.63   17.90 
   3 -14   8   -6.56    5.25 
  -3  14   8    2.68    5.12 
  -3 -14   8    4.49    5.59 
  -3  14  -8   11.29    8.88 
   3  14  -8   -3.54    6.29 
   3  14   8    1.86    7.28 
  -3 -14  -8   14.13    8.74 
  -3  14   8    0.23    5.42 
   3 -14  -8    6.17    8.11 
   4 -14   8  229.56   21.38 
  -4  14   8  235.05   22.32 
  -4 -14  -8  256.57   23.99 
   4 -14  -8  241.04   19.10 
   4  14  -8  270.41   19.91 
   4  14   8  267.26   26.66 
  -4  14   8  180.71   15.97 
  -4  14  -8  231.76   20.33 
   5  14   8    3.94    8.89 
  -5 -14  -8    2.10    7.22 
  -5  14  -8   -4.02    7.71 
   5 -14  -8  -12.79    7.46 
   5 -14   8    0.78    6.24 
  -5  14   8   13.25    6.24 
  -5  14   8   10.27    6.88 
   0 -15  -8   10.17    8.58 
   0  15  -8   -2.54    6.41 
   0 -15   8    5.78    6.72 
   0  15   8   -6.89    4.95 
   0  15   8    8.03    8.40 
  -1  15   8    4.42    6.09 
  -1  15   8    1.25    6.03 
  -1  15  -8   -2.64    7.81 
  -1 -15   8   -0.33    6.07 
  -1  15   8    2.80    7.22 
   1 -15   8   -1.91    5.61 
   1 -15  -8    2.67    7.13 
  -1 -15  -8    3.80    6.57 
   1  15   8    0.87    6.86 
   1  15  -8   -8.55    6.22 
   2 -15  -8   11.69    7.88 
   2  15  -8   11.28    8.82 
  -2  15   8   -2.13    5.77 
   2  15   8   -1.19    7.76 
  -2  15   8   -1.33    6.02 
  -2 -15   8   -0.83    5.63 
  -2 -15  -8    7.18    8.53 
  -2  15  -8   -7.79    8.05 
   2 -15   8    8.80    7.21 
   3  15   8    4.16    7.07 
  -3  15  -8    1.41    9.01 
  -3 -15  -8   18.61    9.98 
  -3  15   8    2.74    6.14 
  -3 -15   8   -6.33    5.04 
   3 -15  -8   12.67    8.39 
   3 -15   8    2.91    6.80 
  -3  15   8    5.82    6.78 
   3  15  -8   20.20    8.97 
   4  15  -8   16.12    8.80 
   4 -15   8    3.92    6.79 
  -4 -15  -8   -0.49    8.16 
  -4  15   8    2.84    5.68 
   4  15   8   -1.85    8.52 
   4 -15  -8   23.41    9.69 
  -4  15  -8    9.33    8.71 
  -4  15   8    4.65    7.71 
   0  16  -8  206.71   24.12 
   0 -16  -8  128.18   19.43 
   0 -16   8  128.94   17.09 
   0  16   8  134.94   18.43 
  -1  16   8    5.43    7.10 
   1 -16   8    8.61    7.30 
   1  16   8   -5.38    6.47 
  -1 -16  -8    4.21    8.73 
  -1  16   8    1.92    7.60 
  -1  16   8   -4.49    5.80 
  -1  16  -8   -0.70    8.51 
  -1 -16   8   -6.58    5.48 
   1 -16  -8   -9.60    6.00 
   1  16  -8    6.54    8.46 
   2 -16  -8  158.42   20.26 
   2  16   8  150.87   20.77 
   2  16  -8  193.65   23.07 
  -2  16   8  145.97   18.48 
  -2 -16  -8  154.96   20.33 
  -2  16   8  146.21   18.46 
  -2  16  -8  151.24   22.52 
  -2 -16   8  140.49   16.89 
   2 -16   8  130.39   18.11 
   0   0   9    8.03    3.57 
   0   0   9   12.61    4.58 
   0   0  -9   14.69    4.92 
   0   0   9    7.87    3.23 
   0   0  -9   11.31    4.38 
   0   0  -9   17.63    4.35 
   1   0  -9  133.27    9.50 
  -1   0   9  122.77   10.48 
   1   0  -9  129.35   11.94 
  -1   0  -9  113.84    9.57 
   1   0  -9  124.44   10.39 
  -1   0  -9  115.55    9.75 
   1   0   9  121.91    9.52 
  -1   0   9  129.42    8.01 
   1   0   9  128.34    9.98 
   1   0   9  144.09   10.71 
  -1   0  -9  125.05    7.51 
  -1   0   9  116.81   10.05 
   2   0  -9   21.63    6.55 
  -2   0   9   11.00    3.17 
  -2   0   9    3.03    3.39 
  -2   0  -9   14.47    3.57 
  -2   0  -9    9.27    3.90 
   2   0  -9    6.62    4.00 
   2   0  -9    6.65    4.56 
   2   0   9   14.24    5.21 
  -2   0   9    6.87    4.83 
   2   0   9    4.23    3.59 
  -2   0  -9    6.53    3.82 
  -3   0   9   10.32    4.30 
  -3   0  -9    9.58    4.59 
   3   0   9   22.80    7.27 
   3   0   9   20.05    5.58 
  -3   0  -9   20.05    5.54 
   3   0  -9   23.47    7.16 
  -3   0   9   22.65    6.99 
   3   0  -9   11.90    5.38 
   4   0  -9   -0.01    3.49 
  -4   0  -9    5.30    3.85 
   4   0   9    2.77    3.28 
  -4   0   9    4.80    3.93 
  -4   0   9    8.02    5.32 
   4   0   9   11.60    6.30 
  -4   0  -9    3.56    3.51 
   4   0  -9    8.28    6.07 
  -5   0  -9  106.64    9.36 
   5   0  -9  165.46   17.61 
  -5   0   9   92.69   13.28 
  -5   0  -9  122.53   10.32 
   5   0  -9  129.62   11.00 
   5   0   9  107.69    7.58 
   5   0   9  141.58   16.29 
  -5   0   9  111.37   12.09 
   6   0  -9    2.01    4.25 
  -6   0   9   -2.14    2.99 
  -6   0  -9    3.73    4.15 
  -6   0  -9    0.91    3.22 
  -6   0   9    3.73    5.49 
   6   0  -9    0.45    6.31 
   6   0   9   12.33    7.98 
  -7   0   9    5.34    4.35 
  -7   0  -9   12.02    6.33 
   7   0  -9    3.42    4.76 
  -7   0   9    2.99    5.56 
  -7   0  -9   10.08    4.51 
   7   0   9    3.88    6.59 
   8   0  -9   -3.31    3.84 
  -8   0  -9    5.78    6.02 
  -8   0  -9    2.05    3.95 
  -8   0   9  -10.66    4.18 
  -8   0   9   -1.31    5.35 
   8   0   9    6.18    6.29 
  -8   0   9   11.63    5.45 
  -9   0  -9    9.46    5.27 
  -9   0   9    9.07    5.28 
   9   0   9    7.93    8.73 
  -9   0   9    8.67    7.74 
  -9   0  -9   18.70    7.68 
   9   0  -9    9.32    6.30 
  10   0   9   -0.32    7.12 
 -10   0  -9   -4.95    5.89 
 -10   0   9   -5.82    3.82 
  10   0  -9    0.58    5.64 
 -10   0   9  -17.05    5.44 
 -10   0  -9    6.59    5.42 
   0  -1  -9  191.00   12.32 
   0  -1  -9  160.64    9.80 
   0  -1   9  154.80   10.17 
   0   1   9  156.27   11.93 
   0  -1  -9  162.44   11.44 
   0  -1   9  168.18   11.75 
   0   1  -9  149.83   11.47 
   0   1  -9  183.54   12.52 
   0  -1   9  175.92   12.49 
   0   1   9  158.30   10.44 
   0   1  -9  176.62    9.24 
   0   1   9  151.14   11.39 
   1   1   9    0.60    2.61 
  -1  -1   9    3.33    3.46 
   1  -1  -9    4.60    3.36 
  -1  -1  -9   -0.47    2.31 
  -1   1   9    1.68    2.52 
   1   1  -9    8.11    4.20 
  -1   1  -9    2.02    3.09 
   1   1  -9    4.77    3.93 
   1  -1   9   -2.35    2.74 
  -1   1   9    1.74    4.11 
  -1   1  -9    1.95    2.52 
   1  -1  -9    0.72    3.08 
  -1  -1  -9   -3.15    2.53 
  -1  -1  -9    3.60    3.56 
   1  -1  -9    7.37    4.21 
  -1   1   9   -0.59    2.38 
  -1   1  -9    3.94    3.57 
   1   1   9    5.16    3.48 
  -1  -1   9    1.51    2.93 
   1  -1   9   -2.79    3.18 
   1   1   9    1.76    3.72 
   1  -1   9    3.68    3.55 
   1   1  -9   -0.33    2.83 
  -1  -1   9    3.00    3.09 
   2  -1  -9   19.66    6.01 
  -2   1  -9   11.58    4.58 
   2  -1   9   28.87    6.25 
  -2   1   9   13.24    5.87 
  -2   1   9   16.83    5.00 
   2  -1  -9   27.15    6.78 
  -2  -1   9   25.80    6.44 
   2   1   9   22.17    6.54 
  -2  -1  -9   17.76    5.05 
   2  -1   9   21.11    6.23 
   2  -1  -9   17.11    4.83 
  -2   1   9   23.65    3.81 
  -2   1  -9   26.01    5.81 
  -2  -1   9   18.13    5.95 
  -2  -1  -9   20.66    5.22 
   2   1  -9   29.22    6.89 
   2   1  -9   15.29    5.62 
   2   1   9   11.86    4.63 
   2   1   9   13.83    4.45 
  -2  -1  -9   20.66    4.38 
   3  -1   9    1.70    4.08 
  -3   1   9   -4.88    3.20 
   3   1   9   -0.78    3.83 
  -3  -1   9    2.55    4.07 
   3  -1   9    0.04    2.86 
  -3  -1  -9    0.00    2.36 
   3   1  -9   -0.53    3.25 
  -3  -1   9    0.13    2.94 
   3   1   9   -1.50    2.65 
   3  -1  -9   -0.91    3.34 
  -3   1  -9    0.18    2.84 
  -3  -1  -9   -1.36    2.51 
   3  -1  -9    3.00    4.79 
  -3  -1  -9    0.63    2.86 
   3   1  -9    4.78    5.49 
  -3   1   9    3.43    3.16 
  -3   1  -9    0.49    2.72 
   4   1  -9   60.63   11.41 
   4  -1  -9   48.21    8.09 
  -4   1  -9   45.63    7.91 
   4  -1  -9   46.29   10.49 
  -4   1   9   48.35    8.14 
  -4   1  -9   41.32    7.54 
  -4  -1  -9   48.02    5.62 
  -4  -1  -9   53.76    7.95 
   4   1  -9   40.63    7.89 
   4  -1   9   50.57    7.02 
   4   1   9   55.46    6.99 
   4   1   9   60.38   11.64 
  -4  -1   9   49.47    8.95 
  -4   1   9   42.37    9.67 
   4  -1   9   45.79   10.06 
  -4  -1  -9   38.31    7.18 
  -4  -1   9   51.44    9.84 
  -5   1  -9    5.54    4.39 
   5  -1  -9    3.52    4.04 
  -5  -1  -9   -2.80    2.66 
  -5   1  -9    1.16    2.96 
   5  -1  -9    1.31    5.97 
  -5   1   9   -0.19    3.42 
  -5  -1   9   -0.95    4.49 
  -5  -1   9    2.86    3.61 
  -5   1   9    4.79    5.08 
   5   1   9   -1.62    5.35 
   5  -1   9    2.40    5.56 
  -5  -1  -9    3.16    4.16 
   5   1  -9    7.61    4.90 
   5  -1   9    4.49    2.87 
   5   1  -9    9.08    6.90 
  -6  -1   9   66.14   10.31 
  -6   1   9   53.94    9.45 
  -6  -1   9   57.52   11.42 
  -6   1  -9   71.39   10.50 
   6   1   9   73.59   14.05 
  -6  -1   9   62.85   11.24 
  -6  -1  -9   62.89    9.83 
   6  -1   9   59.68   12.27 
   6  -1  -9   77.79   14.30 
  -6   1   9   68.88   11.98 
   6   1  -9   53.85    9.49 
  -6  -1  -9   53.94    8.12 
   6  -1  -9   52.89    9.20 
  -6   1  -9   66.53    8.97 
  -7   1  -9   -1.18    2.96 
  -7   1   9    2.63    5.61 
  -7  -1   9    2.44    5.22 
   7   1  -9    2.27    4.46 
   7  -1  -9    3.25    7.45 
   7   1   9   -4.34    4.80 
   7  -1   9    2.49    5.20 
  -7   1  -9    5.14    4.98 
   7  -1  -9    3.40    4.57 
  -7   1   9    3.81    4.71 
  -7  -1   9   -6.09    3.54 
  -7  -1  -9   -2.25    3.69 
  -7  -1  -9   -0.37    3.01 
  -7  -1   9   -5.21    5.39 
  -8  -1   9    3.60    5.46 
  -8   1  -9   -2.48    3.40 
   8  -1   9    8.94    7.30 
  -8   1   9    1.90    5.81 
  -8  -1   9    1.89    6.43 
  -8   1   9    5.68    4.67 
   8   1   9   -4.49    5.23 
  -8   1  -9    1.53    5.26 
   8  -1  -9   -0.30    4.42 
  -8  -1  -9    2.78    5.30 
   8   1  -9   -0.50    3.85 
  -8  -1  -9    2.59    3.66 
  -8  -1   9   -0.99    4.00 
   9   1   9    9.59    7.29 
  -9   1   9  -11.50    5.31 
  -9  -1   9    3.03    4.20 
  -9   1  -9   -6.84    3.60 
  -9  -1   9  -11.59    4.75 
  -9   1   9   -8.26    3.56 
   9   1  -9   -3.12    4.47 
   9  -1   9   -5.62    5.98 
   9  -1  -9   -1.91    4.23 
  -9  -1  -9    6.36    6.63 
  -9  -1  -9    3.25    4.10 
  -9   1  -9   -0.67    5.98 
 -10   1   9   21.30    7.26 
 -10  -1  -9   27.04    7.43 
 -10  -1   9   26.76   10.63 
  10  -1  -9   31.24    8.83 
 -10  -1   9   19.74    7.11 
 -10   1  -9   32.44    9.96 
 -10   1  -9   27.91    7.21 
 -10   1   9   25.16   11.26 
  10   1  -9   26.02    9.25 
  10   1   9   47.41   13.05 
 -10  -1  -9   25.50    9.67 
  10  -1   9   19.11    9.98 
   0   2  -9   18.28    4.03 
   0   2   9    6.59    3.95 
   0   2   9    6.02    3.95 
   0   2   9    1.49    2.97 
   0  -2   9   13.92    4.44 
   0  -2   9    6.00    4.23 
   0   2  -9    4.49    3.61 
   0  -2  -9   11.31    3.99 
   0  -2  -9    1.30    3.31 
   0  -2   9   10.16    4.09 
   0   2  -9    0.24    3.12 
   0  -2  -9    0.36    2.48 
   1   2   9   36.82    6.98 
  -1  -2   9   52.54    7.46 
  -1  -2   9   43.99    8.27 
  -1  -2  -9   33.26    6.87 
   1   2   9   41.78    8.50 
   1  -2   9   40.59    7.03 
   1  -2   9   47.10    7.98 
  -1  -2  -9   47.20    6.66 
   1  -2  -9   48.94    8.09 
   1   2  -9   48.62    7.99 
   1   2   9   54.58    9.42 
  -1   2   9   39.48    8.40 
  -1  -2   9   59.23    9.30 
   1  -2  -9   51.46    8.01 
  -1  -2  -9   42.34    7.34 
   1   2  -9   53.78    9.22 
  -1   2   9   44.83    6.22 
  -1   2   9   48.80    8.70 
   1  -2   9   41.27    7.70 
   1  -2  -9   45.38    7.72 
  -1   2  -9   52.61    8.50 
   1   2  -9   78.85    8.65 
  -1   2  -9   54.73    8.48 
   2  -2   9   18.72    5.98 
   2   2  -9   23.42    6.29 
   2   2  -9   11.93    3.43 
  -2  -2  -9   11.42    4.43 
  -2  -2   9    7.84    4.20 
   2  -2  -9   16.37    5.20 
  -2   2   9   17.84    3.43 
   2   2   9    7.60    5.29 
   2  -2   9   15.84    5.05 
  -2  -2  -9   10.94    4.16 
  -2   2  -9   13.85    4.78 
   2  -2  -9   15.02    5.06 
   2   2   9   12.33    4.73 
   2   2   9   21.00    4.71 
  -2   2   9    2.97    5.11 
   2   2  -9   30.94    7.40 
  -2  -2  -9   10.35    4.40 
  -2   2   9   10.80    4.44 
  -2  -2   9   11.34    5.02 
  -2   2  -9   11.55    4.39 
   3  -2  -9    0.19    2.76 
  -3   2   9    0.84    4.17 
   3  -2   9    0.20    4.51 
   3  -2  -9    0.89    4.32 
  -3  -2  -9    3.19    2.99 
  -3   2  -9    2.96    3.13 
  -3  -2  -9    0.00    2.78 
  -3   2   9    0.93    2.62 
  -3  -2   9    2.61    3.37 
   3   2   9   -2.94    2.64 
   3  -2   9    3.51    3.66 
  -3  -2   9   -4.11    3.01 
  -3   2  -9    2.55    3.41 
  -3  -2  -9    3.41    2.93 
   3   2  -9    2.36    4.58 
   3   2  -9    3.16    4.37 
   3   2   9    1.13    4.43 
   4  -2  -9    2.68    5.11 
   4   2   9    8.43    3.63 
  -4  -2  -9    0.42    3.61 
  -4  -2   9    8.61    4.26 
  -4   2  -9   -1.28    2.58 
  -4  -2   9    8.54    4.88 
  -4  -2  -9   -0.30    2.68 
  -4   2   9    0.23    2.92 
  -4   2   9   -0.10    3.99 
   4  -2  -9    6.08    3.85 
   4  -2   9    4.51    5.31 
   4   2   9    6.04    6.45 
  -4  -2  -9    0.38    3.04 
   4  -2   9    6.04    3.40 
  -4   2  -9   -0.87    3.50 
   4   2  -9    5.82    4.03 
   5   2   9   68.43   13.41 
   5  -2   9   59.44    7.12 
  -5  -2   9   56.85   10.23 
  -5  -2  -9   81.03   10.17 
   5  -2  -9   67.76    9.20 
  -5   2  -9   63.99    9.25 
  -5  -2   9   68.79   10.44 
  -5   2  -9   63.72    9.65 
  -5  -2  -9   67.57    8.76 
  -5   2   9   68.76    9.71 
  -5   2   9   54.74   10.79 
   5   2  -9   63.47   10.23 
   5  -2  -9   97.58   14.27 
  -5  -2  -9   92.33    8.40 
   5  -2   9   91.77   13.99 
  -5  -2   9   61.54   11.16 
   6  -2   9    4.77    3.35 
  -6  -2   9    2.59    4.87 
  -6  -2  -9    2.79    3.76 
  -6   2  -9    7.76    5.45 
  -6   2  -9    5.50    4.04 
  -6  -2  -9    5.84    3.59 
  -6  -2   9   12.08    5.15 
  -6   2   9   -5.84    4.39 
   6  -2  -9    8.14    7.46 
   6   2  -9    5.21    4.94 
   6  -2  -9    3.37    4.52 
  -6   2   9    3.31    3.85 
   6   2   9   -0.47    6.87 
  -6  -2   9   15.27    6.99 
   6  -2   9    3.78    7.24 
  -7  -2   9   -1.14    3.67 
   7   2  -9   11.08    6.22 
  -7  -2   9   -2.59    4.27 
  -7  -2   9   -2.59    5.37 
  -7  -2  -9    1.26    4.64 
   7  -2   9    1.10    5.63 
   7  -2  -9   -2.70    3.55 
  -7   2  -9    0.94    4.67 
   7   2   9    6.45    6.76 
  -7   2   9    5.60    5.81 
  -7   2  -9    3.43    4.10 
  -7  -2  -9    5.83    3.95 
   7  -2  -9   15.99    8.25 
  -7   2   9   -1.08    3.94 
   8  -2  -9    1.46    4.80 
  -8   2   9    3.27    4.33 
  -8   2   9    5.06    6.40 
   8   2   9    4.08    7.50 
  -8  -2   9   12.90    7.13 
  -8   2  -9    2.45    5.50 
  -8  -2   9    4.86    4.42 
  -8   2  -9    1.70    3.92 
  -8  -2  -9   -0.97    3.47 
   8  -2   9    3.22    5.84 
   8  -2  -9    2.65    6.97 
  -8  -2   9   -1.21    5.00 
  -8  -2  -9    2.53    4.91 
   8   2  -9    0.85    5.18 
  -9  -2  -9    2.43    4.55 
  -9   2   9    2.26    4.46 
  -9  -2   9    4.90    6.12 
   9   2  -9    9.44    6.34 
   9  -2   9    5.95    6.83 
  -9  -2  -9   -0.56    5.68 
  -9   2  -9    6.18    7.00 
   9  -2  -9    3.61    4.92 
  -9   2   9    0.23    5.90 
  -9  -2   9    3.09    4.88 
   9   2   9    7.36    8.27 
  -9   2  -9    1.86    4.60 
 -10   2   9    3.35    8.04 
 -10  -2   9    5.73    5.35 
  10  -2   9   19.68    9.01 
 -10  -2   9    5.92    7.92 
 -10  -2  -9    6.76    6.82 
  10   2  -9   11.36    7.24 
  10   2   9    0.98    7.78 
 -10   2  -9    4.12    4.87 
 -10   2   9    5.70    5.09 
 -10   2  -9   -1.96    6.28 
  10  -2  -9    4.05    5.69 
 -10  -2  -9    3.02    5.03 
   0  -3   9   94.56   10.07 
   0   3   9   57.16    9.23 
   0   3  -9   71.15    9.59 
   0   3   9   57.00    8.74 
   0  -3   9   61.68    9.02 
   0   3  -9   70.94    9.85 
   0   3   9   61.02   10.23 
   0  -3   9   48.65    8.46 
   0  -3  -9   54.10    7.83 
   0  -3  -9   83.19    9.27 
   0  -3   9   57.14    4.68 
   0  -3  -9   67.36    8.69 
   1  -3  -9    0.67    3.26 
  -1  -3   9   -0.09    3.66 
  -1  -3   9    1.47    3.30 
  -1  -3   9    3.47    3.34 
  -1  -3   9   -0.88    3.32 
   1   3  -9    3.23    3.95 
  -1   3   9    3.83    4.19 
   1  -3  -9   -1.38    2.66 
  -1  -3  -9   -0.65    3.01 
   1   3  -9    0.38    2.96 
  -1  -3  -9    0.95    2.66 
  -1  -3  -9   -1.01    2.82 
  -1   3  -9   -0.55    3.14 
   1   3   9    0.15    4.24 
  -1   3   9    2.74    3.25 
  -1   3   9    0.18    2.97 
  -1   3  -9    0.74    3.01 
   1   3   9   -0.15    3.16 
   1  -3  -9    0.24    3.32 
   1  -3   9    1.30    3.53 
   1   3   9    6.09    4.34 
   1  -3   9    5.53    4.77 
  -2  -3   9   78.07   10.91 
   2  -3  -9   72.99   10.28 
  -2   3  -9   78.00    9.86 
   2  -3   9   69.77   10.44 
  -2  -3  -9   62.96    8.49 
   2   3   9   83.42   12.61 
   2   3  -9   68.30    6.30 
  -2   3  -9   75.27    9.66 
   2   3   9   87.51   11.90 
  -2   3   9   73.37    6.77 
   2   3   9   65.23    7.98 
  -2  -3  -9   76.17    8.28 
   2  -3   9   86.06   10.18 
  -2   3   9   65.46    9.96 
   2  -3  -9   80.71    9.61 
  -2   3   9   62.92   10.61 
  -2  -3   9   73.35   10.31 
  -2  -3   9   73.05    8.97 
  -2  -3  -9   67.57    8.77 
   2   3  -9   80.28   11.09 
  -3   3   9    6.51    4.24 
   3  -3  -9    3.77    3.44 
   3  -3   9    3.35    3.18 
  -3  -3  -9   -1.18    3.11 
   3   3  -9    3.53    3.89 
  -3  -3   9    2.90    4.27 
  -3   3  -9    4.12    4.29 
  -3   3  -9   -1.40    2.96 
   3  -3   9    2.86    4.34 
   3   3   9    4.58    5.79 
   3   3   9    3.77    3.31 
  -3  -3  -9   -2.16    2.52 
  -3  -3   9   -2.80    3.84 
  -3   3   9   -1.03    4.37 
  -3  -3  -9    2.50    3.05 
  -3  -3   9    8.11    4.08 
   3  -3  -9   -0.28    4.11 
   4  -3  -9    6.37    5.50 
  -4  -3   9    3.57    3.70 
   4   3  -9    3.58    4.37 
   4  -3   9    8.13    6.16 
  -4   3   9   10.42    4.74 
  -4   3  -9    6.93    4.03 
  -4  -3  -9    6.20    3.68 
   4   3   9   10.86    7.08 
  -4  -3  -9    7.73    4.39 
  -4  -3  -9    9.49    4.22 
  -4   3  -9    2.43    3.73 
  -4  -3   9    9.78    5.27 
   4   3   9   11.89    3.68 
  -4   3   9   13.20    6.57 
  -4  -3   9    7.80    5.22 
   4  -3  -9    6.08    3.74 
   4  -3   9    6.64    3.81 
  -5   3  -9    1.27    2.87 
   5  -3   9   -2.19    4.76 
   5   3   9   11.87    7.53 
   5  -3   9    0.74    2.93 
   5  -3  -9    1.85    2.98 
  -5  -3   9   -6.22    3.63 
  -5  -3  -9   -0.35    3.07 
  -5   3   9    1.36    3.27 
  -5  -3   9    2.01    3.39 
  -5  -3   9   -1.64    4.33 
   5   3  -9    2.79    4.41 
  -5  -3  -9   -1.68    2.97 
  -5   3  -9   -2.70    3.47 
  -5   3   9   -0.46    5.32 
   5  -3  -9   -5.36    4.91 
  -5  -3  -9   -2.30    3.04 
  -6   3   9    5.24    5.78 
   6  -3   9    1.77    3.33 
  -6  -3  -9   -1.38    4.11 
  -6  -3   9   -1.39    3.15 
  -6  -3   9    1.25    6.33 
  -6  -3  -9    4.26    4.42 
   6   3  -9   -2.04    3.75 
  -6   3  -9   -1.46    2.84 
   6  -3  -9    1.95    3.52 
  -6  -3   9    6.41    5.33 
  -6   3   9    4.41    4.09 
   6  -3  -9    2.32    6.77 
  -6   3  -9    6.47    4.66 
  -6  -3  -9    0.65    3.21 
   6  -3   9   -2.69    5.87 
   6   3   9    0.69    6.36 
  -7   3  -9    1.14    4.01 
  -7  -3   9   10.38    6.89 
   7  -3  -9   -5.15    3.38 
  -7  -3   9    1.34    3.99 
  -7   3  -9    7.75    5.38 
  -7   3   9    1.86    5.94 
   7  -3   9    4.26    6.31 
  -7   3   9    2.20    3.52 
   7   3   9    5.99    7.37 
  -7  -3  -9   -2.67    4.10 
  -7  -3  -9    3.03    3.66 
   7  -3  -9    3.69    7.18 
   7   3  -9   -3.05    3.99 
  -7  -3   9    0.91    5.00 
   8  -3  -9    7.62    8.56 
  -8   3  -9   -0.10    4.98 
  -8  -3  -9    7.04    4.57 
  -8  -3   9   10.20    7.48 
  -8  -3   9    6.34    4.90 
  -8  -3  -9    1.15    5.61 
  -8   3   9    4.07    6.19 
   8  -3   9   11.63    7.44 
   8  -3  -9    3.95    4.57 
   8   3   9    5.53    6.95 
   8   3  -9    5.83    5.75 
  -8   3  -9    5.79    4.76 
  -8   3   9    4.80    4.95 
   9   3  -9    0.83    5.20 
   9  -3  -9    2.15    4.82 
  -9  -3  -9   -2.74    5.30 
   9  -3   9   -8.93    5.64 
  -9  -3   9    0.33    4.35 
  -9  -3  -9    2.59    4.52 
  -9  -3   9    0.02    6.12 
   9   3   9    0.21    7.13 
  -9   3   9   -4.88    3.69 
  -9   3   9    4.25    5.96 
  -9   3  -9   -0.48    5.63 
   9  -3  -9   -0.72    7.66 
  -9   3  -9   -2.71    3.94 
 -10   3   9   -7.10    7.38 
 -10   3   9   -2.31    5.23 
  10  -3  -9    8.34    5.59 
  10   3   9   -2.48    5.93 
 -10   3  -9    1.15    4.13 
  10  -3   9    2.34    7.14 
 -10  -3   9   12.35    5.60 
  10   3  -9    3.46    6.22 
 -10  -3   9   -0.64    6.60 
 -10  -3  -9    0.50    4.96 
 -10  -3  -9   -7.20    4.85 
 -10   3  -9   -2.26    5.81 
   0  -4   9   21.61    5.60 
   0  -4  -9    7.06    3.52 
   0  -4   9   33.07    6.87 
   0  -4  -9    7.77    4.27 
   0   4   9    2.41    3.66 
   0  -4  -9   16.51    4.58 
   0   4  -9   31.47    6.55 
   0   4  -9    4.39    3.67 
   0   4   9    7.06    4.61 
   0   4   9    7.00    5.05 
  -1  -4   9  163.67   12.29 
   1  -4  -9  168.33   11.43 
  -1   4  -9  151.01   11.83 
   1  -4   9  147.20   11.55 
   1   4  -9  178.75   13.06 
  -1   4  -9  161.26   12.00 
   1  -4   9  169.51   12.38 
  -1   4   9  153.71   13.12 
   1   4  -9  165.70   11.20 
   1   4   9  172.05   13.89 
   1  -4  -9  184.78   12.57 
   1   4   9  176.34   12.16 
  -1  -4   9  139.48   11.80 
  -1  -4  -9  164.78   11.61 
   1   4   9  160.06   13.49 
  -1  -4  -9  164.90   11.34 
  -1  -4  -9  166.55   11.31 
  -1   4   9  189.31   12.19 
  -1   4   9  181.21   13.89 
  -1  -4   9  163.04    9.30 
   2  -4   9    7.23    4.13 
  -2  -4  -9    4.12    3.64 
  -2   4   9    3.08    3.53 
  -2   4  -9    6.11    4.48 
   2  -4  -9   12.50    4.44 
   2   4   9   12.74    4.15 
   2   4  -9   11.61    4.02 
  -2  -4   9   -0.19    3.66 
  -2  -4   9    7.32    4.32 
  -2  -4  -9    1.52    3.04 
   2   4   9    6.81    4.34 
  -2   4  -9    3.13    3.38 
  -2  -4   9    2.67    3.33 
  -2  -4  -9    5.33    3.98 
  -2   4   9    5.50    4.81 
   2   4  -9    4.91    3.77 
   2  -4  -9    9.15    4.78 
  -2   4   9    1.18    3.46 
   2  -4   9    4.48    5.11 
   2   4   9    3.04    5.92 
   3   4  -9   51.68    6.21 
   3  -4  -9   41.44    7.11 
  -3  -4  -9   43.42    7.37 
  -3  -4   9   34.91    8.55 
  -3  -4   9   39.47    8.02 
   3  -4   9   48.67    7.88 
  -3  -4  -9   45.49    6.96 
  -3  -4   9   52.87    8.65 
   3   4   9   47.52    6.20 
  -3   4  -9   43.91    8.12 
   3   4   9   60.40   12.39 
  -3   4  -9   42.61    7.80 
  -3   4   9   19.61    7.52 
  -3  -4  -9   52.29    8.07 
   3  -4   9   54.07   10.55 
   3   4  -9   48.27    9.26 
  -3   4   9   34.49    7.87 
   3  -4  -9   53.16    9.59 
  -4  -4  -9    1.71    3.44 
   4  -4   9    6.60    3.67 
  -4   4  -9   14.47    4.66 
  -4  -4   9    9.70    5.11 
  -4   4   9    3.38    3.67 
  -4   4   9   -0.92    5.08 
   4   4  -9    4.98    3.93 
  -4  -4   9    5.04    3.98 
   4  -4   9   11.50    6.35 
  -4  -4  -9   -0.54    3.14 
   4  -4  -9    3.64    3.53 
   4   4   9   -2.39    5.26 
   4  -4  -9    8.40    5.56 
  -4   4  -9    9.46    5.14 
  -4  -4  -9    3.20    3.56 
  -4  -4   9   14.93    5.82 
   5   4   9  147.31   19.27 
  -5   4  -9  119.50   10.15 
  -5  -4  -9  131.08   10.68 
  -5  -4  -9  128.14   10.65 
  -5  -4   9  144.34   12.77 
   5  -4  -9  128.18   10.13 
  -5   4   9  152.20   16.79 
  -5   4   9  145.47   12.21 
   5   4  -9  146.72   14.79 
  -5  -4  -9  154.67   10.80 
  -5  -4   9  145.87   12.73 
   5  -4  -9  156.09   16.59 
  -5  -4   9  142.13   14.46 
  -5   4  -9  147.23   12.09 
   5  -4   9  140.97   10.23 
   5  -4   9  146.62   16.93 
  -6   4  -9    0.07    4.74 
  -6   4  -9    2.61    3.80 
   6  -4   9    2.83    6.51 
  -6  -4   9    9.53    5.91 
  -6   4   9    2.85    3.79 
   6  -4   9   -0.05    3.01 
  -6  -4  -9   -0.78    3.03 
   6  -4  -9    0.40    3.43 
  -6   4   9   -1.26    5.17 
   6  -4  -9   -1.92    5.50 
   6   4   9   -0.40    5.70 
  -6  -4   9   -1.37    3.27 
  -6  -4  -9   -1.76    3.36 
  -6  -4  -9    1.40    4.31 
  -6  -4   9    6.45    6.03 
   6   4  -9    5.59    4.82 
  -7  -4   9   33.14    8.53 
   7   4   9   20.41    9.95 
  -7   4   9   12.59    7.61 
   7  -4  -9   31.66    7.02 
  -7  -4   9   32.26    8.10 
  -7   4  -9   30.30    7.30 
   7  -4  -9   23.43   10.88 
  -7   4   9   24.15    6.73 
  -7  -4  -9   35.82    8.32 
  -7  -4   9   39.65   10.91 
  -7  -4  -9   22.45    6.33 
  -7   4  -9   28.53    8.08 
   7  -4   9   23.46    8.98 
   7   4  -9   32.46    9.53 
  -8   4   9    8.79    7.31 
  -8   4  -9    0.88    4.35 
   8  -4  -9    9.50    7.58 
  -8  -4   9    6.03    6.79 
  -8   4   9    8.03    4.58 
   8   4   9    4.55    6.83 
  -8  -4  -9   10.25    6.08 
   8   4  -9   -0.80    5.21 
  -8  -4   9    3.75    4.05 
   8  -4  -9    5.94    4.69 
  -8   4  -9    3.43    5.78 
  -8  -4  -9   -4.63    2.81 
   8  -4   9    8.00    6.92 
  -9   4  -9   24.35    9.08 
  -9   4  -9   24.01    6.61 
  -9  -4  -9   15.81    6.13 
   9  -4  -9   28.88    7.89 
  -9   4   9   20.01    6.54 
  -9   4   9    5.57    7.07 
   9  -4  -9   11.46   10.05 
   9   4   9   20.60    9.78 
   9  -4   9   26.12   10.68 
  -9  -4   9   17.12    6.66 
   9   4  -9   19.96    8.69 
  -9  -4  -9   28.85    8.65 
  -9  -4   9   20.63    9.57 
  10  -4  -9    1.10    8.48 
 -10   4  -9    6.42    6.91 
  10  -4  -9    0.39    4.70 
  10   4  -9   -2.18    5.71 
 -10  -4  -9   -0.84    4.62 
 -10  -4   9   -6.42    6.12 
 -10  -4   9   -1.78    4.27 
 -10   4   9    0.22    4.06 
  10  -4   9   13.04    9.55 
 -10   4  -9    1.45    4.82 
  10   4   9    7.13    9.03 
 -10  -4  -9   -3.83    6.28 
   0  -5  -9  127.54   10.92 
   0  -5  -9  130.61   10.13 
   0   5   9  149.94   14.18 
   0   5   9  135.98   15.00 
   0   5   9  132.59   11.98 
   0  -5  -9  143.08   10.29 
   0   5  -9  139.57   13.35 
   0   5  -9  118.30   11.00 
   0  -5   9  148.75   13.62 
  -1   5   9    0.37    3.50 
   1  -5  -9   12.42    5.14 
  -1  -5  -9    3.01    3.35 
  -1   5   9    6.74    5.09 
   1   5   9    6.79    5.88 
  -1   5  -9    6.83    4.02 
   1  -5  -9    9.26    4.19 
  -1  -5  -9    8.46    4.62 
   1   5  -9    2.37    3.76 
   1  -5   9    5.42    4.03 
   1   5  -9    3.07    3.98 
  -1  -5   9   11.16    3.52 
  -1   5  -9    3.45    4.02 
   1  -5   9    4.42    5.05 
   1   5   9   11.63    5.44 
  -1   5   9    1.66    4.12 
   1   5   9   11.50    4.73 
  -1  -5   9    4.03    4.49 
  -1  -5  -9    2.20    3.32 
   2  -5  -9  111.13    8.83 
  -2   5  -9   98.66   11.31 
   2  -5   9  120.22   11.77 
   2  -5  -9  133.16   12.98 
  -2  -5  -9  106.61    9.28 
   2   5   9  100.62   10.35 
  -2  -5   9  106.88   12.09 
  -2  -5   9   97.25   11.84 
   2   5  -9   99.53    8.53 
  -2  -5   9  111.25    8.77 
  -2  -5  -9  105.14    8.99 
  -2   5   9  102.77   13.92 
   2   5  -9  128.59   13.47 
  -2  -5  -9  109.44   10.71 
  -2   5   9  114.94   13.13 
   2  -5   9  142.87   14.24 
  -2   5  -9  105.92   11.57 
  -2   5   9  107.69    8.97 
   2   5   9  114.89   14.51 
   2   5   9  128.62   15.57 
  -3   5   9    9.06    4.60 
  -3  -5   9    0.83    4.08 
   3   5  -9    2.11    3.59 
  -3  -5  -9    0.65    3.12 
  -3  -5   9    5.59    4.42 
   3  -5  -9   -0.03    5.01 
   3   5  -9    3.62    3.82 
   3  -5   9    7.30    4.37 
  -3   5  -9    5.24    3.40 
   3   5   9   -3.88    2.65 
  -3   5  -9    3.70    4.22 
  -3  -5  -9    4.41    3.53 
  -3  -5  -9    2.19    3.32 
  -3  -5   9    7.52    4.40 
   3  -5  -9    1.82    3.15 
  -3   5   9    4.49    5.14 
   3   5   9    0.97    4.91 
   3  -5   9    3.84    5.54 
  -4  -5  -9   45.50    7.56 
  -4   5   9   36.51    7.83 
   4  -5   9   43.25    7.67 
  -4   5  -9   37.84    7.18 
   4  -5   9   54.85   11.56 
  -4   5   9   40.75   10.13 
   4   5   9   47.80   12.35 
   4   5  -9   35.92    8.15 
  -4  -5   9   52.93    9.72 
  -4  -5   9   41.88    8.57 
  -4  -5  -9   32.85    6.76 
  -4  -5   9   44.91    9.29 
  -4  -5  -9   41.60    7.38 
  -4   5  -9   37.30    7.90 
   4  -5  -9   46.74   10.22 
   4  -5  -9   44.45    7.19 
  -5  -5   9   12.21    6.24 
  -5  -5  -9    9.90    4.85 
   5  -5  -9    5.94    3.67 
  -5  -5  -9    0.52    3.42 
  -5   5  -9   -1.05    4.31 
   5   5  -9    4.09    4.60 
  -5   5   9    8.38    4.20 
  -5   5  -9    9.27    4.17 
  -5  -5  -9   -1.17    3.53 
   5  -5   9    1.22    3.80 
   5  -5   9   10.56    7.45 
  -5   5   9   -3.88    4.21 
   5  -5  -9    6.31    6.37 
  -5  -5   9   -0.65    4.38 
  -5  -5   9   10.06    4.77 
   5   5   9   14.10    8.52 
   6  -5  -9  168.12   18.54 
   6  -5   9  142.09   18.11 
  -6  -5  -9  142.63   11.93 
  -6   5   9  135.53   17.14 
  -6  -5  -9  137.82   11.40 
  -6  -5  -9  143.67   12.04 
   6   5   9  192.36   22.26 
  -6  -5   9  151.62   15.15 
  -6  -5   9  143.74   14.83 
   6  -5   9  140.92   10.75 
  -6   5   9  114.54   13.09 
  -6   5  -9  138.23   14.05 
   6   5  -9  168.53   16.17 
  -6  -5   9  135.83   16.03 
  -6   5  -9  137.68   11.40 
   6  -5  -9  141.42   11.25 
   7   5   9    6.62    7.00 
   7   5  -9   -3.96    4.62 
   7  -5   9    4.00    3.75 
  -7  -5  -9   -1.71    4.32 
   7  -5  -9    4.31    7.35 
  -7   5  -9    2.62    4.21 
  -7   5   9   -1.50    5.88 
  -7   5  -9    5.16    5.26 
   7  -5  -9   -3.87    3.37 
  -7  -5   9    7.64    6.97 
  -7   5   9    1.14    3.73 
  -7  -5   9   -0.11    4.39 
  -7  -5  -9    1.60    4.89 
   7  -5   9    8.69    6.25 
  -7  -5  -9   -8.78    3.03 
  -7  -5   9    3.07    5.51 
  -8   5  -9    0.72    5.34 
  -8  -5  -9   -1.73    5.22 
   8  -5   9    6.22    7.17 
  -8  -5   9    6.67    4.67 
   8   5  -9    7.34    6.32 
  -8   5   9   -0.50    4.02 
  -8  -5   9    2.76    4.86 
   8  -5  -9    4.74    8.26 
  -8   5   9    2.04    6.51 
   8  -5  -9    6.10    4.61 
  -8  -5  -9    6.21    4.46 
  -8   5  -9    3.90    4.76 
   8   5   9   25.48   10.13 
   9  -5   9   -1.54    6.72 
   9   5   9   10.53    8.40 
  -9  -5   9    1.05    4.33 
  -9  -5  -9    3.85    5.38 
  -9   5   9    1.14    6.77 
   9  -5  -9   13.66    9.00 
  -9   5  -9   -5.74    5.66 
   9   5  -9    1.64    5.91 
  -9  -5   9    0.69    6.54 
  -9  -5  -9    8.43    6.24 
  -9   5  -9   -3.80    4.28 
   9  -5  -9   13.02    5.81 
  -9   5   9    0.57    3.86 
 -10  -5  -9   45.20   10.95 
 -10  -5   9   54.19   10.79 
  10  -5  -9   68.12   16.23 
 -10   5  -9   75.03   14.14 
  10   5   9   82.82   16.77 
 -10  -5   9   60.76   14.79 
 -10   5   9   55.35   10.03 
 -10   5   9   75.48   13.51 
 -10   5  -9   63.77   10.05 
  10   5  -9   60.54   12.79 
  10  -5   9   48.18   13.70 
 -10  -5  -9   62.16   10.85 
   0   6  -9   21.79    5.47 
   0  -6   9   16.78    5.22 
   0   6   9   -0.23    3.43 
   0   6  -9   36.95    6.78 
   0   6   9    1.47    4.80 
   0  -6  -9   23.26    4.75 
   0  -6  -9   16.86    5.50 
   1  -6   9   -0.32    3.70 
  -1  -6  -9    0.24    2.97 
   1   6   9    4.90    4.93 
   1   6   9    1.13    3.86 
   1   6   9   -0.25    5.16 
  -1   6   9    2.18    3.95 
  -1   6   9    2.68    4.86 
   1   6  -9   -1.26    3.38 
   1   6  -9   -0.15    4.01 
  -1  -6  -9    3.30    4.15 
   1  -6  -9    2.60    4.91 
   1  -6  -9    0.82    3.20 
  -1   6   9    6.03    4.79 
  -1  -6   9    4.60    4.46 
  -1  -6  -9    3.10    3.15 
  -1   6  -9    3.41    4.26 
  -2  -6  -9   -0.49    3.07 
   2   6   9   -6.37    4.31 
   2  -6  -9    1.89    3.06 
   2   6  -9   -0.80    3.55 
   2   6   9    1.46    3.64 
  -2   6  -9    3.15    3.42 
  -2  -6   9    1.80    3.67 
  -2  -6  -9   -2.11    3.41 
  -2   6   9   -1.85    3.44 
   2  -6   9    1.17    3.64 
  -2  -6  -9   -1.33    3.24 
  -2   6   9   -2.55    4.08 
  -2  -6   9    7.67    4.10 
  -2   6  -9    0.54    4.09 
   2  -6  -9   -1.63    4.01 
  -2   6   9   -1.72    4.13 
   2  -6   9    8.43    6.08 
   2   6  -9    6.07    4.03 
   3   6   9   28.93    5.57 
  -3  -6   9   33.72    7.57 
  -3   6  -9   18.31    6.27 
  -3  -6  -9   30.63    6.70 
  -3   6   9   35.56    8.64 
   3   6   9   33.49   10.03 
   3  -6   9   26.77    6.74 
   3   6  -9   38.83    8.38 
  -3  -6   9   20.88    7.08 
   3   6  -9   38.12    7.08 
  -3   6   9   31.98    7.88 
   3  -6  -9   36.60    6.29 
  -3  -6   9   26.33    7.18 
  -3  -6  -9   39.74    7.77 
   3  -6  -9   39.20    9.45 
  -3   6  -9   26.87    6.50 
  -3  -6  -9   35.24    6.60 
   3  -6   9   33.42    9.29 
  -4  -6  -9    0.80    3.65 
  -4  -6  -9   -0.66    3.53 
   4  -6   9   11.87    4.68 
  -4  -6   9   15.30    5.90 
   4  -6  -9   10.28    3.88 
  -4  -6   9    9.18    4.98 
   4  -6  -9   13.43    5.43 
  -4   6   9    1.54    5.72 
  -4  -6  -9    4.51    4.50 
   4   6   9    6.30    7.04 
  -4   6  -9   13.20    4.58 
   4  -6   9   14.16    6.62 
  -4  -6   9   11.04    5.33 
  -4   6   9    3.17    3.92 
   4   6  -9   15.71    5.35 
  -4   6  -9   11.35    5.27 
  -5   6   9    3.57    4.20 
  -5   6  -9    5.98    5.10 
  -5  -6  -9    7.50    4.65 
  -5  -6   9    5.30    4.23 
  -5  -6   9    8.30    6.48 
  -5  -6  -9    6.61    4.21 
   5  -6   9    5.32    4.17 
   5  -6  -9    5.69    3.69 
   5   6  -9    3.20    5.24 
  -5  -6   9    5.64    5.01 
  -5   6   9    2.39    5.89 
   5  -6   9    3.47    6.05 
   5   6   9    5.27    7.46 
  -5  -6  -9    9.40    5.27 
  -5   6  -9    6.76    4.12 
   5  -6  -9    5.17    6.34 
   6  -6   9    2.51    3.73 
  -6   6   9    2.43    6.29 
   6  -6   9   -3.63    6.46 
  -6  -6  -9    4.08    4.48 
   6  -6  -9   -0.26    3.49 
   6  -6  -9   -1.56    5.02 
  -6  -6   9    3.44    4.61 
  -6  -6   9    1.45    3.55 
  -6   6  -9   -0.48    5.04 
  -6  -6   9    4.61    5.58 
  -6  -6  -9    1.42    3.69 
   6   6   9    5.73    7.27 
  -6   6   9    3.98    3.99 
   6   6  -9   -1.79    5.02 
  -6   6  -9    6.87    4.34 
  -6  -6  -9    6.47    5.00 
  -7   6  -9    7.03    6.04 
   7  -6   9    3.25    3.96 
  -7   6   9   -1.23    3.66 
  -7   6  -9    0.73    3.90 
   7  -6   9   11.06    7.73 
  -7  -6   9    7.09    4.98 
  -7  -6  -9    6.74    4.92 
  -7   6   9    5.92    6.89 
   7   6  -9   15.31    7.43 
  -7  -6  -9    4.11    5.65 
   7  -6  -9   -1.09    3.77 
   7   6   9    7.80    8.23 
  -7  -6  -9   10.46    4.85 
   7  -6  -9    3.68    6.96 
  -7  -6   9    2.35    6.81 
   8  -6  -9    2.46    8.22 
  -8  -6  -9    4.34    5.11 
   8   6  -9   10.79    7.10 
  -8   6   9    6.05    4.21 
  -8  -6  -9    4.32    6.02 
  -8   6  -9   -0.84    3.76 
  -8  -6   9    0.77    6.80 
  -8  -6  -9    8.67    6.37 
  -8   6   9    6.34    6.66 
  -8   6  -9   11.90    7.11 
   8   6   9   -2.64    7.11 
  -8  -6   9    4.80    4.56 
   8  -6   9    5.15    7.10 
   9   6  -9   -0.26    6.33 
  -9   6  -9   -2.08    6.10 
   9  -6   9    6.58    7.82 
  -9  -6  -9    5.44    6.67 
  -9   6  -9    2.27    4.54 
  -9   6   9   -0.56    6.67 
   9   6   9    6.59    7.73 
  -9   6   9    9.41    4.65 
  -9  -6   9    6.97    7.59 
  -9  -6   9   -4.79    4.19 
   9  -6  -9   -2.49    6.70 
  -9  -6  -9   -1.60    4.36 
   0   7  -9   83.88   11.46 
   0   7  -9   78.63   11.22 
   0   7   9   56.42   10.15 
   0   7   9   83.24   12.09 
   0  -7  -9   74.24   11.34 
   0  -7   9   69.44   10.25 
   0  -7  -9   78.90    8.44 
   0   7   9   63.78   11.12 
  -1   7   9   -4.48    4.32 
   1  -7   9    5.97    4.33 
   1   7   9   -8.34    3.83 
   1   7   9    4.02    6.08 
  -1  -7  -9    6.46    4.03 
   1  -7  -9    8.81    6.03 
  -1  -7  -9    0.49    4.13 
   1   7   9    2.61    4.13 
  -1  -7   9   10.78    5.25 
  -1   7   9    3.56    4.89 
  -1   7  -9    8.99    5.29 
   1  -7  -9    7.37    3.32 
   1   7  -9   10.16    5.73 
  -1   7  -9    8.61    5.62 
  -1   7   9    0.84    4.80 
   1   7  -9   14.00    5.34 
  -2  -7  -9  106.86   11.99 
   2   7  -9  116.39   10.53 
   2  -7  -9  122.61   13.94 
  -2   7  -9  124.67   13.00 
  -2  -7   9   99.79    8.42 
   2  -7  -9  101.90    8.07 
   2   7   9  107.92   11.22 
  -2   7   9  114.61   13.43 
   2   7   9  109.34   15.24 
  -2   7   9  105.84   14.09 
  -2  -7   9  112.87   13.01 
   2  -7   9  124.46   12.35 
  -2  -7  -9  114.45    9.27 
   2   7  -9  138.32   14.03 
  -3  -7  -9    3.68    3.36 
  -3   7   9    7.36    4.32 
   3  -7  -9    4.32    3.25 
  -3   7  -9    6.56    3.82 
   3  -7   9   -1.43    3.71 
  -3   7   9    3.09    4.95 
   3  -7  -9    2.46    5.47 
  -3  -7  -9    8.61    5.13 
   3  -7   9    2.60    5.26 
   3   7  -9   -1.32    3.95 
   3   7  -9    8.70    5.27 
  -3  -7   9    5.21    5.37 
  -3  -7   9    3.29    4.24 
   3   7   9    3.72    6.41 
  -3  -7  -9    1.93    3.36 
  -3   7  -9    8.37    4.86 
  -4  -7  -9   14.96    5.38 
   4  -7  -9   23.91    9.17 
   4  -7   9   18.29    5.86 
   4   7  -9   10.74    5.69 
  -4   7  -9   14.08    5.30 
  -4   7   9   11.68    5.80 
  -4  -7  -9   18.30    5.64 
  -4   7  -9   18.49    6.49 
  -4  -7   9   29.96    7.52 
  -4   7   9   -1.08    4.87 
  -4  -7  -9   15.75    6.19 
   4   7   9   10.63    7.62 
  -4  -7   9   11.56    5.67 
   4  -7   9   15.29    7.55 
  -5  -7   9   -0.79    4.81 
   5   7   9   -0.79    6.02 
  -5  -7  -9   -4.57    2.76 
  -5   7   9    1.62    6.04 
  -5   7   9   -1.38    3.47 
  -5  -7  -9    5.01    4.17 
  -5   7  -9    4.98    5.42 
   5  -7   9    1.91    5.40 
  -5  -7  -9   -2.05    4.33 
   5   7  -9    3.52    5.09 
  -5  -7   9    6.95    5.11 
   5  -7   9   -0.13    3.78 
   5  -7  -9    0.32    6.12 
  -5  -7   9    5.22    4.20 
  -5   7  -9    0.86    3.49 
   6   7   9   23.50   11.06 
  -6  -7   9   11.83    6.41 
   6  -7   9   21.86    6.31 
  -6  -7  -9    8.01    5.61 
  -6   7  -9   21.47    7.51 
  -6  -7  -9   12.76    5.58 
  -6   7   9   11.76    7.56 
   6  -7  -9   33.71   11.24 
  -6  -7  -9   16.93    6.79 
  -6   7   9   14.26    5.64 
  -6  -7   9   14.89    7.63 
   6   7  -9   26.01    8.39 
  -6   7  -9   19.94    6.37 
  -6  -7   9   17.82    6.41 
   6  -7   9   17.99    8.29 
   7  -7   9   -0.21    3.58 
  -7  -7  -9    4.88    5.15 
  -7  -7   9    3.47    4.33 
  -7   7  -9    0.96    5.74 
   7   7   9    9.02    8.52 
  -7  -7  -9    5.05    5.52 
  -7   7  -9    4.37    4.28 
  -7   7   9   -1.71    3.83 
  -7  -7   9    2.75    6.25 
  -7  -7  -9   -1.18    3.96 
   7   7  -9    7.58    6.47 
  -7   7   9   -1.54    5.35 
   7  -7  -9    1.88    6.98 
   7  -7   9    3.31    6.13 
  -8  -7   9    4.75    4.43 
  -8   7  -9    2.64    6.54 
  -8  -7  -9   11.48    6.81 
  -8   7   9    2.26    6.68 
   8   7   9    4.38    8.45 
  -8  -7   9    6.14    7.18 
   8  -7   9    6.16    7.10 
   8  -7  -9   11.85    9.11 
  -8   7  -9   -2.07    3.86 
   8   7  -9   -2.73    5.47 
  -8  -7  -9   -5.51    4.68 
  -8  -7  -9   13.50    5.92 
  -8   7   9    2.54    5.04 
   9  -7  -9   16.17    8.72 
   9  -7   9    4.97    8.27 
  -9   7  -9   -2.83    4.10 
  -9  -7  -9    3.25    4.97 
  -9  -7   9   -0.33    5.41 
  -9  -7  -9   -1.19    5.93 
  -9  -7   9    8.35    8.78 
   9   7  -9    2.37    6.17 
  -9   7   9   10.36    4.81 
  -9   7  -9    7.82    6.96 
  -9   7   9   -1.66    6.86 
   9   7   9   -1.13    8.00 
   0   8   9    1.17    5.71 
   0   8   9   -2.67    4.17 
   0  -8   9   11.88    4.83 
   0   8  -9   21.45    5.70 
   0   8  -9   26.86    6.83 
   0  -8  -9    5.87    5.11 
   0   8   9    0.66    4.17 
  -1   8  -9  156.85   16.23 
   1  -8   9  142.85   11.96 
  -1  -8  -9  155.40   14.81 
  -1  -8   9  147.74   14.36 
   1  -8  -9  153.01   15.56 
   1   8  -9  169.47   15.50 
   1   8  -9  158.87   12.68 
   1   8   9  142.67   16.26 
  -1   8  -9  148.72   14.44 
   1   8   9  141.83   12.18 
  -1  -8  -9  133.05   10.01 
  -1   8   9  140.45   15.50 
  -1   8   9  162.84   15.35 
   1   8   9  125.24   15.80 
  -1   8   9  157.44   15.76 
   2  -8  -9   11.50    5.96 
  -2   8   9    6.30    5.85 
  -2   8  -9   15.50    5.33 
  -2   8   9    1.14    4.59 
   2   8  -9   19.65    5.87 
   2   8   9   -2.05    4.15 
  -2  -8   9   18.65    5.94 
   2   8   9    9.35    6.79 
   2  -8   9   13.26    5.57 
  -2  -8  -9   11.41    5.99 
  -2  -8  -9    4.60    3.98 
  -2   8  -9   19.67    7.10 
   2   8  -9   18.37    5.68 
   3   8  -9   68.44   10.52 
  -3  -8  -9   33.22    6.67 
  -3   8   9   32.41    9.50 
  -3  -8   9   48.08    8.32 
   3  -8  -9   54.25   10.80 
  -3   8   9   31.45    7.99 
   3   8   9   60.58   13.25 
  -3   8  -9   60.65   10.23 
   3  -8   9   54.97    9.84 
  -3  -8   9   42.97    9.44 
  -3  -8  -9   38.34    8.63 
  -3   8  -9   51.81   11.50 
   3   8  -9   47.01    9.43 
  -4  -8  -9    2.60    4.67 
  -4  -8  -9    2.59    3.86 
  -4   8   9    0.32    3.59 
  -4   8  -9    8.66    3.81 
  -4  -8  -9   -2.85    3.49 
   4  -8   9   16.89    7.93 
   4   8  -9   22.60    6.09 
  -4  -8   9   28.46    6.82 
   4  -8   9   13.79    5.36 
   4   8   9   10.77    7.85 
   4  -8  -9   15.54    6.36 
  -4   8   9    9.05    6.53 
  -4  -8   9    3.48    4.17 
  -4   8  -9   16.37    5.97 
   5  -8  -9  129.26   15.80 
  -5  -8  -9  137.51   12.72 
  -5   8   9  128.15   16.63 
  -5  -8   9  162.25   15.85 
   5  -8   9  124.36   17.20 
   5   8  -9  128.01   14.65 
  -5  -8  -9  169.98   15.66 
   5   8   9  168.30   20.88 
  -5   8   9  122.57   13.69 
  -5   8  -9  149.59   15.09 
   5  -8   9  128.79   13.33 
  -5  -8   9  145.21   14.90 
  -5  -8  -9  152.24   14.43 
  -5   8  -9  137.56   12.89 
  -6  -8  -9    9.01    5.87 
  -6   8   9    9.52    4.44 
   6  -8   9    6.72    4.58 
  -6  -8  -9   -2.51    3.74 
  -6   8   9    2.75    6.76 
   6   8  -9    9.72    6.39 
  -6  -8   9    3.51    6.10 
  -6   8  -9    9.76    4.87 
   6  -8   9    6.55    6.14 
  -6  -8  -9   12.38    6.43 
   6  -8  -9   14.66    7.05 
  -6   8  -9    6.80    6.08 
  -6  -8   9    7.93    5.20 
   6   8   9    2.56    8.47 
  -7   8  -9   25.97    6.96 
   7   8  -9   11.78    7.24 
   7  -8   9   32.20   10.35 
  -7  -8  -9   21.43    8.32 
   7  -8  -9   22.20    9.78 
  -7  -8  -9   29.25    7.81 
  -7   8   9   24.60    7.50 
   7   8   9   35.78   12.82 
  -7   8  -9   24.93    8.44 
  -7  -8   9   15.78    8.67 
  -7   8   9   18.17    8.68 
   7  -8   9   26.56    7.06 
  -7  -8  -9   28.10    7.85 
  -8  -8  -9   13.44    6.48 
  -8  -8   9    5.43    6.85 
   8  -8   9    5.96    6.40 
   8   8   9   17.01    9.35 
  -8   8  -9   13.25    7.09 
  -8  -8  -9   10.97    7.09 
  -8  -8  -9    3.55    4.96 
  -8   8   9    3.84    4.70 
  -8   8  -9    0.94    4.06 
  -8   8   9   16.68    8.52 
   8   8  -9   10.02    6.74 
   8  -8  -9    0.75    7.23 
  -9  -8  -9   37.74    9.22 
  -9   8  -9   18.89    5.82 
   9  -8   9   26.36   11.17 
   9   8  -9   38.29   11.04 
  -9   8   9   30.09   10.53 
  -9  -8   9   19.11   10.78 
  -9  -8  -9   31.43    9.70 
  -9  -8  -9   25.77    9.01 
  -9   8   9   13.10    5.54 
   9  -8  -9   41.95   13.81 
   9   8   9   26.69   12.14 
   0   9  -9   11.71    6.10 
   0  -9   9    8.62    4.90 
   0  -9  -9   12.25    7.19 
   0   9   9    2.60    5.16 
   0   9   9   11.60    6.28 
   0   9   9   20.08    7.72 
   0   9  -9   10.17    6.54 
  -1   9   9    2.90    4.56 
  -1   9   9   -0.20    4.64 
  -1   9  -9    3.64    5.59 
   1   9   9   -5.73    3.83 
  -1  -9  -9    2.64    5.19 
  -1   9   9   -0.53    5.12 
   1  -9   9   -0.50    4.25 
   1  -9  -9    1.41    5.39 
   1   9   9    1.41    4.59 
   1   9  -9   -5.08    4.48 
   1   9   9    7.40    6.51 
   1   9  -9    0.27    4.08 
  -1   9  -9    3.28    4.91 
  -1  -9   9    1.87    3.71 
  -2   9   9   55.34   10.58 
  -2   9   9   43.54   10.60 
   2   9  -9   66.74   10.71 
  -2   9  -9   50.33    9.62 
  -2   9  -9   72.19   12.99 
   2   9  -9   54.29   10.55 
   2   9   9   51.17   11.98 
  -2  -9   9   66.28   10.84 
   2  -9  -9   56.03   11.05 
   2   9   9   49.36    9.30 
  -2  -9  -9   53.33   10.46 
   2  -9   9   58.47   10.08 
   3   9   9   -0.11    6.77 
   3  -9   9    2.84    4.46 
   3   9  -9   -2.17    4.08 
  -3   9   9    1.70    5.20 
  -3  -9   9    4.60    5.08 
  -3   9  -9    1.21    6.52 
  -3   9  -9    0.70    5.15 
  -3   9   9    1.15    4.66 
   3  -9  -9   -1.96    4.56 
   3   9  -9   -0.43    4.70 
  -3  -9  -9   -3.46    4.87 
   4   9  -9   11.47    5.65 
  -4   9  -9    9.46    5.95 
  -4  -9   9   -5.11    3.69 
  -4  -9  -9   -0.11    4.88 
   4  -9  -9    4.37    6.74 
   4   9   9    2.50    7.74 
   4  -9   9    8.47    4.85 
  -4   9   9   -1.50    4.59 
  -4  -9   9    6.06    5.20 
  -4   9  -9    0.46    5.41 
  -4   9   9   -2.33    4.07 
   5  -9  -9    2.26    6.08 
  -5   9  -9    0.81    5.42 
  -5  -9   9   -2.83    4.64 
  -5   9   9   -2.77    5.69 
  -5  -9  -9    1.70    5.24 
  -5  -9   9   -0.12    4.85 
  -5  -9  -9    7.43    4.60 
  -5   9   9    1.56    3.68 
   5  -9   9    0.24    4.26 
   5   9   9  -15.08    4.79 
   5   9  -9    8.06    6.07 
  -6   9  -9   97.72   13.39 
   6  -9   9   64.36   13.57 
  -6   9   9   73.93   14.08 
  -6   9   9   79.28   11.33 
  -6  -9  -9   84.46   12.99 
  -6  -9   9   98.36   14.20 
  -6  -9  -9   87.87   11.52 
   6  -9  -9   90.83   15.70 
   6   9   9   74.77   16.30 
   6  -9   9   92.84   12.35 
   6   9  -9   78.56   12.82 
  -6   9  -9   81.54   10.82 
   7   9  -9    2.00    5.25 
  -7   9   9   -7.30    5.58 
  -7   9   9    5.76    4.46 
   7   9   9    2.58    8.87 
  -7  -9  -9    4.88    5.41 
  -7  -9  -9   -2.65    5.13 
   7  -9   9   -5.32    3.75 
  -7  -9   9   -5.79    5.42 
   7  -9   9   13.75    8.67 
   7  -9  -9    7.22    6.41 
  -7   9  -9   -2.77    3.92 
  -8  -9  -9    0.81    6.57 
  -8   9   9   17.48    6.66 
   8   9  -9   25.11    9.44 
   8  -9   9    7.50    5.74 
   8   9   9    8.00    9.35 
  -8   9  -9    6.02    5.05 
   8  -9   9   26.46   10.17 
  -8  -9  -9   10.69    6.85 
   8  -9  -9   11.11    8.78 
  -8   9   9    7.71    7.38 
  -8  -9  -9   20.81    7.42 
  -8  -9   9   16.35    9.23 
   0  10  -9   42.62    8.78 
   0 -10   9   34.90    7.24 
   0  10   9    7.99    5.99 
   0 -10  -9   27.45    9.05 
   0  10  -9   46.29    8.60 
   0  10   9   16.94    7.98 
   0  10   9   14.12    6.90 
   1  10  -9    1.12    5.89 
  -1  10   9    2.32    4.99 
   1  10   9    3.98    4.42 
  -1  10  -9    0.24    5.63 
   1  10  -9    5.41    5.62 
  -1 -10   9    3.33    5.02 
   1  10   9    3.69    4.48 
   1 -10  -9   -1.20    5.39 
   1  10   9   -0.08    5.93 
  -1  10   9    0.33    4.60 
  -1 -10  -9    2.89    5.62 
   1 -10   9    4.95    5.26 
  -1  10  -9    7.32    5.04 
  -1  10   9    3.82    5.72 
   2  10   9   11.07    7.39 
  -2  10  -9   13.44    5.44 
   2 -10   9   18.64    6.43 
  -2  10   9    4.52    6.06 
  -2 -10   9   11.46    5.76 
  -2  10  -9   19.36    7.74 
  -2 -10  -9    8.51    6.44 
   2  10  -9   19.07    7.27 
  -2  10   9    6.41    5.66 
   2 -10  -9   10.48    7.05 
   2  10  -9   15.78    6.18 
  -3  10  -9   26.86    9.33 
   3  10  -9   28.38    8.41 
  -3  10   9   11.98    6.20 
  -3  10   9   25.69    8.49 
   3  10  -9   40.09    8.57 
   3 -10  -9   19.17    8.52 
  -3 -10   9   28.41    7.71 
   3 -10   9   19.34    6.68 
  -3 -10  -9   26.24    8.88 
  -3  10  -9   25.80    7.21 
   3  10   9   16.51    9.03 
   4  10  -9   35.82    8.29 
  -4  10   9   11.72    7.32 
   4  10   9   17.22    9.13 
  -4 -10   9   35.55    7.53 
  -4  10  -9   43.82    9.81 
  -4  10   9   14.18    6.29 
   4 -10   9   22.05    6.58 
  -4 -10  -9   14.00    7.42 
   4 -10  -9   27.69    8.28 
   5  10  -9    5.68    5.79 
  -5  10   9    1.29    5.91 
  -5  10   9   -5.30    3.49 
  -5 -10   9    0.81    5.13 
  -5  10  -9    2.72    6.98 
   5 -10  -9   -5.28    5.27 
  -5 -10   9    1.20    5.41 
   5  10   9    5.18    7.59 
   5 -10   9   10.13    5.32 
  -5 -10  -9    3.94    6.03 
  -6  10   9    0.25    4.21 
   6  10  -9    8.95    6.28 
   6 -10  -9   10.55    7.03 
  -6 -10   9    7.88    6.22 
  -6  10   9    6.22    7.41 
  -6 -10  -9   12.29    6.92 
   6 -10   9   17.87    6.59 
   6  10   9   12.33    8.76 
  -6  10  -9   22.69   10.40 
  -7  10   9    1.79    4.60 
   7 -10  -9    8.95    7.75 
   7  10   9    0.77    7.91 
   7 -10   9    8.38    6.09 
  -7 -10  -9   -5.91    6.42 
  -7  10   9    7.16    7.13 
  -7 -10   9   12.96    7.69 
  -7  10  -9    0.94    7.53 
   7  10  -9    8.30    6.89 
  -8  10   9   12.00    5.70 
  -8 -10  -9   -3.87    6.19 
   8  10   9   16.21    9.94 
   8  10  -9   11.63    7.01 
   8 -10   9   18.14    6.67 
  -8  10   9   10.50    8.31 
   8 -10  -9   10.96    7.69 
  -8  10  -9   18.94    9.96 
  -8 -10   9   13.02    8.24 
   0  11  -9   82.76   14.43 
   0 -11  -9   52.60   12.05 
   0  11   9   51.17   11.37 
   0  11   9   74.29   11.95 
   0 -11   9   36.36    8.77 
   0  11   9   52.18   11.75 
   1 -11   9   14.54    6.24 
   1  11  -9    6.12    6.67 
  -1  11   9    1.72    5.12 
  -1  11   9    9.87    6.35 
  -1  11  -9   14.16    7.58 
   1 -11  -9   -0.90    5.66 
   1  11  -9    6.19    4.79 
   1  11   9   16.40    8.31 
  -1  11   9   -2.08    4.47 
  -1 -11   9   18.48    6.65 
   1  11   9    6.49    5.57 
  -1 -11  -9    2.24    5.84 
  -2 -11  -9   40.21   10.80 
   2 -11  -9   38.85   11.06 
  -2  11  -9   46.25   11.27 
   2 -11   9   30.30    8.23 
   2  11  -9   39.17    9.74 
  -2  11   9   27.70    8.31 
  -2  11   9   25.19    8.91 
  -2 -11   9   25.45    7.70 
   2  11   9   18.84    9.37 
   2  11  -9   34.57    7.90 
  -3  11   9   -8.59    3.79 
  -3  11   9    0.02    5.63 
  -3  11  -9    2.05    6.27 
   3 -11   9    7.43    5.12 
   3  11  -9    3.72    5.55 
   3  11  -9   -1.66    4.56 
   3  11   9    6.65    8.11 
  -3 -11   9    5.42    6.06 
   3 -11  -9    1.84    6.13 
  -3 -11  -9    4.23    5.73 
   4  11   9   13.92    8.88 
  -4  11  -9   24.97    9.11 
  -4 -11   9   28.59    8.08 
  -4  11   9   21.82    7.38 
  -4  11   9    6.51    7.58 
  -4 -11  -9   15.37    8.27 
   4  11  -9   12.16    6.59 
   4 -11   9    9.90    7.04 
   4 -11  -9   34.24   11.16 
   5 -11   9   12.21    5.87 
  -5  11   9    1.84    4.51 
  -5  11  -9   18.84    9.22 
  -5  11   9   -0.29    5.96 
   5  11  -9    9.01    6.27 
   5 -11  -9    6.03    6.77 
  -5 -11  -9    1.74    5.91 
   5  11   9   11.52    9.46 
   6  11  -9    5.79    6.30 
   6 -11   9    9.51    6.11 
  -6  11   9    5.29    8.01 
  -6  11  -9   12.69    9.82 
   6 -11  -9   12.83    8.99 
  -6  11   9    2.13    4.20 
  -6 -11   9   14.43    6.96 
  -6 -11  -9    5.44    7.36 
   6  11   9   10.16    9.35 
  -7 -11   9   11.55    7.36 
  -7  11   9    0.38    4.85 
   7 -11  -9    8.20    7.62 
   7  11   9   -1.60    8.71 
  -7 -11  -9   12.53    7.19 
   7  11  -9    1.19    6.29 
   7 -11   9   -0.86    5.42 
  -7  11  -9    2.20    8.63 
  -7  11   9    4.69    7.26 
   0  12   9    9.58    6.90 
   0  12   9   29.22    9.64 
   0  12   9   10.97    6.44 
   0 -12  -9    9.14    7.27 
   0  12  -9   19.99    8.45 
   0 -12   9   23.48    7.52 
  -1  12   9   34.52    9.94 
  -1 -12  -9   30.61   10.62 
   1  12   9   26.20    7.98 
  -1  12  -9   34.21   10.13 
   1 -12  -9   39.29   11.84 
   1 -12   9   34.03    8.94 
   1  12  -9   28.12   10.14 
  -1  12   9   34.66    9.21 
  -1  12   9   23.54    8.49 
   1  12   9   26.48    9.56 
  -1 -12   9   33.72    9.24 
   2  12   9   16.44    9.88 
  -2  12  -9   43.65   11.20 
   2 -12  -9   32.35   10.26 
  -2 -12  -9   32.97   10.16 
   2 -12   9   32.32    8.38 
  -2  12   9   10.18    6.79 
  -2  12   9   17.72    8.16 
   2  12  -9   49.67   11.21 
  -2 -12   9   19.47    7.19 
   3  12   9   -6.29    7.10 
  -3  12  -9    2.24    6.96 
  -3 -12   9    3.37    5.99 
   3 -12   9   -3.37    4.14 
  -3  12   9    6.61    4.81 
  -3  12   9    1.86    5.60 
   3 -12  -9    8.47    6.73 
  -3 -12  -9    6.71    7.05 
   3  12  -9    3.84    6.78 
   4 -12   9    9.56    5.51 
  -4 -12   9   23.31    7.23 
  -4 -12  -9   20.22    9.10 
  -4  12   9   23.73    8.82 
   4 -12  -9   21.21    7.83 
   4  12   9   10.45    9.19 
  -4  12  -9   18.05    8.44 
  -4  12   9   10.52    6.49 
  -5  12   9   30.86    9.98 
  -5  12  -9   45.03   13.04 
   5  12   9   35.24   12.46 
   5 -12   9   23.56    7.78 
  -5 -12  -9   30.10   10.04 
   5 -12  -9   46.90   13.54 
  -5  12   9   26.09    8.27 
   6  12   9   24.16   11.94 
   6 -12   9   27.51    8.11 
  -6  12   9   10.28    5.70 
   6 -12  -9   36.12   10.63 
  -6  12  -9   31.01   11.16 
  -6  12   9   23.24    9.87 
  -6 -12  -9   24.18    9.50 
  -7  12  -9    8.45    9.83 
   7  12   9    7.92   10.54 
  -7  12   9    2.45    7.39 
   7 -12  -9   13.22    8.53 
  -7 -12  -9    5.56    6.63 
   7 -12   9   21.45    8.34 
  -7  12   9    4.67    5.42 
   0  13   9    2.89    5.96 
   0 -13  -9   17.72    9.18 
   0 -13   9   10.11    6.28 
   0  13   9   -3.22    5.54 
   0  13   9   16.31    8.27 
   0  13  -9    4.96    7.34 
  -1  13   9    0.52    5.37 
  -1  13   9   -2.16    6.17 
  -1 -13   9   -4.15    4.72 
   1  13  -9    3.21    7.26 
  -1 -13  -9   -6.31    5.77 
   1  13   9    3.54    6.77 
   1 -13   9   -2.80    5.28 
   1 -13  -9    6.58    7.88 
  -1  13   9    3.70    5.60 
  -1  13  -9    3.26    7.59 
  -2 -13   9   27.52    8.80 
  -2  13  -9   22.61    9.72 
   2 -13   9   31.55    9.03 
  -2  13   9   17.85    8.04 
   2  13   9   36.59   11.95 
   2  13  -9   25.90    9.98 
  -2 -13  -9   15.69    9.19 
  -2  13   9   25.90    8.16 
   2 -13  -9   21.41    9.33 
  -3 -13  -9    4.57    8.08 
  -3 -13   9    0.52    5.04 
   3 -13  -9    1.04    6.78 
   3  13  -9   -7.08    5.17 
  -3  13  -9   -4.70    6.17 
   3 -13   9   -0.26    5.12 
   3  13   9   11.18    8.63 
  -3  13   9   -2.16    4.59 
  -3  13   9   10.59    6.38 
  -4 -13   9   25.05    8.01 
   4  13   9   25.71   11.50 
   4 -13  -9   14.50    8.36 
  -4 -13  -9   13.38    8.91 
   4 -13   9   18.11    7.91 
  -4  13  -9   22.44   10.77 
  -4  13   9    1.46    5.38 
  -4  13   9   14.36    8.07 
  -5  13  -9    6.74    8.50 
  -5  13   9    2.48    5.29 
   5  13   9  -10.45    7.75 
  -5  13   9    6.79    6.85 
   5 -13  -9    6.83    8.24 
   5 -13   9    3.25    6.37 
  -5 -13  -9   -4.64    6.08 
   6  13   9   65.02   16.57 
   6 -13   9   37.74    9.94 
   6 -13  -9   32.78   11.41 
  -6 -13  -9   50.58   13.10 
  -6  13  -9   32.81   11.75 
  -6  13   9   39.29    9.39 
  -6  13   9   30.94   10.64 
   0 -14   9   47.92   10.18 
   0  14   9   48.75   10.44 
   0 -14  -9   23.86   10.25 
   0  14   9   40.65   11.66 
   0  14  -9   70.71   14.04 
  -1  14   9   14.54    8.15 
  -1 -14  -9    9.09    7.54 
   1 -14   9   -0.19    5.65 
   1 -14  -9    2.58    7.42 
   1  14  -9    3.69    7.92 
   1  14   9   -0.14    7.71 
  -1  14   9    2.90    5.86 
  -1  14  -9   -8.44    6.80 
  -1 -14   9    3.50    6.17 
  -1  14   9   -6.91    4.14 
  -2 -14  -9   26.74   10.31 
   2  14   9   18.27    9.83 
  -2  14   9    8.94    6.55 
   2 -14  -9   20.97    8.85 
   2  14  -9   23.68    9.18 
  -2  14   9   19.15    8.09 
  -2 -14   9   30.96    8.77 
  -2  14  -9   26.35   10.69 
   2 -14   9   30.30    9.27 
  -3 -14  -9    4.47    7.73 
   3 -14  -9    2.73    7.22 
  -3 -14   9   -1.67    4.97 
  -3  14  -9    0.94    7.95 
  -3  14   9    4.46    5.79 
  -3  14   9   17.81    8.54 
   3  14   9   -6.35    7.70 
   3  14  -9    2.79    6.86 
   3 -14   9    5.97    6.69 
   4  14   9   22.42   11.00 
  -4  14   9   38.03    9.43 
  -4 -14  -9   50.88   13.09 
   4 -14  -9   34.20   10.85 
  -4  14   9   31.92   10.06 
   4 -14   9   54.42   11.20 
  -4  14  -9   48.74   12.61 
   5  14   9   13.99   10.27 
   5 -14   9   -3.47    6.30 
  -5  14  -9  -11.61    6.21 
  -5  14   9   -5.51    5.21 
  -5  14   9   10.70    7.09 
   5 -14  -9   -3.39    8.89 
  -5 -14  -9   17.22    9.62 
   0  15  -9   44.15   13.47 
   0 -15  -9   32.75   11.59 
   0 -15   9   38.52   10.36 
   0  15   9   32.95   10.87 
  -1 -15   9   -6.23    6.11 
   1 -15  -9    9.32    9.04 
  -1  15   9   -0.54    5.24 
  -1  15   9    5.77    6.28 
  -1 -15  -9    4.36    7.26 
   1  15  -9    7.64    8.73 
   1 -15   9    5.12    6.29 
   1  15   9    3.01    7.63 
  -1  15  -9   -0.63    8.30 
  -2  15   9   37.19   10.21 
  -2 -15   9   54.08   11.31 
  -2  15   9   18.88    8.66 
   2  15  -9   47.69   12.32 
   2 -15   9   41.82   11.16 
  -2  15  -9   29.69   12.78 
  -2 -15  -9   35.25   11.28 
   2 -15  -9   39.21   11.53 
   2  15   9   42.14   12.29 
  -3 -15  -9    2.90    7.67 
  -3  15  -9    1.19    8.00 
   3  15   9    4.58    8.70 
   3 -15  -9    3.12    7.09 
  -3  15   9   -6.22    5.84 
  -3  15   9    1.80    5.99 
   3  15  -9    6.50    8.15 
  -3 -15   9    6.64    6.41 
   3 -15   9    4.10    5.94 
   0  16   9   21.87    9.63 
   0 -16   9   39.65   10.43 
   0 -16  -9   16.49   10.23 
   0  16  -9   24.49   11.20 
   0   0  10  260.66   13.43 
   0   0 -10  258.86   12.61 
   0   0 -10  246.63   15.21 
   0   0  10  287.86   16.42 
   0   0  10  269.99   15.67 
   0   0 -10  259.56   15.55 
  -1   0 -10   -0.28    3.81 
   1   0  10    2.63    3.70 
  -1   0  10    2.91    3.83 
  -1   0 -10   -3.72    2.54 
   1   0 -10    5.31    3.76 
   1   0  10    4.22    4.04 
   1   0  10    2.81    2.90 
   1   0 -10    1.91    3.71 
   1   0 -10   -1.82    3.33 
  -1   0  10    1.40    3.18 
  -1   0 -10    0.12    3.09 
  -1   0  10    0.22    3.25 
   2   0  10 1327.88   42.40 
  -2   0 -10 1381.83   45.15 
   2   0 -10 1265.19   44.76 
  -2   0  10 1407.68   45.92 
  -2   0  10 1371.48   46.36 
  -2   0 -10 1360.64   43.98 
   2   0 -10 1388.49   43.98 
   2   0  10 1371.88   46.40 
  -3   0 -10    2.19    3.27 
   3   0 -10    8.54    5.95 
  -3   0 -10   -1.58    2.97 
  -3   0  10    1.06    2.89 
   3   0  10   -1.86    3.54 
   3   0 -10   -3.45    3.15 
   3   0  10   -3.40    4.10 
  -3   0  10    2.53    5.20 
   4   0  10  314.70   20.52 
   4   0 -10  333.58   19.45 
  -4   0 -10  287.28   16.51 
  -4   0 -10  294.84   16.97 
  -4   0  10  292.45   17.99 
  -4   0  10  299.93   19.61 
   4   0  10  277.41   14.14 
   4   0 -10  317.96   17.60 
  -5   0 -10    6.14    4.49 
   5   0  10   -1.97    5.66 
   5   0 -10    1.99    3.33 
  -5   0  10    2.12    4.86 
   5   0  10   -0.09    2.55 
   5   0 -10    0.89    6.66 
  -5   0 -10    0.89    3.14 
  -5   0  10   -4.79    2.65 
   6   0 -10 1001.11   37.48 
  -6   0  10 1029.47   38.88 
   6   0  10 1066.71   43.92 
   6   0 -10  978.35   41.85 
  -6   0  10  908.37   39.08 
  -6   0 -10 1036.76   36.75 
  -6   0 -10  991.50   36.78 
   7   0  10   -1.93    6.82 
  -7   0  10    0.85    3.86 
  -7   0 -10   -1.74    4.36 
   7   0 -10    0.80    3.89 
  -7   0  10    5.68    5.93 
  -7   0 -10    0.84    3.36 
  -8   0  10  225.38   17.69 
   8   0 -10  260.72   17.86 
  -8   0  10  239.99   17.08 
  -8   0 -10  228.64   15.49 
  -8   0 -10  247.43   17.33 
  -8   0  10  262.92   20.35 
   8   0  10  254.02   20.58 
  -9   0 -10   -0.02    4.33 
   9   0 -10    2.41    5.01 
  -9   0  10    0.88    4.58 
  -9   0 -10   -7.95    4.62 
  -9   0  10   -9.35    6.04 
   9   0  10   -3.45    8.00 
  10   0  10  473.84   30.42 
 -10   0  10  442.96   24.97 
 -10   0  10  444.44   29.20 
 -10   0 -10  470.66   23.88 
 -10   0 -10  475.40   27.15 
  10   0 -10  460.54   26.47 
   0  -1 -10   15.45    4.47 
   0  -1 -10   34.84    5.97 
   0   1  10   28.43    5.43 
   0   1  10   30.46    6.22 
   0   1  10   12.79    4.44 
   0   1 -10   31.39    6.15 
  -1   1 -10  106.97   11.44 
  -1  -1  10  116.02   12.33 
   1  -1  10  127.25   11.94 
   1   1  10  104.29   10.76 
   1   1 -10   96.71    8.57 
  -1   1 -10  106.88   11.40 
   1   1  10  115.47   11.94 
  -1   1  10  100.51    7.61 
   1   1 -10  126.05   12.45 
   1  -1 -10  114.83   11.92 
   1   1 -10  122.34   12.96 
  -1  -1 -10  113.19    8.12 
  -1  -1  10  138.20   13.50 
  -1   1  10  126.57   13.25 
  -1  -1 -10  110.85   11.51 
   1   1  10  118.13   10.41 
  -1  -1  10  108.71    8.24 
  -1  -1 -10  115.05    9.95 
  -1   1  10   89.49   11.19 
   1  -1 -10  119.56   11.92 
   1  -1 -10  104.50    8.75 
   1  -1  10  134.35   12.71 
  -2  -1 -10   34.08    5.40 
  -2  -1 -10   23.82    5.60 
  -2   1  10   49.63    8.50 
   2   1  10   44.29    7.99 
  -2  -1 -10   24.78    5.36 
  -2   1 -10   17.21    5.20 
  -2   1 -10   15.08    4.78 
  -3  -1  10  154.18   13.00 
  -3  -1 -10  175.24   12.71 
  -3  -1 -10  172.78   12.13 
   3   1  10  184.03   11.14 
  -3   1 -10  177.30   12.88 
   3   1 -10  170.15   13.05 
  -3   1  10  181.28   13.04 
   3  -1  10  179.27   11.61 
   3  -1 -10  184.78   12.79 
   3  -1 -10  174.71   13.40 
  -3   1 -10  190.49   13.47 
   3   1 -10  179.94   13.47 
   3  -1  10  178.96   13.92 
   3   1  10  184.51   14.53 
  -3   1  10  169.69   14.57 
  -3  -1  10  168.65   13.72 
   4  -1  10   22.95    6.91 
  -4  -1 -10    9.40    4.74 
  -4   1 -10    8.26    4.14 
   4  -1 -10   25.57    6.71 
  -4   1 -10    1.64    4.09 
  -4  -1  10   22.60    6.76 
   4  -1  10   26.67    4.79 
   4   1 -10   25.40    5.75 
  -4  -1  10   12.16    4.80 
  -4   1  10   22.43    7.64 
   4  -1 -10   23.74    5.29 
   4   1  10   17.88    6.99 
  -4  -1 -10    1.22    3.45 
  -4   1  10   10.25    3.76 
   5   1 -10   42.92    8.63 
  -5  -1 -10   38.81    7.46 
  -5  -1  10   34.89    7.89 
   5  -1  10   36.03   10.38 
  -5   1  10   31.98    9.20 
   5   1  10   45.44   11.63 
   5  -1  10   21.13    5.24 
  -5   1 -10   36.07    7.54 
  -5   1  10   36.52    8.11 
   5   1 -10   63.60   13.01 
  -5   1 -10   35.01    7.77 
   5  -1 -10   42.92    8.09 
   5  -1 -10   52.00   12.38 
  -5  -1  10   51.20   10.13 
  -5  -1 -10   34.82    7.69 
  -6  -1  10   31.02    7.80 
   6  -1 -10   36.00    6.98 
   6   1 -10   34.93    6.75 
   6  -1 -10   51.48    9.79 
  -6  -1  10   14.28    4.96 
   6   1  10   45.35    9.92 
  -6  -1 -10   10.16    5.67 
  -6   1  10   23.09    7.70 
   6  -1  10   39.46    9.24 
  -7  -1  10   83.93   14.22 
   7  -1 -10   76.57   11.62 
  -7  -1 -10   69.81   10.30 
   7  -1  10   95.96   16.91 
   7   1  10   79.07   15.43 
  -7   1  10   72.04   11.45 
  -7  -1  10   61.72   10.70 
   7   1 -10   76.87   11.66 
   7  -1 -10   98.45   16.35 
  -7   1  10   85.28   14.31 
  -7  -1 -10   82.03   12.12 
  -7   1 -10   90.97   13.01 
  -7   1 -10   70.45   10.25 
  -7  -1  10   78.16   12.56 
  -8   1  10    5.38    4.55 
   8  -1 -10    9.65    5.18 
   8   1  10   20.00    8.27 
  -8   1 -10    3.86    4.13 
   8  -1  10   15.45    7.92 
  -8   1 -10    6.30    6.35 
   8   1 -10   12.76    5.75 
  -8  -1 -10    1.83    3.92 
  -8  -1  10    4.59    5.99 
  -8  -1 -10    0.51    4.29 
  -8   1  10    5.91    6.30 
  -8  -1  10   15.10    6.51 
  -8  -1  10    4.48    4.49 
  -9   1  10   22.09    8.23 
  -9  -1 -10   30.54    7.68 
   9   1 -10   17.02    8.16 
  -9   1 -10   31.14    7.66 
  -9   1  10   22.24    7.27 
  -9   1 -10   25.42    8.60 
  -9  -1 -10   26.41    8.82 
   9   1  10   34.84   11.52 
  -9   1  10   21.17    9.76 
  -9  -1  10   30.24    8.30 
   9  -1  10   32.66   11.99 
   9  -1 -10   28.38    8.86 
  -9  -1  10   40.55   11.97 
  10   1 -10   22.20    8.01 
 -10   1 -10    4.86    5.46 
  10  -1 -10   19.94    7.19 
 -10  -1  10    5.69    5.54 
 -10  -1 -10   15.31    8.26 
  10  -1  10    2.05    8.27 
 -10  -1  10   12.06    8.22 
 -10   1  10    7.52    5.24 
 -10  -1 -10    6.83    5.70 
 -10   1 -10   10.08    7.32 
  10   1  10   22.28   10.03 
 -10   1  10    1.28    7.76 
   0  -2 -10  685.58   26.93 
   0  -2  10  657.01   27.33 
   0  -2 -10  668.80   26.86 
   0   2  10  657.74   27.43 
   0   2  10  658.08   28.95 
   0   2 -10  635.75   26.97 
   0  -2 -10  659.93   24.72 
   0  -2  10  684.54   25.78 
   0   2  10  620.16   25.44 
   0  -2  10  655.29   27.51 
   0   2 -10  661.28   27.96 
  -1   2  10    0.66    4.38 
  -1  -2 -10    3.11    3.92 
   1   2  10    5.91    3.76 
   1   2  10    5.01    4.02 
  -1   2 -10    3.27    3.54 
   1  -2  10    3.54    4.69 
  -1  -2  10   -3.04    3.43 
   1  -2 -10    6.98    4.46 
  -1  -2  10    4.77    3.87 
   1   2 -10    9.85    4.43 
  -1  -2  10    7.28    4.95 
  -1   2  10    3.64    3.71 
   1   2 -10    9.62    5.36 
   1  -2  10   -0.92    3.46 
   1   2  10   11.31    5.31 
   1  -2 -10    3.15    2.97 
  -1   2  10    3.51    3.34 
   1  -2 -10   10.17    5.06 
  -1  -2 -10    9.58    4.58 
  -1  -2 -10    7.40    4.20 
  -1   2 -10    1.96    3.84 
   1   2 -10    6.15    4.43 
   2   2 -10 1652.10   47.06 
  -2   2  10 1627.23   55.00 
   2   2 -10 1727.09   51.50 
  -2   2 -10 1638.84   52.42 
   2  -2 -10 1552.33   51.35 
   2   2  10 1492.08   54.70 
   2   2  10 1640.82   48.39 
  -2  -2 -10 1637.37   50.42 
  -2  -2 -10 1596.39   51.06 
  -2   2  10 1614.73   53.41 
  -2  -2 -10 1760.34   48.91 
  -2  -2  10 1723.97   53.03 
   2  -2 -10 1646.28   51.47 
  -2  -2  10 1728.88   54.08 
   2  -2  10 1646.17   53.41 
   2   2 -10 1742.80   54.11 
   2  -2  10 1658.84   50.92 
  -2   2 -10 1607.52   51.26 
   3  -2 -10   12.22    4.90 
  -3   2 -10    2.77    3.85 
   3  -2  10    2.83    3.83 
  -3  -2 -10    5.99    3.96 
   3  -2  10   15.07    7.00 
   3   2 -10    5.49    4.25 
   3   2 -10   20.49    7.89 
  -3  -2 -10   11.28    4.76 
   3  -2 -10   11.70    5.66 
  -3   2  10    1.16    5.42 
   3   2  10    0.88    5.59 
  -3  -2  10   12.96    5.10 
  -3  -2 -10    4.76    3.73 
  -3   2 -10    5.57    4.93 
  -3  -2  10    3.20    4.97 
  -3   2  10    7.13    4.31 
   3   2  10    7.04    3.93 
   4   2 -10  371.54   20.24 
  -4   2  10  383.69   20.41 
  -4   2  10  379.77   23.11 
   4  -2  10  427.47   23.34 
  -4  -2 -10  396.99   19.32 
   4  -2  10  392.32   17.72 
  -4   2 -10  384.80   19.87 
  -4  -2  10  394.76   21.40 
   4   2  10  372.01   16.13 
  -4  -2 -10  363.05   18.85 
   4  -2 -10  397.01   19.32 
  -4  -2  10  412.17   21.72 
   4  -2 -10  393.34   21.68 
   4   2  10  353.09   23.17 
  -4   2 -10  369.63   19.43 
  -5  -2  10    3.47    5.05 
  -5  -2  10    4.86    4.26 
  -5  -2 -10   -0.11    3.10 
  -5   2  10   -3.99    5.01 
   5  -2 -10    4.00    3.61 
   5  -2 -10    0.01    6.14 
   5  -2  10   -3.92    4.87 
  -5   2 -10    7.02    4.93 
  -5  -2 -10   -1.00    3.19 
   5   2  10    4.25    6.32 
  -5   2 -10    5.73    3.80 
   5   2 -10    4.77    4.12 
  -5   2  10    4.73    3.94 
  -5  -2  10    1.77    4.44 
   5  -2  10   -0.99    2.54 
  -6   2  10  742.27   34.62 
   6  -2  10  777.85   36.56 
  -6  -2 -10  775.85   31.37 
  -6  -2  10  784.29   32.38 
  -6  -2 -10  815.44   31.16 
   6  -2 -10  695.66   34.81 
  -6   2  10  740.88   31.02 
  -6   2 -10  822.33   31.86 
   6   2  10  780.42   38.26 
  -6   2 -10  724.87   31.06 
  -6  -2  10  739.62   32.16 
   6   2 -10  787.12   32.36 
   6  -2 -10  801.24   31.02 
  -6  -2  10  770.72   33.95 
  -7  -2  10    8.07    4.71 
  -7   2  10    3.15    6.05 
  -7   2  10    2.21    4.37 
  -7  -2 -10    7.03    5.55 
   7  -2 -10    2.19    7.53 
   7   2 -10    3.79    5.06 
   7   2  10    8.12    7.93 
   7  -2  10    1.68    6.85 
  -7  -2 -10    3.30    4.20 
  -7  -2  10   -0.91    4.81 
  -7   2 -10    0.66    3.96 
   7  -2 -10    0.88    4.62 
  -7  -2  10    4.22    6.78 
  -7   2 -10    2.08    5.21 
  -8  -2  10  189.72   15.21 
   8  -2 -10  223.61   23.32 
   8   2 -10  184.37   15.86 
  -8  -2  10  195.77   15.47 
  -8  -2 -10  192.29   17.89 
  -8   2 -10  186.97   14.09 
  -8   2 -10  188.52   15.82 
  -8   2  10  201.76   19.76 
  -8  -2  10  211.95   17.83 
   8  -2  10  256.60   24.42 
   8  -2 -10  208.88   15.51 
  -8  -2 -10  160.04   13.26 
   8   2  10  254.09   24.84 
  -8   2  10  178.77   14.94 
   9   2 -10    2.93    5.87 
  -9  -2 -10   -1.21    3.85 
  -9  -2  10   -0.12    4.58 
  -9  -2  10    3.19    6.89 
   9  -2 -10    6.78    5.31 
  -9   2  10    5.14    5.36 
   9  -2  10   18.20    9.21 
  -9   2 -10   -1.01    4.15 
  -9   2  10    6.12    6.53 
   9   2  10    2.19    7.89 
  -9   2 -10    5.08    6.41 
  -9  -2 -10    8.46    6.81 
 -10   2 -10  320.27   22.39 
 -10   2 -10  344.76   19.82 
  10  -2  10  300.54   24.28 
 -10  -2 -10  331.04   20.08 
 -10   2  10  337.82   20.67 
 -10  -2 -10  347.74   23.39 
  10   2 -10  325.16   22.73 
  10   2  10  285.76   24.05 
  10  -2 -10  342.24   21.64 
 -10   2  10  320.76   25.41 
 -10  -2  10  336.23   24.79 
 -10  -2  10  359.81   22.13 
   0   3 -10   16.59    4.87 
   0  -3 -10   27.21    5.67 
   0  -3  10   23.28    5.97 
   0  -3  10   24.69    5.44 
   0   3  10   14.90    5.83 
   0  -3 -10   13.67    4.55 
   0  -3 -10   22.74    5.13 
   0   3  10    4.83    4.39 
   0   3 -10   37.56    6.60 
   0   3  10   10.89    5.36 
  -1   3 -10   31.64    6.79 
   1  -3  10   26.64    7.65 
  -1  -3 -10   43.21    7.24 
   1   3  10   26.96    6.81 
   1   3  10   27.33    7.48 
  -1   3  10   39.29    8.27 
  -1   3  10   30.21    6.63 
   1  -3 -10   42.54    7.77 
   1   3  10   38.32    8.79 
  -1  -3  10   38.74    7.89 
  -1  -3  10   34.38    7.30 
  -1  -3 -10   22.46    6.17 
   1  -3 -10   21.09    6.05 
  -1  -3  10   29.28    5.67 
  -1   3 -10   31.04    7.38 
   1   3 -10   33.40    7.57 
  -1  -3 -10   26.17    6.39 
   1  -3  10   37.76    8.11 
  -1  -3  10   27.97    7.70 
  -1   3  10   29.10    8.32 
   1   3 -10   33.83    7.95 
  -2  -3 -10   26.39    5.59 
  -2  -3 -10   10.44    4.39 
   2   3 -10   62.99    8.92 
  -2   3 -10   44.23    7.67 
  -2  -3 -10   21.94    5.44 
  -2   3  10   13.21    6.06 
   2   3  10   26.68    8.11 
   3  -3 -10  118.77   13.00 
  -3   3  10   72.11   12.31 
  -3  -3  10   81.82   10.59 
  -3  -3 -10   86.50   10.15 
  -3  -3 -10   86.42   10.28 
   3  -3 -10   79.17   10.00 
  -3   3  10   89.66   11.85 
  -3   3 -10   85.55   10.71 
  -3   3 -10   94.01   11.40 
   3  -3  10   98.67   10.67 
   3   3  10   80.59   13.49 
   3   3 -10   97.90   12.46 
  -3  -3  10   70.80   11.18 
   3   3  10  100.58    8.92 
  -3  -3  10  115.84   13.33 
   3  -3  10   92.70   12.77 
  -3  -3 -10  100.77    9.15 
   4   3 -10   16.01    5.70 
  -4  -3  10   19.42    6.25 
   4  -3 -10   19.95    6.44 
  -4  -3 -10   -0.07    3.37 
   4  -3  10   18.22    6.34 
  -4  -3  10   13.28    5.25 
  -4   3  10    9.54    4.72 
   4  -3 -10   11.77    4.19 
  -4  -3  10    5.88    4.26 
  -4  -3 -10    0.12    3.85 
  -4   3  10    1.40    4.77 
  -4   3 -10    4.10    3.74 
  -4   3 -10    4.55    4.45 
   4   3  10    6.88    7.12 
  -4  -3 -10    1.19    3.66 
   4   3  10   23.68    4.30 
   4  -3  10   18.40    4.85 
   5  -3  10    2.92    6.76 
  -5  -3 -10    6.30    4.20 
   5   3 -10    0.57    4.53 
  -5  -3 -10    9.49    5.09 
  -5   3 -10    2.44    4.49 
  -5  -3  10    5.07    3.83 
   5   3  10   14.99    9.05 
   5  -3 -10   10.86    7.51 
   5  -3  10    2.14    3.85 
  -5   3  10    9.15    4.54 
  -5  -3  10    7.66    5.75 
   5  -3 -10   13.12    4.75 
  -5   3 -10    2.58    3.88 
  -5   3  10    6.67    6.14 
  -5  -3  10    3.83    5.62 
  -6  -3 -10    2.66    4.85 
   6   3 -10   20.47    5.74 
   6  -3 -10   38.71    8.99 
  -6   3 -10    8.91    4.51 
   6   3  10   41.99   10.79 
  -6  -3  10   11.75    4.94 
  -6   3 -10    1.12    3.90 
  -6   3  10   10.22    7.01 
  -6   3  10   16.90    4.65 
   6  -3  10   19.85    4.68 
  -6  -3  10   31.79    7.04 
   6  -3 -10   24.50    5.74 
   6  -3  10   47.91   10.03 
  -6  -3  10   14.18    6.75 
  -7   3  10   25.71    8.61 
  -7   3 -10   32.94    7.27 
  -7  -3 -10   34.79    8.10 
   7   3 -10   25.25    8.20 
   7   3  10   40.61   12.40 
  -7   3  10   30.03    7.44 
   7  -3 -10   30.52    7.96 
   7  -3  10   47.93   12.39 
  -7   3 -10   28.57    8.56 
  -7  -3  10   30.57    8.85 
  -7  -3  10   45.29    9.47 
  -7  -3 -10   43.73    9.26 
   7  -3 -10   34.64   12.30 
  -7  -3  10   54.80   12.18 
  -8   3 -10    7.99    5.21 
   8  -3  10   23.35    8.14 
  -8   3  10   18.83    8.62 
  -8  -3 -10    7.95    6.36 
   8   3 -10   19.99    6.91 
  -8  -3 -10    0.82    3.90 
   8   3  10   22.79    8.92 
  -8  -3  10   14.02    5.67 
  -8  -3  10    1.71    5.21 
  -8   3  10    3.13    4.42 
   8  -3 -10   14.50    5.60 
   8  -3 -10    5.42    8.10 
  -8   3 -10    5.75    5.88 
  -9   3 -10    0.94    5.17 
   9  -3 -10   20.86   11.10 
   9  -3 -10    7.96    5.72 
  -9   3  10    3.02    7.95 
  -9  -3  10    0.99    4.73 
   9   3 -10    5.45    6.40 
  -9   3  10    5.37    5.75 
  -9  -3  10   32.19   10.68 
   9   3  10   17.06    9.91 
   9  -3  10   20.10    9.95 
  -9  -3 -10    6.95    7.24 
  -9  -3 -10   11.98    5.92 
  -9   3 -10   -1.45    6.36 
  10   3  10    8.81    7.39 
 -10   3 -10    4.91    5.46 
 -10  -3 -10   11.67    6.23 
 -10   3  10   -3.97    4.53 
 -10  -3 -10   10.48    8.32 
  10   3 -10   24.42    8.70 
 -10   3  10   -8.01    6.97 
  10  -3  10   26.33    9.96 
 -10   3 -10   13.58    7.88 
 -10  -3  10    6.99    5.77 
  10  -3 -10   21.13    7.35 
 -10  -3  10    5.19    6.94 
   0  -4  10  248.87   15.16 
   0   4  10  251.82   16.31 
   0   4  10  241.62   16.30 
   0  -4  10  237.89   16.07 
   0  -4 -10  274.61   15.40 
   0   4  10  271.05   18.53 
   0   4 -10  274.50   16.53 
   0  -4 -10  288.47   15.29 
   0  -4 -10  254.74   14.98 
   0   4 -10  269.87   16.51 
   1   4 -10    3.69    3.63 
   1  -4 -10   -0.66    3.66 
  -1   4  10   -5.65    3.60 
   1  -4  10    4.92    4.07 
   1   4 -10    4.60    3.84 
  -1   4 -10   -0.74    3.60 
  -1   4  10    0.97    3.78 
  -1  -4  10   -1.25    3.89 
   1   4  10   -2.91    3.51 
  -1  -4 -10   -0.59    3.08 
   1  -4 -10   -4.50    3.22 
  -1  -4 -10   -5.69    2.61 
   1   4  10    3.65    5.19 
   1   4  10    3.79    3.92 
   1  -4  10    2.24    4.11 
  -1  -4 -10   -0.75    2.94 
  -1   4 -10   -0.26    2.98 
  -1   4  10   -0.67    4.05 
   2   4 -10  810.37   27.54 
  -2   4  10  759.86   32.97 
  -2   4 -10  734.32   30.18 
   2   4  10  804.19   28.50 
   2  -4 -10  742.93   28.47 
   2  -4  10  760.85   31.56 
   2   4  10  790.59   34.93 
  -2  -4  10  757.09   31.92 
   2  -4 -10  775.70   30.76 
   2  -4  10  760.97   29.62 
   2   4 -10  763.28   32.00 
  -2  -4  10  769.10   27.74 
  -2  -4 -10  792.30   28.55 
  -2   4 -10  769.67   30.79 
  -2  -4 -10  755.59   28.75 
  -2   4  10  759.17   32.99 
  -2  -4  10  783.78   32.29 
  -2  -4 -10  753.17   29.82 
   3  -4 -10   -1.97    4.18 
  -3   4  10    5.57    5.35 
  -3   4 -10    1.41    3.26 
  -3  -4  10    5.94    4.46 
  -3  -4  10   -3.23    3.45 
   3   4  10    2.14    6.11 
  -3  -4 -10    1.44    3.45 
  -3   4  10   -0.43    3.41 
  -3  -4 -10   -1.39    3.01 
   3  -4  10   -2.02    3.04 
   3  -4  10    0.24    5.09 
  -3  -4 -10   -1.20    3.25 
   3   4 -10    3.42    4.78 
   3   4  10   -5.17    2.64 
   3  -4 -10    2.82    3.55 
  -3  -4  10   -0.50    4.64 
  -3   4 -10   -0.37    3.86 
  -4  -4  10  304.37   17.65 
  -4   4  10  325.46   19.30 
  -4   4 -10  308.78   18.23 
   4   4 -10  308.59   18.63 
  -4   4 -10  298.38   17.21 
  -4  -4 -10  312.12   16.80 
   4  -4  10  300.31   19.84 
  -4  -4  10  314.64   19.18 
   4  -4  10  284.66   15.67 
  -4   4  10  281.33   20.24 
   4  -4 -10  296.91   15.42 
   4   4  10  329.82   23.03 
  -4  -4 -10  284.83   16.58 
  -4  -4  10  310.43   19.31 
   4  -4 -10  291.12   18.94 
  -4  -4 -10  317.87   15.65 
  -5  -4 -10   -1.08    2.57 
  -5   4  10   -1.12    5.43 
  -5  -4  10   10.93    5.45 
  -5  -4 -10   -0.95    3.78 
  -5  -4  10    7.39    4.80 
  -5   4 -10    2.61    3.25 
   5   4  10    4.88    7.46 
  -5   4 -10    1.36    4.47 
   5  -4  10   -0.44    3.10 
   5  -4 -10    5.16    6.53 
  -5  -4  10    4.92    4.97 
  -5  -4 -10   -1.91    3.66 
  -5   4  10    0.16    3.41 
   5  -4  10   -3.81    5.52 
   5  -4 -10    0.31    2.86 
   5   4 -10    0.16    4.69 
   6  -4  10  649.58   33.68 
  -6   4  10  678.12   29.13 
  -6  -4 -10  686.60   28.70 
   6   4 -10  638.26   30.08 
   6   4  10  679.70   37.16 
  -6  -4 -10  611.45   27.68 
   6  -4 -10  634.10   32.71 
   6  -4  10  670.91   25.46 
  -6  -4  10  739.50   32.50 
  -6   4 -10  648.58   29.12 
  -6  -4  10  725.35   31.35 
  -6   4 -10  648.18   28.06 
  -6  -4  10  648.05   29.48 
  -6   4  10  688.56   33.35 
   6  -4 -10  680.38   27.35 
   7   4  10   -2.85    7.46 
   7  -4  10   -1.98    4.97 
  -7   4  10   -1.98    3.41 
   7   4 -10    0.59    5.10 
  -7   4 -10   -4.24    4.54 
  -7  -4 -10   -0.16    3.63 
   7  -4 -10    3.13    4.10 
  -7   4  10   -0.14    5.83 
  -7  -4  10   -3.75    4.65 
  -7   4 -10    1.61    4.35 
  -7  -4 -10   13.38    5.97 
  -7  -4  10    3.78    4.25 
  -7  -4  10    5.53    6.26 
   7  -4 -10    0.02    6.96 
  -8  -4  10  284.78   18.85 
   8  -4 -10  264.50   17.20 
  -8   4 -10  250.60   16.83 
  -8  -4  10  262.97   20.19 
   8   4  10  255.15   22.21 
  -8   4 -10  232.85   17.72 
   8  -4 -10  283.14   22.48 
   8   4 -10  250.30   19.05 
  -8  -4 -10  251.31   18.25 
  -8  -4 -10  255.37   17.29 
  -8   4  10  256.10   19.56 
  -8   4  10  284.98   17.63 
   8  -4  10  279.92   21.87 
  -9  -4 -10   -1.43    5.93 
  -9   4  10    1.08    4.26 
  -9   4 -10    1.48    4.64 
  -9  -4 -10   -4.80    3.89 
   9  -4 -10   -5.51    4.58 
  -9  -4  10   -1.38    5.99 
   9  -4  10    3.73    6.40 
  -9   4  10    0.32    6.28 
  -9   4 -10    1.18    5.70 
  -9  -4  10   -2.07    4.53 
   9   4  10   -9.03    6.84 
   9  -4 -10   -0.37    7.66 
   9   4 -10   -1.04    5.63 
  10  -4 -10  308.91   25.45 
 -10  -4 -10  369.13   21.62 
  10   4 -10  323.03   23.34 
  10  -4  10  332.39   25.78 
 -10   4 -10  350.20   19.89 
 -10  -4  10  349.80   21.86 
 -10  -4  10  327.83   24.04 
 -10   4 -10  326.10   22.58 
  10  -4 -10  353.17   21.76 
 -10  -4 -10  319.61   22.67 
  10   4  10  363.09   26.70 
 -10   4  10  333.33   20.55 
   0   5 -10   28.68    6.23 
   0  -5 -10   13.22    5.18 
   0   5  10   16.24    6.25 
   0   5  10    6.21    4.68 
   0   5 -10   28.82    6.51 
   0  -5 -10   27.64    5.42 
   0   5  10   11.33    6.07 
   0  -5  10   33.97    6.51 
   1   5 -10  115.91   11.57 
   1   5  10   98.46   13.86 
  -1   5 -10  103.13   12.10 
  -1  -5 -10  105.10   11.64 
  -1  -5 -10  108.85   11.04 
  -1   5  10  114.45   12.16 
  -1  -5  10  108.40   13.18 
   1   5  10  116.84   12.57 
   1  -5 -10  100.04   10.58 
   1  -5  10  113.81   12.60 
   1   5  10  139.92   15.45 
   1   5 -10  101.22   12.56 
  -1   5  10   92.70   12.89 
   1  -5  10   98.53   12.71 
  -1   5 -10   74.55   11.14 
  -1  -5 -10  106.29   11.05 
   1  -5 -10  125.49   12.85 
  -1   5  10   93.29   13.25 
   2  -5 -10   38.34    5.88 
  -2  -5 -10   19.05    5.28 
  -2  -5 -10   19.33    5.64 
  -2   5  10    7.80    4.69 
  -2   5  10    9.03    6.04 
  -2   5 -10   27.41    6.43 
  -2  -5  10   23.10    4.94 
   2  -5 -10   22.80    5.85 
  -2  -5 -10    2.62    3.56 
   2   5  10   21.06    5.17 
   2   5  10   12.98    7.58 
   2  -5  10   25.12    5.74 
  -2  -5  10   29.71    6.51 
   2   5 -10   36.79    7.19 
   2  -5  10   46.44    8.17 
   3  -5  10  164.73   16.40 
   3   5  10  140.42    9.56 
  -3  -5  10  125.73   10.68 
  -3  -5 -10  151.41   10.80 
  -3  -5  10  149.72   12.92 
  -3  -5 -10  137.83   10.89 
   3  -5  10  130.27   11.11 
   3  -5 -10  153.12   10.66 
  -3  -5  10  158.34   15.45 
  -3   5 -10  134.57   11.63 
  -3   5 -10  138.07   13.86 
  -3  -5 -10  134.08   10.95 
  -3   5  10  153.78   15.39 
   3   5 -10  165.51   13.32 
   3   5  10  175.32   19.61 
   3  -5 -10  175.96   16.30 
  -3   5  10  160.30   16.97 
   4  -5 -10   15.77    4.60 
  -4  -5  10   27.66    6.93 
   4   5  10   20.91    9.27 
  -4   5  10    5.21    5.86 
   4  -5  10   34.63    8.65 
  -4  -5 -10   12.78    5.49 
   4  -5 -10   22.59    7.32 
  -4   5 -10   17.31    6.21 
  -4  -5  10    9.36    5.28 
   4   5 -10   22.39    6.52 
  -4  -5 -10   14.05    5.29 
  -4  -5  10   17.51    5.74 
  -4   5  10   14.99    5.59 
  -4   5 -10   10.12    4.34 
   4  -5  10   25.73    6.11 
  -4  -5 -10   10.21    4.86 
  -5  -5 -10   50.46    8.41 
  -5  -5  10   39.75    8.69 
  -5   5  10   32.15    7.98 
   5  -5 -10   42.98    7.35 
  -5   5 -10   32.87    7.92 
  -5  -5  10   53.61   10.74 
   5  -5 -10   39.15   11.08 
  -5  -5  10   47.29   10.10 
  -5   5 -10   41.25    8.09 
   5   5  10   27.02   11.44 
   5  -5  10   38.06    7.69 
  -5  -5 -10   40.90    7.83 
  -5   5  10   37.39   10.12 
   5  -5  10   47.20   11.51 
   5   5 -10   49.63   10.22 
  -5  -5 -10   41.88    8.33 
   6  -5  10   15.78    8.24 
   6   5  10   24.36   10.07 
  -6   5  10   13.03    7.05 
  -6  -5  10   18.79    6.34 
  -6  -5 -10    0.74    3.77 
  -6  -5 -10    6.25    5.62 
   6  -5  10   16.64    4.73 
  -6  -5  10    8.93    5.06 
  -6   5 -10    9.98    4.08 
  -6  -5  10   13.95    6.52 
   6  -5 -10   28.11    6.06 
  -6  -5 -10    5.39    5.04 
  -6   5  10   12.94    5.13 
   6  -5 -10   20.70    7.91 
   6   5 -10   30.98    7.96 
  -6   5 -10   14.06    6.31 
  -7   5 -10   71.38   12.20 
   7   5  10   50.67   14.63 
   7   5 -10   59.22   12.02 
  -7   5  10   63.02   13.14 
   7  -5  10   57.34   12.94 
  -7   5 -10   75.43   10.87 
   7  -5 -10   72.25   10.54 
  -7  -5  10   67.38   12.00 
  -7  -5  10   83.86   13.98 
   7  -5 -10   43.56   12.27 
  -7  -5 -10   71.32   10.96 
  -7   5  10   45.33    9.02 
  -7  -5 -10   77.47   11.54 
  -7  -5  10   63.41   11.31 
  -8   5  10    6.33    4.69 
   8  -5 -10    8.59    7.72 
  -8   5  10   -1.11    6.24 
  -8  -5 -10   12.07    6.75 
  -8  -5 -10   -2.27    4.23 
   8  -5 -10   12.24    5.66 
  -8   5 -10    5.08    6.14 
  -8  -5  10   10.53    5.21 
   8  -5  10   20.11    8.64 
  -8   5 -10    3.06    4.68 
   8   5  10   13.47    9.17 
  -8  -5  10   -2.67    5.40 
   8   5 -10   22.23    7.68 
  -9  -5  10   31.61    8.23 
   9  -5 -10   21.38   10.57 
  -9   5  10   13.54    8.60 
  -9   5 -10   26.70    6.98 
  -9  -5 -10   29.87    9.89 
   9   5 -10   33.53   10.48 
  -9   5 -10   46.25   10.93 
   9   5  10   32.27   12.28 
  -9  -5 -10   38.08    9.09 
  -9  -5  10   25.95   10.16 
  -9   5  10   20.98    7.22 
   9  -5  10   28.82   10.97 
   0   6 -10  583.32   26.75 
   0  -6 -10  553.93   25.80 
   0   6  10  613.18   30.32 
   0  -6 -10  620.91   23.86 
   0   6  10  568.93   27.00 
   0   6 -10  618.27   26.83 
   0  -6  10  565.61   26.20 
   0   6  10  608.82   27.93 
   1   6 -10   -1.89    3.73 
  -1   6  10    0.68    4.27 
  -1   6  10    1.22    4.32 
   1   6  10    3.36    5.03 
   1  -6 -10    1.72    4.64 
   1   6  10    2.12    4.50 
   1   6 -10    0.11    4.08 
  -1  -6 -10   -0.03    3.44 
  -1   6 -10   -6.77    3.50 
  -1  -6 -10   -0.36    3.99 
   1  -6 -10   -1.77    3.34 
  -1   6  10   -2.01    4.77 
   1  -6  10    3.08    4.14 
  -1  -6  10    4.22    4.56 
   1   6  10    8.76    6.30 
   2  -6  10  651.59   27.46 
  -2  -6 -10  639.13   26.84 
  -2  -6 -10  665.63   27.48 
   2   6  10  653.08   32.17 
   2  -6  10  610.74   29.04 
   2   6  10  726.04   27.40 
  -2   6 -10  678.92   28.68 
   2   6 -10  644.36   28.94 
   2  -6 -10  679.57   24.92 
  -2   6 -10  695.24   28.96 
  -2  -6 -10  674.96   26.02 
  -2  -6  10  633.75   28.78 
   2  -6 -10  609.26   27.58 
  -2   6  10  632.85   30.69 
  -2   6  10  664.23   30.67 
   2   6 -10  667.92   26.43 
   3  -6 -10    3.02    5.57 
  -3  -6 -10    3.78    3.96 
   3   6  10   -6.32    4.92 
  -3  -6  10    0.61    4.80 
   3   6 -10    2.75    4.12 
   3  -6 -10   -2.28    3.19 
  -3   6  10   -3.66    4.73 
  -3  -6  10    5.34    4.26 
   3  -6  10    2.92    4.19 
  -3   6  10   -2.55    2.97 
  -3  -6 -10    0.95    3.39 
   3  -6  10   -6.82    3.84 
  -3  -6 -10   -3.39    3.04 
  -3   6 -10    3.28    3.62 
  -3   6 -10    0.51    4.51 
   3   6  10    1.19    3.22 
  -4  -6 -10  408.30   19.52 
   4  -6 -10  398.76   17.80 
  -4   6 -10  421.57   20.74 
   4  -6  10  383.16   23.47 
   4  -6 -10  389.38   21.64 
  -4  -6 -10  393.02   20.14 
  -4  -6  10  383.19   21.69 
  -4   6  10  364.46   21.42 
   4  -6  10  410.83   20.33 
   4   6  10  396.28   26.19 
  -4   6 -10  373.69   20.76 
  -4   6  10  357.06   23.64 
   4   6 -10  366.47   21.01 
  -4  -6  10  416.12   23.01 
  -4  -6 -10  366.76   19.00 
  -4  -6  10  392.71   20.97 
  -5   6 -10   -2.08    3.26 
   5   6  10    6.13    7.50 
   5  -6  10    1.64    5.77 
  -5  -6  10   -2.85    4.80 
  -5   6  10    6.34    3.84 
  -5   6 -10    3.23    5.52 
   5  -6  10    0.81    3.90 
  -5  -6  10    7.46    5.45 
  -5  -6  10   -4.70    3.90 
   5  -6 -10    2.70    3.30 
  -5  -6 -10    6.31    5.32 
  -5   6  10    4.92    6.01 
  -5  -6 -10    4.69    4.29 
   5   6 -10    2.56    5.44 
   5  -6 -10   -1.80    4.87 
  -5  -6 -10   -1.36    3.70 
  -6  -6  10  324.49   19.90 
  -6  -6  10  331.63   21.34 
  -6  -6 -10  358.72   19.89 
   6  -6  10  295.32   22.13 
  -6   6 -10  344.47   19.01 
   6   6  10  265.66   22.99 
  -6   6  10  308.40   19.64 
  -6   6 -10  339.16   20.44 
  -6  -6 -10  349.02   19.50 
   6  -6  10  367.52   18.44 
   6  -6 -10  365.57   18.30 
   6  -6 -10  337.36   22.63 
  -6   6  10  315.59   22.60 
  -6  -6 -10  356.33   19.29 
   6   6 -10  293.76   19.87 
  -6  -6  10  367.98   21.49 
   7  -6 -10    3.04    7.55 
   7  -6  10    3.60    5.46 
  -7  -6  10    1.26    4.27 
  -7  -6 -10    0.41    4.32 
  -7  -6  10    1.83    6.13 
  -7   6  10   -0.03    3.74 
   7   6  10   -1.67    7.96 
  -7   6 -10   -0.55    5.23 
   7  -6  10   -2.29    3.38 
   7   6 -10   -2.55    5.41 
  -7  -6 -10   -3.13    3.22 
  -7   6  10   -3.93    5.89 
  -7   6 -10    1.02    4.22 
   8  -6 -10  230.37   24.51 
  -8   6 -10  191.66   16.70 
   8  -6  10  245.37   24.78 
  -8   6 -10  197.56   14.67 
  -8  -6 -10  209.84   16.40 
   8   6  10  245.80   27.19 
  -8  -6  10  213.87   16.63 
   8   6 -10  198.43   16.86 
  -8  -6 -10  200.62   15.73 
  -8   6  10  202.64   15.43 
  -8   6  10  234.18   21.61 
  -8  -6  10  194.35   17.74 
  -9  -6 -10   -2.95    5.86 
   9   6 -10   -1.94    6.23 
  -9  -6 -10   -3.18    4.66 
  -9   6 -10    1.16    6.05 
  -9   6  10   -6.97    3.68 
  -9  -6  10    5.54    8.20 
   9   6  10   -1.59    8.06 
  -9   6 -10   -3.50    4.67 
  -9  -6  10   -4.84    4.60 
   9  -6  10   -2.26    6.89 
  -9   6  10  -10.85    6.71 
   9  -6 -10   -6.87    6.92 
   0   7  10    0.23    5.43 
   0   7 -10   26.63    6.89 
   0   7  10   12.54    5.57 
   0   7 -10   17.97    6.00 
   0  -7  10   16.27    5.88 
   0   7  10    5.99    5.34 
   0  -7 -10   10.21    5.49 
   0  -7 -10   17.67    4.83 
  -1  -7  10   32.61    8.31 
   1  -7 -10   37.33    9.07 
  -1   7  10   41.22    9.20 
  -1   7  10   34.65    8.95 
   1   7 -10   26.75    8.07 
  -1   7  10   40.34    8.89 
  -1   7 -10   30.26    8.14 
   1  -7 -10   35.43    6.69 
  -1   7 -10   34.50    9.10 
  -1  -7 -10   32.52    6.78 
   1   7  10   29.54    9.12 
  -1  -7 -10   28.94    8.43 
   1   7  10   34.80    9.72 
   1   7  10   33.86    8.12 
   1  -7  10   24.98    6.91 
   1   7 -10   41.36    8.89 
   2   7  10    6.25    6.71 
   2  -7  10   21.55    6.36 
  -2  -7  10   32.03    7.16 
   2   7 -10   31.30    7.04 
   2   7 -10   30.33    6.13 
   2  -7 -10   18.97    6.56 
   2   7  10   17.48    5.49 
   2  -7 -10   33.74    5.65 
  -2   7 -10   32.29    7.36 
  -2   7  10    3.72    5.52 
  -2  -7 -10   18.82    6.57 
  -2  -7 -10   28.68    6.01 
  -2   7  10   11.26    5.62 
   3  -7 -10   53.32   10.87 
   3  -7  10   64.28    9.98 
  -3  -7 -10   57.82    8.81 
   3  -7  10   58.91   12.09 
   3   7 -10   75.25   11.98 
  -3   7  10   38.48    9.67 
  -3   7 -10   59.70   10.64 
  -3   7 -10   52.39    9.15 
  -3  -7  10   47.70   10.01 
   3   7  10   50.57   12.17 
  -3   7  10   52.06    9.93 
  -3  -7 -10   70.16   10.04 
   4   7 -10   15.80    6.30 
   4   7  10    1.58    6.42 
  -4   7 -10   15.94    5.18 
  -4   7  10   10.55    6.51 
  -4   7 -10    9.07    5.62 
   4  -7 -10   11.90    6.60 
  -4  -7 -10    9.25    4.94 
  -4  -7  10    7.82    5.36 
  -4  -7 -10    3.54    3.82 
   4  -7  10   16.06    5.56 
  -4   7  10    5.95    4.89 
  -4  -7  10   16.12    5.84 
  -4  -7 -10   10.02    5.94 
   4  -7  10   23.80    8.01 
   5  -7 -10   21.17    9.06 
  -5  -7  10   10.59    5.80 
  -5   7  10    6.87    5.28 
  -5  -7 -10   10.41    4.76 
  -5   7 -10    9.21    5.13 
  -5  -7 -10   10.18    6.25 
   5   7  10    9.20    9.67 
  -5   7  10   14.83    8.04 
  -5  -7 -10   10.51    5.89 
   5  -7  10   27.03    6.52 
   5  -7  10    2.64    6.73 
   5   7 -10   10.06    6.27 
  -5  -7  10   17.78    7.65 
  -5   7 -10    9.96    6.16 
  -6  -7  10   14.08    7.53 
   6  -7  10   16.37    8.31 
  -6   7 -10   17.86    7.32 
  -6  -7 -10   13.31    6.73 
   6   7  10    9.17    8.38 
   6   7 -10   19.87    7.37 
  -6   7  10   -0.35    3.78 
  -6  -7 -10   13.39    6.48 
  -6   7  10   10.68    7.38 
   6  -7 -10   18.78    8.47 
   6  -7  10   23.72    5.88 
  -6  -7 -10    7.32    5.11 
  -6   7 -10   12.48    5.15 
  -6  -7  10   20.12    6.61 
  -7   7 -10   24.86    8.50 
   7  -7  10   29.16    7.03 
   7  -7 -10    3.77    7.39 
  -7   7  10   28.45   10.33 
  -7  -7  10   25.97    9.86 
  -7   7 -10   23.88    7.21 
  -7   7  10   22.26    7.57 
  -7  -7 -10   15.34    5.81 
  -7  -7  10   27.58    7.98 
  -7  -7 -10   26.79    7.70 
   7   7 -10   18.31    8.05 
  -7  -7 -10   27.35    8.34 
   7  -7  10   26.98   10.43 
   7   7  10   26.19   13.01 
  -8  -7 -10    6.98    6.05 
  -8  -7 -10    1.81    4.43 
   8   7  10   17.78    9.70 
  -8  -7  10   16.10    6.17 
   8  -7 -10    6.20    6.86 
   8  -7  10    4.21    7.02 
  -8   7  10    6.94    8.31 
   8   7 -10   11.75    6.91 
  -8   7 -10    3.31    4.80 
  -8  -7  10    1.09    7.25 
  -8   7 -10   12.34    6.66 
  -8   7  10   13.22    5.57 
   9   7  10   27.16   11.70 
  -9   7  10   25.58    6.48 
   9  -7  10   22.03   10.23 
   9  -7 -10   18.86   10.81 
  -9  -7 -10   18.99    8.58 
   9   7 -10   13.66    8.31 
  -9  -7  10    9.54    8.75 
  -9  -7 -10   17.47    7.61 
  -9   7  10   15.55    7.92 
  -9   7 -10    9.04    5.32 
  -9  -7  10   19.37    7.82 
  -9   7 -10   -8.43    6.58 
   0   8 -10  383.02   21.17 
   0   8  10  356.42   21.50 
   0  -8  10  343.74   20.07 
   0   8  10  370.06   21.49 
   0   8  10  391.67   23.95 
   0  -8 -10  352.53   20.96 
   0   8 -10  374.18   20.85 
  -1   8 -10    4.33    4.80 
   1   8 -10    5.49    5.43 
   1   8  10    3.19    6.08 
  -1   8  10    1.31    4.57 
  -1   8  10    7.58    5.15 
  -1   8  10    5.01    6.13 
   1   8 -10    9.66    5.54 
  -1  -8  10   11.70    5.79 
   1   8  10    2.05    4.29 
  -1   8 -10   10.81    6.17 
   1  -8 -10    0.84    5.45 
   1   8  10   -2.45    4.39 
   1  -8  10   10.38    5.56 
  -1  -8 -10    9.55    6.01 
   2   8 -10  414.02   22.73 
   2   8 -10  432.02   21.96 
   2   8  10  414.94   20.57 
  -2  -8  10  430.74   22.84 
  -2   8 -10  417.35   24.11 
  -2   8  10  397.47   23.49 
  -2  -8 -10  440.00   19.81 
   2   8  10  378.12   24.19 
  -2  -8 -10  414.96   22.05 
   2  -8 -10  421.30   23.01 
  -2   8  10  418.49   23.28 
   2  -8  10  405.09   21.69 
  -2   8 -10  434.83   22.39 
  -3  -8 -10   -0.38    4.15 
   3   8 -10    7.36    5.10 
  -3   8  10    0.44    4.21 
   3  -8 -10    3.32    5.58 
   3   8  10    4.27    7.26 
   3  -8  10   10.02    4.99 
  -3  -8  10    0.41    4.57 
  -3   8 -10    4.88    5.65 
  -3   8  10    0.62    5.49 
  -3  -8 -10   -0.66    4.43 
  -4  -8 -10  319.81   19.13 
   4   8  10  349.47   24.71 
  -4   8  10  321.42   20.49 
  -4   8 -10  333.56   19.24 
  -4  -8  10  334.61   20.35 
   4  -8 -10  354.84   22.10 
  -4   8  10  321.45   21.82 
  -4   8 -10  355.24   20.64 
   4   8 -10  310.04   19.67 
   4  -8  10  380.23   20.16 
  -4  -8 -10  390.33   18.85 
   4  -8  10  305.97   22.06 
   5   8 -10    5.79    5.35 
  -5   8  10    6.16    4.65 
  -5   8 -10   -5.54    5.10 
   5  -8  10    3.75    4.64 
   5   8  10   -0.78    6.82 
  -5  -8  10    3.32    4.66 
  -5  -8  10   -2.72    5.08 
  -5   8 -10    3.71    3.67 
   5  -8 -10    9.46    6.81 
   5  -8  10    7.44    7.48 
  -5  -8 -10    7.57    5.73 
  -5   8  10    3.26    6.74 
  -5  -8 -10    0.63    4.39 
   6  -8 -10  375.39   23.91 
   6   8  10  315.22   25.47 
  -6   8 -10  363.84   19.94 
  -6  -8 -10  363.77   19.72 
   6  -8  10  353.81   19.79 
  -6  -8  10  322.35   21.52 
  -6   8  10  366.70   23.88 
   6  -8  10  323.71   24.03 
  -6  -8  10  390.53   21.99 
  -6  -8 -10  378.19   21.53 
  -6   8 -10  370.47   21.99 
  -6   8  10  320.45   20.38 
   6   8 -10  356.36   22.06 
  -6  -8 -10  369.09   21.40 
  -7  -8  10   -6.37    5.55 
  -7  -8 -10    2.21    5.64 
   7  -8  10    4.94    6.42 
  -7  -8 -10   11.33    5.72 
  -7   8  10    0.56    4.36 
  -7   8 -10    7.78    4.57 
  -7   8 -10    4.85    6.52 
   7   8 -10    4.95    6.28 
   7  -8  10   13.02    5.35 
   7   8  10    4.63    8.75 
  -7  -8 -10   -1.00    4.46 
   7  -8 -10    1.20    7.05 
  -7   8  10   -0.17    6.18 
  -8   8 -10  238.52   19.42 
  -8   8  10  293.32   21.95 
  -8  -8 -10  271.38   19.14 
  -8   8  10  261.16   18.01 
   8   8 -10  261.04   20.01 
   8   8  10  268.56   28.00 
  -8  -8 -10  251.37   17.81 
   8  -8 -10  280.61   22.98 
   8  -8  10  253.87   22.01 
  -8  -8 -10  229.63   17.73 
  -8   8 -10  264.23   16.70 
  -8  -8  10  234.11   19.80 
   0  -9 -10   12.45    7.30 
   0   9  10   15.66    6.66 
   0  -9  10   24.49    6.96 
   0   9 -10   35.58    8.36 
   0   9  10   13.28    7.94 
   0   9 -10   41.38    8.06 
   0   9  10    9.05    6.41 
  -1   9  10    6.84    5.49 
  -1  -9  10   11.58    5.82 
   1   9 -10    8.96    5.76 
  -1   9 -10    2.17    5.67 
   1   9  10   16.65    7.84 
   1  -9 -10   10.42    6.84 
  -1   9  10    5.07    6.66 
   1   9 -10   12.41    6.62 
  -1   9 -10    9.09    5.76 
  -1  -9 -10    2.86    5.64 
   1  -9  10    1.26    4.14 
  -1   9  10    4.03    5.36 
   1   9  10    9.02    5.82 
   2  -9  10   14.25    5.79 
   2   9 -10   24.99    7.66 
  -2  -9 -10    6.26    5.53 
  -2  -9  10   15.88    5.91 
  -2   9  10    4.20    5.42 
   2  -9 -10   14.45    7.08 
   2   9 -10   30.61    7.38 
   2   9  10   16.28    5.89 
   2   9  10   13.56    8.45 
  -2   9 -10   22.06    7.00 
  -2   9  10    6.31    5.27 
  -2   9 -10   29.95    7.91 
  -3   9 -10   24.02    9.02 
  -3   9  10   21.17    7.13 
   3   9 -10   35.01    8.77 
  -3  -9 -10   30.11    8.83 
  -3   9  10   34.68    9.92 
   3   9  10   40.02   12.27 
   3  -9  10   44.92    9.36 
  -3   9 -10   24.64    8.08 
   3   9 -10   34.03    8.53 
   3  -9 -10   27.59    9.30 
  -3  -9  10   29.12    8.37 
   4   9  10   12.05    8.40 
  -4   9  10   11.53    5.58 
   4  -9  10   16.86    5.91 
  -4  -9 -10   13.34    6.89 
  -4   9 -10   27.68    8.13 
   4  -9 -10   20.86    8.17 
  -4   9 -10   16.10    6.52 
  -4  -9  10   24.03    6.95 
   4   9 -10   21.53    7.03 
  -4   9  10    7.95    7.08 
  -5   9  10   -6.20    4.00 
  -5  -9 -10   -6.18    4.98 
   5   9  10    0.65    7.68 
  -5  -9  10    9.68    5.77 
   5  -9  10   -1.73    4.15 
   5   9 -10    3.07    5.39 
  -5   9  10    1.77    6.19 
   5  -9 -10   -0.26    6.60 
  -5   9 -10    7.71    6.14 
  -6   9 -10   13.67    7.49 
  -6  -9  10   11.39    7.19 
  -6  -9 -10   15.67    7.69 
  -6   9  10    9.00    6.86 
   6  -9 -10   18.50    8.78 
   6  -9  10   19.39    6.03 
   6  -9  10   10.39    8.49 
   6   9 -10   13.62    6.47 
   6   9  10    3.51    8.39 
  -6   9 -10    8.26    5.12 
  -6  -9 -10    7.36    5.37 
  -6   9  10   11.48    5.42 
  -7  -9 -10   11.70    7.97 
   7  -9 -10   12.26    9.41 
  -7   9  10   23.86    9.68 
  -7  -9  10   14.78    7.98 
   7  -9  10   17.23    6.37 
  -7  -9 -10    9.61    6.53 
   7  -9  10   12.58    9.30 
   7   9  10   27.61   11.26 
   7   9 -10   12.81    7.43 
  -7   9  10   11.58    6.82 
  -7   9 -10    9.85    5.44 
  -8   9  10   12.06    6.09 
  -8  -9 -10   -3.07    4.93 
   8   9  10   25.52   11.26 
  -8   9 -10    4.52    4.69 
  -8   9  10    1.52    7.10 
   8  -9 -10   14.36    8.87 
  -8  -9 -10    8.60    7.13 
  -8  -9  10   -0.74    7.26 
   8   9 -10   15.15    7.84 
   8  -9  10   17.58    8.89 
   0 -10  10  403.84   23.00 
   0  10  10  466.39   24.29 
   0  10  10  450.35   25.20 
   0  10 -10  487.70   24.81 
   0  10 -10  473.85   25.48 
   0  10  10  455.10   26.88 
   0 -10 -10  423.38   24.89 
  -1  10  10   -3.33    5.41 
  -1 -10  10   -1.87    4.23 
  -1  10 -10    2.27    6.60 
   1  10 -10    6.09    6.31 
  -1  10 -10   -5.55    4.42 
   1  10  10    5.21    6.51 
   1  10  10    1.01    5.00 
   1  10 -10   -6.82    4.23 
  -1 -10 -10   -4.48    5.40 
   1 -10  10    1.19    4.53 
   1 -10 -10    1.40    5.77 
  -1  10  10    2.11    5.15 
  -1  10  10    3.04    5.28 
   2  10 -10  320.28   19.97 
  -2 -10 -10  280.74   19.57 
   2 -10  10  289.24   18.93 
   2  10  10  283.34   21.30 
  -2  10  10  295.89   20.65 
  -2  10 -10  329.94   22.17 
  -2  10 -10  327.55   19.56 
   2  10 -10  307.33   19.14 
   2 -10 -10  312.23   20.78 
  -2 -10  10  301.61   19.35 
  -2  10  10  307.49   20.96 
  -3 -10  10    2.55    5.33 
   3  10  10   -6.22    6.78 
  -3  10 -10    3.70    6.89 
   3  10 -10    7.64    5.44 
   3 -10  10   -6.30    3.74 
  -3  10  10    6.09    5.99 
  -3  10 -10   -3.39    4.95 
   3 -10 -10   -2.02    5.91 
  -3 -10 -10   -4.74    5.67 
   3  10 -10  -10.84    4.56 
  -3  10  10    0.61    4.78 
  -4 -10 -10  293.45   19.72 
   4 -10  10  293.91   18.93 
  -4  10  10  304.90   19.31 
   4  10  10  258.81   22.09 
  -4  10 -10  301.94   22.11 
  -4  10  10  281.42   21.08 
   4 -10 -10  309.65   21.51 
   4  10 -10  312.34   19.42 
  -4 -10  10  315.76   19.90 
   5  10 -10   -0.73    5.30 
  -5 -10  10    2.22    5.84 
   5 -10 -10    5.06    7.12 
  -5  10  10    4.44    4.70 
  -5 -10 -10   -7.12    4.95 
  -5  10  10  -15.61    4.03 
   5 -10  10   -1.12    4.27 
   5  10  10  -13.14    7.17 
  -5  10 -10   -4.97    6.50 
  -6  10 -10  185.45   23.22 
  -6  10  10  144.85   15.93 
  -6 -10 -10  185.85   18.16 
   6  10  10  220.09   25.66 
   6  10 -10  172.91   18.04 
   6 -10  10  182.35   14.80 
  -6  10  10  146.86   19.00 
   6 -10 -10  205.52   21.40 
  -7 -10 -10    3.73    6.65 
   7  10  10  -17.17    6.73 
  -7  10  10   -3.40    4.80 
   7  10 -10   -6.79    5.06 
  -7 -10  10   10.59    6.95 
  -7  10  10   -3.11    6.50 
   7 -10  10    9.28    5.66 
   7 -10 -10   -8.50    6.31 
  -7  10 -10    3.13    8.77 
   0  11  10   -4.24    4.97 
   0 -11 -10   10.28    7.25 
   0  11 -10   16.78    8.05 
   0  11  10   10.06    7.56 
   0 -11  10   13.35    6.71 
   0  11  10    2.72    5.52 
   1 -11  10   39.06    9.23 
  -1 -11 -10   44.03   11.66 
  -1  11  10   41.76   10.29 
  -1 -11  10   30.84    8.86 
   1  11 -10   42.16    9.25 
  -1  11  10   42.31   10.27 
   1  11  10   32.97    8.15 
   1  11 -10   32.65   10.59 
  -1  11 -10   27.56    9.95 
   1 -11 -10   35.39   10.73 
   1  11  10   24.80   10.28 
  -2 -11 -10   16.57    8.28 
   2 -11 -10   11.82    8.41 
  -2  11  10    7.35    7.01 
   2  11 -10   15.98    7.94 
  -2  11 -10   17.99    8.61 
  -2  11  10   16.62    7.51 
  -2 -11  10   21.47    7.00 
   2  11 -10   31.57    7.82 
   2 -11  10   13.49    6.46 
   2  11  10   19.07    9.86 
   3 -11 -10   60.04   12.48 
  -3 -11  10   68.04   11.70 
  -3  11 -10   61.02   14.23 
  -3  11  10   61.62   12.67 
   3 -11  10   54.42   10.16 
   3  11 -10   59.64   10.74 
   3  11  10   68.82   14.99 
  -3 -11 -10   51.39   11.69 
   3  11 -10   53.38   10.97 
  -3  11  10   49.08   10.68 
   4  11 -10   20.14    6.59 
   4 -11  10   12.50    6.44 
  -4  11  10    4.05    4.59 
  -4  11  10   13.19    7.80 
   4 -11 -10   22.89    9.31 
  -4  11 -10   11.98    7.79 
  -4 -11  10   12.24    5.88 
   4  11  10    1.01    8.97 
  -4 -11 -10    9.65    7.08 
  -5  11  10   10.89    5.61 
  -5 -11  10   11.24    6.43 
  -5  11  10    3.22    7.34 
   5  11 -10   16.60    7.37 
  -5 -11 -10   16.52    9.23 
   5 -11 -10    7.37    8.77 
   5 -11  10    6.54    5.44 
  -5  11 -10   16.36    9.52 
   5  11  10   -1.96    8.85 
  -6  11  10    7.50    7.84 
   6 -11  10   15.08    6.37 
  -6  11 -10    3.31    8.88 
   6  11  10   26.59   11.70 
   6 -11 -10   27.98   10.24 
  -6 -11 -10    0.43    6.42 
   6  11 -10   18.40    7.72 
  -6  11  10    2.56    5.02 
   7  11 -10   20.06    9.17 
   7 -11  10   29.89    8.33 
   7 -11 -10   35.23   11.61 
  -7 -11 -10   26.74   10.27 
  -7  11  10   30.09    7.79 
   7  11  10   24.24   12.38 
  -7  11 -10   22.01   11.60 
  -7  11  10   30.82   11.00 
   0 -12 -10  155.11   18.67 
   0 -12  10  125.88   15.74 
   0  12  10  190.36   19.82 
   0  12  10  156.17   16.63 
   0  12 -10  169.66   19.77 
   0  12  10  157.85   18.93 
   1 -12 -10    2.97    6.46 
  -1  12  10   12.60    6.86 
  -1  12 -10    6.06    6.96 
   1 -12  10    3.35    5.69 
   1  12  10    6.66    8.13 
   1  12 -10   13.77    8.01 
  -1  12  10    4.31    6.18 
  -1 -12  10    4.40    5.85 
  -1 -12 -10    3.54    7.18 
   2  12 -10  199.07   17.97 
   2 -12  10  173.02   17.44 
  -2  12 -10  204.48   21.90 
  -2  12  10  190.68   18.98 
   2 -12 -10  213.90   17.94 
  -2  12  10  203.75   20.43 
  -2 -12 -10  179.37   19.23 
   2  12  10  243.63   23.28 
  -2 -12  10  198.33   16.47 
   3 -12  10    3.80    5.28 
   3  12 -10   -2.49    5.53 
   3 -12 -10    6.97    7.53 
  -3  12 -10    5.58    7.29 
  -3  12  10    1.40    5.61 
  -3  12  10    1.22    5.65 
  -3 -12  10    3.91    5.46 
   3  12  10   -4.88    7.39 
  -3 -12 -10    6.58    7.20 
  -4  12 -10  193.11   22.19 
  -4  12  10  153.23   19.13 
   4 -12 -10  199.66   20.65 
  -4 -12  10  180.74   17.38 
  -4 -12 -10  153.34   18.07 
   4 -12  10  140.60   16.69 
  -4  12  10  159.17   16.91 
   4  12  10  179.55   22.43 
  -5 -12 -10   11.29    7.85 
  -5  12  10    2.82    4.38 
   5 -12  10    3.65    5.01 
   5  12  10    2.59    8.93 
  -5  12  10    8.47    7.21 
  -5  12 -10    7.04    8.11 
   5 -12 -10   11.87    8.55 
  -6  12 -10  193.69   23.50 
  -6  12  10  185.19   18.01 
  -6  12  10  218.43   22.62 
   6 -12  10  202.61   16.80 
   6  12  10  217.47   26.14 
   6 -12 -10  223.21   22.66 
  -6 -12 -10  228.24   21.90 
   0  13  10    9.38    8.03 
   0 -13  10   12.84    6.39 
   0  13  10   -0.59    6.20 
   0 -13 -10   13.17    7.81 
   0  13 -10    3.03    7.01 
  -1 -13 -10   -6.94    5.94 
  -1  13  10   -7.49    4.84 
  -1 -13  10   -7.66    4.28 
  -1  13  10    6.77    6.95 
   1 -13 -10   -7.26    5.52 
   1 -13  10    0.17    5.60 
   1  13  10    4.08    7.65 
   1  13 -10   -5.45    6.93 
  -1  13 -10   -8.50    6.39 
   2 -13 -10    5.27    6.91 
  -2  13  10    2.25    6.19 
   2  13 -10   17.54    8.70 
  -2  13 -10   17.35    8.39 
  -2  13  10    3.15    6.23 
   2  13  10    8.56    8.64 
  -2 -13 -10    8.60    7.90 
   2 -13  10    8.89    6.34 
  -2 -13  10   10.98    6.77 
  -3  13  10  -10.13    4.54 
  -3 -13 -10    2.52    7.17 
   3 -13 -10  -17.00    4.76 
  -3  13  10   11.84    7.53 
  -3  13 -10   -0.98    6.51 
   3  13 -10   -0.75    6.44 
   3 -13  10    0.46    5.42 
  -3 -13  10    0.86    5.01 
   3  13  10    4.68    8.14 
  -4  13 -10    8.06    8.68 
   4 -13  10   -7.80    4.99 
  -4  13  10   -6.41    4.97 
   4 -13 -10   15.08    9.03 
  -4 -13 -10   16.61    8.36 
  -4  13  10    0.27    7.04 
  -4 -13  10    5.83    5.40 
   4  13  10   10.01    9.44 
  -5 -13 -10    7.30    8.43 
   5  13  10   -5.07    8.90 
   5 -13 -10    2.47    7.79 
   5 -13  10   -0.64    6.64 
  -5  13 -10   11.81    9.51 
  -5  13  10   10.84    6.50 
  -5  13  10    3.54    6.44 
   0 -14  10  196.70   19.32 
   0 -14 -10  212.71   22.07 
   0  14  10  191.75   20.57 
   0  14 -10  188.35   22.74 
   0  14  10  193.77   18.71 
   1  14  10    2.88    8.23 
   1  14 -10   -0.60    7.31 
  -1 -14  10    0.25    5.20 
  -1  14 -10    9.56    8.52 
  -1  14  10   -3.14    5.17 
  -1  14  10   -4.90    5.03 
   1 -14 -10   -3.42    6.60 
  -1 -14 -10   -2.59    6.69 
   1 -14  10   -4.43    4.97 
  -2  14  10  128.18   17.41 
   2  14  10  169.51   21.32 
  -2  14  10  137.72   18.27 
   2  14 -10  217.69   21.70 
  -2  14 -10  199.93   23.03 
   2 -14 -10  168.23   20.06 
  -2 -14  10  183.89   18.74 
   2 -14  10  114.94   16.27 
  -2 -14 -10  115.48   17.82 
  -3 -14 -10  -15.87    5.98 
  -3  14  10    6.22    6.41 
  -3 -14  10    1.16    6.01 
   3  14  10   -2.35    7.91 
   3 -14 -10   -3.46    6.49 
  -3  14 -10    1.23    8.54 
  -3  14  10    4.28    7.35 
   3 -14  10   -3.68    5.54 
   4  14  10  173.52   23.04 
   4 -14  10  150.03   17.68 
   4 -14 -10  166.15   20.14 
  -4  14  10  136.80   18.84 
  -4 -14 -10  147.14   19.58 
  -4  14  10  135.29   16.89 
  -4  14 -10  148.35   21.40 
   0 -15 -10   -3.13    7.22 
   0 -15  10    5.47    6.28 
   0  15  10   10.91    7.99 
   0  15 -10    9.13    9.61 
  -1 -15  10    9.85    7.16 
   1 -15 -10    8.36    7.67 
  -1  15 -10   24.54   11.55 
   1 -15  10   16.34    8.28 
   1  15 -10   10.18    8.99 
  -1  15  10   11.29    7.99 
  -1 -15 -10    1.51    7.77 
   1  15  10   10.19    8.65 
  -2 -15 -10    6.38    8.42 
  -2 -15  10   10.75    7.05 
   2 -15  10    7.43    6.50 
  -2  15  10   19.78    9.41 
  -2  15  10   -0.83    6.44 
  -2  15 -10   11.43    9.38 
   2  15 -10   14.11    9.64 
   2  15  10    5.89    8.75 
   2 -15 -10   -0.10    6.87 
   0   0  11    7.64    4.34 
   0   0 -11   10.87    4.83 
   0   0 -11   12.19    5.19 
   0   0 -11   16.50    4.89 
   0   0  11    7.65    4.80 
   0   0  11    8.42    5.07 
   1   0 -11   18.09    6.29 
   1   0  11   17.13    5.93 
  -1   0  11   11.82    5.48 
   1   0  11    8.95    4.83 
   1   0 -11   15.25    6.35 
  -1   0 -11   18.64    6.18 
  -1   0  11    4.50    4.10 
  -1   0  11   21.73    5.40 
  -1   0 -11   13.32    5.42 
   1   0 -11   18.95    5.92 
  -2   0 -11    1.05    3.32 
   2   0  11    0.54    4.08 
   2   0 -11    5.27    4.39 
   2   0  11    6.37    5.28 
  -2   0 -11    0.58    3.33 
  -2   0  11    7.01    4.03 
   2   0 -11    7.12    5.27 
  -2   0  11   10.21    5.93 
  -3   0 -11    6.31    3.99 
   3   0 -11    1.72    4.04 
   3   0  11    1.79    4.19 
   3   0 -11    8.36    6.71 
  -3   0  11   -1.28    4.47 
  -3   0  11    4.36    3.81 
  -3   0 -11   -2.68    3.46 
   3   0  11    3.06    5.09 
  -4   0  11    7.93    4.99 
   4   0 -11    5.46    7.01 
   4   0  11    7.04    6.02 
   4   0 -11    7.48    4.74 
   4   0  11   12.54    4.88 
  -4   0 -11    5.01    3.88 
  -4   0  11   18.18    7.25 
  -4   0 -11   10.71    5.17 
   5   0 -11   10.70    5.21 
  -5   0 -11    5.21    5.06 
   5   0 -11   10.24    8.19 
  -5   0  11    9.75    7.19 
  -5   0 -11   10.87    5.33 
  -5   0  11   16.04    5.99 
   5   0  11   11.42    7.87 
   6   0 -11    4.50    7.59 
  -6   0 -11    2.72    4.52 
  -6   0  11   -2.97    5.20 
   6   0  11    0.83    6.07 
  -6   0 -11    3.51    3.92 
  -6   0  11    2.12    4.26 
   6   0 -11   -3.49    3.57 
   7   0  11   -5.46    5.90 
   7   0 -11    1.62    4.55 
  -7   0  11    2.39    4.68 
  -7   0  11    4.29    6.52 
  -7   0 -11    6.71    5.14 
  -7   0 -11    3.05    3.85 
   8   0  11    2.98    6.97 
  -8   0  11   11.89    5.98 
   8   0 -11    8.99    4.99 
  -8   0 -11   11.31    5.49 
  -8   0 -11    6.32    6.40 
  -8   0  11   -0.11    6.02 
  -8   0  11   -0.69    5.91 
  -9   0 -11    6.47    7.15 
  -9   0  11    2.38    8.23 
   9   0 -11    6.54    6.43 
  -9   0  11    1.98    4.92 
  -9   0 -11    2.89    4.92 
   9   0  11   10.22    8.53 
   0  -1  11   37.73    7.23 
   0  -1 -11   19.93    5.75 
   0   1  11   42.63    8.19 
   0   1  11   16.59    5.29 
   0   1 -11   19.47    6.05 
   0   1  11   18.71    5.78 
   0  -1 -11   20.52    5.69 
   0  -1  11   26.15    7.00 
   0   1 -11    9.86    4.68 
   0  -1 -11   26.19    6.38 
   1   1 -11    2.10    3.31 
  -1   1  11    3.76    3.46 
  -1  -1  11    0.47    4.14 
   1   1 -11    0.69    3.42 
  -1  -1  11    5.16    4.58 
   1  -1  11    0.53    3.96 
  -1   1 -11   -2.03    3.53 
  -1   1  11   -3.77    3.64 
  -1  -1 -11    0.44    3.16 
   1  -1  11    1.10    4.43 
  -1   1  11    1.55    3.67 
  -1  -1  11    0.57    3.17 
  -1   1 -11    5.50    3.71 
   1   1  11    2.09    3.66 
  -1  -1 -11    0.00    3.40 
   1   1  11    5.28    4.31 
   1  -1 -11   -2.61    3.77 
  -1  -1 -11    1.14    3.39 
   1  -1 -11    3.18    4.20 
   1   1 -11    6.02    5.11 
   2   1 -11   27.24    7.70 
   2   1  11   10.54    5.60 
   2   1 -11    5.24    4.67 
   2   1  11    3.47    3.91 
  -2   1 -11    7.73    4.96 
  -2  -1 -11    5.86    4.22 
  -2   1 -11    2.53    3.64 
   2  -1  11    0.92    4.59 
   2  -1 -11    8.58    5.70 
  -2  -1  11    6.54    4.23 
  -2   1  11    8.86    5.28 
  -2  -1 -11    1.04    3.72 
   2  -1  11    8.54    5.07 
   2  -1 -11    6.38    4.08 
  -2   1  11    4.50    3.53 
  -2  -1  11    8.96    5.19 
  -3  -1  11    2.47    4.21 
  -3   1  11   -1.78    3.16 
   3  -1 -11    2.71    5.81 
   3   1  11   -6.10    2.84 
   3  -1  11   -5.38    3.10 
   3   1  11    1.13    5.10 
   3   1 -11    4.46    4.12 
  -3  -1  11   -1.01    4.31 
  -3   1 -11    0.66    2.88 
   3  -1  11   -3.82    4.55 
  -3  -1 -11    5.64    3.87 
  -3   1 -11    2.47    4.03 
   3  -1 -11   -0.17    3.45 
   3   1 -11    4.92    6.74 
  -3   1  11   -0.65    4.97 
  -3  -1 -11    0.60    3.54 
   4  -1  11   11.99    5.11 
  -4   1 -11   10.70    4.49 
  -4   1 -11   12.09    5.78 
  -4  -1  11   12.32    5.73 
   4  -1 -11   17.48    8.28 
   4  -1  11   14.84    7.60 
   4   1 -11   13.05    5.75 
   4   1 -11   20.82    8.98 
   4   1  11   13.47    7.21 
  -4  -1  11    6.76    5.33 
  -4  -1 -11    8.72    4.72 
  -4   1  11   11.16    6.40 
  -4   1  11    8.33    4.62 
   4   1  11   10.59    4.69 
  -4  -1 -11    5.38    5.02 
   4  -1 -11   16.37    5.62 
  -5  -1 -11    3.36    4.04 
   5  -1  11    6.72    3.86 
   5  -1  11   -4.92    5.57 
   5  -1 -11    3.77    4.04 
   5   1  11   -1.94    5.84 
  -5  -1  11    2.54    3.47 
   5  -1 -11   -6.99    5.50 
  -5  -1 -11   -0.01    3.99 
  -5  -1  11    1.01    5.06 
  -5   1 -11    5.67    4.18 
   5   1 -11    9.72    7.57 
  -5   1  11    4.36    5.90 
   5   1 -11    3.00    4.06 
  -5   1 -11    3.50    4.53 
  -5   1  11    2.64    4.14 
  -6  -1  11    2.82    5.47 
   6   1  11   -1.62    6.39 
  -6   1  11    3.31    6.02 
  -6  -1  11    6.63    6.31 
  -6  -1 -11    1.54    4.52 
  -6  -1  11   14.00    6.04 
   6  -1  11    2.84    7.04 
  -6   1  11    5.51    4.21 
   6  -1 -11    3.15    6.87 
   6   1 -11    5.74    4.62 
  -6   1 -11    1.27    3.67 
   6  -1 -11   -2.82    3.45 
  -6   1 -11    0.98    4.36 
  -6  -1 -11    3.89    4.30 
  -7  -1  11  -10.31    5.48 
  -7   1  11    4.84    4.66 
   7  -1  11    0.40    7.19 
   7   1 -11   -7.26    3.63 
  -7  -1 -11    0.35    3.47 
  -7   1 -11    5.94    6.06 
   7  -1 -11    2.54    4.37 
  -7   1  11   -1.49    4.69 
  -7   1 -11    2.43    4.34 
   7  -1 -11    8.39    8.03 
  -7  -1 -11    6.61    5.71 
  -7  -1  11    1.27    5.94 
   7   1  11    0.78    8.06 
  -7  -1  11    9.98    5.52 
   8  -1  11    1.76    6.02 
  -8   1  11   -2.85    6.43 
   8   1 -11    5.23    5.70 
  -8  -1  11    2.90    6.06 
  -8   1 -11    4.64    4.50 
  -8   1 -11    2.96    5.64 
  -8  -1  11    1.60    5.25 
   8   1  11   12.42    7.85 
  -8  -1 -11    0.27    4.15 
  -8  -1  11    6.54    5.14 
   8  -1 -11   -0.70    4.27 
  -8  -1 -11   -0.21    6.14 
  -8   1  11    6.08    4.73 
  -9   1 -11   -5.04    5.38 
  -9  -1  11   -0.33    6.44 
  -9   1  11   -0.22    5.18 
  -9  -1 -11   -3.82    3.87 
   9  -1  11    9.35    8.87 
   9   1 -11   -3.09    4.96 
  -9  -1 -11   -4.52    5.88 
  -9   1 -11   -6.41    4.20 
  -9  -1  11    1.82    4.96 
  -9   1  11    0.31    5.94 
   9   1  11   -0.83    6.37 
  -9   1  11   -2.83    7.18 
   9  -1 -11    1.42    5.37 
   0  -2 -11   13.14    5.35 
   0   2 -11   12.82    5.68 
   0  -2  11   19.37    6.60 
   0  -2 -11   17.81    5.61 
   0   2  11   10.13    5.55 
   0   2 -11   13.00    5.48 
   0  -2  11   16.21    5.91 
   0  -2 -11   14.38    5.08 
   0   2  11   13.64    5.19 
   0   2  11   13.71    5.64 
  -1  -2 -11    9.97    4.52 
   1  -2 -11    5.41    4.58 
  -1   2 -11    2.67    3.62 
   1   2  11    5.24    3.89 
   1  -2  11    7.86    4.86 
  -1   2  11    9.45    6.24 
  -1  -2  11   11.68    5.15 
  -1  -2 -11    5.99    4.25 
   1   2  11    6.37    5.15 
   1  -2  11   16.59    6.42 
  -1   2  11    2.56    4.30 
  -1   2 -11    7.95    4.90 
  -1  -2  11   10.84    5.38 
   1   2 -11   10.19    5.26 
   1   2 -11    7.64    4.70 
  -1  -2  11   16.74    6.65 
  -1  -2 -11   16.36    5.09 
   1  -2 -11    4.39    4.27 
   2  -2  11   18.81    6.55 
  -2  -2 -11    4.16    3.97 
   2  -2 -11   15.08    5.92 
  -2  -2 -11    7.57    4.65 
  -2   2  11   -2.12    3.62 
  -2  -2  11   13.33    5.97 
   2   2 -11   17.14    6.51 
  -2  -2 -11    5.97    4.57 
   2  -2 -11   14.29    5.59 
  -2   2 -11    5.27    4.26 
  -2   2  11    9.55    5.54 
   2   2  11   10.32    6.09 
  -2  -2  11   13.71    5.24 
   2   2 -11    6.81    5.07 
  -2   2 -11    6.02    4.59 
   2  -2  11   13.95    6.09 
   2   2  11   10.42    4.19 
   3   2  11    1.02    5.70 
  -3  -2  11   14.28    5.62 
   3   2  11    6.75    4.38 
   3  -2 -11    2.75    3.41 
  -3  -2 -11    2.43    3.77 
  -3   2 -11    5.27    4.55 
   3   2 -11    7.27    4.62 
   3   2 -11    9.01    6.88 
  -3   2  11   -2.08    3.72 
  -3   2  11   10.98    6.94 
   3  -2  11   10.39    4.96 
  -3  -2  11    2.40    5.14 
   3  -2  11    7.69    5.80 
   3  -2 -11    2.49    5.94 
  -3  -2 -11    3.45    4.26 
  -3   2 -11   10.11    4.48 
  -4   2 -11   13.68    6.07 
  -4   2  11    3.84    4.18 
   4   2 -11    6.02    4.80 
   4   2  11   12.18    7.32 
  -4  -2  11   11.37    5.79 
   4  -2 -11    7.00    3.97 
   4   2  11    4.44    4.06 
  -4  -2 -11    8.61    4.50 
   4  -2 -11    9.62    7.41 
  -4   2  11    7.11    6.19 
  -4  -2  11   11.66    6.30 
  -4   2 -11    4.84    3.89 
  -4  -2 -11   11.98    5.50 
   4  -2  11   17.03    7.89 
  -4  -2  11   11.65    5.23 
   4  -2  11    8.64    4.25 
  -5   2  11    2.01    3.82 
  -5  -2  11    7.70    5.57 
   5   2 -11   10.69    5.39 
  -5  -2 -11    3.47    3.54 
  -5  -2  11   16.89    6.40 
   5   2  11   10.82    7.61 
  -5   2 -11   -0.12    3.62 
  -5  -2  11    4.52    5.95 
  -5   2  11    8.88    6.91 
   5  -2  11    7.02    3.96 
   5  -2 -11    8.46    4.62 
  -5  -2 -11    9.78    5.33 
  -5   2 -11    7.93    5.38 
   5  -2 -11    3.54    6.70 
   5  -2  11    2.52    6.62 
  -6   2  11    4.01    6.21 
   6   2 -11    7.13    5.28 
   6   2  11    6.30    8.26 
  -6   2 -11    2.39    3.95 
  -6   2  11    6.02    4.52 
   6  -2  11   13.98    8.94 
  -6  -2 -11    0.88    4.84 
   6  -2 -11   -0.13    6.58 
  -6   2 -11    5.57    5.91 
   6  -2 -11    1.47    4.22 
  -6  -2  11    4.51    5.85 
  -6  -2  11    2.51    5.80 
  -6  -2 -11   -2.84    3.58 
  -6  -2  11    4.25    4.75 
   7  -2 -11    5.38    4.78 
  -7  -2  11   -3.05    5.03 
   7   2 -11    2.27    5.48 
   7   2  11    4.62    8.43 
  -7   2 -11    2.86    4.98 
  -7   2  11   -3.20    5.44 
   7  -2  11    4.72    7.68 
  -7  -2 -11    1.34    4.76 
  -7   2 -11    4.86    4.93 
   7  -2 -11   -3.22    6.49 
  -7  -2  11   -1.47    4.84 
  -7  -2 -11   -1.30    3.53 
  -7   2  11    3.70    4.54 
  -7  -2  11   -1.41    3.89 
  -8   2  11    4.86    5.29 
   8   2  11   -3.60    8.23 
   8  -2  11    2.31    7.29 
  -8   2 -11    2.00    4.45 
  -8   2 -11    2.59    5.91 
   8   2 -11    6.03    6.31 
  -8   2  11    1.21    5.75 
  -8  -2  11   -1.93    5.00 
  -8  -2  11    4.59    6.39 
  -8  -2  11    1.89    4.78 
   8  -2 -11    3.24    4.36 
   8  -2 -11   13.34    8.74 
  -8  -2 -11    4.52    4.48 
  -8  -2 -11    7.06    6.68 
  -9   2  11    4.30    5.56 
  -9   2  11    2.44    6.74 
   9   2 -11    1.08    5.86 
  -9   2 -11    2.58    6.71 
   9   2  11    1.29    7.36 
  -9  -2  11   -2.17    6.69 
  -9  -2 -11    5.48    6.30 
  -9  -2  11   -0.34    4.53 
  -9  -2 -11   -4.30    4.63 
   9  -2 -11    5.28    5.45 
  -9   2 -11    1.26    5.21 
   9  -2  11    5.85    8.40 
   0   3  11   73.94   11.20 
   0  -3 -11   94.30   10.06 
   0  -3 -11   83.88   10.68 
   0   3  11   75.31   10.74 
   0  -3  11   99.07   12.09 
   0   3  11   73.48   11.96 
   0   3 -11   75.03   10.81 
   0  -3  11   83.23   10.37 
   0   3 -11   82.20   11.75 
  -1   3 -11   -2.18    3.07 
  -1  -3 -11    1.16    3.51 
  -1  -3 -11    0.93    3.89 
   1  -3 -11    0.03    3.82 
  -1   3 -11   -2.21    4.20 
   1  -3  11    8.99    4.99 
  -1  -3 -11   -4.97    2.52 
  -1  -3  11   -6.74    3.59 
  -1   3  11    5.83    5.38 
   1   3  11    2.54    4.05 
   1  -3 -11   -0.94    3.72 
   1   3 -11   -0.71    3.78 
   1   3  11   -2.34    4.23 
  -1  -3  11    1.98    5.08 
   1   3 -11    0.90    4.27 
   1  -3  11    0.73    4.97 
  -1   3  11    1.55    3.87 
   2  -3 -11   20.33    6.88 
  -2   3  11   15.15    5.58 
  -2   3  11   14.97    6.96 
  -2  -3 -11   14.45    5.19 
  -2  -3  11   19.55    6.02 
   2  -3  11   20.98    6.60 
   2   3  11   18.06    8.10 
   2   3 -11    9.74    5.79 
  -2  -3 -11   10.58    5.10 
  -2  -3 -11   20.63    5.90 
  -2  -3  11    9.21    6.31 
   2   3  11    5.51    4.11 
   2  -3  11   25.89    7.89 
  -2  -3  11   21.04    6.37 
   2  -3 -11   21.36    6.30 
  -2   3 -11   15.33    6.06 
  -2   3 -11   12.08    5.15 
   3  -3 -11   -0.42    3.45 
  -3  -3  11   -2.66    4.38 
  -3  -3 -11   -0.46    2.91 
  -3   3  11    2.33    3.70 
  -3  -3  11   -4.08    4.04 
  -3  -3  11    3.68    4.31 
   3   3 -11   -4.03    4.03 
   3  -3 -11    5.21    5.81 
  -3   3 -11   -0.30    3.28 
  -3  -3 -11   -1.74    3.41 
   3   3  11    1.24    6.04 
   3   3  11    0.63    3.15 
  -3  -3 -11   -2.34    2.75 
   3  -3  11   -1.47    4.41 
  -3   3 -11    3.44    4.74 
  -3   3  11    6.20    6.24 
   3  -3  11    2.06    4.26 
  -4  -3  11   39.32    8.91 
  -4   3  11   46.06   11.03 
  -4  -3  11   54.23   10.44 
  -4   3 -11   61.99    9.65 
   4   3 -11   50.30    9.73 
   4  -3 -11   59.45    9.00 
  -4  -3 -11   57.35    9.56 
  -4  -3 -11   62.71    9.59 
  -4   3 -11   46.00    9.47 
  -4   3  11   78.63   11.09 
   4  -3  11   62.16    9.12 
   4   3  11   77.91   14.94 
  -4  -3  11   68.52   10.99 
   4  -3  11   59.87   11.69 
   4  -3 -11   81.13   13.08 
  -5  -3  11    5.36    5.97 
   5  -3  11    2.67    6.52 
  -5  -3 -11    5.02    4.73 
   5   3  11   -2.58    6.91 
   5  -3  11    1.52    3.76 
   5  -3 -11    0.61    3.68 
  -5  -3  11   -0.16    4.11 
  -5  -3 -11   -1.15    3.47 
  -5   3 -11    2.85    3.41 
   5   3 -11    0.06    4.66 
  -5   3  11    9.84    5.02 
  -5   3 -11   -0.68    4.64 
   5  -3 -11   -0.88    5.99 
  -5   3  11    2.62    5.90 
  -5  -3  11  -11.64    3.98 
  -6   3  11   14.42    7.73 
   6  -3  11   10.00    4.62 
   6   3  11    1.09    7.80 
  -6  -3 -11    0.10    3.89 
  -6  -3  11   10.88    6.53 
  -6  -3 -11    2.78    4.63 
   6   3 -11   11.64    6.01 
   6  -3  11   22.37    9.51 
  -6   3  11    5.24    4.34 
  -6  -3  11    9.70    6.97 
  -6   3 -11    2.32    4.60 
   6  -3 -11   12.96    8.40 
  -6   3 -11    6.98    5.91 
   6  -3 -11    6.50    4.66 
  -6  -3  11   12.77    5.64 
  -7   3  11   -0.39    3.64 
   7  -3 -11    2.83    4.28 
  -7   3 -11    1.69    5.19 
  -7  -3  11   -0.09    4.50 
  -7  -3 -11   -5.12    4.27 
  -7  -3  11    7.63    6.47 
   7  -3 -11    3.84    7.20 
  -7  -3 -11    2.00    4.18 
  -7  -3  11   10.46    6.86 
   7   3 -11   -0.06    4.87 
   7   3  11   -0.63    6.95 
  -7   3  11    0.85    6.71 
  -7   3 -11    7.09    4.28 
   7  -3  11   -0.20    7.07 
   8   3 -11   20.77    7.59 
  -8  -3  11   35.48   10.31 
   8  -3 -11   26.95   11.90 
   8   3  11   32.30   12.81 
  -8  -3 -11   27.62    7.63 
   8  -3  11   36.88   10.94 
  -8   3  11   30.24   10.19 
  -8  -3  11   23.55    7.97 
  -8   3  11   33.56    8.11 
  -8   3 -11   28.39    7.45 
   8  -3 -11   36.69    8.68 
  -8  -3 -11   18.49    8.18 
  -8   3 -11   20.28    8.25 
  -9   3 -11   -6.23    5.66 
   9  -3 -11    2.76    5.37 
  -9  -3 -11   -5.00    3.64 
  -9   3  11   -1.83    4.72 
  -9  -3  11    4.46    5.15 
  -9   3 -11    2.66    5.40 
  -9   3  11   -4.11    6.18 
   9  -3  11   -5.56    7.04 
  -9  -3 -11   -2.87    5.86 
   9   3  11   -1.87    7.48 
   9   3 -11   -1.41    5.70 
  -9  -3  11    2.99    7.03 
   9  -3 -11    0.60    7.63 
   0   4  11    2.14    5.07 
   0  -4  11    5.66    4.58 
   0  -4 -11    4.94    4.60 
   0   4 -11    0.74    4.78 
   0  -4  11    0.90    5.09 
   0   4  11    6.99    4.63 
   0  -4 -11    4.41    4.41 
   0   4  11    4.71    5.28 
   0   4 -11    6.27    4.50 
   1   4 -11   44.54    7.95 
  -1  -4 -11   33.53    7.37 
  -1   4 -11   29.36    7.35 
   1  -4  11   36.52    8.21 
   1  -4 -11   26.94    7.19 
   1  -4  11   50.14    9.29 
  -1   4 -11   59.15   10.67 
  -1   4  11   32.06    7.92 
   1  -4 -11   29.15    7.19 
  -1   4  11   28.75    8.46 
   1   4  11   41.53    8.51 
   1   4  11   30.14    8.86 
  -1  -4  11   30.92    8.65 
  -1  -4 -11   43.47    8.03 
   1   4 -11   37.32    8.31 
  -1  -4 -11   23.86    6.31 
  -2   4  11   -0.77    5.36 
  -2   4  11    2.90    4.01 
  -2   4 -11    6.19    4.10 
   2  -4 -11   13.15    5.35 
  -2  -4  11   19.95    6.73 
   2   4  11   -0.44    5.69 
   2   4  11    7.49    4.44 
  -2  -4 -11    3.22    4.63 
  -2  -4 -11    5.91    4.12 
   2  -4 -11   13.44    5.97 
  -2   4 -11   10.09    5.28 
  -2  -4 -11   14.85    5.09 
   2  -4  11   15.22    6.58 
   2   4 -11    9.87    5.00 
   2  -4  11    9.57    5.13 
  -3  -4 -11   32.65    6.87 
  -3   4  11   20.92    7.74 
   3  -4  11   24.64    6.88 
  -3  -4 -11   31.29    7.35 
   3   4  11   30.50   10.12 
  -3   4 -11   31.99    7.41 
  -3  -4  11   33.54    7.60 
  -3  -4  11   32.85    8.72 
   3  -4 -11   32.71    6.72 
  -3  -4  11   19.34    6.96 
   3  -4  11   26.74    8.88 
  -3  -4 -11   21.80    6.24 
   3  -4 -11   34.58    8.85 
  -3   4 -11   23.63    7.22 
  -3   4  11   18.49    6.70 
   3   4 -11   26.14    8.08 
   3   4  11   23.79    5.56 
   4  -4 -11    4.88    5.83 
  -4   4  11   -5.19    5.72 
   4  -4  11    3.19    4.13 
   4   4 -11    7.24    5.24 
   4  -4 -11    8.39    4.27 
   4  -4  11    2.12    5.46 
  -4   4  11    8.89    5.20 
  -4  -4 -11    4.12    4.27 
  -4  -4  11   -2.94    3.13 
  -4  -4  11    7.80    6.04 
  -4  -4  11   -3.09    4.79 
   4   4  11   -0.85    6.33 
  -4  -4 -11    5.64    4.36 
  -4  -4 -11    5.96    4.15 
  -4   4 -11    6.84    5.46 
  -4   4 -11    0.60    3.32 
  -5   4  11   11.23    7.76 
   5   4  11   13.75    9.62 
   5   4 -11   16.02    6.42 
  -5  -4 -11   17.88    6.31 
  -5   4 -11   19.34    6.27 
   5  -4  11   17.16    8.18 
   5  -4 -11   17.31    8.81 
   5  -4 -11   22.12    5.81 
  -5  -4  11   20.87    7.78 
  -5  -4 -11   11.63    4.71 
  -5   4  11   14.91    5.51 
  -5  -4  11   40.02    9.53 
  -5   4 -11   18.58    7.60 
   5  -4  11   13.68    5.03 
  -5  -4  11   14.78    6.08 
  -6  -4  11   15.50    7.28 
  -6   4 -11    4.85    4.32 
  -6   4  11   13.94    5.49 
  -6  -4 -11   -3.19    4.34 
   6   4  11    5.02    8.23 
   6  -4 -11   10.35    7.58 
  -6  -4  11    2.88    4.97 
  -6  -4 -11    3.14    4.70 
  -6   4  11    8.37    7.29 
   6  -4  11    3.76    4.01 
  -6   4 -11    8.84    5.86 
   6  -4  11   11.66    8.25 
  -6  -4  11    7.51    4.78 
   6  -4 -11    1.42    3.88 
   6   4 -11    8.51    5.32 
  -7   4 -11   16.12    7.56 
  -7  -4  11   17.28    6.24 
   7   4  11   25.77   10.79 
  -7  -4 -11   17.50    6.86 
   7  -4  11   12.67    8.50 
  -7   4 -11   18.11    6.12 
   7   4 -11    3.82    6.00 
  -7   4  11   14.46    8.63 
   7  -4 -11    7.35    8.34 
  -7   4  11   12.23    5.43 
   7  -4 -11   20.46    6.36 
  -7  -4 -11   21.27    6.80 
  -7  -4  11   21.90    9.39 
  -7  -4  11   10.48    6.34 
   8  -4 -11    5.99    5.70 
   8  -4  11    3.54    6.36 
   8   4 -11   -2.44    4.80 
   8  -4 -11  -11.23    6.43 
  -8  -4 -11    2.14    6.18 
  -8   4 -11    1.74    5.51 
  -8  -4 -11    2.12    4.34 
  -8  -4  11    3.28    5.09 
  -8   4 -11   -3.48    5.68 
  -8   4  11   -0.23    3.95 
   8   4  11    5.88    9.18 
  -8   4  11   -0.71    6.69 
  -8  -4  11   -2.04    6.39 
  -9   4  11    0.68    6.95 
  -9   4 -11    4.00    6.70 
  -9  -4 -11    3.09    6.76 
  -9  -4 -11    4.34    5.14 
   9  -4 -11   -4.19    6.91 
   9  -4  11   14.18    9.73 
  -9   4  11    3.00    5.13 
  -9   4 -11    6.48    6.29 
   9   4  11    3.25    7.68 
   9  -4 -11    5.66    5.16 
   9   4 -11   -8.35    5.85 
  -9  -4  11    1.47    5.14 
  -9  -4  11   18.47    8.78 
   0   5 -11  112.38   12.88 
   0   5  11   92.40   13.98 
   0  -5  11  124.01   13.64 
   0   5 -11  111.72   13.44 
   0  -5 -11  117.27   11.52 
   0   5  11   95.61   13.34 
   0  -5 -11  103.46   11.98 
   0   5  11  108.71   13.90 
  -1   5  11    8.37    5.63 
  -1   5 -11    5.15    4.09 
   1   5 -11    5.13    5.14 
   1  -5  11    9.40    6.50 
  -1   5  11   -1.25    3.94 
  -1  -5 -11   10.91    5.82 
   1  -5 -11    4.83    4.00 
   1   5 -11    4.39    4.69 
   1   5  11    6.44    5.20 
   1  -5  11    4.19    4.87 
   1   5  11    3.34    6.04 
  -1  -5 -11    4.46    4.61 
  -1   5 -11    7.39    5.16 
  -1  -5  11    3.14    4.95 
   1  -5 -11   11.78    5.76 
  -2   5 -11    2.26    4.64 
   2  -5  11    3.34    4.16 
  -2  -5 -11   -0.03    3.23 
  -2  -5 -11   -0.35    3.84 
  -2   5  11    3.35    4.33 
   2   5  11    1.89    4.08 
  -2  -5  11   -0.63    4.11 
  -2   5  11    7.00    5.60 
   2   5  11   -2.71    5.84 
   2  -5  11   -3.08    4.84 
   2  -5 -11    6.35    4.66 
   2   5 -11    2.48    4.61 
  -2   5 -11    3.85    3.75 
  -2  -5 -11    0.00    3.64 
   2  -5 -11    8.02    5.84 
   3   5 -11    7.55    5.19 
   3  -5 -11   -2.32    4.20 
  -3   5 -11    2.16    4.39 
   3  -5 -11    8.75    4.31 
  -3  -5  11    0.48    4.66 
  -3   5  11    5.95    5.70 
  -3  -5 -11    9.36    4.82 
  -3  -5  11    4.57    4.16 
  -3   5 -11    3.52    4.07 
   3   5  11    9.78    4.02 
  -3  -5 -11    5.78    4.08 
  -3   5  11   -0.10    4.35 
   3  -5  11    9.20    6.44 
   3  -5  11    3.34    4.17 
   3   5  11   -2.48    6.02 
  -3  -5 -11    3.88    3.47 
   4   5 -11   69.19   11.45 
  -4   5  11   62.02   10.78 
  -4   5 -11   82.57   12.03 
  -4  -5 -11   65.58    9.75 
  -4  -5  11   94.30   12.24 
  -4  -5 -11   72.23    9.52 
  -4  -5  11   50.44   10.31 
  -4   5 -11   61.76    9.91 
   4  -5  11   82.90   10.55 
   4  -5 -11   73.21   12.19 
   4  -5  11   73.46   13.00 
  -4  -5  11   53.40   10.43 
   4   5  11   77.49   15.58 
   4  -5 -11   67.99    8.73 
  -4  -5 -11   53.23    9.20 
  -4   5  11   67.88   13.09 
   5   5 -11    8.13    5.80 
   5   5  11    3.67    7.65 
   5  -5  11   -0.32    6.22 
  -5   5  11    5.21    4.82 
   5  -5 -11   -0.64    5.73 
  -5  -5  11    4.72    5.94 
   5  -5  11    7.37    4.84 
  -5  -5  11   10.91    6.62 
  -5  -5 -11   10.13    5.50 
   5  -5 -11    6.91    4.27 
  -5   5 -11    6.66    6.01 
  -5   5  11   -4.89    4.94 
  -5  -5 -11    4.78    4.10 
  -5   5 -11    1.15    3.42 
  -5  -5  11   -1.00    4.43 
  -6  -5 -11    4.23    4.21 
  -6   5  11   -1.44    6.13 
  -6   5 -11   -2.01    3.59 
   6  -5 -11    2.61    3.69 
  -6  -5  11   -4.09    3.60 
   6   5  11    2.99    8.41 
   6  -5  11   10.14    4.42 
  -6   5 -11    3.48    5.80 
  -6   5  11   -1.28    3.63 
  -6  -5  11    0.20    5.77 
   6  -5  11   -0.18    6.14 
   6  -5 -11   -1.08    5.85 
   6   5 -11   -4.19    4.24 
  -6  -5  11    9.06    6.27 
  -6  -5 -11    7.98    5.45 
  -7  -5 -11   -1.93    3.58 
  -7  -5  11    0.66    6.24 
  -7  -5  11    6.67    5.01 
  -7   5  11   14.17    8.12 
  -7   5 -11   -4.99    3.32 
  -7   5  11    5.72    4.56 
  -7  -5 -11   -2.22    4.60 
   7   5  11    3.81    8.74 
  -7  -5  11    2.88    6.62 
   7   5 -11    6.98    6.03 
   7  -5 -11    4.45    4.41 
   7  -5 -11   -8.65    6.05 
   7  -5  11   -2.08    6.84 
  -7   5 -11    1.44    5.72 
  -8   5 -11   45.53    9.46 
  -8  -5  11   39.40    9.18 
  -8   5  11   30.04    7.92 
  -8   5 -11   27.56    9.67 
   8   5 -11   32.35    9.94 
  -8   5  11   11.06    8.29 
   8  -5 -11   18.42   11.06 
  -8  -5  11   44.96   11.69 
   8  -5  11   13.91    8.11 
  -8  -5 -11   29.16    8.19 
  -8  -5 -11   23.07    8.26 
   8   5  11   32.59   12.71 
   8  -5 -11   34.35    8.20 
   9  -5  11    3.30    7.07 
  -9  -5  11   -0.29    7.63 
  -9   5 -11    2.72    6.81 
   9   5  11    9.43    9.16 
  -9   5  11   -2.11    6.25 
  -9  -5 -11    3.64    5.96 
  -9   5 -11   10.24    5.66 
   9   5 -11    8.74    7.21 
  -9  -5  11    1.60    5.29 
  -9   5  11   -1.95    5.03 
  -9  -5 -11   -5.26    5.83 
   9  -5 -11   -2.54    7.23 
   0  -6 -11    3.05    3.65 
   0   6 -11    7.48    5.19 
   0  -6  11    3.00    4.82 
   0   6  11   -1.37    5.51 
   0  -6 -11   -0.35    4.49 
   0   6  11   16.11    6.50 
   0   6 -11    7.84    5.25 
   0   6  11   -1.52    4.63 
   1  -6  11    7.20    5.10 
   1   6  11   -3.00    5.88 
   1   6 -11   -1.25    3.90 
   1   6 -11    6.50    4.96 
  -1   6 -11    6.79    5.21 
   1  -6 -11    6.56    4.47 
  -1  -6 -11    2.41    4.37 
   1  -6 -11    8.82    5.83 
   1   6  11    7.72    5.29 
  -1   6  11    2.28    4.81 
  -1   6  11    0.71    4.76 
  -1  -6 -11    2.75    5.65 
  -1  -6  11    2.05    4.66 
  -2  -6 -11    3.55    4.57 
  -2  -6 -11   12.20    4.94 
  -2   6 -11   10.72    4.84 
   2  -6  11   17.94    6.73 
   2   6 -11   12.83    5.72 
   2  -6  11   19.68    5.82 
   2   6 -11   23.27    5.15 
  -2   6 -11   17.14    6.08 
   2   6  11   20.84    8.68 
   2   6  11   12.74    5.22 
   2  -6 -11   10.98    5.26 
  -2   6  11   -3.71    3.02 
   2  -6 -11   13.68    4.89 
  -2  -6  11   15.48    5.91 
  -2   6  11    4.92    5.70 
   3   6 -11   10.26    5.86 
  -3  -6 -11    7.80    4.45 
   3   6  11    4.97    7.77 
  -3  -6  11    8.23    6.53 
   3  -6  11    2.77    4.59 
  -3  -6 -11   13.33    5.49 
   3  -6 -11    8.78    6.42 
  -3   6 -11    8.30    5.39 
  -3   6  11    6.33    5.29 
   3  -6  11   12.99    7.90 
   3  -6 -11   12.26    4.88 
  -3   6 -11   10.61    5.17 
  -3   6  11    9.16    6.36 
  -3  -6 -11    9.88    5.37 
   4   6 -11    0.94    5.00 
  -4  -6 -11    0.81    4.25 
   4  -6 -11    1.53    3.38 
  -4   6  11   -4.61    4.96 
   4  -6 -11   13.76    6.82 
  -4  -6 -11    2.43    4.48 
  -4  -6  11    1.08    5.22 
  -4   6 -11    2.15    3.69 
  -4   6  11   -3.36    3.39 
  -4   6 -11    3.66    5.05 
  -4  -6 -11    0.25    3.43 
   4  -6  11   -1.85    3.31 
  -4  -6  11   -1.90    4.49 
   4  -6  11    1.16    6.44 
   4   6  11   13.68    8.36 
   5  -6 -11    9.88    7.38 
   5   6  11   -0.44    7.60 
   5  -6  11   -0.38    5.57 
   5  -6 -11    6.13    4.18 
  -5   6  11    5.97    7.02 
  -5  -6  11    3.80    5.87 
  -5  -6  11    1.70    5.31 
  -5  -6 -11    0.11    4.10 
  -5   6 -11    1.22    4.00 
  -5   6  11    6.96    4.73 
  -5   6 -11    6.37    5.86 
  -5  -6 -11    1.71    4.79 
  -5  -6 -11    5.92    5.17 
   5   6 -11   -2.34    4.50 
   5  -6  11   -3.86    3.48 
  -6  -6  11    1.91    4.30 
  -6   6 -11    3.86    6.02 
  -6   6 -11    2.59    4.21 
  -6   6  11   -0.04    6.48 
   6  -6 -11   11.35    7.59 
   6   6 -11    3.04    5.40 
  -6  -6 -11    5.58    4.80 
  -6   6  11    7.76    5.25 
  -6  -6 -11    5.93    5.79 
   6   6  11    5.47    9.02 
  -6  -6  11    5.18    6.57 
  -6  -6  11   15.36    6.53 
   6  -6  11    4.04    6.84 
   6  -6  11    6.75    4.40 
  -7  -6  11    9.50    6.78 
   7  -6  11    1.29    6.78 
   7   6 -11    4.67    5.96 
   7   6  11    2.03    8.49 
   7  -6 -11    4.21    7.80 
  -7   6 -11    1.98    5.92 
  -7  -6  11   10.51    5.64 
  -7   6  11   10.88    7.35 
  -7   6 -11    6.33    5.40 
  -7  -6 -11    6.62    5.71 
  -7  -6 -11   14.02    6.19 
  -7   6  11    2.97    4.62 
   8  -6  11    3.50    7.07 
   8   6 -11   -0.01    5.30 
   8   6  11    9.18    9.42 
  -8  -6  11   -2.70    3.93 
  -8   6 -11   -0.04    4.40 
  -8   6 -11   11.20    7.20 
  -8   6  11    9.18    5.65 
   8  -6 -11    1.08    7.03 
  -8  -6 -11   -1.79    5.55 
  -8  -6 -11   -0.50    4.83 
  -8   6  11    0.70    7.08 
  -8  -6  11   -0.87    6.14 
  -9   6  11    2.29    4.84 
  -9   6  11    0.25    6.95 
   9  -6  11    8.68    8.15 
   9   6  11   -9.80    7.42 
   9   6 -11    1.21    6.58 
   9  -6 -11    0.13    8.14 
  -9  -6 -11   -0.70    4.95 
  -9   6 -11    4.19    4.89 
  -9   6 -11   -3.21    6.02 
  -9  -6 -11    5.43    7.27 
  -9  -6  11    6.47    5.89 
  -9  -6  11    3.19    7.34 
   0  -7 -11  113.19    9.82 
   0   7  11  138.03   16.91 
   0   7 -11  134.39   12.32 
   0  -7 -11  146.51   14.84 
   0   7 -11  140.17   15.27 
   0   7  11  107.16   13.90 
   0   7  11  133.07   15.58 
   0  -7  11  123.74   14.44 
   1  -7  11   -3.20    4.21 
   1   7  11    1.37    3.94 
   1   7 -11    5.11    5.39 
   1   7  11   -2.19    6.12 
   1  -7 -11   -0.68    3.33 
  -1   7  11    6.51    4.71 
  -1   7 -11    0.25    5.85 
  -1  -7 -11   -1.17    4.65 
  -1   7 -11   -0.40    4.61 
   1   7 -11    4.28    5.38 
   1  -7 -11    1.26    4.29 
  -1  -7 -11   -6.10    3.52 
  -1  -7  11    2.79    4.62 
  -1   7  11    5.19    5.03 
  -2   7  11   -5.37    3.44 
   2  -7  11    0.15    4.42 
  -2   7  11    1.27    5.65 
   2  -7 -11    3.14    3.68 
   2   7  11   11.77    4.94 
  -2   7 -11    5.83    5.35 
  -2  -7 -11    3.35    4.15 
   2  -7 -11    6.15    5.44 
  -2  -7  11   14.03    6.47 
   2   7  11    1.98    7.08 
  -2  -7 -11   -4.26    3.96 
   2   7 -11    0.78    4.81 
   2   7 -11    0.19    4.07 
  -3  -7 -11    1.30    4.56 
   3   7 -11   -3.63    4.31 
   3  -7  11    1.17    4.35 
  -3   7  11   -7.67    3.18 
  -3   7 -11   -3.08    3.47 
  -3  -7  11   -1.59    4.86 
   3  -7  11   -1.39    5.16 
  -3   7 -11   -3.83    3.81 
   3   7  11   -2.38    5.96 
  -3   7  11   -2.81    5.24 
  -3  -7 -11    2.80    4.04 
   3  -7 -11   -3.54    5.23 
   4   7 -11  108.09   13.97 
   4  -7 -11  113.40   14.48 
   4  -7  11   94.05   15.09 
   4   7  11   85.60   17.10 
   4  -7  11  116.79   13.09 
  -4   7  11   86.93   15.25 
  -4  -7 -11  103.09   12.36 
  -4  -7 -11   94.21   11.63 
  -4   7 -11  119.99   14.61 
  -4  -7  11   97.88   13.68 
  -4   7  11  101.34   13.93 
  -4   7 -11  103.07   12.53 
  -5   7 -11    1.04    3.85 
  -5  -7  11   -2.38    5.15 
   5  -7  11   -2.35    6.61 
  -5  -7 -11  -11.59    3.34 
   5   7  11   -1.34    6.79 
  -5   7 -11   -2.09    5.51 
   5   7 -11    2.99    5.74 
  -5  -7 -11    0.93    3.96 
   5  -7  11   -1.20    4.14 
  -5   7  11   -1.00    4.08 
  -5  -7 -11    1.22    5.13 
   5  -7 -11   -1.30    5.81 
  -5  -7  11    2.56    5.04 
  -5   7  11    2.75    6.85 
  -6  -7  11    1.34    6.01 
  -6  -7 -11    7.17    5.38 
  -6  -7  11   -7.12    4.93 
   6  -7  11    4.77    7.31 
  -6   7  11    1.10    4.46 
   6  -7 -11   10.66    7.88 
   6   7  11    7.80    9.22 
   6  -7  11    4.00    4.25 
  -6  -7 -11   -3.03    3.77 
  -6   7 -11    1.86    4.32 
  -6   7 -11    6.02    5.97 
  -6   7  11    1.13    6.80 
  -6  -7 -11    1.11    5.10 
   6   7 -11   -0.33    5.27 
  -7  -7 -11    9.68    5.19 
  -7   7  11    3.65    7.24 
   7   7 -11   -2.00    5.57 
   7  -7 -11   -0.23    7.90 
  -7   7  11    5.74    4.66 
   7  -7  11    3.50    4.34 
  -7  -7 -11    3.50    5.46 
  -7  -7  11    5.79    6.65 
   7  -7  11   -0.54    7.69 
  -7   7 -11    4.23    5.10 
  -7   7 -11    2.30    6.69 
   7   7  11   19.53   10.43 
   8  -7 -11   53.42   14.13 
  -8   7  11   34.46   11.44 
   8   7  11   60.24   16.93 
  -8   7  11   49.73   10.21 
   8  -7  11   46.46   13.13 
  -8  -7 -11   48.15   10.91 
  -8  -7  11   40.55   11.97 
   8   7 -11   42.95   10.87 
  -8  -7 -11   50.23   10.41 
  -8   7 -11   46.84    9.53 
  -8   7 -11   61.79   12.84 
   0   8 -11    3.57    4.85 
   0   8  11    7.08    7.08 
   0  -8 -11    2.49    5.02 
   0   8  11    2.27    5.07 
   0   8  11    3.87    5.39 
   0  -8  11    7.43    5.26 
   0   8 -11    4.61    4.72 
   1   8  11   49.00    9.51 
  -1  -8 -11   44.93   10.50 
   1  -8 -11   59.03   10.93 
  -1  -8  11   50.20   10.87 
  -1   8 -11   68.34   12.39 
  -1   8 -11   52.81   10.37 
   1   8 -11   43.51    9.50 
  -1   8  11   63.93   11.74 
   1   8  11   63.70   13.06 
  -1   8  11   38.77    9.76 
   1   8 -11   52.65   11.08 
   1  -8  11   41.43    9.13 
   2   8 -11   26.50    7.28 
   2   8  11   -5.46    5.90 
  -2  -8  11   24.92    7.28 
  -2  -8 -11   22.57    5.32 
  -2   8  11    3.43    4.58 
   2  -8 -11   12.57    5.96 
   2   8 -11   18.40    6.24 
  -2   8 -11   19.97    6.42 
  -2   8 -11   21.09    7.32 
  -2   8  11    8.59    7.39 
   2  -8  11   27.93    6.87 
  -2  -8 -11   10.58    6.07 
   2   8  11   11.78    5.55 
   3  -8  11   33.67    8.24 
   3  -8 -11   47.51   11.03 
   3   8  11   29.87   11.24 
  -3  -8 -11   38.46    9.54 
  -3   8  11   29.87    9.51 
  -3  -8 -11   33.51    7.37 
  -3   8  11   45.11    9.61 
   3   8 -11   36.36    9.08 
  -3  -8  11   40.44    9.46 
  -3   8 -11   40.99    9.68 
  -4   8  11   11.68    7.25 
   4  -8  11   -1.14    4.44 
  -4  -8 -11    4.77    4.95 
   4   8  11    4.28    8.05 
  -4  -8 -11    1.80    5.40 
  -4  -8  11    9.63    5.79 
   4  -8 -11    4.62    6.36 
  -4   8 -11    4.53    4.34 
   4   8 -11    3.96    5.34 
  -4   8 -11    4.32    5.93 
   4  -8  11   15.27    8.37 
  -4   8  11   -2.57    3.93 
  -5  -8 -11   30.49    9.04 
  -5  -8  11   30.22    8.61 
  -5   8 -11   36.76    8.09 
   5  -8  11   18.77    9.46 
   5   8 -11   27.49    8.53 
   5  -8  11   26.28    7.16 
  -5   8  11   30.68   10.50 
  -5   8  11   21.12    7.40 
   5   8  11   31.91   12.63 
   5  -8 -11   39.46   11.18 
  -5  -8 -11   34.44    7.91 
  -5   8 -11   23.70    8.45 
  -6  -8  11   19.50    7.58 
  -6   8 -11    2.99    3.95 
  -6   8  11   11.99    8.66 
  -6   8 -11   14.85    7.33 
   6   8 -11   20.40    7.30 
  -6  -8  11   13.47    7.02 
  -6   8  11    9.10    5.42 
  -6  -8 -11    4.91    6.12 
   6  -8  11   14.35    8.89 
   6  -8 -11   13.16    7.38 
  -6  -8 -11   15.87    6.35 
   6  -8  11    9.83    5.43 
   6   8  11   10.06    9.61 
   7  -8 -11   16.16    9.38 
  -7   8 -11   10.17    5.53 
   7  -8  11    9.23    8.90 
   7   8 -11    8.10    7.60 
  -7   8 -11   14.26    8.58 
  -7  -8  11   20.07    8.81 
  -7  -8 -11   25.09    8.30 
   7   8  11   23.59   12.02 
  -7   8  11   21.27    9.79 
  -7   8  11   15.67    7.39 
   7  -8  11   19.45    6.36 
  -8  -8  11   -3.72    6.45 
  -8  -8 -11   10.63    5.93 
  -8   8  11    2.95    4.76 
   8   8  11   -3.30    8.30 
   8  -8 -11   -3.80    6.76 
  -8   8 -11   11.57    5.45 
  -8   8 -11    4.29    7.65 
   8   8 -11   -0.88    5.82 
  -8  -8 -11   10.80    6.90 
  -8   8  11    8.84    7.61 
   8  -8  11   12.79    8.66 
   0   9 -11   52.18   10.23 
   0   9  11   29.72    9.73 
   0   9 -11   42.29   10.48 
   0   9  11   40.00    9.68 
   0  -9  11   51.21   10.08 
   0  -9 -11   35.47   10.30 
   0   9  11   42.63    9.68 
   1  -9 -11    8.27    5.89 
   1  -9  11    7.48    5.59 
   1   9  11    4.18    6.54 
   1   9 -11    2.44    5.06 
  -1   9 -11    5.38    5.64 
  -1  -9  11    8.75    5.88 
   1   9 -11    4.64    5.19 
   1   9  11    3.08    5.71 
  -1   9 -11   15.83    7.45 
  -1   9  11    3.29    4.58 
  -1  -9 -11    8.59    6.19 
  -1   9  11    2.99    6.06 
  -2  -9 -11    9.11    6.24 
   2   9  11    4.41    6.95 
  -2   9 -11    4.32    5.33 
   2  -9 -11   14.05    6.72 
  -2  -9  11   22.78    7.54 
   2  -9  11   18.34    6.61 
   2   9 -11   13.53    6.63 
  -2   9 -11   26.51    8.76 
  -2   9  11   12.27    6.89 
  -2   9  11    2.90    4.87 
   2   9 -11    3.28    6.39 
  -3  -9 -11    2.68    5.53 
  -3   9  11    1.16    6.03 
   3   9  11   21.85   10.12 
   3  -9  11   15.66    6.68 
   3   9 -11    5.33    5.66 
  -3  -9  11    6.52    5.79 
   3  -9 -11    7.18    6.70 
  -3   9  11    5.01    5.30 
  -3   9 -11    7.81    6.02 
  -3   9 -11   15.61    7.83 
   4   9 -11   29.15    8.56 
   4  -9  11   21.02    7.07 
  -4  -9 -11   28.65    8.59 
   4   9  11   30.67   11.61 
   4  -9 -11   39.57   11.56 
  -4   9  11   19.90    7.29 
  -4  -9  11   23.87    8.08 
  -4   9 -11   34.77   11.36 
  -4   9 -11   39.61    9.61 
  -4   9  11   22.05    8.19 
  -5  -9 -11  -10.37    4.24 
   5   9 -11    7.98    6.73 
   5  -9 -11   10.01    7.92 
   5   9  11   -4.50    8.42 
  -5   9  11    1.60    4.86 
   5  -9  11    2.90    5.28 
  -5  -9  11   -5.40    4.97 
  -5   9  11    1.26    5.60 
  -5   9 -11    1.29    5.99 
   6  -9  11   13.59    5.95 
   6  -9 -11   12.25    8.74 
  -6   9 -11   20.86    8.18 
  -6  -9 -11    9.24    6.45 
   6   9 -11    9.91    7.24 
  -6   9  11    0.19    6.97 
   6   9  11    1.00    8.99 
  -6   9 -11    2.90    4.39 
  -6   9  11    8.44    5.97 
   6  -9  11    3.55    8.26 
   7  -9  11   -4.06    7.14 
   7   9  11   11.30    9.97 
  -7   9  11   -7.09    4.32 
   7  -9 -11    1.85    8.31 
   7  -9  11    8.80    5.09 
  -7  -9 -11   12.16    7.01 
  -7   9  11    8.46    8.29 
  -7   9 -11    1.63    4.89 
   7   9 -11   -1.69    6.27 
   0  10  11   -2.15    6.33 
   0  10  11    4.68    6.69 
   0  10  11    9.18    6.66 
   0  10 -11   24.61    8.09 
   0 -10 -11   18.69    7.40 
   0  10 -11   16.97    7.05 
   0 -10  11   23.01    6.76 
   1 -10 -11    1.04    6.57 
   1  10 -11    9.32    6.21 
  -1 -10  11   10.62    6.04 
  -1  10  11    4.61    5.20 
  -1  10 -11   -1.41    4.67 
   1 -10  11    7.16    5.53 
  -1  10 -11   11.00    7.38 
   1  10  11    6.70    5.77 
   1  10  11    9.46    8.16 
   1  10 -11    8.54    6.90 
  -1  10  11    2.74    5.72 
  -1 -10 -11    5.46    6.54 
  -2  10 -11   24.34    6.82 
  -2 -10  11   16.67    6.69 
   2 -10 -11   24.67    8.02 
  -2  10 -11   20.85    7.04 
   2 -10  11   14.84    6.37 
  -2  10  11   -9.29    5.09 
   2  10 -11   24.08    7.49 
  -2 -10 -11    5.59    5.38 
   2  10  11   16.48    8.86 
  -2  10  11    4.48    5.16 
   2  10 -11   18.48    6.84 
  -3  10  11    9.65    6.17 
   3  10  11    7.56    8.47 
  -3 -10  11   11.22    6.75 
   3 -10  11    8.75    5.81 
  -3 -10 -11    3.29    6.21 
  -3  10  11   11.11    5.92 
   3 -10 -11    7.09    6.61 
   3  10 -11    3.31    5.57 
  -3  10 -11   -4.27    5.40 
  -3  10 -11    8.22    7.47 
  -4  10  11   15.08    6.15 
  -4  10  11   13.39    7.69 
   4  10 -11   13.76    6.61 
   4 -10 -11   13.82    7.88 
  -4  10 -11   13.44    7.77 
   4 -10  11   14.60    5.99 
  -4 -10  11   14.73    6.82 
  -4  10 -11   13.46    6.74 
   4  10  11   17.76   10.03 
  -4 -10 -11   -0.79    5.47 
  -5  10  11    0.85    4.87 
   5 -10 -11   -0.11    5.83 
  -5  10 -11   -8.84    5.62 
  -5  10  11   -4.57    5.43 
  -5 -10  11    3.26    6.40 
   5  10 -11   -3.51    5.52 
   5 -10  11   -4.91    4.40 
   5  10  11    5.76    8.32 
  -5 -10 -11    8.75    7.26 
  -6 -10 -11   15.75    8.06 
  -6  10 -11    1.19    8.01 
   6  10 -11   12.38    7.15 
  -6  10  11    3.98    4.75 
   6  10  11    7.18    9.41 
  -6  10  11   13.93    8.67 
   6 -10  11    5.54    5.46 
   6 -10 -11    6.17    7.86 
   7  10  11   15.03   10.98 
  -7 -10 -11    0.77    6.01 
  -7  10  11    5.38    5.53 
   7 -10  11    6.49    5.64 
   7 -10 -11   -9.88    5.67 
  -7  10 -11   -7.05    8.08 
  -7  10  11   -2.06    6.50 
   7  10 -11   -4.05    5.80 
   0  11 -11   46.70   10.02 
   0  11  11   50.10   11.00 
   0  11 -11   71.16   14.28 
   0  11  11   44.31   11.46 
   0 -11  11   65.62   11.74 
   0 -11 -11   55.89   12.46 
  -1  11 -11    2.73    7.02 
  -1  11  11   -2.29    4.83 
  -1 -11  11   -8.84    3.77 
   1  11  11    5.88    7.77 
   1  11 -11    0.20    6.04 
   1  11  11   -6.12    5.08 
   1 -11 -11    1.91    6.71 
  -1 -11 -11   -5.87    6.15 
   1 -11  11    3.00    5.34 
  -1  11  11    5.00    5.77 
   1  11 -11   -7.85    4.57 
  -2  11  11    8.85    6.21 
  -2 -11  11   13.15    6.80 
   2 -11  11   18.01    6.76 
   2  11 -11    7.10    5.90 
  -2  11 -11   20.48    8.79 
   2 -11 -11   12.84    7.98 
   2  11  11   11.75    8.39 
  -2 -11 -11    8.73    7.23 
   2  11 -11   16.84    7.95 
  -2  11  11   15.44    7.48 
  -3  11 -11    9.52    8.60 
   3 -11  11   -7.56    4.08 
   3  11 -11    5.10    5.58 
   3 -11 -11    3.36    6.21 
  -3  11  11   13.22    6.57 
  -3  11  11   -3.22    4.27 
  -3 -11  11    3.84    5.96 
   3  11  11   -7.35    6.82 
  -3 -11 -11   -4.40    5.62 
  -4  11  11   45.91   11.59 
   4 -11 -11   42.47   12.50 
  -4 -11  11   48.55   10.76 
  -4 -11 -11   47.73   12.00 
   4 -11  11   45.60    9.83 
  -4  11  11   26.37    8.32 
  -4  11 -11   49.58   13.07 
   4  11  11   31.50   11.11 
   4  11 -11   44.94   10.02 
   5 -11 -11   -2.03    6.28 
  -5  11  11   -2.81    3.61 
  -5  11  11   10.08    6.76 
  -5 -11 -11   -2.01    6.13 
   5  11  11    1.83    7.54 
   5  11 -11    8.57    5.95 
  -5  11 -11    9.58    8.67 
  -5 -11  11   10.30    6.08 
   5 -11  11    0.22    5.04 
  -6  11  11    2.41    7.69 
  -6  11 -11   24.62   10.63 
   6 -11 -11   17.18   10.12 
  -6  11  11   10.76    6.15 
   6  11  11   11.62   10.48 
  -6 -11 -11    0.20    7.39 
   6  11 -11   19.06    7.92 
   6 -11  11   12.55    6.84 
   0  12 -11   24.29    9.15 
   0 -12 -11   -5.60    5.75 
   0  12  11    8.15    6.77 
   0  12  11   14.25    8.40 
   0 -12  11    8.13    5.69 
   1 -12 -11   13.84    7.09 
   1  12  11    7.05    8.38 
   1 -12  11    9.02    6.27 
  -1  12  11    9.70    6.76 
  -1 -12  11    6.94    6.88 
  -1 -12 -11    4.25    6.88 
   1  12 -11    8.50    8.01 
  -1  12  11    5.68    6.03 
  -1  12 -11   14.95    8.57 
   2  12  11    7.67    8.46 
  -2 -12  11   21.62    7.59 
  -2  12  11   18.71    8.24 
   2 -12 -11   20.69    8.48 
   2  12 -11   21.68    8.43 
   2 -12  11   26.97    8.32 
  -2  12 -11   11.12    7.38 
  -2  12  11    5.23    6.01 
  -2 -12 -11    4.83    7.45 
  -3  12  11    2.69    5.08 
  -3  12  11   -2.45    5.60 
   3  12  11   12.18    8.91 
   3 -12 -11   13.40    8.37 
   3 -12  11   10.05    7.40 
  -3  12 -11    4.37    8.04 
  -3 -12 -11    4.19    7.87 
  -3 -12  11   15.81    7.19 
   4  12  11   20.79   10.50 
  -4  12  11    6.83    5.53 
  -4 -12  11   13.99    6.73 
   4 -12 -11    9.96    8.16 
  -4  12  11    2.28    6.98 
   4 -12  11    3.33    6.18 
  -4 -12 -11    3.83    8.10 
  -4  12 -11   16.50    9.52 
  -5  12  11   13.62    7.96 
   5  12  11   -4.42    8.57 
   5 -12  11   -7.53    4.84 
  -5 -12 -11    5.46    7.87 
  -5  12  11    0.93    5.72 
   5 -12 -11    9.46    8.37 
  -5  12 -11   -4.33    7.94 
   0 -13  11   50.70   10.89 
   0 -13 -11   43.12   12.99 
   0  13 -11   54.57   13.97 
   0  13  11   30.45    9.35 
   1 -13  11    4.20    5.27 
  -1 -13 -11   13.47    9.42 
  -1  13  11   -1.30    5.87 
  -1 -13  11    9.23    7.13 
   1  13 -11   -0.44    7.70 
   1  13  11    8.04    8.34 
  -1  13  11    0.57    5.47 
  -1  13 -11   11.55    8.84 
   1 -13 -11    2.82    7.34 
   2  13  11   28.72   11.54 
  -2  13  11   31.37   10.26 
  -2  13 -11   52.19   12.72 
  -2 -13 -11   35.71   11.27 
   2 -13  11   39.39   10.28 
  -2  13  11   40.68   11.06 
   2  13 -11   21.05    9.41 
  -2 -13  11   40.13   10.14 
   2 -13 -11   38.37   11.40 
  -3  13 -11    2.43    7.35 
   3 -13  11   10.46    6.84 
  -3  13  11   -2.14    5.01 
  -3 -13 -11    1.87    7.06 
   3 -13 -11   -4.47    6.35 
  -3 -13  11   -4.86    6.05 
   3  13  11   -4.42    7.99 
  -3  13  11    9.64    7.10 
  -4  13 -11   40.11   12.99 
  -4 -13 -11   28.33   10.88 
   4  13  11   47.34   13.99 
   4 -13 -11   27.42   11.41 
   4 -13  11   38.73   10.10 
  -4  13  11   35.27    9.74 
  -4  13  11   22.59   10.23 
  -4 -13  11   12.75    7.72 
   0  14 -11   32.18   11.49 
   0 -14 -11   30.84   11.22 
   0 -14  11   35.14    9.21 
   1  14  11   -0.36    7.39 
   1  14 -11    5.84    8.64 
  -1 -14 -11   -3.24    7.35 
  -1 -14  11    0.36    5.64 
   1 -14  11    1.41    5.26 
  -1  14 -11   -6.00    7.87 
   1 -14 -11    0.63    7.78 
  -1  14  11    1.02    5.98 
   2  14 -11    5.77    8.18 
   2 -14 -11   20.37    8.85 
  -2  14 -11   18.31   10.87 
  -2 -14 -11   25.60   10.52 
  -2  14  11   18.91    8.53 
   2  14  11    0.72    8.87 
  -2  14  11   11.13    7.52 
   2 -14  11   19.36    7.84 
  -2 -14  11   31.35    9.12 
   3 -14 -11    2.22    8.01 
  -3 -14  11   -1.71    6.39 
  -3 -14 -11   -4.58    7.06 
   3 -14  11   -2.57    6.05 
  -3  14 -11   -2.37    7.69 
  -3  14  11   -0.76    5.88 
   3  14  11   13.54    9.49 
  -3  14  11   -7.72    5.41 
   0   0 -12  894.38   34.85 
   0   0 -12  888.26   34.17 
   0   0  12  861.33   31.26 
   0   0  12  851.38   33.57 
   1   0  12    7.71    4.95 
   1   0  12    5.18    4.76 
  -1   0 -12   -1.17    4.00 
  -1   0 -12    4.63    4.21 
  -1   0  12    2.54    3.41 
  -1   0  12    6.71    5.17 
   1   0 -12    4.74    5.55 
   1   0 -12   -1.10    3.93 
   2   0 -12  161.59   15.54 
   2   0  12  153.43   12.16 
  -2   0  12  145.46   15.19 
   2   0  12  145.37   12.90 
   2   0 -12  162.25   12.71 
  -2   0 -12  130.84   11.64 
  -2   0 -12  149.12   12.37 
  -2   0  12  166.94   13.60 
   3   0  12    7.94    4.80 
  -3   0  12    3.92    4.58 
   3   0 -12   -3.26    5.45 
  -3   0  12    6.28    5.92 
   3   0  12    5.30    5.55 
  -3   0 -12    0.51    4.18 
  -3   0 -12    2.99    3.40 
   3   0 -12    7.81    4.90 
  -4   0 -12  755.91   31.65 
   4   0 -12  779.14   32.35 
   4   0  12  767.32   34.89 
   4   0  12  713.87   27.86 
   4   0 -12  772.62   33.64 
  -4   0 -12  784.70   32.50 
  -4   0  12  782.31   34.46 
  -4   0  12  784.56   33.15 
  -5   0  12   -1.37    3.68 
   5   0 -12    2.19    4.37 
   5   0 -12   14.95    9.29 
  -5   0 -12    4.03    5.00 
  -5   0 -12    6.03    4.49 
   5   0  12    2.03    6.20 
  -5   0  12    1.65    4.86 
   6   0  12  227.12   22.04 
  -6   0 -12  196.04   15.44 
  -6   0  12  205.63   15.91 
   6   0 -12  202.65   17.93 
   6   0 -12  173.51   16.16 
  -6   0 -12  191.21   15.04 
  -6   0  12  211.83   19.86 
   7   0 -12    6.58    5.04 
  -7   0 -12    2.94    5.19 
  -7   0 -12   -2.50    4.09 
  -7   0  12    5.50    6.64 
  -7   0  12    6.61    4.79 
   7   0  12    3.37    8.56 
  -8   0  12  550.82   30.68 
   8   0 -12  501.77   26.65 
  -8   0 -12  492.42   27.03 
  -8   0  12  537.38   28.42 
   8   0  12  524.90   32.51 
  -8   0 -12  443.58   25.24 
  -8   0  12  528.69   27.61 
   9   0 -12   -8.48    4.83 
  -9   0 -12    2.37    5.86 
   9   0  12    1.13    7.43 
  -9   0  12   10.05    8.58 
  -9   0  12   -2.20    5.33 
  -9   0 -12   -3.92    4.64 
   1  -1 -12   23.61    7.15 
   1   1 -12   21.60    6.54 
   1  -1  12   22.07    7.23 
   1  -1 -12   14.99    5.97 
  -1  -1 -12   18.56    6.08 
  -1   1 -12   16.31    6.52 
  -1   1  12   13.79    5.62 
   1  -1  12   17.68    6.29 
  -1   1  12    8.60    4.81 
  -1  -1 -12   17.03    6.05 
   1   1  12   26.41    7.14 
  -1   1 -12   18.40    6.54 
   1   1  12    5.63    4.81 
  -1  -1  12   16.32    6.47 
  -2   1  12   18.00    6.59 
  -2   1  12    8.30    4.31 
  -2  -1  12   13.11    5.33 
   2  -1  12   38.40    8.19 
   2   1 -12   23.44    6.00 
   2   1  12   32.67    6.47 
  -2   1 -12   16.30    5.26 
   2   1  12   15.08    6.48 
   2   1 -12   55.86    8.34 
   2  -1 -12   17.15    5.53 
   2  -1  12   29.83    6.22 
  -2   1 -12   13.62    5.60 
   2  -1 -12   27.73    6.38 
  -2  -1  12   13.87    6.16 
  -2  -1 -12   -2.18    2.85 
  -2  -1 -12    6.47    4.07 
   3   1  12   40.42    7.69 
  -3  -1  12   44.45    9.92 
   3   1 -12   44.53    9.22 
   3   1  12   59.33   11.66 
  -3   1 -12   30.62    7.56 
   3  -1  12   41.28    8.51 
  -3  -1 -12   43.93    8.37 
   3  -1  12   55.30   11.05 
  -3  -1  12   48.84    9.68 
   3   1 -12   62.49   11.71 
  -3  -1 -12   27.65    7.25 
  -3   1  12   48.18   10.97 
   3  -1 -12   53.51   11.15 
   3  -1 -12   41.61    8.66 
  -3   1 -12   43.77    9.14 
  -3   1  12   47.54    8.81 
  -4   1 -12   18.54    5.71 
  -4  -1 -12   16.55    5.58 
  -4  -1 -12   21.81    6.58 
   4   1 -12   48.32    7.74 
   4   1  12   52.13   10.43 
   4  -1 -12   50.74    7.90 
  -4  -1  12   43.34    8.65 
  -4   1  12   41.97    9.72 
   4  -1  12   58.02   10.21 
  -4   1 -12   27.84    7.38 
   5   1 -12    4.85    7.74 
  -5  -1 -12    7.79    5.09 
  -5   1 -12    5.05    4.73 
   5   1  12    6.21    7.40 
  -5  -1 -12   12.77    6.09 
   5   1 -12    4.57    4.44 
  -5   1  12    2.84    4.76 
   5  -1  12   -3.13    5.84 
  -5   1 -12    1.22    3.95 
   5  -1 -12    7.68    4.96 
  -5  -1  12    2.92    4.42 
  -5   1  12    1.42    6.01 
  -5  -1  12    4.80    5.26 
   5  -1 -12    9.33    8.16 
   5  -1  12    2.81    4.09 
   6  -1  12   16.02    7.97 
   6  -1 -12   18.46    6.08 
  -6  -1 -12    5.26    5.35 
   6   1 -12   10.87    5.39 
   6  -1 -12   20.04    8.11 
  -6  -1 -12    1.83    4.60 
  -6   1 -12    7.95    5.32 
  -6  -1  12    2.63    5.15 
  -6  -1  12    6.06    6.08 
  -6   1  12   12.76    7.35 
   6   1  12   15.27    8.67 
  -6  -1  12    9.14    5.58 
  -6   1 -12    4.27    4.71 
  -6   1  12    5.32    4.65 
   7  -1  12   18.07    9.45 
  -7   1 -12   17.60    6.82 
  -7  -1 -12   10.22    6.66 
  -7  -1 -12   11.32    6.02 
  -7   1  12   22.55    7.38 
  -7  -1  12   18.00    7.55 
   7   1  12   16.07    9.63 
  -7   1 -12   18.74    7.74 
   7   1 -12   23.72    7.87 
  -7  -1  12   18.90    9.26 
   7  -1 -12   20.29    9.96 
   7  -1 -12    8.16    5.28 
  -7   1  12    4.13    7.33 
  -7  -1  12   17.03    6.91 
  -8  -1  12   11.68    7.74 
  -8  -1 -12   20.64    8.72 
  -8  -1 -12    7.22    5.50 
   8  -1  12   31.28   10.24 
   8   1  12   19.24    9.75 
  -8  -1  12    9.32    5.85 
  -8  -1  12   22.94    7.14 
  -8   1  12   18.80    6.41 
  -8   1 -12    8.99    5.39 
  -8   1 -12   25.28    8.22 
   8   1 -12   32.17    8.44 
  -8   1  12   15.31    7.32 
   8  -1 -12   33.82    7.55 
  -9   1 -12   10.17    6.63 
   9   1  12   13.01    9.91 
   9   1 -12   17.43    7.85 
   9  -1 -12    8.06    6.61 
  -9   1  12  -14.39    6.69 
   9  -1  12   10.36    9.24 
  -9   1  12   11.99    7.80 
  -9   1 -12   16.31    6.70 
  -9  -1  12    7.59    8.28 
  -9  -1  12    8.81    6.03 
  -9  -1 -12    5.13    5.02 
  -9  -1 -12    3.79    7.40 
  -9   1  12   16.30    6.93 
   0   2  12 1015.65   36.46 
   0   2 -12 1118.85   40.31 
   0  -2  12 1130.50   40.08 
   0   2  12 1020.34   38.59 
   0  -2 -12  989.27   35.43 
   0   2 -12 1071.48   39.88 
   0  -2  12 1091.15   37.28 
   0  -2 -12 1064.44   38.27 
   1   2  12   -3.12    4.53 
   1  -2  12    4.62    4.62 
  -1  -2  12    1.14    4.12 
   1  -2 -12    0.24    3.79 
   1   2  12    7.28    4.73 
  -1   2  12   -4.59    2.76 
  -1   2  12    0.04    4.73 
  -1   2 -12    2.56    4.43 
  -1  -2 -12    4.05    4.29 
  -1  -2 -12   -0.46    3.36 
   1  -2  12    7.09    4.88 
  -1   2 -12    0.04    4.29 
   1  -2 -12   -5.54    3.32 
   1   2 -12    3.71    4.05 
   1   2 -12    0.28    4.26 
  -2   2 -12  246.38   16.20 
  -2   2  12  253.99   17.18 
  -2  -2  12  275.90   17.67 
  -2  -2  12  270.03   17.52 
  -2   2 -12  224.19   15.94 
   2   2  12  242.19   17.33 
  -2  -2 -12  246.57   16.34 
  -2  -2 -12  231.69   15.66 
   2   2 -12  240.17   17.01 
   2  -2  12  212.97   15.24 
   2  -2 -12  247.23   15.79 
   2   2  12  234.54   14.04 
   2  -2 -12  235.03   15.88 
   2  -2  12  252.55   16.16 
  -2   2  12  239.10   18.11 
  -3  -2 -12   -0.07    3.20 
  -3   2  12   -7.69    3.89 
   3  -2  12    1.86    3.87 
  -3  -2  12    4.64    4.30 
  -3   2  12   -4.84    3.12 
  -3   2 -12   -0.13    3.10 
   3   2  12   -8.78    4.36 
   3   2  12    2.21    4.05 
  -3  -2 -12    1.52    4.13 
   3  -2  12    0.12    5.01 
   3  -2 -12   -3.35    3.29 
  -3  -2  12    0.74    4.86 
  -3   2 -12   -1.04    3.81 
   3  -2 -12    5.13    5.76 
   3   2 -12   -0.38    3.55 
  -4   2  12  710.11   31.08 
  -4  -2  12  749.18   30.62 
   4   2 -12  662.03   30.53 
  -4  -2  12  700.00   31.44 
  -4  -2 -12  743.16   30.96 
   4   2  12  698.68   34.44 
  -4  -2  12  713.96   31.92 
  -4   2 -12  648.71   29.07 
   4   2  12  677.78   25.78 
  -4   2 -12  651.32   29.92 
   4  -2 -12  720.63   32.11 
   4  -2  12  721.99   33.04 
  -4   2  12  701.17   34.26 
  -4  -2 -12  721.79   29.64 
   4  -2 -12  689.46   29.13 
   4  -2  12  695.66   27.50 
   5  -2 -12   -0.09    3.81 
   5  -2  12   -0.72    3.64 
  -5   2  12    2.08    3.97 
   5  -2  12    0.37    6.49 
  -5  -2 -12   -3.10    3.69 
  -5   2  12   -0.14    5.30 
  -5   2 -12    1.60    5.32 
  -5  -2  12   -6.43    4.52 
   5  -2 -12   -0.08    6.04 
   5   2 -12   -4.02    3.28 
  -5  -2  12    1.62    5.46 
  -5   2 -12    4.39    4.18 
   5   2  12   -4.26    6.76 
  -5  -2  12    2.67    4.03 
  -5  -2 -12   -0.30    4.03 
  -6  -2  12  181.89   17.83 
  -6   2  12  167.38   16.18 
  -6  -2 -12  130.43   14.20 
   6  -2 -12  173.98   20.43 
  -6   2 -12  146.67   15.56 
  -6  -2  12  180.70   17.15 
   6  -2  12  216.10   21.71 
   6   2 -12  175.47   16.73 
  -6   2  12  157.68   19.26 
   6  -2 -12  157.73   14.82 
  -6  -2  12  207.88   19.15 
  -6   2 -12  136.21   14.94 
   6   2  12  164.46   20.52 
  -6  -2 -12  175.91   16.36 
  -7  -2 -12   -1.55    3.78 
   7  -2 -12   -8.31    6.50 
  -7  -2  12  -11.45    4.78 
   7  -2  12    4.06    8.16 
  -7   2  12   -6.68    3.53 
  -7   2 -12   -1.59    5.35 
  -7  -2  12   -3.41    4.29 
   7   2 -12    5.03    5.05 
   7   2  12   -2.78    7.28 
  -7  -2 -12    1.77    5.22 
  -7  -2  12    2.85    5.96 
  -7   2 -12    6.70    5.03 
   7  -2 -12    2.26    4.69 
  -7   2  12    1.97    6.38 
  -8   2  12  316.93   22.60 
   8  -2  12  372.42   26.03 
  -8   2 -12  338.33   20.99 
  -8  -2 -12  357.01   22.38 
  -8  -2  12  351.15   21.83 
  -8   2  12  333.46   21.10 
   8  -2 -12  316.33   19.87 
  -8  -2  12  377.22   24.12 
   8   2  12  314.33   25.19 
  -8   2 -12  306.67   20.90 
  -8  -2 -12  326.18   20.44 
   8  -2 -12  315.51   24.11 
  -8  -2  12  320.57   20.77 
   8   2 -12  278.43   20.49 
   9  -2  12    0.08    7.13 
  -9   2  12   -1.67    8.15 
  -9   2 -12   -5.52    4.84 
   9  -2 -12   -4.25    4.59 
  -9   2  12    3.22    7.52 
  -9  -2  12   -1.03    5.09 
  -9  -2 -12   -3.73    5.03 
   9   2 -12    2.07    5.81 
  -9  -2  12    3.47    7.48 
  -9   2 -12    3.50    5.11 
  -9  -2 -12    1.93    6.12 
  -9   2  12    6.82    5.90 
   9   2  12    1.93    8.85 
   0   3  12   12.05    4.89 
   0   3  12   30.67    6.82 
   0   3  12   61.10    9.51 
  -1  -3 -12   55.47    9.39 
  -1  -3 -12   43.09    7.44 
   1   3 -12   65.72   10.77 
  -1   3  12   45.87    9.57 
  -1   3 -12   32.25    8.07 
  -1  -3 -12   52.53    9.37 
   1   3  12   49.31   10.03 
   1  -3 -12   58.79    9.62 
  -1   3 -12   61.04   10.25 
  -1  -3  12   47.62    9.86 
   1   3  12   57.29    9.34 
   1   3 -12   35.14    8.59 
   1  -3 -12   47.52    8.79 
   1  -3  12   44.15    9.63 
  -1   3  12   38.55    9.33 
   1  -3  12   53.71   10.21 
  -2  -3 -12   10.50    4.84 
  -2   3  12    4.60    4.01 
  -2   3  12   21.05    8.22 
  -2  -3 -12   16.97    5.86 
  -2   3 -12   20.71    5.64 
   2   3  12   33.19    6.18 
   2   3  12   10.09    6.58 
   2  -3 -12   32.27    6.88 
  -2   3 -12   20.94    6.22 
  -2  -3  12   41.61    8.61 
   2  -3 -12   20.28    5.86 
   2   3 -12   28.16    7.38 
   2  -3  12   35.36    7.49 
   2  -3  12   40.76    8.43 
   3   3  12   75.58    9.19 
  -3  -3  12   64.55   12.12 
  -3  -3  12   53.08   10.32 
   3  -3 -12   83.72   10.96 
   3  -3  12   72.02   10.52 
  -3   3 -12   83.06   11.39 
  -3  -3  12   84.16   10.86 
  -3   3 -12   54.30   10.24 
  -3   3  12   78.57   11.70 
   3  -3  12   85.67   13.23 
   3   3  12  112.58   16.16 
   3   3 -12   72.95   12.18 
   3  -3 -12   72.76   11.48 
  -3  -3 -12   77.53   10.65 
  -3  -3 -12   71.07   10.46 
  -3   3  12   59.87   12.57 
  -4   3  12   16.20    5.60 
  -4  -3  12   43.98    8.44 
  -4  -3 -12   31.23    6.95 
  -4  -3  12   26.57    6.35 
   4  -3  12   52.01   10.22 
   4   3  12   36.67    9.97 
  -4  -3 -12   10.91    4.80 
  -4   3  12   32.00    9.04 
  -4  -3  12   30.58    7.01 
  -4   3 -12   33.26    7.41 
  -4   3 -12   17.71    5.30 
   4  -3 -12   43.41    7.17 
   4   3 -12   58.88    9.29 
   4  -3 -12   37.73    7.68 
  -5  -3  12   17.99    7.38 
   5   3  12   28.72   11.09 
  -5  -3 -12   26.81    7.17 
   5  -3 -12   28.22    9.71 
   5   3 -12   31.90    7.84 
  -5   3  12   32.26   10.09 
  -5   3 -12   18.34    6.12 
  -5  -3  12   32.44    9.04 
  -5   3  12   18.88    6.26 
  -5  -3  12   29.42    8.34 
   5  -3 -12   20.90    6.24 
  -5   3 -12   31.90    8.87 
  -5  -3 -12   21.38    6.93 
   5  -3  12   31.67   10.02 
   5  -3  12   19.80    5.56 
  -6  -3  12   13.84    6.44 
   6  -3 -12   19.22    8.20 
  -6  -3 -12    5.46    4.36 
  -6   3  12    7.94    4.46 
   6   3  12   11.65    8.87 
   6  -3 -12   20.34    5.94 
  -6  -3  12   18.93    7.09 
   6   3 -12   13.61    5.79 
  -6  -3  12   10.31    5.52 
  -6  -3 -12   10.45    5.82 
  -6   3 -12   12.38    4.68 
  -6   3 -12    9.76    6.31 
   6  -3  12   17.69    8.49 
  -6   3  12    5.83    7.25 
  -7   3  12   29.49   10.22 
  -7  -3  12   36.39    8.87 
  -7  -3 -12   20.84    7.69 
  -7   3  12   42.59    9.22 
  -7  -3  12   15.29    7.26 
  -7  -3 -12   16.00    6.72 
  -7  -3  12   38.02   10.28 
  -7   3 -12   21.82    8.34 
   7   3  12   30.87   11.73 
   7  -3 -12   28.53    7.87 
  -7   3 -12   17.84    6.82 
   7  -3 -12   21.53   10.34 
   7  -3  12   28.09   10.85 
   7   3 -12   29.65    8.72 
  -8   3 -12   11.63    5.97 
  -8  -3  12   12.74    6.52 
   8  -3 -12   14.94    8.38 
   8   3  12   39.05   11.48 
  -8   3 -12   18.16    7.68 
  -8  -3 -12   -3.57    5.89 
   8  -3 -12   35.16    7.49 
  -8  -3  12    8.63    5.21 
  -8  -3 -12    0.10    4.58 
   8  -3  12   23.68   10.44 
  -8   3  12   18.87    8.70 
  -8   3  12    5.79    5.30 
  -8  -3  12   15.62    8.19 
   8   3 -12   34.41    8.40 
  -9   3 -12   24.65    9.58 
  -9  -3  12   11.81    9.72 
  -9   3  12   19.87    9.23 
   9  -3  12   25.92   10.88 
  -9   3  12   24.79    7.77 
  -9  -3  12   16.69    6.69 
   9   3 -12   24.25    8.72 
   9  -3 -12   16.49   10.01 
  -9  -3 -12   14.50    6.84 
   9   3  12   21.85   11.81 
   9  -3 -12   19.60    7.37 
  -9   3 -12   31.42    8.78 
  -9  -3 -12   12.94    7.72 
   0  -4 -12  667.85   27.38 
   0   4 -12  638.04   29.68 
   0   4  12  655.32   29.16 
   0  -4  12  699.23   28.48 
   0  -4  12  652.44   30.14 
   0  -4 -12  693.37   28.15 
   0   4  12  672.78   33.24 
   0   4  12  649.97   29.50 
   0   4 -12  680.13   29.62 
   1   4  12    6.60    5.89 
  -1   4 -12    2.73    3.52 
  -1   4 -12    3.79    4.70 
   1  -4  12   -2.14    4.48 
   1   4 -12    4.07    4.18 
  -1   4  12    3.30    4.30 
   1  -4  12    2.62    5.17 
  -1  -4 -12    2.91    4.14 
  -1  -4 -12    6.42    4.39 
   1   4  12   -7.04    3.69 
   1   4 -12   -4.06    3.27 
  -1  -4  12    1.58    5.02 
  -1   4  12    7.66    6.23 
   1  -4 -12   -5.51    3.71 
   1  -4 -12   -1.03    3.78 
   2   4  12  263.57   15.02 
   2  -4  12  251.96   17.16 
  -2  -4  12  300.08   18.69 
   2  -4 -12  244.57   16.01 
  -2   4 -12  278.89   17.63 
   2  -4  12  271.83   17.10 
  -2  -4 -12  299.97   17.27 
  -2   4  12  241.58   18.57 
  -2   4 -12  251.41   16.86 
   2   4  12  241.17   19.23 
   2  -4 -12  250.90   15.74 
  -2   4  12  276.52   19.16 
  -2  -4 -12  240.16   15.96 
   2   4 -12  229.41   17.56 
  -2  -4 -12  273.17   15.83 
   3  -4  12   -0.36    5.57 
  -3   4 -12    1.58    4.00 
   3  -4 -12    6.54    6.00 
   3   4 -12    5.22    5.63 
   3  -4  12    1.63    4.21 
  -3  -4 -12    4.25    4.17 
  -3   4  12    5.76    5.88 
   3   4  12    1.17    7.10 
   3   4  12    5.84    4.07 
   3  -4 -12   -1.96    3.56 
  -3   4 -12    3.44    5.17 
  -3  -4 -12   -1.21    3.59 
  -3   4  12    0.96    3.98 
  -3  -4  12    0.78    5.02 
  -4  -4  12  582.90   28.72 
  -4   4  12  574.83   28.01 
   4  -4 -12  562.33   27.94 
  -4   4 -12  602.96   27.45 
  -4   4  12  589.45   31.35 
   4   4  12  527.95   31.82 
  -4   4 -12  560.39   27.10 
   4  -4 -12  570.96   24.89 
  -4  -4  12  604.63   29.27 
  -4  -4  12  611.21   26.63 
   4  -4  12  595.79   25.20 
   4   4 -12  573.12   28.20 
  -4  -4 -12  580.83   26.05 
   4  -4  12  585.21   29.44 
  -4  -4 -12  583.61   27.01 
  -5   4 -12   -0.92    3.44 
  -5  -4  12   -9.56    4.38 
   5   4  12    5.29    8.23 
   5  -4 -12    4.57    3.66 
   5  -4  12   -4.77    3.33 
  -5   4 -12    2.08    4.73 
  -5  -4 -12    5.00    3.99 
  -5  -4  12    3.50    4.61 
   5  -4  12   -0.54    5.76 
   5  -4 -12   -1.11    6.11 
  -5  -4  12   15.54    6.71 
  -5  -4 -12    9.23    5.44 
   5   4 -12    2.76    4.67 
  -5   4  12   -1.91    3.49 
  -5   4  12   -1.38    5.45 
   6  -4 -12  248.85   15.81 
   6  -4  12  231.62   19.89 
   6   4  12  273.13   23.20 
  -6  -4  12  274.44   19.58 
  -6  -4 -12  249.00   17.16 
  -6  -4  12  259.49   18.69 
  -6   4 -12  251.69   17.97 
  -6   4  12  240.30   20.07 
   6  -4 -12  245.83   19.78 
   6  -4  12  241.70   14.60 
   6   4 -12  230.14   17.77 
  -6   4  12  236.32   16.79 
  -6  -4  12  267.03   18.96 
  -6  -4 -12  219.56   16.28 
  -6   4 -12  262.60   17.45 
   7  -4  12   -3.88    7.05 
  -7   4  12    2.13    7.17 
   7  -4 -12   -5.40    7.40 
  -7   4  12   -0.31    3.99 
   7   4  12    0.29    8.06 
  -7  -4  12   -6.40    5.68 
  -7  -4  12   -0.86    5.67 
  -7  -4  12   -5.22    4.81 
  -7   4 -12   -5.32    3.73 
   7   4 -12    2.33    6.18 
  -7  -4 -12   -1.48    4.88 
  -7  -4 -12    6.40    4.84 
   7  -4 -12    2.76    3.87 
  -7   4 -12    2.11    5.83 
  -8   4  12  372.75   22.65 
  -8   4  12  361.23   25.21 
   8  -4 -12  385.76   21.32 
  -8  -4 -12  392.66   23.17 
   8  -4 -12  339.61   25.65 
  -8  -4 -12  389.58   23.48 
  -8  -4  12  412.53   25.02 
  -8   4 -12  365.44   23.25 
   8   4  12  410.83   28.81 
   8  -4  12  346.79   25.98 
  -8  -4  12  394.52   24.08 
  -8   4 -12  372.00   22.32 
   8   4 -12  384.99   24.48 
  -9   4 -12   -3.07    4.43 
   9  -4 -12    5.19    5.10 
  -9  -4 -12   -1.90    6.13 
  -9  -4 -12   -5.95    3.97 
  -9   4  12   -1.84    4.92 
   9   4 -12    7.67    6.42 
   9  -4 -12    1.87    7.79 
  -9   4 -12   -2.10    5.80 
  -9  -4  12    0.55    8.16 
  -9  -4  12   -4.02    5.51 
   9  -4  12    4.46    7.85 
  -9   4  12    7.75    7.60 
   9   4  12    5.50    8.88 
   0   5  12   13.90    6.78 
   0  -5 -12   59.74    8.13 
   0   5  12   32.87    8.38 
   0   5 -12   61.85    9.25 
   0  -5 -12   20.56    6.02 
   0   5  12   17.64    6.64 
   1  -5  12   -2.36    4.27 
  -1  -5  12    3.64    5.38 
   1   5 -12    8.68    5.34 
   1   5 -12    9.62    5.44 
  -1   5  12   -1.12    4.21 
  -1   5 -12   12.21    6.24 
  -1   5  12    4.93    6.01 
   1  -5 -12    8.94    5.42 
   1  -5  12    8.25    6.37 
  -1  -5 -12   12.63    5.17 
   1   5  12   12.53    6.06 
  -1   5 -12    9.03    4.93 
  -1  -5 -12    2.51    4.98 
   1   5  12    2.59    6.34 
   1  -5 -12    8.82    4.59 
   2   5 -12   27.20    7.42 
   2   5  12    6.81    7.01 
   2  -5  12   29.08    7.11 
   2  -5 -12   26.60    6.81 
  -2   5  12    7.69    5.34 
   2  -5  12   44.36    9.06 
  -2  -5 -12   12.76    5.40 
   2   5  12   18.85    5.42 
  -2  -5 -12   14.02    5.23 
  -2  -5  12   25.40    6.63 
   2  -5 -12   33.23    6.53 
  -2   5 -12   26.27    7.41 
  -2   5 -12   24.50    5.82 
  -2   5  12    9.05    6.14 
  -3  -5 -12   21.83    6.88 
   3  -5 -12   38.40    9.16 
  -3   5  12   24.15    7.51 
  -3  -5  12   26.93    8.70 
  -3  -5 -12   15.29    5.94 
  -3   5 -12   21.11    7.47 
   3  -5 -12   20.76    6.05 
  -3   5 -12   29.02    7.43 
   3   5  12   13.18    9.04 
  -3   5  12   27.85    8.47 
   3   5 -12   32.66    9.16 
   3   5  12   21.16    5.59 
  -3  -5 -12   17.71    5.68 
   3  -5  12   15.56    7.87 
   3  -5  12   16.38    6.06 
  -4  -5  12   42.29    8.85 
  -4   5  12    9.13    7.37 
  -4  -5 -12   18.13    6.30 
   4  -5  12   37.50    7.10 
  -4   5 -12   23.63    5.97 
   4  -5 -12   27.86    7.81 
  -4   5 -12   31.70    7.84 
   4  -5  12   46.41    9.76 
   4   5 -12   36.68    8.10 
   4  -5 -12   36.34    5.97 
  -4   5  12   11.52    5.40 
   4   5  12   20.08    9.91 
  -5   5  12    3.91    4.88 
   5   5 -12   -5.72    4.40 
  -5   5 -12    4.16    5.79 
   5  -5  12    1.95    4.26 
  -5   5  12    4.08    6.97 
   5  -5  12   -1.98    6.19 
   5  -5 -12    0.43    3.36 
  -5  -5  12    0.93    6.07 
  -5  -5  12   -2.02    4.97 
   5  -5 -12   -0.36    5.98 
  -5   5 -12   -3.81    3.38 
  -5  -5 -12   -0.80    4.41 
  -5  -5 -12   -5.24    3.95 
   5   5  12   -0.42    7.95 
  -6  -5 -12    8.06    4.74 
  -6  -5  12   17.75    7.43 
  -6  -5 -12    9.52    6.10 
  -6   5 -12    8.12    6.68 
   6  -5 -12   19.23    5.34 
   6  -5 -12   20.24    7.87 
   6   5 -12   23.79    7.70 
  -6  -5  12   23.68    6.64 
   6   5  12   14.83    9.90 
  -6   5  12    8.86    7.27 
  -6  -5  12   19.90    7.31 
   6  -5  12   26.38    5.97 
  -6   5  12   11.51    5.03 
  -6   5 -12   14.51    5.10 
   6  -5  12   19.67    9.03 
   7  -5 -12    5.20    4.85 
   7  -5 -12    9.77    8.70 
  -7   5  12   -0.93    3.58 
  -7   5 -12    2.07    6.23 
  -7  -5  12    6.39    6.33 
  -7   5 -12    9.85    5.24 
   7   5 -12   18.91    7.82 
  -7   5  12   14.72    8.16 
  -7  -5  12    2.26    4.29 
  -7  -5 -12    7.21    6.41 
   7  -5  12    7.79    8.23 
  -7  -5  12   15.42    7.14 
   7   5  12    6.42    9.00 
  -7  -5 -12   12.96    5.75 
  -8   5 -12   17.52    6.65 
  -8   5  12   -0.32    7.17 
  -8   5 -12   24.22    8.56 
  -8  -5  12    3.00    6.50 
  -8   5  12   15.76    5.98 
  -8  -5  12   16.49    6.38 
  -8  -5 -12   11.00    7.32 
   8  -5 -12   10.88    8.14 
   8   5  12   26.91   10.95 
   8  -5  12   20.17    9.05 
   8   5 -12   23.48    8.51 
  -8  -5 -12    1.64    5.12 
   0  -6 -12  557.01   24.48 
   0   6  12  613.56   31.97 
   0   6 -12  615.52   27.60 
   0   6  12  593.54   28.89 
   0   6  12  597.48   28.91 
   0   6 -12  585.25   28.24 
   0  -6  12  520.98   26.82 
   0  -6 -12  596.85   26.56 
   1   6 -12   -0.33    4.42 
  -1   6  12    3.32    4.97 
  -1   6 -12    1.94    4.82 
  -1  -6 -12    6.28    4.49 
   1  -6  12    1.58    4.27 
   1   6 -12    8.77    5.31 
  -1   6  12    1.08    4.63 
  -1  -6 -12    2.88    5.24 
  -1  -6  12    2.73    4.56 
   1  -6 -12   -0.26    4.32 
   1  -6 -12    0.05    3.18 
   1   6  12    2.07    4.76 
   1   6  12   11.29    7.39 
  -2  -6  12  309.97   20.32 
   2   6 -12  332.01   20.91 
  -2  -6 -12  336.88   19.17 
   2   6  12  340.55   23.51 
  -2   6  12  353.75   22.56 
  -2  -6 -12  361.88   19.01 
  -2   6 -12  319.37   20.00 
   2  -6  12  340.03   20.95 
   2  -6  12  316.72   19.53 
   2  -6 -12  336.12   17.43 
   2   6  12  361.21   18.82 
   2  -6 -12  332.22   19.47 
  -2   6  12  333.02   22.34 
  -2   6 -12  324.79   20.23 
   3  -6 -12    7.57    3.99 
  -3  -6 -12    4.42    4.28 
   3   6 -12   -1.71    4.89 
  -3   6  12   -1.68    3.80 
  -3   6  12   -3.22    4.56 
  -3   6 -12    1.70    5.31 
  -3  -6 -12   -2.51    4.61 
   3   6  12    2.73    7.37 
  -3  -6  12    6.08    5.31 
   3  -6  12   -0.70    4.41 
   3  -6 -12    6.15    5.79 
  -3   6 -12    1.61    3.92 
   3  -6  12    2.97    5.95 
  -4   6 -12  380.09   22.78 
  -4   6  12  390.12   25.14 
  -4  -6 -12  424.93   22.01 
  -4  -6 -12  392.22   21.04 
   4  -6 -12  408.35   18.98 
   4   6  12  348.91   26.14 
  -4   6 -12  395.18   22.24 
  -4  -6  12  400.00   23.46 
   4   6 -12  421.11   23.69 
   4  -6  12  402.15   24.39 
   4  -6 -12  382.43   22.63 
   4  -6  12  395.48   20.99 
  -4   6  12  390.40   23.63 
  -4  -6 -12  380.66   20.17 
   5   6  12    2.71    8.75 
  -5  -6  12    4.89    5.66 
   5  -6 -12    3.27    6.69 
   5  -6  12    5.75    4.34 
   5  -6 -12    2.05    3.74 
  -5   6 -12    2.01    3.68 
   5   6 -12    7.22    5.81 
   5  -6  12   10.73    7.13 
  -5   6  12    6.77    5.12 
  -5  -6 -12    2.38    5.17 
  -5   6  12    1.38    6.54 
  -5   6 -12   -6.14    4.64 
  -5  -6 -12   -2.10    3.74 
   6   6 -12  207.59   19.26 
  -6  -6  12  195.47   18.34 
   6   6  12  212.55   25.00 
  -6   6  12  207.33   21.66 
   6  -6  12  192.42   13.80 
  -6  -6 -12  173.26   14.47 
   6  -6  12  209.59   21.53 
  -6  -6 -12  173.95   14.84 
  -6   6  12  177.22   15.04 
  -6   6 -12  195.05   18.45 
  -6   6 -12  188.74   15.08 
   6  -6 -12  257.74   23.37 
   7  -6 -12    1.82    7.11 
   7   6 -12    5.25    6.25 
  -7  -6 -12    4.85    5.40 
   7  -6  12    2.77    7.59 
  -7   6  12    2.31    7.33 
  -7  -6  12    0.96    6.26 
  -7   6  12    2.60    4.77 
  -7   6 -12   -0.24    4.48 
  -7  -6 -12   -0.12    5.33 
  -7  -6  12   12.51    6.69 
  -7   6 -12    5.44    6.86 
   7   6  12   -1.07    7.85 
  -8  -6 -12  189.94   16.37 
   8  -6  12  218.10   23.70 
  -8   6 -12  224.10   18.59 
  -8  -6 -12  214.74   19.75 
  -8   6 -12  197.76   15.72 
   8  -6 -12  229.31   24.35 
  -8  -6  12  247.03   22.74 
  -8   6  12  220.15   16.79 
   8   6  12  210.51   25.77 
  -8   6  12  231.56   22.78 
   8   6 -12  176.09   19.62 
   0   7 -12   44.06    8.57 
   0  -7 -12   20.43    6.93 
   0  -7 -12   41.22    6.59 
   0  -7  12   37.85    7.79 
   0   7  12   17.75    6.89 
   0   7 -12   59.42    9.06 
   0   7  12   29.04    8.12 
  -1  -7 -12   21.47    6.13 
  -1   7  12   27.37    8.15 
   1  -7 -12   16.23    7.20 
   1  -7 -12   11.72    4.76 
  -1  -7 -12    8.32    5.79 
  -1   7 -12   13.60    6.72 
  -1  -7  12   14.74    7.09 
   1   7 -12   11.19    6.82 
   1   7  12    8.45    8.61 
   1   7 -12   14.95    6.82 
   1   7  12   11.03    5.65 
  -1   7  12   16.03    6.73 
   1  -7  12    5.78    5.60 
  -1   7 -12    7.43    5.79 
   2  -7  12   27.07    6.97 
   2   7 -12   27.42    7.23 
  -2  -7  12   25.05    7.87 
  -2  -7 -12   24.81    6.25 
   2   7  12   28.67    6.62 
  -2   7  12   15.33    6.05 
   2   7  12   14.08    8.61 
  -2  -7 -12   25.33    7.27 
  -2   7 -12   36.90    8.02 
   2  -7 -12   26.06    7.18 
  -2   7  12   20.54    8.34 
  -3   7  12   18.29    8.34 
  -3   7 -12   28.85    8.61 
  -3  -7 -12   23.86    7.88 
   3   7 -12   18.41    7.51 
   3  -7  12   14.57    7.63 
   3   7  12   23.65   10.69 
   3  -7 -12   33.53   10.08 
  -3  -7  12   28.42    8.67 
   3  -7  12   28.34    7.88 
  -3  -7 -12   37.43    8.09 
  -3   7  12   21.31    7.72 
  -3   7 -12   27.35    7.63 
   4   7  12    3.42    7.85 
  -4   7 -12   21.99    7.38 
  -4  -7 -12   20.14    6.85 
  -4  -7 -12   23.59    7.61 
   4  -7  12   29.54    7.10 
   4  -7  12   25.03    8.65 
  -4   7  12    9.04    7.11 
  -4  -7  12   25.88    7.57 
  -4   7 -12   17.45    5.87 
   4  -7 -12   20.47    7.53 
   4   7 -12   43.05    9.10 
  -4   7  12    8.23    5.30 
  -5   7  12    1.93    4.30 
  -5   7 -12    5.60    4.51 
  -5   7  12    2.72    6.93 
  -5  -7  12    5.93    6.17 
  -5   7 -12    8.80    6.43 
   5  -7 -12   14.30    7.85 
   5   7  12    5.20    8.96 
   5  -7  12    5.15    5.17 
  -5  -7 -12    5.13    5.57 
   5   7 -12   12.93    7.18 
   5  -7  12    9.31    8.04 
   6  -7  12   19.14    5.88 
  -6   7  12    8.90    5.42 
  -6   7 -12    9.52    6.86 
  -6   7 -12    7.67    4.62 
   6  -7  12   12.91    8.95 
  -6  -7 -12   21.42    7.23 
   6   7  12    4.81    8.36 
  -6   7  12   14.17    8.45 
  -6  -7  12   15.78    7.35 
   6   7 -12   22.78    7.29 
   6  -7 -12   23.83    8.65 
   7   7  12    8.49    9.63 
   7  -7  12   15.29    9.35 
  -7   7 -12    4.69    7.17 
  -7  -7 -12   21.10    6.85 
  -7  -7  12    4.71    7.87 
  -7   7 -12    4.44    5.24 
  -7   7  12   11.06    6.30 
   7   7 -12    7.09    6.83 
  -7  -7 -12   12.86    6.97 
  -7   7  12   16.73    7.96 
   7  -7 -12    1.37    7.07 
  -8   7  12    3.00    4.75 
   8   7  12    2.86    9.16 
  -8  -7  12    3.76    7.66 
   8  -7 -12   17.03    8.83 
  -8   7  12   -3.75    6.35 
  -8   7 -12    6.38    4.82 
  -8   7 -12   22.89    9.33 
  -8  -7 -12    4.22    7.31 
   8  -7  12   12.14    9.42 
   8   7 -12   11.49    6.64 
  -8  -7 -12   10.96    6.79 
   0   8  12  271.31   18.29 
   0   8 -12  248.18   17.84 
   0   8 -12  250.55   17.75 
   0  -8  12  271.68   18.38 
   0  -8 -12  219.49   16.68 
  -1   8  12   -0.38    5.08 
   1   8 -12   -0.48    5.19 
  -1   8  12   -2.32    4.37 
  -1  -8 -12    0.09    4.86 
  -1   8 -12    4.76    4.98 
  -1  -8  12    4.37    5.70 
   1   8 -12   -5.13    4.90 
   1  -8 -12   -1.18    5.75 
   1  -8  12   -1.38    4.45 
   1   8  12    2.73    5.23 
  -1   8 -12    4.98    6.42 
   1   8  12    7.44    7.60 
  -2   8 -12  225.57   16.90 
  -2  -8  12  202.24   16.85 
   2  -8  12  249.10   16.90 
   2   8 -12  231.16   17.77 
  -2   8  12  228.74   18.38 
   2   8  12  245.52   16.30 
   2  -8 -12  219.46   16.28 
  -2   8 -12  252.51   19.06 
  -2   8  12  230.68   18.31 
  -2  -8 -12  205.96   15.99 
   2   8  12  245.68   20.02 
   3   8  12    6.36    8.39 
  -3  -8  12    9.41    6.42 
  -3  -8 -12   -1.67    5.05 
  -3   8  12   -1.28    5.48 
   3   8 -12    2.12    5.63 
   3  -8 -12    3.14    5.83 
   3  -8  12    3.82    5.18 
  -3   8 -12   -3.39    5.54 
  -3  -8 -12   -3.77    3.63 
  -3   8  12    6.96    5.16 
  -3   8 -12    9.82    6.43 
  -4  -8 -12  253.73   16.37 
  -4   8 -12  250.79   18.40 
   4   8 -12  244.42   17.96 
  -4  -8  12  229.60   17.99 
   4  -8  12  271.33   17.60 
  -4  -8 -12  239.26   17.10 
   4  -8  12  266.81   20.57 
  -4   8  12  228.77   19.25 
  -4   8 -12  228.47   17.09 
   4   8  12  247.93   25.74 
   4  -8 -12  239.82   17.81 
  -4   8  12  258.52   19.17 
   5   8  12    3.87    8.11 
  -5   8  12    3.41    4.75 
   5  -8 -12    7.58    7.72 
  -5   8  12    0.18    6.10 
  -5  -8 -12    9.22    6.58 
  -5  -8  12   -3.82    4.98 
  -5  -8 -12    7.87    5.97 
   5   8 -12    5.10    6.09 
   5  -8  12    1.35    4.52 
  -5   8 -12   -1.32    3.85 
  -5   8 -12    6.58    7.41 
   5  -8  12   -3.51    6.31 
  -6   8  12  223.22   22.42 
  -6  -8  12  222.68   17.93 
   6  -8  12  213.45   15.49 
   6   8  12  240.59   27.35 
  -6   8  12  221.55   17.61 
   6   8 -12  241.72   18.57 
  -6   8 -12  205.76   15.76 
   6  -8 -12  208.17   18.50 
  -6  -8 -12  212.71   15.87 
   6  -8  12  247.31   24.39 
  -6   8 -12  212.09   18.02 
   7  -8  12   -4.97    7.02 
  -7   8 -12    0.39    4.41 
  -7   8  12   -0.12    4.13 
   7  -8 -12   -9.29    5.92 
   7   8  12    0.83    9.31 
  -7   8  12   -5.19    6.16 
  -7   8 -12    0.02    7.16 
   7  -8  12    1.67    4.43 
   7   8 -12    6.24    6.45 
  -7  -8 -12    8.95    6.40 
   0   9 -12   36.62    9.41 
   0   9 -12   33.24    8.41 
   0  -9 -12   16.52    7.85 
   0   9  12   17.57    7.20 
   0  -9  12   25.73    7.12 
  -1  -9  12   16.93    7.02 
   1  -9  12   13.62    6.63 
  -1   9 -12   18.70    7.82 
   1  -9 -12    8.09    6.96 
  -1  -9 -12   23.73    8.44 
   1   9 -12   22.85    8.50 
   1   9  12   28.95   10.52 
   1   9  12   19.44    7.25 
  -1   9  12   18.84    7.39 
  -1   9 -12   18.20    8.64 
   1   9 -12   14.86    7.59 
  -1   9  12   17.89    7.77 
   2   9 -12   15.71    6.46 
  -2   9 -12   23.04    7.07 
  -2  -9 -12   13.41    7.09 
  -2   9  12    9.64    6.31 
   2   9  12    5.80    7.80 
  -2   9  12   11.71    7.01 
   2  -9 -12    2.75    5.55 
  -2  -9  12   18.72    6.67 
   2  -9  12    7.66    5.44 
  -2   9 -12   23.47    8.12 
  -3   9 -12   37.04    9.76 
   3  -9  12   25.45    8.15 
  -3  -9  12   28.48    9.07 
   3  -9 -12   30.63    9.45 
  -3   9  12   51.34   10.73 
  -3  -9 -12   36.05    9.96 
  -3   9 -12   37.17   11.47 
  -3   9  12   25.60    9.33 
   3   9 -12   36.06    9.77 
   3   9  12   34.19   11.77 
   4   9 -12   36.23    8.72 
  -4   9  12   21.82    7.06 
  -4   9 -12    5.42    7.41 
  -4   9 -12   28.73    8.31 
   4  -9  12   23.54    7.00 
  -4   9  12   16.17    8.30 
   4   9  12   11.14    9.74 
   4  -9 -12   21.84    8.44 
  -4  -9  12    9.98    6.18 
  -4  -9 -12   17.77    7.98 
   5   9 -12    0.71    5.92 
   5  -9 -12   18.16    9.20 
   5  -9  12    8.86    5.52 
   5   9  12   -1.56    9.08 
  -5  -9  12    2.68    6.41 
  -5   9  12   13.94    6.87 
  -5   9  12    2.92    7.77 
  -5  -9 -12   10.42    7.26 
  -5   9 -12    3.35    6.69 
  -6  -9  12   19.67    7.24 
   6  -9  12   17.64    9.65 
  -6  -9 -12   17.59    7.35 
   6  -9  12   16.30    6.30 
   6   9  12    4.16    8.90 
   6  -9 -12   10.77    8.14 
  -6   9 -12    2.87    4.87 
  -6   9  12    7.19    8.48 
  -6   9  12   15.84    6.79 
   6   9 -12   20.33    7.83 
  -6   9 -12   15.31    8.03 
   7   9 -12   28.28   10.02 
   7   9  12    3.10    8.48 
  -7   9 -12    8.77    8.00 
  -7   9  12   13.97    8.44 
   7  -9  12   11.74    6.30 
  -7   9  12   19.36    8.03 
   7  -9 -12   12.21   10.42 
  -7   9 -12   26.70    7.51 
   7  -9  12   14.70    9.94 
   0  10 -12  308.77   20.81 
   0  10  12  289.58   20.19 
   0 -10 -12  269.26   19.57 
   0 -10  12  274.46   19.07 
   0  10 -12  311.15   20.83 
  -1 -10 -12    1.59    6.17 
   1  10 -12    7.38    6.26 
   1  10 -12    2.54    5.86 
  -1 -10  12    7.93    5.37 
  -1  10 -12   16.22    7.73 
   1  10  12   -2.85    4.71 
   1 -10  12    7.91    5.66 
   1 -10 -12   -1.60    5.14 
  -1  10  12    2.70    6.47 
  -1  10 -12    0.65    5.82 
   1  10  12    4.14    7.68 
  -1  10  12    9.21    6.26 
  -2  10 -12  247.25   17.90 
  -2  10  12  244.15   19.67 
   2  10 -12  231.19   17.90 
   2 -10  12  225.32   17.58 
  -2 -10  12  226.61   17.86 
  -2  10  12  234.38   19.28 
   2  10  12  204.56   19.01 
  -2  10 -12  247.71   19.59 
   2 -10 -12  217.34   17.44 
  -2 -10 -12  235.18   18.07 
   3 -10  12   -3.60    4.52 
   3  10  12    4.02    8.15 
  -3 -10 -12   -5.22    5.59 
  -3  10  12    6.48    5.02 
   3  10 -12    3.41    5.95 
   3 -10 -12    7.21    7.57 
  -3 -10  12    0.50    5.60 
  -3  10 -12    4.66    7.09 
  -3  10  12   -9.71    5.46 
  -3  10 -12    1.57    5.65 
  -4 -10 -12  235.51   18.02 
  -4  10 -12  236.48   23.79 
   4  10  12  244.81   25.64 
  -4 -10  12  209.59   20.22 
   4 -10 -12  211.48   18.21 
   4 -10  12  226.97   17.04 
   4  10 -12  193.62   16.40 
  -4  10  12  192.67   17.02 
  -4  10 -12  193.55   16.73 
  -4  10  12  230.41   22.64 
  -5 -10  12    1.05    6.36 
   5  10 -12   -3.30    5.30 
  -5  10  12    0.94    6.84 
  -5 -10 -12   -0.66    5.95 
   5  10  12   -4.65    7.59 
  -5  10  12   -0.50    4.04 
   5 -10 -12    1.50    5.58 
  -5  10 -12   -0.24    7.30 
   5 -10  12    7.22    5.66 
  -6  10  12  152.91   17.55 
   6 -10 -12  191.36   21.20 
  -6 -10 -12  125.33   16.45 
  -6  10  12  144.87   20.20 
  -6  10 -12  148.79   22.15 
   6 -10  12  122.95   15.02 
   6  10  12  165.38   23.92 
   6  10 -12  171.50   18.72 
   0  11 -12   30.29    9.88 
   0 -11  12   15.46    7.07 
   0  11  12   29.97    8.86 
   0  11 -12   10.59    6.51 
   0 -11 -12   12.14    7.99 
   1 -11  12    3.53    6.11 
   1  11  12   14.06    8.85 
  -1  11 -12   15.82    8.03 
  -1  11  12    6.78    5.91 
  -1 -11 -12    2.59    7.53 
  -1 -11  12    6.43    5.92 
   1  11 -12    3.96    6.80 
   1  11 -12    6.64    6.90 
   1 -11 -12    0.18    6.95 
  -1  11  12   -1.68    4.39 
   2 -11  12   11.61    5.68 
  -2 -11 -12    9.07    6.92 
  -2  11  12    1.62    6.75 
  -2 -11  12   24.68    7.76 
   2  11  12   12.18    9.06 
   2 -11 -12   15.88    8.77 
  -2  11 -12   31.74    9.86 
   2  11 -12   33.88    8.28 
  -2  11  12   12.63    6.60 
   3  11 -12    7.17    6.55 
  -3 -11  12   -3.28    5.15 
  -3  11  12    9.44    6.32 
   3 -11 -12   -1.02    6.82 
  -3  11 -12    3.70    7.44 
  -3 -11 -12   -1.71    6.53 
  -3  11  12    6.85    6.55 
   3  11  12    4.01    8.31 
   3 -11  12   -1.19    5.52 
  -4 -11 -12    9.43    7.87 
   4  11  12   20.38   10.35 
   4 -11 -12   15.30    8.13 
  -4  11 -12   15.74    8.97 
   4 -11  12   14.78    7.03 
  -4  11  12    7.77    6.98 
   4  11 -12   22.83    7.64 
  -4 -11  12   14.05    7.12 
  -4  11  12   13.24    5.92 
  -5  11 -12    0.70    8.37 
   5  11 -12    0.13    6.27 
   5 -11  12    5.91    6.75 
  -5 -11 -12   -1.12    6.86 
   5  11  12   -6.02    8.35 
  -5  11  12    8.12    6.32 
   5 -11 -12    0.38    6.82 
  -5  11  12   13.05    7.98 
  -5 -11  12    2.54    6.07 
   6  11 -12   19.33    7.58 
  -6  11  12   19.20    9.59 
   6  11  12    6.50   10.08 
  -6  11  12   10.67    6.27 
  -6  11 -12    9.57   10.29 
   6 -11 -12    2.62    7.57 
  -6 -11 -12    5.76    7.48 
   0 -12  12  161.23   18.23 
   0  12 -12  176.03   20.94 
   0  12  12  162.85   17.44 
   0 -12 -12  162.40   19.27 
  -1  12  12   -0.60    5.66 
   1  12  12  -11.55    6.57 
  -1 -12 -12    9.68    8.17 
   1  12 -12   12.98    8.77 
   1 -12 -12    4.36    6.63 
  -1 -12  12    4.24    6.00 
   1 -12  12   -0.11    5.66 
  -1  12 -12    6.34    7.17 
  -2  12 -12  152.87   20.14 
  -2 -12 -12  168.32   18.92 
  -2  12  12  111.15   16.01 
  -2  12  12  144.87   18.22 
   2 -12 -12  168.56   19.06 
  -2 -12  12  143.73   17.25 
   2  12  12  156.06   20.56 
   2 -12  12  132.04   16.47 
  -3 -12 -12    6.54    7.96 
  -3 -12  12    5.55    6.14 
   3 -12 -12    1.73    6.73 
   3  12  12   12.35    9.83 
  -3  12  12   -2.77    5.95 
  -3  12  12   -3.71    4.05 
  -3  12 -12   15.37    9.26 
   3 -12  12    5.57    5.71 
  -4 -12 -12  160.10   19.35 
   4 -12 -12  198.22   21.18 
  -4  12  12  135.44   18.67 
  -4 -12  12  171.25   18.50 
   4 -12  12  147.44   17.55 
  -4  12 -12  141.70   20.67 
  -4  12  12  144.28   17.73 
   4  12  12  164.35   22.51 
  -5  12  12    0.31    7.30 
  -5  12 -12   20.45   10.51 
  -5 -12 -12   11.30    8.93 
  -5  12  12    2.14    5.43 
   5 -12  12   -4.11    5.64 
   5  12  12    7.93   10.16 
   5 -12 -12    4.37    7.65 
   0  13 -12   11.60    9.40 
   0 -13 -12   13.18    8.35 
   0 -13  12   10.04    6.67 
   1 -13 -12    2.68    7.32 
   1 -13  12    5.13    6.26 
  -1  13 -12   10.95    9.26 
  -1 -13 -12   12.31    8.77 
  -1  13  12    9.23    7.32 
  -1 -13  12    9.73    7.23 
   1  13 -12   -0.58    7.29 
   2 -13  12    8.40    6.28 
   2 -13 -12    3.40    7.80 
  -2 -13  12    7.32    7.08 
  -2  13 -12    2.61    8.27 
  -2  13  12    3.56    5.45 
  -2 -13 -12    4.20    8.12 
  -2  13  12   -7.76    5.96 
   2  13  12   -3.74    7.98 
  -3  13 -12   22.40   10.85 
  -3 -13 -12   29.44   11.49 
   3  13  12   22.57   10.96 
  -3  13  12   32.19    9.22 
   3 -13  12   31.40    9.72 
   3 -13 -12   18.14    9.24 
  -3  13  12   10.16    7.35 
  -3 -13  12   17.06    8.47 
   0  14 -12  172.58   22.05 
   0 -14 -12  181.80   20.89 
   0 -14  12  128.66   16.70 
   1  14 -12   -3.24    7.13 
  -1  14  12   12.44    6.99 
  -1 -14 -12    1.45    7.88 
   1 -14  12    7.63    7.01 
  -1  14 -12   -3.99    8.30 
  -1 -14  12    6.34    6.48 
   1 -14 -12   -7.69    6.58 
   0   0  13    5.10    5.25 
   0   0 -13    3.64    4.22 
  -1   0  13   75.74   11.95 
  -1   0 -13   53.07   10.11 
   1   0  13   77.39   11.56 
  -1   0 -13   61.29   10.38 
   1   0 -13   75.75   11.93 
   1   0  13   81.22   11.90 
  -2   0  13   15.74    6.81 
  -2   0 -13   14.76    6.42 
  -2   0 -13   14.09    5.37 
   2   0 -13   16.47    6.70 
   2   0  13    9.95    5.50 
   2   0  13   23.01    7.85 
  -2   0  13   14.83    6.74 
  -3   0 -13   15.88    6.50 
  -3   0 -13   10.25    5.41 
  -3   0  13    3.90    4.65 
   3   0 -13    8.16    5.27 
   3   0 -13   24.74    9.08 
   3   0  13   18.78    8.05 
   3   0  13   10.96    5.43 
  -3   0  13   19.63    7.66 
  -4   0  13   -0.01    5.62 
   4   0 -13   11.23    8.71 
   4   0 -13    7.82    4.77 
  -4   0 -13    9.00    5.67 
  -4   0 -13    3.38    4.99 
  -4   0  13   10.86    5.92 
   4   0  13    4.33    4.61 
   4   0  13    7.20    6.99 
   5   0  13   62.64   13.73 
   5   0 -13   82.29   15.10 
   5   0 -13   59.08   10.29 
  -5   0  13   73.44   13.43 
  -5   0  13   67.70   11.59 
  -5   0 -13   74.93   12.07 
  -5   0 -13   62.02   11.10 
  -6   0  13    6.92    6.91 
  -6   0  13    7.40    5.44 
  -6   0 -13   19.14    6.28 
   6   0 -13    7.77    9.59 
   6   0  13   11.41    9.16 
  -6   0 -13    8.60    6.39 
   6   0 -13   14.40    6.39 
   7   0  13   17.30   10.86 
  -7   0  13   16.93    9.19 
  -7   0  13   16.23    8.06 
  -7   0  13    4.13    5.48 
  -7   0 -13    7.76    6.63 
  -7   0 -13    8.29    5.31 
   7   0 -13   26.46    8.00 
  -8   0 -13    0.76    4.86 
  -8   0  13   -2.87    4.87 
  -8   0  13   14.54    7.78 
   8   0 -13    7.38    6.25 
  -8   0  13   -0.02    7.15 
   8   0  13    4.81    8.66 
  -8   0 -13    2.22    7.16 
   0   1 -13   30.17    7.85 
   0   1  13   25.89    7.34 
   0   1 -13   34.19    8.20 
   0  -1 -13   43.14    9.02 
   0  -1  13   39.87    9.24 
  -1  -1 -13    6.37    5.15 
  -1   1  13   -1.38    4.23 
   1   1 -13    4.21    4.92 
  -1  -1  13    4.41    4.85 
   1  -1  13    8.01    5.59 
  -1  -1 -13   -3.81    3.47 
   1  -1 -13    2.08    3.71 
   1   1  13   -4.83    5.42 
   1  -1  13    4.25    5.59 
   1   1  13    0.07    3.79 
  -1   1 -13    4.99    4.90 
  -1   1 -13    4.15    4.34 
  -2  -1 -13   10.79    5.10 
  -2   1  13   16.28    6.97 
  -2   1 -13   20.48    6.56 
   2  -1  13   27.69    7.22 
   2   1 -13   21.90    7.46 
   2  -1 -13   24.21    7.09 
  -2  -1 -13    3.72    5.04 
   2  -1 -13   35.97    8.93 
  -2  -1  13   13.92    6.92 
   2   1  13   23.76    8.19 
  -2   1  13    7.12    4.67 
   2   1  13   23.43    6.88 
   2  -1  13   14.04    7.52 
  -2   1 -13   14.39    5.73 
  -3  -1  13    6.28    5.88 
   3   1  13    0.76    5.53 
   3   1  13   -0.04    4.03 
  -3   1  13    2.15    4.04 
   3  -1 -13   -5.41    5.49 
  -3   1 -13   -2.81    4.08 
  -3  -1 -13    0.06    4.26 
   3  -1 -13    1.72    4.25 
  -3   1  13   -1.79    5.17 
  -3  -1 -13   -1.09    3.05 
  -3  -1  13    2.21    4.88 
  -3   1 -13   -2.25    3.15 
   3   1 -13   -1.68    3.77 
   3  -1  13    3.39    4.46 
   3  -1  13   -7.19    5.31 
   4   1  13    3.66    6.90 
   4   1 -13   10.60    8.45 
  -4  -1  13    4.88    4.71 
   4  -1 -13    5.56    4.33 
  -4  -1  13    5.79    6.72 
  -4  -1 -13   -1.80    3.69 
   4  -1 -13    3.44    6.66 
  -4   1 -13   -0.18    3.23 
  -4   1  13    3.90    4.71 
   4   1  13    5.37    4.42 
  -4   1 -13    8.04    5.57 
   4  -1  13    3.56    4.56 
  -4  -1 -13    1.90    3.87 
  -4   1  13    4.00    6.19 
   4  -1  13   -4.63    5.54 
   4   1 -13    6.09    4.85 
  -5   1  13   -1.41    5.56 
  -5  -1  13    3.36    5.86 
   5  -1  13   -3.84    6.16 
  -5  -1 -13    2.29    4.61 
   5   1 -13   -0.43    7.12 
  -5   1  13   -0.39    3.90 
  -5  -1  13    5.46    4.94 
   5   1  13    1.42    6.33 
   5  -1 -13    1.25    4.14 
   5  -1 -13    1.74    7.82 
  -5   1 -13    3.75    4.75 
   5   1 -13   -3.25    3.91 
  -5   1 -13    1.09    4.59 
  -5  -1 -13   -0.27    4.18 
  -6   1  13    3.58    4.39 
   6  -1  13   -4.05    6.68 
   6  -1 -13    8.08    5.11 
  -6  -1  13    1.60    4.67 
  -6   1 -13    2.71    5.29 
  -6  -1 -13   -5.30    3.78 
   6   1 -13    2.29    4.89 
  -6  -1  13    4.03    5.63 
  -6  -1  13   -8.90    4.32 
  -6  -1 -13   -1.51    4.80 
  -6   1 -13    2.02    3.68 
   6   1  13    6.93    8.50 
   6  -1 -13    0.22    7.17 
  -6   1  13   -0.57    6.45 
  -7  -1  13    3.90    6.29 
   7  -1 -13    7.56    5.46 
   7   1 -13   -5.38    3.68 
  -7  -1  13   -2.74    5.15 
  -7   1  13    3.12    6.42 
  -7  -1  13    3.02    5.17 
  -7   1  13   10.75    5.31 
  -7  -1 -13   -0.99    4.55 
  -7   1 -13    1.36    4.47 
   7   1  13   -1.97    7.81 
  -7  -1 -13   -3.08    5.22 
  -7   1 -13    2.62    5.60 
   7  -1 -13    4.75    7.92 
   7  -1  13    2.91    7.82 
  -8   1 -13    8.08    7.23 
  -8  -1  13   -0.43    5.64 
   8  -1 -13   -0.91    5.45 
   8   1  13   -6.75    6.13 
  -8  -1 -13   -2.62    5.20 
  -8   1  13    0.71    7.31 
  -8  -1 -13   -6.72    5.81 
   8   1 -13    3.93    5.76 
  -8   1  13   11.79    6.43 
  -8  -1  13    8.51    7.68 
   8  -1  13   14.76   10.21 
  -8  -1  13    1.88    4.94 
  -8   1  13    1.82    7.40 
  -8   1 -13    1.84    5.10 
   0  -2  13   28.78    7.50 
   0   2 -13   19.51    6.17 
   0   2 -13   18.28    6.50 
   0  -2 -13   18.86    6.66 
   0   2  13   17.62    6.52 
   0  -2  13   20.70    7.55 
  -1  -2 -13  122.74   13.76 
   1  -2 -13  129.14   13.96 
  -1   2 -13  113.52   13.19 
   1  -2  13  129.07   14.22 
   1   2  13  124.08   13.20 
   1  -2 -13  121.84   12.35 
   1   2 -13  132.18   14.83 
   1  -2  13  142.77   14.29 
  -1   2 -13  107.59   13.68 
  -1   2  13  111.13   14.50 
  -1  -2  13  153.35   16.36 
   1   2  13  113.72   12.50 
   2  -2  13    5.83    5.42 
  -2  -2 -13    8.22    5.05 
   2   2 -13   12.44    6.17 
  -2   2  13   14.01    7.55 
  -2  -2 -13    8.02    5.08 
   2   2  13    7.04    6.35 
   2  -2 -13   11.58    6.05 
  -2  -2  13    7.59    6.10 
   2  -2 -13    6.98    5.26 
   2   2  13    7.75    5.25 
  -2   2 -13   10.47    4.98 
   2  -2  13   16.81    7.28 
  -2   2  13   15.50    5.63 
  -2   2 -13   14.55    6.52 
   3   2 -13   27.94    8.28 
  -3   2 -13   33.03    8.16 
  -3   2  13   15.98    6.22 
  -3  -2 -13   35.34    8.36 
   3   2  13   31.06    9.80 
   3   2  13   28.72    7.28 
   3  -2 -13   31.66   10.37 
  -3   2 -13   32.12    8.66 
  -3  -2 -13   27.09    7.36 
  -3   2  13   36.87   10.08 
   3  -2  13   36.10    8.43 
   3  -2 -13   29.74    7.30 
  -3  -2  13   22.44    8.10 
   3  -2  13   27.64    9.01 
  -4  -2  13   14.70    7.12 
  -4   2 -13   10.25    5.18 
  -4  -2 -13    1.12    4.45 
  -4   2  13    3.20    6.03 
   4   2 -13    9.93    5.59 
  -4  -2 -13   -1.23    4.36 
  -4  -2  13   12.92    5.80 
   4  -2  13    7.70    5.26 
  -4   2 -13    0.79    5.60 
  -4  -2  13    6.64    5.77 
   4  -2  13   11.81    7.53 
   4  -2 -13   13.63    5.73 
  -4   2  13    2.46    4.53 
   4   2  13   20.43    9.23 
   4  -2 -13   12.01    8.31 
  -5   2 -13  115.25   14.07 
  -5  -2  13  114.13   15.09 
   5  -2  13  114.95   11.45 
  -5  -2 -13  115.76   14.28 
   5  -2 -13  106.77   12.63 
  -5  -2  13  118.84   15.11 
   5  -2  13  129.34   17.38 
  -5   2  13  119.52   17.36 
   5   2  13   93.25   16.31 
   5   2 -13   92.77   13.07 
   5  -2 -13  131.21   17.44 
  -5  -2  13  139.52   15.52 
  -5  -2 -13   99.97   13.07 
  -5   2  13  104.81   13.72 
  -5   2 -13  108.86   13.99 
  -6  -2 -13    6.92    5.71 
  -6   2  13    6.00    7.04 
  -6   2 -13    1.58    4.25 
  -6   2 -13    5.48    5.97 
  -6   2  13    3.44    5.25 
   6  -2 -13    4.00    4.64 
   6  -2  13   10.64    9.30 
  -6  -2  13   10.93    7.40 
  -6  -2  13    1.54    4.25 
   6   2  13   11.55    9.29 
   6  -2 -13   17.61    9.37 
  -6  -2  13   -3.16    6.00 
   6   2 -13    8.46    6.11 
  -6  -2 -13   11.48    5.74 
   7   2  13    6.32    8.65 
   7  -2 -13   10.60   10.10 
   7  -2 -13   20.39    7.13 
  -7   2  13   23.00    8.08 
  -7  -2 -13    8.83    7.50 
  -7   2 -13   23.20    8.71 
  -7   2  13   17.53    9.20 
   7  -2  13   15.73    9.44 
  -7  -2 -13   19.44    7.28 
   7   2 -13   21.55    7.77 
  -7  -2  13   20.36    8.19 
  -7  -2  13   34.93   10.08 
  -7  -2  13   20.90    6.77 
  -7   2 -13   25.71    8.15 
  -8   2  13    4.46    5.33 
   8   2  13   14.20    9.91 
  -8  -2  13    2.75    7.65 
  -8   2 -13   16.78    7.06 
   8  -2 -13    3.61    5.69 
  -8  -2  13    1.94    5.16 
   8  -2  13    7.77    8.88 
  -8   2 -13   11.91    6.75 
  -8   2  13   -0.29    6.83 
   8  -2 -13   10.06    9.32 
  -8  -2 -13    8.66    7.44 
  -8  -2 -13    3.08    5.38 
  -8  -2  13    2.40    6.54 
   8   2 -13    4.42    6.26 
   0  -3 -13   44.53    9.19 
   0  -3 -13   39.77    7.94 
   0   3 -13   32.23    8.11 
   0  -3  13   48.06    9.40 
   0  -3  13   45.74    9.91 
   0   3  13   29.77    8.01 
   0   3 -13   29.22    7.93 
  -1   3 -13    8.71    5.49 
  -1  -3  13    2.37    5.36 
   1  -3 -13    5.42    4.74 
   1  -3  13    6.65    5.89 
  -1  -3 -13   10.49    5.49 
   1  -3  13   -2.00    5.61 
   1   3 -13    4.41    4.71 
  -1   3  13    1.23    5.14 
  -1   3  13   -4.10    3.74 
   1   3  13    8.91    5.14 
  -1   3 -13   11.09    5.42 
   1  -3 -13    6.06    5.25 
   1   3  13   11.03    6.60 
  -2   3 -13   21.18    7.33 
  -2   3 -13   34.08    7.82 
   2   3  13   26.20    6.95 
   2  -3  13   33.91    9.52 
   2  -3 -13   30.58    8.34 
  -2  -3 -13   32.62    8.31 
  -2  -3  13   30.26    9.20 
   2   3 -13   17.71    6.93 
   2   3  13   35.57   10.04 
   2  -3  13   10.28    5.89 
  -2   3  13   19.01    7.88 
  -2  -3 -13   23.06    7.13 
  -2   3  13   26.48    7.48 
   2  -3 -13   36.83    8.17 
   3  -3  13   -1.05    4.39 
  -3  -3  13   -1.97    5.00 
   3   3  13    6.04    4.44 
   3  -3  13    2.46    6.35 
  -3   3 -13    1.72    5.06 
  -3   3 -13    1.89    4.22 
  -3   3  13   10.14    6.95 
  -3   3  13   10.51    5.23 
   3  -3 -13    5.67    6.17 
  -3  -3 -13    2.09    3.84 
   3   3 -13    0.62    4.96 
   3  -3 -13   -2.27    3.55 
  -3  -3 -13    6.02    4.97 
   3   3  13   11.02    7.44 
  -4  -3 -13    7.11    5.21 
  -4   3 -13    4.72    4.25 
  -4  -3  13    1.34    5.93 
   4   3  13   10.99    8.36 
   4  -3 -13    5.12    4.24 
  -4   3  13   -0.32    6.57 
  -4   3 -13    4.18    5.40 
   4  -3  13   10.47    5.27 
  -4  -3 -13    2.64    4.22 
   4  -3  13    9.57    7.75 
  -4   3  13    3.94    4.81 
   4  -3 -13    3.17    7.08 
   4   3 -13    2.43    4.37 
  -5   3  13    2.22    6.58 
  -5   3  13   -1.27    3.50 
   5  -3 -13   16.57    8.92 
   5  -3  13   -4.83    3.73 
  -5   3 -13    8.42    4.85 
  -5  -3  13    5.08    6.39 
  -5  -3 -13    8.70    5.39 
  -5  -3 -13    2.72    4.95 
   5  -3 -13    6.19    4.27 
   5  -3  13    1.90    7.18 
  -5  -3  13   -6.29    4.41 
   5   3 -13    5.86    4.90 
  -5  -3  13   12.58    5.62 
  -5   3 -13    7.55    6.16 
   5   3  13   -2.74    7.16 
  -6   3  13   54.89    9.98 
  -6  -3  13   86.81   13.79 
   6  -3  13   60.94   14.34 
  -6  -3 -13   37.84    8.85 
  -6  -3 -13   54.67   10.13 
   6  -3 -13   51.28    9.49 
   6   3 -13   51.58   11.15 
  -6   3 -13   72.47   13.00 
   6   3  13   75.25   16.26 
  -6  -3  13   52.81   11.55 
  -6   3  13   37.73   11.32 
  -6   3 -13   59.91   11.12 
   6  -3 -13   48.49   12.76 
  -6  -3  13   58.51   11.34 
   7   3  13   -6.23    6.17 
  -7  -3 -13    0.65    4.15 
  -7   3  13    6.37    5.75 
   7  -3 -13    2.72    4.37 
   7  -3 -13   -5.88    7.10 
  -7  -3  13   -1.23    6.06 
  -7   3 -13   -4.30    3.83 
  -7  -3 -13    8.33    6.73 
  -7  -3  13   -1.81    5.33 
  -7  -3  13   -2.20    5.64 
   7   3 -13    6.21    6.06 
   7  -3  13    3.87    8.98 
  -7   3 -13    2.00    5.10 
  -7   3  13    0.83    6.73 
  -8  -3 -13    2.45    6.11 
  -8  -3  13   -1.74    4.84 
   8   3 -13    2.28    6.23 
  -8   3 -13    1.39    5.19 
  -8   3 -13   -0.07    6.12 
   8  -3 -13    9.74    5.39 
  -8   3  13    1.42    4.98 
   8  -3 -13   -6.68    8.46 
  -8  -3  13   -1.80    5.98 
   8   3  13  -11.27    7.22 
  -8  -3 -13    9.11    5.32 
  -8  -3  13   17.39    8.46 
  -8   3  13    0.23    7.13 
   8  -3  13   11.48    9.37 
   0  -4 -13    6.81    4.98 
   0   4  13    8.83    6.20 
   0  -4  13   24.09    7.37 
   0  -4 -13   27.52    6.78 
   0   4 -13   16.88    6.28 
   0  -4  13   11.45    5.83 
   0   4 -13   13.70    5.83 
   1  -4  13   21.49    7.40 
  -1   4 -13   31.03    8.15 
  -1   4  13   24.04    7.72 
   1  -4 -13   25.85    7.14 
  -1   4 -13   27.67    7.37 
   1   4  13   22.54    8.08 
  -1   4  13   25.29    7.93 
   1  -4 -13   15.02    6.85 
   1  -4  13   27.38    8.31 
   1   4 -13   15.60    6.71 
  -1  -4 -13   26.37    7.08 
  -1  -4  13   27.30    8.63 
   1   4  13   17.35    6.62 
  -1  -4 -13   18.30    6.41 
   2   4  13   12.74    8.07 
  -2   4  13    5.52    5.07 
   2  -4  13    4.62    5.11 
   2   4  13   15.09    5.46 
  -2   4 -13   10.36    6.13 
   2  -4 -13   10.78    5.89 
   2   4 -13    3.64    5.31 
  -2  -4 -13    4.88    5.35 
   2  -4  13   15.36    7.12 
  -2   4 -13    7.55    5.23 
  -2   4  13   14.80    7.95 
  -2  -4  13    7.10    6.11 
   2  -4 -13   12.16    5.33 
   3   4 -13    1.94    5.73 
   3  -4  13    3.11    5.03 
   3  -4 -13    2.21    4.38 
  -3  -4  13   -2.91    4.62 
   3  -4 -13    5.55    5.75 
   3  -4  13    4.83    6.49 
   3   4  13    6.12    3.84 
  -3  -4 -13    3.78    3.88 
  -3   4 -13   -1.35    4.78 
  -3   4 -13    0.86    3.84 
  -3   4  13    6.95    6.32 
  -3   4  13    1.01    4.33 
  -3  -4 -13    3.76    4.88 
   3   4  13    1.59    7.02 
  -4   4 -13   12.13    5.01 
   4  -4 -13   14.75    5.29 
  -4   4 -13   12.70    6.69 
   4  -4  13    5.95    6.65 
   4  -4 -13   -0.02    5.69 
  -4   4  13    3.78    4.58 
  -4  -4 -13    8.11    4.86 
   4   4 -13   13.81    6.61 
   4  -4  13   14.96    5.66 
  -4  -4 -13   15.70    6.30 
   4   4  13    8.91    8.91 
  -4  -4  13   11.28    6.61 
  -4   4  13    0.37    6.66 
  -5  -4  13   21.90    9.05 
   5   4 -13   35.08    8.63 
   5  -4  13   23.33   10.14 
  -5  -4 -13   16.66    6.58 
   5   4  13   49.29   12.96 
   5  -4  13   33.86    7.63 
  -5  -4 -13   23.79    7.45 
  -5   4 -13   29.70    7.63 
  -5   4 -13   26.35    8.36 
  -5   4  13   24.93    7.56 
   5  -4 -13   22.90    9.25 
  -5   4  13   16.33    9.20 
   5  -4 -13   21.81    6.22 
  -6   4 -13   15.06    6.44 
   6  -4 -13   15.91    5.85 
  -6  -4  13    5.36    6.13 
  -6   4  13   10.18    5.41 
   6  -4  13    9.28    8.26 
  -6   4 -13   14.17    7.67 
  -6  -4 -13    8.48    6.28 
   6   4 -13    6.36    5.75 
  -6   4  13   -0.14    7.42 
   6   4  13    9.30    9.56 
  -6  -4 -13    9.22    5.32 
  -6  -4  13   23.57    9.23 
   6  -4 -13    4.82    7.20 
   7  -4  13    9.06    8.10 
   7  -4 -13   -3.89    7.86 
  -7  -4  13    1.95    5.75 
  -7  -4  13    6.42    6.91 
   7   4  13    4.16    9.11 
  -7   4  13    9.53    7.29 
   7  -4 -13    0.72    4.31 
  -7   4  13    3.70    5.06 
  -7  -4  13  -10.03    5.29 
  -7  -4 -13   -2.27    5.22 
  -7   4 -13    8.84    5.94 
  -7  -4 -13    8.94    5.34 
   7   4 -13   -0.19    5.36 
  -7   4 -13    4.39    6.89 
   8  -4  13   14.30    9.66 
  -8  -4  13    2.47    5.34 
  -8   4 -13    8.75    5.50 
   8  -4 -13    1.54    4.19 
  -8  -4  13    5.56    7.69 
  -8   4  13   -4.48    6.66 
   8   4  13   21.56   10.69 
  -8  -4 -13    3.40    6.69 
  -8   4 -13   -2.50    6.42 
   8   4 -13    7.56    7.09 
   8  -4 -13    3.75    8.71 
  -8   4  13    3.51    5.48 
  -8  -4 -13    3.62    5.63 
   0   5 -13    7.52    6.21 
   0  -5 -13    5.66    4.64 
   0  -5 -13   10.85    6.15 
   0  -5  13    2.99    5.00 
   0   5 -13    7.23    5.87 
   0   5  13   11.69    5.98 
  -1  -5 -13   -4.02    3.29 
  -1  -5  13   -1.47    5.16 
   1   5  13   -6.09    5.00 
  -1   5  13    3.96    5.29 
   1  -5  13    2.17    4.71 
   1   5 -13   -2.55    4.34 
   1  -5 -13   -1.64    3.60 
  -1   5  13    4.36    5.46 
   1  -5 -13    3.87    5.06 
   1  -5  13    4.71    6.60 
   1   5  13   -3.78    4.12 
  -1  -5 -13    5.35    4.99 
  -1   5 -13    1.58    5.22 
  -1   5 -13    0.45    3.72 
   2   5  13   79.26   10.19 
   2  -5 -13   67.85   10.20 
  -2   5  13   49.88   11.45 
   2  -5  13   52.77   11.35 
   2  -5 -13   68.88   11.60 
   2   5 -13   58.45   11.27 
   2   5  13   78.25   14.29 
  -2   5 -13   64.74   11.32 
   2  -5  13   62.28   11.24 
  -2   5  13   57.91   11.67 
  -2  -5  13   62.06   12.19 
  -2  -5 -13   45.76    9.47 
  -2   5 -13   51.83   10.14 
  -3   5 -13    0.70    4.09 
   3  -5 -13    5.80    6.17 
  -3   5 -13   -0.92    4.87 
  -3   5  13    5.41    6.41 
   3  -5  13   -7.00    5.43 
   3  -5  13   -0.28    4.97 
  -3  -5 -13   -1.62    3.98 
  -3   5  13   -6.66    4.00 
   3   5 -13    2.86    5.46 
   3  -5 -13    6.59    4.15 
   3   5  13    0.81    7.09 
  -3  -5  13    0.17    5.75 
  -4  -5 -13    0.10    4.15 
  -4  -5 -13   -2.01    3.31 
  -4   5  13   -2.73    5.57 
   4   5  13    2.18    8.53 
  -4   5  13    6.24    5.23 
   4   5 -13    4.80    5.85 
  -4   5 -13    0.88    5.79 
   4  -5  13    4.07    4.95 
   4  -5 -13   -4.53    4.73 
  -4   5 -13   -1.73    3.64 
  -4  -5  13   -6.35    5.28 
   4  -5  13    3.15    7.03 
   4  -5 -13   14.74    5.09 
   5  -5 -13    4.52    3.78 
   5  -5  13   -3.79    6.70 
   5   5  13   -4.96    8.03 
  -5   5 -13    4.30    4.49 
   5   5 -13    4.54    5.67 
  -5  -5  13   -1.06    5.49 
   5  -5  13   -0.12    4.47 
  -5  -5 -13   -3.07    4.27 
  -5   5 -13   -3.43    5.26 
   5  -5 -13    8.83    7.86 
  -5  -5 -13   -2.12    4.17 
  -5   5  13    5.29    4.35 
  -5   5  13  -11.96    3.73 
  -6  -5 -13    3.17    5.80 
  -6   5 -13    4.11    6.08 
   6  -5  13    8.96    5.11 
   6  -5 -13   10.03    5.17 
  -6   5  13   10.77    6.27 
   6  -5 -13   10.99    9.14 
  -6   5 -13    1.01    4.76 
   6   5 -13    5.15    5.87 
  -6  -5  13   10.94    7.19 
  -6   5  13    4.26    7.38 
  -6  -5 -13   13.85    5.96 
   6  -5  13    6.51    6.68 
   6   5  13    3.14    8.97 
  -7  -5  13   -0.67    6.04 
  -7  -5  13    1.94    5.75 
   7  -5  13   -2.59    7.23 
   7  -5 -13   -6.05    4.14 
  -7   5 -13   -0.40    5.98 
  -7   5  13   10.20    8.04 
   7  -5 -13   11.05    8.01 
   7   5 -13   -4.29    4.90 
  -7   5 -13   -3.11    3.87 
  -7  -5 -13    2.75    5.69 
   7   5  13   -3.40    8.31 
  -7   5  13   -8.90    3.28 
  -7  -5 -13   -4.49    3.86 
   8   5  13    0.67    8.72 
  -8   5  13    2.43    5.13 
  -8   5  13    6.66    7.63 
  -8  -5 -13   14.58    8.70 
  -8   5 -13    2.90    7.01 
  -8  -5  13    1.73    7.21 
   8  -5 -13    2.57    7.70 
  -8  -5 -13    8.10    6.19 
  -8   5 -13    3.84    5.03 
   8   5 -13   11.16    7.72 
   8  -5  13    2.08    8.23 
   0   6  13    2.02    5.87 
   0   6 -13   18.50    6.37 
   0   6 -13   27.56    7.91 
   0  -6  13   22.90    7.64 
   0  -6 -13   21.74    5.66 
   0  -6 -13    7.36    5.43 
  -1   6 -13  123.18   15.00 
   1   6  13  135.43   14.67 
   1  -6 -13  136.54   14.15 
  -1   6  13  146.74   17.59 
  -1   6  13  114.90   16.01 
   1   6 -13  122.15   15.80 
   1   6  13  162.06   18.31 
   1  -6 -13  126.88   12.76 
  -1  -6 -13  155.37   15.05 
  -1  -6 -13  133.57   13.51 
   1  -6  13  112.40   14.42 
  -1  -6  13  130.90   15.90 
  -2  -6 -13    9.94    5.18 
  -2  -6  13    0.93    4.93 
   2   6  13   13.79    5.23 
   2  -6 -13    6.03    4.01 
  -2   6 -13    8.59    4.86 
   2  -6 -13    2.31    5.39 
   2   6 -13    1.48    4.77 
  -2   6  13    6.00    5.75 
  -2   6 -13    5.32    5.31 
   2  -6  13    3.94    5.12 
  -2   6  13    6.62    5.57 
   2  -6  13   11.57    7.08 
  -2  -6 -13    5.24    5.38 
   2   6  13   -7.63    5.85 
  -3   6  13   43.63   11.14 
  -3   6 -13   44.96   10.47 
   3  -6  13   45.39    9.37 
  -3  -6  13   41.35   10.34 
  -3   6  13   27.02    8.57 
  -3   6 -13   42.58    9.27 
  -3  -6 -13   52.21    9.75 
   3  -6  13   55.51   12.21 
   3   6  13   40.70   12.59 
   3   6 -13   41.37   10.35 
   3  -6 -13   47.36    8.62 
   3  -6 -13   44.12   10.56 
  -4   6  13    4.00    5.12 
  -4  -6 -13    3.48    5.02 
   4  -6  13   14.40    5.44 
  -4   6 -13   13.98    6.86 
   4  -6 -13   17.54    4.98 
   4  -6  13   18.56    8.43 
  -4  -6  13   11.61    6.53 
   4   6  13   13.38    9.28 
  -4   6  13   10.71    7.41 
   4   6 -13   18.32    7.50 
  -4   6 -13   12.61    5.47 
   4  -6 -13   18.72    7.96 
   5   6 -13  100.38   14.96 
   5  -6  13   98.16   16.63 
  -5  -6 -13  101.01   13.27 
  -5  -6  13  117.23   15.67 
   5  -6  13  108.32   13.03 
   5  -6 -13  115.30   16.07 
  -5   6 -13   82.58   13.62 
  -5   6 -13   94.23   13.21 
   5   6  13  121.13   20.60 
  -5   6  13   84.00   15.47 
  -5   6  13   90.36   13.47 
   6  -6  13   -8.95    6.34 
  -6  -6  13    1.78    5.95 
   6  -6 -13   -4.51    5.36 
   6   6  13    2.32    8.64 
  -6  -6 -13   -4.14    4.45 
  -6   6  13   -6.25    3.81 
  -6   6 -13    8.22    5.03 
   6   6 -13    8.87    5.57 
  -6   6 -13    2.48    5.94 
   6  -6  13    1.98    4.16 
  -6   6  13    8.09    7.78 
  -6  -6 -13    0.09    4.43 
   7   6 -13   27.46    8.99 
  -7   6  13   34.91    9.11 
  -7   6 -13   41.03   10.71 
   7  -6  13   31.46   11.00 
  -7  -6  13   19.03    8.72 
  -7   6  13   30.12   10.56 
  -7  -6 -13   29.42    9.60 
  -7   6 -13   43.41   10.04 
   7   6  13   29.78   13.05 
  -7  -6 -13   33.91    9.03 
   7  -6 -13   42.26   12.52 
  -8   6 -13    9.90    5.58 
   8  -6  13    5.56    8.41 
  -8  -6 -13   -0.16    6.54 
  -8   6 -13   -5.64    6.56 
   8   6  13    3.12    7.48 
   8   6 -13   15.30    7.46 
  -8  -6 -13   10.76    6.23 
   8  -6 -13    5.50    8.86 
  -8   6  13   11.73    5.92 
  -8   6  13    5.52    7.73 
   0   7 -13    6.83    6.07 
   0   7 -13    4.21    5.36 
   0  -7 -13   11.28    5.16 
   0   7  13    4.85    6.07 
   0  -7  13    1.83    5.37 
   0  -7 -13    7.34    6.31 
  -1  -7 -13    5.14    5.85 
  -1   7 -13    5.92    5.20 
  -1   7 -13    8.81    6.21 
   1  -7 -13    2.13    5.22 
  -1   7  13    5.21    5.14 
   1   7  13   -1.57    6.97 
   1   7  13   18.62    7.21 
   1   7 -13    7.88    6.54 
  -1  -7 -13   17.18    5.36 
   1  -7  13   -0.89    4.67 
  -1   7  13    4.65    6.18 
  -1  -7  13    8.09    6.22 
  -2   7 -13   37.77    8.97 
   2   7  13   25.10    7.12 
  -2  -7 -13   38.35    8.39 
   2   7  13   42.37   12.49 
  -2  -7  13   35.55    9.74 
   2  -7 -13   35.82    9.77 
  -2  -7 -13   33.57    9.18 
  -2   7  13   38.54   10.49 
  -2   7  13   22.36    8.59 
   2  -7  13   29.08    8.31 
   2   7 -13   30.68    8.52 
  -3   7 -13    8.66    6.16 
   3   7 -13   14.75    6.94 
  -3  -7  13    2.65    5.44 
   3  -7 -13    8.15    6.30 
   3   7  13    7.05    8.30 
  -3  -7 -13    1.61    4.97 
   3  -7  13    3.53    5.04 
  -3   7  13    1.42    5.58 
  -3  -7 -13   -0.63    5.38 
   3  -7  13   -0.74    6.22 
  -3   7  13   10.88    5.95 
  -3   7 -13    4.03    4.29 
   4  -7  13    5.13    4.74 
  -4  -7  13    5.53    5.86 
  -4   7 -13    9.33    4.96 
  -4   7 -13    5.89    6.26 
  -4   7  13    3.83    5.74 
   4   7 -13   -0.59    5.53 
   4  -7 -13   10.37    7.44 
  -4  -7 -13   -2.37    4.48 
  -4   7  13    5.87    6.20 
   4   7  13    3.67    8.50 
   4  -7  13   -2.46    6.54 
  -5   7  13    2.30    7.03 
   5  -7  13    2.03    4.95 
  -5   7 -13    4.12    6.28 
   5   7 -13    7.56    6.10 
  -5  -7 -13   -0.01    5.45 
  -5  -7  13   -2.09    5.54 
   5  -7 -13   12.72    8.64 
  -5   7  13    1.15    4.48 
   5  -7  13    6.93    7.58 
   5   7  13   11.65    9.56 
  -5   7 -13   -0.31    3.89 
  -6   7  13   49.59   12.74 
   6  -7 -13   68.07   14.36 
   6   7  13   52.31   14.95 
  -6   7 -13   60.99   11.04 
  -6  -7 -13   63.79   11.55 
  -6   7  13   54.83   10.95 
  -6  -7  13   45.19   11.38 
  -6   7 -13   60.79   12.56 
   6  -7  13   63.25   10.59 
   6   7 -13   52.59   11.24 
   6  -7  13   64.78   15.11 
  -7   7 -13    7.85    7.49 
  -7   7  13    0.83    6.70 
  -7   7  13    8.08    5.63 
  -7  -7 -13   -3.03    5.60 
   7   7 -13    0.88    6.41 
   7   7  13   -3.21    8.93 
   7  -7  13    3.54    9.60 
  -7   7 -13    5.66    4.97 
   7  -7 -13    5.04    8.38 
   0   8 -13   16.16    6.96 
   0  -8 -13    6.69    5.92 
   0   8 -13    3.91    5.48 
   0  -8  13   15.73    6.74 
   0   8  13    5.58    6.15 
   1   8  13   10.92    5.77 
   1   8  13   -5.47    7.05 
  -1   8  13    1.87    5.00 
  -1  -8  13    0.83    5.37 
  -1   8  13    4.30    5.16 
   1  -8  13   -2.81    5.20 
  -1   8 -13   -2.29    5.26 
   1   8 -13   -4.08    4.41 
  -1  -8 -13    0.54    5.46 
  -1   8 -13    5.73    6.13 
   1  -8 -13    1.42    5.81 
   2  -8  13   10.81    6.01 
  -2  -8  13    4.85    5.93 
   2   8 -13    9.40    6.29 
  -2   8 -13    8.86    6.70 
  -2  -8 -13   10.27    6.51 
  -2   8  13   10.57    6.67 
  -2   8  13    0.27    5.53 
   2   8  13    3.76    8.30 
  -2   8 -13   10.98    6.30 
   2  -8 -13    1.68    5.47 
   3  -8 -13   11.98    7.45 
   3  -8  13    2.50    5.14 
  -3   8 -13   11.52    8.19 
  -3   8 -13   10.10    6.81 
   3   8  13   18.15   10.14 
  -3   8  13   -4.15    4.92 
  -3  -8  13    4.52    6.30 
   3   8 -13    3.24    6.38 
  -3   8  13   12.21    7.69 
  -3  -8 -13    7.36    7.18 
  -4   8 -13    6.60    6.38 
   4   8  13   10.59    9.39 
   4  -8  13   13.90    6.08 
  -4   8  13    8.23    4.76 
   4   8 -13   12.49    6.36 
  -4   8 -13    6.93    5.18 
  -4  -8 -13   12.38    6.70 
  -4   8  13   12.47    7.41 
  -4  -8  13    7.79    6.22 
   4  -8  13   13.06    8.33 
   4  -8 -13   12.82    6.66 
   5  -8  13   -1.93    4.77 
  -5  -8  13    7.05    7.02 
  -5  -8 -13    5.22    6.04 
   5  -8 -13   21.11    9.05 
   5   8  13    8.11    9.73 
  -5   8  13    0.37    4.43 
   5  -8  13   -2.03    6.49 
  -5   8 -13   12.12    5.94 
  -5   8  13    0.09    6.46 
  -5   8 -13   12.71    7.53 
   5   8 -13    7.31    6.44 
  -6   8  13   -0.91    4.86 
  -6   8  13    0.98    7.86 
   6  -8  13    8.12    8.34 
  -6  -8  13   -3.85    5.07 
   6   8 -13   -6.66    4.93 
  -6   8 -13    4.10    4.45 
   6  -8  13    9.46    5.29 
   6  -8 -13    3.33    6.33 
  -6  -8 -13    1.60    5.88 
  -6   8 -13    7.42    7.75 
   6   8  13    6.85    9.73 
   7  -8 -13   17.79    9.32 
   7   8 -13    7.05    6.30 
  -7   8 -13    6.08    5.43 
   7   8  13    2.73    9.09 
  -7   8  13    4.44    5.21 
   7  -8  13    1.57    7.89 
  -7   8  13    2.62    7.41 
  -7  -8 -13    7.61    6.44 
  -7   8 -13   10.07    8.02 
   0  -9 -13   42.79   10.94 
   0  -9  13   32.68    9.14 
   0   9 -13   55.25   12.16 
   0   9  13   45.91    9.96 
   0   9 -13   45.66   11.21 
  -1  -9 -13    1.02    5.69 
  -1   9 -13    9.20    7.11 
   1   9 -13    7.85    6.03 
   1  -9 -13    8.61    6.66 
   1   9  13    4.29    5.57 
  -1  -9  13    3.66    5.71 
  -1   9  13    6.02    6.22 
   1  -9  13    2.78    5.36 
  -1   9 -13    1.68    5.51 
   2  -9 -13   95.26   13.61 
  -2   9  13   68.32   12.87 
  -2   9 -13   64.47   12.02 
  -2  -9  13   65.77   12.09 
   2   9 -13   73.83   12.97 
  -2   9  13   52.80   11.89 
   2   9  13   36.66   12.67 
  -2   9 -13   77.94   14.32 
  -2  -9 -13   74.24   13.13 
   2  -9  13   65.15   11.70 
   3   9 -13   -0.94    5.54 
  -3   9  13   -1.06    6.40 
  -3  -9  13    9.03    6.74 
  -3   9 -13    1.84    5.57 
   3  -9  13    1.49    5.47 
   3   9  13    2.17    7.77 
  -3   9  13    6.80    5.80 
  -3   9 -13    0.92    6.90 
   3  -9 -13    1.78    6.66 
  -3  -9 -13   -1.58    6.22 
  -4  -9  13   11.94    7.59 
  -4   9 -13   21.89   10.29 
   4  -9  13   10.83    6.63 
  -4   9  13   12.42    6.54 
   4  -9 -13   10.49    7.77 
  -4  -9 -13   26.61    9.36 
   4   9 -13   11.61    6.82 
  -4   9 -13   17.42    8.32 
  -4   9  13   12.84    8.08 
   4   9  13   17.74   10.76 
   5   9  13    9.33    8.70 
  -5  -9  13    7.69    7.12 
  -5   9 -13   -7.89    5.66 
   5  -9  13    5.66    5.90 
   5   9 -13    4.43    6.38 
   5  -9 -13    0.03    7.22 
  -5   9  13   -6.82    4.61 
  -5   9  13    6.80    6.99 
  -6   9 -13   34.34   10.83 
  -6   9  13   19.47    9.58 
  -6   9 -13   23.80    7.96 
   6  -9  13   20.55   10.02 
   6  -9 -13   21.93    9.72 
  -6   9  13   24.65    8.70 
   6   9  13   21.41   12.43 
   6  -9  13   26.80    8.20 
   6   9 -13   29.77    9.02 
  -6  -9  13   15.97    7.69 
   0 -10 -13   10.61    6.49 
   0  10 -13   22.17    7.70 
   0  10 -13   26.84    8.46 
   0  10  13   17.16    7.11 
   0 -10  13    8.42    5.51 
  -1  10  13   62.96   11.99 
   1  10 -13   70.58   12.53 
   1 -10  13   42.90   10.38 
  -1  10 -13   70.78   12.71 
  -1 -10  13   46.75   10.82 
  -1  10 -13   69.12   14.01 
   1  10  13   64.81   11.69 
   1 -10 -13   62.00   12.70 
  -1 -10 -13   48.54   11.86 
   2  10  13   -8.88    7.65 
   2 -10  13   18.94    7.41 
  -2  10  13   14.86    7.04 
  -2 -10 -13    1.65    6.40 
  -2  10 -13   21.78    8.43 
  -2  10  13    3.41    6.13 
   2 -10 -13   -7.66    4.72 
  -2 -10  13   12.66    7.19 
  -2  10 -13    4.78    5.94 
   2  10 -13   20.23    7.58 
  -3  10 -13   24.83    9.45 
  -3 -10  13    4.34    6.60 
   3  10  13   14.01   10.56 
  -3  10  13   21.42    8.24 
  -3  10  13   12.04    7.06 
   3 -10  13   14.23    7.54 
   3  10 -13   15.28    7.89 
   3 -10 -13   21.05    9.89 
  -3 -10 -13   21.72    8.88 
  -3  10 -13   14.61    8.00 
   4 -10  13   18.16    6.47 
  -4  10 -13   13.77    6.82 
  -4 -10  13    3.89    6.46 
   4 -10 -13    3.57    5.78 
   4  10  13   -0.09    8.24 
  -4  10  13    9.92    7.92 
  -4  10  13   13.27    6.28 
   4  10 -13   13.09    6.86 
  -4 -10 -13   13.59    7.97 
  -4  10 -13    5.55    8.38 
  -5 -10  13   53.32   11.92 
   5  10  13   53.64   14.40 
   5 -10 -13   55.23   13.21 
   5  10 -13   46.92   11.34 
  -5  10  13   28.17   10.37 
   5 -10  13   53.11   10.81 
  -5 -10 -13   44.99   11.14 
  -5  10 -13   85.87   17.14 
  -5  10  13   35.49    9.82 
   0 -11 -13   13.72    8.22 
   0  11 -13    8.86    7.66 
   0  11  13    4.86    6.79 
   0 -11  13    3.75    6.12 
   0  11 -13   12.42    7.46 
   1 -11  13    7.71    6.25 
  -1  11  13   -1.12    6.05 
   1  11 -13   -0.54    6.39 
  -1  11 -13    0.07    6.16 
   1 -11 -13    5.24    7.56 
  -1  11 -13    8.30    7.22 
  -1 -11  13    5.61    6.10 
  -1 -11 -13    0.93    6.76 
  -2  11 -13   24.19   10.09 
   2 -11  13   12.80    7.05 
  -2 -11 -13   17.22    8.68 
  -2 -11  13   18.30    7.90 
  -2  11  13    9.72    7.07 
   2 -11 -13   25.42   10.29 
  -2  11  13   26.48    9.11 
   2  11  13   28.66   12.02 
   2  11 -13   27.44    9.05 
  -3 -11 -13    2.64    7.15 
  -3 -11  13   -2.51    5.60 
   3  11  13   -5.10    7.90 
   3 -11  13    2.79    6.11 
   3 -11 -13   14.04    8.25 
   3  11 -13    8.31    6.38 
  -3  11 -13    9.99    8.98 
  -3  11  13    3.87    6.94 
  -3  11  13    2.69    5.34 
   4 -11 -13   27.67    9.56 
  -4 -11  13   16.26    8.33 
  -4 -11 -13   25.81    9.70 
   4  11 -13   19.43    8.63 
   4 -11  13   19.95    7.83 
  -4  11  13   24.75    8.82 
  -4  11  13   22.75    8.20 
  -4  11 -13   37.52   12.29 
   4  11  13   26.99   12.27 
   5  11 -13   -2.93    6.56 
   5 -11 -13    3.52    7.04 
  -5 -11  13    3.76    6.26 
  -5  11 -13    2.74    7.86 
   5 -11  13   21.20    7.48 
  -5  11  13    7.96    5.98 
  -5 -11 -13   -4.88    5.94 
  -5  11  13    8.78    8.30 
   5  11  13    5.73    9.80 
   0 -12 -13    8.11    7.82 
   0  12  13    9.76    6.63 
   0 -12  13    9.96    6.58 
   0  12 -13   21.69    9.70 
   1 -12  13   -0.51    5.02 
  -1 -12 -13    3.31    7.03 
  -1 -12  13    0.61    6.17 
   1 -12 -13    0.28    7.39 
  -1  12  13    5.80    6.51 
  -1  12 -13    6.30    8.30 
  -2  12  13    9.41    7.39 
  -2  12  13    4.05    6.44 
   2 -12  13    6.65    6.66 
  -2  12 -13   10.05    8.93 
  -2 -12  13    8.14    6.72 
   2 -12 -13   12.07    7.90 
  -2 -12 -13    5.20    7.92 
   2  12  13   23.27   10.38 
  -3  12  13    3.88    5.47 
  -3 -12 -13    5.31    8.17 
  -3  12 -13   -0.35    8.51 
  -3  12  13    0.68    6.68 
   3 -12 -13   -5.18    6.26 
  -3 -12  13   -8.56    5.17 
   3 -12  13   -3.89    5.15 
   3  12  13    5.57    8.07 
  -4  12  13    5.06    6.85 
  -4 -12 -13    8.87    8.20 
  -4  12 -13   19.52   10.59 
   4  12  13    4.80    8.90 
   4 -12 -13    9.34    8.09 
   0  13 -13   66.05   15.70 
   0 -13 -13   60.67   13.90 
   0 -13  13   47.41   11.36 
  -1  13  13   -2.36    5.97 
  -1 -13  13   -4.96    5.12 
  -1  13 -13   -2.28    8.29 
   1 -13  13   -1.72    5.63 
  -1 -13 -13   -0.24    7.93 
   1 -13 -13   -1.61    7.14 
  -2  13  13   61.66   13.03 
  -2 -13  13   72.34   13.72 
   2 -13 -13   89.62   15.21 
   2  13  13   63.39   14.60 
   2 -13  13   61.60   12.40 
  -2  13 -13   68.20   15.24 
  -2 -13 -13   82.44   15.51 
   0   0  14  194.98   15.42 
   0   0 -14  183.25   14.77 
  -1   0  14   -2.24    4.69 
  -1   0 -14    1.68    4.20 
   1   0  14    2.20    5.59 
   1   0  14   -2.95    4.92 
   1   0 -14    0.98    4.24 
  -2   0 -14  702.65   31.60 
   2   0  14  743.70   32.25 
  -2   0 -14  789.97   33.06 
   2   0 -14  684.74   32.27 
   2   0  14  767.47   30.57 
  -2   0  14  752.59   33.86 
  -3   0  14    4.26    6.20 
   3   0 -14    1.15    4.46 
   3   0  14    0.91    5.51 
  -3   0 -14    2.91    3.72 
  -3   0 -14    4.22    4.52 
   3   0  14   -2.99    5.43 
  -4   0 -14   87.36   13.04 
   4   0  14  120.07   12.48 
   4   0  14  125.23   16.55 
  -4   0 -14  102.69   13.62 
   4   0 -14  136.52   16.76 
  -4   0  14  112.88   15.40 
  -4   0  14  143.79   16.30 
   4   0 -14   86.05   12.89 
  -5   0 -14    4.41    5.56 
  -5   0  14    3.16    4.56 
   5   0 -14    0.49    8.23 
   5   0  14   -2.06    5.68 
  -5   0  14    0.38    5.62 
  -5   0 -14   -2.74    4.29 
   5   0 -14    1.89    4.45 
  -6   0 -14  375.80   22.87 
  -6   0 -14  307.78   20.83 
   6   0  14  376.42   25.65 
   6   0 -14  325.33   23.43 
  -6   0  14  333.02   22.87 
   6   0 -14  373.43   21.90 
  -6   0  14  410.06   23.32 
  -7   0 -14    0.86    6.03 
  -7   0  14   -7.49    3.55 
  -7   0  14    7.88    6.56 
   7   0  14    8.89    8.98 
  -7   0 -14   -7.40    3.48 
  -7   0  14   -1.54    6.36 
   7   0 -14    7.07    5.66 
  -8   0  14   82.94   15.11 
   8   0 -14   39.58   10.02 
  -8   0  14   60.22   11.80 
  -8   0  14   61.70   12.44 
   8   0  14   67.07   16.12 
  -8   0 -14   46.51   11.81 
  -8   0 -14   58.35   11.88 
   0  -1 -14   14.07    5.43 
   0   1  14   22.43    6.84 
   0   1 -14   25.31    6.91 
   0  -1  14   29.05    8.02 
  -1  -1 -14    3.56    4.68 
   1   1 -14    0.66    4.30 
   1  -1  14    1.83    4.45 
  -1   1 -14    6.70    4.72 
  -1   1  14    8.89    5.96 
   1  -1  14   -2.43    5.35 
  -1  -1  14    8.13    5.87 
  -1   1 -14    0.97    4.45 
   1   1  14    5.57    4.86 
   1  -1 -14    1.33    4.12 
   1   1  14    9.47    5.54 
  -2   1 -14   42.84    8.33 
  -2  -1  14   49.56    9.31 
   2   1  14   52.83    9.65 
  -2  -1 -14   28.71    6.85 
   2  -1 -14   64.41    9.89 
  -2   1  14   47.75    9.24 
   2   1 -14   88.00   11.84 
  -2  -1 -14   25.70    7.20 
   2  -1  14   71.16   10.52 
   3   1 -14    4.56    5.07 
  -3  -1 -14    5.63    4.68 
   3  -1  14   20.76    6.57 
  -3   1  14   -4.48    5.23 
  -3   1  14    9.54    5.47 
   3   1  14    9.51    5.20 
  -3   1 -14    8.91    5.67 
  -3   1 -14    7.74    5.30 
  -3  -1 -14    5.30    4.73 
  -3  -1  14   16.02    7.57 
   3  -1  14    6.03    7.09 
   3   1  14   11.25    6.77 
   3  -1 -14    5.41    5.30 
  -4   1 -14    1.85    4.69 
  -4  -1 -14   14.64    5.80 
   4   1  14   12.58    7.65 
  -4  -1  14   14.22    5.68 
   4   1 -14   16.64    6.13 
   4  -1  14   26.83    9.14 
  -4   1 -14    6.92    4.85 
  -4  -1 -14    0.40    4.99 
   4  -1 -14   28.02    8.86 
  -4   1  14    8.39    6.68 
  -4   1  14    9.02    5.31 
   4  -1 -14   19.92    6.01 
   4   1  14   28.38    6.15 
  -4  -1  14   13.86    7.55 
   4  -1  14   22.77    6.06 
  -5   1  14   16.24    6.68 
  -5   1 -14    2.55    4.54 
  -5  -1 -14    3.22    4.20 
  -5  -1  14    1.55    6.22 
  -5  -1 -14    6.50    5.50 
   5   1 -14    9.99    6.15 
   5  -1 -14    8.10    4.82 
  -5   1  14    6.43    7.25 
   5  -1  14    7.27    7.25 
   5  -1 -14    7.68    8.33 
  -5   1 -14   -2.06    5.28 
  -5  -1  14    5.67    5.40 
   5   1  14    6.92    7.69 
  -6  -1 -14   22.20    8.05 
  -6  -1  14   22.61    6.68 
   6  -1  14   44.37   11.40 
   6   1  14   33.95   10.57 
  -6  -1  14   16.39    6.45 
   6   1 -14   46.02    8.59 
   6  -1 -14   45.37   10.72 
  -6  -1 -14   16.83    6.18 
  -6   1  14   24.23    8.81 
  -6   1  14   23.88    6.77 
  -6   1 -14   10.84    5.87 
   6  -1 -14   33.11    7.24 
  -6  -1  14   30.57    8.56 
  -6   1 -14    5.64    6.33 
  -7  -1  14    5.74    5.51 
  -7  -1  14  -11.41    5.03 
   7   1 -14   -4.55    4.40 
   7  -1  14    7.24    8.77 
  -7  -1  14    7.08    7.00 
  -7   1 -14   -4.02    5.50 
  -7   1  14    1.66    4.62 
  -7   1 -14    2.77    5.23 
   7  -1 -14    1.01    5.26 
  -7  -1 -14   11.43    5.66 
  -7   1  14    4.21    7.17 
  -7  -1 -14   16.08    7.77 
   7   1  14    6.45    8.75 
   7  -1 -14   -6.54    6.69 
  -8  -1  14   17.98    7.12 
  -8  -1 -14   12.09    8.02 
   8   1 -14    3.40    6.65 
  -8  -1 -14   -5.56    4.38 
   8   1  14   21.75   11.11 
  -8  -1  14   -4.04    6.86 
  -8   1  14    9.29    6.24 
   8  -1  14    7.37    8.77 
  -8   1 -14    5.08    5.83 
   8  -1 -14   21.39    7.12 
  -8  -1  14    5.53    7.48 
  -8   1  14   16.33    9.14 
  -8   1 -14   10.29    7.22 
  -8   1  14   26.62    8.80 
   0  -2  14  136.75   15.35 
   0   2  14  139.03   15.28 
   0   2 -14  140.05   15.36 
   0  -2 -14  152.61   13.07 
   1   2  14   -0.10    4.23 
   1   2  14    3.08    4.73 
   1  -2  14    3.11    4.18 
  -1   2  14    4.35    5.44 
  -1   2 -14   -5.56    4.15 
  -1   2 -14    2.29    3.70 
   1  -2  14    2.15    5.29 
   1   2 -14    0.36    3.88 
   1  -2 -14    4.44    5.07 
  -1  -2 -14    5.11    5.17 
  -1  -2  14   -1.01    5.04 
   2  -2  14  421.54   22.52 
  -2  -2 -14  394.87   22.28 
  -2   2 -14  422.02   23.68 
   2  -2 -14  418.66   22.98 
  -2  -2  14  438.19   24.36 
   2   2 -14  393.26   23.33 
   2   2  14  400.21   20.62 
  -2   2 -14  420.19   23.65 
   2  -2  14  434.34   22.63 
   2   2  14  419.63   23.56 
  -2   2  14  400.65   24.35 
  -3  -2 -14    4.98    4.71 
  -3  -2 -14    4.30    4.21 
   3   2  14    5.42    7.42 
   3   2  14   -1.69    3.94 
  -3   2 -14   -0.18    3.77 
   3  -2 -14    3.35    6.47 
  -3   2  14    1.87    5.62 
  -3  -2  14   -4.05    5.11 
   3   2 -14   -4.20    3.37 
   3  -2  14    5.31    5.14 
  -3   2 -14   -5.93    3.78 
   3  -2 -14    1.30    4.24 
   3  -2  14   -2.01    6.67 
  -3   2  14    1.35    3.70 
   4  -2 -14  197.96   15.02 
   4   2  14  196.52   21.03 
  -4   2  14  179.05   15.20 
   4   2 -14  173.63   17.28 
  -4   2 -14  182.28   17.43 
  -4  -2 -14  197.31   15.76 
  -4  -2 -14  180.79   14.73 
  -4   2  14  208.08   21.46 
  -4   2 -14  170.81   14.94 
   4  -2  14  175.61   15.88 
   4  -2 -14  204.96   19.39 
   4  -2  14  147.27   12.69 
  -4  -2  14  205.00   19.29 
   5  -2 -14    1.29    4.07 
  -5  -2  14   -3.12    5.69 
  -5   2  14    0.49    4.31 
   5  -2  14    5.63    7.64 
  -5  -2 -14   -2.20    4.01 
  -5   2 -14   -0.54    5.19 
   5   2  14    2.47    7.82 
   5  -2 -14    1.05    7.30 
  -5  -2  14   -0.80    4.98 
   5   2 -14    6.81    5.10 
  -5   2 -14    2.96    4.83 
  -5  -2 -14    1.20    4.49 
  -5   2  14    7.42    7.54 
  -6   2  14  355.97   22.24 
  -6  -2 -14  364.68   22.07 
  -6   2  14  379.67   25.59 
   6  -2 -14  342.27   24.11 
  -6  -2  14  475.69   25.05 
   6   2  14  344.80   25.79 
   6  -2 -14  350.64   20.51 
   6   2 -14  329.75   21.82 
  -6  -2  14  363.99   23.39 
  -6  -2 -14  417.28   23.33 
  -6   2 -14  331.82   22.11 
   6  -2  14  361.99   25.23 
  -6   2 -14  386.45   23.38 
  -6  -2  14  435.00   23.96 
   7   2  14   12.69    9.45 
   7  -2  14    0.83    8.08 
  -7  -2  14   12.17    7.09 
  -7  -2 -14    3.14    5.14 
   7   2 -14    4.88    5.33 
   7  -2 -14   -0.69    6.98 
   7  -2 -14    2.58    4.94 
  -7   2 -14   11.31    6.24 
  -7  -2  14    2.70    4.64 
  -7  -2 -14    2.74    5.91 
  -7   2 -14    5.33    6.45 
  -7   2  14   -0.11    6.59 
  -7  -2  14    3.35    5.64 
  -7   2  14    4.93    5.50 
   8  -2 -14  186.73   22.17 
  -8  -2 -14  195.55   19.69 
  -8  -2  14  197.63   17.45 
  -8  -2 -14  177.63   19.25 
   8   2  14  180.36   23.57 
   8  -2 -14  191.55   18.19 
   8   2 -14  185.01   19.24 
  -8   2  14  233.01   22.86 
   8  -2  14  220.12   24.04 
  -8   2  14  182.54   15.97 
  -8  -2  14  205.60   19.59 
  -8  -2  14  193.51   16.55 
  -8   2 -14  169.20   18.32 
  -8   2 -14  158.95   19.03 
   0  -3  14   38.53    8.14 
   0  -3 -14   36.58    7.70 
   0   3  14   18.89    5.81 
   0   3 -14   26.20    7.58 
   1  -3  14   -4.43    4.83 
  -1  -3  14   -3.80    4.37 
   1  -3  14    2.95    5.74 
  -1   3 -14    5.17    4.23 
  -1  -3 -14    6.28    5.17 
   1   3  14    5.29    4.91 
   1  -3 -14    0.55    3.65 
  -1   3 -14    0.06    4.63 
   1   3 -14    0.86    5.10 
  -1   3  14   -0.81    5.30 
  -2   3  14   28.42    8.46 
  -2   3 -14   61.19   10.20 
   2   3 -14   73.35   11.24 
   2  -3 -14   70.11    9.69 
   2  -3 -14   42.08    8.07 
   2   3  14   23.80    8.44 
  -2  -3 -14   58.77    9.68 
   2  -3  14   69.38   10.27 
  -3   3  14   29.87    7.81 
  -3   3 -14   27.60    8.90 
  -3  -3 -14   23.40    7.12 
   3  -3 -14   36.04   10.12 
   3   3  14   25.15    7.25 
  -3  -3 -14   26.82    7.81 
  -3  -3  14   27.11    9.47 
  -3   3  14   26.15    8.64 
   3  -3  14   26.67    7.80 
   3   3  14   25.22    9.77 
   3   3 -14   23.17    7.81 
  -3   3 -14   29.99    8.29 
   3  -3 -14   28.33    7.56 
   3  -3  14   35.65   10.25 
   4  -3 -14   30.47    7.03 
  -4  -3 -14   11.52    6.07 
   4   3 -14   30.78    7.96 
  -4   3  14    9.04    5.28 
   4  -3  14   29.25    9.32 
  -4   3 -14   17.26    5.92 
   4  -3 -14   33.86    9.16 
  -4  -3 -14    8.13    5.41 
   4  -3  14   22.96    6.54 
  -4   3 -14   24.61    8.18 
  -4  -3  14   21.33    7.38 
  -4   3  14   11.26    8.10 
   4   3  14   16.92    9.05 
   5  -3 -14    4.59    7.14 
  -5   3 -14   -2.70    5.40 
   5  -3 -14    4.24    4.17 
  -5  -3  14   -1.16    5.72 
  -5   3  14   -2.75    3.78 
   5  -3  14    0.11    6.68 
   5  -3  14    5.29    4.83 
   5   3  14   14.96    9.15 
  -5   3 -14   -2.46    3.94 
  -5  -3 -14    5.03    4.69 
   5   3 -14   -0.20    4.44 
  -5  -3 -14    3.65    5.38 
  -5   3  14    2.23    6.75 
   6  -3 -14   27.08    8.10 
  -6   3 -14   18.10    6.04 
  -6  -3 -14   29.52    7.71 
  -6  -3  14   26.28    8.26 
   6  -3 -14   41.22    7.62 
  -6   3  14   22.89    6.13 
  -6  -3 -14   11.88    6.88 
   6  -3  14   49.38   11.81 
   6   3 -14   33.46    8.48 
   6   3  14   44.44   12.41 
  -6   3  14   19.79    8.95 
  -6   3 -14   22.63    7.63 
   7  -3 -14    3.41    5.39 
  -7  -3 -14   15.01    6.53 
  -7   3 -14   10.47    7.87 
  -7  -3  14    9.36    7.32 
   7  -3  14   -2.92    7.42 
  -7   3 -14   -2.67    4.72 
  -7   3  14   16.37    8.40 
  -7  -3 -14   13.16    7.25 
  -7   3  14    9.27    6.05 
   7  -3 -14    6.99    8.87 
   7   3  14    9.91    9.58 
  -7  -3  14    8.99    6.98 
  -7  -3  14    9.68    6.32 
   7   3 -14    3.83    6.14 
  -8  -3 -14   10.61    7.61 
  -8  -3 -14   10.44    6.74 
   8  -3 -14   23.89    7.39 
   8   3  14   21.41   10.51 
  -8  -3  14   12.39    6.39 
  -8   3  14   21.67    7.13 
  -8  -3  14   12.46    6.49 
   8   3 -14    8.08    7.06 
  -8   3  14    1.32    7.37 
  -8   3 -14    7.65    6.08 
  -8   3 -14   23.56    9.01 
   8  -3 -14   22.18   10.32 
  -8  -3  14   14.46    7.76 
   8  -3  14   13.23    9.81 
   0  -4 -14  220.16   15.54 
   0   4 -14  261.11   18.46 
   0   4  14  239.83   17.32 
   0  -4  14  242.68   18.17 
   1  -4 -14    4.84    4.60 
  -1   4 -14   -1.01    3.87 
  -1  -4  14    0.37    4.22 
   1   4 -14    2.89    5.29 
   1  -4 -14    4.52    5.22 
  -1   4  14   -2.28    4.78 
   1   4  14    1.76    4.38 
  -1   4 -14    0.44    4.84 
  -1  -4 -14   -6.50    3.32 
   1  -4  14    4.99    6.34 
   1  -4  14    4.86    5.13 
  -2   4 -14  561.65   28.31 
   2  -4 -14  598.23   27.41 
  -2   4  14  591.32   31.16 
   2  -4 -14  590.47   27.20 
  -2   4 -14  522.78   27.69 
   2  -4  14  556.26   27.32 
   2   4  14  617.54   25.88 
  -2   4  14  586.25   30.25 
   2  -4  14  582.77   27.87 
  -2  -4 -14  625.30   28.09 
  -2  -4  14  565.45   28.77 
   2   4  14  581.31   30.15 
   2   4 -14  581.44   29.68 
  -3  -4 -14    2.56    5.11 
  -3   4  14    3.78    4.65 
  -3   4 -14    3.02    5.66 
   3   4  14   -0.09    6.90 
  -3   4 -14    3.19    4.77 
  -3  -4  14   -4.89    4.94 
   3  -4  14    8.93    5.71 
   3  -4 -14    5.18    4.41 
   3  -4  14   10.59    7.07 
   3   4 -14    5.63    5.92 
   3  -4 -14   -2.81    5.20 
  -3   4  14    7.43    7.05 
   4  -4 -14  143.76   12.61 
  -4   4  14  183.05   18.11 
  -4  -4  14  189.68   19.22 
   4  -4 -14  160.60   17.81 
   4  -4  14  165.03   15.21 
   4   4 -14  175.62   18.26 
  -4  -4 -14  162.72   16.26 
   4   4  14  161.36   20.75 
  -4   4 -14  140.38   16.18 
  -4  -4 -14  158.82   15.93 
  -4   4  14  162.12   20.51 
   4  -4  14  180.20   19.09 
  -4   4 -14  183.89   17.87 
  -5   4  14    4.39    6.51 
   5   4  14   10.62    9.29 
  -5   4  14    0.28    4.10 
   5  -4 -14    1.67    3.99 
  -5  -4  14    3.77    6.57 
  -5   4 -14    0.37    4.16 
  -5   4 -14   -4.60    5.18 
   5  -4  14    0.18    4.11 
   5  -4 -14   -5.13    6.36 
  -5  -4 -14   -1.93    4.51 
  -5  -4 -14    2.03    4.88 
   5  -4  14    0.40    7.17 
   5   4 -14   -4.41    3.98 
   6  -4  14  309.30   22.72 
  -6  -4 -14  265.55   19.08 
  -6   4  14  289.34   19.18 
   6  -4 -14  259.15   20.74 
  -6  -4 -14  224.50   17.49 
  -6   4 -14  254.09   19.37 
   6   4  14  285.85   24.08 
  -6  -4  14  282.95   20.63 
   6   4 -14  276.92   20.14 
  -6   4  14  260.68   25.48 
  -6   4 -14  279.00   19.44 
   6  -4 -14  284.88   17.44 
  -7   4 -14    0.47    6.12 
   7  -4  14    2.05    7.71 
   7  -4 -14    2.19    4.95 
  -7   4  14   -0.09    6.88 
  -7  -4 -14    8.61    5.81 
  -7   4 -14    8.16    5.84 
   7   4  14    8.76    9.35 
   7   4 -14    2.99    6.23 
  -7   4  14    8.73    5.31 
   7  -4 -14    3.74    7.80 
  -7  -4 -14    0.74    5.86 
  -7  -4  14   10.33    7.24 
   0  -5 -14   39.65    7.90 
   0   5 -14   37.77    8.45 
   0  -5  14   35.79    8.65 
   0  -5 -14   20.15    6.19 
   0   5  14   19.08    7.29 
  -1   5  14    0.47    5.79 
  -1   5 -14    1.83    4.42 
   1   5  14   -7.48    3.99 
  -1  -5  14    4.20    5.30 
  -1   5 -14    5.12    5.49 
   1  -5 -14   -0.36    5.59 
   1   5 -14    0.35    5.03 
  -1  -5 -14    4.86    4.62 
   1  -5  14   -5.34    4.39 
   1  -5  14    3.27    5.96 
   1  -5 -14   12.20    5.67 
  -2   5 -14   45.33    8.94 
  -2  -5 -14   50.56    8.88 
  -2   5  14   29.42    8.74 
   2  -5 -14   56.06    8.36 
   2  -5  14   57.74   10.29 
  -2  -5  14   55.60   10.10 
  -2   5  14   20.65    7.04 
   2  -5  14   47.61    8.48 
   2  -5 -14   30.39    7.41 
   2   5  14   19.11    9.53 
   2   5 -14   55.06   10.22 
   2   5  14   39.25    7.58 
  -3   5  14    8.32    6.84 
   3  -5 -14    6.75    4.77 
  -3   5 -14    3.44    5.60 
   3  -5  14    2.31    6.43 
   3   5 -14   -3.33    4.42 
  -3  -5  14    7.12    6.26 
  -3   5  14   -1.01    4.43 
   3  -5  14    2.40    5.30 
  -3   5 -14    4.92    4.81 
  -3  -5 -14    1.45    5.06 
   3   5  14   14.30    9.31 
   3  -5 -14    1.62    6.36 
  -4   5  14   15.60    5.84 
  -4   5  14   19.76    8.64 
   4   5  14   30.95   11.16 
  -4   5 -14   17.37    6.00 
   4  -5 -14   22.39    7.76 
   4  -5 -14   31.75    6.61 
   4  -5  14   36.33    9.52 
   4   5 -14   32.70    8.78 
  -4  -5  14   29.25    8.74 
  -4  -5 -14   14.27    7.16 
  -4   5 -14   18.26    7.21 
   4  -5  14   19.96    6.88 
   5  -5  14    3.89    6.95 
   5   5  14    5.35    8.66 
  -5   5  14   12.57    6.11 
   5  -5 -14    7.19    4.92 
  -5  -5  14    3.93    6.63 
   5   5 -14    4.83    6.21 
  -5   5 -14   19.37    6.68 
   5  -5  14    8.58    4.87 
  -5   5 -14    8.47    7.42 
  -5   5  14    1.59    7.04 
   5  -5 -14   13.21    8.52 
  -5  -5 -14   10.27    5.83 
  -6  -5 -14    7.83    6.38 
   6  -5 -14   22.25    8.85 
  -6   5 -14   22.96    6.85 
   6  -5  14   27.77   10.25 
   6   5  14   34.39   11.87 
   6   5 -14   38.81    9.28 
  -6   5 -14   25.22    9.03 
  -6  -5  14   36.75    9.60 
  -6   5  14   14.52    5.70 
  -6   5  14   11.30    8.72 
   6  -5 -14   31.28    6.51 
  -6  -5 -14   21.89    7.72 
   7   5 -14   -1.57    5.78 
  -7   5 -14   -0.91    5.46 
  -7  -5  14   12.42    7.45 
  -7   5  14   -1.34    4.64 
  -7  -5 -14    5.38    5.62 
   7  -5  14    5.07    8.83 
   7   5  14    6.93    8.79 
  -7   5  14    2.91    7.35 
  -7   5 -14    5.58    7.01 
   7  -5 -14    2.57    7.72 
  -7  -5 -14    5.07    6.48 
   0   6 -14  208.01   15.70 
   0  -6 -14  153.47   13.50 
   0  -6 -14  217.43   14.86 
   0   6  14  200.00   18.68 
   0  -6  14  188.09   18.37 
   0   6 -14  179.31   17.86 
   1   6 -14   -0.43    5.67 
  -1   6 -14   -4.29    5.52 
  -1  -6  14    0.12    5.03 
  -1  -6 -14    2.49    4.37 
  -1   6 -14    3.55    5.31 
  -1  -6 -14    5.72    5.60 
   1  -6 -14   -0.11    5.46 
   1  -6  14   -1.77    5.05 
  -1   6  14    0.95    5.98 
   1  -6 -14    2.31    4.39 
   1   6  14    3.15    5.41 
   2   6 -14  215.79   17.51 
  -2   6 -14  196.36   16.44 
   2  -6 -14  239.05   15.47 
  -2   6  14  246.66   19.84 
   2   6  14  230.14   19.58 
  -2   6 -14  229.00   17.51 
  -2  -6 -14  222.22   15.87 
   2  -6  14  259.52   18.49 
   2   6  14  245.70   15.52 
   2  -6 -14  233.20   17.04 
   2  -6  14  229.89   17.05 
  -2  -6  14  237.33   18.10 
  -2   6  14  226.12   19.35 
   3  -6 -14    3.11    6.13 
  -3   6 -14    3.64    4.80 
  -3  -6  14    6.53    6.55 
  -3  -6 -14   -2.70    4.43 
   3  -6  14    2.44    6.50 
  -3   6  14   -0.01    6.64 
   3   6  14   -1.59    7.43 
   3  -6 -14    2.76    4.28 
  -3   6  14    8.89    6.06 
   3  -6  14    6.69    4.94 
   3   6 -14   -7.73    4.41 
  -3   6 -14   -0.47    5.65 
  -4   6  14  191.82   16.85 
  -4  -6  14  260.71   19.79 
   4   6  14  267.89   27.14 
   4  -6 -14  191.11   16.34 
  -4  -6 -14  207.59   15.71 
  -4   6 -14  197.44   17.00 
   4   6 -14  205.48   19.90 
  -4   6  14  194.47   22.04 
  -4   6 -14  212.72   16.51 
   4  -6  14  199.88   18.09 
   4  -6  14  194.26   15.32 
   5  -6 -14   10.29    7.85 
  -5   6 -14   -1.16    4.09 
  -5  -6  14   11.32    7.11 
  -5   6  14   -6.60    6.54 
   5  -6  14   10.02    5.87 
  -5   6 -14    7.40    6.59 
   5   6 -14    4.14    5.55 
   5  -6  14    0.22    6.95 
  -5   6  14   -0.34    4.57 
  -5  -6 -14    0.05    4.99 
   5   6  14   -7.21    8.28 
   6  -6 -14  258.66   20.18 
  -6  -6 -14  249.33   18.37 
   6  -6  14  259.12   21.06 
  -6   6  14  267.74   22.48 
  -6   6 -14  209.33   17.04 
  -6   6 -14  240.80   19.77 
   6  -6  14  222.69   15.40 
   6   6 -14  232.45   18.95 
  -6   6  14  230.58   18.03 
  -6  -6  14  250.97   19.45 
   6   6  14  302.56   29.43 
   7  -6 -14    4.77    8.70 
  -7  -6  14   -6.24    5.49 
  -7   6 -14   -7.84    6.03 
   7   6  14   -0.92    8.46 
  -7   6 -14   11.26    6.05 
   7  -6  14    1.50    7.82 
   7   6 -14    5.33    6.79 
  -7   6  14    0.39    7.21 
  -7   6  14   -2.42    4.27 
  -7  -6 -14    0.77    6.19 
   0   7  14   23.34    8.18 
   0   7 -14   28.96    7.84 
   0  -7 -14   21.45    7.66 
   0  -7  14   22.32    7.82 
   0   7 -14   40.53    8.42 
   1  -7  14   -2.42    4.85 
  -1   7 -14    5.45    6.46 
  -1  -7 -14    1.37    4.06 
   1  -7 -14    3.36    5.78 
  -1  -7  14    1.45    5.45 
   1   7 -14    5.04    6.14 
  -1  -7 -14   -4.27    4.97 
  -1   7 -14    0.44    5.30 
   1   7  14    0.16    5.31 
  -1   7  14   -0.28    5.45 
   2   7 -14   33.01    8.37 
  -2   7 -14   24.09    7.63 
   2   7  14   38.32   11.57 
   2  -7 -14   23.25    7.61 
  -2   7  14   21.70    8.25 
  -2   7 -14   41.79    9.97 
  -2   7  14    7.02    6.16 
  -2  -7  14   42.52    9.32 
  -2  -7 -14   30.70    7.28 
   2  -7  14   37.10    8.15 
   3  -7 -14   -0.97    5.63 
   3   7 -14    0.51    5.66 
   3   7  14    6.12    9.27 
  -3   7 -14    6.91    6.46 
  -3   7 -14   10.76    6.10 
  -3   7  14    6.61    6.58 
  -3   7  14   -0.56    6.41 
  -3  -7 -14    2.38    4.92 
   3  -7  14   10.16    8.27 
   3  -7  14   -1.01    5.14 
  -3  -7  14   10.77    6.67 
  -4  -7  14   15.92    6.82 
  -4   7  14    5.09    6.41 
   4  -7  14   27.17    9.56 
  -4   7 -14   20.09    7.65 
   4  -7 -14   20.31    8.33 
   4   7 -14   18.94    7.47 
  -4  -7 -14   11.01    6.59 
   4   7  14    9.74    9.71 
   4  -7  14   19.81    6.23 
  -4   7  14   16.40    6.19 
  -4   7 -14   13.18    5.45 
  -5   7 -14   -2.26    4.57 
  -5   7  14   10.10    7.92 
   5   7  14    2.24    8.71 
  -5   7 -14   11.43    7.72 
   5  -7  14    4.51    7.78 
   5   7 -14    2.34    5.81 
  -5  -7  14   -7.93    5.51 
  -5  -7 -14    3.19    4.91 
   5  -7  14    5.41    5.43 
   5  -7 -14    2.17    6.92 
  -5   7  14    3.00    5.03 
   6  -7  14   26.13    7.07 
  -6   7 -14   17.55    8.16 
   6   7  14   20.29   12.27 
   6  -7  14   28.86   11.00 
   6  -7 -14   23.72    9.70 
  -6   7  14    6.71    7.49 
   6   7 -14   28.36    8.36 
  -6  -7  14   26.09    8.77 
  -6  -7 -14    2.81    6.64 
  -6   7 -14   25.49    6.98 
  -6   7  14    6.70    5.04 
   0   8 -14  218.09   17.19 
   0   8 -14  208.05   16.55 
   0   8  14  197.65   16.90 
   0  -8 -14  205.64   16.50 
   0  -8  14  195.10   19.17 
  -1   8 -14    2.25    6.21 
  -1  -8  14   -0.24    5.76 
  -1   8  14    7.88    6.73 
   1   8 -14    2.64    5.75 
   1  -8  14   -5.80    4.82 
   1  -8 -14   -0.66    5.28 
  -1   8 -14    2.17    5.63 
   1   8  14    2.90    4.84 
  -1  -8 -14   10.15    7.19 
   2  -8  14  257.72   19.07 
  -2   8  14  229.43   19.33 
   2   8 -14  232.19   18.88 
   2   8  14  260.05   21.66 
  -2  -8  14  204.46   17.81 
  -2   8  14  264.72   20.84 
  -2   8 -14  234.39   18.04 
   2  -8 -14  239.99   17.65 
  -2   8 -14  284.97   20.95 
  -2  -8 -14  261.09   18.16 
  -3   8  14  -11.19    4.82 
   3   8  14    4.74    8.29 
  -3   8  14    1.61    5.45 
  -3   8 -14    2.41    7.26 
   3  -8 -14   -1.86    6.12 
   3  -8  14   -1.03    4.97 
  -3  -8  14   -0.39    5.75 
  -3   8 -14   -6.33    4.58 
   3   8 -14   -8.02    4.90 
  -4  -8  14  156.88   18.51 
  -4   8 -14  163.46   18.57 
   4  -8  14  164.39   16.98 
   4   8  14  168.77   22.79 
  -4   8  14  142.35   19.36 
  -4   8  14  158.08   18.76 
   4  -8  14  176.03   20.50 
  -4   8 -14  170.74   17.76 
   4   8 -14  194.98   19.20 
   4  -8 -14  177.48   18.83 
  -5   8  14    2.90    5.43 
  -5   8 -14   13.01    7.81 
   5   8 -14   -1.92    5.17 
  -5  -8  14   -2.35    6.32 
  -5   8 -14    2.93    4.86 
  -5   8  14    3.53    6.16 
   5   8  14    0.18    8.72 
   5  -8 -14    5.08    6.96 
   5  -8  14    1.68    5.29 
   5  -8  14   -8.37    6.33 
  -6   8  14  138.90   19.23 
   6  -8  14  117.23   19.03 
  -6  -8  14  142.37   17.94 
  -6   8 -14  168.80   19.45 
   6   8  14  141.02   22.91 
  -6   8  14  140.78   17.04 
   6   8 -14  114.85   16.12 
   6  -8  14  153.15   15.64 
  -6   8 -14  122.56   15.72 
   6  -8 -14  187.41   20.59 
   0  -9 -14    2.20    5.63 
   0   9 -14   20.58    8.15 
   0  -9  14   28.00    8.62 
   0   9 -14   30.03    9.74 
   0   9  14   14.22    7.68 
  -1   9 -14    5.75    7.32 
  -1   9  14    6.66    5.98 
  -1  -9  14    2.79    6.07 
  -1  -9 -14   -0.60    6.12 
   1   9 -14   13.74    7.26 
   1  -9  14   -3.68    5.19 
  -1   9 -14   -4.02    5.15 
   1  -9 -14   -8.59    4.52 
   1   9  14   -0.50    5.71 
   2   9 -14   22.00    8.64 
   2   9  14   20.09   10.31 
  -2   9 -14   14.31    7.02 
  -2   9  14   13.20    6.31 
  -2  -9 -14    9.86    7.42 
   2  -9 -14   23.35    8.61 
  -2  -9  14   15.87    7.08 
  -2   9 -14   38.13   10.28 
   2  -9  14   25.80    8.07 
  -2   9  14   10.23    7.27 
  -3   9  14   18.98    8.07 
  -3  -9 -14   10.18    7.20 
  -3   9 -14    2.52    6.34 
  -3  -9  14    9.39    7.12 
  -3   9  14   14.20    7.80 
   3   9  14   12.03    9.33 
   3   9 -14   10.38    7.27 
  -3   9 -14    3.83    7.49 
   3  -9  14    4.17    6.10 
   3  -9 -14   15.57    8.67 
   4   9  14   -0.70    8.05 
  -4   9 -14   16.66    7.51 
   4  -9 -14   12.95    7.70 
  -4  -9  14   19.81    7.87 
   4   9 -14    8.69    6.76 
  -4   9 -14    3.50    7.84 
   4  -9  14   13.96    6.98 
  -4   9  14   15.46    6.52 
  -4   9  14   11.69    7.52 
  -5   9 -14    5.69    6.72 
  -5  -9  14   -0.06    6.07 
  -5   9  14    1.60    7.05 
  -5   9 -14   10.33   10.26 
   5   9 -14   13.07    7.33 
  -5   9  14    5.17    6.84 
   5  -9  14    2.29    5.66 
   5   9  14    2.18    9.24 
   5  -9 -14    3.51    7.88 
   0  10 -14  119.60   17.04 
   0 -10 -14  122.03   15.68 
   0  10 -14  114.02   16.16 
   0  10  14  118.84   15.64 
   0 -10  14  100.04   15.35 
  -1 -10  14   -2.11    5.41 
  -1  10  14   17.28    7.50 
  -1  10 -14   15.71    7.77 
   1  10 -14   -1.91    6.14 
  -1  10 -14   16.69    7.33 
   1 -10  14    6.37    7.00 
   1 -10 -14    1.03    6.43 
  -1 -10 -14   14.51    8.49 
  -2 -10 -14  111.35   15.61 
   2 -10  14   97.51   14.89 
  -2  10 -14  125.94   16.34 
  -2 -10  14  104.60   15.92 
   2 -10 -14  111.13   15.29 
   2  10 -14   98.80   15.39 
  -2  10  14   92.05   15.02 
  -2  10 -14  141.12   19.06 
  -3 -10 -14   -2.86    6.61 
  -3  10  14    3.98    7.11 
   3  10  14    2.20    8.96 
  -3  10  14   -4.30    4.60 
   3 -10  14    6.06    6.35 
   3 -10 -14    9.46    8.31 
   3  10 -14   -1.01    6.17 
  -3  10 -14    4.77    5.83 
  -3 -10  14    0.25    6.13 
  -3  10 -14   11.64    8.97 
   4  10  14  141.38   22.01 
  -4  10  14  112.80   16.93 
  -4 -10  14  112.09   16.45 
  -4  10 -14  156.19   21.12 
  -4  10  14  150.95   20.17 
  -4  10 -14  131.36   16.38 
   4 -10  14  147.62   16.86 
   4 -10 -14  147.11   17.58 
   4  10 -14  183.62   19.33 
   5  10  14   -6.14    8.47 
   5 -10 -14   10.60    8.61 
  -5  10  14    4.83    5.89 
  -5  10 -14   15.62   10.68 
   5  10 -14   -7.49    5.61 
  -5  10  14   16.53    8.83 
   0  11 -14   20.89    8.28 
   0  11 -14   13.36    7.66 
   0 -11  14    3.66    4.94 
   0 -11 -14   -3.71    5.29 
   0  11  14   22.59    7.71 
  -1 -11  14   11.40    6.61 
  -1  11 -14    8.53    8.78 
   1 -11 -14   -0.91    6.71 
   1 -11  14   -1.33    6.17 
  -1  11 -14   13.38    7.63 
  -1 -11 -14    3.80    7.00 
  -1  11  14   -0.51    5.49 
   1  11 -14   11.72    7.25 
  -2 -11 -14    5.35    7.20 
   2  11 -14   20.41    8.02 
   2 -11 -14    3.77    6.55 
   2 -11  14   13.51    7.81 
  -2 -11  14   33.98    9.52 
  -2  11 -14   13.35    8.58 
  -2  11  14    6.54    7.23 
  -3  11 -14   -8.88    7.96 
   3 -11  14   -4.33    5.44 
  -3 -11  14   -2.28    5.55 
  -3  11  14    4.15    5.75 
   3  11 -14   -5.56    5.86 
  -3  11  14    2.70    7.26 
  -3 -11 -14   -5.55    5.93 
   3 -11 -14   -1.06    7.08 
   3  11  14    0.59    8.26 
   0 -12  14  124.60   17.33 
   0 -12 -14  163.05   18.85 
   1 -12  14   -2.00    4.71 
  -1 -12 -14    0.76    7.03 
   1 -12 -14    5.73    7.31 
  -1  12  14    0.91    6.51 
  -1 -12  14    5.51    5.97 
  -1  12 -14    9.48    8.15 
  -2  12  14  158.02   19.80 
  -2 -12  14  175.89   19.94 
  -2 -12 -14  160.83   19.21 
  -2  12 -14  196.94   22.78 
   2 -12 -14  175.41   19.23 
   2 -12  14  165.65   18.92 
   0   0  15   18.91    7.41 
   0   0 -15   15.30    6.53 
  -1   0  15   18.78    7.41 
   1   0  15   16.52    7.30 
   1   0 -15   14.77    7.22 
  -1   0 -15   22.09    7.25 
   2   0  15    8.55    7.22 
  -2   0  15    3.07    6.14 
  -2   0 -15    9.01    5.56 
  -2   0 -15   14.68    6.05 
   2   0 -15    6.75    5.62 
   2   0  15   15.56    6.83 
  -3   0 -15   18.80    7.02 
   3   0 -15   28.95    8.09 
  -3   0  15   26.51    9.61 
  -3   0 -15   23.08    7.51 
   3   0  15   29.38    8.06 
   3   0  15   32.21   10.56 
  -4   0 -15   17.05    6.64 
   4   0  15    8.56    8.03 
   4   0  15   18.06    6.32 
   4   0 -15    0.01    4.44 
  -4   0  15    6.15    6.84 
  -4   0 -15   10.14    6.68 
   5   0 -15   -1.21    4.26 
   5   0  15   11.40    9.05 
  -5   0  15   -5.21    4.39 
  -5   0 -15   12.53    6.82 
  -5   0 -15   -3.57    4.05 
  -5   0  15   11.72    7.65 
   6   0 -15    5.88    5.73 
  -6   0  15   -6.35    5.44 
   6   0  15    3.89    8.75 
  -6   0 -15    2.64    4.56 
  -6   0 -15   -3.88    4.83 
  -6   0  15    6.87    5.99 
  -7   0 -15   15.95    8.04 
  -7   0 -15    3.56    6.91 
   7   0  15   16.64   10.93 
   7   0 -15   10.37    7.22 
  -7   0  15   13.31    6.90 
  -7   0  15   13.28    8.47 
  -7   0  15   20.41    9.45 
   0   1  15    5.41    5.39 
   0  -1  15    4.69    5.78 
   0   1 -15   -3.38    3.33 
   0  -1 -15    4.81    5.03 
  -1   1  15    7.29    5.98 
   1  -1  15   -4.28    4.16 
   1   1 -15    6.74    5.29 
   1   1  15    4.90    4.95 
   1  -1 -15    3.82    5.28 
  -1   1 -15   -5.09    3.92 
  -1  -1 -15    5.45    5.14 
  -1  -1  15   12.20    6.33 
   2   1  15    5.25    5.81 
   2  -1 -15    1.39    4.63 
  -2  -1  15   -1.87    4.59 
  -2   1 -15    9.44    4.84 
   2   1  15    2.66    5.90 
   2  -1  15    7.15    5.56 
  -2  -1 -15    4.33    5.14 
  -2   1 -15    1.67    4.21 
   2   1 -15   -1.41    3.95 
   2  -1  15    5.92    6.95 
  -2   1  15    4.29    5.48 
   3   1 -15   -4.72    4.05 
  -3  -1 -15    2.95    4.56 
  -3  -1 -15   -1.46    4.60 
   3  -1 -15    5.33    5.01 
  -3   1 -15   -4.01    4.03 
  -3   1 -15   -1.88    4.24 
  -3   1  15   -2.54    5.18 
   3  -1  15    1.90    6.14 
   3   1  15    1.12    6.38 
   3  -1  15    8.60    5.24 
  -3  -1  15    5.91    5.74 
   3   1  15   -1.24    4.12 
  -4   1 -15    1.56    4.44 
  -4   1 -15    5.46    5.11 
   4  -1 -15   -0.65    4.62 
   4  -1  15    2.94    4.73 
  -4  -1 -15   -0.95    4.78 
  -4  -1  15    6.66    6.95 
   4   1 -15   17.06    6.40 
  -4   1  15   -0.76    6.02 
   4  -1  15    6.77    7.82 
   4   1  15    0.90    7.01 
  -4  -1 -15    8.78    5.48 
  -5   1 -15    0.36    4.40 
   5  -1 -15    0.90    4.53 
  -5   1  15    9.38    5.81 
   5   1  15   -0.92    7.76 
  -5   1  15    2.45    6.85 
   5  -1 -15    2.27    7.78 
  -5  -1  15   -0.66    6.24 
  -5  -1 -15   -3.09    4.25 
   5   1 -15   11.02    5.78 
   5  -1  15   -5.05    6.67 
  -5  -1 -15   -0.27    5.12 
  -5   1 -15    2.52    5.34 
  -6   1 -15   -2.86    5.86 
  -6   1  15   -3.90    4.65 
  -6  -1 -15   13.51    7.27 
   6   1 -15    3.54    5.48 
  -6   1 -15   -0.63    4.55 
  -6  -1  15    0.31    7.05 
   6  -1 -15   10.08    6.45 
  -6  -1 -15   -3.86    4.69 
  -6   1  15    9.78    7.75 
   6  -1  15   -3.75    7.49 
   6   1  15   -1.97    7.99 
   6  -1 -15    1.64    8.09 
  -7  -1  15    4.71    5.87 
   7  -1 -15    3.18    8.03 
  -7   1  15    5.44    6.98 
   7  -1 -15   -0.87    4.69 
   7   1  15   10.93    9.96 
  -7  -1  15    3.50    6.72 
  -7   1 -15   -3.15    5.53 
  -7   1  15   -1.14    4.99 
   7   1 -15   -0.43    5.16 
  -7  -1 -15   -0.20    5.19 
   7  -1  15   -1.59    6.92 
  -7  -1  15    2.34    7.04 
  -7   1 -15   -4.15    4.30 
  -7  -1 -15   -5.81    5.89 
   0   2  15   12.56    6.07 
   0   2 -15   13.40    6.47 
   0  -2 -15   13.03    6.22 
   0  -2  15   10.17    6.32 
   1  -2  15   11.54    6.26 
  -1   2  15   10.06    6.76 
  -1  -2  15   17.36    7.63 
   1   2  15   12.03    6.13 
  -1   2 -15   19.07    6.84 
  -1  -2 -15   10.56    6.02 
   1   2 -15    5.20    5.32 
   1  -2 -15    8.72    5.66 
  -2   2  15   15.26    7.46 
   2   2 -15   12.13    6.48 
   2   2  15   17.94    7.57 
   2   2  15   16.68    6.51 
   2  -2  15   22.59    7.36 
   2  -2  15    6.61    6.97 
  -2   2 -15   23.92    7.28 
  -2  -2 -15   14.86    6.18 
  -2   2 -15   16.19    6.97 
   2  -2 -15   17.19    6.81 
  -2  -2  15    8.98    6.72 
  -3   2 -15   17.27    6.52 
   3  -2  15   13.76    7.81 
  -3   2 -15   24.68    8.40 
  -3  -2 -15   36.64    9.00 
   3  -2 -15   17.92    6.75 
   3   2  15   11.08    7.76 
   3   2 -15   20.47    7.43 
  -3   2  15   13.16    8.10 
   3  -2  15   15.02    6.51 
   3   2  15   22.33    6.74 
  -3  -2  15   11.43    7.59 
  -4   2  15    1.40    5.11 
   4  -2 -15   12.04    8.64 
   4  -2  15   13.38    6.63 
  -4   2 -15   14.86    7.27 
  -4   2  15   12.03    8.29 
  -4  -2 -15   11.13    5.31 
   4   2  15   23.69    9.74 
   4   2 -15   12.67    6.50 
   4  -2 -15    1.08    4.77 
  -4  -2 -15   13.58    6.79 
  -4  -2  15   10.81    7.62 
  -4   2 -15    7.31    5.54 
   4  -2  15    9.75    8.42 
  -5   2 -15    8.00    5.83 
  -5  -2 -15    4.56    4.85 
   5   2  15   14.88    9.55 
   5  -2 -15   12.61    5.71 
  -5   2 -15   11.70    6.47 
   5  -2  15    5.93    7.85 
  -5  -2 -15   10.24    6.47 
  -5   2  15   12.54    7.85 
   5   2 -15   12.26    6.25 
   5  -2 -15   20.03   10.30 
  -5   2  15    4.48    5.43 
  -5  -2  15    5.05    6.64 
  -6   2  15    4.02    6.25 
   6   2  15   10.19    8.90 
  -6   2 -15   15.58    7.58 
   6  -2 -15   12.06    6.35 
  -6  -2 -15   -2.40    5.13 
  -6  -2 -15    3.61    5.31 
  -6  -2  15    9.69    7.51 
   6  -2  15    5.09    7.67 
  -6   2 -15   21.88    6.95 
  -6   2  15   10.04    8.05 
   6  -2 -15   12.58    9.52 
   6   2 -15    4.41    5.95 
  -7   2 -15    5.77    6.38 
   7  -2  15    5.69    8.59 
   7  -2 -15    5.70    5.56 
  -7   2  15   10.24    6.78 
   7   2 -15    9.22    7.13 
  -7  -2  15   17.57    8.05 
  -7  -2 -15    4.85    5.75 
  -7   2 -15   11.89    6.70 
   7  -2 -15  -11.45    6.46 
  -7  -2 -15    4.19    6.61 
   7   2  15   13.24    9.67 
  -7   2  15    3.30    7.88 
   0   3 -15   47.71   10.92 
   0  -3  15   34.44    9.16 
   0  -3 -15   42.09    9.30 
   0   3  15   45.28    9.71 
   1   3 -15    2.92    4.98 
   1  -3  15    9.43    5.69 
  -1  -3 -15   -2.78    4.60 
   1   3  15    0.27    4.61 
  -1   3  15    1.78    4.72 
   1  -3 -15    3.88    4.72 
  -1  -3  15   -3.47    3.92 
  -1   3 -15    5.85    5.96 
  -2  -3  15    5.17    6.47 
   2  -3  15    5.60    6.96 
   2   3  15   15.24    6.30 
  -2   3  15   11.47    6.35 
   2  -3  15    0.99    5.42 
   2   3 -15    1.68    5.62 
   2  -3 -15   -0.14    4.14 
  -2   3 -15   -0.67    4.46 
   2   3  15    1.87    6.13 
  -2  -3 -15    6.45    5.35 
  -2   3 -15   -0.60    5.36 
   3   3 -15    1.60    5.42 
  -3   3 -15   -5.49    5.13 
  -3   3 -15   -1.31    4.10 
  -3   3  15   -5.05    4.70 
   3   3  15    5.32    7.00 
   3  -3  15    1.29    4.73 
   3   3  15    1.06    4.94 
   3  -3 -15   -3.32    4.26 
  -3  -3  15   -0.71    5.41 
  -3  -3 -15    5.62    5.05 
   3  -3  15    1.33    6.46 
   4   3 -15   20.46    7.71 
  -4   3  15   27.26    8.20 
  -4   3  15   17.64    8.87 
   4  -3  15   30.21   10.41 
  -4  -3 -15   33.92    8.55 
  -4  -3  15   30.56   10.11 
   4  -3 -15   23.89    7.05 
   4   3  15   33.03   11.42 
  -4   3 -15   21.13    6.85 
   4  -3  15   30.33    7.83 
   4  -3 -15   23.33   10.41 
  -4   3 -15   24.99    8.52 
   5   3 -15    3.85    5.43 
  -5   3 -15   -4.04    3.76 
  -5  -3  15    3.61    6.77 
  -5  -3 -15   -4.83    4.66 
   5  -3 -15    2.30    4.38 
   5   3  15   -3.74    7.54 
  -5   3  15   -3.23    6.51 
  -5   3  15    0.47    4.88 
  -5  -3 -15    7.25    5.26 
   5  -3 -15  -12.06    6.07 
  -5   3 -15   -8.65    4.78 
   5  -3  15  -11.27    6.02 
  -6  -3  15    4.08    6.49 
   6   3 -15    3.06    5.59 
   6  -3 -15   -5.43    7.25 
  -6  -3 -15   12.01    5.89 
  -6   3  15   13.73    7.06 
  -6   3  15    4.70    7.33 
   6   3  15   -0.12    8.99 
  -6   3 -15  -11.06    4.06 
  -6  -3 -15   -3.02    5.83 
   6  -3  15   -5.65    7.58 
  -6   3 -15   13.82    8.06 
   6  -3 -15    6.09    4.98 
  -7  -3 -15   -6.89    5.94 
   7  -3 -15   -1.55    5.51 
  -7   3 -15    1.59    5.32 
   7   3  15    1.57    8.92 
  -7   3  15    5.76    7.79 
  -7   3  15   -1.51    4.88 
   7  -3 -15   -4.54    7.19 
  -7   3 -15   -5.77    5.40 
  -7  -3  15    1.55    6.45 
  -7  -3 -15    6.01    5.82 
   7   3 -15    0.66    5.28 
   7  -3  15    2.84    7.98 
   0   4  15   12.85    6.14 
   0  -4  15    8.46    6.75 
   0  -4 -15   11.00    5.70 
   0   4 -15   14.10    6.84 
  -1  -4 -15   28.01    7.96 
  -1   4 -15   37.96    9.16 
  -1  -4  15   12.20    6.63 
   1  -4  15   32.81    9.12 
  -1   4 -15   36.71    9.57 
   1   4 -15   23.05    8.06 
   1   4  15   32.30    8.56 
   1  -4 -15    4.29    5.51 
  -1   4  15   33.95    9.71 
  -2   4 -15   17.24    6.75 
  -2   4  15    8.86    7.59 
   2  -4  15   12.75    6.58 
  -2  -4 -15   16.21    6.81 
  -2  -4  15   13.44    7.53 
   2   4  15   22.52    6.65 
   2   4  15   17.39    8.03 
   2  -4  15   15.13    7.40 
   2   4 -15   17.55    7.17 
   2  -4 -15   18.05    6.14 
  -2   4 -15   25.37    7.55 
   3   4 -15   45.49   10.91 
   3   4  15   33.94   11.45 
  -3   4 -15   36.95    9.91 
   3  -4  15   41.93   11.46 
   3  -4 -15   45.60    9.73 
   3  -4  15   31.97    8.74 
   3  -4 -15   48.64   10.94 
  -3  -4  15   44.34   10.71 
  -3   4 -15   37.47    9.01 
  -3  -4 -15   40.53    9.52 
  -3   4  15   49.22   12.32 
  -4  -4 -15   11.94    6.40 
   4  -4  15   22.42    9.32 
   4   4  15    8.12    8.56 
   4  -4  15    4.31    5.38 
  -4  -4  15    3.66    6.48 
   4  -4 -15    0.33    6.82 
   4   4 -15   18.62    7.90 
  -4   4  15    2.28    6.83 
   4  -4 -15    1.59    4.80 
  -4   4 -15    7.69    6.04 
  -4   4  15    5.62    4.96 
  -4   4 -15    3.53    5.06 
  -5   4 -15   14.32    6.77 
   5  -4  15   11.25    5.48 
   5   4 -15   17.09    7.80 
  -5   4 -15   18.30    8.43 
  -5  -4  15    8.06    7.26 
   5  -4 -15   20.70    9.86 
  -5  -4 -15   13.91    7.29 
   5  -4  15   10.22    7.79 
   5  -4 -15   12.31    6.08 
  -5   4  15   13.98    9.01 
  -5   4  15   10.83    6.24 
   5   4  15   11.25    9.71 
   6  -4 -15    7.33    8.04 
  -6   4  15    9.00    8.67 
   6   4  15   -3.94    8.39 
  -6   4  15   15.19    6.33 
   6  -4  15    1.08    7.17 
  -6   4 -15    9.44    5.90 
  -6  -4 -15   17.07    7.55 
   6  -4 -15    3.35    5.72 
  -6   4 -15   10.66    7.65 
  -6  -4 -15   17.59    6.41 
  -6  -4  15   13.91    7.78 
   6   4 -15    2.42    5.93 
   7   4  15   10.72   10.96 
  -7  -4 -15   20.47    8.26 
  -7   4  15   26.35    9.84 
  -7   4 -15    8.18    7.89 
   7   4 -15   18.97    8.64 
  -7   4  15   18.27    7.71 
  -7   4 -15   16.72    7.63 
   7  -4  15   13.06    9.71 
  -7  -4 -15   27.79    9.32 
   7  -4 -15   16.02    9.98 
   7  -4 -15    3.91    5.34 
  -7  -4  15   27.29    9.21 
   0   5 -15   10.41    6.99 
   0   5  15   10.85    6.31 
   0  -5  15   13.61    7.56 
   0  -5 -15   26.02    7.64 
  -1  -5 -15    8.41    5.44 
  -1  -5  15    9.03    5.72 
   1   5  15   19.44    6.41 
  -1   5 -15    4.04    5.83 
   1   5 -15   -0.19    5.30 
  -1   5 -15   -0.57    4.93 
  -1   5  15   11.13    6.64 
   1  -5 -15   -1.52    4.53 
   1  -5  15   -3.82    5.03 
   2  -5  15   13.69    7.86 
  -2  -5  15   -4.62    4.79 
   2  -5 -15   -0.34    4.51 
   2   5  15    7.74    5.39 
  -2   5  15   17.06    7.40 
   2  -5  15    5.36    5.61 
  -2   5 -15    5.95    4.79 
  -2  -5 -15    3.84    5.59 
  -2   5 -15    2.52    5.44 
   2  -5 -15    1.94    6.18 
   2   5 -15   -4.29    4.94 
  -3   5 -15    6.45    4.52 
   3   5  15    2.40    7.20 
  -3  -5 -15    6.37    5.54 
   3  -5 -15    5.21    6.70 
  -3  -5  15   10.34    6.99 
  -3   5  15   -1.37    4.43 
  -3   5 -15    4.54    5.87 
   3  -5 -15   -0.16    4.47 
   3  -5  15    0.72    7.02 
  -3   5  15    6.47    7.18 
   3   5 -15   -3.04    4.69 
   3  -5  15    4.76    5.90 
  -4  -5  15   23.70    8.80 
   4  -5  15   28.91    9.90 
   4  -5  15   24.77    7.68 
  -4   5 -15   25.64    8.88 
   4   5  15   27.86   11.60 
  -4   5  15    2.96    6.76 
  -4   5  15   11.31    6.67 
  -4   5 -15    7.93    6.12 
   4  -5 -15   14.82    6.18 
  -4  -5 -15   30.76    8.74 
   4  -5 -15   18.81    8.47 
   4   5 -15   20.79    8.65 
   5  -5 -15    7.06    4.62 
  -5   5 -15   -3.83    5.22 
  -5   5  15   -4.80    6.59 
   5   5 -15    2.33    5.62 
   5  -5  15    4.26    7.60 
   5  -5  15   -0.61    4.67 
  -5   5  15   13.42    6.26 
  -5  -5  15   -1.33    6.34 
  -5   5 -15    1.03    4.64 
   5   5  15   -1.06    8.14 
  -5  -5 -15   -6.18    4.44 
   5  -5 -15   10.80    8.04 
   6  -5  15   -1.78    8.08 
  -6   5 -15   -1.73    4.30 
  -6   5  15   -2.79    4.93 
  -6  -5 -15    3.84    6.45 
  -6   5 -15    3.72    6.53 
  -6  -5  15   -1.03    6.23 
   6   5  15   -7.23    7.23 
  -6   5  15   10.89    9.05 
   6   5 -15    6.91    6.40 
   6  -5 -15    5.48    7.94 
   0  -6 -15    4.59    5.49 
   0   6  15   -0.42    5.97 
   0   6 -15    9.49    6.31 
   0  -6  15    0.42    5.79 
   1  -6 -15    9.66    5.67 
   1  -6 -15   -4.28    5.24 
  -1   6  15    2.47    6.10 
   1  -6  15   -1.82    5.10 
   1   6  15   -3.93    4.58 
   1   6 -15    0.40    5.87 
  -1   6 -15   -5.06    5.09 
  -1   6 -15    5.28    5.68 
  -1  -6  15    4.29    6.11 
  -1  -6 -15    1.80    4.86 
   2   6 -15   11.18    6.99 
  -2  -6  15   10.63    5.93 
  -2   6  15   11.82    7.70 
  -2   6 -15    1.67    4.87 
  -2   6 -15    8.93    6.33 
   2  -6 -15   12.77    6.82 
   2  -6 -15   20.66    6.05 
   2  -6  15   23.82    8.45 
  -2  -6 -15   14.95    6.09 
   2  -6  15   15.44    7.05 
   3  -6 -15    1.24    6.44 
   3   6 -15   -2.88    4.90 
  -3  -6  15   -6.00    5.03 
  -3   6  15   17.72    8.02 
   3   6  15    1.81    8.89 
   3  -6  15    7.03    6.03 
  -3   6 -15    0.63    4.61 
  -3   6  15    8.67    6.03 
  -3   6 -15    6.82    6.63 
   3  -6  15    7.46    7.59 
  -3  -6 -15    3.49    5.29 
   4  -6  15    4.62    7.25 
  -4   6 -15    3.68    5.20 
  -4  -6 -15    6.31    5.81 
  -4  -6  15    3.66    6.60 
   4   6 -15    7.55    6.92 
   4  -6 -15   -6.59    6.06 
  -4   6 -15   -1.36    5.56 
   4  -6  15   -3.10    4.69 
  -4   6  15   -7.11    5.91 
   4   6  15    6.01    8.92 
  -4   6  15   -3.16    4.90 
  -5  -6 -15    5.60    6.42 
   5   6  15    6.14    8.91 
   5  -6 -15    1.37    8.09 
  -5   6  15    7.17    6.19 
  -5   6 -15   -0.17    6.29 
   5  -6  15    6.63    8.33 
  -5  -6  15    3.27    6.52 
   5   6 -15   -4.23    4.79 
  -5   6 -15    5.28    5.66 
  -5   6  15   -3.64    7.06 
   5  -6  15   -0.86    4.60 
   6  -6 -15    0.44    6.98 
  -6  -6 -15   -1.30    6.09 
  -6   6  15   16.90    8.94 
  -6  -6  15    6.36    6.24 
   6   6  15    7.34    9.92 
   6   6 -15    6.17    6.73 
   6  -6  15   10.24    8.65 
  -6   6 -15   -6.56    6.03 
  -6   6  15    7.52    5.64 
  -6   6 -15    4.47    5.64 
   0   7 -15   77.56   13.36 
   0  -7 -15   75.17   11.66 
   0  -7  15   61.92   12.38 
   0   7  15   55.03   11.60 
  -1   7 -15   -1.43    4.49 
  -1   7  15    3.22    6.80 
   1  -7 -15    1.71    5.42 
   1  -7  15    2.31    5.71 
   1   7 -15    0.78    5.46 
  -1  -7  15    0.67    5.83 
  -1   7 -15    2.38    5.94 
   1   7  15   12.98    6.50 
   2  -7  15    0.23    5.18 
  -2  -7  15    4.82    6.71 
  -2   7 -15   -9.30    5.59 
  -2   7 -15    3.55    5.52 
   2   7 -15    8.52    6.79 
  -2  -7 -15   -0.36    5.26 
  -2   7  15   -1.25    6.83 
   2  -7 -15   18.00    8.01 
   3  -7 -15    1.60    6.42 
  -3   7 -15   -1.48    5.11 
  -3  -7 -15   10.48    6.28 
   3  -7  15   -0.06    6.91 
   3  -7  15   -1.90    5.74 
  -3   7  15   -6.93    5.91 
  -3   7 -15   -0.94    4.72 
  -3  -7  15    1.69    6.14 
  -3   7  15   10.46    6.30 
   3   7 -15   10.97    7.22 
   3   7  15   -3.13    8.54 
  -4   7 -15   50.64   11.75 
   4  -7  15   39.99   11.54 
   4   7  15   51.12   15.16 
   4   7 -15   51.34   11.48 
   4  -7  15   46.10   10.10 
  -4   7  15   40.07   10.52 
  -4  -7 -15   67.89   11.55 
  -4  -7  15   40.97   10.27 
   4  -7 -15   46.96   11.81 
  -4   7  15   36.62   11.17 
  -4   7 -15   45.89   10.40 
   5  -7  15   -8.72    4.08 
   5  -7 -15  -10.65    5.96 
   5   7  15    9.59   10.66 
  -5  -7 -15    3.92    5.84 
  -5  -7  15   -1.15    5.52 
  -5   7 -15    2.52    5.01 
  -5   7  15   -0.52    5.06 
   5  -7  15    1.45    7.48 
  -5   7 -15    6.58    7.21 
  -5   7  15   13.62    8.61 
   5   7 -15    2.95    5.86 
  -6  -7  15   -0.89    6.22 
  -6   7 -15    0.91    5.57 
  -6   7  15   16.81    9.06 
  -6   7  15    3.37    6.30 
  -6   7 -15    7.52    7.32 
   6   7  15    1.55    9.36 
   6   7 -15   -0.12    6.00 
  -6  -7 -15  -12.85    4.95 
   6  -7  15    9.69    9.19 
   6  -7 -15   -7.18    6.91 
   6  -7  15    0.87    5.26 
   0   8  15   12.32    6.42 
   0  -8 -15    3.48    5.93 
   0  -8  15    7.60    7.05 
   0   8 -15    2.07    5.74 
  -1   8  15   25.16    8.55 
  -1   8 -15   26.04    9.25 
   1  -8  15   25.02    9.06 
   1   8 -15   32.67    9.55 
  -1   8 -15   32.23   10.45 
   1  -8 -15   32.26    9.51 
  -1  -8 -15   27.73    9.02 
  -1  -8  15   22.72    8.59 
   1   8  15   21.82    8.30 
  -2   8 -15   12.66    7.72 
   2  -8  15    7.35    6.69 
   2  -8 -15   10.68    6.91 
  -2   8 -15   16.99    6.77 
  -2   8  15    5.62    6.85 
   2   8 -15    9.80    7.22 
  -2  -8  15   11.68    7.14 
   3   8 -15   30.28    9.77 
   3   8  15   30.64   12.89 
  -3  -8  15   29.94    9.84 
   3  -8 -15   51.26   11.66 
  -3   8  15   38.25   10.60 
  -3   8 -15   31.09    9.38 
  -3   8  15   39.55   11.33 
  -3   8 -15   30.12   11.18 
   3  -8  15   34.44    9.52 
   4   8 -15    0.28    5.40 
  -4   8 -15   -7.19    6.39 
   4  -8  15    1.23    5.78 
  -4   8  15    5.28    5.92 
  -4  -8  15    5.75    6.22 
   4  -8 -15    6.87    6.43 
  -4   8  15    1.65    6.81 
   4   8  15    6.75    9.13 
   5  -8 -15   22.00    9.74 
  -5   8 -15    8.01    6.61 
   5   8 -15   30.54    9.38 
   5  -8  15    7.63    6.38 
   5   8  15   10.71   10.51 
  -5   8 -15   13.08    7.82 
  -5   8  15   17.97    8.71 
   5  -8  15   20.17   10.21 
  -5   8  15   -3.54    5.28 
  -5  -8  15    6.41    7.03 
   0   9  15   25.84    8.89 
   0  -9 -15   30.04    9.97 
   0   9 -15   24.66    9.55 
   0  -9  15   25.83    8.73 
  -1   9 -15    0.14    6.45 
   1  -9 -15    4.36    6.29 
   1   9 -15   -7.07    4.79 
  -1  -9  15    0.47    5.62 
  -1   9  15    1.06    6.04 
  -1   9 -15    1.68    5.95 
  -1  -9 -15    0.93    5.81 
   1  -9  15   -4.25    5.50 
   2  -9  15   14.65    7.35 
   2  -9 -15   16.36    8.43 
  -2   9  15   18.80    8.14 
  -2   9 -15    9.38    8.18 
  -2   9 -15   12.40    7.04 
   2   9 -15   11.72    7.81 
  -2  -9  15    5.47    6.52 
   3   9 -15   -4.30    5.19 
   3  -9 -15   -2.68    5.80 
  -3   9  15    0.06    6.69 
  -3   9 -15    4.81    6.99 
   3   9  15   -1.53    7.61 
   3  -9  15   -0.61    6.00 
  -3  -9  15    1.52    5.83 
  -3   9 -15   11.06    6.50 
   4   9 -15   38.72   10.44 
  -4   9  15   18.97    8.74 
  -4   9 -15   16.98    8.18 
   4  -9 -15   37.21   11.44 
   4   9  15   31.86   13.74 
  -4  -9  15   17.48    8.20 
  -4   9 -15   11.17   10.41 
   4  -9  15   32.58    9.62 
  -4   9  15   54.21   12.08 
   0 -10 -15   -0.93    6.31 
   0  10 -15    3.06    6.39 
   0 -10  15    1.82    6.14 
   0  10  15    9.77    6.76 
  -1 -10  15    0.54    5.86 
  -1  10 -15    2.38    8.03 
   1  10 -15   -6.06    5.13 
  -1  10 -15   11.23    7.58 
  -1 -10 -15   -1.69    6.05 
  -1  10  15   -4.64    6.01 
   1 -10  15    4.20    6.25 
   1 -10 -15   -4.01    5.80 
  -2 -10  15    4.67    6.17 
   2 -10  15   14.12    7.13 
   2 -10 -15    8.59    7.93 
   2  10 -15   15.94    7.66 
  -2  10 -15   15.56    9.27 
  -2  10  15   -1.47    6.15 
  -2  10 -15    1.33    5.87 
  -2 -10 -15    7.58    6.90 
   3 -10  15   -6.83    5.23 
  -3  10 -15   11.20    8.47 
   3  10 -15   -5.64    5.33 
   3 -10 -15    6.07    7.60 
  -3  10  15  -10.80    5.41 
  -3 -10  15   -9.78    5.19 
  -3  10 -15   -4.77    5.97 
   3  10  15   -5.83    8.16 
   0 -11 -15   69.18   13.85 
   0 -11  15   57.01   12.36 
   0  11 -15   61.96   12.54 
   1  11 -15    3.95    6.29 
  -1  11 -15   -8.70    7.51 
   1 -11  15   -3.64    6.12 
  -1  11  15   13.31    7.18 
   1 -11 -15   -1.56    6.59 
  -1 -11 -15   11.32    8.15 
  -1 -11  15    5.32    5.76 
  -1  11 -15   -1.78    5.59 
  -2  11  15    6.63    7.74 
  -2  11 -15   25.80   10.34 
   2 -11 -15   27.42   10.04 
  -2 -11  15   16.29    8.30 
  -2 -11 -15   21.73    9.81 
   2  11 -15   24.56    9.12 
   0   0  16  444.66   24.79 
   0   0 -16  358.41   22.22 
  -1   0 -16   -4.61    4.26 
   1   0  16   -0.53    5.39 
   1   0 -16    5.27    5.10 
  -1   0  16    4.76    6.14 
  -2   0  16  227.37   18.10 
   2   0 -16  176.26   18.43 
  -2   0 -16  190.88   16.13 
   2   0  16  206.35   15.11 
  -3   0 -16    1.55    4.56 
  -3   0  16   12.89    7.08 
   3   0  16    0.94    7.19 
   3   0  16    0.99    4.85 
   3   0 -16    0.71    4.45 
  -4   0 -16  301.43   20.63 
   4   0  16  307.27   22.61 
   4   0 -16  316.60   21.06 
  -4   0 -16  378.63   22.97 
  -4   0  16  326.05   22.89 
  -5   0  16    4.49    7.22 
  -5   0 -16   -3.16    4.60 
  -5   0 -16    0.71    4.73 
   5   0 -16    6.23    5.30 
   5   0  16   -1.69    8.07 
  -6   0 -16  128.83   16.76 
  -6   0  16  143.13   18.93 
   6   0  16  136.95   20.62 
   6   0 -16  142.17   16.68 
  -6   0 -16  147.68   17.61 
   0  -1 -16   70.44   10.63 
   0  -1  16   68.59   11.24 
   0   1 -16   84.96   11.96 
   0   1  16   76.80   11.61 
  -1  -1  16   11.86    7.47 
  -1   1 -16    7.93    5.57 
   1  -1  16    8.48    6.33 
   1   1 -16   14.07    6.94 
  -1   1  16    9.09    6.71 
   1   1  16   23.82    7.73 
   1  -1 -16   15.77    6.76 
  -1  -1 -16   15.62    6.94 
   2  -1 -16   38.98    8.77 
  -2   1 -16   34.15    8.29 
   2  -1  16   31.39    7.93 
  -2  -1 -16   17.58    7.48 
  -2   1  16   27.71    8.79 
   2   1  16   38.34    8.18 
  -2  -1  16   38.92    9.25 
   2   1 -16   24.52    7.70 
  -3  -1  16   16.47    8.90 
   3  -1  16   23.05    7.73 
  -3   1  16   23.16    8.75 
  -3   1 -16   27.46    8.50 
   3   1  16   20.45    9.24 
   3   1 -16   17.16    7.62 
  -3   1 -16   36.30    8.54 
  -3  -1 -16    5.54    6.49 
   3   1  16   41.72    8.49 
   3  -1 -16   31.75    8.70 
   3  -1  16   25.32    9.32 
   4  -1  16   58.36   11.89 
   4  -1 -16   62.65    9.99 
   4   1 -16   51.08    9.31 
  -4  -1 -16   47.80   10.03 
  -4   1  16   35.73   10.20 
  -4   1 -16   32.55    8.27 
   4  -1  16   55.48    8.78 
  -4  -1 -16   41.85    8.58 
  -4   1 -16   56.54   10.79 
  -4  -1  16   42.12    9.78 
   4   1  16   47.82   11.64 
  -5  -1 -16    5.44    6.62 
   5   1  16    1.21    8.31 
  -5  -1  16    8.23    7.68 
  -5  -1 -16   10.79    6.54 
  -5   1 -16    7.81    6.40 
   5  -1  16   12.77    9.38 
  -5   1 -16    1.84    5.10 
   5   1 -16   15.86    6.47 
  -5   1  16    5.63    6.47 
   5  -1 -16    5.93    5.82 
   6  -1  16   26.11   10.98 
   6   1  16    7.51    9.29 
  -6  -1 -16   13.90    7.51 
   6   1 -16   22.98    7.03 
  -6   1 -16   13.85    6.39 
  -6   1 -16   16.87    7.73 
  -6  -1  16   10.87    7.72 
  -6  -1 -16    4.20    4.97 
  -6   1  16    8.91    7.51 
   6  -1 -16   18.10    6.97 
   0   2  16  352.23   21.77 
   0   2 -16  385.72   23.23 
   0  -2  16  370.47   22.43 
   0  -2 -16  341.47   21.24 
   1  -2  16    4.41    5.62 
  -1   2  16    5.34    6.77 
  -1  -2  16    5.68    6.32 
  -1   2 -16    4.42    5.09 
   1  -2 -16    4.71    4.98 
   1   2 -16    2.38    5.25 
  -1  -2 -16   -0.12    4.71 
   1   2  16   -2.64    5.54 
   2  -2  16   90.89   13.01 
  -2  -2 -16   81.27   13.00 
   2  -2 -16   85.80   13.22 
  -2   2  16   69.98   13.21 
  -2  -2  16   87.40   14.74 
   2   2  16   94.58   13.08 
   2   2 -16   59.11   11.58 
  -2   2 -16   75.22   12.47 
  -3   2  16    7.57    6.49 
   3  -2 -16    0.30    4.75 
  -3  -2  16   -5.19    4.66 
   3   2  16    0.16    4.97 
   3  -2  16    3.10    5.91 
   3   2  16    2.52    7.43 
   3   2 -16   -0.04    5.22 
  -3  -2 -16   -4.03    4.33 
   3  -2  16    2.03    7.20 
  -3   2 -16   -3.61    4.55 
  -3   2 -16    2.05    5.52 
   4  -2  16  305.29   21.98 
  -4   2  16  326.98   23.35 
  -4  -2 -16  321.43   20.66 
  -4   2 -16  286.06   20.41 
   4   2  16  299.71   22.42 
   4  -2 -16  285.01   19.28 
  -4  -2  16  312.31   22.03 
   4   2 -16  243.00   19.04 
  -4   2 -16  331.19   21.78 
   4  -2  16  310.57   18.29 
  -5  -2  16   -0.60    6.16 
   5   2 -16   -5.38    4.74 
  -5  -2 -16    6.31    6.01 
   5   2  16    7.97    8.61 
   5  -2  16   -4.31    6.83 
   5  -2 -16   -9.65    3.91 
  -5   2 -16    0.44    4.72 
  -5   2  16    2.99    7.00 
  -5   2 -16   -3.95    5.15 
  -5  -2 -16    0.59    4.75 
  -6  -2  16   79.83   14.53 
  -6  -2 -16   77.07   13.66 
  -6   2  16   88.03   16.18 
   6   2  16  100.92   18.44 
  -6   2 -16   86.47   14.59 
  -6   2  16   67.38   12.59 
  -6  -2 -16   74.17   13.74 
   6  -2  16   90.05   17.53 
   6  -2 -16   54.01   10.83 
  -6   2 -16   72.33   13.08 
   6   2 -16   81.96   13.61 
   0   3  16   46.71    9.60 
   0  -3  16   51.72    9.58 
   0  -3 -16   41.65    9.00 
   0   3 -16   56.23    9.64 
   1  -3  16   10.96    6.79 
   1   3  16   12.74    5.90 
  -1  -3  16    7.80    6.46 
  -1   3 -16    4.72    5.43 
  -1  -3 -16   13.80    6.38 
   1  -3 -16    9.01    5.43 
   1   3 -16    9.41    6.48 
  -1   3  16    1.56    5.07 
  -2   3  16   15.22    7.40 
   2   3  16   34.89    7.87 
  -2   3 -16   16.27    5.96 
   2  -3 -16   22.92    6.62 
  -2  -3 -16   21.31    7.37 
   2   3 -16   29.97    7.89 
  -2   3 -16   14.42    6.87 
   2  -3  16   32.13    8.32 
  -2  -3  16   15.15    7.15 
   3  -3  16   -2.93    7.16 
  -3   3 -16   19.43    8.73 
  -3  -3  16    8.70    7.58 
  -3   3  16   11.54    7.56 
  -3   3 -16    9.77    5.59 
  -3  -3 -16    5.03    5.88 
   3  -3  16    9.82    6.70 
   3   3 -16   -0.03    5.16 
   3  -3 -16   15.04    6.31 
   3   3  16    7.45    8.10 
  -4  -3 -16   30.20    8.14 
  -4   3 -16   31.79    7.59 
   4  -3 -16   36.07    7.37 
  -4   3  16   22.73    8.45 
  -4   3 -16   29.63    8.62 
   4   3 -16   46.93    9.98 
   4  -3  16   40.50   10.37 
   4  -3  16   41.54    7.72 
   4   3  16   41.54   11.53 
  -4  -3  16   38.06   10.28 
   5   3  16    6.80    8.85 
  -5   3 -16    3.73    6.26 
  -5  -3 -16    1.79    5.54 
   5  -3  16   -4.85    7.52 
   5  -3 -16   10.02    5.15 
  -5   3  16   -1.97    4.58 
  -5   3 -16    2.51    5.35 
  -5  -3  16   -3.36    6.51 
   5   3 -16    0.68    5.20 
  -5   3  16    6.02    7.65 
   6  -3  16   20.52   10.47 
  -6  -3 -16    5.81    7.07 
  -6   3 -16    5.09    5.87 
  -6   3  16   14.31    9.06 
   6  -3 -16   19.91    6.46 
  -6   3 -16    2.45    6.49 
  -6  -3  16   17.34    8.27 
  -6   3  16   17.29    6.74 
   6   3 -16   14.69    6.85 
   6   3  16   22.04   10.59 
  -6  -3 -16   10.11    6.59 
   6  -3 -16   15.11    9.29 
   0   4  16  290.51   19.44 
   0  -4  16  283.02   19.95 
   0  -4 -16  258.67   18.09 
   0   4 -16  215.35   17.83 
  -1  -4 -16    2.73    4.69 
  -1   4 -16   -1.94    4.53 
  -1  -4  16   -5.14    4.86 
   1   4 -16    4.00    5.97 
   1   4  16    0.13    4.82 
   1  -4 -16   -3.17    4.21 
   1  -4  16    5.85    6.21 
  -1   4  16   -4.80    4.10 
   2  -4  16  180.30   17.57 
   2   4 -16  175.58   18.46 
  -2   4  16  180.54   19.96 
  -2   4 -16  169.26   17.93 
  -2  -4  16  200.90   19.75 
   2   4  16  167.03   13.74 
  -2  -4 -16  179.13   15.38 
  -2   4 -16  156.21   17.11 
   2  -4 -16  153.75   16.16 
  -3   4 -16   -5.45    4.02 
   3   4  16   -6.01    5.88 
  -3  -4  16   -0.68    5.87 
   3  -4  16    3.67    5.77 
   3  -4 -16   -3.42    3.58 
  -3   4  16   -0.56    6.50 
   3   4 -16    3.75    6.03 
   3  -4  16    9.02    7.92 
  -3  -4 -16    4.74    5.70 
  -3   4 -16   -4.02    4.80 
  -4   4 -16  228.10   17.79 
   4  -4  16  180.69   15.07 
  -4  -4 -16  200.25   16.53 
  -4  -4  16  217.05   20.77 
  -4   4  16  217.47   23.40 
   4   4 -16  205.43   20.22 
   4  -4  16  208.97   18.37 
   4  -4 -16  179.70   14.71 
   4   4  16  234.19   23.89 
  -4   4 -16  209.68   20.30 
   5  -4  16   13.09    8.92 
  -5   4 -16   -3.34    4.91 
  -5  -4 -16    4.64    6.27 
  -5  -4  16    9.03    7.35 
   5  -4 -16    1.85    5.15 
   5   4  16   -3.52    8.22 
  -5   4  16    5.42    5.17 
  -5   4  16   -7.85    6.03 
   5  -4 -16   -2.10    7.22 
  -5   4 -16    2.38    6.46 
   5   4 -16    3.24    5.80 
  -6   4 -16  129.86   16.85 
  -6  -4  16  131.29   17.55 
  -6   4  16  104.77   18.31 
  -6  -4 -16  120.01   16.25 
   6   4  16  127.35   20.54 
  -6   4 -16  110.68   17.15 
   6  -4 -16  120.31   17.71 
   6   4 -16  130.93   17.30 
  -6   4  16   93.09   14.68 
   6  -4 -16  108.26   13.89 
   6  -4  16  141.97   19.95 
   0   5  16   47.50    9.35 
   0  -5 -16   51.51    8.88 
   0  -5  16   44.63    9.77 
   0   5 -16   44.26    9.42 
  -1  -5  16   17.40    7.88 
  -1  -5 -16   20.07    6.95 
   1   5 -16   15.01    7.74 
  -1   5  16    1.70    6.36 
  -1   5 -16   18.34    7.37 
   1   5  16   18.29    6.97 
   1  -5  16    5.52    6.91 
   1  -5 -16    9.67    5.52 
   2   5  16   26.95    7.21 
  -2   5 -16   19.09    7.49 
  -2  -5  16   23.55    8.15 
  -2   5 -16   21.42    6.89 
  -2  -5 -16   38.10    8.30 
   2  -5  16   17.02    7.28 
   2  -5 -16   27.75    7.00 
  -2   5  16   24.81    9.28 
   2   5 -16   25.41    8.18 
   3   5  16   27.43   10.76 
  -3  -5  16   20.31    8.61 
  -3  -5 -16   17.82    7.51 
   3  -5 -16   30.13    7.88 
   3  -5  16   26.42   10.03 
  -3   5 -16   29.15    9.32 
   3   5 -16   13.69    7.58 
  -3   5 -16   21.59    7.78 
  -3   5  16   24.80    9.75 
   3  -5  16   24.49    8.32 
  -4  -5  16   27.48    8.47 
   4  -5 -16   39.17   10.07 
   4  -5 -16   39.75    7.33 
   4  -5  16   38.43    8.38 
   4  -5  16   33.67    9.56 
  -4   5  16   24.43    9.18 
   4   5 -16   42.71    9.43 
  -4  -5 -16   28.50    8.55 
  -4   5 -16   34.85    8.93 
  -4   5 -16   17.85    6.87 
   4   5  16   42.63   12.91 
   5   5  16    5.96    8.84 
  -5   5  16    4.84    5.81 
   5  -5 -16    2.92    7.96 
  -5  -5 -16    7.26    6.55 
  -5   5 -16    2.37    5.96 
   5   5 -16   13.54    7.29 
  -5  -5  16   -2.07    5.99 
   5  -5  16    4.05    5.71 
  -5   5 -16    5.05    6.89 
   5  -5  16   -2.56    7.30 
  -5   5  16    6.49    7.80 
   0   6  16  235.15   18.19 
   0  -6  16  232.78   18.85 
   0   6 -16  231.86   18.30 
   0  -6 -16  233.68   16.69 
   1  -6 -16   -1.78    4.85 
  -1  -6  16    0.82    6.46 
  -1  -6 -16    7.23    4.99 
   1   6  16    6.11    5.71 
  -1   6 -16   -4.74    4.30 
   1  -6  16    3.23    5.64 
  -1   6  16    0.69    5.90 
   1   6 -16    2.96    6.42 
   2  -6  16  109.29   15.15 
  -2   6 -16  109.19   15.50 
  -2   6 -16  114.54   15.51 
  -2   6  16  142.20   19.05 
  -2  -6 -16  138.79   15.60 
  -2  -6  16  116.38   16.10 
   2   6 -16  124.53   16.31 
  -3  -6  16   -4.27    5.30 
  -3   6 -16    4.20    5.83 
   3  -6  16   -0.39    7.23 
  -3  -6 -16    5.57    5.76 
   3   6 -16    0.43    5.01 
   3  -6 -16    8.14    7.20 
  -3   6 -16   -4.68    4.97 
   3  -6  16   -1.90    5.36 
  -3   6  16   -1.74    5.90 
   4  -6  16  175.49   17.30 
   4  -6  16  220.23   19.00 
  -4  -6 -16  227.01   17.63 
   4   6 -16  211.54   21.03 
  -4   6  16  218.19   24.28 
  -4   6 -16  202.88   19.46 
   4   6  16  219.17   24.52 
  -4  -6  16  231.39   22.47 
   4  -6 -16  220.28   20.87 
  -4   6 -16  216.84   21.09 
  -5  -6 -16    7.93    6.60 
  -5   6  16    7.21    6.05 
   5  -6  16    1.24    8.03 
   5  -6 -16    0.35    7.58 
  -5  -6  16    3.88    6.90 
  -5   6 -16    7.23    6.27 
  -5   6 -16   -2.07    6.13 
  -5   6  16   -5.86    6.68 
   5   6 -16    0.29    6.24 
   5   6  16   10.91   10.06 
   5  -6  16   -6.12    4.76 
   0  -7  16   17.13    8.01 
   0   7  16    5.23    6.50 
   0   7 -16   28.36    8.51 
  -1   7 -16    5.30    6.29 
   1   7 -16   21.89    8.31 
   1  -7  16    4.81    6.08 
  -1   7  16    5.51    6.94 
   1   7  16    7.92    6.42 
  -1  -7  16   12.70    7.41 
   2   7 -16   18.10    7.52 
   2  -7  16   20.97    7.71 
   2  -7 -16   15.41    6.63 
  -2   7 -16   11.98    7.66 
  -2   7 -16   16.06    6.86 
  -2   7  16   11.38    8.02 
  -2  -7  16   22.31    7.91 
  -3   7  16   28.57   10.04 
   3  -7 -16    0.27    6.19 
   3   7 -16   11.77    7.36 
  -3   7 -16   14.26    7.14 
   3  -7  16   11.57    7.31 
  -3  -7  16    9.08    7.51 
   4  -7  16   11.16    8.50 
  -4  -7  16   13.20    7.01 
   4   7 -16   22.17    8.56 
  -4  -7 -16   28.38    7.98 
   4  -7  16   16.15    7.18 
  -4   7 -16    6.26    5.85 
  -4   7 -16    9.52    7.26 
  -4   7  16   17.68    9.49 
   4  -7 -16   18.69    8.00 
   4   7  16   18.95   11.36 
   0   8  16  125.99   16.88 
   0   8 -16  134.34   18.15 
   0  -8  16  163.34   18.72 
  -1   8 -16    2.67    5.32 
  -1   8  16    7.38    6.15 
  -1  -8  16   -0.28    5.95 
   1   8 -16   -0.58    5.55 
   1  -8  16    1.72    6.57 
   1  -8 -16    0.74    6.25 
   2  -8 -16  177.99   17.75 
  -2   8 -16  166.76   18.44 
   2   8 -16  143.74   18.33 
   2  -8  16  134.83   17.51 
  -2   8 -16  139.28   18.19 
  -2  -8  16  149.08   18.71 
  -2   8  16  150.03   20.02 
  -3   8 -16    4.14    8.27 
  -3  -8  16    5.84    7.10 
   3   8 -16    4.98    6.63 
   3  -8 -16    8.24    7.10 
   3  -8  16    6.96    7.08 
  -3   8  16   10.24    8.08 
  -3   8 -16    2.93    5.79 
  -4   8  16  115.29   18.97 
  -4   8 -16  129.75   17.26 
  -4  -8  16  124.05   17.40 
   4  -8 -16  148.80   17.94 
   4   8  16  126.62   21.08 
  -4   8 -16  134.27   20.31 
   4  -8  16   77.19   13.35 
   4   8 -16  136.66   17.48 
   0   9 -16   25.70    8.97 
   0  -9  16   18.80    8.43 
   0   9  16   17.96    8.12 
   1  -9  16   -2.93    6.14 
   1  -9 -16    7.18    7.11 
  -1  -9  16    2.36    5.51 
   1   9 -16    1.70    6.43 
  -1   9 -16    3.03    6.08 
  -1   9  16    5.02    7.28 
   2  -9 -16   11.98    7.90 
  -2   9  16    5.80    8.11 
  -2  -9  16   14.39    7.44 
   2   9 -16   17.23    7.32 
  -2   9 -16   13.98    6.68 
  -2   9 -16   18.12    8.79 
   2  -9  16   14.75    7.50 
   3  -9  16   -6.91    5.73 
  -3   9 -16    1.58    6.24 
  -3   9  16   -4.10    6.74 
   3  -9 -16    4.63    7.33 
  -3  -9  16    6.30    6.69 
  -3   9 -16    6.90    8.51 
   3   9 -16   17.01    7.38 
   0  10  16  107.54   15.75 
   0  10 -16   99.67   16.29 
   0 -10  16  105.91   16.04 
   0 -10 -16  106.00   14.71 
   1 -10 -16    0.94    7.25 
   1  10 -16   -2.31    5.98 
  -1  10 -16    4.16    6.73 
   1 -10  16    3.57    6.63 
  -1 -10  16   -1.89    5.35 
  -1  10  16    4.14    6.52 
   0   0 -17   21.94    7.28 
   0   0  17   30.74    9.30 
   1   0  17    2.47    5.10 
   1   0 -17    3.41    5.94 
  -1   0  17   -0.30    5.60 
  -1   0 -17    9.62    5.86 
   2   0  17   13.86    6.55 
  -2   0 -17   14.07    6.63 
  -2   0  17   23.16    8.56 
   2   0 -17   15.84    7.34 
  -3   0  17   -1.99    5.68 
   3   0 -17    2.05    5.70 
  -3   0 -17    4.50    6.06 
   3   0  17    4.21    5.38 
  -4   0  17   19.63    9.20 
   4   0 -17   10.64    7.07 
   4   0  17   15.97    9.15 
  -4   0 -17    7.67    6.55 
   5   0  17   -4.35    8.85 
  -5   0 -17   12.47    6.99 
  -5   0  17   10.65    8.22 
   5   0 -17   16.94    7.02 
  -5   0 -17    1.71    5.59 
   0  -1 -17   30.93    9.04 
   0   1  17   44.59   10.45 
   0   1 -17   28.60    8.52 
   0  -1  17   30.94    9.30 
   1   1  17    4.83    5.96 
   1   1 -17   -3.85    4.33 
  -1  -1 -17   -2.37    4.45 
  -1   1 -17   -2.52    4.87 
   1  -1  17    5.60    5.41 
  -1  -1  17    3.63    5.73 
   1  -1 -17   -1.71    4.33 
  -1   1  17   -1.34    5.43 
   2   1  17    7.23    5.75 
   2   1 -17    3.84    5.55 
  -2  -1  17   10.14    7.73 
  -2   1 -17   -2.12    5.27 
   2  -1  17    9.30    6.59 
   2  -1 -17   -4.86    5.12 
  -2   1  17    8.03    7.35 
  -2  -1 -17    7.08    5.91 
  -3   1  17    0.43    6.70 
  -3  -1 -17   -0.31    5.89 
   3  -1 -17   11.78    6.89 
   3   1 -17    8.26    6.54 
  -3   1 -17   -3.45    4.82 
   3  -1  17    8.83    6.20 
  -3  -1  17    7.89    7.11 
   3   1  17    5.76    5.93 
   4  -1  17   10.93    9.26 
  -4  -1  17   13.90    8.64 
  -4  -1 -17   11.57    6.75 
  -4   1  17   10.51    7.85 
   4  -1 -17    5.29    6.01 
  -4   1 -17   17.70    7.56 
   4   1 -17   10.14    7.13 
  -4   1 -17    9.23    6.78 
   4   1  17   16.16    9.71 
   5  -1  17   -7.90    7.20 
  -5  -1  17  -12.36    5.32 
   5  -1 -17    5.66    5.73 
  -5   1 -17    5.65    6.22 
   5   1 -17   -0.99    5.81 
  -5  -1 -17   -4.98    4.79 
   5   1  17   -2.83    7.53 
  -5   1  17   -6.00    6.37 
  -5   1 -17   -4.70    4.82 
   0  -2 -17   17.47    6.92 
   0  -2  17    7.68    6.33 
   0   2 -17    4.19    6.00 
   0   2  17   15.59    6.89 
   1   2 -17    7.48    5.85 
  -1  -2  17  -11.59    4.40 
   1  -2  17    1.58    6.24 
  -1   2 -17   -0.45    5.04 
   1   2  17    0.57    5.53 
   1  -2 -17    5.68    5.33 
  -1  -2 -17   -9.87    4.05 
  -1   2  17    0.68    6.33 
  -2   2  17   15.11    7.61 
   2  -2 -17   17.79    7.64 
  -2   2 -17   11.21    6.96 
  -2  -2 -17    8.55    6.21 
   2   2 -17   24.70    8.10 
   2  -2  17   19.27    7.29 
  -2  -2  17   18.91    9.16 
   2   2  17    9.94    6.73 
   3  -2  17   10.23    6.23 
  -3  -2  17    4.40    7.83 
   3  -2 -17   -0.75    4.75 
  -3   2  17    8.74    8.23 
  -3   2 -17    4.79    6.29 
   3   2 -17    0.31    5.70 
  -3  -2 -17   13.08    7.10 
  -4   2 -17    2.54    6.42 
  -4   2 -17    9.75    5.90 
   4   2  17    8.93    8.02 
   4  -2  17   10.10    6.35 
   4   2 -17    1.85    5.32 
   4  -2 -17   13.70    6.56 
  -4   2  17   10.40    7.87 
  -4  -2 -17    0.30    5.71 
  -4  -2  17   -0.39    6.77 
   4  -2  17   -0.08    7.53 
  -5   2 -17   -7.11    5.37 
   5  -2  17    5.24    8.65 
  -5   2  17   -5.18    6.51 
   5   2  17   13.00    9.22 
  -5  -2 -17   -9.73    4.78 
  -5  -2  17    5.41    7.36 
  -5   2 -17    1.27    4.87 
   5  -2 -17    0.03    5.16 
   5   2 -17   -0.45    5.29 
   0   3  17   22.19    8.65 
   0  -3 -17   25.52    7.87 
   0  -3  17   37.65   10.61 
   0   3 -17   37.24   10.02 
  -1   3  17    6.98    6.64 
   1  -3  17    7.08    6.38 
  -1  -3  17    6.31    5.86 
  -1   3 -17    0.66    5.40 
   1   3  17   -2.71    4.39 
  -1  -3 -17   -1.78    4.44 
   1  -3 -17    0.84    5.03 
   1   3 -17    1.30    6.04 
  -2   3 -17    3.36    5.71 
   2  -3 -17    3.61    4.99 
  -2  -3  17    6.26    7.33 
   2  -3  17    0.79    6.03 
  -2   3  17   10.02    7.66 
  -2  -3 -17   17.60    7.61 
   2   3 -17    1.44    5.81 
   2   3  17   17.64    7.14 
   3   3 -17   -5.33    4.93 
  -3   3  17    5.12    6.66 
  -3  -3 -17    1.37    5.78 
   3  -3 -17   -3.56    4.27 
  -3   3 -17   -0.39    4.84 
  -3   3 -17   -0.65    5.40 
   3  -3  17    1.94    5.94 
  -3  -3  17   -6.21    5.57 
   4  -3 -17    7.65    5.25 
  -4   3 -17   10.43    6.79 
  -4  -3 -17    7.54    6.58 
   4   3  17    9.77    9.64 
   4  -3  17   14.48    7.13 
   4  -3  17   13.64    9.04 
   4   3 -17    4.96    6.73 
  -4   3 -17   18.62    7.20 
  -4   3  17   -3.19    6.50 
  -4  -3  17   -0.84    6.43 
   5   3  17    5.80    8.59 
  -5   3 -17   -0.94    5.53 
  -5  -3  17    7.52    7.60 
   5  -3  17   -3.81    7.22 
   5   3 -17    0.61    5.39 
  -5  -3 -17   -4.99    4.86 
  -5   3  17    7.26    7.84 
   5  -3 -17    1.96    5.27 
  -5   3 -17   -3.14    5.67 
   0   4 -17   26.47    8.46 
   0  -4  17   19.90    8.35 
   0  -4 -17   16.78    7.40 
   0   4  17   32.11    8.98 
  -1   4 -17   12.74    6.96 
  -1  -4 -17    5.28    5.66 
   1   4  17    1.17    5.73 
  -1  -4  17    9.00    7.95 
   1   4 -17   18.48    8.10 
  -1   4  17   27.49    8.87 
   1  -4  17   10.12    7.61 
   1  -4 -17   12.79    6.22 
   2   4  17   17.85    6.86 
  -2  -4 -17    8.48    6.09 
  -2   4  17   21.51    8.10 
  -2  -4  17    4.83    6.78 
  -2   4 -17    2.44    6.23 
   2   4 -17    9.04    6.54 
   2  -4  17   17.05    7.56 
   2  -4 -17    7.30    5.79 
   3  -4  17   -4.91    4.69 
   3  -4 -17   -1.26    3.96 
  -3   4 -17    0.03    5.69 
  -3  -4 -17   12.39    6.78 
   3   4 -17   -1.26    5.26 
  -3   4  17   -0.79    5.67 
  -3  -4  17    8.80    7.06 
  -3   4 -17    2.43    5.49 
  -4   4  17   14.07    8.26 
  -4   4 -17    8.50    7.09 
   4  -4 -17   10.92    6.38 
  -4   4 -17    9.04    6.04 
   4  -4  17   11.68    7.24 
   4   4 -17   12.65    6.62 
  -4  -4  17    8.00    7.79 
   4   4  17   14.17    9.26 
  -4  -4 -17   13.44    7.11 
   4  -4  17    9.48    8.40 
  -5   4  17    1.76    7.25 
   5   4  17   21.15   10.80 
  -5   4 -17   12.15    6.74 
  -5   4 -17   10.70    7.86 
   5  -4 -17    6.90    5.82 
  -5  -4 -17    7.92    6.55 
   5  -4  17   11.51    9.79 
  -5  -4  17   21.65    8.99 
   5   4 -17    3.41    6.40 
   0   5 -17   20.34    8.14 
   0  -5  17    7.26    7.36 
   0   5  17   19.97    7.82 
   0  -5 -17   19.00    7.32 
  -1   5  17    6.90    6.46 
  -1   5 -17    1.87    6.04 
   1   5 -17   -0.43    5.18 
  -1  -5  17    9.76    6.86 
   1   5  17    6.93    5.96 
   1  -5 -17   -1.10    5.10 
   1  -5  17   -2.73    6.07 
  -1  -5 -17    8.29    6.44 
   2  -5 -17   27.75    7.72 
   2  -5  17   26.32    9.03 
   2   5 -17   46.54   10.69 
  -2   5 -17   34.00    9.78 
  -2  -5 -17   47.15   10.91 
  -2   5  17   31.94    9.88 
  -2  -5  17   38.04   10.70 
  -3   5 -17    0.25    4.80 
  -3  -5 -17    5.82    5.51 
   3  -5  17    0.33    6.06 
   3   5 -17    7.32    6.37 
  -3  -5  17    0.51    6.37 
  -3   5  17   -1.62    7.03 
   3  -5 -17    3.05    5.35 
  -3   5 -17   -5.31    4.72 
   3  -5  17    5.18    7.20 
   4   5 -17    9.02    6.14 
   4  -5  17    2.86    5.84 
  -4  -5  17    4.22    6.28 
  -4   5 -17   -5.38    5.78 
  -4   5  17   -8.66    6.69 
   4  -5  17    7.53    8.62 
   4   5  17    8.74    9.09 
  -4  -5 -17    0.57    6.28 
  -4   5 -17    5.71    4.96 
   0   6 -17   11.85    6.45 
   0   6  17   15.80    6.31 
   0  -6  17    4.54    7.28 
   1  -6  17    5.83    7.04 
  -1   6 -17   -2.23    5.13 
   1   6 -17   -2.92    6.05 
   1   6  17    8.76    6.03 
  -1   6  17   -0.20    6.30 
  -1  -6 -17   17.31    6.30 
  -1  -6  17    9.78    8.24 
   2  -6  17    4.25    6.49 
   2   6 -17   -0.90    5.18 
  -2   6  17   19.84    8.55 
  -2  -6  17    4.85    6.70 
  -2  -6 -17    6.47    6.05 
  -2   6 -17   11.23    6.66 
   3  -6  17   13.20    7.17 
  -3  -6 -17    9.73    6.71 
   3  -6  17    4.98    7.67 
  -3   6  17   38.41   11.38 
  -3  -6  17   21.40    8.18 
   3   6 -17   15.66    7.75 
  -3   6 -17   19.42    7.70 
  -3   6 -17   19.16    8.39 
  -4   6  17   15.08    9.87 
   4   6 -17    6.76    7.19 
  -4   6 -17    5.48    6.67 
  -4  -6  17   -3.81    5.57 
  -4   6 -17    0.20    5.92 
   4  -6  17   14.46    7.04 
  -4  -6 -17    6.43    6.16 
   4  -6  17    8.58    8.42 
   0  -7  17   55.61   12.58 
   0   7 -17   47.18   11.70 
   0   7  17   18.75    8.85 
   1   7 -17   -8.93    4.93 
  -1  -7  17    0.26    5.53 
   1  -7  17    7.79    7.38 
  -1   7 -17   -3.14    5.40 
  -1   7  17   -6.08    5.90 
  -2   7  17   47.22   11.76 
  -2   7 -17   19.17    7.88 
   2   7 -17   23.99    8.79 
  -2  -7  17   18.15    7.94 
   2  -7  17   28.00    9.65 
   3   7 -17    1.14    4.87 
  -3  -7  17    7.72    6.69 
  -3   7 -17    0.86    7.65 
  -3   7  17   -3.58    6.10 
  -3   7 -17    8.41    5.80 
   3  -7  17    0.48    5.43 
   0   8  17    7.19    7.21 
   0  -8  17   14.66    8.58 
   0   8 -17   15.28    7.80 
  -1  -8  17   -1.11    5.85 
  -1   8 -17   10.23    6.83 
  -1   8  17   16.77    8.54 
   1   8 -17    4.35    6.28 
   1  -8  17    8.39    7.79 
   2   8 -17    8.99    6.35 
  -2   8 -17    6.08    6.34 
  -2  -8  17    3.13    6.38 
  -2   8  17   11.72    7.54 
   2  -8  17    5.89    6.96 
   0   0 -18   43.84   10.64 
   0   0  18   40.57   10.96 
   1   0  18    2.44    6.40 
   1   0 -18    2.43    6.06 
  -1   0  18    8.59    7.94 
  -1   0 -18    0.46    5.67 
   2   0  18  226.57   17.24 
  -2   0  18  225.67   19.24 
   2   0 -18  179.58   18.61 
  -2   0 -18  208.71   19.96 
   3   0 -18    5.67    6.16 
   3   0  18   -1.99    5.01 
  -3   0  18    4.40    7.32 
  -3   0 -18   -4.54    5.08 
  -4   0  18   68.25   14.30 
  -4   0 -18   95.21   14.94 
   4   0 -18   77.84   13.18 
   0  -1 -18   20.97    7.87 
   0  -1  18   19.33    7.82 
   0   1 -18   21.34    7.57 
   0   1  18   17.12    7.91 
  -1  -1  18   10.53    8.64 
  -1   1  18   15.65    8.22 
   1   1 -18    9.91    6.98 
   1   1  18    4.81    6.61 
  -1  -1 -18    9.47    6.54 
   1  -1  18   21.27    7.53 
   1  -1 -18   -0.80    5.13 
  -1   1 -18    9.70    6.90 
   2  -1  18   62.08   10.64 
  -2  -1 -18   71.82   11.75 
  -2   1 -18   53.60   10.65 
   2   1  18   47.26    8.57 
   2  -1 -18   66.27   11.15 
   2   1 -18   58.15   10.36 
  -2   1  18   47.63   11.28 
  -2  -1  18   59.46   12.62 
  -3  -1 -18    8.36    6.94 
   3   1 -18    0.85    6.10 
  -3   1 -18    6.45    5.79 
  -3  -1  18   11.51    8.47 
   3  -1 -18   -1.48    5.83 
  -3   1  18    2.59    7.04 
   3  -1  18   -2.19    5.20 
  -4   1 -18   12.78    7.30 
  -4   1  18   21.03    9.11 
   4   1 -18   18.20    7.64 
   4  -1 -18   15.71    6.47 
  -4  -1 -18   16.63    7.44 
  -4  -1  18    7.26    6.90 
   0   2  18  140.55   17.04 
   0  -2  18  139.53   16.86 
   0   2 -18   96.17   14.80 
   0  -2 -18  122.84   15.79 
   1  -2 -18   -3.95    4.99 
  -1   2  18   10.24    6.67 
   1   2  18    6.32    6.93 
  -1   2 -18    5.65    5.95 
  -1  -2  18   -8.85    4.97 
   1  -2  18   10.31    6.34 
  -1  -2 -18   -7.89    4.79 
   1   2 -18   -2.38    5.77 
   2   2  18  279.17   18.53 
   2  -2 -18  248.44   18.71 
   2  -2  18  240.27   18.23 
  -2  -2 -18  254.12   18.99 
  -2   2 -18  241.36   18.92 
  -2  -2  18  299.70   21.84 
  -2   2  18  265.04   21.21 
   2   2 -18  243.43   19.42 
   3  -2  18   13.48    6.58 
  -3  -2  18   -0.17    6.33 
   3  -2 -18    2.19    5.55 
  -3   2  18    4.00    7.10 
   3   2 -18    0.97    6.07 
  -3   2 -18    4.92    5.99 
  -3  -2 -18    7.23    7.08 
   4   2 -18   80.51   13.85 
  -4   2 -18   62.61   13.22 
  -4   2  18   81.01   15.68 
   4  -2 -18   56.87   11.44 
  -4  -2 -18   79.75   13.32 
  -4  -2  18   80.26   15.70 
   0   3  18   19.83    7.45 
   0  -3 -18   19.23    7.57 
   0  -3  18   23.74    8.78 
   0   3 -18    7.80    6.54 
  -1  -3 -18   24.24    8.01 
   1  -3 -18   16.01    7.96 
   1   3  18   17.01    7.45 
  -1   3  18    9.52    7.07 
  -1   3 -18   16.18    8.01 
   1  -3  18    7.52    7.11 
  -1  -3  18    8.64    7.02 
   1   3 -18   14.97    8.22 
   2  -3 -18   38.77    8.78 
  -2  -3  18   45.35   10.97 
  -2   3 -18   31.67    8.41 
  -2   3  18   39.25   10.56 
  -2  -3 -18   47.02   10.02 
   2   3 -18   42.33    9.58 
   2   3  18   42.12    8.97 
   2  -3  18   42.70    9.56 
  -3  -3 -18    6.00    6.25 
  -3   3  18   15.47    8.91 
   3  -3  18   -4.12    5.48 
  -3  -3  18    5.13    6.80 
   3  -3 -18   -1.95    5.29 
  -3   3 -18   -0.79    4.95 
   3   3 -18   -1.08    6.00 
   0  -4 -18   40.77    9.90 
   0   4  18   50.57   11.63 
   0   4 -18   45.04   10.73 
   0  -4  18   36.24   10.60 
   1   4 -18    6.21    6.37 
  -1   4 -18   -2.81    4.95 
  -1  -4  18    9.75    7.73 
  -1   4  18   10.12    7.83 
  -1  -4 -18   -5.45    4.46 
   1   4  18    4.26    5.91 
   1  -4 -18   -1.90    5.01 
   1  -4  18   -3.51    5.93 
   2   4 -18  101.61   15.46 
  -2  -4 -18  128.86   16.33 
   2  -4 -18  114.16   14.69 
  -2   4 -18   98.75   14.94 
  -2   4  18  125.43   17.82 
  -2  -4  18  117.81   17.71 
   2  -4  18  124.59   16.24 
  -3   4  18    3.49    7.71 
  -3   4 -18   -3.35    4.65 
   3   4 -18    1.64    5.28 
   3  -4 -18   -1.37    5.11 
  -3  -4  18   -4.65    5.66 
  -3  -4 -18    1.16    6.01 
   3  -4  18    0.00    6.20 
   0   5  18   27.46    9.10 
   0  -5 -18   26.47    7.84 
   0   5 -18   25.58    7.95 
   0  -5  18   17.47    8.76 
   1   5  18   -7.41    5.71 
   1   5 -18    1.34    5.70 
  -1   5 -18    8.69    7.13 
   1  -5 -18    3.40    6.22 
  -1  -5  18   -0.12    6.91 
   1  -5  18    8.14    7.21 
  -1   5  18    2.24    6.30 
  -1  -5 -18   11.97    6.53 
  -2  -5 -18   26.77    8.56 
  -2   5  18   31.35    9.34 
   2  -5 -18   24.78    7.24 
   2  -5  18   30.92    9.10 
   2   5 -18   30.37    8.45 
  -2  -5  18   22.76    8.28 
  -2   5 -18   34.37    8.84 
   0   6 -18  139.45   17.80 
   0   6  18  166.88   18.67 
   0  -6  18  155.46   18.91 
   1  -6  18    5.55    7.61 
  -1   6 -18   -1.77    5.11 
   1   6 -18    4.85    6.20 
  -1   6  18   -3.85    5.02 
  -1  -6  18    7.79    7.51 
   0   0 -19   17.66    8.48 
   0   0  19   -5.00    5.65 
   1   0  19    0.37    5.78 
   1   0 -19    5.12    6.13 
  -1   0  19    6.43    7.78 
  -1   0 -19   -2.97    5.43 
   2   0  19   25.70    8.40 
  -2   0 -19   18.16    7.81 
   2   0 -19   16.87    7.62 
  -2   0  19    6.51    8.58 
   0   1  19    4.61    6.94 
   0   1 -19    0.05    5.49 
   0  -1  19    5.32    7.00 
   0  -1 -19   -3.71    5.36 
  -1   1 -19    0.24    5.95 
   1  -1 -19   -4.97    5.53 
   1   1  19    4.07    6.74 
  -1   1  19   12.20    8.41 
  -1  -1  19  -13.60    5.62 
  -1  -1 -19    2.19    5.58 
   1   1 -19   -3.10    5.27 
   1  -1  19   -2.38    6.45 
   2   1  19   15.15    6.51 
  -2  -1  19   22.16   10.31 
  -2   1  19   17.93    9.00 
   2  -1  19    4.31    6.45 
  -2   1 -19   10.25    7.15 
   2  -1 -19    4.20    5.80 
  -2  -1 -19    4.59    6.24 
   2   1 -19   12.06    6.71 
   0   2 -19    3.59    6.15 
   0  -2 -19   20.06    7.16 
   0  -2  19   14.37    7.84 
   0   2  19   30.21   10.13 
   1   2 -19   -8.37    5.46 
   1   2  19    2.14    6.87 
  -1   2  19    5.51    7.41 
  -1  -2 -19    9.04    6.77 
   1  -2 -19    0.17    6.62 
  -1  -2  19   -3.56    6.37 
  -1   2 -19    9.34    7.30 
   1  -2  19    3.60    6.23 
   0   3  19   11.90    7.78 
   0  -3  19   14.39    8.28 
   0   3 -19   -3.47    5.19 
   0  -3 -19   11.40    7.09 
   1   3 -19    5.61    7.41 
  -1  -3 -19    0.63    6.24 
  -1   3 -19   -4.60    5.38 
   1  -3 -19    6.92    6.40 
   0   0   0    0.00    0.00 
;
_shelx_hkl_checksum              33870
loop_
_space_group_symop_operation_xyz
'x, y, z'
'-x, -y, z'
'-x, y, -z'
'x, -y, -z'
'x+1/2, y+1/2, z+1/2'
'-x+1/2, -y+1/2, z+1/2'
'-x+1/2, y+1/2, -z+1/2'
'x+1/2, -y+1/2, -z+1/2'
'-x, -y, -z'
'x, y, -z'
'x, -y, z'
'-x, y, z'
'-x+1/2, -y+1/2, -z+1/2'
'x+1/2, y+1/2, -z+1/2'
'x+1/2, -y+1/2, z+1/2'
'-x+1/2, y+1/2, z+1/2'
loop_
_atom_site_label
_atom_site_type_symbol
_atom_site_fract_x
_atom_site_fract_y
_atom_site_fract_z
_atom_site_U_iso_or_equiv
_atom_site_adp_type
_atom_site_occupancy
_atom_site_site_symmetry_order
_atom_site_calc_flag
_atom_site_refinement_flags_posn
_atom_site_refinement_flags_adp
_atom_site_refinement_flags_occupancy
U1 U 0.2500 0.2500 0.2500 0.02121(14) Uani 1 2 d S . P
Rb1 Rb 0.0000 0.5000 0.15606(12) 0.0399(4) Uani 1 4 d S T P
Rb2 Rb 0.0000 0.0000 0.30222(12) 0.0311(3) Uani 1 4 d S T P
Rb3 Rb 0.0000 0.26261(13) 0.5000 0.0299(3) Uani 1 4 d S T P
Rb4 Rb 0.0000 0.19680(15) 0.0000 0.0352(4) Uani 1 4 d S T P
Si1 Si 0.1915(3) 0.5000 0.38785(17) 0.0142(5) Uani 1 2 d S T P
O1 O 0.2323(8) 0.3287(8) 0.1360(6) 0.064(3) Uani 1 1 d . . .
O2A O 0.2600(11) 0.3836(9) 0.3642(8) 0.026(2) Uiso 0.5 1 d . . P
O2B O 0.2505(12) 0.4153(9) 0.3149(9) 0.027(2) Uiso 0.5 1 d . . P
O3 O 0.0000 0.2427(8) 0.2670(8) 0.046(3) Uani 1 2 d S T P
O4 O 0.0000 0.5000 0.3840(8) 0.034(3) Uani 1 4 d S T P
O5A O 0.239(7) 0.529(4) 0.5000 0.019(4) Uiso 0.25 2 d S . P
O5B O 0.235(7) 0.459(4) 0.5000 0.019(4) Uiso 0.25 2 d S . P
loop_
_atom_site_aniso_label
_atom_site_aniso_U_11
_atom_site_aniso_U_22
_atom_site_aniso_U_33
_atom_site_aniso_U_23
_atom_site_aniso_U_13
_atom_site_aniso_U_12
U1 0.00849(18) 0.0278(2) 0.0273(2) -0.01355(14) -0.00041(11) 0.00065(12)
Rb1 0.0217(7) 0.0734(13) 0.0246(7) 0.000 0.000 0.000
Rb2 0.0180(6) 0.0391(8) 0.0363(8) 0.000 0.000 0.000
Rb3 0.0264(7) 0.0319(8) 0.0314(7) 0.000 0.000 0.000
Rb4 0.0180(6) 0.0489(10) 0.0388(8) 0.000 0.000 0.000
Si1 0.0095(10) 0.0219(12) 0.0113(10) 0.000 0.0016(8) 0.000
O1 0.030(3) 0.105(8) 0.059(5) 0.032(5) 0.002(3) 0.004(4)
O3 0.012(4) 0.060(7) 0.066(7) -0.031(5) 0.000 0.000
O4 0.017(5) 0.067(8) 0.018(5) 0.000 0.000 0.000
loop_
_atom_type_symbol
_atom_type_description
_atom_type_scat_dispersion_real
_atom_type_scat_dispersion_imag
_atom_type_scat_source
O O 0.0106 0.0060 'International Tables Vol C Tables 4.2.6.8 and 6.1.1.4'
Si Si 0.0817 0.0704 'International Tables Vol C Tables 4.2.6.8 and 6.1.1.4'
Rb Rb -0.9393 2.9676 'International Tables Vol C Tables 4.2.6.8 and 6.1.1.4'
U U -9.6767 9.6646 'International Tables Vol C Tables 4.2.6.8 and 6.1.1.4'
loop_
_geom_angle_atom_site_label_1
_geom_angle_atom_site_label_2
_geom_angle_atom_site_label_3
_geom_angle
_geom_angle_site_symmetry_1
_geom_angle_site_symmetry_3
O1 U1 O1 180.0 . 13
O1 U1 O3 91.8(4) . .
O1 U1 O3 88.2(4) 13 .
O1 U1 O3 88.2(4) . 13
O1 U1 O3 91.8(4) 13 13
O3 U1 O3 180.0 . 13
O1 U1 O2B 100.2(4) . 13
O1 U1 O2B 79.8(4) 13 13
O3 U1 O2B 90.0(3) . 13
O3 U1 O2B 90.0(3) 13 13
O1 U1 O2B 79.8(4) . .
O1 U1 O2B 100.2(4) 13 .
O3 U1 O2B 90.0(3) . .
O3 U1 O2B 90.0(3) 13 .
O2B U1 O2B 180.0 13 .
O1 U1 O2A 99.6(4) . .
O1 U1 O2A 80.4(4) 13 .
O3 U1 O2A 89.8(3) . .
O3 U1 O2A 90.2(3) 13 .
O2B U1 O2A 160.2(3) 13 .
O2B U1 O2A 19.8(3) . .
O1 U1 O2A 80.4(4) . 13
O1 U1 O2A 99.6(4) 13 13
O3 U1 O2A 90.2(3) . 13
O3 U1 O2A 89.8(3) 13 13
O2B U1 O2A 19.8(3) 13 13
O2B U1 O2A 160.2(3) . 13
O2A U1 O2A 180.0 . 13
O1 U1 Rb2 123.4(3) . .
O1 U1 Rb2 56.6(3) 13 .
O3 U1 Rb2 53.2(3) . .
O3 U1 Rb2 126.8(3) 13 .
O2B U1 Rb2 46.8(3) 13 .
O2B U1 Rb2 133.2(3) . .
O2A U1 Rb2 120.1(3) . .
O2A U1 Rb2 59.9(3) 13 .
O1 U1 Rb2 56.6(3) . 13
O1 U1 Rb2 123.4(3) 13 13
O3 U1 Rb2 126.8(3) . 13
O3 U1 Rb2 53.2(3) 13 13
O2B U1 Rb2 133.2(3) 13 13
O2B U1 Rb2 46.8(3) . 13
O2A U1 Rb2 59.9(3) . 13
O2A U1 Rb2 120.1(3) 13 13
Rb2 U1 Rb2 180.0 . 13
O1 U1 Rb3 50.0(3) . 13
O1 U1 Rb3 130.0(3) 13 13
O3 U1 Rb3 128.1(3) . 13
O3 U1 Rb3 51.9(3) 13 13
O2B U1 Rb3 68.8(3) 13 13
O2B U1 Rb3 111.2(3) . 13
O2A U1 Rb3 125.4(3) . 13
O2A U1 Rb3 54.6(3) 13 13
Rb2 U1 Rb3 114.36(3) . 13
Rb2 U1 Rb3 65.64(3) 13 13
O1 U1 Rb3 130.0(3) . .
O1 U1 Rb3 50.0(3) 13 .
O3 U1 Rb3 51.9(3) . .
O3 U1 Rb3 128.1(3) 13 .
O2B U1 Rb3 111.2(3) 13 .
O2B U1 Rb3 68.8(3) . .
O2A U1 Rb3 54.6(3) . .
O2A U1 Rb3 125.4(3) 13 .
Rb2 U1 Rb3 65.64(3) . .
Rb2 U1 Rb3 114.36(3) 13 .
Rb3 U1 Rb3 180.0 13 .
O1 Rb1 O1 169.5(3) 12 11_565
O1 Rb1 O1 94.9(3) 12 2_565
O1 Rb1 O1 84.1(3) 11_565 2_565
O1 Rb1 O1 84.1(3) 12 .
O1 Rb1 O1 94.9(3) 11_565 .
O1 Rb1 O1 169.5(3) 2_565 .
O1 Rb1 O4 95.27(16) 12 .
O1 Rb1 O4 95.27(16) 11_565 .
O1 Rb1 O4 95.27(16) 2_565 .
O1 Rb1 O4 95.27(16) . .
O1 Rb1 O2B 105.0(3) 12 .
O1 Rb1 O2B 82.2(3) 11_565 .
O1 Rb1 O2B 138.8(2) 2_565 .
O1 Rb1 O2B 51.0(3) . .
O4 Rb1 O2B 48.0(2) . .
O1 Rb1 O2B 138.8(2) 12 11_565
O1 Rb1 O2B 51.0(3) 11_565 11_565
O1 Rb1 O2B 105.0(3) 2_565 11_565
O1 Rb1 O2B 82.2(3) . 11_565
O4 Rb1 O2B 48.0(2) . 11_565
O2B Rb1 O2B 39.1(4) . 11_565
O1 Rb1 O2B 51.0(3) 12 12
O1 Rb1 O2B 138.8(2) 11_565 12
O1 Rb1 O2B 82.2(3) 2_565 12
O1 Rb1 O2B 105.0(3) . 12
O4 Rb1 O2B 48.0(2) . 12
O2B Rb1 O2B 83.1(4) . 12
O2B Rb1 O2B 96.0(4) 11_565 12
O1 Rb1 O2B 82.2(3) 12 2_565
O1 Rb1 O2B 105.0(3) 11_565 2_565
O1 Rb1 O2B 51.0(3) 2_565 2_565
O1 Rb1 O2B 138.8(2) . 2_565
O4 Rb1 O2B 48.0(2) . 2_565
O2B Rb1 O2B 96.0(4) . 2_565
O2B Rb1 O2B 83.1(4) 11_565 2_565
O2B Rb1 O2B 39.1(4) 12 2_565
O1 Rb1 Si1 76.87(17) 12 2_565
O1 Rb1 Si1 112.98(16) 11_565 2_565
O1 Rb1 Si1 76.87(17) 2_565 2_565
O1 Rb1 Si1 112.98(16) . 2_565
O4 Rb1 Si1 27.45(4) . 2_565
O2B Rb1 Si1 73.3(2) . 2_565
O2B Rb1 Si1 73.3(2) 11_565 2_565
O2B Rb1 Si1 25.9(2) 12 2_565
O2B Rb1 Si1 25.9(2) 2_565 2_565
O1 Rb1 Si1 112.98(16) 12 .
O1 Rb1 Si1 76.87(17) 11_565 .
O1 Rb1 Si1 112.98(16) 2_565 .
O1 Rb1 Si1 76.87(17) . .
O4 Rb1 Si1 27.45(4) . .
O2B Rb1 Si1 25.9(2) . .
O2B Rb1 Si1 25.9(2) 11_565 .
O2B Rb1 Si1 73.3(2) 12 .
O2B Rb1 Si1 73.3(2) 2_565 .
Si1 Rb1 Si1 54.90(8) 2_565 .
O1 Rb1 O3 135.06(18) 12 2_565
O1 Rb1 O3 50.87(18) 11_565 2_565
O1 Rb1 O3 50.87(18) 2_565 2_565
O1 Rb1 O3 135.06(18) . 2_565
O4 Rb1 O3 65.32(16) . 2_565
O2B Rb1 O3 91.4(2) . 2_565
O2B Rb1 O3 54.3(2) 11_565 2_565
O2B Rb1 O3 91.4(2) 12 2_565
O2B Rb1 O3 54.3(2) 2_565 2_565
Si1 Rb1 O3 68.25(14) 2_565 2_565
Si1 Rb1 O3 68.25(14) . 2_565
O2B Rb2 O2B 44.2(5) 14_445 8_455
O2B Rb2 O2B 112.7(5) 14_445 13
O2B Rb2 O2B 95.9(4) 8_455 13
O2B Rb2 O2B 95.9(4) 14_445 7_545
O2B Rb2 O2B 112.7(5) 8_455 7_545
O2B Rb2 O2B 44.2(5) 13 7_545
O2B Rb2 O3 106.7(3) 14_445 .
O2B Rb2 O3 62.8(2) 8_455 .
O2B Rb2 O3 62.8(2) 13 .
O2B Rb2 O3 106.7(3) 7_545 .
O2B Rb2 O3 62.8(2) 14_445 2
O2B Rb2 O3 106.7(3) 8_455 2
O2B Rb2 O3 106.7(3) 13 2
O2B Rb2 O3 62.8(2) 7_545 2
O3 Rb2 O3 162.4(4) . 2
O2B Rb2 O1 155.8(3) 14_445 13
O2B Rb2 O1 114.2(3) 8_455 13
O2B Rb2 O1 51.1(3) 13 13
O2B Rb2 O1 82.8(3) 7_545 13
O3 Rb2 O1 51.68(17) . 13
O3 Rb2 O1 134.32(16) 2 13
O2B Rb2 O1 51.1(3) 14_445 14_445
O2B Rb2 O1 82.8(3) 8_455 14_445
O2B Rb2 O1 155.8(3) 13 14_445
O2B Rb2 O1 114.2(3) 7_545 14_445
O3 Rb2 O1 134.32(16) . 14_445
O3 Rb2 O1 51.68(17) 2 14_445
O1 Rb2 O1 150.3(3) 13 14_445
O2B Rb2 O1 114.2(3) 14_445 7_545
O2B Rb2 O1 155.8(3) 8_455 7_545
O2B Rb2 O1 82.8(3) 13 7_545
O2B Rb2 O1 51.1(3) 7_545 7_545
O3 Rb2 O1 134.32(16) . 7_545
O3 Rb2 O1 51.68(17) 2 7_545
O1 Rb2 O1 83.7(3) 13 7_545
O1 Rb2 O1 88.7(3) 14_445 7_545
O2B Rb2 O1 82.8(3) 14_445 8_455
O2B Rb2 O1 51.1(3) 8_455 8_455
O2B Rb2 O1 114.2(3) 13 8_455
O2B Rb2 O1 155.8(3) 7_545 8_455
O3 Rb2 O1 51.68(17) . 8_455
O3 Rb2 O1 134.32(16) 2 8_455
O1 Rb2 O1 88.7(3) 13 8_455
O1 Rb2 O1 83.7(3) 14_445 8_455
O1 Rb2 O1 150.3(3) 7_545 8_455
O2B Rb2 O2A 10.8(3) 14_445 14_445
O2B Rb2 O2A 49.2(3) 8_455 14_445
O2B Rb2 O2A 104.1(3) 13 14_445
O2B Rb2 O2A 85.1(3) 7_545 14_445
O3 Rb2 O2A 109.3(2) . 14_445
O3 Rb2 O2A 57.7(2) 2 14_445
O1 Rb2 O2A 152.3(2) 13 14_445
O1 Rb2 O2A 57.1(2) 14_445 14_445
O1 Rb2 O2A 107.6(2) 7_545 14_445
O1 Rb2 O2A 92.3(2) 8_455 14_445
O2B Rb2 O2A 49.2(3) 14_445 8_455
O2B Rb2 O2A 10.8(3) 8_455 8_455
O2B Rb2 O2A 85.1(3) 13 8_455
O2B Rb2 O2A 104.1(3) 7_545 8_455
O3 Rb2 O2A 57.7(2) . 8_455
O3 Rb2 O2A 109.3(2) 2 8_455
O1 Rb2 O2A 107.6(2) 13 8_455
O1 Rb2 O2A 92.3(2) 14_445 8_455
O1 Rb2 O2A 152.3(2) 7_545 8_455
O1 Rb2 O2A 57.1(2) 8_455 8_455
O2A Rb2 O2A 51.8(4) 14_445 8_455
O1 Rb3 O1 136.8(4) 8_455 6
O1 Rb3 O1 71.5(3) 8_455 15_455
O1 Rb3 O1 92.6(3) 6 15_455
O1 Rb3 O1 92.6(3) 8_455 13
O1 Rb3 O1 71.5(3) 6 13
O1 Rb3 O1 136.8(4) 15_455 13
O1 Rb3 O3 123.58(17) 8_455 10_556
O1 Rb3 O3 52.26(15) 6 10_556
O1 Rb3 O3 52.26(15) 15_455 10_556
O1 Rb3 O3 123.58(17) 13 10_556
O1 Rb3 O3 52.26(15) 8_455 .
O1 Rb3 O3 123.58(17) 6 .
O1 Rb3 O3 123.58(17) 15_455 .
O1 Rb3 O3 52.26(15) 13 .
O3 Rb3 O3 170.8(4) 10_556 .
O1 Rb3 O5B 80.5(9) 8_455 3_556
O1 Rb3 O5B 137.7(6) 6 3_556
O1 Rb3 O5B 80.5(9) 15_455 3_556
O1 Rb3 O5B 137.7(6) 13 3_556
O3 Rb3 O5B 93.58(15) 10_556 3_556
O3 Rb3 O5B 93.58(15) . 3_556
O1 Rb3 O5B 137.7(6) 8_455 .
O1 Rb3 O5B 80.5(9) 6 .
O1 Rb3 O5B 137.7(6) 15_455 .
O1 Rb3 O5B 80.5(9) 13 .
O3 Rb3 O5B 93.58(16) 10_556 .
O3 Rb3 O5B 93.58(16) . .
O5B Rb3 O5B 77(2) 3_556 .
O1 Rb3 O2A 173.5(3) 8_455 10_556
O1 Rb3 O2A 49.7(3) 6 10_556
O1 Rb3 O2A 109.6(2) 15_455 10_556
O1 Rb3 O2A 90.7(2) 13 10_556
O3 Rb3 O2A 58.4(2) 10_556 10_556
O3 Rb3 O2A 126.8(2) . 10_556
O5B Rb3 O2A 93.3(9) 3_556 10_556
O5B Rb3 O2A 37.6(5) . 10_556
O1 Rb3 O2A 49.7(3) 8_455 12
O1 Rb3 O2A 173.5(3) 6 12
O1 Rb3 O2A 90.7(2) 15_455 12
O1 Rb3 O2A 109.6(2) 13 12
O3 Rb3 O2A 126.8(2) 10_556 12
O3 Rb3 O2A 58.4(2) . 12
O5B Rb3 O2A 37.6(5) 3_556 12
O5B Rb3 O2A 93.3(9) . 12
O2A Rb3 O2A 123.8(4) 10_556 12
O1 Rb3 O2A 90.7(2) 8_455 3_556
O1 Rb3 O2A 109.6(2) 6 3_556
O1 Rb3 O2A 49.7(3) 15_455 3_556
O1 Rb3 O2A 173.5(3) 13 3_556
O3 Rb3 O2A 58.4(2) 10_556 3_556
O3 Rb3 O2A 126.8(2) . 3_556
O5B Rb3 O2A 37.6(5) 3_556 3_556
O5B Rb3 O2A 93.3(9) . 3_556
O2A Rb3 O2A 85.5(4) 10_556 3_556
O2A Rb3 O2A 68.6(4) 12 3_556
O1 Rb3 O2A 109.6(2) 8_455 .
O1 Rb3 O2A 90.7(2) 6 .
O1 Rb3 O2A 173.5(3) 15_455 .
O1 Rb3 O2A 49.7(3) 13 .
O3 Rb3 O2A 126.8(2) 10_556 .
O3 Rb3 O2A 58.4(2) . .
O5B Rb3 O2A 93.3(9) 3_556 .
O5B Rb3 O2A 37.6(5) . .
O2A Rb3 O2A 68.6(4) 10_556 .
O2A Rb3 O2A 85.5(4) 12 .
O2A Rb3 O2A 123.8(4) 3_556 .
O2A Rb4 O2A 139.3(5) 15_454 13
O2A Rb4 O2A 77.7(4) 15_454 8_455
O2A Rb4 O2A 88.4(4) 13 8_455
O2A Rb4 O2A 88.4(4) 15_454 6_554
O2A Rb4 O2A 77.7(4) 13 6_554
O2A Rb4 O2A 139.3(5) 8_455 6_554
O2A Rb4 O5B 41.1(4) 15_454 15_454
O2A Rb4 O5B 107.1(8) 13 15_454
O2A Rb4 O5B 41.1(4) 8_455 15_454
O2A Rb4 O5B 107.1(8) 6_554 15_454
O2A Rb4 O5B 107.1(8) 15_454 13
O2A Rb4 O5B 41.1(4) 13 13
O2A Rb4 O5B 107.1(8) 8_455 13
O2A Rb4 O5B 41.1(4) 6_554 13
O5B Rb4 O5B 97(2) 15_454 13
O2A Rb4 O5A 41.9(4) 15_454 5_444
O2A Rb4 O5A 105.2(8) 13 5_444
O2A Rb4 O5A 41.9(4) 8_455 5_444
O2A Rb4 O5A 105.2(8) 6_554 5_444
O5B Rb4 O5A 2.6(19) 15_454 5_444
O5B Rb4 O5A 94.9(5) 13 5_444
O2A Rb4 O5A 105.2(8) 15_454 7_545
O2A Rb4 O5A 41.9(4) 13 7_545
O2A Rb4 O5A 105.2(8) 8_455 7_545
O2A Rb4 O5A 41.9(4) 6_554 7_545
O5B Rb4 O5A 94.9(5) 15_454 7_545
O5B Rb4 O5A 2.6(19) 13 7_545
O5A Rb4 O5A 92.3(19) 5_444 7_545
O2A Rb4 O1 52.2(3) 15_454 3
O2A Rb4 O1 168.5(3) 13 3
O2A Rb4 O1 96.5(3) 8_455 3
O2A Rb4 O1 104.7(3) 6_554 3
O5B Rb4 O1 83.1(8) 15_454 3
O5B Rb4 O1 144.59(14) 13 3
O5A Rb4 O1 85.2(8) 5_444 3
O5A Rb4 O1 144.44(17) 7_545 3
O2A Rb4 O1 104.7(3) 15_454 10
O2A Rb4 O1 96.5(3) 13 10
O2A Rb4 O1 168.5(3) 8_455 10
O2A Rb4 O1 52.2(3) 6_554 10
O5B Rb4 O1 144.59(14) 15_454 10
O5B Rb4 O1 83.1(8) 13 10
O5A Rb4 O1 144.44(17) 5_444 10
O5A Rb4 O1 85.2(8) 7_545 10
O1 Rb4 O1 76.9(3) 3 10
O2A Rb4 O1 96.5(3) 15_454 12
O2A Rb4 O1 104.7(3) 13 12
O2A Rb4 O1 52.2(3) 8_455 12
O2A Rb4 O1 168.5(3) 6_554 12
O5B Rb4 O1 83.1(8) 15_454 12
O5B Rb4 O1 144.59(14) 13 12
O5A Rb4 O1 85.2(8) 5_444 12
O5A Rb4 O1 144.44(17) 7_545 12
O1 Rb4 O1 70.8(3) 3 12
O1 Rb4 O1 116.4(3) 10 12
O2A Rb4 O1 168.5(3) 15_454 .
O2A Rb4 O1 52.2(3) 13 .
O2A Rb4 O1 104.7(3) 8_455 .
O2A Rb4 O1 96.5(3) 6_554 .
O5B Rb4 O1 144.59(14) 15_454 .
O5B Rb4 O1 83.1(8) 13 .
O5A Rb4 O1 144.44(17) 5_444 .
O5A Rb4 O1 85.2(8) 7_545 .
O1 Rb4 O1 116.4(3) 3 .
O1 Rb4 O1 70.8(3) 10 .
O1 Rb4 O1 76.9(3) 12 .
O2B Si1 O2B 88.3(9) . 11_565
O2B Si1 O5A 132.8(19) . .
O2B Si1 O5A 111.3(18) 11_565 .
O2B Si1 O5A 111.3(18) . 11_565
O2B Si1 O5A 132.8(19) 11_565 11_565
O5A Si1 O5A 26(3) . 11_565
O2B Si1 O2A 113.1(6) . 11_565
O2B Si1 O2A 28.6(5) 11_565 11_565
O5A Si1 O2A 83.6(18) . 11_565
O5A Si1 O2A 107.6(18) 11_565 11_565
O2B Si1 O2A 28.6(5) . .
O2B Si1 O2A 113.1(6) 11_565 .
O5A Si1 O2A 107.6(18) . .
O5A Si1 O2A 83.6(18) 11_565 .
O2A Si1 O2A 131.6(8) 11_565 .
O2B Si1 O4 107.7(5) . .
O2B Si1 O4 107.7(5) 11_565 .
O5A Si1 O4 106(2) . .
O5A Si1 O4 106(2) 11_565 .
O2A Si1 O4 110.7(4) 11_565 .
O2A Si1 O4 110.7(4) . .
O2B Si1 O5B 107.3(19) . .
O2B Si1 O5B 137(2) 11_565 .
O5A Si1 O5B 31.5(9) . .
O5A Si1 O5B 5(3) 11_565 .
O2A Si1 O5B 112.9(19) 11_565 .
O2A Si1 O5B 79.2(19) . .
O4 Si1 O5B 105(2) . .
O2B Si1 O5B 137.5(19) . 11_565
O2B Si1 O5B 107.3(19) 11_565 11_565
O5A Si1 O5B 5(3) . 11_565
O5A Si1 O5B 31.5(9) 11_565 11_565
O2A Si1 O5B 79.2(19) 11_565 11_565
O2A Si1 O5B 112.9(19) . 11_565
O4 Si1 O5B 105(2) . 11_565
O5B Si1 O5B 37(4) . 11_565
O2B Si1 Rb1 65.3(4) . .
O2B Si1 Rb1 65.3(4) 11_565 .
O5A Si1 Rb1 161.9(18) . .
O5A Si1 Rb1 161.9(18) 11_565 .
O2A Si1 Rb1 89.5(4) 11_565 .
O2A Si1 Rb1 89.5(4) . .
O4 Si1 Rb1 60.7(4) . .
O5B Si1 Rb1 157.2(19) . .
O5B Si1 Rb1 157.2(19) 11_565 .
O2B Si1 Rb2 47.1(4) . 13
O2B Si1 Rb2 47.1(4) 11_565 13
O5A Si1 Rb2 118.7(19) . 13
O5A Si1 Rb2 118.7(19) 11_565 13
O2A Si1 Rb2 66.8(4) 11_565 13
O2A Si1 Rb2 66.8(4) . 13
O4 Si1 Rb2 133.7(4) . 13
O5B Si1 Rb2 119(2) . 13
O5B Si1 Rb2 119(2) 11_565 13
Rb1 Si1 Rb2 73.02(5) . 13
O2B Si1 Rb3 80.8(4) . .
O2B Si1 Rb3 163.9(4) 11_565 .
O5A Si1 Rb3 84.8(17) . .
O5A Si1 Rb3 62.9(18) 11_565 .
O2A Si1 Rb3 165.9(4) 11_565 .
O2A Si1 Rb3 60.2(4) . .
O4 Si1 Rb3 65.06(18) . .
O5B Si1 Rb3 58.0(19) . .
O5B Si1 Rb3 88.8(19) 11_565 .
Rb1 Si1 Rb3 99.15(4) . .
Rb2 Si1 Rb3 126.45(3) 13 .
U1 O1 Rb1 112.2(4) . .
U1 O1 Rb3 103.3(3) . 13
Rb1 O1 Rb3 144.0(3) . 13
U1 O1 Rb4 104.5(4) . .
Rb1 O1 Rb4 91.43(18) . .
Rb3 O1 Rb4 85.2(3) 13 .
U1 O1 Rb2 95.2(3) . 13
Rb1 O1 Rb2 87.3(3) . 13
Rb3 O1 Rb2 83.68(16) 13 13
Rb4 O1 Rb2 159.2(3) . 13
O2B O2A Si1 70.3(12) . .
O2B O2A U1 78.6(12) . .
Si1 O2A U1 142.5(6) . .
O2B O2A Rb4 141.7(12) . 13
Si1 O2A Rb4 116.4(5) . 13
U1 O2A Rb4 101.0(4) . 13
O2B O2A Rb3 130.7(12) . .
Si1 O2A Rb3 94.3(4) . .
U1 O2A Rb3 90.4(3) . .
Rb4 O2A Rb3 87.5(3) 13 .
O2B O2A Rb2 43.1(10) . 13
Si1 O2A Rb2 87.1(5) . 13
U1 O2A Rb2 84.1(3) . 13
Rb4 O2A Rb2 98.6(3) 13 13
Rb3 O2A Rb2 172.5(4) . 13
O2A O2B Si1 81.1(12) . .
O2A O2B U1 81.6(12) . .
Si1 O2B U1 152.7(7) . .
O2A O2B Rb2 126.1(12) . 13
Si1 O2B Rb2 109.5(5) . 13
U1 O2B Rb2 97.7(4) . 13
O2A O2B Rb1 144.1(12) . .
Si1 O2B Rb1 88.8(5) . .
U1 O2B Rb1 92.8(4) . .
Rb2 O2B Rb1 89.8(3) 13 .
O2A O2B Rb4 30.5(10) . 13
Si1 O2B Rb4 91.2(5) . 13
U1 O2B Rb4 84.5(3) . 13
Rb2 O2B Rb4 95.6(3) 13 13
Rb1 O2B Rb4 174.3(4) . 13
U1 O3 U1 166.7(6) 8_455 .
U1 O3 Rb2 93.4(3) 8_455 .
U1 O3 Rb2 93.4(3) . .
U1 O3 Rb3 95.9(3) 8_455 .
U1 O3 Rb3 95.9(3) . .
Rb2 O3 Rb3 85.8(3) . .
U1 O3 Rb1 85.2(3) 8_455 .
U1 O3 Rb1 85.2(3) . .
Rb2 O3 Rb1 164.1(3) . .
Rb3 O3 Rb1 110.1(2) . .
Si1 O4 Si1 176.3(8) . 2_565
Si1 O4 Rb1 91.8(4) . .
Si1 O4 Rb1 91.8(4) 2_565 .
Si1 O4 Rb3 89.15(18) . .
Si1 O4 Rb3 89.15(18) 2_565 .
Rb1 O4 Rb3 117.52(16) . .
Si1 O4 Rb3 89.15(18) . 9_566
Si1 O4 Rb3 89.15(18) 2_565 9_566
Rb1 O4 Rb3 117.52(16) . 9_566
Rb3 O4 Rb3 125.0(3) . 9_566
O5B O5A O5A 168(10) 11_565 11_565
O5B O5A O5B 166(10) 11_565 .
O5A O5A O5B 2(7) 11_565 .
O5B O5A Si1 100(10) 11_565 .
O5A O5A Si1 76.9(17) 11_565 .
O5B O5A Si1 76(3) . .
O5B O5A Si1 100(10) 11_565 10_556
O5A O5A Si1 76.9(17) 11_565 10_556
O5B O5A Si1 76(3) . 10_556
Si1 O5A Si1 141(4) . 10_556
O5B O5A Rb4 58(10) 11_565 5
O5A O5A Rb4 133.8(9) 11_565 5
O5B O5A Rb4 136(8) . 5
Si1 O5A Rb4 109.7(18) . 5
Si1 O5A Rb4 109.7(18) 10_556 5
O5B O5A Rb3 25(10) 11_565 9_566
O5A O5A Rb3 142.5(9) 11_565 9_566
O5B O5A Rb3 140(8) . 9_566
Si1 O5A Rb3 91.6(19) . 9_566
Si1 O5A Rb3 91.6(19) 10_556 9_566
Rb4 O5A Rb3 83.7(12) 5 9_566
O5B O5A Rb4 155(10) 11_565 13
O5A O5A Rb4 37.8(9) 11_565 13
O5B O5A Rb4 40(7) . 13
Si1 O5A Rb4 88.5(18) . 13
Si1 O5A Rb4 88.5(18) 10_556 13
Rb4 O5A Rb4 96.0(14) 5 13
Rb3 O5A Rb4 179.7(18) 9_566 13
O5A O5B O5A 10(10) 11_565 .
O5A O5B O5B 12(10) 11_565 11_565
O5A O5B O5B 2(7) . 11_565
O5A O5B Si1 75(10) 11_565 .
O5A O5B Si1 72(3) . .
O5B O5B Si1 71.6(18) 11_565 .
O5A O5B Si1 75(10) 11_565 10_556
O5A O5B Si1 72(3) . 10_556
O5B O5B Si1 71.6(18) 11_565 10_556
Si1 O5B Si1 134(4) . 10_556
O5A O5B Rb4 119(10) 11_565 13
O5A O5B Rb4 129(8) . 13
O5B O5B Rb4 131.3(10) 11_565 13
Si1 O5B Rb4 112(2) . 13
Si1 O5B Rb4 112(2) 10_556 13
O5A O5B Rb3 154(10) 11_565 .
O5A O5B Rb3 143(8) . .
O5B O5B Rb3 141.3(11) 11_565 .
Si1 O5B Rb3 96.1(19) . .
Si1 O5B Rb3 96.1(19) 10_556 .
Rb4 O5B Rb3 87.5(14) 13 .
loop_
_geom_bond_atom_site_label_1
_geom_bond_atom_site_label_2
_geom_bond_distance
_geom_bond_site_symmetry_2
U1 O1 1.841(8) .
U1 O1 1.841(8) 13
U1 O3 2.1373(14) .
U1 O3 2.1373(14) 13
U1 O2B 2.270(11) 13
U1 O2B 2.270(11) .
U1 O2A 2.291(11) .
U1 O2A 2.292(11) 13
U1 Rb2 3.8774(4) .
U1 Rb2 3.8774(4) 13
U1 Rb3 3.9920(2) 13
U1 Rb3 3.9920(2) .
Rb1 O1 2.944(9) 12
Rb1 O1 2.944(9) 11_565
Rb1 O1 2.944(9) 2_565
Rb1 O1 2.944(9) .
Rb1 O4 3.079(11) .
Rb1 O2B 3.206(11) .
Rb1 O2B 3.206(11) 11_565
Rb1 O2B 3.206(11) 12
Rb1 O2B 3.206(11) 2_565
Rb1 Si1 3.528(3) 2_565
Rb1 Si1 3.528(3) .
Rb1 O3 3.588(11) 2_565
Rb2 O2B 2.853(11) 14_445
Rb2 O2B 2.853(11) 8_455
Rb2 O2B 2.853(11) 13
Rb2 O2B 2.853(11) 7_545
Rb2 O3 3.111(10) .
Rb2 O3 3.111(10) 2
Rb2 O1 3.251(9) 13
Rb2 O1 3.251(9) 14_445
Rb2 O1 3.251(9) 7_545
Rb2 O1 3.251(9) 8_455
Rb2 O2A 3.374(11) 14_445
Rb2 O2A 3.374(11) 8_455
Rb3 O1 3.144(8) 8_455
Rb3 O1 3.144(8) 6
Rb3 O1 3.144(8) 15_455
Rb3 O1 3.144(8) 13
Rb3 O3 3.158(11) 10_556
Rb3 O3 3.158(11) .
Rb3 O5B 3.19(5) 3_556
Rb3 O5B 3.19(5) .
Rb3 O2A 3.253(11) 10_556
Rb3 O2A 3.253(11) 12
Rb3 O2A 3.253(11) 3_556
Rb3 O2A 3.253(11) .
Rb4 O2A 2.925(11) 15_454
Rb4 O2A 2.925(11) 13
Rb4 O2A 2.925(11) 8_455
Rb4 O2A 2.925(11) 6_554
Rb4 O5B 2.99(6) 15_454
Rb4 O5B 2.99(6) 13
Rb4 O5A 3.07(5) 5_444
Rb4 O5A 3.07(5) 7_545
Rb4 O1 3.172(9) 3
Rb4 O1 3.172(9) 10
Rb4 O1 3.172(9) 12
Rb4 O1 3.172(9) .
Si1 O2B 1.541(11) .
Si1 O2B 1.541(11) 11_565
Si1 O5A 1.610(19) .
Si1 O5A 1.610(18) 11_565
Si1 O2A 1.617(11) 11_565
Si1 O2A 1.617(11) .
Si1 O4 1.627(2) .
Si1 O5B 1.64(2) .
Si1 O5B 1.64(2) 11_565
Si1 Rb2 3.668(3) 13
O1 Rb3 3.144(8) 13
O1 Rb2 3.251(9) 13
O2A O2B 0.783(14) .
O2A Rb4 2.925(11) 13
O2A Rb2 3.374(11) 13
O2B Rb2 2.853(11) 13
O2B Rb4 3.572(11) 13
O3 U1 2.1373(14) 8_455
O4 Si1 1.627(2) 2_565
O4 Rb3 3.391(5) 9_566
O5A O5B 0.16(10) 11_565
O5A O5A 0.73(10) 11_565
O5A O5B 0.88(3) .
O5A Si1 1.610(18) 10_556
O5A Rb4 3.07(5) 5
O5A Rb3 3.33(5) 9_566
O5A Rb4 3.62(5) 13
O5B O5A 0.16(10) 11_565
O5B O5B 1.04(11) 11_565
O5B Si1 1.64(2) 10_556
O5B Rb4 2.99(6) 13
