#------------------------------------------------------------------------------
#$Date: 2016-02-13 21:28:24 +0200 (Sat, 13 Feb 2016) $
#$Revision: 176429 $
#$URL: svn://www.crystallography.net/cod/cif/4/34/31/4343136.cif $
#------------------------------------------------------------------------------
#
# This file is available in the Crystallography Open Database (COD),
# http://www.crystallography.net/
#
# All data on this site have been placed in the public domain by the
# contributors.
#
data_4343136
loop_
_publ_author_name
'Murphy, Denissa T.'
'Schmid, Siegbert'
'Hester, James R.'
'Blanchard, Peter E. R.'
'Miiller, Wojciech'
_publ_section_title
;
 Coordination Site Disorder in Spinel-Type LiMnTiO4.
;
_journal_issue                   10
_journal_name_full               'Inorganic chemistry'
_journal_page_first              4636
_journal_page_last               4643
_journal_paper_doi               10.1021/ic502747p
_journal_volume                  54
_journal_year                    2015
_chemical_formula_sum            'Li Mn O3.92 Ti'
_chemical_formula_weight         172.5
_chemical_name_common
Lithium_manganese_titanate_quenched_900C_O-Vacancy
_chemical_name_systematic        ' ?'
_space_group_IT_number           227
_symmetry_cell_setting           cubic
_symmetry_Int_Tables_number      227
_symmetry_space_group_name_Hall  '-F 4vw 2vw 3'
_symmetry_space_group_name_H-M   'F d -3 m :2'
_cell_angle_alpha                90
_cell_angle_beta                 90
_cell_angle_gamma                90
_cell_formula_units_Z            8
_cell_length_a                   8.380853(15)
_cell_length_b                   8.380853(15)
_cell_length_c                   8.380853(15)
_cell_measurement_temperature    293
_cell_volume                     588.6602(18)
_diffrn_ambient_temperature      293
_diffrn_measurement_device_type  powder_diffraction
_diffrn_radiation_probe          neutron
_diffrn_radiation_type           neutron
_diffrn_radiation_wavelength     1.622
_exptl_absorpt_coefficient_mu    0.11
_exptl_crystal_density_diffrn    3.891
_exptl_crystal_F_000             651
_pd_char_colour                  black
_pd_instr_location               ' ?'
_pd_meas_2theta_range_max        163.950
_pd_meas_2theta_range_min        1.501
_pd_meas_number_of_points        3283
_pd_proc_2theta_range_max        163.95
_pd_proc_2theta_range_min        9.301
_pd_proc_ls_background_function  '9 Legendre polynoms'
_pd_proc_ls_pref_orient_corr     none
_pd_proc_ls_profile_function     Pseudo-Voigt
_pd_proc_ls_prof_R_factor        0.0319
_pd_proc_ls_prof_wR_expected     0.0239
_pd_proc_ls_prof_wR_factor       0.0433
_refine_ls_goodness_of_fit_all   2.13
_refine_ls_number_constraints    0
_refine_ls_number_parameters     36
_refine_ls_number_restraints     0
_refine_ls_R_factor_all          0.0325
_refine_ls_R_factor_gt           0.0319
_refine_ls_shift/su_max          0.0372
_refine_ls_shift/su_mean         0.0030
_refine_ls_weighting_scheme      sigma
_refine_ls_wR_factor_all         0.0669
_refine_ls_wR_factor_gt          0.0669
_cod_data_source_file            ic502747p_si_001.cif
_cod_data_source_block           I
_cod_original_sg_symbol_Hall     '-F 4abvw;2abvw;3'
_cod_original_sg_symbol_H-M      'F d -3 m'
_cod_original_formula_sum        'Li1 Mn1 O3.92 Ti1'
_cod_database_code               4343136
loop_
_symmetry_equiv_pos_site_id
_symmetry_equiv_pos_as_xyz
1 x,y,z
2 -x+3/4,-y+1/4,z+1/2
3 -x+1/4,y+1/2,-z+3/4
4 x+1/2,-y+3/4,-z+1/4
5 z,x,y
6 z+1/2,-x+3/4,-y+1/4
7 -z+3/4,-x+1/4,y+1/2
8 -z+1/4,x+1/2,-y+3/4
9 y,z,x
10 -y+1/4,z+1/2,-x+3/4
11 y+1/2,-z+3/4,-x+1/4
12 -y+3/4,-z+1/4,x+1/2
13 y+3/4,x+1/4,-z+1/2
14 -y,-x,-z
15 y+1/4,-x+1/2,z+3/4
16 -y+1/2,x+3/4,z+1/4
17 x+3/4,z+1/4,-y+1/2
18 -x+1/2,z+3/4,y+1/4
19 -x,-z,-y
20 x+1/4,-z+1/2,y+3/4
21 z+3/4,y+1/4,-x+1/2
22 z+1/4,-y+1/2,x+3/4
23 -z+1/2,y+3/4,x+1/4
24 -z,-y,-x
25 -x,-y,-z
26 x+1/4,y+3/4,-z+1/2
27 x+3/4,-y+1/2,z+1/4
28 -x+1/2,y+1/4,z+3/4
29 -z,-x,-y
30 -z+1/2,x+1/4,y+3/4
31 z+1/4,x+3/4,-y+1/2
32 z+3/4,-x+1/2,y+1/4
33 -y,-z,-x
34 y+3/4,-z+1/2,x+1/4
35 -y+1/2,z+1/4,x+3/4
36 y+1/4,z+3/4,-x+1/2
37 -y+1/4,-x+3/4,z+1/2
38 y,x,z
39 -y+3/4,x+1/2,-z+1/4
40 y+1/2,-x+1/4,-z+3/4
41 -x+1/4,-z+3/4,y+1/2
42 x+1/2,-z+1/4,-y+3/4
43 x,z,y
44 -x+3/4,z+1/2,-y+1/4
45 -z+1/4,-y+3/4,x+1/2
46 -z+3/4,y+1/2,-x+1/4
47 z+1/2,-y+1/4,-x+3/4
48 z,y,x
49 x,y+1/2,z+1/2
50 -x+3/4,-y+3/4,z
51 -x+1/4,y,-z+1/4
52 x+1/2,-y+1/4,-z+3/4
53 z,x+1/2,y+1/2
54 z+1/2,-x+1/4,-y+3/4
55 -z+3/4,-x+3/4,y
56 -z+1/4,x,-y+1/4
57 y,z+1/2,x+1/2
58 -y+1/4,z,-x+1/4
59 y+1/2,-z+1/4,-x+3/4
60 -y+3/4,-z+3/4,x
61 y+3/4,x+3/4,-z
62 -y,-x+1/2,-z+1/2
63 y+1/4,-x,z+1/4
64 -y+1/2,x+1/4,z+3/4
65 x+3/4,z+3/4,-y
66 -x+1/2,z+1/4,y+3/4
67 -x,-z+1/2,-y+1/2
68 x+1/4,-z,y+1/4
69 z+3/4,y+3/4,-x
70 z+1/4,-y,x+1/4
71 -z+1/2,y+1/4,x+3/4
72 -z,-y+1/2,-x+1/2
73 -x,-y+1/2,-z+1/2
74 x+1/4,y+1/4,-z
75 x+3/4,-y,z+3/4
76 -x+1/2,y+3/4,z+1/4
77 -z,-x+1/2,-y+1/2
78 -z+1/2,x+3/4,y+1/4
79 z+1/4,x+1/4,-y
80 z+3/4,-x,y+3/4
81 -y,-z+1/2,-x+1/2
82 y+3/4,-z,x+3/4
83 -y+1/2,z+3/4,x+1/4
84 y+1/4,z+1/4,-x
85 -y+1/4,-x+1/4,z
86 y,x+1/2,z+1/2
87 -y+3/4,x,-z+3/4
88 y+1/2,-x+3/4,-z+1/4
89 -x+1/4,-z+1/4,y
90 x+1/2,-z+3/4,-y+1/4
91 x,z+1/2,y+1/2
92 -x+3/4,z,-y+3/4
93 -z+1/4,-y+1/4,x
94 -z+3/4,y,-x+3/4
95 z+1/2,-y+3/4,-x+1/4
96 z,y+1/2,x+1/2
97 x+1/2,y,z+1/2
98 -x+1/4,-y+1/4,z
99 -x+3/4,y+1/2,-z+1/4
100 x,-y+3/4,-z+3/4
101 z+1/2,x,y+1/2
102 z,-x+3/4,-y+3/4
103 -z+1/4,-x+1/4,y
104 -z+3/4,x+1/2,-y+1/4
105 y+1/2,z,x+1/2
106 -y+3/4,z+1/2,-x+1/4
107 y,-z+3/4,-x+3/4
108 -y+1/4,-z+1/4,x
109 y+1/4,x+1/4,-z
110 -y+1/2,-x,-z+1/2
111 y+3/4,-x+1/2,z+1/4
112 -y,x+3/4,z+3/4
113 x+1/4,z+1/4,-y
114 -x,z+3/4,y+3/4
115 -x+1/2,-z,-y+1/2
116 x+3/4,-z+1/2,y+1/4
117 z+1/4,y+1/4,-x
118 z+3/4,-y+1/2,x+1/4
119 -z,y+3/4,x+3/4
120 -z+1/2,-y,-x+1/2
121 -x+1/2,-y,-z+1/2
122 x+3/4,y+3/4,-z
123 x+1/4,-y+1/2,z+3/4
124 -x,y+1/4,z+1/4
125 -z+1/2,-x,-y+1/2
126 -z,x+1/4,y+1/4
127 z+3/4,x+3/4,-y
128 z+1/4,-x+1/2,y+3/4
129 -y+1/2,-z,-x+1/2
130 y+1/4,-z+1/2,x+3/4
131 -y,z+1/4,x+1/4
132 y+3/4,z+3/4,-x
133 -y+3/4,-x+3/4,z
134 y+1/2,x,z+1/2
135 -y+1/4,x+1/2,-z+3/4
136 y,-x+1/4,-z+1/4
137 -x+3/4,-z+3/4,y
138 x,-z+1/4,-y+1/4
139 x+1/2,z,y+1/2
140 -x+1/4,z+1/2,-y+3/4
141 -z+3/4,-y+3/4,x
142 -z+1/4,y+1/2,-x+3/4
143 z,-y+1/4,-x+1/4
144 z+1/2,y,x+1/2
145 x+1/2,y+1/2,z
146 -x+1/4,-y+3/4,z+1/2
147 -x+3/4,y,-z+3/4
148 x,-y+1/4,-z+1/4
149 z+1/2,x+1/2,y
150 z,-x+1/4,-y+1/4
151 -z+1/4,-x+3/4,y+1/2
152 -z+3/4,x,-y+3/4
153 y+1/2,z+1/2,x
154 -y+3/4,z,-x+3/4
155 y,-z+1/4,-x+1/4
156 -y+1/4,-z+3/4,x+1/2
157 y+1/4,x+3/4,-z+1/2
158 -y+1/2,-x+1/2,-z
159 y+3/4,-x,z+3/4
160 -y,x+1/4,z+1/4
161 x+1/4,z+3/4,-y+1/2
162 -x,z+1/4,y+1/4
163 -x+1/2,-z+1/2,-y
164 x+3/4,-z,y+3/4
165 z+1/4,y+3/4,-x+1/2
166 z+3/4,-y,x+3/4
167 -z,y+1/4,x+1/4
168 -z+1/2,-y+1/2,-x
169 -x+1/2,-y+1/2,-z
170 x+3/4,y+1/4,-z+1/2
171 x+1/4,-y,z+1/4
172 -x,y+3/4,z+3/4
173 -z+1/2,-x+1/2,-y
174 -z,x+3/4,y+3/4
175 z+3/4,x+1/4,-y+1/2
176 z+1/4,-x,y+1/4
177 -y+1/2,-z+1/2,-x
178 y+1/4,-z,x+1/4
179 -y,z+3/4,x+3/4
180 y+3/4,z+1/4,-x+1/2
181 -y+3/4,-x+1/4,z+1/2
182 y+1/2,x+1/2,z
183 -y+1/4,x,-z+1/4
184 y,-x+3/4,-z+3/4
185 -x+3/4,-z+1/4,y+1/2
186 x,-z+3/4,-y+3/4
187 x+1/2,z+1/2,y
188 -x+1/4,z,-y+1/4
189 -z+3/4,-y+1/4,x+1/2
190 -z+1/4,y,-x+1/4
191 z,-y+3/4,-x+3/4
192 z+1/2,y+1/2,x
loop_
_atom_site_label
_atom_site_type_symbol
_atom_site_fract_x
_atom_site_fract_y
_atom_site_fract_z
_atom_site_adp_type
_atom_site_U_iso_or_equiv
_atom_site_symmetry_multiplicity
_atom_site_occupancy
_atom_site_calc_flag
Li11 Li 0.125 0.125 0.125 Uiso 0.0136 8 0.6751 d
Ti11 Ti 0.125 0.125 0.125 Uiso 0.0136 8 0.300(5) d
Li12 Li 0.5 0.5 0.5 Uiso 0.0137 16 0.1625 d
Ti12 Ti 0.5 0.5 0.5 Uiso 0.0141 16 0.350(3) d
Mn12 Mn 0.5 0.5 0.5 Uiso 0.0141 16 0.488(3) d
O1 O 0.26303(3) 0.26303(3) 0.26303(3) Uiso 0.01433(12) 32 0.98 d
Mn11 Mn 0.125 0.125 0.125 Uiso 0.0136 8 0.025(5) d
loop_
_atom_type_symbol
_atom_type_scat_length_neutron
_atom_type_scat_source
Li -1.900 International_Tables_Vol_C
Mn -3.730 International_Tables_Vol_C
Ti -3.438 International_Tables_Vol_C
O 5.803 International_Tables_Vol_C
loop_
_geom_angle_atom_site_label_1
_geom_angle_atom_site_label_2
_geom_angle_atom_site_label_3
_geom_angle_site_symmetry_1
_geom_angle_site_symmetry_3
_geom_angle
Ti11 Li11 O1 . . 0
Ti11 Li11 O1 . 98_555 0
Ti11 Li11 O1 . 51_555 0
Ti11 Li11 O1 . 148_555 0
Ti11 Li11 Mn11 . . 0
O1 Li11 O1 . 98_555 109.471(10)
O1 Li11 O1 . 51_555 109.471(10)
O1 Li11 O1 . 148_555 109.471(10)
O1 Li11 Mn11 . . 0
O1 Li11 O1 98_555 51_555 109.471(10)
O1 Li11 O1 98_555 148_555 109.471(10)
O1 Li11 Mn11 98_555 . 0
O1 Li11 O1 51_555 148_555 109.471(10)
O1 Li11 Mn11 51_555 . 0
O1 Li11 Mn11 148_555 . 0
Li11 Ti11 O1 . . 0
Li11 Ti11 O1 . 98_555 0
Li11 Ti11 O1 . 51_555 0
Li11 Ti11 O1 . 148_555 0
Li11 Ti11 Mn11 . . 0
O1 Ti11 O1 . 98_555 109.471(10)
O1 Ti11 O1 . 51_555 109.471(10)
O1 Ti11 O1 . 148_555 109.471(10)
O1 Ti11 Mn11 . . 0
O1 Ti11 O1 98_555 51_555 109.471(10)
O1 Ti11 O1 98_555 148_555 109.471(10)
O1 Ti11 Mn11 98_555 . 0
O1 Ti11 O1 51_555 148_555 109.471(10)
O1 Ti11 Mn11 51_555 . 0
O1 Ti11 Mn11 148_555 . 0
Li12 Li12 Li12 50_555 98_665 180.0(5)
Li12 Li12 Li12 50_555 51_656 120
Li12 Li12 Li12 50_555 147_555 60
Li12 Li12 Li12 50_555 100_555 60
Li12 Li12 Li12 50_555 148_566 120
Li12 Li12 Ti12 50_555 . 0
Li12 Li12 Ti12 50_555 50_555 0.0(5)
Li12 Li12 Ti12 50_555 98_665 180.0(5)
Li12 Li12 Ti12 50_555 51_656 120
Li12 Li12 Ti12 50_555 147_555 60
Li12 Li12 Ti12 50_555 100_555 60
Li12 Li12 Ti12 50_555 148_566 120
Li12 Li12 Mn12 50_555 . 0
Li12 Li12 Mn12 50_555 50_555 0.0(5)
Li12 Li12 Mn12 50_555 98_665 180.0(5)
Li12 Li12 Mn12 50_555 51_656 120
Li12 Li12 Mn12 50_555 147_555 60
Li12 Li12 Mn12 50_555 100_555 60
Li12 Li12 Mn12 50_555 148_566 120
Li12 Li12 O1 50_555 50_555 85.552(7)
Li12 Li12 O1 50_555 147_555 41.948(7)
Li12 Li12 O1 50_555 100_555 41.948(7)
Li12 Li12 O1 50_555 109_556 94.448(7)
Li12 Li12 O1 50_555 63_565 138.052(7)
Li12 Li12 O1 50_555 160_655 138.052(7)
Li12 Li12 Li12 98_665 51_656 60
Li12 Li12 Li12 98_665 147_555 120
Li12 Li12 Li12 98_665 100_555 120
Li12 Li12 Li12 98_665 148_566 60
Li12 Li12 Ti12 98_665 . 0
Li12 Li12 Ti12 98_665 50_555 180.0(5)
Li12 Li12 Ti12 98_665 98_665 0.0(5)
Li12 Li12 Ti12 98_665 51_656 60
Li12 Li12 Ti12 98_665 147_555 120
Li12 Li12 Ti12 98_665 100_555 120
Li12 Li12 Ti12 98_665 148_566 60
Li12 Li12 Mn12 98_665 . 0
Li12 Li12 Mn12 98_665 50_555 180.0(5)
Li12 Li12 Mn12 98_665 98_665 0.0(5)
Li12 Li12 Mn12 98_665 51_656 60
Li12 Li12 Mn12 98_665 147_555 120
Li12 Li12 Mn12 98_665 100_555 120
Li12 Li12 Mn12 98_665 148_566 60
Li12 Li12 O1 98_665 50_555 94.448(7)
Li12 Li12 O1 98_665 147_555 138.052(7)
Li12 Li12 O1 98_665 100_555 138.052(7)
Li12 Li12 O1 98_665 109_556 85.552(7)
Li12 Li12 O1 98_665 63_565 41.948(7)
Li12 Li12 O1 98_665 160_655 41.948(7)
Li12 Li12 Li12 51_656 147_555 180.0(5)
Li12 Li12 Li12 51_656 100_555 120
Li12 Li12 Li12 51_656 148_566 60
Li12 Li12 Ti12 51_656 . 0
Li12 Li12 Ti12 51_656 50_555 120
Li12 Li12 Ti12 51_656 98_665 60
Li12 Li12 Ti12 51_656 51_656 0.0(5)
Li12 Li12 Ti12 51_656 147_555 180.0(5)
Li12 Li12 Ti12 51_656 100_555 120
Li12 Li12 Ti12 51_656 148_566 60
Li12 Li12 Mn12 51_656 . 0
Li12 Li12 Mn12 51_656 50_555 120
Li12 Li12 Mn12 51_656 98_665 60
Li12 Li12 Mn12 51_656 51_656 0.0(5)
Li12 Li12 Mn12 51_656 147_555 180.0(5)
Li12 Li12 Mn12 51_656 100_555 120
Li12 Li12 Mn12 51_656 148_566 60
Li12 Li12 O1 51_656 50_555 138.052(7)
Li12 Li12 O1 51_656 147_555 94.448(7)
Li12 Li12 O1 51_656 100_555 138.052(7)
Li12 Li12 O1 51_656 109_556 41.948(7)
Li12 Li12 O1 51_656 63_565 85.552(7)
Li12 Li12 O1 51_656 160_655 41.948(7)
Li12 Li12 Li12 147_555 100_555 60
Li12 Li12 Li12 147_555 148_566 120
Li12 Li12 Ti12 147_555 . 0
Li12 Li12 Ti12 147_555 50_555 60
Li12 Li12 Ti12 147_555 98_665 120
Li12 Li12 Ti12 147_555 51_656 180.0(5)
Li12 Li12 Ti12 147_555 147_555 0.0(5)
Li12 Li12 Ti12 147_555 100_555 60
Li12 Li12 Ti12 147_555 148_566 120
Li12 Li12 Mn12 147_555 . 0
Li12 Li12 Mn12 147_555 50_555 60
Li12 Li12 Mn12 147_555 98_665 120
Li12 Li12 Mn12 147_555 51_656 180.0(5)
Li12 Li12 Mn12 147_555 147_555 0.0(5)
Li12 Li12 Mn12 147_555 100_555 60
Li12 Li12 Mn12 147_555 148_566 120
Li12 Li12 O1 147_555 50_555 41.948(7)
Li12 Li12 O1 147_555 147_555 85.552(7)
Li12 Li12 O1 147_555 100_555 41.948(7)
Li12 Li12 O1 147_555 109_556 138.052(7)
Li12 Li12 O1 147_555 63_565 94.448(7)
Li12 Li12 O1 147_555 160_655 138.052(7)
Li12 Li12 Li12 100_555 148_566 180.0(5)
Li12 Li12 Ti12 100_555 . 0
Li12 Li12 Ti12 100_555 50_555 60
Li12 Li12 Ti12 100_555 98_665 120
Li12 Li12 Ti12 100_555 51_656 120
Li12 Li12 Ti12 100_555 147_555 60
Li12 Li12 Ti12 100_555 100_555 0.0(5)
Li12 Li12 Ti12 100_555 148_566 180.0(5)
Li12 Li12 Mn12 100_555 . 0
Li12 Li12 Mn12 100_555 50_555 60
Li12 Li12 Mn12 100_555 98_665 120
Li12 Li12 Mn12 100_555 51_656 120
Li12 Li12 Mn12 100_555 147_555 60
Li12 Li12 Mn12 100_555 100_555 0.0(5)
Li12 Li12 Mn12 100_555 148_566 180.0(5)
Li12 Li12 O1 100_555 50_555 41.948(7)
Li12 Li12 O1 100_555 147_555 41.948(7)
Li12 Li12 O1 100_555 100_555 85.552(7)
Li12 Li12 O1 100_555 109_556 138.052(7)
Li12 Li12 O1 100_555 63_565 138.052(7)
Li12 Li12 O1 100_555 160_655 94.448(7)
Li12 Li12 Ti12 148_566 . 0
Li12 Li12 Ti12 148_566 50_555 120
Li12 Li12 Ti12 148_566 98_665 60
Li12 Li12 Ti12 148_566 51_656 60
Li12 Li12 Ti12 148_566 147_555 120
Li12 Li12 Ti12 148_566 100_555 180.0(5)
Li12 Li12 Ti12 148_566 148_566 0.0(5)
Li12 Li12 Mn12 148_566 . 0
Li12 Li12 Mn12 148_566 50_555 120
Li12 Li12 Mn12 148_566 98_665 60
Li12 Li12 Mn12 148_566 51_656 60
Li12 Li12 Mn12 148_566 147_555 120
Li12 Li12 Mn12 148_566 100_555 180.0(5)
Li12 Li12 Mn12 148_566 148_566 0.0(5)
Li12 Li12 O1 148_566 50_555 138.052(7)
Li12 Li12 O1 148_566 147_555 138.052(7)
Li12 Li12 O1 148_566 100_555 94.448(7)
Li12 Li12 O1 148_566 109_556 41.948(7)
Li12 Li12 O1 148_566 63_565 41.948(7)
Li12 Li12 O1 148_566 160_655 85.552(7)
Ti12 Li12 Ti12 . 50_555 0
Ti12 Li12 Ti12 . 98_665 0
Ti12 Li12 Ti12 . 51_656 0
Ti12 Li12 Ti12 . 147_555 0
Ti12 Li12 Ti12 . 100_555 0
Ti12 Li12 Ti12 . 148_566 0
Ti12 Li12 Mn12 . . 0
Ti12 Li12 Mn12 . 50_555 0
Ti12 Li12 Mn12 . 98_665 0
Ti12 Li12 Mn12 . 51_656 0
Ti12 Li12 Mn12 . 147_555 0
Ti12 Li12 Mn12 . 100_555 0
Ti12 Li12 Mn12 . 148_566 0
Ti12 Li12 O1 . 50_555 0
Ti12 Li12 O1 . 147_555 0
Ti12 Li12 O1 . 100_555 0
Ti12 Li12 O1 . 109_556 0
Ti12 Li12 O1 . 63_565 0
Ti12 Li12 O1 . 160_655 0
Ti12 Li12 Ti12 50_555 98_665 180.0(5)
Ti12 Li12 Ti12 50_555 51_656 120
Ti12 Li12 Ti12 50_555 147_555 60
Ti12 Li12 Ti12 50_555 100_555 60
Ti12 Li12 Ti12 50_555 148_566 120
Ti12 Li12 Mn12 50_555 . 0
Ti12 Li12 Mn12 50_555 50_555 0.0(5)
Ti12 Li12 Mn12 50_555 98_665 180.0(5)
Ti12 Li12 Mn12 50_555 51_656 120
Ti12 Li12 Mn12 50_555 147_555 60
Ti12 Li12 Mn12 50_555 100_555 60
Ti12 Li12 Mn12 50_555 148_566 120
Ti12 Li12 O1 50_555 50_555 85.552(7)
Ti12 Li12 O1 50_555 147_555 41.948(7)
Ti12 Li12 O1 50_555 100_555 41.948(7)
Ti12 Li12 O1 50_555 109_556 94.448(7)
Ti12 Li12 O1 50_555 63_565 138.052(7)
Ti12 Li12 O1 50_555 160_655 138.052(7)
Ti12 Li12 Ti12 98_665 51_656 60
Ti12 Li12 Ti12 98_665 147_555 120
Ti12 Li12 Ti12 98_665 100_555 120
Ti12 Li12 Ti12 98_665 148_566 60
Ti12 Li12 Mn12 98_665 . 0
Ti12 Li12 Mn12 98_665 50_555 180.0(5)
Ti12 Li12 Mn12 98_665 98_665 0.0(5)
Ti12 Li12 Mn12 98_665 51_656 60
Ti12 Li12 Mn12 98_665 147_555 120
Ti12 Li12 Mn12 98_665 100_555 120
Ti12 Li12 Mn12 98_665 148_566 60
Ti12 Li12 O1 98_665 50_555 94.448(7)
Ti12 Li12 O1 98_665 147_555 138.052(7)
Ti12 Li12 O1 98_665 100_555 138.052(7)
Ti12 Li12 O1 98_665 109_556 85.552(7)
Ti12 Li12 O1 98_665 63_565 41.948(7)
Ti12 Li12 O1 98_665 160_655 41.948(7)
Ti12 Li12 Ti12 51_656 147_555 180.0(5)
Ti12 Li12 Ti12 51_656 100_555 120
Ti12 Li12 Ti12 51_656 148_566 60
Ti12 Li12 Mn12 51_656 . 0
Ti12 Li12 Mn12 51_656 50_555 120
Ti12 Li12 Mn12 51_656 98_665 60
Ti12 Li12 Mn12 51_656 51_656 0.0(5)
Ti12 Li12 Mn12 51_656 147_555 180.0(5)
Ti12 Li12 Mn12 51_656 100_555 120
Ti12 Li12 Mn12 51_656 148_566 60
Ti12 Li12 O1 51_656 50_555 138.052(7)
Ti12 Li12 O1 51_656 147_555 94.448(7)
Ti12 Li12 O1 51_656 100_555 138.052(7)
Ti12 Li12 O1 51_656 109_556 41.948(7)
Ti12 Li12 O1 51_656 63_565 85.552(7)
Ti12 Li12 O1 51_656 160_655 41.948(7)
Ti12 Li12 Ti12 147_555 100_555 60
Ti12 Li12 Ti12 147_555 148_566 120
Ti12 Li12 Mn12 147_555 . 0
Ti12 Li12 Mn12 147_555 50_555 60
Ti12 Li12 Mn12 147_555 98_665 120
Ti12 Li12 Mn12 147_555 51_656 180.0(5)
Ti12 Li12 Mn12 147_555 147_555 0.0(5)
Ti12 Li12 Mn12 147_555 100_555 60
Ti12 Li12 Mn12 147_555 148_566 120
Ti12 Li12 O1 147_555 50_555 41.948(7)
Ti12 Li12 O1 147_555 147_555 85.552(7)
Ti12 Li12 O1 147_555 100_555 41.948(7)
Ti12 Li12 O1 147_555 109_556 138.052(7)
Ti12 Li12 O1 147_555 63_565 94.448(7)
Ti12 Li12 O1 147_555 160_655 138.052(7)
Ti12 Li12 Ti12 100_555 148_566 180.0(5)
Ti12 Li12 Mn12 100_555 . 0
Ti12 Li12 Mn12 100_555 50_555 60
Ti12 Li12 Mn12 100_555 98_665 120
Ti12 Li12 Mn12 100_555 51_656 120
Ti12 Li12 Mn12 100_555 147_555 60
Ti12 Li12 Mn12 100_555 100_555 0.0(5)
Ti12 Li12 Mn12 100_555 148_566 180.0(5)
Ti12 Li12 O1 100_555 50_555 41.948(7)
Ti12 Li12 O1 100_555 147_555 41.948(7)
Ti12 Li12 O1 100_555 100_555 85.552(7)
Ti12 Li12 O1 100_555 109_556 138.052(7)
Ti12 Li12 O1 100_555 63_565 138.052(7)
Ti12 Li12 O1 100_555 160_655 94.448(7)
Ti12 Li12 Mn12 148_566 . 0
Ti12 Li12 Mn12 148_566 50_555 120
Ti12 Li12 Mn12 148_566 98_665 60
Ti12 Li12 Mn12 148_566 51_656 60
Ti12 Li12 Mn12 148_566 147_555 120
Ti12 Li12 Mn12 148_566 100_555 180.0(5)
Ti12 Li12 Mn12 148_566 148_566 0.0(5)
Ti12 Li12 O1 148_566 50_555 138.052(7)
Ti12 Li12 O1 148_566 147_555 138.052(7)
Ti12 Li12 O1 148_566 100_555 94.448(7)
Ti12 Li12 O1 148_566 109_556 41.948(7)
Ti12 Li12 O1 148_566 63_565 41.948(7)
Ti12 Li12 O1 148_566 160_655 85.552(7)
Mn12 Li12 Mn12 . 50_555 0
Mn12 Li12 Mn12 . 98_665 0
Mn12 Li12 Mn12 . 51_656 0
Mn12 Li12 Mn12 . 147_555 0
Mn12 Li12 Mn12 . 100_555 0
Mn12 Li12 Mn12 . 148_566 0
Mn12 Li12 O1 . 50_555 0
Mn12 Li12 O1 . 147_555 0
Mn12 Li12 O1 . 100_555 0
Mn12 Li12 O1 . 109_556 0
Mn12 Li12 O1 . 63_565 0
Mn12 Li12 O1 . 160_655 0
Mn12 Li12 Mn12 50_555 98_665 180.0(5)
Mn12 Li12 Mn12 50_555 51_656 120
Mn12 Li12 Mn12 50_555 147_555 60
Mn12 Li12 Mn12 50_555 100_555 60
Mn12 Li12 Mn12 50_555 148_566 120
Mn12 Li12 O1 50_555 50_555 85.552(7)
Mn12 Li12 O1 50_555 147_555 41.948(7)
Mn12 Li12 O1 50_555 100_555 41.948(7)
Mn12 Li12 O1 50_555 109_556 94.448(7)
Mn12 Li12 O1 50_555 63_565 138.052(7)
Mn12 Li12 O1 50_555 160_655 138.052(7)
Mn12 Li12 Mn12 98_665 51_656 60
Mn12 Li12 Mn12 98_665 147_555 120
Mn12 Li12 Mn12 98_665 100_555 120
Mn12 Li12 Mn12 98_665 148_566 60
Mn12 Li12 O1 98_665 50_555 94.448(7)
Mn12 Li12 O1 98_665 147_555 138.052(7)
Mn12 Li12 O1 98_665 100_555 138.052(7)
Mn12 Li12 O1 98_665 109_556 85.552(7)
Mn12 Li12 O1 98_665 63_565 41.948(7)
Mn12 Li12 O1 98_665 160_655 41.948(7)
Mn12 Li12 Mn12 51_656 147_555 180.0(5)
Mn12 Li12 Mn12 51_656 100_555 120
Mn12 Li12 Mn12 51_656 148_566 60
Mn12 Li12 O1 51_656 50_555 138.052(7)
Mn12 Li12 O1 51_656 147_555 94.448(7)
Mn12 Li12 O1 51_656 100_555 138.052(7)
Mn12 Li12 O1 51_656 109_556 41.948(7)
Mn12 Li12 O1 51_656 63_565 85.552(7)
Mn12 Li12 O1 51_656 160_655 41.948(7)
Mn12 Li12 Mn12 147_555 100_555 60
Mn12 Li12 Mn12 147_555 148_566 120
Mn12 Li12 O1 147_555 50_555 41.948(7)
Mn12 Li12 O1 147_555 147_555 85.552(7)
Mn12 Li12 O1 147_555 100_555 41.948(7)
Mn12 Li12 O1 147_555 109_556 138.052(7)
Mn12 Li12 O1 147_555 63_565 94.448(7)
Mn12 Li12 O1 147_555 160_655 138.052(7)
Mn12 Li12 Mn12 100_555 148_566 180.0(5)
Mn12 Li12 O1 100_555 50_555 41.948(7)
Mn12 Li12 O1 100_555 147_555 41.948(7)
Mn12 Li12 O1 100_555 100_555 85.552(7)
Mn12 Li12 O1 100_555 109_556 138.052(7)
Mn12 Li12 O1 100_555 63_565 138.052(7)
Mn12 Li12 O1 100_555 160_655 94.448(7)
Mn12 Li12 O1 148_566 50_555 138.052(7)
Mn12 Li12 O1 148_566 147_555 138.052(7)
Mn12 Li12 O1 148_566 100_555 94.448(7)
Mn12 Li12 O1 148_566 109_556 41.948(7)
Mn12 Li12 O1 148_566 63_565 41.948(7)
Mn12 Li12 O1 148_566 160_655 85.552(7)
O1 Li12 O1 50_555 147_555 83.549(10)
O1 Li12 O1 50_555 100_555 83.549(10)
O1 Li12 O1 50_555 109_556 180.0(5)
O1 Li12 O1 50_555 63_565 96.451(10)
O1 Li12 O1 50_555 160_655 96.451(10)
O1 Li12 O1 147_555 100_555 83.549(10)
O1 Li12 O1 147_555 109_556 96.451(10)
O1 Li12 O1 147_555 63_565 180.0(5)
O1 Li12 O1 147_555 160_655 96.451(10)
O1 Li12 O1 100_555 109_556 96.451(10)
O1 Li12 O1 100_555 63_565 96.451(10)
O1 Li12 O1 100_555 160_655 180.0(5)
O1 Li12 O1 109_556 63_565 83.549(10)
O1 Li12 O1 109_556 160_655 83.549(10)
O1 Li12 O1 63_565 160_655 83.549(10)
Li12 Ti12 Li12 . 50_555 0
Li12 Ti12 Li12 . 98_665 0
Li12 Ti12 Li12 . 51_656 0
Li12 Ti12 Li12 . 147_555 0
Li12 Ti12 Li12 . 100_555 0
Li12 Ti12 Li12 . 148_566 0
Li12 Ti12 Ti12 . 50_555 0
Li12 Ti12 Ti12 . 98_665 0
Li12 Ti12 Ti12 . 51_656 0
Li12 Ti12 Ti12 . 147_555 0
Li12 Ti12 Ti12 . 100_555 0
Li12 Ti12 Ti12 . 148_566 0
Li12 Ti12 Mn12 . . 0
Li12 Ti12 Mn12 . 50_555 0
Li12 Ti12 Mn12 . 98_665 0
Li12 Ti12 Mn12 . 51_656 0
Li12 Ti12 Mn12 . 147_555 0
Li12 Ti12 Mn12 . 100_555 0
Li12 Ti12 Mn12 . 148_566 0
Li12 Ti12 O1 . 50_555 0
Li12 Ti12 O1 . 147_555 0
Li12 Ti12 O1 . 100_555 0
Li12 Ti12 O1 . 109_556 0
Li12 Ti12 O1 . 63_565 0
Li12 Ti12 O1 . 160_655 0
Li12 Ti12 Li12 50_555 98_665 180.0(5)
Li12 Ti12 Li12 50_555 51_656 120
Li12 Ti12 Li12 50_555 147_555 60
Li12 Ti12 Li12 50_555 100_555 60
Li12 Ti12 Li12 50_555 148_566 120
Li12 Ti12 Ti12 50_555 50_555 0.0(5)
Li12 Ti12 Ti12 50_555 98_665 180.0(5)
Li12 Ti12 Ti12 50_555 51_656 120
Li12 Ti12 Ti12 50_555 147_555 60
Li12 Ti12 Ti12 50_555 100_555 60
Li12 Ti12 Ti12 50_555 148_566 120
Li12 Ti12 Mn12 50_555 . 0
Li12 Ti12 Mn12 50_555 50_555 0.0(5)
Li12 Ti12 Mn12 50_555 98_665 180.0(5)
Li12 Ti12 Mn12 50_555 51_656 120
Li12 Ti12 Mn12 50_555 147_555 60
Li12 Ti12 Mn12 50_555 100_555 60
Li12 Ti12 Mn12 50_555 148_566 120
Li12 Ti12 O1 50_555 50_555 85.552(7)
Li12 Ti12 O1 50_555 147_555 41.948(7)
Li12 Ti12 O1 50_555 100_555 41.948(7)
Li12 Ti12 O1 50_555 109_556 94.448(7)
Li12 Ti12 O1 50_555 63_565 138.052(7)
Li12 Ti12 O1 50_555 160_655 138.052(7)
Li12 Ti12 Li12 98_665 51_656 60
Li12 Ti12 Li12 98_665 147_555 120
Li12 Ti12 Li12 98_665 100_555 120
Li12 Ti12 Li12 98_665 148_566 60
Li12 Ti12 Ti12 98_665 50_555 180.0(5)
Li12 Ti12 Ti12 98_665 98_665 0.0(5)
Li12 Ti12 Ti12 98_665 51_656 60
Li12 Ti12 Ti12 98_665 147_555 120
Li12 Ti12 Ti12 98_665 100_555 120
Li12 Ti12 Ti12 98_665 148_566 60
Li12 Ti12 Mn12 98_665 . 0
Li12 Ti12 Mn12 98_665 50_555 180.0(5)
Li12 Ti12 Mn12 98_665 98_665 0.0(5)
Li12 Ti12 Mn12 98_665 51_656 60
Li12 Ti12 Mn12 98_665 147_555 120
Li12 Ti12 Mn12 98_665 100_555 120
Li12 Ti12 Mn12 98_665 148_566 60
Li12 Ti12 O1 98_665 50_555 94.448(7)
Li12 Ti12 O1 98_665 147_555 138.052(7)
Li12 Ti12 O1 98_665 100_555 138.052(7)
Li12 Ti12 O1 98_665 109_556 85.552(7)
Li12 Ti12 O1 98_665 63_565 41.948(7)
Li12 Ti12 O1 98_665 160_655 41.948(7)
Li12 Ti12 Li12 51_656 147_555 180.0(5)
Li12 Ti12 Li12 51_656 100_555 120
Li12 Ti12 Li12 51_656 148_566 60
Li12 Ti12 Ti12 51_656 50_555 120
Li12 Ti12 Ti12 51_656 98_665 60
Li12 Ti12 Ti12 51_656 51_656 0.0(5)
Li12 Ti12 Ti12 51_656 147_555 180.0(5)
Li12 Ti12 Ti12 51_656 100_555 120
Li12 Ti12 Ti12 51_656 148_566 60
Li12 Ti12 Mn12 51_656 . 0
Li12 Ti12 Mn12 51_656 50_555 120
Li12 Ti12 Mn12 51_656 98_665 60
Li12 Ti12 Mn12 51_656 51_656 0.0(5)
Li12 Ti12 Mn12 51_656 147_555 180.0(5)
Li12 Ti12 Mn12 51_656 100_555 120
Li12 Ti12 Mn12 51_656 148_566 60
Li12 Ti12 O1 51_656 50_555 138.052(7)
Li12 Ti12 O1 51_656 147_555 94.448(7)
Li12 Ti12 O1 51_656 100_555 138.052(7)
Li12 Ti12 O1 51_656 109_556 41.948(7)
Li12 Ti12 O1 51_656 63_565 85.552(7)
Li12 Ti12 O1 51_656 160_655 41.948(7)
Li12 Ti12 Li12 147_555 100_555 60
Li12 Ti12 Li12 147_555 148_566 120
Li12 Ti12 Ti12 147_555 50_555 60
Li12 Ti12 Ti12 147_555 98_665 120
Li12 Ti12 Ti12 147_555 51_656 180.0(5)
Li12 Ti12 Ti12 147_555 147_555 0.0(5)
Li12 Ti12 Ti12 147_555 100_555 60
Li12 Ti12 Ti12 147_555 148_566 120
Li12 Ti12 Mn12 147_555 . 0
Li12 Ti12 Mn12 147_555 50_555 60
Li12 Ti12 Mn12 147_555 98_665 120
Li12 Ti12 Mn12 147_555 51_656 180.0(5)
Li12 Ti12 Mn12 147_555 147_555 0.0(5)
Li12 Ti12 Mn12 147_555 100_555 60
Li12 Ti12 Mn12 147_555 148_566 120
Li12 Ti12 O1 147_555 50_555 41.948(7)
Li12 Ti12 O1 147_555 147_555 85.552(7)
Li12 Ti12 O1 147_555 100_555 41.948(7)
Li12 Ti12 O1 147_555 109_556 138.052(7)
Li12 Ti12 O1 147_555 63_565 94.448(7)
Li12 Ti12 O1 147_555 160_655 138.052(7)
Li12 Ti12 Li12 100_555 148_566 180.0(5)
Li12 Ti12 Ti12 100_555 50_555 60
Li12 Ti12 Ti12 100_555 98_665 120
Li12 Ti12 Ti12 100_555 51_656 120
Li12 Ti12 Ti12 100_555 147_555 60
Li12 Ti12 Ti12 100_555 100_555 0.0(5)
Li12 Ti12 Ti12 100_555 148_566 180.0(5)
Li12 Ti12 Mn12 100_555 . 0
Li12 Ti12 Mn12 100_555 50_555 60
Li12 Ti12 Mn12 100_555 98_665 120
Li12 Ti12 Mn12 100_555 51_656 120
Li12 Ti12 Mn12 100_555 147_555 60
Li12 Ti12 Mn12 100_555 100_555 0.0(5)
Li12 Ti12 Mn12 100_555 148_566 180.0(5)
Li12 Ti12 O1 100_555 50_555 41.948(7)
Li12 Ti12 O1 100_555 147_555 41.948(7)
Li12 Ti12 O1 100_555 100_555 85.552(7)
Li12 Ti12 O1 100_555 109_556 138.052(7)
Li12 Ti12 O1 100_555 63_565 138.052(7)
Li12 Ti12 O1 100_555 160_655 94.448(7)
Li12 Ti12 Ti12 148_566 50_555 120
Li12 Ti12 Ti12 148_566 98_665 60
Li12 Ti12 Ti12 148_566 51_656 60
Li12 Ti12 Ti12 148_566 147_555 120
Li12 Ti12 Ti12 148_566 100_555 180.0(5)
Li12 Ti12 Ti12 148_566 148_566 0.0(5)
Li12 Ti12 Mn12 148_566 . 0
Li12 Ti12 Mn12 148_566 50_555 120
Li12 Ti12 Mn12 148_566 98_665 60
Li12 Ti12 Mn12 148_566 51_656 60
Li12 Ti12 Mn12 148_566 147_555 120
Li12 Ti12 Mn12 148_566 100_555 180.0(5)
Li12 Ti12 Mn12 148_566 148_566 0.0(5)
Li12 Ti12 O1 148_566 50_555 138.052(7)
Li12 Ti12 O1 148_566 147_555 138.052(7)
Li12 Ti12 O1 148_566 100_555 94.448(7)
Li12 Ti12 O1 148_566 109_556 41.948(7)
Li12 Ti12 O1 148_566 63_565 41.948(7)
Li12 Ti12 O1 148_566 160_655 85.552(7)
Ti12 Ti12 Ti12 50_555 98_665 180.0(5)
Ti12 Ti12 Ti12 50_555 51_656 120
Ti12 Ti12 Ti12 50_555 147_555 60
Ti12 Ti12 Ti12 50_555 100_555 60
Ti12 Ti12 Ti12 50_555 148_566 120
Ti12 Ti12 Mn12 50_555 . 0
Ti12 Ti12 Mn12 50_555 50_555 0.0(5)
Ti12 Ti12 Mn12 50_555 98_665 180.0(5)
Ti12 Ti12 Mn12 50_555 51_656 120
Ti12 Ti12 Mn12 50_555 147_555 60
Ti12 Ti12 Mn12 50_555 100_555 60
Ti12 Ti12 Mn12 50_555 148_566 120
Ti12 Ti12 O1 50_555 50_555 85.552(7)
Ti12 Ti12 O1 50_555 147_555 41.948(7)
Ti12 Ti12 O1 50_555 100_555 41.948(7)
Ti12 Ti12 O1 50_555 109_556 94.448(7)
Ti12 Ti12 O1 50_555 63_565 138.052(7)
Ti12 Ti12 O1 50_555 160_655 138.052(7)
Ti12 Ti12 Ti12 98_665 51_656 60
Ti12 Ti12 Ti12 98_665 147_555 120
Ti12 Ti12 Ti12 98_665 100_555 120
Ti12 Ti12 Ti12 98_665 148_566 60
Ti12 Ti12 Mn12 98_665 . 0
Ti12 Ti12 Mn12 98_665 50_555 180.0(5)
Ti12 Ti12 Mn12 98_665 98_665 0.0(5)
Ti12 Ti12 Mn12 98_665 51_656 60
Ti12 Ti12 Mn12 98_665 147_555 120
Ti12 Ti12 Mn12 98_665 100_555 120
Ti12 Ti12 Mn12 98_665 148_566 60
Ti12 Ti12 O1 98_665 50_555 94.448(7)
Ti12 Ti12 O1 98_665 147_555 138.052(7)
Ti12 Ti12 O1 98_665 100_555 138.052(7)
Ti12 Ti12 O1 98_665 109_556 85.552(7)
Ti12 Ti12 O1 98_665 63_565 41.948(7)
Ti12 Ti12 O1 98_665 160_655 41.948(7)
Ti12 Ti12 Ti12 51_656 147_555 180.0(5)
Ti12 Ti12 Ti12 51_656 100_555 120
Ti12 Ti12 Ti12 51_656 148_566 60
Ti12 Ti12 Mn12 51_656 . 0
Ti12 Ti12 Mn12 51_656 50_555 120
Ti12 Ti12 Mn12 51_656 98_665 60
Ti12 Ti12 Mn12 51_656 51_656 0.0(5)
Ti12 Ti12 Mn12 51_656 147_555 180.0(5)
Ti12 Ti12 Mn12 51_656 100_555 120
Ti12 Ti12 Mn12 51_656 148_566 60
Ti12 Ti12 O1 51_656 50_555 138.052(7)
Ti12 Ti12 O1 51_656 147_555 94.448(7)
Ti12 Ti12 O1 51_656 100_555 138.052(7)
Ti12 Ti12 O1 51_656 109_556 41.948(7)
Ti12 Ti12 O1 51_656 63_565 85.552(7)
Ti12 Ti12 O1 51_656 160_655 41.948(7)
Ti12 Ti12 Ti12 147_555 100_555 60
Ti12 Ti12 Ti12 147_555 148_566 120
Ti12 Ti12 Mn12 147_555 . 0
Ti12 Ti12 Mn12 147_555 50_555 60
Ti12 Ti12 Mn12 147_555 98_665 120
Ti12 Ti12 Mn12 147_555 51_656 180.0(5)
Ti12 Ti12 Mn12 147_555 147_555 0.0(5)
Ti12 Ti12 Mn12 147_555 100_555 60
Ti12 Ti12 Mn12 147_555 148_566 120
Ti12 Ti12 O1 147_555 50_555 41.948(7)
Ti12 Ti12 O1 147_555 147_555 85.552(7)
Ti12 Ti12 O1 147_555 100_555 41.948(7)
Ti12 Ti12 O1 147_555 109_556 138.052(7)
Ti12 Ti12 O1 147_555 63_565 94.448(7)
Ti12 Ti12 O1 147_555 160_655 138.052(7)
Ti12 Ti12 Ti12 100_555 148_566 180.0(5)
Ti12 Ti12 Mn12 100_555 . 0
Ti12 Ti12 Mn12 100_555 50_555 60
Ti12 Ti12 Mn12 100_555 98_665 120
Ti12 Ti12 Mn12 100_555 51_656 120
Ti12 Ti12 Mn12 100_555 147_555 60
Ti12 Ti12 Mn12 100_555 100_555 0.0(5)
Ti12 Ti12 Mn12 100_555 148_566 180.0(5)
Ti12 Ti12 O1 100_555 50_555 41.948(7)
Ti12 Ti12 O1 100_555 147_555 41.948(7)
Ti12 Ti12 O1 100_555 100_555 85.552(7)
Ti12 Ti12 O1 100_555 109_556 138.052(7)
Ti12 Ti12 O1 100_555 63_565 138.052(7)
Ti12 Ti12 O1 100_555 160_655 94.448(7)
Ti12 Ti12 Mn12 148_566 . 0
Ti12 Ti12 Mn12 148_566 50_555 120
Ti12 Ti12 Mn12 148_566 98_665 60
Ti12 Ti12 Mn12 148_566 51_656 60
Ti12 Ti12 Mn12 148_566 147_555 120
Ti12 Ti12 Mn12 148_566 100_555 180.0(5)
Ti12 Ti12 Mn12 148_566 148_566 0.0(5)
Ti12 Ti12 O1 148_566 50_555 138.052(7)
Ti12 Ti12 O1 148_566 147_555 138.052(7)
Ti12 Ti12 O1 148_566 100_555 94.448(7)
Ti12 Ti12 O1 148_566 109_556 41.948(7)
Ti12 Ti12 O1 148_566 63_565 41.948(7)
Ti12 Ti12 O1 148_566 160_655 85.552(7)
Mn12 Ti12 Mn12 . 50_555 0
Mn12 Ti12 Mn12 . 98_665 0
Mn12 Ti12 Mn12 . 51_656 0
Mn12 Ti12 Mn12 . 147_555 0
Mn12 Ti12 Mn12 . 100_555 0
Mn12 Ti12 Mn12 . 148_566 0
Mn12 Ti12 O1 . 50_555 0
Mn12 Ti12 O1 . 147_555 0
Mn12 Ti12 O1 . 100_555 0
Mn12 Ti12 O1 . 109_556 0
Mn12 Ti12 O1 . 63_565 0
Mn12 Ti12 O1 . 160_655 0
Mn12 Ti12 Mn12 50_555 98_665 180.0(5)
Mn12 Ti12 Mn12 50_555 51_656 120
Mn12 Ti12 Mn12 50_555 147_555 60
Mn12 Ti12 Mn12 50_555 100_555 60
Mn12 Ti12 Mn12 50_555 148_566 120
Mn12 Ti12 O1 50_555 50_555 85.552(7)
Mn12 Ti12 O1 50_555 147_555 41.948(7)
Mn12 Ti12 O1 50_555 100_555 41.948(7)
Mn12 Ti12 O1 50_555 109_556 94.448(7)
Mn12 Ti12 O1 50_555 63_565 138.052(7)
Mn12 Ti12 O1 50_555 160_655 138.052(7)
Mn12 Ti12 Mn12 98_665 51_656 60
Mn12 Ti12 Mn12 98_665 147_555 120
Mn12 Ti12 Mn12 98_665 100_555 120
Mn12 Ti12 Mn12 98_665 148_566 60
Mn12 Ti12 O1 98_665 50_555 94.448(7)
Mn12 Ti12 O1 98_665 147_555 138.052(7)
Mn12 Ti12 O1 98_665 100_555 138.052(7)
Mn12 Ti12 O1 98_665 109_556 85.552(7)
Mn12 Ti12 O1 98_665 63_565 41.948(7)
Mn12 Ti12 O1 98_665 160_655 41.948(7)
Mn12 Ti12 Mn12 51_656 147_555 180.0(5)
Mn12 Ti12 Mn12 51_656 100_555 120
Mn12 Ti12 Mn12 51_656 148_566 60
Mn12 Ti12 O1 51_656 50_555 138.052(7)
Mn12 Ti12 O1 51_656 147_555 94.448(7)
Mn12 Ti12 O1 51_656 100_555 138.052(7)
Mn12 Ti12 O1 51_656 109_556 41.948(7)
Mn12 Ti12 O1 51_656 63_565 85.552(7)
Mn12 Ti12 O1 51_656 160_655 41.948(7)
Mn12 Ti12 Mn12 147_555 100_555 60
Mn12 Ti12 Mn12 147_555 148_566 120
Mn12 Ti12 O1 147_555 50_555 41.948(7)
Mn12 Ti12 O1 147_555 147_555 85.552(7)
Mn12 Ti12 O1 147_555 100_555 41.948(7)
Mn12 Ti12 O1 147_555 109_556 138.052(7)
Mn12 Ti12 O1 147_555 63_565 94.448(7)
Mn12 Ti12 O1 147_555 160_655 138.052(7)
Mn12 Ti12 Mn12 100_555 148_566 180.0(5)
Mn12 Ti12 O1 100_555 50_555 41.948(7)
Mn12 Ti12 O1 100_555 147_555 41.948(7)
Mn12 Ti12 O1 100_555 100_555 85.552(7)
Mn12 Ti12 O1 100_555 109_556 138.052(7)
Mn12 Ti12 O1 100_555 63_565 138.052(7)
Mn12 Ti12 O1 100_555 160_655 94.448(7)
Mn12 Ti12 O1 148_566 50_555 138.052(7)
Mn12 Ti12 O1 148_566 147_555 138.052(7)
Mn12 Ti12 O1 148_566 100_555 94.448(7)
Mn12 Ti12 O1 148_566 109_556 41.948(7)
Mn12 Ti12 O1 148_566 63_565 41.948(7)
Mn12 Ti12 O1 148_566 160_655 85.552(7)
O1 Ti12 O1 50_555 147_555 83.549(10)
O1 Ti12 O1 50_555 100_555 83.549(10)
O1 Ti12 O1 50_555 109_556 180.0(5)
O1 Ti12 O1 50_555 63_565 96.451(10)
O1 Ti12 O1 50_555 160_655 96.451(10)
O1 Ti12 O1 147_555 100_555 83.549(10)
O1 Ti12 O1 147_555 109_556 96.451(10)
O1 Ti12 O1 147_555 63_565 180.0(5)
O1 Ti12 O1 147_555 160_655 96.451(10)
O1 Ti12 O1 100_555 109_556 96.451(10)
O1 Ti12 O1 100_555 63_565 96.451(10)
O1 Ti12 O1 100_555 160_655 180.0(5)
O1 Ti12 O1 109_556 63_565 83.549(10)
O1 Ti12 O1 109_556 160_655 83.549(10)
O1 Ti12 O1 63_565 160_655 83.549(10)
Li12 Mn12 Li12 . 50_555 0
Li12 Mn12 Li12 . 98_665 0
Li12 Mn12 Li12 . 51_656 0
Li12 Mn12 Li12 . 147_555 0
Li12 Mn12 Li12 . 100_555 0
Li12 Mn12 Li12 . 148_566 0
Li12 Mn12 Ti12 . . 0
Li12 Mn12 Ti12 . 50_555 0
Li12 Mn12 Ti12 . 98_665 0
Li12 Mn12 Ti12 . 51_656 0
Li12 Mn12 Ti12 . 147_555 0
Li12 Mn12 Ti12 . 100_555 0
Li12 Mn12 Ti12 . 148_566 0
Li12 Mn12 O1 . 50_555 0
Li12 Mn12 O1 . 147_555 0
Li12 Mn12 O1 . 100_555 0
Li12 Mn12 O1 . 109_556 0
Li12 Mn12 O1 . 63_565 0
Li12 Mn12 O1 . 160_655 0
Li12 Mn12 Li12 50_555 98_665 180.0(5)
Li12 Mn12 Li12 50_555 51_656 120
Li12 Mn12 Li12 50_555 147_555 60
Li12 Mn12 Li12 50_555 100_555 60
Li12 Mn12 Li12 50_555 148_566 120
Li12 Mn12 Ti12 50_555 . 0
Li12 Mn12 Ti12 50_555 50_555 0.0(5)
Li12 Mn12 Ti12 50_555 98_665 180.0(5)
Li12 Mn12 Ti12 50_555 51_656 120
Li12 Mn12 Ti12 50_555 147_555 60
Li12 Mn12 Ti12 50_555 100_555 60
Li12 Mn12 Ti12 50_555 148_566 120
Li12 Mn12 O1 50_555 50_555 85.552(7)
Li12 Mn12 O1 50_555 147_555 41.948(7)
Li12 Mn12 O1 50_555 100_555 41.948(7)
Li12 Mn12 O1 50_555 109_556 94.448(7)
Li12 Mn12 O1 50_555 63_565 138.052(7)
Li12 Mn12 O1 50_555 160_655 138.052(7)
Li12 Mn12 Li12 98_665 51_656 60
Li12 Mn12 Li12 98_665 147_555 120
Li12 Mn12 Li12 98_665 100_555 120
Li12 Mn12 Li12 98_665 148_566 60
Li12 Mn12 Ti12 98_665 . 0
Li12 Mn12 Ti12 98_665 50_555 180.0(5)
Li12 Mn12 Ti12 98_665 98_665 0.0(5)
Li12 Mn12 Ti12 98_665 51_656 60
Li12 Mn12 Ti12 98_665 147_555 120
Li12 Mn12 Ti12 98_665 100_555 120
Li12 Mn12 Ti12 98_665 148_566 60
Li12 Mn12 O1 98_665 50_555 94.448(7)
Li12 Mn12 O1 98_665 147_555 138.052(7)
Li12 Mn12 O1 98_665 100_555 138.052(7)
Li12 Mn12 O1 98_665 109_556 85.552(7)
Li12 Mn12 O1 98_665 63_565 41.948(7)
Li12 Mn12 O1 98_665 160_655 41.948(7)
Li12 Mn12 Li12 51_656 147_555 180.0(5)
Li12 Mn12 Li12 51_656 100_555 120
Li12 Mn12 Li12 51_656 148_566 60
Li12 Mn12 Ti12 51_656 . 0
Li12 Mn12 Ti12 51_656 50_555 120
Li12 Mn12 Ti12 51_656 98_665 60
Li12 Mn12 Ti12 51_656 51_656 0.0(5)
Li12 Mn12 Ti12 51_656 147_555 180.0(5)
Li12 Mn12 Ti12 51_656 100_555 120
Li12 Mn12 Ti12 51_656 148_566 60
Li12 Mn12 O1 51_656 50_555 138.052(7)
Li12 Mn12 O1 51_656 147_555 94.448(7)
Li12 Mn12 O1 51_656 100_555 138.052(7)
Li12 Mn12 O1 51_656 109_556 41.948(7)
Li12 Mn12 O1 51_656 63_565 85.552(7)
Li12 Mn12 O1 51_656 160_655 41.948(7)
Li12 Mn12 Li12 147_555 100_555 60
Li12 Mn12 Li12 147_555 148_566 120
Li12 Mn12 Ti12 147_555 . 0
Li12 Mn12 Ti12 147_555 50_555 60
Li12 Mn12 Ti12 147_555 98_665 120
Li12 Mn12 Ti12 147_555 51_656 180.0(5)
Li12 Mn12 Ti12 147_555 147_555 0.0(5)
Li12 Mn12 Ti12 147_555 100_555 60
Li12 Mn12 Ti12 147_555 148_566 120
Li12 Mn12 O1 147_555 50_555 41.948(7)
Li12 Mn12 O1 147_555 147_555 85.552(7)
Li12 Mn12 O1 147_555 100_555 41.948(7)
Li12 Mn12 O1 147_555 109_556 138.052(7)
Li12 Mn12 O1 147_555 63_565 94.448(7)
Li12 Mn12 O1 147_555 160_655 138.052(7)
Li12 Mn12 Li12 100_555 148_566 180.0(5)
Li12 Mn12 Ti12 100_555 . 0
Li12 Mn12 Ti12 100_555 50_555 60
Li12 Mn12 Ti12 100_555 98_665 120
Li12 Mn12 Ti12 100_555 51_656 120
Li12 Mn12 Ti12 100_555 147_555 60
Li12 Mn12 Ti12 100_555 100_555 0.0(5)
Li12 Mn12 Ti12 100_555 148_566 180.0(5)
Li12 Mn12 O1 100_555 50_555 41.948(7)
Li12 Mn12 O1 100_555 147_555 41.948(7)
Li12 Mn12 O1 100_555 100_555 85.552(7)
Li12 Mn12 O1 100_555 109_556 138.052(7)
Li12 Mn12 O1 100_555 63_565 138.052(7)
Li12 Mn12 O1 100_555 160_655 94.448(7)
Li12 Mn12 Ti12 148_566 . 0
Li12 Mn12 Ti12 148_566 50_555 120
Li12 Mn12 Ti12 148_566 98_665 60
Li12 Mn12 Ti12 148_566 51_656 60
Li12 Mn12 Ti12 148_566 147_555 120
Li12 Mn12 Ti12 148_566 100_555 180.0(5)
Li12 Mn12 Ti12 148_566 148_566 0.0(5)
Li12 Mn12 O1 148_566 50_555 138.052(7)
Li12 Mn12 O1 148_566 147_555 138.052(7)
Li12 Mn12 O1 148_566 100_555 94.448(7)
Li12 Mn12 O1 148_566 109_556 41.948(7)
Li12 Mn12 O1 148_566 63_565 41.948(7)
Li12 Mn12 O1 148_566 160_655 85.552(7)
Ti12 Mn12 Ti12 . 50_555 0
Ti12 Mn12 Ti12 . 98_665 0
Ti12 Mn12 Ti12 . 51_656 0
Ti12 Mn12 Ti12 . 147_555 0
Ti12 Mn12 Ti12 . 100_555 0
Ti12 Mn12 Ti12 . 148_566 0
Ti12 Mn12 O1 . 50_555 0
Ti12 Mn12 O1 . 147_555 0
Ti12 Mn12 O1 . 100_555 0
Ti12 Mn12 O1 . 109_556 0
Ti12 Mn12 O1 . 63_565 0
Ti12 Mn12 O1 . 160_655 0
Ti12 Mn12 Ti12 50_555 98_665 180.0(5)
Ti12 Mn12 Ti12 50_555 51_656 120
Ti12 Mn12 Ti12 50_555 147_555 60
Ti12 Mn12 Ti12 50_555 100_555 60
Ti12 Mn12 Ti12 50_555 148_566 120
Ti12 Mn12 O1 50_555 50_555 85.552(7)
Ti12 Mn12 O1 50_555 147_555 41.948(7)
Ti12 Mn12 O1 50_555 100_555 41.948(7)
Ti12 Mn12 O1 50_555 109_556 94.448(7)
Ti12 Mn12 O1 50_555 63_565 138.052(7)
Ti12 Mn12 O1 50_555 160_655 138.052(7)
Ti12 Mn12 Ti12 98_665 51_656 60
Ti12 Mn12 Ti12 98_665 147_555 120
Ti12 Mn12 Ti12 98_665 100_555 120
Ti12 Mn12 Ti12 98_665 148_566 60
Ti12 Mn12 O1 98_665 50_555 94.448(7)
Ti12 Mn12 O1 98_665 147_555 138.052(7)
Ti12 Mn12 O1 98_665 100_555 138.052(7)
Ti12 Mn12 O1 98_665 109_556 85.552(7)
Ti12 Mn12 O1 98_665 63_565 41.948(7)
Ti12 Mn12 O1 98_665 160_655 41.948(7)
Ti12 Mn12 Ti12 51_656 147_555 180.0(5)
Ti12 Mn12 Ti12 51_656 100_555 120
Ti12 Mn12 Ti12 51_656 148_566 60
Ti12 Mn12 O1 51_656 50_555 138.052(7)
Ti12 Mn12 O1 51_656 147_555 94.448(7)
Ti12 Mn12 O1 51_656 100_555 138.052(7)
Ti12 Mn12 O1 51_656 109_556 41.948(7)
Ti12 Mn12 O1 51_656 63_565 85.552(7)
Ti12 Mn12 O1 51_656 160_655 41.948(7)
Ti12 Mn12 Ti12 147_555 100_555 60
Ti12 Mn12 Ti12 147_555 148_566 120
Ti12 Mn12 O1 147_555 50_555 41.948(7)
Ti12 Mn12 O1 147_555 147_555 85.552(7)
Ti12 Mn12 O1 147_555 100_555 41.948(7)
Ti12 Mn12 O1 147_555 109_556 138.052(7)
Ti12 Mn12 O1 147_555 63_565 94.448(7)
Ti12 Mn12 O1 147_555 160_655 138.052(7)
Ti12 Mn12 Ti12 100_555 148_566 180.0(5)
Ti12 Mn12 O1 100_555 50_555 41.948(7)
Ti12 Mn12 O1 100_555 147_555 41.948(7)
Ti12 Mn12 O1 100_555 100_555 85.552(7)
Ti12 Mn12 O1 100_555 109_556 138.052(7)
Ti12 Mn12 O1 100_555 63_565 138.052(7)
Ti12 Mn12 O1 100_555 160_655 94.448(7)
Ti12 Mn12 O1 148_566 50_555 138.052(7)
Ti12 Mn12 O1 148_566 147_555 138.052(7)
Ti12 Mn12 O1 148_566 100_555 94.448(7)
Ti12 Mn12 O1 148_566 109_556 41.948(7)
Ti12 Mn12 O1 148_566 63_565 41.948(7)
Ti12 Mn12 O1 148_566 160_655 85.552(7)
O1 Mn12 O1 50_555 147_555 83.549(10)
O1 Mn12 O1 50_555 100_555 83.549(10)
O1 Mn12 O1 50_555 109_556 180.0(5)
O1 Mn12 O1 50_555 63_565 96.451(10)
O1 Mn12 O1 50_555 160_655 96.451(10)
O1 Mn12 O1 147_555 100_555 83.549(10)
O1 Mn12 O1 147_555 109_556 96.451(10)
O1 Mn12 O1 147_555 63_565 180.0(5)
O1 Mn12 O1 147_555 160_655 96.451(10)
O1 Mn12 O1 100_555 109_556 96.451(10)
O1 Mn12 O1 100_555 63_565 96.451(10)
O1 Mn12 O1 100_555 160_655 180.0(5)
O1 Mn12 O1 109_556 63_565 83.549(10)
O1 Mn12 O1 109_556 160_655 83.549(10)
O1 Mn12 O1 63_565 160_655 83.549(10)
Li11 O1 Ti11 . . 0.0(5)
Li11 O1 Li12 . 50_555 120.816(13)
Li11 O1 Li12 . 147_555 120.816(13)
Li11 O1 Li12 . 100_555 120.816(13)
Li11 O1 Ti12 . 50_555 120.816(13)
Li11 O1 Ti12 . 147_555 120.816(13)
Li11 O1 Ti12 . 100_555 120.816(13)
Li11 O1 Mn12 . 50_555 120.816(13)
Li11 O1 Mn12 . 147_555 120.816(13)
Li11 O1 Mn12 . 100_555 120.816(13)
Li11 O1 Mn11 . . 0.0(5)
Ti11 O1 Li12 . 50_555 120.816(13)
Ti11 O1 Li12 . 147_555 120.816(13)
Ti11 O1 Li12 . 100_555 120.816(13)
Ti11 O1 Ti12 . 50_555 120.816(13)
Ti11 O1 Ti12 . 147_555 120.816(13)
Ti11 O1 Ti12 . 100_555 120.816(13)
Ti11 O1 Mn12 . 50_555 120.816(13)
Ti11 O1 Mn12 . 147_555 120.816(13)
Ti11 O1 Mn12 . 100_555 120.816(13)
Ti11 O1 Mn11 . . 0.0(5)
Li12 O1 Li12 50_555 147_555 96.104(11)
Li12 O1 Li12 50_555 100_555 96.104(11)
Li12 O1 Ti12 50_555 50_555 0.0(5)
Li12 O1 Ti12 50_555 147_555 96.104(11)
Li12 O1 Ti12 50_555 100_555 96.104(11)
Li12 O1 Mn12 50_555 50_555 0.0(5)
Li12 O1 Mn12 50_555 147_555 96.104(11)
Li12 O1 Mn12 50_555 100_555 96.104(11)
Li12 O1 Mn11 50_555 . 120.816(13)
Li12 O1 Li12 147_555 100_555 96.104(11)
Li12 O1 Ti12 147_555 50_555 96.104(11)
Li12 O1 Ti12 147_555 147_555 0.0(5)
Li12 O1 Ti12 147_555 100_555 96.104(11)
Li12 O1 Mn12 147_555 50_555 96.104(11)
Li12 O1 Mn12 147_555 147_555 0.0(5)
Li12 O1 Mn12 147_555 100_555 96.104(11)
Li12 O1 Mn11 147_555 . 120.816(13)
Li12 O1 Ti12 100_555 50_555 96.104(11)
Li12 O1 Ti12 100_555 147_555 96.104(11)
Li12 O1 Ti12 100_555 100_555 0.0(5)
Li12 O1 Mn12 100_555 50_555 96.104(11)
Li12 O1 Mn12 100_555 147_555 96.104(11)
Li12 O1 Mn12 100_555 100_555 0.0(5)
Li12 O1 Mn11 100_555 . 120.816(13)
Ti12 O1 Ti12 50_555 147_555 96.104(11)
Ti12 O1 Ti12 50_555 100_555 96.104(11)
Ti12 O1 Mn12 50_555 50_555 0.0(5)
Ti12 O1 Mn12 50_555 147_555 96.104(11)
Ti12 O1 Mn12 50_555 100_555 96.104(11)
Ti12 O1 Mn11 50_555 . 120.816(13)
Ti12 O1 Ti12 147_555 100_555 96.104(11)
Ti12 O1 Mn12 147_555 50_555 96.104(11)
Ti12 O1 Mn12 147_555 147_555 0.0(5)
Ti12 O1 Mn12 147_555 100_555 96.104(11)
Ti12 O1 Mn11 147_555 . 120.816(13)
Ti12 O1 Mn12 100_555 50_555 96.104(11)
Ti12 O1 Mn12 100_555 147_555 96.104(11)
Ti12 O1 Mn12 100_555 100_555 0.0(5)
Ti12 O1 Mn11 100_555 . 120.816(13)
Mn12 O1 Mn12 50_555 147_555 96.104(11)
Mn12 O1 Mn12 50_555 100_555 96.104(11)
Mn12 O1 Mn11 50_555 . 120.816(13)
Mn12 O1 Mn12 147_555 100_555 96.104(11)
Mn12 O1 Mn11 147_555 . 120.816(13)
Mn12 O1 Mn11 100_555 . 120.816(13)
Li11 Mn11 Ti11 . . 0
Li11 Mn11 O1 . . 0
Li11 Mn11 O1 . 98_555 0
Li11 Mn11 O1 . 51_555 0
Li11 Mn11 O1 . 148_555 0
Ti11 Mn11 O1 . . 0
Ti11 Mn11 O1 . 98_555 0
Ti11 Mn11 O1 . 51_555 0
Ti11 Mn11 O1 . 148_555 0
O1 Mn11 O1 . 98_555 109.471(10)
O1 Mn11 O1 . 51_555 109.471(10)
O1 Mn11 O1 . 148_555 109.471(10)
O1 Mn11 O1 98_555 51_555 109.471(10)
O1 Mn11 O1 98_555 148_555 109.471(10)
O1 Mn11 O1 51_555 148_555 109.471(10)
loop_
_geom_bond_atom_site_label_1
_geom_bond_atom_site_label_2
_geom_bond_site_symmetry_2
_geom_bond_distance
Li11 Ti11 . 0
Li11 O1 . 2.0037(3)
Li11 O1 98_555 2.0037(3)
Li11 O1 51_555 2.0037(3)
Li11 O1 148_555 2.0037(3)
Li11 Mn11 . 0
Ti11 O1 . 2.0037(3)
Ti11 O1 98_555 2.0037(3)
Ti11 O1 51_555 2.0037(3)
Ti11 O1 148_555 2.0037(3)
Ti11 Mn11 . 0
Li12 Li12 50_555 2.9631
Li12 Li12 98_665 2.9631
Li12 Li12 51_656 2.9631
Li12 Li12 147_555 2.9631
Li12 Li12 100_555 2.9631
Li12 Li12 148_566 2.9631
Li12 Ti12 . 0
Li12 Ti12 50_555 2.9631
Li12 Ti12 98_665 2.9631
Li12 Ti12 51_656 2.9631
Li12 Ti12 147_555 2.9631
Li12 Ti12 100_555 2.9631
Li12 Ti12 148_566 2.9631
Li12 Mn12 . 0
Li12 Mn12 50_555 2.9631
Li12 Mn12 98_665 2.9631
Li12 Mn12 51_656 2.9631
Li12 Mn12 147_555 2.9631
Li12 Mn12 100_555 2.9631
Li12 Mn12 148_566 2.9631
Li12 O1 50_555 1.9920(3)
Li12 O1 147_555 1.9920(3)
Li12 O1 100_555 1.9920(3)
Li12 O1 109_556 1.9920(3)
Li12 O1 63_565 1.9920(3)
Li12 O1 160_655 1.9920(3)
Ti12 Ti12 50_555 2.9631
Ti12 Ti12 98_665 2.9631
Ti12 Ti12 51_656 2.9631
Ti12 Ti12 147_555 2.9631
Ti12 Ti12 100_555 2.9631
Ti12 Ti12 148_566 2.9631
Ti12 Mn12 . 0
Ti12 Mn12 50_555 2.9631
Ti12 Mn12 98_665 2.9631
Ti12 Mn12 51_656 2.9631
Ti12 Mn12 147_555 2.9631
Ti12 Mn12 100_555 2.9631
Ti12 Mn12 148_566 2.9631
Ti12 O1 50_555 1.9920(3)
Ti12 O1 147_555 1.9920(3)
Ti12 O1 100_555 1.9920(3)
Ti12 O1 109_556 1.9920(3)
Ti12 O1 63_565 1.9920(3)
Ti12 O1 160_655 1.9920(3)
Mn12 O1 50_555 1.9920(3)
Mn12 O1 147_555 1.9920(3)
Mn12 O1 100_555 1.9920(3)
Mn12 O1 109_556 1.9920(3)
Mn12 O1 63_565 1.9920(3)
Mn12 O1 160_655 1.9920(3)
O1 Mn11 . 2.0037(3)
loop_
_pd_proc_point_id
_pd_proc_2theta_corrected
_pd_proc_intensity_net
_pd_calc_intensity_net
_pd_proc_ls_weight
13 9.1502 584.67 532.46 14.73
14 9.2002 556.53 532.68 14.42
15 9.2502 558.32 532.90 14.30
16 9.3002 530.48 533.10 14.03
17 9.3502 548.88 533.31 14.23
18 9.4002 526.05 533.50 13.87
19 9.4502 540.43 533.70 14.17
20 9.5002 547.23 533.88 14.22
21 9.5502 529.55 534.06 13.93
22 9.6002 554.44 534.24 14.35
23 9.6502 535.91 534.41 13.99
24 9.7002 548.16 534.57 14.28
25 9.7502 551.10 534.73 14.33
26 9.8002 530.89 534.88 14.05
27 9.8502 568.59 535.03 14.55
28 9.9002 542.15 535.17 14.12
29 9.9502 515.35 535.31 13.86
30 10.0002 523.11 535.44 14.04
31 10.0502 542.32 535.56 14.19
32 10.1002 527.32 535.68 14.01
33 10.1502 510.59 535.80 13.76
34 10.2002 530.40 535.91 14.05
35 10.2502 555.40 536.02 14.34
36 10.3002 547.84 536.12 14.24
37 10.3502 557.43 536.22 14.37
38 10.4002 552.28 536.31 14.36
39 10.4502 554.39 536.39 14.43
40 10.5002 546.65 536.48 14.25
41 10.5502 561.44 536.55 14.48
42 10.6002 516.41 536.62 13.88
43 10.6502 528.35 536.69 13.98
44 10.7002 529.20 536.75 13.96
45 10.7502 522.28 536.81 13.94
46 10.8002 509.89 536.87 13.75
47 10.8502 536.15 536.91 14.03
48 10.9002 549.90 536.96 14.29
49 10.9502 553.32 537.00 14.36
50 11.0002 537.13 537.03 14.12
51 11.0502 523.89 537.07 14.02
52 11.1002 554.43 537.09 14.36
53 11.1502 516.45 537.11 13.83
54 11.2002 520.82 537.13 13.94
55 11.2502 523.16 537.15 13.99
56 11.3002 532.66 537.15 14.11
57 11.3502 543.02 537.16 14.29
58 11.4002 523.25 537.16 13.88
59 11.4502 511.14 537.16 13.81
60 11.5002 548.62 537.15 14.29
61 11.5502 530.65 537.14 14.04
62 11.6002 533.19 537.12 14.10
63 11.6502 548.75 537.10 14.26
64 11.7002 546.49 537.08 14.25
65 11.7502 544.82 537.05 14.22
66 11.8002 508.21 537.02 13.78
67 11.8502 540.84 536.98 14.24
68 11.9002 547.52 536.95 14.32
69 11.9502 543.23 536.90 14.13
70 12.0002 532.93 536.86 14.10
71 12.0502 514.78 536.81 13.66
72 12.1002 516.50 536.75 13.81
73 12.1502 513.72 536.69 13.73
74 12.2002 543.25 536.63 14.10
75 12.2502 541.48 536.57 14.19
76 12.3002 515.55 536.50 13.83
77 12.3502 529.98 536.43 14.04
78 12.4002 543.20 536.35 14.14
79 12.4502 535.66 536.27 14.14
80 12.5002 509.33 536.19 13.78
81 12.5502 515.79 536.10 13.85
82 12.6002 524.82 536.01 13.14
83 12.6502 554.56 535.92 13.52
84 12.7002 542.80 535.82 13.38
85 12.7502 551.23 535.72 13.47
86 12.8002 548.94 535.62 13.44
87 12.8502 528.89 535.51 13.19
88 12.9002 512.92 535.40 12.99
89 12.9502 523.19 535.29 13.14
90 13.0002 548.48 535.17 13.46
91 13.0502 546.10 535.05 13.41
92 13.1002 537.23 534.93 13.29
93 13.1502 498.85 534.81 12.81
94 13.2002 525.89 534.68 13.12
95 13.2501 536.74 534.55 13.25
96 13.3002 530.48 534.41 13.14
97 13.3502 550.47 534.28 13.41
98 13.4002 536.06 534.14 13.24
99 13.4502 532.07 533.99 13.21
100 13.5002 536.83 533.85 13.28
101 13.5502 501.95 533.70 12.85
102 13.6002 543.07 533.55 13.35
103 13.6502 534.77 533.39 13.27
104 13.7002 518.07 533.23 13.06
105 13.7502 552.28 533.07 13.50
106 13.8002 523.51 532.91 13.12
107 13.8502 501.39 532.75 13.02
108 13.9002 542.43 532.58 13.53
109 13.9502 514.77 532.41 13.18
110 14.0002 554.71 532.23 13.68
111 14.0502 535.00 532.06 13.45
112 14.1002 524.33 531.96 13.29
113 14.1502 539.20 531.78 13.49
114 14.2002 526.36 531.60 13.33
115 14.2502 512.22 531.41 13.16
116 14.3002 531.28 531.23 13.39
117 14.3502 527.38 531.04 13.33
118 14.4002 540.74 530.85 13.52
119 14.4501 512.07 530.65 13.12
120 14.5001 510.93 530.46 13.10
121 14.5502 508.80 530.26 13.03
122 14.6002 534.42 530.06 13.38
123 14.6502 530.38 529.85 13.35
124 14.7002 521.89 529.65 13.25
125 14.7502 529.87 529.44 13.37
126 14.8002 532.02 529.23 13.38
127 14.8502 554.09 529.02 13.66
128 14.9002 534.78 528.81 13.43
129 14.9502 509.62 528.59 13.12
130 15.0002 532.49 528.38 13.42
131 15.0502 506.93 528.16 13.07
132 15.1002 527.73 527.94 13.45
133 15.1502 502.47 527.71 13.15
134 15.2002 533.93 527.49 13.55
135 15.2502 513.80 527.26 13.27
136 15.3002 520.53 527.03 13.35
137 15.3502 541.35 526.80 13.62
138 15.4002 522.92 526.57 13.39
139 15.4502 503.75 526.34 13.16
140 15.5002 521.78 526.10 13.38
141 15.5502 515.75 525.86 13.31
142 15.6002 518.50 525.63 13.33
143 15.6501 535.81 525.39 13.57
144 15.7001 521.64 525.14 13.34
145 15.7501 526.73 524.90 13.40
146 15.8001 564.98 524.66 13.85
147 15.8502 538.10 524.41 13.53
148 15.9002 518.19 524.16 13.28
149 15.9502 529.20 523.91 13.44
150 16.0002 530.51 523.66 13.48
151 16.0502 517.45 523.41 13.31
152 16.1002 516.41 523.16 13.28
153 16.1502 546.53 522.91 13.70
154 16.2002 531.21 522.66 13.51
155 16.2502 525.84 522.40 13.43
156 16.3002 522.62 522.15 13.38
157 16.3502 528.73 521.89 13.54
158 16.4002 493.55 521.64 13.07
159 16.4502 516.21 521.38 13.35
160 16.5002 515.37 521.13 13.33
161 16.5502 508.30 520.87 13.26
162 16.6002 522.11 520.62 13.43
163 16.6502 519.45 520.37 13.39
164 16.7002 523.21 520.13 13.46
165 16.7502 515.62 519.90 13.37
166 16.8002 518.62 519.67 13.40
167 16.8501 501.73 519.46 13.16
168 16.9001 520.69 519.27 13.40
169 16.9501 507.60 519.09 13.20
170 17.0001 524.10 518.95 13.41
171 17.0501 516.67 518.83 13.30
172 17.1002 518.92 518.75 13.33
173 17.1502 530.70 518.71 13.51
174 17.2001 532.73 518.71 13.55
175 17.2502 506.29 518.76 13.21
176 17.3002 529.30 518.85 13.52
177 17.3501 505.25 518.98 13.19
178 17.4002 525.80 519.17 13.50
179 17.4502 513.87 519.40 13.32
180 17.5002 527.78 519.67 13.53
181 17.5502 527.21 519.99 13.50
182 17.6002 523.56 520.36 13.46
183 17.6502 509.77 520.76 13.31
184 17.7002 530.09 521.21 13.57
185 17.7502 530.11 521.71 13.54
186 17.8002 508.79 522.25 13.27
187 17.8502 519.01 522.84 13.39
188 17.9002 524.24 523.49 13.46
189 17.9502 530.70 524.19 13.56
190 18.0002 545.04 524.96 13.76
191 18.0502 505.07 525.81 13.22
192 18.1001 524.10 526.73 13.47
193 18.1501 536.77 527.74 13.64
194 18.2001 539.17 528.86 13.63
195 18.2501 544.44 530.09 13.70
196 18.3001 520.67 531.46 13.36
197 18.3501 536.18 532.97 13.59
198 18.4002 518.64 534.65 13.37
199 18.4501 513.43 536.53 13.31
200 18.5001 535.63 538.61 13.60
201 18.5502 551.84 540.93 13.82
202 18.6001 546.38 543.49 13.75
203 18.6502 543.27 546.30 13.73
204 18.7002 548.20 549.33 13.78
205 18.7501 560.47 552.55 13.95
206 18.8002 548.46 555.87 13.78
207 18.8501 567.32 559.19 14.15
208 18.9002 581.24 562.36 14.34
209 18.9502 562.38 565.19 14.09
210 19.0002 551.18 567.46 13.92
211 19.0502 586.94 568.96 14.38
212 19.1002 589.66 569.46 14.41
213 19.1502 581.26 568.79 14.31
214 19.2001 573.47 566.84 14.23
215 19.2502 570.12 563.57 14.19
216 19.3002 571.38 559.11 14.18
217 19.3501 554.67 553.67 13.96
218 19.4001 562.24 547.58 14.08
219 19.4501 562.61 541.19 14.06
220 19.5001 555.60 534.83 13.96
221 19.5501 546.76 528.79 13.80
222 19.6001 541.72 523.28 13.78
223 19.6502 492.91 518.41 13.13
224 19.7001 507.74 514.26 13.35
225 19.7501 512.77 510.81 13.44
226 19.8002 507.36 508.02 13.36
227 19.8501 507.93 505.80 13.35
228 19.9001 486.35 504.06 13.09
229 19.9501 505.19 502.70 13.34
230 20.0001 476.68 501.63 12.94
231 20.0501 490.02 500.78 13.15
232 20.1001 530.04 500.08 13.79
233 20.1502 514.19 499.48 13.60
234 20.2002 485.56 498.95 13.22
235 20.2502 498.39 498.48 13.37
236 20.3002 498.17 498.03 13.38
237 20.3502 509.62 497.61 13.53
238 20.4002 503.34 497.19 13.45
239 20.4501 497.70 496.79 13.37
240 20.5002 513.45 496.40 13.58
241 20.5502 513.02 496.01 13.57
242 20.6001 496.30 495.63 13.34
243 20.6501 501.36 495.25 13.41
244 20.7001 524.79 494.88 13.72
245 20.7501 519.83 494.50 13.62
246 20.8001 486.81 494.13 13.16
247 20.8501 488.50 493.77 13.17
248 20.9001 512.68 493.40 13.54
249 20.9501 509.17 493.04 13.51
250 21.0001 493.27 492.68 13.30
251 21.0502 480.42 492.32 13.13
252 21.1001 469.98 491.96 12.98
253 21.1501 502.36 491.60 13.43
254 21.2001 512.38 491.24 13.55
255 21.2501 497.51 490.89 13.37
256 21.3001 517.05 490.53 13.63
257 21.3501 491.00 490.18 13.30
258 21.4002 494.81 489.83 13.34
259 21.4502 495.57 489.48 13.37
260 21.5001 450.00 489.13 12.70
261 21.5502 469.92 488.78 13.00
262 21.6002 492.43 488.43 13.29
263 21.6501 475.96 488.08 13.08
264 21.7001 492.36 487.73 13.33
265 21.7502 483.23 487.38 13.19
266 21.8002 512.64 487.03 13.57
267 21.8501 486.48 486.69 13.22
268 21.9001 492.81 486.34 13.32
269 21.9501 459.81 485.99 12.82
270 22.0001 482.88 485.65 13.13
271 22.0501 494.63 485.30 13.26
272 22.1001 480.00 484.96 13.06
273 22.1501 495.80 484.61 13.31
274 22.2001 514.48 484.27 13.58
275 22.2501 503.00 483.92 13.44
276 22.3002 500.35 483.58 13.41
277 22.3501 467.86 483.24 12.94
278 22.4001 485.42 482.90 13.22
279 22.4501 488.74 482.55 13.26
280 22.5001 505.29 482.21 13.48
281 22.5501 472.60 481.87 13.03
282 22.6001 482.60 481.53 13.59
283 22.6501 487.28 481.19 13.67
284 22.7002 470.98 480.85 13.42
285 22.7501 463.93 480.51 13.30
286 22.8001 468.47 480.17 13.40
287 22.8501 466.49 479.83 13.32
288 22.9001 486.61 479.49 13.68
289 22.9501 483.60 479.15 13.60
290 23.0002 486.33 478.81 13.66
291 23.0501 489.28 478.47 13.69
292 23.1001 479.52 478.14 13.54
293 23.1501 469.36 477.80 13.41
294 23.2001 477.14 477.46 13.48
295 23.2501 499.25 477.12 13.79
296 23.3001 466.68 476.79 13.30
297 23.3501 469.52 476.45 13.36
298 23.4001 487.12 476.12 13.60
299 23.4501 463.06 475.78 13.30
300 23.5001 497.60 475.45 13.86
301 23.5501 477.77 475.11 13.49
302 23.6001 468.66 474.78 13.36
303 23.6501 454.80 474.45 13.22
304 23.7001 468.73 474.11 13.35
305 23.7501 463.02 473.78 13.32
306 23.8001 470.16 473.45 13.40
307 23.8501 480.20 473.11 13.47
308 23.9001 496.82 472.78 13.69
309 23.9502 466.96 472.45 13.27
310 24.0001 474.84 472.12 13.35
311 24.0501 488.00 471.79 13.52
312 24.1001 472.10 471.46 13.37
313 24.1501 450.09 471.13 12.99
314 24.2001 469.70 470.80 13.34
315 24.2502 452.38 470.48 13.11
316 24.3001 466.70 470.15 13.27
317 24.3501 480.16 469.82 13.45
318 24.4001 474.18 469.50 13.39
319 24.4501 467.76 469.17 13.28
320 24.5001 467.73 468.84 13.27
321 24.5501 458.76 468.46 13.10
322 24.6001 477.23 468.14 13.36
323 24.6501 460.18 467.81 13.14
324 24.7001 489.76 467.49 13.55
325 24.7501 449.46 467.17 13.01
326 24.8001 475.88 466.85 13.35
327 24.8501 477.45 466.53 13.39
328 24.9001 478.75 466.20 13.48
329 24.9501 452.86 465.89 13.03
330 25.0001 467.33 465.57 13.25
331 25.0501 471.61 465.25 13.34
332 25.1001 485.25 464.93 16.85
333 25.1440 462.97 464.65 13.03
334 25.1940 471.77 464.33 13.20
335 25.2440 459.11 464.01 12.95
336 25.2940 452.43 463.70 12.87
337 25.3440 467.86 463.38 13.10
338 25.3940 462.74 463.06 13.04
339 25.4440 460.05 462.75 12.97
340 25.4940 475.72 462.43 13.24
341 25.5440 440.79 462.12 12.68
342 25.5940 481.58 461.81 13.30
343 25.6439 466.92 461.50 13.11
344 25.6940 459.67 461.18 12.91
345 25.7440 456.51 460.87 12.87
346 25.7940 459.98 460.56 12.90
347 25.8440 456.51 460.25 12.90
348 25.8940 461.62 459.94 12.94
349 25.9440 460.02 459.63 12.98
350 25.9940 451.30 459.32 12.89
351 26.0440 445.32 459.02 12.70
352 26.0940 460.03 458.71 13.00
353 26.1440 471.60 458.40 13.20
354 26.1940 454.04 458.10 12.88
355 26.2440 444.03 457.79 12.76
356 26.2940 452.11 457.49 12.90
357 26.3440 446.92 457.18 12.56
358 26.3940 445.23 456.88 12.57
359 26.4440 443.83 456.58 12.54
360 26.4940 438.06 456.27 12.42
361 26.5440 449.35 455.97 12.62
362 26.5940 447.32 455.67 12.61
363 26.6440 438.91 455.37 12.45
364 26.6940 432.16 455.07 12.41
365 26.7440 439.77 454.89 12.48
366 26.7940 444.42 454.59 12.55
367 26.8440 440.19 454.30 12.44
368 26.8940 452.71 454.01 12.67
369 26.9440 464.74 453.71 12.81
370 26.9939 457.68 453.42 12.71
371 27.0439 435.77 453.13 12.35
372 27.0940 444.79 452.84 12.49
373 27.1440 461.70 452.55 12.75
374 27.1940 437.78 452.26 12.42
375 27.2440 436.06 451.97 12.40
376 27.2940 455.60 451.68 12.71
377 27.3440 472.71 451.39 12.97
378 27.3940 446.73 451.11 12.57
379 27.4440 460.88 450.82 12.79
380 27.4940 441.94 450.54 12.55
381 27.5440 443.69 450.26 12.55
382 27.5940 446.42 449.97 12.70
383 27.6440 451.17 449.69 12.80
384 27.6940 449.89 449.41 12.79
385 27.7440 437.85 449.13 12.59
386 27.7940 440.60 448.85 12.64
387 27.8440 447.74 448.58 12.73
388 27.8940 440.27 448.30 12.62
389 27.9440 441.09 448.02 12.67
390 27.9940 451.62 447.75 12.83
391 28.0440 448.14 447.47 12.77
392 28.0940 443.02 447.20 12.69
393 28.1440 453.96 446.93 12.83
394 28.1939 450.04 446.66 12.80
395 28.2439 444.46 446.39 12.70
396 28.2939 440.41 446.12 12.60
397 28.3440 450.52 445.85 12.74
398 28.3940 439.44 445.59 12.58
399 28.4440 431.83 445.32 12.48
400 28.4939 422.31 445.06 12.36
401 28.5440 416.10 444.80 12.28
402 28.5940 444.75 444.53 12.70
403 28.6440 442.62 444.27 12.69
404 28.6940 440.78 444.02 12.66
405 28.7439 439.72 443.76 12.65
406 28.7940 435.77 443.50 12.57
407 28.8455 446.13 443.24 10.79
408 28.9001 451.88 442.96 12.68
409 28.9501 439.19 442.71 12.52
410 29.0001 446.64 442.47 12.62
411 29.0501 446.60 442.22 12.60
412 29.1001 457.73 441.97 12.77
413 29.1501 453.84 441.73 12.71
414 29.2001 429.16 441.49 12.39
415 29.2501 446.21 441.25 12.62
416 29.3001 444.32 441.01 12.56
417 29.3501 446.67 440.78 12.61
418 29.4001 434.00 440.55 12.42
419 29.4501 450.71 440.32 12.60
420 29.5001 435.29 440.09 12.42
421 29.5501 442.02 439.87 12.47
422 29.6001 443.28 439.65 12.49
423 29.6501 436.11 439.44 12.41
424 29.7001 447.71 439.23 12.59
425 29.7501 455.92 439.02 12.73
426 29.8001 436.02 438.82 12.45
427 29.8501 428.04 438.63 12.30
428 29.9001 463.38 438.45 12.84
429 29.9501 427.95 438.28 12.35
430 30.0001 437.53 438.12 12.44
431 30.0501 449.64 437.98 12.63
432 30.0997 443.27 437.87 12.24
433 30.1497 428.50 437.79 12.01
434 30.1997 425.91 437.76 11.98
435 30.2497 433.11 437.80 12.08
436 30.2997 445.01 437.91 12.26
437 30.3497 438.31 438.13 12.14
438 30.3997 425.84 438.48 11.97
439 30.4497 424.75 438.99 11.94
440 30.4997 460.61 439.69 12.44
441 30.5497 440.40 440.61 12.17
442 30.5997 443.97 441.79 12.21
443 30.6497 432.91 443.25 12.07
444 30.6997 439.98 445.04 12.13
445 30.7497 446.82 447.17 12.23
446 30.7997 465.06 449.69 12.45
447 30.8497 490.64 452.63 12.82
448 30.8997 492.34 456.03 12.84
449 30.9497 473.84 459.94 12.65
450 30.9997 497.64 464.40 12.94
451 31.0497 492.77 469.47 12.92
452 31.0997 510.85 475.17 13.09
453 31.1497 515.01 481.53 13.17
454 31.1997 531.15 488.52 13.43
455 31.2497 519.75 496.05 13.26
456 31.2997 542.49 503.96 13.56
457 31.3462 541.87 511.45 13.33
458 31.3962 561.02 519.30 13.56
459 31.4463 554.47 526.53 13.46
460 31.4962 565.28 532.64 13.59
461 31.5462 539.38 537.13 13.26
462 31.5962 595.66 539.50 13.96
463 31.6462 580.53 539.35 13.79
464 31.6962 561.30 536.47 13.52
465 31.7463 566.54 530.86 13.61
466 31.7962 545.88 522.87 13.36
467 31.8462 563.48 513.05 13.56
468 31.8962 532.91 502.14 13.16
469 31.9462 506.53 490.86 12.82
470 31.9962 491.56 479.89 12.64
471 32.0462 481.33 469.72 12.48
472 32.0962 447.71 460.69 12.02
473 32.1462 438.69 452.97 11.88
474 32.1962 459.77 446.61 12.25
475 32.2462 452.32 441.53 12.11
476 32.2962 443.16 437.58 11.96
477 32.3462 425.55 434.60 11.77
478 32.3962 410.84 432.37 11.56
479 32.4462 441.71 430.73 12.00
480 32.4962 415.76 431.45 11.62
481 32.5462 426.13 430.58 11.78
482 32.5922 408.52 429.97 11.71
483 32.6423 417.13 429.44 11.89
484 32.6923 435.04 429.00 12.13
485 32.7422 419.60 428.63 11.85
486 32.7923 427.50 428.31 12.00
487 32.8423 425.90 428.02 11.97
488 32.8923 431.08 427.74 12.05
489 32.9422 411.42 427.49 11.78
490 32.9923 412.65 427.25 11.78
491 33.0423 413.40 427.03 11.79
492 33.0922 422.13 426.82 11.91
493 33.1422 408.49 426.61 11.70
494 33.1922 426.12 426.42 11.95
495 33.2422 421.41 426.23 11.88
496 33.2922 433.76 426.05 12.01
497 33.3422 428.83 425.89 11.98
498 33.3922 438.34 425.72 12.14
499 33.4422 431.39 425.57 12.05
500 33.4922 442.28 425.42 12.19
501 33.5423 424.25 425.28 11.96
502 33.5922 425.25 425.15 11.95
503 33.6422 420.07 425.02 11.90
504 33.6922 424.45 424.90 11.95
505 33.7422 427.53 424.79 12.01
506 33.7922 414.17 424.68 11.82
507 33.8426 417.35 424.58 11.58
508 33.8926 445.86 424.49 12.01
509 33.9427 423.00 424.41 11.67
510 33.9926 423.15 424.33 11.64
511 34.0426 419.36 424.26 11.61
512 34.0927 425.41 424.20 11.70
513 34.1426 429.29 424.15 11.73
514 34.1926 421.47 424.10 11.64
515 34.2427 425.40 437.55 11.72
516 34.2926 436.27 437.82 11.86
517 34.3426 423.00 438.10 11.66
518 34.3926 432.52 438.40 11.80
519 34.4426 425.42 438.73 11.69
520 34.4926 451.83 439.07 12.04
521 34.5426 447.09 439.44 11.97
522 34.5926 448.93 439.84 11.98
523 34.6426 446.16 440.26 11.98
524 34.6926 460.42 440.71 12.20
525 34.7426 461.65 441.19 12.21
526 34.7926 469.20 441.70 12.33
527 34.8426 462.76 442.25 12.22
528 34.8926 471.39 442.83 12.37
529 34.9426 464.89 443.46 12.27
530 34.9926 481.92 444.12 12.53
531 35.0426 480.88 444.83 12.50
532 35.0961 465.46 445.63 12.06
533 35.1461 459.37 446.44 11.95
534 35.1961 461.19 447.31 12.00
535 35.2461 473.44 448.23 12.15
536 35.2961 483.43 449.23 12.26
537 35.3461 496.42 450.29 12.45
538 35.3961 496.18 451.43 12.40
539 35.4461 489.10 452.65 12.36
540 35.4961 506.08 453.98 12.57
541 35.5461 483.60 455.40 12.27
542 35.5961 465.64 456.94 12.02
543 35.6461 473.55 458.61 12.12
544 35.6961 443.12 460.44 11.68
545 35.7461 447.67 462.46 11.78
546 35.7961 467.68 464.70 12.01
547 35.8461 455.88 467.23 11.86
548 35.8961 432.39 470.13 11.56
549 35.9461 437.94 473.53 11.63
550 35.9961 436.17 477.60 11.64
551 36.0461 449.49 482.58 11.83
552 36.0961 461.80 488.78 11.96
553 36.1461 468.54 496.63 12.13
554 36.1961 480.11 506.62 12.23
555 36.2461 486.61 519.41 12.37
556 36.2961 524.99 535.75 12.86
557 36.3501 552.08 558.36 13.10
558 36.4001 557.01 584.98 13.18
559 36.4501 598.88 618.16 13.70
560 36.5001 611.45 659.01 13.83
561 36.5501 677.15 708.80 14.58
562 36.6001 716.68 768.70 15.02
563 36.6501 780.32 839.89 15.70
564 36.7001 842.28 923.61 16.38
565 36.7501 934.31 1020.87 17.25
566 36.8001 1011.36 1132.21 17.99
567 36.8500 1112.70 1257.58 18.92
568 36.9000 1246.56 1396.53 20.06
569 36.9500 1415.32 1546.78 21.45
570 37.0000 1557.25 1704.60 22.57
571 37.0500 1742.47 1864.56 24.00
572 37.1001 1964.33 2019.20 25.61
573 37.1501 2102.66 2159.62 26.49
574 37.2000 2181.67 2275.86 26.93
575 37.2500 2249.30 2358.11 27.38
576 37.3001 2271.09 2397.52 27.55
577 37.3500 2248.74 2387.91 27.36
578 37.4001 2164.90 2327.38 26.82
579 37.4501 2092.65 2219.55 26.33
580 37.5000 1991.16 2073.77 25.62
581 37.5501 1889.96 1903.07 24.89
582 37.6001 1682.37 1722.15 23.44
583 37.6501 1524.48 1544.35 22.27
584 37.7001 1355.83 1380.73 20.93
585 37.7500 1162.41 1239.81 19.29
586 37.8001 1080.29 1126.82 18.59
587 37.8501 994.15 1045.37 17.81
588 37.9001 969.92 997.33 17.64
589 37.9501 918.58 983.85 17.19
590 38.0001 944.26 1006.19 17.49
591 38.0501 1036.81 1066.27 18.41
592 38.1000 1219.27 1167.12 20.09
593 38.1500 1306.36 1313.43 20.89
594 38.2000 1526.90 1511.27 22.77
595 38.2500 1771.56 1768.05 24.76
596 38.3000 2077.41 2092.25 27.09
597 38.3500 2431.61 2493.07 29.51
598 38.4001 2805.01 2979.77 31.94
599 38.4500 3289.40 3560.84 34.90
600 38.5000 3802.18 4243.80 37.80
601 38.5501 4502.34 5033.12 41.60
602 38.6000 5212.34 5926.45 45.15
603 38.6500 6221.47 6916.81 49.84
604 38.7001 7315.36 7985.27 54.75
605 38.7500 8559.15 9100.17 60.07
606 38.8000 9862.01 10217.80 65.59
607 38.8500 10927.50 11279.80 72.69
608 38.9001 11885.60 12218.90 76.83
609 38.9501 12686.30 12961.10 80.48
610 39.0000 13059.50 13434.50 82.29
611 39.0501 13008.20 13580.00 81.98
612 39.1001 12916.10 13360.20 81.63
613 39.1501 12572.80 12773.70 80.33
614 39.2000 11693.50 11859.80 76.29
615 39.2501 10983.70 10694.90 73.35
616 39.3001 9807.87 9380.87 67.90
617 39.3500 8473.00 8017.01 61.72
618 39.4000 6972.70 6689.84 54.13
619 39.4500 5685.85 5464.79 47.73
620 39.5000 4491.08 4385.99 41.38
621 39.5500 3597.86 3474.38 36.29
622 39.6000 2811.20 2733.47 31.49
623 39.6501 2164.64 2152.76 27.12
624 39.7000 1590.98 1712.59 22.85
625 39.7500 1198.94 1388.28 19.64
626 39.8001 976.97 1155.17 17.65
627 39.8500 857.65 990.88 16.49
628 39.9000 832.81 875.98 16.25
629 39.9501 745.96 795.52 15.36
630 40.0000 713.36 738.38 15.00
631 40.0500 720.43 696.61 15.08
632 40.1056 657.48 661.92 14.48
633 40.1556 647.99 637.52 14.41
634 40.2056 614.24 617.42 13.96
635 40.2556 592.60 600.38 13.70
636 40.3056 577.33 585.56 13.52
637 40.3556 575.50 572.49 13.49
638 40.4056 573.24 560.83 13.50
639 40.4556 575.54 550.34 13.53
640 40.5056 559.86 540.86 13.34
641 40.5556 536.80 532.26 13.02
642 40.6056 528.88 524.43 12.93
643 40.6555 514.05 517.28 12.76
644 40.7056 540.26 510.72 13.04
645 40.7556 511.34 507.71 12.65
646 40.8056 511.16 502.23 12.66
647 40.8556 507.39 497.18 12.59
648 40.9056 490.41 492.52 12.39
649 40.9556 487.57 488.21 12.39
650 41.0056 476.21 484.21 12.24
651 41.0556 496.67 480.49 12.50
652 41.1056 480.47 477.04 12.32
653 41.1556 476.45 473.83 12.26
654 41.2056 464.86 470.83 12.10
655 41.2556 475.56 468.03 12.21
656 41.3056 485.38 465.41 12.38
657 41.3572 463.49 462.88 12.35
658 41.4072 462.73 460.59 12.32
659 41.4572 469.14 458.44 12.45
660 41.5072 480.46 456.42 12.57
661 41.5572 491.93 454.53 12.74
662 41.6072 454.77 452.74 12.20
663 41.6572 466.82 451.07 12.43
664 41.7072 457.05 449.49 12.26
665 41.7572 480.54 448.00 12.63
666 41.8072 475.62 446.61 12.53
667 41.8572 474.66 445.29 12.48
668 41.9072 494.56 444.05 12.78
669 41.9572 493.66 442.88 12.71
670 42.0072 490.20 441.78 12.68
671 42.0572 490.07 440.75 12.68
672 42.1072 504.66 439.77 12.89
673 42.1572 502.29 438.86 12.88
674 42.2072 496.16 438.00 12.77
675 42.2572 525.82 437.20 13.17
676 42.3072 519.37 436.45 13.16
677 42.3572 547.67 435.75 13.52
678 42.4072 546.71 433.43 13.49
679 42.4572 546.13 432.86 13.50
680 42.5072 531.79 432.33 13.25
681 42.5572 524.96 431.85 13.20
682 42.6072 519.84 431.41 13.30
683 42.6572 501.26 431.01 13.05
684 42.7072 516.52 430.66 13.26
685 42.7572 487.82 430.35 12.84
686 42.8072 494.72 430.08 12.93
687 42.8572 494.16 429.86 12.91
688 42.9072 487.40 429.68 12.82
689 42.9572 476.38 429.55 12.70
690 43.0072 457.41 429.46 12.44
691 43.0572 461.80 429.42 12.51
692 43.1072 457.55 429.42 12.44
693 43.1572 441.90 429.48 12.23
694 43.2072 438.25 429.59 12.12
695 43.2572 439.83 429.76 12.14
696 43.3072 428.67 429.99 11.98
697 43.3572 431.33 430.28 12.02
698 43.4072 431.79 430.64 12.05
699 43.4572 432.78 431.07 12.06
700 43.5072 433.89 431.58 12.09
701 43.5572 452.80 432.17 12.36
702 43.6072 426.40 432.86 11.98
703 43.6572 424.83 433.65 12.00
704 43.7072 438.34 434.55 12.18
705 43.7572 445.10 435.57 12.29
706 43.8072 447.60 436.74 12.30
707 43.8473 432.00 437.78 12.23
708 43.8973 431.61 439.24 12.25
709 43.9473 434.56 440.90 12.30
710 43.9973 433.47 442.79 12.28
711 44.0473 444.92 444.97 12.48
712 44.0973 434.53 447.50 12.30
713 44.1473 441.54 438.92 12.38
714 44.1973 435.35 442.73 12.32
715 44.2473 470.70 447.38 12.84
716 44.2973 464.47 453.17 12.73
717 44.3473 479.70 460.61 12.93
718 44.3972 498.02 470.37 13.20
719 44.4472 507.47 483.39 13.34
720 44.4972 515.95 500.92 13.46
721 44.5472 533.43 524.59 13.61
722 44.5973 594.38 556.44 14.47
723 44.6473 652.96 598.95 15.25
724 44.6973 696.85 655.04 15.82
725 44.7473 785.38 728.00 16.85
726 44.7973 833.86 821.39 17.48
727 44.8473 937.67 938.43 18.56
728 44.8973 994.68 1082.31 19.13
729 44.9473 1176.23 1254.94 20.92
730 44.9973 1347.80 1456.65 22.45
731 45.0473 1579.32 1685.70 24.39
732 45.0935 1840.65 1917.50 32.39
733 45.1369 2019.68 2148.51 28.48
734 45.1870 2293.69 2417.42 30.44
735 45.2369 2603.43 2676.64 32.71
736 45.2869 2793.37 2908.88 34.02
737 45.3369 2991.03 3095.44 35.38
738 45.3869 3025.83 3217.87 35.54
739 45.4369 3183.17 3260.75 36.67
740 45.4870 3158.85 3215.06 36.55
741 45.5369 3144.20 3081.37 36.45
742 45.5869 2967.13 2871.09 35.28
743 45.6369 2768.33 2604.71 33.85
744 45.6869 2418.75 2306.42 31.36
745 45.7369 2136.34 2000.97 29.30
746 45.7869 1834.49 1707.53 26.98
747 45.8369 1594.78 1441.00 24.92
748 45.8869 1285.05 1209.81 22.10
749 45.9369 1041.88 1017.64 19.78
750 45.9869 879.25 864.17 18.15
751 46.0370 762.40 745.83 16.83
752 46.0869 615.32 657.80 14.99
753 46.1369 519.92 593.96 13.77
754 46.1869 517.09 548.77 13.74
755 46.2369 459.97 517.19 12.93
756 46.2869 474.50 495.24 13.14
757 46.3369 452.11 479.86 12.66
758 46.3869 446.11 468.80 12.55
759 46.4369 464.83 460.61 12.87
760 46.4869 437.26 454.28 12.47
761 46.5369 447.74 449.19 12.59
762 46.5870 427.40 444.95 12.28
763 46.6369 436.96 441.34 12.39
764 46.6869 415.46 438.20 12.15
765 46.7369 417.68 435.43 12.12
766 46.7869 408.10 432.96 12.07
767 46.8369 416.42 430.77 12.06
768 46.8869 418.97 428.80 12.18
769 46.9369 421.19 427.03 12.17
770 46.9869 420.44 425.44 12.16
771 47.0369 408.30 424.01 11.99
772 47.0869 419.58 422.71 12.11
773 47.1369 408.80 421.54 11.97
774 47.1869 405.09 420.48 11.91
775 47.2369 390.71 419.53 11.74
776 47.2869 394.76 418.67 11.82
777 47.3369 397.07 417.90 11.81
778 47.3869 402.32 417.21 11.93
779 47.4369 409.05 416.60 12.01
780 47.4869 400.68 416.05 11.92
781 47.5369 413.44 415.57 12.10
782 47.5913 400.68 415.12 11.86
783 47.6413 421.29 414.77 12.11
784 47.6913 396.89 414.48 11.74
785 47.7413 401.14 414.24 11.80
786 47.7913 393.86 414.06 11.71
787 47.8413 413.03 413.93 11.98
788 47.8913 397.17 413.87 11.75
789 47.9413 412.73 413.86 11.99
790 47.9913 403.29 413.90 11.85
791 48.0413 401.91 414.01 11.84
792 48.0913 388.51 414.18 11.64
793 48.1413 407.48 414.42 11.93
794 48.1912 401.40 414.73 11.83
795 48.2412 393.89 415.12 11.71
796 48.2912 382.47 415.60 11.50
797 48.3413 401.97 416.17 11.76
798 48.3913 394.59 416.86 11.69
799 48.4413 395.48 417.66 11.70
800 48.4912 386.67 418.61 11.57
801 48.5413 406.05 419.75 11.89
802 48.5913 404.34 421.12 11.85
803 48.6413 407.02 422.80 11.88
804 48.6913 390.46 424.91 11.65
805 48.7412 416.17 427.62 12.04
806 48.7913 431.15 431.20 12.25
807 48.8435 424.63 436.26 10.64
808 48.9000 411.31 443.97 11.88
809 48.9500 458.73 453.57 12.56
810 49.0000 453.06 466.78 12.44
811 49.0500 461.80 484.88 12.59
812 49.1000 507.80 509.35 13.24
813 49.1500 523.69 541.93 13.42
814 49.2000 581.38 584.45 14.18
815 49.2500 613.88 638.78 14.61
816 49.3000 677.51 706.29 15.37
817 49.3500 754.72 787.82 16.28
818 49.4000 815.18 883.24 16.97
819 49.4500 965.87 990.94 18.50
820 49.5000 1084.20 1107.59 19.65
821 49.5500 1238.40 1228.08 21.24
822 49.6000 1316.73 1345.50 21.92
823 49.6500 1432.90 1451.54 22.85
824 49.7000 1513.70 1537.17 23.54
825 49.7500 1531.38 1593.60 23.77
826 49.8000 1546.74 1613.56 23.85
827 49.8500 1550.29 1592.98 23.86
828 49.9000 1529.16 1532.53 23.74
829 49.9500 1463.61 1438.20 23.20
830 50.0000 1359.68 1320.05 22.29
831 50.0500 1211.09 1189.50 20.94
832 50.1000 1124.73 1057.29 25.42
833 50.1450 1001.22 944.02 19.85
834 50.1950 876.05 830.03 18.50
835 50.2450 729.53 732.09 16.72
836 50.2950 697.03 651.50 16.33
837 50.3450 655.64 587.73 15.80
838 50.3950 526.66 536.44 14.12
839 50.4450 511.29 500.61 13.88
840 50.4950 463.62 474.87 13.20
841 50.5450 425.93 456.79 12.64
842 50.5950 438.42 444.22 12.81
843 50.6450 414.65 435.48 12.46
844 50.6950 399.01 429.31 12.22
845 50.7450 413.50 424.84 12.41
846 50.7950 397.05 421.47 12.14
847 50.8450 405.32 418.82 12.24
848 50.8950 435.95 416.66 12.77
849 50.9450 414.71 414.84 12.41
850 50.9950 401.54 413.27 12.25
851 51.0451 405.90 411.89 12.32
852 51.0950 423.29 410.67 12.59
853 51.1450 400.15 409.58 12.22
854 51.1950 388.76 408.60 12.05
855 51.2450 386.23 407.71 12.00
856 51.2950 374.70 406.91 11.82
857 51.3425 404.92 406.22 15.30
858 51.3892 426.66 405.60 12.77
859 51.4392 408.18 404.99 12.48
860 51.4892 379.61 404.43 12.02
861 51.5392 391.29 403.91 12.22
862 51.5892 383.86 403.44 12.09
863 51.6392 389.10 403.01 12.15
864 51.6892 422.78 402.61 12.74
865 51.7392 433.48 402.23 12.91
866 51.7892 384.09 401.89 12.09
867 51.8392 402.00 401.57 12.38
868 51.8892 383.89 401.27 12.08
869 51.9392 379.79 401.00 11.99
870 51.9892 389.57 401.01 12.14
871 52.0392 385.05 400.78 12.04
872 52.0892 382.33 400.56 12.01
873 52.1392 400.86 400.35 12.33
874 52.1892 399.97 400.16 12.32
875 52.2392 405.24 399.98 12.42
876 52.2892 380.91 399.82 12.01
877 52.3392 362.85 399.66 11.72
878 52.3892 423.22 399.52 12.71
879 52.4392 378.03 399.38 11.99
880 52.4892 391.60 399.25 12.24
881 52.5392 406.58 399.13 12.46
882 52.5902 402.78 399.02 12.28
883 52.6402 397.60 398.91 12.19
884 52.6902 392.81 398.81 12.10
885 52.7402 395.40 398.72 12.12
886 52.7902 405.60 398.63 12.31
887 52.8402 403.97 398.55 12.29
888 52.8902 388.96 398.47 12.05
889 52.9402 401.70 398.40 12.26
890 52.9902 393.66 398.34 12.09
891 53.0402 400.42 398.28 12.23
892 53.0902 392.37 398.22 12.10
893 53.1402 409.77 398.17 12.37
894 53.1902 397.85 398.12 12.19
895 53.2402 423.06 398.07 12.53
896 53.2901 362.72 398.03 11.55
897 53.3402 395.29 397.99 12.08
898 53.3902 412.96 397.96 12.35
899 53.4402 408.44 397.93 12.34
900 53.4902 380.50 397.90 11.89
901 53.5402 408.62 397.88 12.34
902 53.5902 416.42 397.86 12.49
903 53.6402 409.26 397.84 12.35
904 53.6902 407.89 397.82 12.33
905 53.7402 401.68 397.81 12.24
906 53.7902 403.33 397.80 12.26
907 53.8426 413.17 397.80 10.61
908 53.8952 394.51 397.80 11.78
909 53.9452 415.12 397.80 12.11
910 53.9952 410.59 397.80 12.02
911 54.0452 402.12 397.81 11.86
912 54.0952 412.40 397.83 12.03
913 54.1452 403.91 397.84 11.96
914 54.1951 389.79 397.86 11.72
915 54.2452 424.70 397.89 12.24
916 54.2952 399.21 397.92 11.86
917 54.3451 397.08 397.95 11.81
918 54.3951 396.00 397.99 11.77
919 54.4451 380.42 398.03 11.58
920 54.4951 413.54 398.08 12.06
921 54.5451 391.19 398.13 11.66
922 54.5951 392.60 398.19 11.66
923 54.6452 395.30 398.26 11.76
924 54.6952 377.65 397.19 11.48
925 54.7451 391.49 397.30 11.72
926 54.7951 408.71 397.41 12.01
927 54.8452 413.85 397.53 12.07
928 54.8951 375.51 397.67 11.46
929 54.9452 386.06 397.81 11.66
930 54.9951 397.43 397.97 11.82
931 55.0452 369.27 398.15 11.37
932 55.0952 370.52 398.34 11.41
933 55.1179 393.86 398.43 21.08
934 55.1570 379.55 398.60 11.54
935 55.2070 391.62 398.84 11.73
936 55.2570 408.83 399.11 11.96
937 55.3070 394.63 399.41 11.76
938 55.3570 405.15 399.75 11.95
939 55.4070 392.30 400.15 11.74
940 55.4570 403.21 400.63 11.94
941 55.5070 393.10 401.21 11.77
942 55.5570 399.81 401.95 11.86
943 55.6069 418.47 402.92 12.15
944 55.6569 406.36 404.23 11.96
945 55.7069 412.91 406.04 12.03
946 55.7569 403.50 408.57 11.89
947 55.8069 411.23 413.73 11.96
948 55.8569 425.06 418.68 12.18
949 55.9070 443.86 425.45 12.51
950 55.9569 436.53 434.50 12.42
951 56.0069 448.94 446.30 12.59
952 56.0570 461.31 461.25 12.76
953 56.1069 449.21 479.49 12.60
954 56.1570 493.26 500.95 13.25
955 56.2070 505.05 525.08 13.41
956 56.2569 557.06 550.87 14.12
957 56.3070 594.52 576.86 14.61
958 56.3629 612.98 603.84 14.67
959 56.4130 620.97 623.62 14.82
960 56.4630 660.14 637.10 15.29
961 56.5130 649.13 642.45 15.15
962 56.5630 617.73 638.69 14.74
963 56.6130 624.36 626.05 14.79
964 56.6629 655.15 606.06 15.19
965 56.7130 604.12 581.13 14.55
966 56.7630 585.76 553.89 14.33
967 56.8130 558.30 526.70 13.98
968 56.8629 515.36 501.35 13.38
969 56.9129 500.90 478.96 13.19
970 56.9629 453.77 460.15 12.52
971 57.0129 440.90 445.04 12.33
972 57.0629 429.05 433.38 12.11
973 57.1129 440.43 424.73 12.31
974 57.1629 417.10 418.52 11.98
975 57.2129 415.29 414.18 11.99
976 57.2629 423.29 411.21 12.10
977 57.3130 392.89 409.20 11.65
978 57.3629 394.58 407.84 11.65
979 57.4129 406.89 406.92 11.85
980 57.4630 378.11 406.27 11.43
981 57.5129 411.70 405.81 11.95
982 57.5629 420.13 405.48 12.05
983 57.6129 402.97 405.24 12.85
984 57.6629 407.16 405.07 12.90
985 57.7130 407.43 404.95 12.81
986 57.7629 377.04 404.89 12.25
987 57.8130 387.97 404.86 12.51
988 57.8630 401.25 404.87 12.70
989 57.9129 400.50 404.92 12.66
990 57.9629 380.12 405.01 12.38
991 58.0130 410.44 405.12 12.90
992 58.0630 420.33 405.27 13.06
993 58.1129 416.13 405.45 12.89
994 58.1629 412.59 405.67 12.91
995 58.2129 404.49 405.91 12.72
996 58.2629 398.19 406.19 12.64
997 58.3129 403.11 406.51 12.77
998 58.3629 405.63 406.86 12.67
999 58.4129 409.65 407.26 12.84
1000 58.4629 414.05 407.70 12.93
1001 58.5129 398.92 408.18 12.63
1002 58.5630 407.79 408.72 12.83
1003 58.6129 405.65 409.31 12.79
1004 58.6629 421.33 409.96 13.07
1005 58.7129 445.09 410.68 13.43
1006 58.7629 409.09 411.47 12.86
1007 58.8129 420.26 412.36 13.14
1008 58.8569 425.49 413.21 12.76
1009 58.9070 427.10 414.28 12.88
1010 58.9570 414.48 415.48 12.59
1011 59.0070 380.16 416.82 12.07
1012 59.0570 414.15 418.32 12.69
1013 59.1070 406.71 420.02 12.51
1014 59.1569 425.80 421.96 12.78
1015 59.2069 418.27 424.22 12.58
1016 59.2570 402.55 426.88 12.47
1017 59.3070 402.30 430.11 12.35
1018 59.3569 444.16 434.16 13.09
1019 59.4069 440.99 439.43 13.03
1020 59.4569 418.85 446.52 12.76
1021 59.5069 452.59 456.33 13.16
1022 59.5569 437.77 470.17 13.03
1023 59.6069 479.50 489.78 13.51
1024 59.6570 518.85 517.45 14.09
1025 59.7069 542.51 555.90 14.49
1026 59.7569 601.12 608.27 15.23
1027 59.8069 660.34 677.65 16.06
1028 59.8569 757.39 766.45 17.22
1029 59.9069 824.28 876.17 18.00
1030 59.9570 928.50 1006.06 19.02
1031 60.0069 1150.74 1152.61 21.24
1032 60.0569 1330.96 1309.33 22.87
1033 60.0999 1452.58 1444.57 25.58
1034 60.1499 1632.67 1591.45 27.04
1035 60.2000 1739.77 1713.51 27.77
1036 60.2499 1839.67 1796.36 28.68
1037 60.2999 1869.53 1828.38 28.85
1038 60.3499 1833.72 1803.35 28.56
1039 60.3999 1799.49 1723.54 28.34
1040 60.4499 1746.43 1599.62 27.83
1041 60.5000 1620.34 1447.28 26.86
1042 60.5499 1423.30 1283.30 25.07
1043 60.5999 1280.99 1121.78 23.85
1044 60.6499 1129.69 972.84 22.37
1045 60.6999 927.28 843.00 20.26
1046 60.7499 773.45 735.31 18.48
1047 60.7999 720.19 649.83 17.76
1048 60.8499 642.52 584.68 16.81
1049 60.8999 563.24 536.78 15.75
1050 60.9499 538.70 502.60 15.35
1051 60.9999 471.96 478.72 14.39
1052 61.0499 480.93 462.21 14.63
1053 61.0999 460.76 450.81 14.19
1054 61.1499 458.60 442.77 14.19
1055 61.1999 428.45 436.92 13.70
1056 61.2499 452.54 432.25 14.05
1057 61.2999 419.89 428.77 13.59
1058 61.3499 439.63 425.91 13.19
1059 61.3999 435.74 423.49 13.16
1060 61.4500 434.86 421.41 13.12
1061 61.4999 441.88 419.59 13.29
1062 61.5499 424.94 417.98 12.93
1063 61.5999 468.65 416.55 13.59
1064 61.6499 433.64 415.27 13.04
1065 61.6999 435.71 414.12 13.21
1066 61.7500 439.20 413.08 13.20
1067 61.7999 435.68 412.15 13.11
1068 61.8499 434.46 411.30 13.11
1069 61.8999 437.61 410.53 13.19
1070 61.9499 475.78 411.49 13.76
1071 61.9999 449.48 410.89 13.37
1072 62.0499 420.86 410.34 12.85
1073 62.0999 415.74 409.84 12.77
1074 62.1499 417.73 409.39 12.85
1075 62.1999 433.71 408.98 13.06
1076 62.2499 412.99 408.61 12.74
1077 62.2999 416.26 408.27 12.85
1078 62.3499 418.56 407.96 12.87
1079 62.3999 413.49 407.67 12.75
1080 62.4499 424.38 407.42 12.93
1081 62.4999 419.48 407.19 12.89
1082 62.5499 412.16 406.98 12.78
1083 62.5999 411.75 406.79 13.26
1084 62.6499 392.50 406.62 12.97
1085 62.7000 436.03 406.47 13.72
1086 62.7499 429.58 406.34 13.59
1087 62.7999 409.00 406.22 13.28
1088 62.8499 429.59 406.12 13.63
1089 62.8999 406.86 406.03 13.22
1090 62.9499 414.02 405.96 13.43
1091 63.0000 425.03 405.90 13.50
1092 63.0499 400.95 405.85 13.15
1093 63.0999 411.67 405.82 13.27
1094 63.1499 393.25 405.79 12.91
1095 63.1999 396.67 405.78 12.99
1096 63.2499 415.56 405.78 13.30
1097 63.2999 405.86 405.79 13.09
1098 63.3499 418.42 405.82 13.33
1099 63.3999 400.43 405.85 13.07
1100 63.4499 385.56 405.90 12.77
1101 63.4999 422.76 405.96 13.46
1102 63.5499 413.23 406.03 13.33
1103 63.5999 415.64 406.11 13.31
1104 63.6499 400.71 406.21 13.11
1105 63.6999 399.66 406.32 13.11
1106 63.7499 395.20 406.44 12.98
1107 63.8064 408.74 406.59 11.23
1108 63.8586 410.92 406.75 12.49
1109 63.9086 410.24 406.92 12.46
1110 63.9586 398.90 407.11 12.29
1111 64.0086 392.68 407.31 12.16
1112 64.0586 389.38 407.53 12.10
1113 64.1086 409.74 407.77 12.42
1114 64.1586 392.62 408.04 12.19
1115 64.2086 392.33 408.32 12.18
1116 64.2586 409.00 408.64 12.47
1117 64.3086 402.77 408.97 12.30
1118 64.3586 393.11 409.34 12.15
1119 64.4085 425.83 409.74 12.67
1120 64.4586 414.12 410.18 12.49
1121 64.5085 400.34 410.65 12.25
1122 64.5586 407.51 411.17 12.34
1123 64.6086 429.88 411.74 12.66
1124 64.6586 396.77 412.36 12.23
1125 64.7086 424.87 413.04 12.65
1126 64.7586 408.69 413.79 12.42
1127 64.8086 430.42 414.61 12.75
1128 64.8586 404.51 415.51 12.34
1129 64.9086 407.07 416.52 12.40
1130 64.9586 424.45 416.12 12.69
1131 65.0086 397.46 417.39 12.29
1132 65.0586 386.90 418.80 12.09
1133 65.1086 416.08 420.39 12.58
1134 65.1586 406.96 422.17 12.37
1135 65.2086 406.34 424.19 12.37
1136 65.2586 403.23 426.52 12.32
1137 65.3086 406.94 429.23 12.36
1138 65.3586 424.58 432.47 12.68
1139 65.4086 421.59 436.48 12.61
1140 65.4586 416.56 441.65 12.53
1141 65.5086 415.64 448.50 12.55
1142 65.5586 466.92 457.95 13.29
1143 65.6086 442.64 471.34 12.92
1144 65.6585 465.19 490.57 13.29
1145 65.7086 491.53 518.11 13.62
1146 65.7586 526.11 557.03 14.09
1147 65.8086 552.57 610.73 14.44
1148 65.8586 604.91 682.61 15.18
1149 65.9086 709.93 775.42 16.54
1150 65.9586 817.86 890.17 17.85
1151 66.0086 968.82 1025.77 19.58
1152 66.0586 1137.15 1177.54 21.33
1153 66.1086 1256.62 1336.70 22.47
1154 66.1586 1454.03 1491.30 24.37
1155 66.2086 1575.07 1625.62 25.49
1156 66.2586 1646.16 1723.26 26.16
1157 66.3086 1684.56 1769.41 26.54
1158 66.3609 1729.75 1753.30 27.69
1159 66.4109 1663.11 1677.99 27.12
1160 66.4610 1659.19 1555.95 26.99
1161 66.5109 1512.66 1404.89 25.54
1162 66.5610 1352.30 1242.25 23.97
1163 66.6109 1184.12 1083.26 22.22
1164 66.6610 1012.30 938.27 20.35
1165 66.7110 851.99 813.33 18.50
1166 66.7610 764.42 711.10 17.44
1167 66.8110 641.26 631.19 15.81
1168 66.8609 593.24 571.27 15.16
1169 66.9109 521.33 527.82 14.15
1170 66.9609 503.78 497.24 13.95
1171 67.0109 483.11 476.09 13.57
1172 67.0609 463.89 461.55 13.31
1173 67.1109 436.86 451.45 12.90
1174 67.1609 434.87 444.26 12.93
1175 67.2109 402.60 438.93 12.36
1176 67.2610 408.23 434.82 12.47
1177 67.3109 415.01 431.51 12.63
1178 67.3609 453.72 428.76 13.26
1179 67.4109 409.09 426.41 12.53
1180 67.4610 418.51 424.38 12.65
1181 67.5109 416.80 422.59 12.65
1182 67.5534 410.78 421.24 15.73
1183 67.6034 445.37 419.82 16.45
1184 67.6459 420.35 418.73 12.94
1185 67.6960 414.58 417.58 12.89
1186 67.7460 419.77 416.55 12.93
1187 67.7959 428.41 415.62 13.08
1188 67.8459 406.31 414.78 12.72
1189 67.8960 426.43 414.02 13.04
1190 67.9460 419.66 413.34 12.91
1191 67.9960 394.51 412.72 12.50
1192 68.0460 409.18 412.15 12.74
1193 68.0959 416.01 411.64 12.86
1194 68.1459 417.65 411.18 12.93
1195 68.1959 399.11 410.76 12.56
1196 68.2459 395.58 410.37 12.51
1197 68.2959 400.60 410.02 12.56
1198 68.3459 403.05 409.70 12.62
1199 68.3959 410.61 409.42 12.72
1200 68.4459 391.20 409.16 12.48
1201 68.4959 407.36 408.93 12.75
1202 68.5460 396.48 408.72 12.56
1203 68.5959 392.91 408.54 12.47
1204 68.6459 398.58 408.39 12.62
1205 68.6959 390.70 408.25 12.46
1206 68.7459 393.01 408.14 12.48
1207 68.7959 392.62 408.05 12.48
1208 68.8459 427.27 408.00 12.97
1209 68.8960 388.57 407.97 12.35
1210 68.9460 425.01 407.99 12.98
1211 68.9959 393.61 408.06 12.45
1212 69.0459 424.66 408.20 12.94
1213 69.0960 415.65 408.46 12.76
1214 69.1459 383.76 408.89 12.26
1215 69.1959 414.74 409.54 12.82
1216 69.2459 412.41 410.51 12.78
1217 69.2960 402.52 411.89 12.60
1218 69.3459 411.57 413.79 12.72
1219 69.3959 405.64 416.29 12.63
1220 69.4459 413.88 419.42 12.77
1221 69.4959 415.36 423.15 12.76
1222 69.5459 418.07 427.35 12.77
1223 69.5959 435.59 431.79 13.09
1224 69.6460 472.62 436.09 13.67
1225 69.6959 437.39 439.79 13.12
1226 69.7459 442.60 442.41 13.23
1227 69.7959 447.18 443.51 13.26
1228 69.8459 487.21 442.90 13.87
1229 69.8959 468.02 440.70 13.64
1230 69.9459 462.37 437.30 13.51
1231 69.9959 470.42 433.24 13.64
1232 70.0459 436.59 429.05 13.10
1233 70.0885 454.70 425.69 14.08
1234 70.1385 422.63 422.26 13.63
1235 70.1885 444.84 419.59 13.90
1236 70.2385 444.50 417.85 13.92
1237 70.2885 441.03 417.14 13.89
1238 70.3385 441.82 417.58 13.85
1239 70.3885 462.61 419.33 14.25
1240 70.4385 464.78 422.56 14.31
1241 70.4885 449.35 427.48 14.11
1242 70.5385 458.70 434.25 14.12
1243 70.5885 469.64 442.93 14.34
1244 70.6385 462.01 453.42 14.15
1245 70.6885 453.00 465.30 14.08
1246 70.7385 490.88 477.89 14.63
1247 70.7885 488.72 490.10 14.54
1248 70.8385 495.26 500.57 14.57
1249 70.8885 501.90 506.30 14.79
1250 70.9385 459.53 509.12 14.09
1251 70.9885 466.79 506.87 14.24
1252 71.0385 489.07 499.92 14.66
1253 71.0885 475.16 489.47 14.40
1254 71.1385 464.85 477.10 14.24
1255 71.1885 454.28 464.23 14.13
1256 71.2385 439.09 452.44 13.88
1257 71.2885 427.39 441.58 13.69
1258 71.3413 439.13 432.01 11.80
1259 71.3948 413.73 424.42 13.36
1260 71.4448 411.33 419.09 13.22
1261 71.4948 400.43 415.21 13.07
1262 71.5448 411.75 412.48 13.34
1263 71.5948 388.74 410.60 12.88
1264 71.6448 406.21 409.32 13.22
1265 71.6948 393.52 408.45 13.04
1266 71.7448 414.11 407.84 13.36
1267 71.7948 413.14 407.40 13.28
1268 71.8448 407.17 407.08 13.24
1269 71.8948 379.23 406.83 12.78
1270 71.9448 413.00 406.63 13.38
1271 71.9948 395.97 406.47 13.03
1272 72.0448 404.91 406.33 13.07
1273 72.0948 414.71 406.23 13.32
1274 72.1448 400.68 406.14 13.09
1275 72.1948 396.14 406.06 13.01
1276 72.2448 418.65 406.00 13.45
1277 72.2948 412.10 405.96 13.28
1278 72.3448 417.24 405.92 13.38
1279 72.3948 419.68 405.90 13.48
1280 72.4448 421.17 405.88 13.44
1281 72.4948 430.87 405.87 13.76
1282 72.5448 416.40 405.87 13.38
1283 72.5948 396.11 405.88 13.23
1284 72.6448 415.83 405.89 13.51
1285 72.6948 400.42 405.91 13.33
1286 72.7448 412.50 405.94 13.43
1287 72.7948 411.07 405.97 13.36
1288 72.8448 424.45 406.01 13.71
1289 72.8948 405.33 406.05 13.40
1290 72.9448 407.28 406.10 13.36
1291 72.9948 415.65 406.15 13.49
1292 73.0448 418.37 406.21 13.57
1293 73.0948 429.42 406.27 13.78
1294 73.1448 406.96 406.34 13.42
1295 73.1948 423.69 406.41 13.60
1296 73.2448 421.43 406.49 13.55
1297 73.2948 375.74 406.58 12.70
1298 73.3448 430.69 406.67 13.72
1299 73.3948 394.22 406.77 13.09
1300 73.4448 383.56 406.87 12.97
1301 73.4948 377.56 406.99 12.84
1302 73.5448 418.74 407.11 13.70
1303 73.5948 408.75 407.24 13.42
1304 73.6448 405.39 407.38 13.35
1305 73.6948 422.61 407.54 13.68
1306 73.7448 438.66 407.70 13.99
1307 73.7948 435.01 407.88 13.86
1308 73.8499 417.54 408.09 12.52
1309 73.8999 419.54 408.30 12.57
1310 73.9499 399.08 408.54 12.22
1311 73.9999 425.77 408.79 12.62
1312 74.0499 420.99 409.06 12.56
1313 74.0999 422.66 409.37 12.60
1314 74.1499 399.89 409.70 12.22
1315 74.1999 429.26 410.07 12.73
1316 74.2499 418.86 410.44 12.56
1317 74.2999 414.09 410.91 12.43
1318 74.3498 430.15 411.43 12.70
1319 74.3998 424.50 412.02 12.68
1320 74.4498 417.57 412.71 12.49
1321 74.4998 432.51 413.50 12.71
1322 74.5498 411.74 414.45 12.33
1323 74.5999 430.29 416.33 12.67
1324 74.6499 449.79 417.86 12.98
1325 74.6998 442.88 419.92 12.87
1326 74.7498 420.69 422.78 12.54
1327 74.7999 463.88 426.91 13.18
1328 74.8499 428.49 432.88 12.68
1329 74.8998 462.50 441.50 13.18
1330 74.9499 463.12 453.68 13.18
1331 74.9998 464.27 470.38 13.20
1332 75.0547 478.76 494.84 11.76
1333 75.1064 503.19 524.13 14.06
1334 75.1564 547.68 557.90 14.64
1335 75.2064 587.03 595.58 15.18
1336 75.2564 614.74 634.67 15.58
1337 75.3064 666.03 671.36 16.22
1338 75.3564 672.47 700.72 16.31
1339 75.4064 675.17 718.08 16.31
1340 75.4564 742.90 719.78 17.12
1341 75.5064 702.74 705.31 16.71
1342 75.5564 676.66 677.68 16.33
1343 75.6064 687.03 641.81 16.42
1344 75.6563 626.10 602.77 15.67
1345 75.7063 591.38 564.58 15.17
1346 75.7563 558.67 546.53 14.73
1347 75.8064 537.01 517.58 14.42
1348 75.8564 513.78 494.41 14.05
1349 75.9064 508.07 476.80 14.02
1350 75.9563 480.49 464.01 13.64
1351 76.0063 463.38 455.12 13.44
1352 76.0564 499.18 449.15 13.94
1353 76.1063 466.02 445.27 13.49
1354 76.1564 470.15 442.82 13.56
1355 76.2063 464.15 441.32 13.48
1356 76.2563 474.23 440.42 13.56
1357 76.3064 459.92 439.94 13.40
1358 76.3544 450.09 439.73 12.88
1359 76.4045 456.92 439.72 13.02
1360 76.4545 441.27 439.86 12.77
1361 76.5045 452.51 440.14 12.90
1362 76.5545 455.86 440.53 12.93
1363 76.6045 466.16 441.02 13.13
1364 76.6545 461.98 441.61 13.06
1365 76.7045 456.82 442.29 13.00
1366 76.7545 457.29 443.07 13.00
1367 76.8045 435.39 443.92 12.68
1368 76.8544 442.21 444.87 12.76
1369 76.9044 449.14 445.91 12.86
1370 76.9544 453.39 447.04 12.89
1371 77.0044 446.90 448.26 12.77
1372 77.0545 426.11 449.58 12.44
1373 77.1044 461.54 451.01 13.02
1374 77.1545 449.54 452.54 12.85
1375 77.2044 466.67 454.18 13.15
1376 77.2545 449.27 455.95 12.90
1377 77.3045 449.01 457.86 12.82
1378 77.3544 471.28 459.90 13.21
1379 77.4045 465.70 462.10 13.10
1380 77.4544 472.54 464.47 13.23
1381 77.5044 478.94 467.03 13.31
1382 77.5545 482.32 469.80 13.37
1383 77.6044 459.24 472.80 12.84
1384 77.6545 445.61 476.05 12.63
1385 77.7045 458.49 479.59 12.81
1386 77.7544 486.46 483.45 13.23
1387 77.8045 473.80 487.70 13.04
1388 77.8545 448.62 492.40 12.72
1389 77.9045 492.58 497.68 13.34
1390 77.9545 491.38 503.69 13.32
1391 78.0045 488.67 510.72 13.22
1392 78.0545 526.84 519.20 13.76
1393 78.1044 509.42 529.77 13.56
1394 78.1544 522.93 543.41 13.72
1395 78.2044 526.07 561.34 13.74
1396 78.2544 566.21 585.14 14.27
1397 78.3044 566.68 616.53 14.22
1398 78.3544 646.51 657.09 15.31
1399 78.4044 675.98 707.86 15.69
1400 78.4545 773.48 768.98 16.87
1401 78.5045 870.05 838.97 17.99
1402 78.5544 951.16 914.42 18.85
1403 78.6044 1074.19 989.98 20.12
1404 78.6544 1088.71 1057.85 20.27
1405 78.7045 1146.74 1109.42 20.83
1406 78.7544 1222.79 1137.34 21.59
1407 78.8055 1160.24 1139.54 20.62
1408 78.8556 1164.26 1120.75 20.70
1409 78.9056 1128.10 1090.64 20.35
1410 78.9556 1098.29 1059.47 19.99
1411 79.0056 1020.84 1036.49 19.20
1412 79.0556 1010.10 1030.03 19.09
1413 79.1056 992.91 1048.53 18.89
1414 79.1556 1028.25 1102.15 19.40
1415 79.2056 1081.68 1204.83 19.91
1416 79.2556 1228.01 1376.52 21.38
1417 79.3056 1408.66 1643.37 23.13
1418 79.3556 1781.68 2038.99 26.58
1419 79.4055 2243.61 2599.42 30.41
1420 79.4555 2984.95 3359.60 36.24
1421 79.5055 3979.35 4338.91 43.30
1422 79.5555 5310.11 5536.34 52.21
1423 79.6056 6790.80 6911.60 61.46
1424 79.6556 8377.85 8379.77 71.11
1425 79.7056 9680.07 9804.15 78.97
1426 79.7555 10717.50 10996.70 85.30
1427 79.8056 11396.10 11746.80 89.43
1428 79.8556 11690.10 11886.00 91.10
1429 79.9056 11554.10 11378.70 90.15
1430 79.9556 11056.30 10343.40 87.10
1431 80.0055 10138.80 8985.03 81.31
1432 80.0556 8821.85 7508.51 73.28
1433 80.0881 8175.49 6566.08 85.44
1434 80.1330 6473.17 5351.93 60.05
1435 80.1830 4992.57 4179.72 50.16
1436 80.2330 3861.15 3225.56 42.41
1437 80.2830 3018.34 2487.94 36.34
1438 80.3330 2290.49 1943.64 30.79
1439 80.3830 1839.22 1556.60 27.05
1440 80.4330 1449.64 1288.71 23.57
1441 80.4830 1148.54 1105.51 20.65
1442 80.5330 1013.89 979.85 19.30
1443 80.5829 895.42 891.69 18.01
1444 80.6329 850.16 827.36 17.52
1445 80.6830 788.96 778.28 16.77
1446 80.7329 759.85 739.21 16.49
1447 80.7829 755.77 706.99 16.36
1448 80.8330 691.16 679.74 15.60
1449 80.8830 664.64 656.30 15.31
1450 80.9330 673.27 635.90 15.45
1451 80.9830 676.12 618.01 15.49
1452 81.0330 649.00 602.20 15.17
1453 81.0829 606.97 588.20 14.60
1454 81.1330 628.56 575.72 14.90
1455 81.1830 589.08 564.55 14.39
1456 81.2330 595.76 554.54 14.47
1457 81.2830 606.60 545.52 14.64
1458 81.3323 557.41 537.48 13.91
1459 81.3823 553.70 530.10 13.82
1460 81.4324 546.67 523.40 13.74
1461 81.4824 537.24 517.31 13.60
1462 81.5324 549.82 511.75 13.78
1463 81.5824 517.38 506.68 13.32
1464 81.6323 518.71 502.04 13.36
1465 81.6824 533.17 497.78 13.57
1466 81.7324 539.15 493.88 13.67
1467 81.7824 528.86 490.30 13.52
1468 81.8323 539.09 487.01 13.67
1469 81.8823 525.37 483.98 13.44
1470 81.9323 536.34 481.20 13.59
1471 81.9823 507.18 478.64 13.18
1472 82.0323 515.88 476.29 13.26
1473 82.0823 519.72 474.13 13.34
1474 82.1323 511.41 472.15 13.26
1475 82.1823 504.23 470.35 13.16
1476 82.2323 509.60 468.70 13.24
1477 82.2824 483.57 467.20 12.87
1478 82.3323 488.77 465.84 12.97
1479 82.3823 469.97 464.63 12.69
1480 82.4324 478.86 463.55 12.80
1481 82.4823 470.52 462.61 12.74
1482 82.5323 486.61 461.79 12.89
1483 82.5872 439.93 461.05 14.68
1484 82.6171 481.22 460.72 15.75
1485 82.6608 445.54 460.31 12.18
1486 82.7108 449.70 459.98 12.32
1487 82.7607 452.38 459.79 12.38
1488 82.8108 447.75 459.75 12.29
1489 82.8608 470.46 459.87 12.56
1490 82.9108 436.20 460.17 12.13
1491 82.9608 422.89 459.98 11.87
1492 83.0108 438.93 460.69 12.14
1493 83.0608 439.40 461.65 12.14
1494 83.1107 448.09 462.87 12.26
1495 83.1607 455.66 464.41 12.33
1496 83.2107 448.53 466.31 12.25
1497 83.2607 458.64 468.66 12.37
1498 83.3108 460.68 471.57 12.42
1499 83.3608 459.88 475.24 12.39
1500 83.4107 468.27 479.97 12.50
1501 83.4607 473.22 486.30 12.61
1502 83.5108 480.72 497.45 12.73
1503 83.5608 469.25 510.21 12.56
1504 83.6108 507.52 529.00 13.09
1505 83.6607 519.39 556.77 13.31
1506 83.7108 531.66 597.37 13.43
1507 83.7608 588.30 654.94 14.20
1508 83.8029 651.32 719.78 18.30
1509 83.8519 720.16 816.09 15.87
1510 83.9019 870.34 938.32 17.61
1511 83.9519 1004.72 1081.52 18.99
1512 84.0019 1180.36 1237.28 20.76
1513 84.0519 1367.28 1375.81 22.59
1514 84.1019 1462.67 1507.28 23.45
1515 84.1519 1504.52 1590.47 23.83
1516 84.2019 1584.58 1604.96 24.63
1517 84.2519 1497.55 1546.66 23.80
1518 84.3019 1517.84 1430.97 23.93
1519 84.3519 1416.30 1282.88 22.98
1520 84.4019 1262.53 1125.54 21.48
1521 84.4519 1079.25 976.15 19.65
1522 84.5019 957.77 845.22 18.37
1523 84.5519 833.17 737.66 17.01
1524 84.6019 724.11 654.14 15.75
1525 84.6519 631.34 592.42 14.63
1526 84.7019 594.42 548.62 14.20
1527 84.7519 546.78 518.42 13.58
1528 84.8019 501.10 497.91 13.00
1529 84.8519 502.82 483.97 13.03
1530 84.9019 459.11 474.27 12.41
1531 84.9519 461.01 467.28 12.51
1532 85.0019 461.85 462.03 12.51
1533 85.0567 460.48 457.57 11.17
1534 85.1096 435.06 454.14 12.80
1535 85.1596 423.17 451.48 12.56
1536 85.2096 444.91 449.25 12.98
1537 85.2596 401.83 447.39 12.24
1538 85.3096 452.69 445.83 13.06
1539 85.3596 435.40 444.53 12.76
1540 85.4096 414.41 443.46 12.47
1541 85.4596 435.94 442.58 12.80
1542 85.5096 429.31 441.89 12.69
1543 85.5596 438.92 441.36 12.88
1544 85.6096 426.35 440.99 12.66
1545 85.6596 419.63 440.76 12.52
1546 85.7096 459.01 440.66 13.13
1547 85.7595 441.92 440.70 12.86
1548 85.8096 417.10 440.86 12.40
1549 85.8596 432.00 441.16 12.65
1550 85.9096 446.18 441.60 12.86
1551 85.9596 419.18 442.17 12.54
1552 86.0096 430.69 442.89 12.68
1553 86.0596 432.53 443.78 12.73
1554 86.1096 427.36 444.84 12.70
1555 86.1596 436.24 446.09 12.87
1556 86.2096 461.95 447.55 13.25
1557 86.2596 435.81 449.26 12.75
1558 86.3096 416.05 451.24 12.46
1559 86.3444 427.23 452.82 14.48
1560 86.3867 439.18 454.96 12.55
1561 86.4367 441.20 457.88 12.57
1562 86.4867 460.38 461.29 12.87
1563 86.5367 474.30 465.34 13.08
1564 86.5867 443.24 470.18 12.54
1565 86.6367 456.79 476.14 12.82
1566 86.6867 469.96 483.69 13.06
1567 86.7367 488.76 493.72 13.36
1568 86.7867 463.93 507.60 12.93
1569 86.8366 523.01 527.54 13.73
1570 86.8866 522.77 556.83 13.73
1571 86.9366 555.03 599.88 14.15
1572 86.9866 633.91 662.01 15.17
1573 87.0366 679.83 748.79 15.64
1574 87.0866 785.07 864.80 16.89
1575 87.1367 922.77 1011.90 18.36
1576 87.1867 1153.98 1187.30 20.70
1577 87.2367 1288.14 1381.82 21.97
1578 87.2867 1507.30 1578.00 23.90
1579 87.3366 1681.34 1748.21 25.45
1580 87.3867 1721.08 1858.54 25.77
1581 87.4367 1795.98 1879.56 26.41
1582 87.4867 1795.53 1804.98 26.39
1583 87.5367 1766.18 1656.05 26.17
1584 87.5866 1581.77 1467.16 24.88
1585 87.6367 1394.71 1269.19 23.24
1586 87.6867 1189.45 1083.82 21.27
1587 87.7367 1059.76 924.00 19.95
1588 87.7867 893.43 794.59 18.21
1589 87.8367 810.91 695.65 17.33
1590 87.8867 737.81 623.54 16.57
1591 87.9367 625.45 572.93 15.17
1592 87.9867 605.12 538.23 14.94
1593 88.0367 554.49 514.67 14.24
1594 88.0866 521.94 498.43 13.81
1595 88.1366 510.38 486.88 13.64
1596 88.1866 498.55 478.30 13.43
1597 88.2366 460.25 469.86 12.90
1598 88.2866 447.52 464.51 12.67
1599 88.3366 475.78 460.05 13.06
1600 88.3867 462.19 456.28 12.91
1601 88.4367 453.05 453.04 12.80
1602 88.4866 442.42 450.23 12.61
1603 88.5367 461.45 447.77 12.93
1604 88.5866 427.08 445.62 12.43
1605 88.6367 432.91 443.72 12.54
1606 88.6867 431.13 442.04 12.52
1607 88.7366 422.56 440.54 12.36
1608 88.7867 430.94 439.21 12.47
1609 88.8462 440.88 437.80 12.24
1610 88.8962 433.30 436.75 12.13
1611 88.9463 432.29 435.81 12.11
1612 88.9962 423.95 434.96 11.99
1613 89.0462 427.31 434.18 12.05
1614 89.0962 415.52 433.52 11.84
1615 89.1462 422.33 432.88 11.98
1616 89.1962 406.99 432.30 11.77
1617 89.2462 431.69 431.78 12.12
1618 89.2962 422.31 431.30 11.99
1619 89.3462 431.20 430.86 12.11
1620 89.3962 423.52 430.46 11.98
1621 89.4462 428.14 430.09 12.04
1622 89.4962 427.99 429.76 12.06
1623 89.5462 433.06 429.45 12.06
1624 89.5962 424.74 429.16 11.99
1625 89.6462 421.29 428.90 11.92
1626 89.6962 420.41 428.67 11.93
1627 89.7462 422.54 428.45 11.99
1628 89.7962 417.17 428.24 11.93
1629 89.8462 409.93 428.06 11.82
1630 89.8962 420.84 427.89 11.93
1631 89.9462 420.50 427.73 11.95
1632 89.9962 408.40 427.59 11.80
1633 90.0462 406.54 427.46 11.71
1634 90.1039 427.60 427.33 12.40
1635 90.1539 434.42 427.22 12.49
1636 90.2039 416.92 427.12 12.25
1637 90.2539 442.72 427.03 12.63
1638 90.3039 416.68 426.95 12.24
1639 90.3539 406.99 426.88 12.04
1640 90.4039 404.42 426.82 12.04
1641 90.4539 428.65 426.76 12.43
1642 90.5039 418.22 426.71 12.24
1643 90.5539 432.57 426.66 12.48
1644 90.6039 415.97 426.62 12.19
1645 90.6538 438.77 426.59 12.60
1646 90.7038 436.60 426.56 12.50
1647 90.7538 432.18 426.53 12.44
1648 90.8038 430.52 426.52 12.40
1649 90.8539 428.85 426.50 12.36
1650 90.9039 434.40 426.49 12.49
1651 90.9539 416.73 426.48 12.21
1652 91.0039 429.08 426.48 12.43
1653 91.0539 414.62 426.48 12.19
1654 91.1039 409.22 426.49 12.11
1655 91.1538 415.28 426.50 12.22
1656 91.2039 413.72 426.51 12.21
1657 91.2539 429.80 426.52 12.46
1658 91.3039 432.36 426.54 12.46
1659 91.3539 411.85 424.25 12.08
1660 91.4039 405.36 424.33 11.94
1661 91.4539 426.67 424.42 12.27
1662 91.5039 408.89 424.51 11.99
1663 91.5539 397.83 424.60 11.83
1664 91.6039 416.81 424.69 12.12
1665 91.6539 421.65 424.79 12.19
1666 91.7039 414.95 424.89 12.12
1667 91.7539 416.17 424.99 12.11
1668 91.8039 426.91 425.09 12.29
1669 91.8539 438.57 425.21 12.45
1670 91.9038 420.36 425.33 12.16
1671 91.9538 423.94 425.45 12.19
1672 92.0038 419.86 425.59 12.11
1673 92.0538 430.45 425.75 12.25
1674 92.1039 412.06 425.92 11.99
1675 92.1539 438.90 426.13 12.39
1676 92.2038 400.83 426.39 11.87
1677 92.2539 433.07 426.73 12.35
1678 92.3039 428.89 427.21 12.30
1679 92.3539 403.62 427.86 11.90
1680 92.4038 432.80 428.79 12.35
1681 92.4539 410.95 438.49 12.03
1682 92.5039 432.85 440.38 12.34
1683 92.5539 438.38 442.67 12.44
1684 92.6039 462.04 445.30 12.73
1685 92.6539 455.83 448.11 12.66
1686 92.7039 454.11 450.79 12.63
1687 92.7539 475.94 452.86 12.92
1688 92.8039 477.90 453.86 12.94
1689 92.8539 469.53 453.58 12.83
1690 92.9039 486.22 452.24 13.09
1691 92.9539 472.75 450.34 12.87
1692 93.0039 466.91 448.33 12.80
1693 93.0539 430.34 446.50 12.30
1694 93.1038 441.18 445.04 12.44
1695 93.1538 449.45 443.99 12.56
1696 93.2038 445.66 443.36 12.51
1697 93.2538 439.02 443.08 12.39
1698 93.3038 420.05 443.08 12.04
1699 93.3539 420.02 443.30 12.08
1700 93.4038 409.78 443.67 11.94
1701 93.4538 396.20 444.16 11.76
1702 93.5039 412.21 444.73 12.00
1703 93.5539 430.89 445.38 12.30
1704 93.6039 405.44 446.09 11.91
1705 93.6538 432.41 446.86 12.30
1706 93.7039 410.36 447.69 11.99
1707 93.7539 434.43 448.58 12.35
1708 93.8039 430.34 449.53 12.27
1709 93.8459 431.24 450.39 12.28
1710 93.8960 429.79 451.48 12.26
1711 93.9460 430.98 452.64 12.28
1712 93.9960 425.02 453.89 12.18
1713 94.0460 440.08 455.24 12.41
1714 94.0960 430.44 456.68 12.26
1715 94.1460 431.23 458.24 12.27
1716 94.1960 435.98 459.92 12.35
1717 94.2460 422.78 461.74 12.16
1718 94.2960 437.63 463.71 12.40
1719 94.3459 415.89 465.85 12.03
1720 94.3959 415.10 468.17 12.04
1721 94.4459 426.41 470.71 12.16
1722 94.4959 437.56 473.49 12.34
1723 94.5459 454.82 476.54 12.57
1724 94.5959 454.92 479.90 12.56
1725 94.6460 431.02 483.60 12.25
1726 94.6959 426.45 487.71 12.20
1727 94.7459 462.18 492.27 12.72
1728 94.7960 447.49 497.38 12.51
1729 94.8459 432.13 503.09 12.28
1730 94.8960 445.67 509.53 12.49
1731 94.9460 461.84 516.81 12.72
1732 94.9959 449.11 525.09 12.52
1733 95.0460 469.72 534.58 12.81
1734 95.0789 491.16 541.60 16.06
1735 95.1096 475.48 548.77 15.82
1736 95.1441 478.17 557.65 16.09
1737 95.1790 480.47 567.67 15.93
1738 95.2096 511.25 577.48 16.39
1739 95.2441 507.11 589.87 16.52
1740 95.2790 562.72 604.14 17.27
1741 95.3096 561.83 618.46 17.22
1742 95.3441 551.39 637.14 17.25
1743 95.3789 601.81 659.66 17.95
1744 95.4096 626.77 683.49 18.27
1745 95.4441 660.36 716.41 18.97
1746 95.4789 678.21 758.66 19.12
1747 95.5096 756.74 806.00 20.18
1748 95.5441 776.51 874.31 20.61
1749 95.5789 877.98 964.65 22.02
1750 95.6096 1022.48 1067.17 23.79
1751 95.6440 1161.84 1213.41 25.41
1752 95.6789 1329.54 1402.23 27.81
1753 95.7096 1552.06 1607.06 30.06
1754 95.7440 1815.87 1883.86 32.25
1755 95.7789 2249.33 2215.66 37.93
1756 95.8096 2587.21 2548.95 40.99
1757 95.8441 3011.80 2961.67 42.86
1758 95.8789 3425.35 3403.53 49.51
1759 95.9096 3702.07 3794.33 51.13
1760 95.9440 4156.15 4200.92 51.56
1761 95.9789 4549.03 4534.33 60.22
1762 96.0096 4584.91 4723.62 58.65
1763 96.0441 4741.45 4786.05 55.86
1764 96.0789 4757.40 4677.59 62.51
1765 96.1096 4643.90 4454.63 58.59
1766 96.1441 4458.71 4099.55 53.81
1767 96.1789 4160.88 3675.76 57.17
1768 96.2096 3895.06 3284.04 51.78
1769 96.2440 3463.45 2851.64 46.22
1770 96.2789 3059.79 2444.81 46.30
1771 96.3096 2725.82 2122.39 41.29
1772 96.3502 2361.81 1757.48 40.26
1773 96.3789 1972.57 1541.96 35.26
1774 96.4234 1729.30 1273.85 27.27
1775 96.4734 1402.89 1054.72 24.01
1776 96.5234 1135.68 903.65 21.16
1777 96.5733 965.34 801.18 19.31
1778 96.6234 816.39 731.19 17.56
1779 96.6733 683.93 682.13 15.88
1780 96.7234 649.97 646.16 15.43
1781 96.7734 607.98 618.60 14.88
1782 96.8233 584.55 596.60 14.56
1783 96.8733 550.57 578.51 14.12
1784 96.9233 560.57 563.30 14.20
1785 96.9733 540.15 550.39 13.91
1786 97.0233 525.57 539.28 13.67
1787 97.0733 499.76 529.67 13.30
1788 97.1233 509.36 521.29 13.50
1789 97.1733 515.90 513.96 13.59
1790 97.2233 483.33 507.50 13.14
1791 97.2734 453.84 501.77 12.69
1792 97.3233 478.92 496.70 13.06
1793 97.3733 464.98 492.17 12.87
1794 97.4233 483.91 488.11 13.13
1795 97.4733 478.15 484.46 13.10
1796 97.5233 451.17 481.17 12.64
1797 97.5658 474.07 478.62 15.91
1798 97.6124 479.00 476.06 13.16
1799 97.6624 476.18 473.55 13.11
1800 97.7124 466.95 471.26 13.01
1801 97.7623 468.65 469.18 13.04
1802 97.8124 462.59 467.26 12.92
1803 97.8624 474.07 465.51 13.08
1804 97.9124 477.88 463.89 13.15
1805 97.9624 488.13 462.41 13.34
1806 98.0124 481.08 461.04 13.20
1807 98.0623 477.44 459.77 13.13
1808 98.1123 468.91 458.59 13.01
1809 98.1623 475.00 457.50 13.07
1810 98.2123 471.89 457.12 13.03
1811 98.2623 470.17 456.20 12.99
1812 98.3123 485.71 455.35 13.20
1813 98.3623 476.43 454.55 13.07
1814 98.4123 461.82 453.81 12.88
1815 98.4623 464.21 453.12 12.94
1816 98.5124 477.70 452.48 13.14
1817 98.5623 469.04 451.89 13.01
1818 98.6123 453.89 451.33 12.79
1819 98.6623 463.82 450.81 12.95
1820 98.7124 452.13 450.33 12.77
1821 98.7623 479.42 449.88 13.18
1822 98.8087 478.61 449.48 16.36
1823 98.8558 476.24 449.11 13.45
1824 98.9057 464.92 448.75 13.28
1825 98.9558 467.47 448.41 13.34
1826 99.0057 451.58 448.09 13.08
1827 99.0558 446.60 447.80 13.00
1828 99.1058 472.45 447.53 13.39
1829 99.1557 498.82 447.28 13.78
1830 99.2057 462.80 447.05 13.26
1831 99.2558 483.90 446.84 13.58
1832 99.3058 475.27 446.65 13.45
1833 99.3557 473.52 446.47 13.40
1834 99.4057 461.23 446.32 13.24
1835 99.4557 441.44 446.18 12.89
1836 99.5057 464.13 446.06 13.23
1837 99.5557 465.45 445.96 13.24
1838 99.6057 460.52 437.33 13.16
1839 99.6557 464.74 437.50 13.26
1840 99.7057 467.36 437.68 13.32
1841 99.7557 451.75 437.86 13.07
1842 99.8058 411.28 438.06 12.46
1843 99.8557 443.89 438.27 12.95
1844 99.9057 422.14 438.49 12.64
1845 99.9557 425.76 438.73 12.70
1846 100.0057 420.71 438.98 12.61
1847 100.0557 448.78 439.26 13.04
1848 100.1005 445.19 439.53 12.80
1849 100.1505 433.06 439.85 12.65
1850 100.2005 454.31 440.20 12.94
1851 100.2505 450.69 440.59 12.88
1852 100.3005 428.78 441.01 12.56
1853 100.3505 438.31 441.49 12.66
1854 100.4005 450.45 442.02 12.88
1855 100.4505 438.18 442.61 12.71
1856 100.5005 448.85 443.29 12.88
1857 100.5505 468.45 444.06 13.16
1858 100.6005 450.29 444.95 12.89
1859 100.6505 429.55 445.98 12.58
1860 100.7004 451.70 447.19 12.87
1861 100.7505 450.95 448.63 12.86
1862 100.8005 413.49 450.38 12.27
1863 100.8505 455.17 452.57 12.90
1864 100.9005 466.82 455.40 13.07
1865 100.9505 465.98 459.24 13.12
1866 101.0005 468.43 464.70 13.14
1867 101.0505 460.74 472.70 13.01
1868 101.1005 464.15 484.45 13.04
1869 101.1505 505.84 501.46 13.70
1870 101.2005 522.34 525.14 13.92
1871 101.2505 542.49 556.29 14.18
1872 101.3005 547.76 594.50 14.24
1873 101.3455 598.48 632.55 15.52
1874 101.3955 635.00 673.02 15.98
1875 101.4455 633.58 701.41 16.02
1876 101.4955 608.62 707.41 15.59
1877 101.5455 629.55 688.80 15.94
1878 101.5955 617.51 653.19 15.76
1879 101.6455 603.61 611.34 15.61
1880 101.6955 567.63 571.37 15.11
1881 101.7455 548.27 542.95 14.81
1882 101.7955 534.35 516.69 14.69
1883 101.8454 508.02 497.49 14.30
1884 101.8954 497.23 484.09 14.13
1885 101.9454 481.29 475.04 13.77
1886 101.9954 499.81 468.99 14.06
1887 102.0454 457.98 464.90 13.46
1888 102.0955 468.28 462.06 13.67
1889 102.1455 505.54 460.01 14.25
1890 102.1955 453.75 458.50 13.48
1891 102.2455 458.09 457.35 13.50
1892 102.2955 446.36 456.48 13.29
1893 102.3455 450.88 455.83 13.41
1894 102.3955 460.87 455.35 13.60
1895 102.4455 459.28 455.03 13.54
1896 102.4955 437.76 454.83 13.23
1897 102.5455 450.47 454.75 13.44
1898 102.5955 440.92 454.77 13.45
1899 102.6455 435.36 454.87 13.35
1900 102.6955 431.30 455.07 13.24
1901 102.7455 425.21 455.35 13.10
1902 102.7955 434.39 455.70 13.26
1903 102.8455 450.79 456.14 13.55
1904 102.8955 469.67 456.65 13.89
1905 102.9455 440.95 457.41 13.38
1906 102.9955 439.67 458.09 13.40
1907 103.0455 437.87 458.86 13.36
1908 103.0954 459.24 459.73 13.70
1909 103.1454 465.04 460.70 13.76
1910 103.1954 430.43 461.79 13.22
1911 103.2454 450.67 463.00 13.49
1912 103.2954 439.16 464.34 13.31
1913 103.3455 454.72 465.84 13.53
1914 103.3955 459.86 467.52 13.62
1915 103.4454 448.88 469.39 13.48
1916 103.4955 452.60 471.48 13.53
1917 103.5455 461.89 473.84 13.69
1918 103.5954 429.12 476.49 13.15
1919 103.6454 466.79 479.49 13.76
1920 103.6955 468.07 482.90 13.81
1921 103.7455 487.96 486.80 14.15
1922 103.8004 467.25 491.75 12.01
1923 103.8518 457.27 497.15 14.03
1924 103.9018 466.11 503.28 14.16
1925 103.9518 496.17 510.46 14.64
1926 104.0018 508.70 518.95 14.84
1927 104.0518 501.54 529.10 14.75
1928 104.1018 486.11 541.36 14.45
1929 104.1518 533.28 556.45 15.28
1930 104.2018 529.78 575.51 15.15
1931 104.2518 548.66 600.45 15.48
1932 104.3018 617.28 634.47 16.48
1933 104.3518 629.28 682.98 16.59
1934 104.4017 716.20 754.16 17.79
1935 104.4517 810.16 859.36 19.02
1936 104.5017 1056.68 1011.61 21.98
1937 104.5518 1267.49 1223.19 24.43
1938 104.6018 1479.40 1499.21 26.68
1939 104.6518 1832.27 1827.95 30.27
1940 104.7018 2021.84 2165.71 32.09
1941 104.7517 2133.22 2422.97 33.23
1942 104.8018 2248.77 2500.62 34.33
1943 104.8518 2259.36 2367.48 34.51
1944 104.9018 2122.94 2086.80 33.15
1945 104.9518 1864.47 1754.42 30.68
1946 105.0018 1654.45 1440.49 28.55
1947 105.0518 1415.09 1180.24 26.11
1948 105.1089 1188.54 959.26 22.74
1949 105.1589 1009.20 824.47 20.80
1950 105.2089 931.47 731.92 19.89
1951 105.2589 780.81 669.22 18.00
1952 105.3089 736.61 626.31 17.44
1953 105.3589 641.90 596.07 16.19
1954 105.4089 593.31 574.08 15.51
1955 105.4589 565.49 557.66 15.14
1956 105.5089 550.05 545.39 14.91
1957 105.5589 525.47 536.60 14.53
1958 105.6089 499.72 531.03 14.14
1959 105.6589 525.76 528.62 14.57
1960 105.7089 526.67 529.36 14.53
1961 105.7589 544.17 532.85 14.73
1962 105.8089 512.95 537.87 14.31
1963 105.8589 520.68 541.80 14.41
1964 105.9089 524.38 541.30 14.54
1965 105.9589 538.16 534.93 14.71
1966 106.0089 511.53 524.25 14.33
1967 106.0589 515.40 512.07 14.40
1968 106.1089 536.69 500.61 14.74
1969 106.1589 513.79 490.94 14.38
1970 106.2089 473.18 483.32 13.79
1971 106.2589 495.59 477.53 14.09
1972 106.3089 493.29 473.19 14.09
1973 106.3560 494.57 470.07 13.80
1974 106.4060 494.51 467.47 13.78
1975 106.4560 483.96 465.39 13.64
1976 106.5060 503.50 463.65 13.94
1977 106.5560 497.53 462.17 13.85
1978 106.6060 481.40 460.88 13.60
1979 106.6560 471.49 459.74 13.46
1980 106.7060 491.42 458.73 13.76
1981 106.7560 468.93 457.82 13.42
1982 106.8060 475.70 456.99 13.53
1983 106.8559 465.57 456.25 13.34
1984 106.9060 472.24 455.57 13.43
1985 106.9559 461.75 454.95 13.29
1986 107.0059 465.31 454.38 13.29
1987 107.0559 485.49 453.86 13.61
1988 107.1060 462.71 453.37 13.30
1989 107.1559 473.70 452.93 13.46
1990 107.2060 455.24 452.51 13.19
1991 107.2560 472.90 452.13 13.45
1992 107.3059 462.61 451.77 13.33
1993 107.3560 467.73 451.44 13.43
1994 107.4059 450.45 451.13 13.13
1995 107.4560 477.08 450.84 13.52
1996 107.5060 458.25 450.56 13.28
1997 107.5512 460.60 450.33 16.07
1998 107.5960 452.80 450.11 13.21
1999 107.6461 454.48 449.89 13.27
2000 107.6961 461.23 449.67 13.34
2001 107.7461 451.45 449.47 13.23
2002 107.7961 446.81 449.28 13.14
2003 107.8461 459.23 443.59 13.29
2004 107.8961 463.92 443.59 13.38
2005 107.9461 470.39 443.99 13.48
2006 107.9961 453.37 444.01 13.28
2007 108.0461 469.50 444.04 13.45
2008 108.0960 462.77 444.07 13.38
2009 108.1460 467.18 444.10 13.49
2010 108.1960 482.20 444.13 13.61
2011 108.2460 445.73 444.16 13.10
2012 108.2960 480.53 444.20 13.57
2013 108.3460 447.35 444.23 13.09
2014 108.3961 468.99 444.27 13.45
2015 108.4460 474.19 444.32 13.55
2016 108.4960 452.93 444.36 13.23
2017 108.5461 454.44 444.41 13.23
2018 108.5960 465.03 444.46 13.40
2019 108.6460 472.64 444.51 13.55
2020 108.6961 446.99 444.57 13.17
2021 108.7460 459.52 444.63 13.33
2022 108.7961 456.90 444.69 13.31
2023 108.8360 419.71 444.75 12.88
2024 108.8860 441.02 444.66 13.20
2025 108.9360 469.89 444.74 13.68
2026 108.9859 443.24 444.83 13.24
2027 109.0360 466.71 444.93 13.61
2028 109.0860 463.98 445.04 13.57
2029 109.1360 448.20 445.16 13.34
2030 109.1860 464.57 445.29 13.57
2031 109.2360 447.46 445.43 13.34
2032 109.2860 458.76 445.59 13.47
2033 109.3359 447.83 445.77 13.34
2034 109.3859 477.07 445.97 13.76
2035 109.4359 432.87 446.20 13.02
2036 109.4859 434.58 446.46 13.09
2037 109.5359 436.59 446.77 13.08
2038 109.5860 474.72 447.12 13.66
2039 109.6360 442.12 447.53 13.19
2040 109.6860 459.26 448.02 13.46
2041 109.7359 442.76 448.62 13.25
2042 109.7860 462.92 449.34 13.53
2043 109.8360 460.44 450.24 13.50
2044 109.8859 447.96 451.36 13.35
2045 109.9360 475.48 452.81 13.75
2046 109.9859 460.31 454.72 13.51
2047 110.0360 477.94 457.33 13.80
2048 110.0835 480.84 460.81 17.21
2049 110.1278 511.68 465.39 14.57
2050 110.1779 477.72 472.87 14.05
2051 110.2279 499.16 483.87 14.35
2052 110.2778 492.33 499.39 14.24
2053 110.3278 521.16 518.97 14.66
2054 110.3779 526.41 537.78 14.77
2055 110.4278 499.72 546.57 14.38
2056 110.4779 533.73 541.01 14.89
2057 110.5278 499.61 525.89 14.39
2058 110.5778 491.80 508.12 14.21
2059 110.6278 490.32 491.97 14.20
2060 110.6778 500.71 479.18 14.36
2061 110.7278 480.81 469.93 14.05
2062 110.7778 468.58 463.51 13.83
2063 110.8278 476.54 459.09 13.93
2064 110.8778 468.98 456.01 13.89
2065 110.9278 457.30 453.79 13.68
2066 110.9778 473.10 452.15 13.95
2067 111.0279 442.14 450.90 13.43
2068 111.0778 468.05 449.92 13.86
2069 111.1278 456.18 453.50 13.71
2070 111.1778 446.23 453.03 13.50
2071 111.2278 445.04 452.68 13.48
2072 111.2778 454.79 452.42 13.67
2073 111.3239 453.96 452.26 16.68
2074 111.3742 466.06 452.15 13.66
2075 111.4242 455.74 452.10 13.52
2076 111.4742 462.39 452.09 13.59
2077 111.5241 467.53 452.13 13.71
2078 111.5742 473.33 452.21 13.76
2079 111.6242 434.21 452.33 13.13
2080 111.6742 456.28 452.48 13.53
2081 111.7242 436.30 452.67 13.20
2082 111.7741 462.13 452.89 13.61
2083 111.8242 471.02 453.14 13.76
2084 111.8741 450.99 453.43 13.41
2085 111.9241 474.15 453.76 13.75
2086 111.9741 487.25 454.13 13.97
2087 112.0241 467.70 454.53 13.65
2088 112.0741 476.93 477.42 13.78
2089 112.1241 467.91 478.67 13.64
2090 112.1741 465.03 480.01 13.65
2091 112.2241 442.27 481.46 13.27
2092 112.2742 463.91 483.01 13.63
2093 112.3241 460.58 484.67 13.60
2094 112.3741 493.61 486.47 14.07
2095 112.4241 465.34 488.41 13.65
2096 112.4742 490.39 490.51 14.06
2097 112.5241 498.35 492.78 14.18
2098 112.5748 466.60 495.29 13.68
2099 112.6249 478.64 498.00 13.91
2100 112.6749 503.30 500.95 14.26
2101 112.7249 486.20 504.20 14.01
2102 112.7749 514.23 507.77 14.42
2103 112.8249 521.52 511.73 14.50
2104 112.8749 513.48 515.72 14.41
2105 112.9249 476.95 520.66 13.83
2106 112.9749 509.82 526.20 14.34
2107 113.0249 516.30 532.48 14.44
2108 113.0749 501.04 539.62 14.20
2109 113.1249 515.70 547.84 14.41
2110 113.1748 515.32 557.36 14.44
2111 113.2248 531.99 568.54 14.66
2112 113.2748 558.61 581.80 15.01
2113 113.3248 557.98 597.82 14.98
2114 113.3749 589.89 617.54 15.43
2115 113.4249 601.03 642.44 15.60
2116 113.4749 626.27 674.95 15.97
2117 113.5248 712.26 718.90 17.15
2118 113.5749 780.01 780.16 17.97
2119 113.6248 872.75 866.59 19.13
2120 113.6749 1015.70 988.03 20.85
2121 113.7249 1201.41 1152.84 22.91
2122 113.7748 1377.59 1361.36 24.73
2123 113.8249 1529.15 1587.31 26.37
2124 113.8636 1652.57 1732.53 33.42
2125 113.8932 1715.40 1799.95 34.46
2126 113.9370 1739.82 1811.65 28.26
2127 113.9869 1753.46 1714.45 28.34
2128 114.0370 1596.42 1553.85 26.75
2129 114.0869 1430.12 1381.86 25.12
2130 114.1369 1350.28 1229.54 24.32
2131 114.1869 1239.66 1111.88 23.17
2132 114.2370 1109.89 1031.97 21.75
2133 114.2870 1013.45 986.44 20.67
2134 114.3369 999.77 969.48 20.52
2135 114.3869 914.54 976.07 19.51
2136 114.4369 913.51 1003.42 19.48
2137 114.4869 995.73 1051.40 20.42
2138 114.5369 995.92 1122.87 20.40
2139 114.5869 1113.74 1224.58 21.70
2140 114.6369 1302.58 1368.93 23.78
2141 114.6869 1479.22 1575.67 25.54
2142 114.7369 1930.37 1873.88 29.85
2143 114.7869 2455.35 2302.00 34.65
2144 114.8370 3107.21 2903.01 40.12
2145 114.8869 4064.44 3711.47 47.90
2146 114.9370 5016.46 4728.77 55.37
2147 114.9869 5926.46 5851.77 62.39
2148 115.0369 6706.54 6823.22 68.30
2149 115.0865 7240.13 7295.23 61.50
2150 115.1405 7420.95 7081.82 71.99
2151 115.1905 7056.66 6361.84 69.29
2152 115.2405 6322.33 5404.14 63.94
2153 115.2905 5433.00 4416.85 57.45
2154 115.3405 4513.63 3528.22 50.74
2155 115.3905 3838.24 2797.85 45.80
2156 115.4405 3163.54 2235.84 40.66
2157 115.4905 2468.67 1821.98 34.91
2158 115.5405 2128.80 1524.21 32.03
2159 115.5904 1767.78 1310.56 28.73
2160 115.6404 1471.30 1155.13 25.73
2161 115.6904 1263.04 1039.49 23.50
2162 115.7404 1085.54 951.18 21.56
2163 115.7905 946.18 881.82 19.91
2164 115.8404 888.01 826.17 19.16
2165 115.8905 796.06 780.61 18.08
2166 115.9404 729.41 742.79 17.26
2167 115.9904 707.91 710.98 16.97
2168 116.0405 703.10 683.96 16.92
2169 116.0904 670.64 660.84 16.49
2170 116.1405 640.58 645.28 16.12
2171 116.1905 641.33 628.05 16.10
2172 116.2404 635.20 613.02 16.03
2173 116.2905 612.03 599.80 15.73
2174 116.3387 614.88 588.53 15.80
2175 116.3887 618.06 578.14 15.87
2176 116.4388 623.49 568.88 15.94
2177 116.4887 601.82 560.62 15.64
2178 116.5387 572.37 553.20 15.20
2179 116.5887 591.39 546.52 15.49
2180 116.6387 581.93 535.85 15.36
2181 116.6887 590.42 530.56 15.47
2182 116.7387 568.06 525.75 15.17
2183 116.7887 562.27 521.40 15.09
2184 116.8387 546.27 517.43 14.82
2185 116.8887 543.35 513.81 14.79
2186 116.9387 534.37 510.51 14.65
2187 116.9887 579.13 507.49 15.28
2188 117.0387 557.46 504.72 14.91
2189 117.0887 556.85 502.19 14.92
2190 117.1387 553.99 499.87 14.89
2191 117.1887 566.47 497.75 15.15
2192 117.2387 578.61 495.81 15.29
2193 117.2887 557.39 494.03 15.01
2194 117.3387 552.26 492.41 14.90
2195 117.3887 549.69 490.93 14.88
2196 117.4387 567.63 489.58 15.17
2197 117.4887 562.72 488.37 15.07
2198 117.5387 533.08 487.27 14.64
2199 117.5817 536.74 486.42 15.64
2200 117.6317 550.90 485.54 15.69
2201 117.6817 527.48 484.76 15.40
2202 117.7317 547.54 484.09 15.74
2203 117.7817 553.92 483.52 15.90
2204 117.8317 550.98 483.05 15.75
2205 117.8817 549.30 482.68 15.67
2206 117.9317 556.49 482.42 15.83
2207 117.9817 550.27 482.26 15.77
2208 118.0317 551.35 482.20 15.75
2209 118.0817 536.51 458.85 15.47
2210 118.1316 546.21 459.78 15.69
2211 118.1816 545.72 460.80 15.60
2212 118.2316 541.21 461.90 15.59
2213 118.2817 573.39 463.11 16.00
2214 118.3317 542.71 464.44 15.59
2215 118.3817 544.00 465.90 15.66
2216 118.4316 526.95 467.50 15.40
2217 118.4817 532.04 469.27 15.47
2218 118.5317 541.49 471.22 15.62
2219 118.5817 485.77 473.39 14.74
2220 118.6317 521.61 475.82 15.27
2221 118.6817 544.39 478.52 15.68
2222 118.7317 541.33 481.56 15.63
2223 118.7817 535.02 484.98 15.53
2224 118.8309 538.28 488.79 15.34
2225 118.8809 521.94 493.19 15.12
2226 118.9309 531.22 498.23 15.18
2227 118.9809 529.54 504.01 15.19
2228 119.0309 536.70 510.72 15.26
2229 119.0809 539.69 518.55 15.37
2230 119.1309 534.18 527.80 15.28
2231 119.1809 537.04 538.92 15.33
2232 119.2309 563.85 552.53 15.72
2233 119.2809 558.18 569.59 15.69
2234 119.3309 599.99 593.84 16.26
2235 119.3808 603.00 623.06 16.35
2236 119.4308 610.77 662.55 16.35
2237 119.4808 695.84 716.33 17.65
2238 119.5309 749.89 789.34 18.36
2239 119.5809 853.48 886.74 19.63
2240 119.6309 964.59 1013.18 21.10
2241 119.6808 1087.32 1171.06 22.52
2242 119.7309 1310.81 1358.67 25.11
2243 119.7809 1520.91 1565.49 27.35
2244 119.8309 1721.15 1767.74 29.44
2245 119.8809 1914.69 1929.33 31.33
2246 119.9309 2011.15 2013.32 32.31
2247 119.9809 1979.62 2002.82 32.02
2248 120.0309 1936.46 1908.05 31.57
2249 120.0846 1794.16 1742.79 29.79
2250 120.1346 1571.66 1559.99 27.49
2251 120.1846 1444.50 1373.23 26.31
2252 120.2346 1307.25 1198.93 24.90
2253 120.2846 1102.79 1046.27 22.56
2254 120.3346 1019.50 919.68 21.61
2255 120.3846 915.58 818.99 20.41
2256 120.4346 845.50 742.07 19.55
2257 120.4846 727.69 683.28 17.89
2258 120.5346 705.69 639.30 17.75
2259 120.5846 627.43 606.33 16.53
2260 120.6345 584.82 581.38 15.99
2261 120.6845 556.59 562.17 15.48
2262 120.7345 555.00 547.07 15.53
2263 120.7845 532.18 534.95 15.12
2264 120.8345 535.42 525.01 15.14
2265 120.8846 520.19 516.72 14.90
2266 120.9345 494.51 509.72 14.44
2267 120.9846 517.58 503.73 14.87
2268 121.0346 478.45 498.57 14.25
2269 121.0845 459.33 494.11 13.97
2270 121.1346 476.48 490.21 14.18
2271 121.1846 480.20 486.81 14.42
2272 121.2346 475.66 483.83 14.19
2273 121.2846 472.62 481.21 14.17
2274 121.3380 461.54 478.76 12.90
2275 121.3880 464.35 476.76 12.96
2276 121.4381 450.80 474.99 12.79
2277 121.4880 470.98 473.45 13.09
2278 121.5380 444.64 472.10 12.68
2279 121.5880 457.27 470.93 12.88
2280 121.6380 475.26 469.92 13.14
2281 121.6880 445.67 469.07 12.72
2282 121.7380 446.74 468.35 12.70
2283 121.7880 466.98 467.77 13.00
2284 121.8380 437.80 467.32 12.56
2285 121.8880 466.36 466.99 12.99
2286 121.9380 460.90 466.78 12.89
2287 121.9880 466.83 466.69 13.00
2288 122.0380 445.72 466.73 12.63
2289 122.0880 461.02 466.89 12.86
2290 122.1380 459.94 467.18 12.89
2291 122.1880 448.08 467.60 12.70
2292 122.2380 473.59 468.16 13.09
2293 122.2880 459.51 468.88 12.91
2294 122.3380 459.45 469.76 12.90
2295 122.3880 431.70 470.83 12.49
2296 122.4380 456.23 472.09 12.85
2297 122.4880 458.38 473.58 12.88
2298 122.5380 483.62 475.33 13.25
2299 122.5856 440.80 477.26 12.51
2300 122.6356 446.18 479.61 12.63
2301 122.6856 444.78 482.35 12.59
2302 122.7356 468.96 485.55 12.96
2303 122.7856 444.04 489.31 12.54
2304 122.8356 468.73 493.77 12.92
2305 122.8856 479.74 499.12 13.07
2306 122.9356 485.77 505.65 13.21
2307 122.9856 459.88 513.79 12.79
2308 123.0356 506.14 524.15 13.47
2309 123.0855 501.23 537.60 13.41
2310 123.1355 543.58 555.35 14.00
2311 123.1855 530.18 578.88 13.78
2312 123.2355 594.57 609.99 14.67
2313 123.2855 615.65 650.67 14.90
2314 123.3355 649.45 702.82 15.33
2315 123.3856 735.12 767.93 16.42
2316 123.4355 859.82 846.55 17.91
2317 123.4855 953.08 937.76 19.02
2318 123.5356 1133.37 1037.90 20.98
2319 123.5855 1323.31 1139.34 22.89
2320 123.6355 1460.83 1230.42 24.29
2321 123.6855 1578.75 1292.30 25.46
2322 123.7355 1631.38 1323.00 25.94
2323 123.7856 1620.86 1314.06 25.86
2324 123.8275 1529.75 1279.11 25.04
2325 123.8775 1505.21 1212.83 24.81
2326 123.9276 1332.75 1129.78 23.10
2327 123.9775 1193.32 1039.61 21.71
2328 124.0276 1092.29 949.91 20.63
2329 124.0776 961.85 866.25 19.25
2330 124.1275 867.86 792.26 18.16
2331 124.1775 763.97 729.61 16.98
2332 124.2276 723.97 678.66 16.46
2333 124.2776 629.53 638.91 15.22
2334 124.3275 609.47 609.14 14.98
2335 124.3775 577.51 588.04 14.54
2336 124.4275 560.54 574.50 14.28
2337 124.4775 529.27 567.65 13.85
2338 124.5275 501.41 566.96 13.42
2339 124.5775 517.24 572.16 13.63
2340 124.6275 491.88 583.16 13.29
2341 124.6775 510.45 599.89 13.55
2342 124.7275 512.29 622.14 13.60
2343 124.7775 531.71 649.29 13.84
2344 124.8275 525.67 679.88 13.77
2345 124.8775 553.24 711.49 14.14
2346 124.9275 581.19 740.33 14.54
2347 124.9775 562.60 761.90 14.29
2348 125.0275 613.30 772.37 14.99
2349 125.0687 577.69 772.24 14.16
2350 125.1187 577.30 759.94 14.18
2351 125.1688 567.94 737.82 14.09
2352 125.2187 526.72 709.14 13.43
2353 125.2688 559.29 676.99 13.94
2354 125.3188 524.31 644.08 13.46
2355 125.3687 501.95 612.43 13.12
2356 125.4187 494.78 583.41 13.05
2357 125.4688 476.93 557.85 12.79
2358 125.5188 459.83 536.13 12.54
2359 125.5687 464.99 518.16 12.58
2360 125.6187 426.08 503.59 12.02
2361 125.6687 427.92 491.95 12.02
2362 125.7187 453.30 482.76 12.42
2363 125.7687 455.47 475.49 12.40
2364 125.8187 430.94 469.73 12.00
2365 125.8687 431.47 465.12 12.05
2366 125.9187 427.73 461.38 12.00
2367 125.9687 426.38 458.29 12.00
2368 126.0188 433.32 455.70 12.15
2369 126.0687 430.98 453.48 12.11
2370 126.1187 422.45 451.56 11.95
2371 126.1687 410.07 449.88 11.82
2372 126.2187 433.86 448.38 12.12
2373 126.2687 413.27 447.03 11.83
2374 126.3155 409.01 445.89 14.50
2375 126.3589 423.06 444.93 12.12
2376 126.4089 409.24 443.90 11.84
2377 126.4589 397.89 442.97 11.69
2378 126.5089 409.07 442.11 11.85
2379 126.5589 422.92 441.32 12.06
2380 126.6089 405.73 440.59 11.84
2381 126.6589 416.96 439.92 12.01
2382 126.7089 420.83 439.29 12.09
2383 126.7589 407.45 438.70 11.82
2384 126.8089 428.82 438.15 12.21
2385 126.8588 426.75 437.64 12.14
2386 126.9089 407.64 437.17 11.81
2387 126.9588 428.42 436.72 12.12
2388 127.0089 404.39 436.30 11.75
2389 127.0589 422.48 435.90 12.02
2390 127.1089 428.94 435.53 12.12
2391 127.1589 410.73 435.18 11.88
2392 127.2089 417.16 434.85 12.00
2393 127.2589 389.06 434.54 11.52
2394 127.3089 417.46 434.25 12.01
2395 127.3589 424.92 433.98 12.09
2396 127.4089 417.89 433.72 11.99
2397 127.4589 411.05 433.48 11.93
2398 127.5089 400.48 433.25 11.79
2399 127.5557 439.19 433.05 14.61
2400 127.6105 413.28 432.84 11.68
2401 127.6605 423.10 432.65 11.89
2402 127.7105 408.82 432.49 11.68
2403 127.7605 402.68 432.33 11.54
2404 127.8105 409.33 432.19 11.65
2405 127.8605 394.22 432.07 11.42
2406 127.9105 401.92 431.95 11.55
2407 127.9605 408.48 431.85 11.63
2408 128.0105 434.51 431.77 12.07
2409 128.0605 427.97 429.31 11.94
2410 128.1105 413.04 429.31 11.73
2411 128.1605 414.48 429.32 11.72
2412 128.2105 423.08 429.35 11.89
2413 128.2605 406.51 429.40 11.58
2414 128.3105 430.74 429.46 11.90
2415 128.3605 411.25 429.54 11.69
2416 128.4105 438.37 429.64 12.10
2417 128.4605 425.10 429.76 11.91
2418 128.5105 425.69 429.90 11.94
2419 128.5605 423.94 430.07 11.88
2420 128.6105 428.31 430.26 11.93
2421 128.6605 418.74 430.49 11.82
2422 128.7105 403.98 430.76 11.59
2423 128.7605 413.39 431.05 11.75
2424 128.8080 422.85 431.37 14.95
2425 128.8576 452.99 431.74 12.72
2426 128.9076 450.26 432.16 12.68
2427 128.9577 430.91 432.64 12.38
2428 129.0076 440.82 433.18 12.54
2429 129.0576 442.73 433.79 12.54
2430 129.1076 409.53 434.48 12.03
2431 129.1576 447.52 435.26 12.64
2432 129.2076 429.03 436.15 12.34
2433 129.2576 432.01 437.16 12.39
2434 129.3076 439.72 438.31 12.51
2435 129.3576 433.07 439.65 12.39
2436 129.4076 431.54 441.20 12.37
2437 129.4576 438.91 443.04 12.48
2438 129.5076 448.90 445.25 12.61
2439 129.5576 441.08 447.09 12.47
2440 129.6076 433.52 450.43 12.35
2441 129.6576 454.45 454.61 12.69
2442 129.7076 431.11 459.90 12.35
2443 129.7576 439.16 466.63 12.48
2444 129.8076 433.06 475.21 12.40
2445 129.8576 457.23 486.04 12.73
2446 129.9076 462.02 499.61 12.84
2447 129.9576 487.80 516.38 13.22
2448 130.0076 486.55 536.68 13.21
2449 130.0576 520.49 560.81 13.67
2450 130.0942 537.21 580.86 17.06
2451 130.1258 553.55 599.74 17.34
2452 130.1695 565.00 627.99 14.31
2453 130.2195 642.89 662.45 15.33
2454 130.2695 679.65 697.64 15.78
2455 130.3195 693.69 731.11 15.96
2456 130.3695 759.49 759.84 16.77
2457 130.4195 772.72 780.78 16.94
2458 130.4695 807.78 791.61 17.36
2459 130.5196 810.99 791.49 17.40
2460 130.5695 785.14 781.04 17.08
2461 130.6195 778.83 761.99 17.00
2462 130.6694 740.44 736.60 16.58
2463 130.7195 719.26 707.09 16.28
2464 130.7695 685.18 675.58 15.85
2465 130.8195 636.69 643.75 15.20
2466 130.8695 588.42 613.01 14.62
2467 130.9195 546.27 584.40 14.04
2468 130.9695 533.64 558.53 13.89
2469 131.0195 535.23 535.77 13.91
2470 131.0695 510.13 516.18 13.55
2471 131.1195 478.44 499.68 13.12
2472 131.1695 486.78 485.97 13.25
2473 131.2195 454.65 474.76 12.78
2474 131.2695 475.77 465.65 13.09
2475 131.3195 456.45 458.27 12.80
2476 131.3487 453.82 454.64 15.83
2477 131.3930 442.85 449.93 12.68
2478 131.4430 453.51 445.55 12.88
2479 131.4930 459.89 441.96 12.93
2480 131.5430 451.17 438.99 12.80
2481 131.5930 457.48 436.51 12.89
2482 131.6430 436.32 434.39 12.57
2483 131.6930 454.41 432.56 12.84
2484 131.7430 466.04 430.97 13.03
2485 131.7930 440.38 429.56 12.63
2486 131.8430 451.55 428.30 12.81
2487 131.8930 429.82 427.17 12.48
2488 131.9429 428.19 426.14 12.42
2489 131.9930 420.33 425.20 12.30
2490 132.0430 426.89 424.34 12.39
2491 132.0930 452.77 423.54 12.76
2492 132.1430 401.76 422.81 12.02
2493 132.1930 422.64 422.13 12.35
2494 132.2430 424.66 421.49 12.39
2495 132.2930 416.17 420.90 12.24
2496 132.3430 439.73 420.34 12.63
2497 132.3930 413.17 419.82 12.21
2498 132.4430 433.06 419.33 12.54
2499 132.4930 416.88 418.86 12.27
2500 132.5430 426.57 418.42 12.45
2501 132.5927 411.86 418.01 12.28
2502 132.6427 412.19 417.61 12.27
2503 132.6927 408.27 417.23 12.21
2504 132.7427 422.29 416.87 12.43
2505 132.7927 421.08 416.52 12.46
2506 132.8427 444.06 416.19 12.75
2507 132.8927 428.14 415.88 12.50
2508 132.9427 427.69 415.57 12.56
2509 132.9927 408.78 415.28 12.23
2510 133.0427 421.33 415.00 12.42
2511 133.0926 412.46 414.72 12.27
2512 133.1426 421.57 414.46 12.42
2513 133.1926 424.84 414.21 12.41
2514 133.2426 425.38 413.96 12.46
2515 133.2926 404.83 413.73 12.12
2516 133.3427 414.34 413.50 12.26
2517 133.3927 432.05 413.28 12.59
2518 133.4427 412.90 413.07 12.25
2519 133.4927 441.10 412.86 12.72
2520 133.5427 432.02 412.66 12.56
2521 133.5927 436.98 412.47 12.62
2522 133.6427 416.39 412.29 12.34
2523 133.6927 438.18 412.11 12.67
2524 133.7427 431.01 411.95 12.55
2525 133.7927 438.88 411.79 12.70
2526 133.8456 406.72 411.64 12.02
2527 133.8956 423.99 411.51 12.32
2528 133.9457 419.85 411.40 12.26
2529 133.9956 438.75 411.32 12.51
2530 134.0456 407.33 411.26 12.02
2531 134.0957 435.42 411.23 12.48
2532 134.1456 414.92 411.24 12.17
2533 134.1956 419.62 411.30 12.24
2534 134.2457 417.93 411.41 12.22
2535 134.2957 410.89 411.58 12.13
2536 134.3456 431.18 411.81 12.41
2537 134.3956 423.66 412.11 12.31
2538 134.4456 429.03 412.47 12.38
2539 134.4956 417.59 412.88 12.19
2540 134.5456 410.51 413.35 12.07
2541 134.5956 427.64 413.84 12.27
2542 134.6456 426.94 414.32 12.30
2543 134.6956 427.28 414.77 12.34
2544 134.7456 421.74 415.12 12.26
2545 134.7957 420.53 415.35 12.25
2546 134.8456 433.57 415.42 12.40
2547 134.8956 420.54 415.30 12.26
2548 134.9456 416.96 415.02 12.19
2549 134.9956 429.45 414.59 12.39
2550 135.0456 421.79 414.03 12.26
2551 135.0959 419.23 413.39 12.10
2552 135.1459 444.70 412.68 12.48
2553 135.1959 444.10 411.95 12.45
2554 135.2458 412.59 411.22 11.97
2555 135.2959 424.25 410.50 12.16
2556 135.3459 425.48 409.82 12.20
2557 135.3958 416.77 409.81 12.04
2558 135.4459 429.45 409.22 12.26
2559 135.4959 417.79 408.68 12.08
2560 135.5459 425.97 408.20 12.19
2561 135.5958 427.79 407.77 12.22
2562 135.6458 413.04 407.38 12.02
2563 135.6958 432.14 407.04 12.26
2564 135.7458 418.13 406.73 12.05
2565 135.7959 441.63 405.51 12.33
2566 135.8458 428.20 405.28 12.12
2567 135.8959 418.13 405.07 12.01
2568 135.9458 425.10 404.87 12.13
2569 135.9958 432.36 404.70 12.28
2570 136.0459 432.68 404.53 12.30
2571 136.0958 409.20 404.37 11.92
2572 136.1459 415.83 404.22 12.04
2573 136.1958 450.28 404.08 12.59
2574 136.2458 423.50 403.94 12.19
2575 136.3003 422.88 403.79 10.47
2576 136.3485 426.38 403.67 11.98
2577 136.3985 418.58 403.54 11.85
2578 136.4485 429.97 403.41 12.02
2579 136.4985 419.87 403.29 11.87
2580 136.5485 443.40 403.17 12.20
2581 136.5985 434.12 403.05 12.07
2582 136.6485 408.34 402.93 11.67
2583 136.6985 439.80 402.82 12.16
2584 136.7485 429.12 402.70 12.00
2585 136.7985 426.56 402.59 11.97
2586 136.8485 425.72 402.48 11.95
2587 136.8984 441.39 402.37 12.19
2588 136.9484 440.54 402.26 12.14
2589 136.9984 428.73 402.15 11.96
2590 137.0484 448.92 402.05 12.25
2591 137.0985 455.56 401.94 12.33
2592 137.1485 439.89 401.84 12.11
2593 137.1984 434.38 401.73 12.06
2594 137.2484 408.83 401.63 11.69
2595 137.2985 435.23 401.53 12.09
2596 137.3484 424.70 401.43 11.91
2597 137.3985 431.68 401.33 12.03
2598 137.4485 433.40 401.23 12.05
2599 137.4985 424.93 401.14 11.92
2600 137.5475 430.90 401.04 10.57
2601 137.5998 420.73 400.94 12.15
2602 137.6499 402.36 400.85 11.87
2603 137.6998 422.98 400.75 12.19
2604 137.7499 415.69 400.66 12.03
2605 137.7998 423.25 400.57 12.19
2606 137.8498 437.20 400.48 12.38
2607 137.8998 450.83 400.39 12.61
2608 137.9499 421.39 400.31 12.14
2609 137.9999 426.36 400.22 12.24
2610 138.0498 419.30 400.14 12.12
2611 138.0998 408.38 400.05 11.93
2612 138.1498 426.30 399.97 12.23
2613 138.1998 422.95 399.89 12.16
2614 138.2498 413.79 399.81 11.96
2615 138.2998 420.06 399.73 12.05
2616 138.3498 428.26 399.65 12.17
2617 138.3998 423.74 399.58 12.19
2618 138.4498 417.01 399.51 12.07
2619 138.4998 423.30 399.43 12.15
2620 138.5499 416.59 399.36 12.02
2621 138.5998 428.90 399.29 12.27
2622 138.6499 408.82 399.23 11.96
2623 138.6998 420.24 399.16 12.10
2624 138.7498 427.64 399.10 12.22
2625 138.7999 433.03 399.04 12.30
2626 138.8484 420.54 398.98 13.57
2627 138.8985 422.02 398.92 13.47
2628 138.9484 404.69 398.86 13.17
2629 138.9984 433.66 398.81 13.69
2630 139.0484 404.33 398.76 13.13
2631 139.0984 414.41 398.71 13.68
2632 139.1484 424.84 398.66 13.74
2633 139.1984 428.28 398.62 13.76
2634 139.2484 402.53 398.58 13.28
2635 139.2984 405.48 398.54 13.46
2636 139.3484 403.48 398.51 13.39
2637 139.3984 429.63 398.47 13.86
2638 139.4484 415.35 398.45 13.37
2639 139.4984 413.57 398.42 13.37
2640 139.5484 445.67 398.40 13.92
2641 139.5984 406.83 398.38 13.23
2642 139.6484 417.65 398.37 13.58
2643 139.6984 419.61 398.36 13.61
2644 139.7484 396.34 399.90 13.11
2645 139.7984 425.16 399.91 13.71
2646 139.8484 410.49 399.94 13.24
2647 139.8984 390.79 399.96 13.14
2648 139.9484 433.60 400.00 13.98
2649 139.9984 406.52 400.04 13.41
2650 140.0407 386.77 400.07 16.73
2651 140.0858 412.10 400.12 13.62
2652 140.1358 414.52 400.18 13.69
2653 140.1858 400.74 400.24 13.36
2654 140.2358 404.71 400.32 13.54
2655 140.2858 401.09 400.40 13.33
2656 140.3358 410.73 400.49 13.37
2657 140.3858 416.65 400.59 13.78
2658 140.4358 407.23 400.70 13.46
2659 140.4858 393.68 400.83 13.16
2660 140.5358 418.40 400.96 13.53
2661 140.5858 397.97 401.11 13.26
2662 140.6358 418.08 401.27 13.59
2663 140.6858 428.29 401.45 13.95
2664 140.7358 399.24 401.64 13.12
2665 140.7858 407.27 401.85 13.34
2666 140.8358 430.21 402.08 13.92
2667 140.8858 427.36 402.31 14.00
2668 140.9358 400.82 402.58 13.44
2669 140.9858 391.75 402.88 13.29
2670 141.0358 394.59 403.20 13.31
2671 141.0858 403.23 403.55 13.35
2672 141.1357 411.72 403.93 13.52
2673 141.1858 412.88 404.35 13.53
2674 141.2358 405.51 404.81 13.28
2675 141.2814 427.57 405.26 17.82
2676 141.3331 411.52 405.83 13.19
2677 141.3832 436.83 406.43 13.83
2678 141.4332 398.72 407.09 13.27
2679 141.4832 375.81 407.83 12.56
2680 141.5332 412.77 408.65 13.48
2681 141.5832 406.98 409.58 13.09
2682 141.6332 431.39 410.64 13.65
2683 141.6832 408.44 411.84 13.20
2684 141.7332 424.51 413.23 13.54
2685 141.7832 414.24 414.84 13.34
2686 141.8331 408.09 416.74 13.06
2687 141.8831 423.65 418.97 13.59
2688 141.9331 411.58 421.62 13.50
2689 141.9831 429.47 424.76 13.47
2690 142.0331 416.27 428.51 13.15
2691 142.0831 414.28 432.97 13.35
2692 142.1332 431.96 438.25 13.48
2693 142.1831 414.95 444.48 13.40
2694 142.2332 421.04 451.80 13.46
2695 142.2832 432.55 460.31 13.79
2696 142.3332 459.04 470.11 14.20
2697 142.3832 444.48 481.31 14.14
2698 142.4332 456.52 493.94 14.13
2699 142.4832 453.84 508.01 14.02
2700 142.5332 483.44 523.49 14.55
2701 142.5819 460.16 539.80 12.31
2702 142.6320 485.14 557.58 12.70
2703 142.6820 512.67 576.08 13.07
2704 142.7319 519.11 594.82 13.14
2705 142.7820 552.18 613.24 13.58
2706 142.8320 558.66 630.58 13.66
2707 142.8820 565.90 646.03 13.75
2708 142.9319 579.80 658.81 13.98
2709 142.9820 585.14 668.24 14.04
2710 143.0320 586.98 673.85 14.05
2711 143.0819 624.13 675.46 14.51
2712 143.1319 603.28 673.17 14.24
2713 143.1819 590.69 667.28 14.06
2714 143.2319 606.62 658.27 14.26
2715 143.2819 575.67 646.68 13.86
2716 143.3319 562.10 633.09 13.67
2717 143.3819 557.21 618.05 13.63
2718 143.4319 513.76 602.10 13.08
2719 143.4819 529.72 585.68 13.30
2720 143.5320 518.01 569.20 13.15
2721 143.5819 499.71 553.03 12.92
2722 143.6319 484.85 537.41 12.73
2723 143.6820 462.76 522.58 12.39
2724 143.7319 465.75 508.70 12.45
2725 143.7819 483.35 495.88 12.72
2726 143.8436 470.51 481.62 12.43
2727 143.8936 466.14 471.33 12.34
2728 143.9437 411.70 462.16 11.60
2729 143.9936 417.13 454.08 11.66
2730 144.0436 421.59 446.99 11.74
2731 144.0936 437.94 440.83 11.93
2732 144.1436 430.11 435.50 11.82
2733 144.1936 435.55 430.92 11.93
2734 144.2437 429.86 426.98 11.82
2735 144.2936 428.89 423.62 11.81
2736 144.3436 410.21 420.75 11.50
2737 144.3936 426.17 418.30 11.78
2738 144.4436 411.80 416.21 11.53
2739 144.4936 423.15 414.42 11.72
2740 144.5436 407.84 412.89 11.42
2741 144.5936 420.71 411.58 11.63
2742 144.6436 409.32 410.44 11.47
2743 144.6936 418.05 409.46 11.62
2744 144.7436 414.51 408.62 11.60
2745 144.7936 414.71 407.88 11.61
2746 144.8436 425.10 407.24 11.72
2747 144.8936 424.02 406.68 11.73
2748 144.9436 427.69 406.19 11.80
2749 144.9936 407.73 405.77 11.49
2750 145.0436 428.86 405.40 11.80
2751 145.0811 404.04 405.15 13.68
2752 145.1244 424.29 404.91 11.61
2753 145.1744 394.70 404.67 11.14
2754 145.2244 400.63 404.46 11.23
2755 145.2744 416.83 404.30 11.47
2756 145.3245 420.26 404.17 11.54
2757 145.3744 418.68 404.08 11.46
2758 145.4244 410.11 404.02 11.40
2759 145.4744 412.49 403.99 11.40
2760 145.5244 410.37 404.00 11.42
2761 145.5744 412.37 404.03 11.38
2762 145.6244 432.87 404.10 11.72
2763 145.6744 418.70 404.20 11.47
2764 145.7244 416.31 404.32 11.44
2765 145.7744 414.91 404.48 11.38
2766 145.8244 438.77 404.67 11.74
2767 145.8744 427.17 404.89 11.59
2768 145.9244 416.60 405.14 11.46
2769 145.9744 428.82 405.43 11.64
2770 146.0244 425.71 405.74 11.61
2771 146.0744 403.84 406.10 11.26
2772 146.1244 435.15 406.49 11.73
2773 146.1744 413.50 406.92 11.42
2774 146.2244 424.52 407.38 11.61
2775 146.2744 430.37 407.89 11.68
2776 146.3200 430.78 408.39 14.29
2777 146.3516 418.19 408.77 14.06
2778 146.3857 417.65 409.19 13.70
2779 146.4200 417.83 409.64 14.09
2780 146.4516 407.77 410.07 13.84
2781 146.4857 437.21 410.57 14.04
2782 146.5200 430.53 411.09 14.26
2783 146.5516 435.20 411.60 14.35
2784 146.5857 430.53 412.18 13.94
2785 146.6200 436.40 412.79 14.44
2786 146.6516 432.85 413.39 14.30
2787 146.6856 414.42 414.06 13.64
2788 146.7200 448.72 414.78 14.63
2789 146.7516 406.97 415.48 13.87
2790 146.7857 435.80 416.27 14.00
2791 146.8200 428.42 417.11 14.26
2792 146.8515 439.70 417.93 14.42
2793 146.8857 430.96 418.87 13.93
2794 146.9199 433.90 419.88 14.36
2795 146.9516 428.37 420.86 14.15
2796 146.9856 433.46 421.98 13.99
2797 147.0200 428.24 423.20 14.19
2798 147.0515 426.42 424.39 14.11
2799 147.0856 408.70 425.76 13.54
2800 147.1200 431.74 427.25 14.24
2801 147.1516 401.14 428.73 13.70
2802 147.1856 407.01 430.44 13.53
2803 147.2199 438.58 432.31 14.41
2804 147.2516 450.63 434.19 14.61
2805 147.2856 443.77 436.38 14.16
2806 147.3200 433.10 438.80 14.36
2807 147.3516 429.73 441.22 14.24
2808 147.3856 417.37 444.09 13.68
2809 147.4200 434.21 447.27 14.38
2810 147.4516 428.14 450.48 14.21
2811 147.4856 443.65 454.30 14.12
2812 147.5200 444.07 458.54 14.55
2813 147.5516 458.25 462.85 14.77
2814 147.5833 468.10 467.97 12.03
2815 147.6334 445.84 476.41 11.72
2816 147.6834 458.87 486.17 11.94
2817 147.7334 451.13 497.41 11.79
2818 147.7834 458.89 510.34 11.90
2819 147.8334 493.85 525.14 12.37
2820 147.8834 505.84 541.96 12.54
2821 147.9333 522.09 560.99 12.76
2822 147.9834 517.09 582.38 12.67
2823 148.0334 559.84 606.20 13.21
2824 148.0833 575.36 632.50 13.40
2825 148.1333 636.90 661.32 14.14
2826 148.1833 656.25 692.57 14.32
2827 148.2333 709.86 726.09 14.95
2828 148.2833 762.22 761.58 15.54
2829 148.3334 817.52 798.66 16.14
2830 148.3834 861.55 836.71 16.57
2831 148.4333 917.01 875.01 17.18
2832 148.4834 958.14 912.66 17.63
2833 148.5334 1031.46 948.57 18.34
2834 148.5834 1074.69 981.53 18.76
2835 148.6333 1112.43 1010.39 19.15
2836 148.6834 1168.41 1034.06 19.70
2837 148.7334 1146.52 1051.65 19.48
2838 148.7834 1187.50 1062.60 19.86
2839 148.8287 1142.68 1066.61 19.21
2840 148.8788 1185.61 1064.57 19.63
2841 148.9288 1155.45 1056.14 19.33
2842 148.9788 1124.63 1041.94 19.04
2843 149.0288 1112.96 1022.67 18.96
2844 149.0788 1116.29 999.16 18.99
2845 149.1288 1023.05 972.24 18.08
2846 149.1787 1009.20 942.71 17.98
2847 149.2288 981.69 911.28 17.72
2848 149.2788 913.80 878.72 17.06
2849 149.3287 866.94 845.63 16.61
2850 149.3787 821.97 812.51 16.14
2851 149.4287 778.09 779.85 15.61
2852 149.4787 729.50 748.06 15.13
2853 149.5287 736.48 717.46 15.23
2854 149.5788 674.07 688.28 14.45
2855 149.6287 651.21 660.77 14.20
2856 149.6787 621.31 635.04 13.89
2857 149.7287 608.11 611.16 13.76
2858 149.7788 599.45 589.15 13.64
2859 149.8287 564.38 569.08 13.18
2860 149.8787 539.96 550.83 12.91
2861 149.9288 541.28 534.35 12.88
2862 149.9787 514.05 519.57 12.53
2863 150.0287 490.61 506.36 12.20
2864 150.0761 499.16 495.19 12.40
2865 150.1261 482.22 484.70 12.13
2866 150.1762 478.66 475.42 12.09
2867 150.2261 454.31 467.24 11.74
2868 150.2762 432.30 460.02 11.45
2869 150.3261 441.57 453.67 11.58
2870 150.3761 421.64 448.08 11.31
2871 150.4261 437.17 443.15 11.51
2872 150.4762 402.98 438.80 11.00
2873 150.5261 430.10 434.26 11.40
2874 150.5761 426.46 430.87 11.33
2875 150.6261 436.63 427.84 11.50
2876 150.6761 427.87 425.15 11.32
2877 150.7261 422.97 422.73 11.27
2878 150.7761 435.18 420.56 11.45
2879 150.8261 418.14 418.60 11.15
2880 150.8761 437.91 416.82 11.44
2881 150.9261 400.12 415.19 10.96
2882 150.9761 405.95 413.71 11.02
2883 151.0261 425.33 412.34 11.29
2884 151.0761 419.29 411.08 11.24
2885 151.1261 408.30 409.92 11.07
2886 151.1761 406.05 408.83 11.05
2887 151.2261 401.02 407.83 10.96
2888 151.2761 408.82 406.89 11.05
2889 151.3244 414.88 406.03 11.00
2890 151.3743 404.94 405.20 10.84
2891 151.4244 383.09 404.43 10.53
2892 151.4743 373.39 403.69 10.42
2893 151.5244 390.33 403.00 10.64
2894 151.5744 403.94 402.35 10.84
2895 151.6243 404.27 401.74 10.84
2896 151.6744 403.78 401.15 10.84
2897 151.7244 390.23 400.60 10.64
2898 151.7744 412.18 400.08 10.97
2899 151.8243 408.08 399.59 10.90
2900 151.8743 393.62 399.12 10.69
2901 151.9243 403.44 398.67 10.83
2902 151.9743 403.61 398.25 10.82
2903 152.0243 418.73 397.85 11.00
2904 152.0743 401.66 397.46 10.75
2905 152.1243 405.76 397.10 10.86
2906 152.1743 402.61 396.75 10.78
2907 152.2243 403.39 396.42 10.82
2908 152.2744 414.77 396.10 11.01
2909 152.3243 422.66 395.80 11.09
2910 152.3743 407.22 395.51 10.89
2911 152.4243 399.65 395.24 10.75
2912 152.4743 406.73 394.98 10.87
2913 152.5244 408.02 394.73 10.88
2914 152.5788 382.74 394.47 10.63
2915 152.6288 406.16 394.24 10.99
2916 152.6788 407.83 394.02 11.00
2917 152.7288 421.94 393.81 11.17
2918 152.7788 418.68 393.61 11.13
2919 152.8288 399.28 393.42 10.85
2920 152.8788 409.10 393.24 11.01
2921 152.9288 398.82 393.06 10.86
2922 152.9788 401.39 392.89 10.92
2923 153.0288 405.28 392.73 10.99
2924 153.0788 395.30 392.58 10.79
2925 153.1288 409.05 392.43 10.96
2926 153.1788 408.23 392.29 10.96
2927 153.2287 387.86 392.15 10.61
2928 153.2788 402.32 392.02 10.83
2929 153.3288 406.30 391.90 10.88
2930 153.3788 405.91 391.78 10.93
2931 153.4288 391.75 391.66 10.74
2932 153.4788 390.45 391.55 10.72
2933 153.5288 390.59 391.45 10.73
2934 153.5788 392.40 391.35 10.73
2935 153.6288 396.08 391.25 10.82
2936 153.6788 392.38 391.15 10.77
2937 153.7288 403.92 391.07 10.92
2938 153.7788 401.85 390.98 10.89
2939 153.8286 400.79 390.90 10.79
2940 153.8786 389.03 390.82 10.61
2941 153.9287 389.01 390.74 10.63
2942 153.9786 401.33 390.67 10.80
2943 154.0286 390.22 390.61 10.60
2944 154.0787 390.57 390.54 10.61
2945 154.1286 392.43 390.48 10.63
2946 154.1786 379.72 390.42 10.48
2947 154.2287 392.92 390.36 10.67
2948 154.2787 405.68 390.30 10.86
2949 154.3286 397.64 390.25 10.72
2950 154.3786 384.09 390.20 10.53
2951 154.4286 405.46 390.15 10.78
2952 154.4786 384.95 390.11 10.51
2953 154.5286 395.64 390.07 10.64
2954 154.5786 400.95 390.02 10.69
2955 154.6286 385.80 389.98 10.51
2956 154.6786 398.44 389.95 10.71
2957 154.7286 367.73 389.91 10.29
2958 154.7787 380.89 389.88 10.50
2959 154.8286 389.52 389.85 10.56
2960 154.8786 386.06 389.82 10.57
2961 154.9286 379.55 389.79 10.44
2962 154.9786 390.52 389.77 10.60
2963 155.0286 379.80 389.74 10.45
2964 155.0815 386.46 389.72 10.44
2965 155.1315 386.30 389.70 10.42
2966 155.1815 398.03 389.68 10.63
2967 155.2315 400.73 389.66 10.64
2968 155.2815 387.62 389.64 10.41
2969 155.3315 393.96 389.63 10.51
2970 155.3815 402.66 389.62 10.63
2971 155.4315 379.81 389.61 10.35
2972 155.4815 384.92 389.60 10.44
2973 155.5315 391.01 389.59 10.49
2974 155.5815 398.24 389.58 10.58
2975 155.6314 397.38 389.57 10.58
2976 155.6815 385.02 389.57 10.38
2977 155.7314 385.93 389.56 10.38
2978 155.7815 405.26 389.56 10.64
2979 155.8315 377.84 389.56 10.26
2980 155.8815 382.92 389.56 10.36
2981 155.9315 384.11 389.56 10.40
2982 155.9815 382.40 389.57 10.37
2983 156.0315 404.97 389.57 10.67
2984 156.0815 368.26 389.58 10.17
2985 156.1315 389.54 389.58 10.48
2986 156.1815 386.70 389.59 10.42
2987 156.2314 379.96 389.60 10.34
2988 156.2815 378.99 389.61 10.31
2989 156.3273 386.89 389.62 10.75
2990 156.3773 399.71 389.64 10.94
2991 156.4273 381.76 389.65 10.67
2992 156.4773 374.13 389.67 10.49
2993 156.5273 378.00 389.68 10.57
2994 156.5773 403.23 389.70 10.97
2995 156.6273 382.58 389.72 10.66
2996 156.6773 388.83 389.74 10.79
2997 156.7273 382.98 389.77 10.68
2998 156.7773 368.36 389.79 10.46
2999 156.8272 378.11 389.82 10.56
3000 156.8772 375.92 389.85 10.56
3001 156.9272 374.07 389.88 10.47
3002 156.9772 386.39 389.91 10.68
3003 157.0273 383.95 389.94 10.62
3004 157.0773 388.13 389.98 10.66
3005 157.1273 387.73 390.02 10.69
3006 157.1772 379.93 390.05 10.67
3007 157.2273 385.13 390.10 10.64
3008 157.2773 375.62 390.14 10.56
3009 157.3273 390.58 390.18 10.75
3010 157.3773 386.74 390.23 10.70
3011 157.4273 392.59 390.28 10.78
3012 157.4773 365.02 390.34 10.38
3013 157.5273 399.58 390.39 10.93
3014 157.5768 392.35 388.74 10.89
3015 157.6267 387.80 388.82 10.80
3016 157.6768 391.77 388.90 10.86
3017 157.7267 377.07 388.99 10.69
3018 157.7767 405.71 389.08 11.09
3019 157.8268 403.59 389.17 11.03
3020 157.8767 367.85 389.27 10.51
3021 157.9267 382.14 389.37 10.74
3022 157.9768 377.48 389.47 10.66
3023 158.0268 392.28 389.58 10.91
3024 158.0767 379.22 389.69 10.69
3025 158.1267 399.70 389.80 10.96
3026 158.1767 369.77 389.92 10.51
3027 158.2267 387.19 390.05 10.75
3028 158.2767 385.14 390.18 10.71
3029 158.3267 356.70 390.32 10.29
3030 158.3767 381.84 390.46 10.72
3031 158.4267 385.54 390.61 10.78
3032 158.4767 378.58 390.77 10.70
3033 158.5267 387.75 390.94 10.83
3034 158.5767 380.03 391.11 10.67
3035 158.6267 391.37 391.30 10.90
3036 158.6767 396.15 391.49 10.92
3037 158.7267 399.14 391.70 10.94
3038 158.7767 386.38 391.91 10.78
3039 158.8241 393.53 392.13 13.70
3040 158.8694 380.33 392.35 10.83
3041 158.9195 368.17 392.61 10.62
3042 158.9695 396.14 392.89 11.02
3043 159.0194 403.18 393.19 11.15
3044 159.0694 373.05 393.50 10.74
3045 159.1195 394.86 393.85 11.01
3046 159.1694 384.76 394.22 10.88
3047 159.2195 402.81 394.62 11.19
3048 159.2694 390.18 395.05 10.93
3049 159.3194 401.48 395.52 11.13
3050 159.3694 392.11 396.04 11.00
3051 159.4194 382.30 396.60 10.82
3052 159.4694 393.78 397.21 10.95
3053 159.5194 380.73 397.88 10.75
3054 159.5694 404.31 398.62 11.11
3055 159.6194 392.05 399.43 10.94
3056 159.6694 397.05 400.32 11.05
3057 159.7194 378.01 401.29 10.75
3058 159.7695 390.82 402.36 10.98
3059 159.8194 384.33 403.54 10.88
3060 159.8694 387.27 404.83 10.91
3061 159.9194 405.81 406.24 11.21
3062 159.9694 398.30 407.79 11.08
3063 160.0194 427.74 409.48 11.50
3064 160.0712 401.55 411.40 13.28
3065 160.1047 419.18 412.73 13.58
3066 160.1473 394.46 414.54 10.75
3067 160.1973 400.76 416.83 10.86
3068 160.2473 419.02 419.31 11.12
3069 160.2973 414.73 421.99 11.04
3070 160.3473 421.48 424.87 11.12
3071 160.3973 425.64 427.96 11.19
3072 160.4473 415.22 431.28 11.06
3073 160.4973 446.74 434.81 11.47
3074 160.5473 424.03 438.57 11.19
3075 160.5972 438.08 442.54 11.36
3076 160.6472 444.35 446.73 11.46
3077 160.6973 458.99 451.12 11.60
3078 160.7472 470.80 455.71 11.78
3079 160.7973 461.82 460.49 11.61
3080 160.8472 476.58 465.42 11.83
3081 160.8973 488.72 470.48 12.00
3082 160.9472 474.06 475.64 11.84
3083 160.9973 459.10 480.86 11.62
3084 161.0473 501.03 486.08 12.15
3085 161.0972 481.95 491.26 11.92
3086 161.1473 502.99 496.34 12.21
3087 161.1973 497.46 501.24 12.14
3088 161.2473 507.09 505.91 12.25
3089 161.2973 514.72 510.27 12.36
3090 161.3548 515.13 514.81 15.08
3091 161.4048 507.83 518.28 14.96
3092 161.4548 507.82 521.25 14.96
3093 161.5048 504.00 523.68 14.89
3094 161.5548 527.45 525.53 15.30
3095 161.6048 537.31 526.78 15.41
3096 161.6548 530.08 527.44 15.30
3097 161.7048 548.67 527.51 15.61
3098 161.7548 572.89 527.00 15.98
3099 161.8048 506.51 525.95 14.94
3100 161.8547 526.10 524.39 15.25
3101 161.9047 529.57 522.35 15.33
3102 161.9547 541.09 519.89 15.40
3103 162.0047 517.41 517.03 15.03
3104 162.0548 523.84 513.84 15.12
3105 162.1048 504.14 510.35 14.79
3106 162.1548 492.54 506.60 14.69
3107 162.2047 513.73 502.65 15.00
3108 162.2547 507.73 498.52 14.97
3109 162.3048 496.95 494.25 14.84
3110 162.3548 487.01 489.89 14.63
3111 162.4048 520.21 485.45 15.16
3112 162.4547 505.11 480.98 14.94
3113 162.5047 482.10 476.49 14.60
3114 162.5547 484.31 472.01 14.62
3115 162.5994 463.19 468.04 20.24
3116 162.6494 472.93 463.63 20.46
3117 162.6994 447.61 459.30 19.87
3118 162.7494 457.40 455.04 20.11
3119 162.7993 476.80 450.89 20.55
3120 162.8494 464.58 446.82 20.28
3121 162.8994 468.62 442.88 20.29
3122 162.9494 462.44 439.05 20.21
3123 162.9994 457.06 435.35 20.12
3124 163.0494 464.88 431.78 20.28
3125 163.0994 459.95 428.34 20.13
3126 163.1493 445.79 425.04 19.87
3127 163.1994 480.95 421.87 20.47
3128 163.2494 469.99 418.84 20.18
3129 163.2994 415.96 415.94 18.84
3130 163.3494 454.67 413.17 19.73
3131 163.3994 418.45 410.54 19.03
3132 163.4494 457.07 408.03 19.99
3133 163.4994 404.98 405.65 18.83
3134 163.5495 429.97 403.38 19.42
3135 163.5994 415.80 401.24 19.11
3136 163.6494 412.56 399.21 19.04
3137 163.6993 399.50 397.29 18.69
3138 163.7494 415.92 395.47 19.08
3139 163.7994 364.38 393.75 17.97
loop_
_pd_proc_info_excluded_regions
'from 1.501 to 9.285'
loop_
_refln_index_h
_refln_index_k
_refln_index_l
_refln_F_squared_calc
_refln_F_squared_meas
_refln_observed_status
_refln_d_spacing
1 1 1 82.65 87.46 o 4.838688
2 0 2 195.80 257.80 o 2.963079
1 1 3 2113.49 1958.10 o 2.526922
2 2 2 47241.83 45791.53 o 2.419344
0 0 4 16805.60 16584.28 o 2.095213
3 1 3 2006.67 1977.39 o 1.922700
2 2 4 472.03 488.51 o 1.710734
1 1 5 71.65 75.14 o 1.612896
3 3 3 8728.92 9153.52 o 1.612896
4 0 4 6305.91 6182.52 o 1.481539
3 1 5 44.51 51.68 o 1.416623
4 2 4 258.42 213.52 o 1.396809
2 0 6 808.83 800.21 o 1.325129
3 3 5 1346.25 1316.34 o 1.278068
2 2 6 30839.13 31460.10 o 1.263461
4 4 4 9850.35 9704.12 o 1.209672
5 1 5 2441.56 2397.97 o 1.173554
1 1 7 1649.61 1620.16 o 1.173554
4 2 6 24.66 27.70 o 1.119939
3 1 7 6184.25 6518.89 o 1.091094
5 3 5 1.97 2.08 o 1.091094
0 0 8 3030.21 2418.01 o 1.047607
3 3 7 5643.50 5539.18 o 1.023884
4 4 6 159.48 147.90 o 1.016328
2 2 8 138.06 113.17 o 0.987693
6 0 6 246.13 201.76 o 0.987693
5 5 5 1748.01 1748.03 o 0.967738
5 1 7 1437.38 1437.39 o 0.967738
6 2 6 20232.94 22183.65 o 0.961350
4 0 8 5522.88 5536.49 o 0.937008
1 1 9 1793.35 2137.49 o 0.919918
5 3 7 805.16 959.67 o 0.919918
4 2 8 629.47 287.23 o 0.914426
6 4 6 1653.04 1538.68 o 0.893402
3 1 9 18.50 30.89 < 0.878552
4 4 8 1448.90 1010.23 o 0.855367
3 3 9 121.12 128.33 o 0.842307
7 1 7 3500.71 3709.21 o 0.842307
5 5 7 18.89 20.01 o 0.842307
2 0 10 1.74 1.76 o 0.821810
6 2 8 409.51 413.74 o 0.821810
1 1 1 15963.75 16843.97 o 4.838688
2 0 2 3372.56 3378.57 o 2.963079
1 1 3 20909.96 21033.56 o 2.526922
2 2 2 4971.18 3892.16 o 2.419344
0 0 4 93420.50 89670.41 o 2.095213
3 1 3 1933.29 1780.71 o 1.922700
2 2 4 1354.63 1516.66 o 1.710734
3 3 3 5856.84 5695.27 o 1.612896
1 1 5 21329.10 20740.71 o 1.612896
4 0 4 83991.39 84035.76 o 1.481539
3 1 5 4313.15 4195.46 o 1.416623
4 2 4 88.93 39.05 < 1.396809
2 0 6 635.91 785.96 o 1.325129
3 3 5 8339.96 9105.44 o 1.278068
2 2 6 5153.03 5508.81 o 1.263461
4 4 4 28347.23 29957.62 o 1.209672
1 1 7 919.68 898.71 o 1.173554
5 1 5 5436.21 5312.26 o 1.173554
4 2 6 969.57 866.01 o 1.119939
5 3 5 8414.14 8625.48 o 1.091094
3 1 7 3159.46 3238.82 o 1.091094
0 0 8 33545.06 28497.82 o 1.047607
3 3 7 113.06 48.48 < 1.023884
4 4 6 26.82 21.91 < 1.016328
6 0 6 1180.83 969.75 o 0.987693
2 2 8 550.19 451.84 o 0.987693
5 5 5 8712.60 9274.18 o 0.967738
5 1 7 3886.05 4136.53 o 0.967738
6 2 6 3540.42 4038.14 o 0.961350
4 0 8 12558.36 11304.68 o 0.937008
5 3 7 635.16 578.71 o 0.919918
1 1 9 2630.62 2396.83 o 0.919918
4 2 8 84.61 68.77 o 0.914426
6 4 6 93.36 123.35 < 0.893402
3 1 9 4641.88 4260.92 o 0.878552
4 4 8 17275.01 16091.89 o 0.855367
3 3 9 1211.62 1305.82 o 0.842307
5 5 7 876.73 944.89 o 0.842307
7 1 7 121.98 131.46 o 0.842307
6 2 8 210.81 197.49 o 0.821810
2 0 10 469.07 439.43 o 0.821810
5 1 9 4744.75 4269.65 o 0.810208
7 3 7 785.33 706.70 o 0.810208
2 2 10 2514.72 2746.84 o 0.806448
6 6 6 2436.22 2661.09 o 0.806448
5 3 9 1349.93 1295.57 o 0.781519
6 4 8 38.78 38.35 < 0.778143
4 2 10 122.88 141.55 < 0.765064
7 5 7 1354.05 1422.51 o 0.755676
1 1 11 1063.64 1117.41 o 0.755676
8 0 8 10078.88 9030.55 o 0.740770
5 5 9 1748.34 1504.59 o 0.732239
3 1 11 73.89 63.59 o 0.732239
7 1 9 634.30 545.87 o 0.732239
4 4 10 5.15 2.84 < 0.729460
8 2 8 138.05 76.14 < 0.729460
6 0 10 7.21 4.56 < 0.718652
6 6 8 359.23 226.99 < 0.718652
3 3 11 539.30 508.18 o 0.710855
7 3 9 1694.01 1596.26 o 0.710855
6 2 10 1789.47 1791.55 o 0.708311
0 0 12 3906.29 3581.62 o 0.698404
8 4 8 4057.97 3720.69 o 0.698404
5 1 11 181.75 185.43 o 0.691241
7 7 7 1.01 1.03 o 0.691241
2 2 12 136.59 93.19 o 0.679777
6 4 10 453.16 309.15 o 0.679777
5 3 11 819.64 964.23 o 0.673166
7 5 9 1544.55 1817.02 o 0.673166
4 0 12 6201.21 5415.63 o 0.662565
9 1 9 1039.70 848.53 o 0.656439
8 6 8 73.26 49.10 < 0.654435
4 2 12 47.70 31.97 < 0.654435
8 2 10 178.33 101.61 < 0.646597
5 5 11 802.11 741.05 o 0.640900
9 3 9 1724.08 1592.83 o 0.640900
1 1 13 1973.53 1823.29 o 0.640900
7 1 11 440.70 407.15 o 0.640900
6 6 10 1310.20 1117.14 o 0.639034
4 4 12 2497.58 2503.10 o 0.631731
