#------------------------------------------------------------------------------
#$Date: 2015-06-04 14:34:11 +0300 (Thu, 04 Jun 2015) $
#$Revision: 137956 $
#$URL: svn://www.crystallography.net/cod/cif/4/34/32/4343231.cif $
#------------------------------------------------------------------------------
#
# This file is available in the Crystallography Open Database (COD),
# http://www.crystallography.net/
#
# All data on this site have been placed in the public domain by the
# contributors.
#
data_4343231
loop_
_publ_author_name
'Read, Cory Michael'
'Smith, Mark D.'
'Withers, Ray'
'Zur Loye, Hans-Conrad'
_publ_section_title
;
 Flux Crystal Growth and Optical Properties of Two Uranium-Containing
 Silicates: A2USiO6 (A = Cs, Rb).
;
_journal_issue                   9
_journal_name_full               'Inorganic chemistry'
_journal_page_first              4520
_journal_page_last               4525
_journal_paper_doi               10.1021/acs.inorgchem.5b00364
_journal_volume                  54
_journal_year                    2015
_chemical_formula_moiety         'Cs2 O6 Si U'
_chemical_formula_sum            'Cs2 O6 Si U'
_chemical_formula_weight         627.94
_chemical_name_systematic
; 
 ? 
;
_space_group_crystal_system      orthorhombic
_space_group_IT_number           71
_space_group_name_Hall           '-I 2 2'
_space_group_name_H-M_alt        'I m m m'
_symmetry_space_group_name_Hall  '-I 2 2'
_symmetry_space_group_name_H-M   'I m m m'
_audit_creation_method           SHELXL-2013
_cell_angle_alpha                90
_cell_angle_beta                 90
_cell_angle_gamma                90
_cell_formula_units_Z            8
_cell_length_a                   8.5812(4)
_cell_length_b                   13.0011(6)
_cell_length_c                   13.8811(7)
_cell_measurement_reflns_used    2813
_cell_measurement_temperature    296(2)
_cell_measurement_theta_max      32.556
_cell_measurement_theta_min      2.935
_cell_volume                     1548.65(13)
_computing_cell_refinement       'SAINT-Plus Version 6.45 (Bruker, 2001)'
_computing_data_collection       'SMART Version 5.625 (Bruker, 2001)'
_computing_data_reduction        'SAINT-Plus Version 6.45 (Bruker, 2001)'
_computing_molecular_graphics    various
_computing_publication_material  various
_computing_structure_refinement  'SHELXL-2013 (Sheldrick, 2013)'
_computing_structure_solution    'SHELXS97 (Sheldrick, 1997)'
_diffrn_ambient_temperature      296(2)
_diffrn_measured_fraction_theta_full 0.999
_diffrn_measured_fraction_theta_max 0.983
_diffrn_measurement_device_type  'Bruker SMART APEX CCD diffractometer'
_diffrn_measurement_method       'omega and phi scans'
_diffrn_radiation_type           MoK\a
_diffrn_radiation_wavelength     0.71073
_diffrn_reflns_av_R_equivalents  0.0561
_diffrn_reflns_av_unetI/netI     0.0283
_diffrn_reflns_laue_measured_fraction_full 0.999
_diffrn_reflns_laue_measured_fraction_max 0.983
_diffrn_reflns_limit_h_max       12
_diffrn_reflns_limit_h_min       -12
_diffrn_reflns_limit_k_max       19
_diffrn_reflns_limit_k_min       -19
_diffrn_reflns_limit_l_max       20
_diffrn_reflns_limit_l_min       -20
_diffrn_reflns_number            16331
_diffrn_reflns_point_group_measured_fraction_full 0.999
_diffrn_reflns_point_group_measured_fraction_max 0.983
_diffrn_reflns_theta_full        25.242
_diffrn_reflns_theta_max         32.570
_diffrn_reflns_theta_min         2.146
_diffrn_source                   'sealed tube'
_exptl_absorpt_coefficient_mu    30.357
_exptl_absorpt_correction_T_max  1.0000
_exptl_absorpt_correction_T_min  0.4161
_exptl_absorpt_correction_type   multi-scan
_exptl_absorpt_process_details   'SADABS Version 2.05 (Bruker, 2001)'
_exptl_crystal_colour            orange
_exptl_crystal_density_diffrn    5.386
_exptl_crystal_description       needle
_exptl_crystal_F_000             2112
_exptl_crystal_size_max          0.100
_exptl_crystal_size_mid          0.040
_exptl_crystal_size_min          0.030
_refine_diff_density_max         1.564
_refine_diff_density_min         -2.277
_refine_diff_density_rms         0.299
_refine_ls_extinction_coef       0.00059(2)
_refine_ls_extinction_expression Fc^*^=kFc[1+0.001xFc^2^\l^3^/sin(2\q)]^-1/4^
_refine_ls_extinction_method     SHELXL
_refine_ls_goodness_of_fit_ref   1.052
_refine_ls_matrix_type           full
_refine_ls_number_parameters     62
_refine_ls_number_reflns         1576
_refine_ls_number_restraints     0
_refine_ls_restrained_S_all      1.052
_refine_ls_R_factor_all          0.0327
_refine_ls_R_factor_gt           0.0253
_refine_ls_shift/su_max          0.000
_refine_ls_shift/su_mean         0.000
_refine_ls_structure_factor_coef Fsqd
_refine_ls_weighting_details
; 
 w=1/[\s^2^(Fo^2^)+(0.0219P)^2^+5.0845P] 
 where P=(Fo^2^+2Fc^2^)/3 
;
_refine_ls_weighting_scheme      calc
_refine_ls_wR_factor_gt          0.0506
_refine_ls_wR_factor_ref         0.0531
_reflns_Friedel_coverage         0.000
_reflns_number_gt                1358
_reflns_number_total             1576
_reflns_threshold_expression     'I > 2\s(I)'
_cod_data_source_file            ic5b00364_si_002.cif
_cod_data_source_block           Cs2USiO6
_cod_database_code               4343231
_shelx_estimated_absorpt_t_min   0.151
_shelx_estimated_absorpt_t_max   0.463
_shelx_res_file
;
TITL CR1189as in Immm #71
CELL 0.71073 8.5812 13.0011 13.8811 90 90 90
ZERR 8 0.0004 0.0006 0.0007 0 0 0
LATT 2
SYMM -X,-Y,+Z
SYMM +X,-Y,-Z
SYMM -X,+Y,-Z

SFAC Cs O Si U
UNIT 16 48 8 8
LIST 6 ! automatically inserted. Change 6 to 4 for CHECKCIF!!

L.S. 5
PLAN  9
TEMP 23
BOND
SIZE 0.10 0.04 0.03
REM orange needle
REM 2813 refl / 2th = 5.870 - 65.111
ACTA
fmap 2
WGHT    0.021900    5.084500
EXTI    0.000595
FVAR       0.08776
U1    4    0.250000    0.250000    0.250000    10.50000    0.00659    0.00865 =
         0.01107   -0.00224    0.00007    0.00030
CS1   1    0.000000    0.500000    0.155342    10.25000    0.02146    0.02056 =
         0.02464    0.00000    0.00000    0.00000
CS2   1    0.000000    0.000000    0.305341    10.25000    0.01645    0.01485 =
         0.02650    0.00000    0.00000    0.00000
CS3   1    0.000000    0.264980    0.500000    10.25000    0.01967    0.02208 =
         0.01814    0.00000    0.00000    0.00000
CS4   1    0.000000    0.191712    0.000000    10.25000    0.01827    0.02394 =
         0.02023    0.00000    0.00000    0.00000
SI1   3    0.189531    0.500000    0.388056    10.50000    0.00937    0.00819 =
         0.00868    0.00000    0.00067    0.00000
O1    2    0.244214    0.327130    0.137147    11.00000    0.02349    0.01765 =
         0.01581    0.00298    0.00055    0.00227
O2    2    0.251211    0.397260    0.337269    11.00000    0.02124    0.01606 =
         0.02562   -0.01258    0.00080    0.00146
O3    2    0.000000    0.247062    0.253729    10.50000    0.00702    0.02231 =
         0.04202   -0.00508    0.00000    0.00000
O4    2    0.000000    0.500000    0.389630    10.25000    0.00939    0.03284 =
         0.01233    0.00000    0.00000    0.00000
O5    2    0.247898    0.500000    0.500000    10.25000    0.01285    0.03829 =
         0.00871    0.00000    0.00000    0.00000
HKLF 4

REM  CR1189as in Immm #71
REM R1 =  0.0253 for    1358 Fo > 4sig(Fo)  and  0.0327 for all    1576 data
REM     62 parameters refined using      0 restraints

END

WGHT      0.0219      5.0845

REM Highest difference peak  1.564,  deepest hole -2.277,  1-sigma level  0.299
Q1    1   0.0000  0.5000  0.1041  10.25000  0.05    1.56
Q2    1   0.2500  0.2338  0.1909  11.00000  0.05    1.49
Q3    1   0.0000  0.3313  0.5000  10.25000  0.05    1.41
Q4    1   0.2482  0.2313  0.3095  11.00000  0.05    1.34
Q5    1   0.2167  0.3069  0.2512  11.00000  0.05    1.30
Q6    1   0.0000  0.1339  0.0000  10.25000  0.05    1.21
Q7    1   0.0000  0.4318  0.0526  10.50000  0.05    1.20
Q8    1   0.0000  0.0000  0.3625  10.25000  0.05    1.11
Q9    1   0.0378  0.0611  0.3018  11.00000  0.05    1.10
;
_shelx_res_checksum              24884
_shelx_hkl_file
;
   2   0   0   49.24    5.26   2
   2   0   0   44.31    4.51   3
   2   0   0   24.41    5.65   1
  -2   0   0   51.51    4.60   4
  -4   0   0 9994.17  241.01   5
  -4   0   0 9799.68  242.86   4
   4   0   0 9238.21  245.44   3
   4   0   0 9600.27  248.89   2
   6   0   0   17.39    5.06   3
  -6   0   0   12.39    6.97   1
  -6   0   0   30.70    6.41   5
  -6   0   0   22.94    5.72   5
   6   0   0   61.79   10.89   2
  -6   0   0   27.77    6.73   4
   8   0   0 3711.17  121.59   2
  -8   0   0 3780.96  111.66   5
  -8   0   0 3815.17  135.28   1
 -10   0   0   15.26   10.19   1
  10   0   0   30.14   10.28   2
 -10   0   0   16.72    6.39   5
 -12   0   0 1403.17   62.32   5
  12   0   0 1504.61   77.53   2
 -12   0   0 1434.85   84.80   1
   1   1   0    0.95    1.42   2
  -1   1   0    2.68    1.81   4
   1  -1   0    2.23    1.88   1
   1   1   0    2.63    1.78   3
   1  -1   0    0.90    0.93   3
   1   1   0    1.48    1.49   1
   1   1   0    3.18    1.38   4
   1  -1   0    6.24    2.13   2
   3  -1   0   69.43    9.25   1
   3  -1   0   76.75    5.70   3
   3   1   0   62.01    7.65   2
   3   1   0   63.91    8.63   1
   3   1   0   67.25    7.52   3
  -3   1   0   79.07    7.87   4
  -3  -1   0   77.39    5.75   4
  -3   1   0   82.23    6.05   5
   3  -1   0   70.39    8.13   2
   5   1   0    9.69    3.97   2
  -5  -1   0    3.25    3.81   1
  -5   1   0   14.56    5.00   4
  -5   1   0   16.56    4.69   5
  -5   1   0    6.01    4.85   1
   5  -1   0   13.52    3.81   3
   5  -1   0   16.65    5.61   2
  -5   1   0   17.98    4.50   5
   5   1   0   13.39    4.30   3
  -5  -1   0    8.06    3.11   5
  -5  -1   0   15.39    4.23   4
   7   1   0   22.71    6.57   3
   7   1   0   14.65    6.35   2
   7  -1   0   18.85    5.32   3
  -7  -1   0   15.13    7.19   1
   7  -1   0   17.34    6.79   2
  -7   1   0   26.44    6.34   5
  -7   1   0   34.65   10.50   1
  -7  -1   0   19.20    4.71   5
  -7   1   0   29.48    8.17   4
  -7  -1   0   31.21    7.03   4
  -9   1   0    6.25    4.77   5
   9  -1   0    5.43    5.56   2
   9   1   0    1.37    4.82   2
  -9   1   0    0.86    6.13   1
  -9  -1   0   18.42    9.25   1
  -9  -1   0    6.85    3.80   5
 -11  -1   0   -4.90    6.47   1
 -11   1   0    3.76    7.17   1
  11  -1   0    2.09    6.98   2
 -11  -1   0   -0.79    4.02   5
  11   1   0   -2.92    6.80   2
 -11   1   0    2.34    4.80   5
   0  -2   0 1567.67   56.00   2
   0   2   0 1771.60   47.17   4
   0  -2   0 1688.68   47.29   5
   2   2   0 2204.13   57.30   4
  -2   2   0 2134.67   61.09   4
   2   2   0 2077.70   62.09   3
   2   2   0 2139.71   61.49   2
  -2  -2   0 2120.97   63.01   1
   2  -2   0 2129.37   55.67   3
   2  -2   0 2090.07   59.31   5
  -4  -2   0 1584.08   57.71   1
  -4  -2   0 1651.54   45.32   5
   4   2   0 1682.23   54.88   3
   4  -2   0 1681.44   55.30   2
   4   2   0 1562.39   53.98   2
  -4   2   0 1686.83   54.06   4
   4  -2   0 1690.42   47.28   3
   6  -2   0 1661.94   61.11   2
   6   2   0 1635.76   58.55   3
  -6  -2   0 1642.07   65.69   1
   6   2   0 1551.22   59.00   2
  -6  -2   0 1673.65   50.11   5
  -6   2   0 1634.72   57.89   4
  -6  -2   0 1665.12   52.29   4
  -6   2   0 1560.62   66.25   1
  -6   2   0 1554.37   56.57   5
   6  -2   0 1718.00   51.12   3
  -8  -2   0 1121.03   58.08   1
   8   2   0  972.20   48.61   2
  -8   2   0  963.41   44.52   5
  -8   2   0 1048.12   57.65   1
  -8   2   0 1087.90   46.94   4
   8  -2   0 1046.74   50.20   2
  -8  -2   0 1050.23   39.93   5
   8   2   0 1101.48   46.61   3
 -10  -2   0  808.88   36.40   5
  10  -2   0  787.55   47.41   2
 -10   2   0  772.57   54.14   1
 -10  -2   0  736.57   51.20   1
 -10   2   0  678.88   39.81   5
  10   2   0  758.85   45.19   2
  12   2   0  442.11   43.95   2
 -12  -2   0  416.25   28.00   5
 -12  -2   0  388.35   46.95   1
  12  -2   0  375.15   40.42   2
 -12   2   0  414.21   49.60   1
 -12   2   0  402.70   32.11   5
   1  -3   0  225.55   14.53   2
  -1  -3   0  256.29   11.96   5
   1  -3   0  235.98   12.49   5
   1   3   0  213.37   11.56   4
  -1  -3   0  262.37   15.81   2
   1  -3   0  229.90   10.66   1
   1   3   0  242.91   13.38   3
  -1   3   0  229.17   10.85   3
  -1  -3   0  239.55    9.41   1
  -1   3   0  217.47   13.05   4
   3  -3   0   24.47    6.12   1
  -3  -3   0   25.75    2.42   5
   3   3   0   33.31    6.91   3
   3   3   0   23.88    4.34   4
   3   3   0   26.62    6.16   2
  -3   3   0   26.09    6.26   4
   3  -3   0   23.65    5.01   5
   3  -3   0   34.46    3.79   3
   3  -3   0   21.49    5.78   2
  -3  -3   0   35.05    6.47   1
   5   3   0  148.14   10.39   4
  -5   3   0  117.67   16.09   1
   5  -3   0  137.09   15.42   2
  -5  -3   0  143.56   16.01   1
  -5   3   0  136.22   14.19   5
  -5   3   0  186.61   14.97   4
   5  -3   0  156.16    9.16   3
  -5  -3   0  144.43    8.18   5
   5   3   0  138.14   15.26   2
   5   3   0  151.08   15.55   3
  -7  -3   0   12.17    6.69   1
  -7  -3   0   17.53    4.16   5
   7   3   0   15.55    5.77   3
   7  -3   0   20.93    7.31   2
  -7   3   0   13.41    6.52   1
   7   3   0   13.90    6.08   2
  -7   3   0   18.51    7.27   4
   9   3   0   12.57    7.35   2
  -9  -3   0    5.41    3.52   5
   9  -3   0    7.14    6.67   2
  -9   3   0    7.11    5.31   5
  -9  -3   0    2.73    6.27   1
  -9   3   0    7.00    7.92   1
  11  -3   0   12.00    9.23   2
 -11  -3   0   46.13   15.71   1
 -11   3   0   33.88   11.55   5
 -11   3   0   29.82   12.62   1
 -11  -3   0   31.65    8.16   5
  11   3   0   33.80   12.55   2
   0   4   0 6635.33  173.56   3
   0  -4   0 6609.82  173.06   5
   0   4   0 7096.38  173.24   4
   0  -4   0 6233.69  190.31   2
   2  -4   0   62.44    9.98   2
  -2  -4   0   67.00    6.65   1
   2  -4   0   56.51    8.38   5
   2   4   0   72.07    9.93   3
   2  -4   0   58.80    7.38   1
  -2   4   0   70.29   10.23   4
  -2  -4   0   75.49    6.02   5
  -2  -4   0   68.44   10.16   2
   2   4   0   68.98    8.23   4
   2  -4   0   72.17    6.08   3
   4  -4   0 4990.18  142.20   2
   4   4   0 5049.98  141.77   2
  -4  -4   0 4909.70  144.16   1
  -4   4   0 5011.10  139.85   5
   4   4   0 4957.69  142.49   3
   4   4   0 5099.85  132.55   4
   4  -4   0 5218.51  136.62   5
  -4  -4   0 4846.27  126.73   5
  -4   4   0 5112.57  148.80   1
   4  -4   0 5045.80  128.31   3
  -4   4   0 4912.09  139.98   4
  -6  -4   0   38.89    9.89   1
   6   4   0   51.43   10.75   2
   6  -4   0   41.47    9.51   2
  -6   4   0   44.58    9.68   5
  -6  -4   0   36.84    5.25   5
  -6   4   0   50.88   10.49   4
  -6   4   0   21.07    7.76   1
   6   4   0   37.23    9.11   3
  -8   4   0 2211.06   78.41   4
   8   4   0 2164.83   79.94   3
  -8  -4   0 2073.60   64.68   5
   8  -4   0 2067.69   82.03   2
  -8   4   0 2089.17   77.99   5
  -8  -4   0 2127.42   87.52   1
   8   4   0 2087.85   81.17   2
  -8   4   0 2091.39   90.90   1
 -10  -4   0   29.62    6.76   5
 -10  -4   0   18.00    9.61   1
 -10   4   0   25.32    9.62   5
 -10   4   0   39.65   14.74   1
  10  -4   0   27.88   11.13   2
  10   4   0   44.70   13.37   2
 -12   4   0 1028.63   57.17   5
  12  -4   0  896.46   60.80   2
 -12  -4   0 1016.28   46.01   5
 -12  -4   0 1018.68   66.27   1
 -12   4   0  918.70   68.11   1
  12   4   0 1019.32   62.77   2
  -1  -5   0    6.56    3.76   5
  -1   5   0    9.51    4.93   4
  -1   5   0    6.07    3.43   5
   1   5   0   10.48    4.71   3
  -1   5   0   14.92    4.68   3
   1  -5   0   10.73    4.29   5
  -1   5   0    7.52    2.64   1
   1  -5   0   18.79    7.64   2
   1   5   0   10.43    4.49   4
  -1  -5   0   21.74    8.63   2
   3  -5   0  151.34   16.20   2
  -3   5   0  131.89   15.35   4
   3   5   0  144.30   10.96   4
  -3  -5   0  135.44    8.63   5
   3  -5   0  139.77    9.25   3
   3   5   0  135.24   14.83   3
   3  -5   0  148.00   13.79   5
  -3  -5   0  138.31   15.47   2
  -3  -5   0  135.20   10.39   1
  -3   5   0  125.67   12.84   1
  -3   5   0  122.84   13.20   5
  -5   5   0   -2.99    2.76   1
  -5   5   0    0.68    4.85   4
   5   5   0   -2.26    2.24   4
   5   5   0   -1.53    2.20   3
  -5  -5   0   -0.28    1.94   5
  -5   5   0   -0.93    2.62   5
   5  -5   0    1.48    3.74   2
  -5  -5   0   -2.49    3.16   1
   5  -5   0   -1.87    1.65   3
   5   5   0   -1.75    3.03   2
  -7  -5   0   30.89    5.11   5
   7  -5   0   49.61   12.02   2
  -7   5   0   43.01   10.42   5
  -7  -5   0   48.38   11.94   1
   7   5   0   58.39   12.43   2
  -7   5   0   50.72   12.18   4
   7   5   0   47.41   11.20   3
  -7   5   0   30.92   10.17   1
   9   5   0   19.83    8.17   3
  -9   5   0   21.35   10.04   1
  -9  -5   0   20.98    5.12   5
   9   5   0   18.73    8.66   2
  -9  -5   0   15.09    8.96   1
  -9   5   0   20.42    8.05   5
   9  -5   0   26.62    9.92   2
 -11  -5   0   -4.56    6.39   1
 -11   5   0   -7.38    7.27   1
 -11   5   0    5.27    6.39   5
  11   5   0    4.00    7.70   2
 -11  -5   0   -2.49    3.65   5
  11  -5   0    0.11    6.56   2
   0   6   0  201.09   15.43   4
   0   6   0  188.95   14.31   3
   0  -6   0  148.69   23.16   2
   0  -6   0  190.92   14.82   5
  -2   6   0 2821.57   81.83   1
   2   6   0 2799.31   88.22   3
  -2  -6   0 2841.85   77.49   1
  -2   6   0 2791.46   84.47   5
  -2  -6   0 2775.38   82.33   5
   2   6   0 2736.52   83.46   4
  -2   6   0 2754.97   87.42   4
   2  -6   0 2714.21   93.64   2
   2  -6   0 2716.15   85.97   5
  -2  -6   0 2696.32   94.12   2
   4  -6   0  349.43   15.85   3
   4  -6   0  311.75   23.00   2
  -4   6   0  282.37   20.56   5
   4   6   0  290.29   21.73   3
   4   6   0  305.59   18.25   4
  -4   6   0  344.98   23.10   4
  -4  -6   0  316.91   18.77   1
   4  -6   0  302.60   20.53   5
  -4  -6   0  319.51   23.61   2
  -4   6   0  328.07   21.57   1
  -4  -6   0  345.90   15.89   5
   6   6   0 2184.45   69.86   4
  -6  -6   0 2247.10   80.44   1
   6   6   0 2279.76   83.21   2
  -6  -6   0 2247.71   64.20   5
  -6   6   0 2225.94   85.37   1
   6   6   0 2164.98   81.76   3
  -6   6   0 2239.95   80.69   5
  -6   6   0 2315.70   83.12   4
   6  -6   0 2207.98   82.82   2
  -8   6   0  338.97   30.87   4
  -8  -6   0  355.27   29.36   1
  -8  -6   0  376.97   19.11   5
  -8   6   0  400.21   33.98   1
  -8   6   0  415.79   30.16   5
   8   6   0  388.75   30.15   3
   8   6   0  366.33   29.91   2
   8  -6   0  350.23   33.11   2
 -10   6   0 1082.84   66.18   1
 -10  -6   0 1008.33   60.24   1
 -10   6   0 1131.14   57.70   5
  10   6   0 1032.45   59.20   2
  10  -6   0 1035.43   60.01   2
 -10  -6   0 1027.50   41.30   5
 -12   6   0  149.16   25.37   5
 -12  -6   0  148.60   16.68   5
 -12   6   0  147.03   30.16   1
  12   6   0  176.68   29.23   2
 -12  -6   0  181.04   31.21   1
   1  -7   0    8.82    7.90   2
   1  -7   0    4.21    3.85   5
   1   7   0    5.64    3.95   4
  -1   7   0    8.26    4.63   4
  -1   7   0   10.15    5.14   3
  -1  -7   0    5.74    7.48   2
   1   7   0    4.12    4.67   3
  -1   7   0    7.25    2.47   1
  -1  -7   0    9.50    4.69   5
  -1   7   0    6.71    3.62   5
  -3   7   0   15.09    5.62   5
   3  -7   0   26.58   10.08   2
   3  -7   0   12.06    5.75   5
   3   7   0   19.69    6.27   4
  -3  -7   0   21.80    5.02   1
   3  -7   0   28.22    6.26   3
  -3   7   0   19.89    5.63   1
   3   7   0   24.65    7.60   3
  -3   7   0   26.01    8.39   4
  -3  -7   0   26.79    6.56   5
  -3  -7   0   24.91    9.34   2
  -5  -7   0   23.08    5.31   5
   5  -7   0   22.31    8.39   2
  -5   7   0   25.10    7.75   5
   5   7   0   15.08    5.36   4
  -5   7   0   23.93    7.83   1
   5   7   0   13.82    6.45   3
  -5   7   0   21.41    8.72   4
  -5  -7   0   25.57    6.81   1
  -5  -7   0    7.27    6.61   2
   7   7   0   11.31    6.32   3
  -7   7   0    4.80    5.36   1
   7  -7   0    5.59    4.99   2
   7   7   0   12.85    6.32   2
  -7   7   0    7.22    6.56   4
  -7   7   0   12.37    5.97   5
  -7  -7   0    8.21    5.74   1
  -7  -7   0    7.48    3.43   5
  -9   7   0    4.75    5.46   5
  -9  -7   0   -1.71    2.88   5
  -9   7   0   -4.19    5.61   1
   9  -7   0    0.85    5.45   2
   9   7   0   -1.13    6.35   3
  -9  -7   0    5.66    5.38   1
  -9   7   0    1.98    6.08   4
   9   7   0   -4.76    4.47   2
  11  -7   0   -5.57    7.82   2
 -11  -7   0   -2.74    3.95   5
 -11   7   0    0.50    7.43   5
  11   7   0   11.42    8.91   2
 -11   7   0   13.37    9.75   1
   0  -8   0 3934.85  115.18   5
   0   8   0 3759.36  114.73   4
   0   8   0 3776.45  114.53   3
   0  -8   0 3641.41  133.32   2
  -2   8   0  334.89   17.76   1
   2  -8   0  325.21   23.45   5
  -2  -8   0  354.20   22.23   5
  -2   8   0  333.01   20.78   3
  -2   8   0  370.90   22.83   5
   2  -8   0  384.89   31.80   2
  -2  -8   0  398.33   38.04   2
   2   8   0  345.39   23.32   4
   2   8   0  363.27   25.07   3
  -2   8   0  366.51   25.43   4
   4   8   0 2619.90   86.60   4
  -4  -8   0 2525.57   81.42   5
  -4   8   0 2682.44   88.97   1
   4  -8   0 2834.15   82.05   3
  -4   8   0 2749.78   91.11   5
  -4   8   0 2647.77   93.17   4
   4   8   0 2471.58   92.22   3
   4  -8   0 2794.25   90.24   5
  -4  -8   0 2645.23   81.55   1
  -4  -8   0 2585.14   98.29   2
   4  -8   0 2539.52   97.09   2
  -6  -8   0  138.56   11.46   5
  -6   8   0  135.49   19.44   5
  -6   8   0  182.74   22.61   1
   6   8   0  155.93   17.17   4
  -6  -8   0  138.02   21.11   2
   6  -8   0  151.54   22.65   2
   6   8   0  138.92   20.97   3
  -6  -8   0  154.31   17.03   1
  -6   8   0  140.72   20.83   4
  -8   8   0 1140.54   62.99   1
   8   8   0 1186.91   60.74   3
  -8  -8   0 1142.89   42.88   5
  -8   8   0 1225.45   60.33   4
   8  -8   0 1132.06   61.01   2
  -8   8   0 1192.61   59.53   5
  10   8   0  100.85   21.74   2
 -10   8   0  115.32   21.34   5
 -10  -8   0  133.12   14.40   5
  10  -8   0  143.42   25.79   2
  10   8   0  143.05   25.10   3
 -10   8   0  135.69   26.03   1
  -1   9   0  109.87   16.76   4
   1  -9   0  106.91   15.69   5
  -1   9   0  126.70   15.67   3
  -1  -9   0  151.65   26.39   2
  -1  -9   0   99.98   14.49   5
   1   9   0   83.21   14.31   3
   1  -9   0  100.19   21.55   2
  -1   9   0  129.62   15.01   5
   1   9   0  107.26   15.97   4
  -3  -9   0   12.22    5.41   5
  -3   9   0   21.30    8.55   4
  -3   9   0   14.80    5.77   5
  -3  -9   0   21.33   10.85   2
   3  -9   0   19.14    9.89   2
   3   9   0   26.35    8.76   3
  -3   9   0   23.54    5.98   1
   3  -9   0   12.31    6.57   5
   3  -9   0   22.79    6.57   3
   3   9   0   17.92    6.66   4
   5   9   0  103.14   15.46   4
   5  -9   0   72.00   16.04   2
  -5   9   0   98.94   17.33   4
  -5  -9   0  102.46   19.58   2
   5   9   0  103.49   17.65   3
  -5   9   0   87.65   14.95   1
  -5  -9   0   85.72   12.55   5
  -5   9   0  102.31   17.05   5
   7   9   0   16.37    8.00   3
   7  -9   0   20.39    9.13   2
  -7  -9   0    8.26    7.02   2
  -7   9   0   17.41    8.50   1
  -7   9   0   27.69    9.63   4
  -7  -9   0   20.90    6.81   5
  -7   9   0   19.55    8.98   5
   9   9   0    1.86    6.72   3
   9  -9   0    9.56    7.64   2
  -9   9   0   12.37    7.43   4
  -9   9   0   10.87    7.76   5
  -9   9   0    2.56    7.74   1
  -9  -9   0    0.53    4.64   5
  -9  -9   0    3.74    6.79   2
 -11   9   0   34.89   15.10   5
 -11  -9   0   12.30    7.65   2
 -11   9   0   15.84   13.57   1
  11  -9   0   14.82   12.40   2
 -11  -9   0   23.56    6.70   5
   0 -10   0   49.26   11.09   5
   0  10   0   42.75   10.54   4
   0 -10   0   44.22   15.32   2
   0  10   0   44.61   10.82   3
  -2  10   0 1820.59   74.24   4
   2 -10   0 2085.13   93.05   2
  -2 -10   0 2062.64   93.13   2
   2  10   0 1931.97   74.57   4
   2 -10   0 2041.00   77.10   5
  -2 -10   0 1964.03   70.95   5
  -2  10   0 1981.07   70.24   3
   2  10   0 1789.70   74.10   3
   4  10   0  111.15   18.64   3
  -4 -10   0   96.57   14.38   5
  -4 -10   0  114.57   21.79   2
  -4  10   0  123.82   15.05   1
  -4  10   0  168.82   21.17   5
  -4  10   0   66.26   14.37   4
   4 -10   0   93.24   19.40   2
   4  10   0  122.63   18.27   4
  -6  10   0 1712.75   76.15   4
   6  10   0 1534.63   73.47   3
  -6 -10   0 1643.63   61.29   5
  -6 -10   0 1601.57   79.33   2
   6 -10   0 1640.49   79.67   2
  -6  10   0 1693.10   73.29   5
  -6  10   0 1817.22   73.05   1
  -8 -10   0  191.97   18.51   5
  -8  10   0  170.23   26.21   1
  -8  10   0  189.19   28.25   4
   8 -10   0  206.19   31.13   2
  -8 -10   0  181.74   28.84   2
  -8  10   0  216.25   28.07   5
   8  10   0  138.32   24.38   3
  10  10   0  832.60   57.33   3
 -10  10   0  887.42   61.49   1
 -10  10   0  830.18   56.50   5
  10 -10   0  907.38   61.48   2
 -10 -10   0  859.66   39.15   5
 -10 -10   0  898.43   60.93   2
   1  11   0  106.01   17.53   4
  -1  11   0  138.71   19.68   4
  -1 -11   0  113.84   16.81   5
  -1 -11   0   90.00   20.11   2
  -1  11   0   91.68   15.35   3
   1  11   0  108.97   17.83   3
   1 -11   0  113.98   18.30   5
   1 -11   0  117.83   24.04   2
   3 -11   0  232.17   33.31   2
   3 -11   0  266.92   28.89   5
  -3 -11   0  250.16   23.28   5
   3  11   0  228.14   26.25   3
  -3  11   0  170.30   23.58   4
   3 -11   0  266.26   23.73   3
  -3 -11   0  229.79   34.89   2
   3  11   0  249.00   26.79   4
   5  11   0   30.14   10.06   4
  -5  11   0   40.39   12.12   4
  -5 -11   0   41.32   14.73   2
  -5 -11   0   46.16   10.34   5
   5 -11   0   63.48   17.74   2
   5  11   0   37.54   11.77   3
   7  11   0   81.67   18.71   3
  -7 -11   0  100.09   21.00   2
  -7 -11   0  115.58   16.54   5
  -7  11   0  104.56   20.68   4
   7 -11   0   98.62   21.15   2
  -9 -11   0   47.27   14.80   2
   9 -11   0   46.12   16.39   2
   9  11   0   55.45   16.49   3
  -9  11   0   48.99   14.96   4
  -9 -11   0   48.00   10.55   5
   0 -12   0 2934.48  119.21   2
   0  12   0 2742.56   99.94   3
   0 -12   0 2809.53  100.01   5
   0  12   0 2786.14  101.83   4
   2 -12   0  299.19   40.69   2
   2 -12   0  320.61   26.19   3
  -2 -12   0  253.23   36.29   2
  -2  12   0  295.55   30.41   4
   2  12   0  268.29   28.98   4
   2 -12   0  372.81   29.79   5
  -2 -12   0  271.05   26.12   5
   2  12   0  247.42   28.73   3
   4 -12   0 2005.38   97.13   2
  -4  12   0 1899.11   82.30   4
   4  12   0 2022.41   85.05   3
   4  12   0 1935.29   80.02   4
  -4 -12   0 1999.43   74.82   5
  -4 -12   0 1872.19   98.68   2
  -6  12   0  103.20   20.81   4
  -6 -12   0  129.38   17.96   5
  -6 -12   0  163.38   29.83   2
   6  12   0  141.14   24.47   3
   6 -12   0  130.85   25.86   2
  -8  12   0  910.18   55.95   4
  -8 -12   0  914.94   43.32   5
   8 -12   0  846.73   62.39   2
   8  12   0  853.82   57.57   3
  -8 -12   0  837.87   60.32   2
 -10 -12   0   97.09   23.77   2
  10  12   0  130.43   27.04   3
   1 -13   0  121.09   25.43   2
   1  13   0  177.70   24.81   4
   1  13   0  135.91   22.04   3
  -1  13   0  153.62   21.75   3
  -1 -13   0  168.69   29.00   2
  -1  13   0  161.69   23.45   4
  -1 -13   0  140.42   20.50   5
   1 -13   0  176.84   23.97   5
   3  13   0   58.42   14.99   3
   3 -13   0   59.18   18.22   2
  -3  13   0   71.05   15.94   4
  -3 -13   0   74.59   14.42   5
   3  13   0   83.23   17.17   4
  -3 -13   0   65.24   20.54   2
   5  13   0  170.56   27.70   3
   5 -13   0  161.64   31.70   2
  -5  13   0  170.73   26.22   4
  -5 -13   0  121.15   18.50   5
  -5 -13   0  192.39   34.72   2
   7 -13   0   55.32   19.07   2
  -7 -13   0   43.24   16.25   2
   7  13   0   51.38   14.82   3
  -7  13   0   67.05   17.82   4
  -7 -13   0   30.42    9.59   5
  -9 -13   0    0.93    9.80   2
   9 -13   0   21.61   12.27   2
   9  13   0   35.08   15.01   3
  -9 -13   0   30.17    9.62   5
  -9  13   0   44.16   13.88   4
   0  14   0  303.78   30.63   3
   0 -14   0  295.31   31.17   5
   0  14   0  266.28   31.37   4
   0 -14   0  298.31   39.44   2
   2 -14   0 1183.06   60.79   5
   2 -14   0 1185.28   74.47   2
   2  14   0 1037.62   58.33   3
   2  14   0 1080.59   58.33   4
  -2  14   0 1061.83   59.60   4
  -2 -14   0 1014.89   53.18   5
   2 -14   0 1220.25   58.41   3
  -2 -14   0 1053.35   67.25   2
  -4 -14   0  318.31   29.74   5
   4  14   0  386.41   39.25   3
   4  14   0  384.26   37.33   4
  -4 -14   0  318.55   44.36   2
   4 -14   0  361.73   47.28   2
  -4  14   0  322.59   36.20   4
  -6  14   0  924.50   59.31   4
   6  14   0  872.23   59.25   3
   6 -14   0  984.12   71.66   2
  -6 -14   0 1027.30   50.59   5
  -6 -14   0 1215.39   81.19   2
   8 -14   0  247.01   40.69   2
   8  14   0  342.07   42.81   3
  -8 -14   0  263.00   43.22   2
  -8  14   0  315.54   39.49   4
  -8 -14   0  326.37   25.91   5
   1 -15   0   81.80   22.76   2
   1  15   0   57.70   15.88   4
  -1 -15   0   55.82   18.46   2
   1  15   0   71.95   16.36   3
  -1  15   0   67.36   16.95   4
   1 -15   0   63.03   15.79   5
  -1 -15   0   85.30   16.67   5
  -3  15   0  109.50   20.60   4
   3  15   0  139.76   24.51   3
   3 -15   0  143.06   29.82   2
  -3 -15   0  118.42   25.08   2
   3  15   0  127.57   23.45   4
  -3 -15   0  123.42   20.05   5
  -5  15   0    6.04    7.65   4
  -5 -15   0   23.26   12.18   2
   5 -15   0    4.44   11.15   2
   5  15   0   40.90   14.28   3
  -5 -15   0   30.97    9.87   5
   7 -15   0   76.54   23.20   2
  -7 -15   0   65.62   21.52   2
   7  15   0   66.97   19.15   3
  -7 -15   0   53.22   13.42   5
  -7  15   0  100.18   22.99   4
   0 -16   0 1601.58   75.20   5
   0  16   0 1506.24   76.42   4
   0 -16   0 1478.90   83.76   2
   0  16   0 1472.82   72.96   3
   2 -16   0   70.67   21.96   2
  -2 -16   0   61.47   18.49   2
  -2 -16   0   80.28   16.71   5
   2  16   0   70.78   18.49   4
  -2  16   0  107.09   21.07   4
   2  16   0   56.86   15.82   3
  -4 -16   0 1210.87   77.45   2
   4  16   0 1213.45   67.48   4
   4  16   0 1161.62   69.31   3
   4 -16   0 1221.89   80.61   2
  -4  16   0 1180.74   69.18   4
  -4 -16   0 1138.52   59.20   5
  -6 -16   0   22.09   13.30   2
  -6 -16   0   35.96   10.98   5
   6 -16   0   25.26   11.95   2
  -6  16   0   44.16   14.52   4
   6  16   0   24.95   11.09   3
   1  17   0   28.42   12.15   4
   1 -17   0   20.80   10.66   5
   1 -17   0   23.02   12.31   3
  -1 -17   0   29.03   12.72   2
  -1  17   0   15.57   11.60   4
   1  17   0   20.61   10.37   3
   1 -17   0   26.05   13.48   2
  -1 -17   0   20.38    9.88   5
   3  17   0  -10.43    6.79   3
   3  17   0    4.70    8.78   4
  -3 -17   0    8.68    5.88   5
  -3 -17   0   10.29   10.76   2
  -3  17   0  -10.72    7.76   4
   3 -17   0    8.99    9.76   2
   5  17   0   43.13   13.71   3
  -5 -17   0   20.23    9.13   5
  -5  17   0   20.16   12.29   4
   5 -17   0   -0.82   11.43   2
  -5 -17   0   18.47   13.81   2
   0 -18   0  121.98   27.71   2
   0  18   0  135.59   26.98   4
   0 -18   0   99.31   21.16   5
   0 -18   0   98.19   21.76   3
   2  18   0  383.03   44.93   4
   2 -18   0  456.11   53.39   2
   2  18   0  407.00   44.26   3
  -2  18   0  398.96   45.80   4
  -2 -18   0  395.30   47.69   2
  -2 -18   0  410.54   40.01   5
  -4 -18   0  137.98   22.54   5
   4  18   0   87.50   21.40   3
  -4  18   0  127.32   26.54   4
   4 -18   0  156.72   32.06   2
  -4 -18   0  119.55   27.55   2
  -1 -19   0    9.62    8.56   2
   1  19   0   17.07   13.21   4
  -1  19   0  -10.75    9.33   4
  -1 -19   0   13.73   10.36   5
   1 -19   0   12.92   11.25   2
  -1   0   1   -1.90    1.15   5
   1   0   1   -3.62    1.60   1
   1   0  -1    2.52    1.77   3
   1   0   1    0.14    1.38   2
  -1   0   1    2.33    1.16   4
  -1   0  -1    0.29    0.90   5
  -1   0   1   -1.46    1.72   1
   1   0  -1   -2.18    1.21   2
   1   0   1   -0.17    1.17   3
   3   0   1   30.96    5.51   2
   3   0   1   37.74    7.21   1
  -3   0  -1   31.64    5.27   4
   3   0   1   31.35    4.57   3
  -3   0   1   37.00    4.66   4
  -3   0  -1   32.53    3.36   5
  -3   0   1   34.71    4.84   5
   3   0  -1   26.28    5.28   2
  -3   0   1   30.30    6.87   1
   3   0  -1   33.08    5.42   3
   5   0  -1    6.33    3.37   3
   5   0  -1    7.05    3.79   2
  -5   0  -1    4.89    2.31   5
   5   0   1    5.50    2.88   3
   5   0   1    1.41    3.09   1
  -5   0  -1    7.32    3.66   4
  -5   0   1    9.90    3.50   4
   5   0   1    5.56    3.24   2
  -5   0   1    4.64    3.03   5
  -5   0   1    4.76    2.98   5
  -5   0   1    3.66    4.04   1
  -7   0  -1    6.38    5.69   1
  -7   0   1    6.80    4.92   4
  -7   0   1    9.35    3.65   5
   7   0  -1    8.04    4.69   3
   7   0  -1   10.85    5.28   2
   7   0   1    9.63    3.69   3
  -7   0  -1    9.04    4.67   4
  -7   0  -1    5.36    3.26   5
   7   0   1    8.90    4.83   2
  -7   0   1    5.05    5.56   1
  -9   0  -1    6.31    6.46   1
  -9   0   1    6.56    4.30   5
   9   0  -1    5.13    5.07   2
  -9   0   1   11.28    6.91   1
  -9   0  -1    3.13    3.61   5
   9   0   1    2.14    4.97   2
 -11   0  -1    1.98    4.39   5
  11   0  -1   -2.61    6.04   2
 -11   0  -1    8.43    7.48   1
 -11   0   1    2.49    7.34   1
  11   0   1   10.50    7.80   2
 -11   0   1    6.00    5.37   5
   0  -1  -1   25.67    2.87   3
   0  -1   1   25.98    4.77   1
   0  -1   1   27.84    3.86   5
   0  -1  -1   21.67    2.82   2
   0  -1   1   29.05    5.82   2
   0  -1  -1   21.88    2.15   5
   0   1  -1   35.64    2.75   4
   0   1  -1   31.10    2.83   3
   0   1   1   27.19    4.59   1
   0   1   1   28.92    3.00   4
   2  -1   1  198.57   12.32   1
  -2   1  -1  198.28   10.53   4
  -2  -1   1  184.86    8.28   5
   2  -1  -1  200.35   10.61   2
   2  -1   1  195.71   10.54   2
   2  -1  -1  203.99    9.30   3
   2   1   1  196.55    9.94   2
   2   1   1  212.12   10.50   3
  -2   1   1  213.09    9.97   4
  -2  -1   1  203.53   11.76   1
  -2   1   1  189.03   11.82   1
   2   1  -1  190.37   10.51   2
   2  -1   1  211.82    6.86   3
   2   1   1  205.99    9.75   4
   2   1   1  210.29   11.87   1
  -2   1  -1  200.91    9.17   5
   2   1  -1  207.63   11.16   3
   4  -1   1   10.37    3.74   2
  -4  -1   1    7.47    2.54   4
  -4   1   1   -0.58    2.26   1
  -4   1   1    0.48    1.84   5
  -4  -1   1    3.42    2.03   5
  -4   1   1    4.60    2.77   4
   4  -1  -1    3.43    2.85   2
  -4  -1  -1    3.63    2.82   4
  -4   1  -1    4.99    2.24   5
   4   1  -1    1.87    2.14   3
  -4   1  -1    6.65    3.28   4
   4   1   1   10.48    3.67   2
   4   1   1    7.19    2.73   3
   4  -1   1   16.72    3.30   3
   4   1  -1    2.22    2.50   2
  -4  -1   1    6.60    4.05   1
   4  -1  -1    4.20    2.42   3
   4   1   1    7.83    3.83   1
   4  -1   1    3.57    3.95   1
  -6   1   1   13.74    4.94   4
   6   1   1    9.60    4.29   2
  -6  -1  -1   12.60    4.51   4
   6  -1   1   12.58    5.48   2
  -6   1  -1    6.47    4.45   4
  -6  -1   1   10.42    3.71   5
   6  -1  -1    2.11    2.62   3
  -6   1   1    5.79    3.15   5
   6  -1   1   11.31    5.73   1
   6   1  -1    9.66    4.39   2
  -6  -1  -1   12.16    3.59   5
   6  -1   1   13.63    3.77   3
   6   1   1   10.05    4.14   3
  -6  -1   1   42.23   10.40   1
   6  -1  -1    3.93    3.77   2
  -6  -1   1   18.25    5.18   4
  -6   1   1   10.34    5.80   1
   6   1  -1    9.03    4.65   3
  -8   1   1   25.99    7.24   5
   8  -1   1   19.04    7.85   2
   8   1  -1   17.57    6.78   3
   8  -1  -1   12.70    6.48   2
   8   1   1   28.05    9.01   2
  -8  -1   1   11.45    7.46   1
  -8  -1   1   13.86    4.88   5
  -8   1  -1   39.10   10.30   4
  -8  -1  -1   26.76    9.73   1
  -8   1  -1   24.06    6.56   5
   8   1  -1   23.12    7.85   2
  -8  -1  -1   28.60    6.15   5
  -8   1   1   27.09   10.30   1
  -8   1  -1   27.05   10.62   1
  10   1  -1    0.87    5.27   2
  10  -1  -1    5.47    6.48   2
 -10  -1  -1   12.38    5.09   5
 -10  -1   1   36.62   10.11   5
 -10   1   1    5.61    4.26   5
 -10  -1   1   -3.32    5.83   1
 -10  -1  -1   -0.63    6.01   1
  10  -1   1   -2.21    5.04   2
 -10   1   1   -2.30    7.35   1
  10   1   1    0.99    4.14   2
 -10   1  -1    5.96    8.37   1
 -10   1  -1    9.00    5.60   5
 -12   1   1   17.71    9.99   1
 -12   1  -1    2.40    6.11   5
 -12  -1  -1   -3.35    6.82   1
  12   1   1    3.76    9.25   2
 -12   1  -1    0.97    7.71   1
 -12   1   1    2.03    5.90   5
  12  -1  -1    6.08    9.41   2
  12   1  -1   -8.42    7.86   2
  12  -1   1    6.60    9.59   2
 -12  -1   1   -4.60    7.23   1
 -12  -1  -1   -8.17    3.69   5
 -12  -1   1   -2.27    4.49   5
  -1  -2   1   16.03    3.37   1
   1  -2  -1   14.95    3.17   5
  -1   2   1    9.41    2.63   5
   1  -2   1   11.47    3.25   1
   1   2  -1   13.65    3.43   3
  -1  -2   1   17.50    3.27   5
   1   2   1    8.71    2.63   4
   1  -2  -1   14.02    2.93   3
   1  -2   1   13.97    3.76   2
   1  -2  -1   10.68    3.05   2
  -1   2  -1   11.45    3.46   4
  -1   2   1   12.32    3.45   4
  -1   2  -1   12.11    2.23   3
   1   2  -1   11.60    2.50   4
  -1   2   1   13.11    3.17   1
  -1  -2   1   13.22    3.98   2
   1   2   1   13.36    2.74   1
   1  -2   1   19.55    3.95   5
   1   2   1    9.18    2.92   3
  -3  -2   1  103.29   10.80   1
  -3   2   1  111.45    8.86   4
   3  -2  -1  107.90    7.06   3
  -3   2   1   89.71    8.90   5
  -3  -2   1   97.02    6.24   5
   3  -2  -1   98.83   10.12   2
   3   2   1   94.76    9.21   2
   3   2   1   93.96    7.35   4
  -3   2  -1   94.62    9.83   4
   3   2  -1  110.30    5.97   4
   3   2  -1   98.41    9.85   2
   3  -2   1  106.58   11.54   1
   3   2  -1   88.65    9.73   3
   3   2   1   94.53   10.11   1
  -3   2   1   99.19   11.08   1
   3   2   1  105.55    8.81   3
   3  -2   1  107.97   10.51   2
  -5   2   1    4.55    2.96   5
  -5  -2   1    2.18    2.04   5
   5   2   1    2.44    2.25   3
  -5   2  -1   -0.56    2.19   5
   5  -2   1   -2.70    1.33   2
   5   2   1    1.08    2.40   2
   5   2  -1   -0.72    1.81   2
  -5   2   1    1.96    2.79   1
   5  -2  -1    3.00    2.64   3
  -5   2  -1    6.91    3.93   4
   5   2   1   -0.90    3.15   1
   5  -2   1    0.02    3.60   1
   5  -2  -1    3.12    3.51   2
  -5  -2   1    1.35    3.13   1
   5  -2   1    3.30    2.08   3
   5   2  -1    0.54    2.26   3
  -5   2   1   -2.60    2.57   4
  -5  -2   1   -0.60    1.93   4
  -5  -2  -1    1.70    2.63   4
   7   2   1   23.33    6.97   3
  -7  -2  -1   18.06    5.96   4
  -7  -2  -1   21.73    4.59   5
  -7   2  -1   21.22    7.63   1
  -7   2   1   34.89    8.27   5
  -7   2   1   18.72    8.23   1
   7   2  -1   31.81    8.18   3
  -7  -2   1   48.67   12.08   1
  -7  -2  -1   19.96    7.88   1
   7  -2  -1   28.27    8.23   2
  -7   2  -1   19.90    7.45   4
  -7   2   1   30.32    8.03   4
   7   2  -1   21.98    7.13   2
   7   2   1   10.00    6.29   2
  -7   2  -1   28.24    7.77   5
  -7  -2   1   23.22    5.38   5
  -9  -2   1   18.94    9.15   1
  -9   2   1    2.30    6.50   1
  -9   2  -1    5.65    4.51   5
   9   2   1    2.64    5.78   2
  -9  -2   1    8.82    4.31   5
   9  -2   1    9.64    6.52   2
  -9   2  -1   15.19    8.97   1
  -9  -2  -1    7.11    3.69   5
  -9  -2  -1   -1.54    5.93   1
  -9   2   1    2.79    4.26   5
   9  -2  -1   14.87    7.93   2
   9   2  -1   15.31    6.96   2
 -11  -2  -1   -0.11    3.55   5
 -11  -2   1   -4.03    6.07   1
  11   2  -1   -0.75    6.80   2
 -11   2   1    0.22    5.42   5
 -11   2   1    2.42    6.84   1
 -11   2  -1   -3.48    7.15   1
  11   2   1    3.30    6.18   2
 -11   2  -1   -2.11    5.29   5
  11  -2  -1    8.95    7.87   2
 -11  -2  -1    7.51    7.54   1
  11  -2   1    8.54    7.63   2
 -11  -2   1   -1.52    3.44   5
   0   3   1  429.79   17.48   3
   0  -3   1  386.66   26.21   2
   0   3  -1  399.74   16.76   3
   0   3   1  380.48   16.42   1
   0   3   1  417.09   17.66   4
   0  -3   1  397.74   15.10   1
   0  -3  -1  385.27   22.61   2
   0  -3  -1  399.95   16.08   5
   0  -3   1  404.43   18.96   5
   2  -3  -1 1526.47   49.30   2
   2   3  -1 1570.20   44.85   4
   2  -3  -1 1606.44   45.66   3
  -2   3   1 1648.23   49.74   4
   2   3   1 1570.58   50.22   3
  -2  -3   1 1546.75   44.42   5
   2  -3   1 1612.32   50.75   1
   2   3   1 1533.67   47.77   1
  -2   3   1 1535.23   50.29   1
  -2   3   1 1560.91   48.57   5
  -2   3  -1 1603.52   50.44   4
  -2  -3   1 1554.59   48.60   1
   2   3  -1 1535.51   50.56   3
   2  -3  -1 1585.83   48.22   5
   2   3   1 1594.75   47.01   4
   2  -3   1 1566.94   42.16   3
   2  -3   1 1525.44   48.50   5
   2   3   1 1503.02   48.61   2
   4   3   1  404.76   22.62   1
  -4   3   1  408.75   21.80   4
  -4   3   1  390.68   23.87   1
  -4  -3   1  405.50   16.12   5
   4   3   1  428.90   22.03   2
   4  -3  -1  402.81   22.34   2
  -4  -3   1  452.79   24.02   1
   4  -3  -1  424.19   17.32   3
   4  -3   1  404.80   22.46   2
   4   3   1  420.00   19.03   4
   4   3  -1  414.94   22.80   2
   4   3   1  436.04   22.55   3
   4  -3   1  402.20   24.38   1
  -4   3   1  418.87   21.46   5
   4   3  -1  395.83   22.51   3
   4   3  -1  423.48   16.30   4
  -4   3  -1  408.51   22.69   4
  -6   3   1  434.33   24.22   4
   6  -3  -1  409.35   26.16   2
  -6  -3   1  363.15   17.86   5
  -6  -3   1  376.90   26.84   1
   6   3   1  381.85   23.71   3
  -6  -3   1  392.83   18.07   4
   6  -3  -1  417.95   19.71   3
  -6  -3  -1  415.68   15.85   5
   6   3  -1  361.08   24.29   2
  -6   3   1  410.82   29.26   1
  -6  -3  -1  397.04   20.54   4
   6   3   1  370.29   23.09   2
  -6  -3  -1  445.97   28.46   1
   6   3  -1  366.44   24.47   3
  -6   3   1  397.07   23.71   5
  -6   3  -1  417.48   25.49   4
   6  -3   1  393.32   25.28   2
  -8   3   1  222.51   21.87   5
   8  -3  -1  256.87   26.16   2
   8   3   1  242.82   24.47   2
  -8   3  -1  221.57   28.43   1
  -8  -3  -1  275.91   29.40   1
   8   3  -1  254.38   24.23   3
  -8   3  -1  284.92   21.95   5
  -8  -3   1  284.67   17.61   5
  -8  -3  -1  242.39   14.66   5
  -8  -3   1  310.44   30.81   1
   8   3   1  254.05   20.21   3
  -8   3   1  251.79   30.44   1
   8   3  -1  226.33   25.07   2
  -8   3  -1  284.65   23.11   4
   8  -3   1  252.33   25.89   2
 -10   3   1  128.12   24.71   1
 -10  -3   1  147.88   25.58   1
 -10   3   1  107.35   18.24   5
  10   3   1  110.42   19.28   2
 -10  -3   1  104.81   14.03   5
 -10   3  -1   74.81   14.68   5
  10  -3   1   98.04   19.04   2
  10   3  -1  103.35   19.16   2
 -10  -3  -1  105.74   13.06   5
 -10  -3  -1  123.66   23.20   1
  10  -3  -1   93.94   19.29   2
 -10   3  -1  141.32   26.22   1
  12  -3  -1   44.28   16.01   2
  12   3  -1   62.63   19.89   2
 -12   3  -1   45.57   13.55   5
 -12   3   1   57.68   18.72   1
  12   3   1   30.05   14.18   2
  12  -3   1   81.64   20.23   2
 -12  -3   1   64.76   12.48   5
 -12   3  -1   40.77   17.01   1
 -12  -3  -1   30.63   15.26   1
 -12  -3  -1   54.03   11.11   5
 -12   3   1   52.58   15.25   5
 -12  -3   1   39.78   15.07   1
  -1  -4  -1  182.82    9.15   5
   1  -4   1  178.14   17.56   2
   1   4  -1  173.96   11.08   4
  -1  -4  -1  183.54   17.33   2
   1  -4  -1  186.08   11.94   5
  -1   4   1  169.04    9.34   1
  -1  -4  -1  166.30   10.29   5
  -1  -4   1  189.72    9.92   1
   1   4   1  191.81   12.82   3
   1  -4  -1  186.83   14.38   2
  -1   4  -1  188.97   10.56   3
   1   4  -1  176.35   12.43   3
  -1   4  -1  166.73   12.28   4
  -1   4   1  174.32   11.19   5
   1  -4   1  170.26   12.42   5
  -1  -4   1  178.42   17.89   2
   1  -4   1  187.94   10.22   1
   1   4   1  175.96    7.41   1
   1   4   1  159.28   11.34   4
  -1   4   1  167.08   12.24   4
  -1  -4   1  156.28   11.50   5
   1  -4  -1  168.76   10.91   3
   3   4  -1   20.09    4.00   4
  -3  -4   1   18.34    4.79   1
   3   4  -1   17.39    5.28   2
   3  -4  -1   23.50    4.48   3
  -3   4   1   22.02    5.74   1
   3  -4   1   25.63    6.63   2
   3   4   1   22.21    5.74   3
   3  -4  -1   36.54    6.74   5
  -3   4   1   20.07    5.14   5
   3   4   1   27.77    5.34   4
  -3   4  -1   21.41    6.09   4
   3  -4  -1   19.24    5.74   2
   3   4   1   25.62    5.35   1
  -3   4   1   27.93    6.67   4
   3  -4   1   20.34    2.91   3
   3   4  -1   20.41    5.64   3
  -3  -4   1   29.31    4.67   5
   3   4   1   26.00    6.10   2
   3  -4   1   33.24    6.34   5
   3  -4   1   31.25    6.99   1
  -5  -4   1  142.51   15.96   1
   5   4  -1  151.38    9.81   4
  -5   4   1  163.33   16.62   4
   5   4   1  121.49   15.05   3
  -5  -4  -1  130.03   15.35   1
   5  -4   1  156.48   18.67   1
   5  -4   1  133.71   16.41   2
   5   4   1  134.40   12.30   4
   5   4  -1  146.44   16.73   2
   5   4  -1  115.08   15.54   3
   5   4   1  123.57   15.00   2
  -5   4  -1  120.20   15.31   4
  -5   4   1  126.24   15.08   5
  -5   4   1  110.60   15.90   1
   5  -4  -1  111.46   15.05   2
  -5  -4   1  146.48    9.23   5
   5  -4  -1  132.61    9.16   3
   7   4   1   17.38    7.08   2
  -7  -4  -1   17.53    3.79   5
   7  -4   1   13.67    6.57   2
  -7   4   1   11.74    5.32   5
  -7   4   1   18.59    7.92   4
  -7  -4  -1   19.48    6.35   4
  -7   4   1   11.62    6.92   1
   7   4   1   21.55    7.42   3
  -7   4  -1   16.74    7.28   1
   7   4  -1    3.90    4.58   2
  -7   4  -1   20.06    7.79   4
  -7   4  -1   19.73    6.80   5
  -7  -4   1   13.17    6.38   1
  -7  -4  -1   14.73    7.20   1
   7  -4  -1   40.61   10.29   2
   7   4  -1   10.26    5.94   3
  -7  -4   1   18.96    4.79   5
  -9  -4  -1   15.07    4.43   5
   9   4   1    8.23    6.64   2
  -9  -4   1   13.22    8.08   1
   9  -4  -1   16.46    8.02   2
  -9  -4   1   21.01    5.95   5
  -9   4  -1   27.66   11.06   1
   9  -4   1   10.20    6.69   2
  -9  -4  -1   15.79    9.36   1
   9   4  -1   10.59    6.50   2
   9   4  -1   17.50    7.88   3
  -9   4  -1   16.33    7.60   4
  -9   4   1   17.26    7.81   1
  -9   4  -1   20.21    8.81   5
  -9   4   1   30.65    9.16   5
 -11   4   1   23.78   11.99   1
 -11  -4  -1   30.89    7.62   5
 -11  -4  -1   18.27   10.31   1
 -11  -4   1   28.44    7.96   5
  11   4  -1   21.61   11.77   2
 -11   4  -1   32.31   13.59   1
  11   4   1   32.08   12.74   2
 -11  -4   1   26.72   12.67   1
  11  -4   1   22.23   11.49   2
 -11   4   1   23.86    9.52   5
  11  -4  -1   27.29   12.06   2
 -11   4  -1   25.84    9.64   5
   0  -5   1   69.44    4.87   1
   0   5  -1   75.93    9.47   3
   0   5   1   62.79    9.31   4
   0  -5  -1   52.82    7.76   5
   0  -5   1   70.95   10.14   5
   0   5  -1   60.92    9.19   4
   0   5   1   59.50    8.85   3
   0  -5   1   61.03   14.95   2
   0  -5  -1   81.72   15.62   2
  -2   5  -1   99.47   12.57   4
  -2  -5  -1   89.95   13.36   2
   2  -5   1   83.55    9.13   1
  -2  -5  -1  104.51    6.89   5
   2   5  -1   94.01   12.31   3
  -2  -5   1  105.68    8.12   1
   2  -5   1  103.77   12.16   5
   2   5  -1   98.22   10.13   4
   2   5   1  106.79    6.88   1
   2  -5  -1   86.90   10.51   5
  -2  -5  -1   89.89    8.54   5
   2   5   1   93.21   10.61   4
  -2   5   1   91.56   10.68   5
  -2  -5   1   85.74   13.00   2
   2  -5  -1  106.49    8.81   3
  -2   5   1  106.21   12.75   4
   2   5   1   98.04   12.14   3
  -2   5   1   97.84    8.56   1
  -2   5  -1  106.07    8.05   3
  -2  -5   1   91.07    9.79   5
   2  -5  -1   96.99   12.93   2
   2  -5   1  105.65   14.79   2
   4   5  -1    8.37    5.07   3
  -4  -5  -1    9.12    4.43   1
  -4  -5   1   16.86    5.57   1
  -4   5   1   12.04    4.97   1
   4   5   1   12.24    3.95   4
   4  -5  -1   10.23    5.09   2
  -4   5   1   11.72    5.64   4
   4  -5   1   15.32    5.14   5
   4  -5   1    9.08    4.50   2
  -4   5   1   16.25    5.81   5
   4   5   1    9.27    4.67   3
  -4   5  -1   12.82    5.91   4
   4  -5   1   12.36    2.42   3
   4   5  -1    9.65    4.14   2
   4  -5  -1    9.34    3.38   3
   4  -5  -1    8.89    4.26   5
   4  -5   1   10.20    5.06   1
   4   5   1   11.48    4.69   2
  -4  -5   1   11.77    3.70   5
   4   5  -1   12.58    3.71   4
  -4  -5  -1   10.57    2.17   5
  -6  -5   1   91.43    9.34   5
  -6   5  -1  105.83   16.31   4
  -6  -5   1   94.89   14.91   1
   6   5   1   92.07   14.38   2
   6  -5   1   87.02   14.83   2
  -6   5  -1  100.41   15.03   5
  -6  -5  -1  103.09   15.15   1
   6   5  -1   89.64   14.61   2
  -6   5  -1   92.03   16.31   1
  -6   5   1   96.97   14.34   4
   6   5   1  101.25   15.69   3
   6   5  -1   81.16    9.10   4
  -6   5   1   81.37   13.23   5
   6  -5  -1   99.69   15.57   2
   6   5  -1   93.42   15.12   3
   6   5   1   86.93   11.54   4
  -6  -5  -1   85.81    6.07   5
  -6   5   1   89.51   16.00   1
  -8   5  -1    7.01    5.35   5
   8   5  -1    1.87    4.88   2
  -8   5   1   -1.54    4.78   1
  -8   5  -1    0.06    4.61   1
   8   5   1    3.33    5.21   3
   8   5  -1    8.67    5.39   3
  -8  -5  -1    6.23    5.94   1
   8  -5  -1    1.77    4.82   2
  -8  -5   1    0.34    2.47   5
  -8  -5  -1   -3.13    1.89   5
  -8   5   1    1.81    5.06   4
  -8   5   1    1.71    4.62   5
   8  -5   1   -1.66    3.94   2
  -8   5  -1   -0.79    4.63   4
   8   5   1   -2.53    3.81   2
  -8  -5   1   -0.22    4.82   1
 -10   5  -1   20.16   10.79   1
  10   5  -1   38.57   12.64   2
 -10   5   1   14.27    8.38   5
 -10  -5   1   33.24    7.71   5
 -10   5   1   25.15   12.39   1
 -10  -5   1   27.49   11.74   1
 -10   5  -1   20.11    9.31   5
  10  -5  -1   26.35   10.90   2
  10   5   1   33.33   11.35   2
  10  -5   1   56.89   15.49   2
 -10  -5  -1   36.41    7.38   5
 -10  -5  -1   41.55   13.13   1
  12  -5  -1    4.61   11.40   2
  12   5  -1   -6.79    8.28   2
 -12   5  -1   -0.92    7.80   5
  12  -5   1    4.68   11.04   2
 -12  -5  -1    6.42    4.50   5
  12   5   1    0.42   10.07   2
 -12  -5   1    0.71    4.53   5
 -12   5   1    0.38    9.33   1
 -12  -5  -1   -4.17    8.51   1
 -12   5   1   -6.68    7.98   5
 -12  -5   1   -3.48    8.12   1
 -12   5  -1   10.08   10.61   1
  -1  -6   1  355.31   33.25   2
  -1   6   1  320.27   20.72   4
  -1  -6  -1  324.11   30.63   2
  -1   6   1  344.95   19.23   3
   1  -6   1  317.55   30.17   2
  -1  -6  -1  347.76   18.87   5
   1  -6  -1  303.32   19.04   5
   1  -6   1  358.86   15.24   1
   1  -6  -1  359.42   25.86   2
  -1   6   1  364.88   15.20   1
  -1  -6   1  312.87   19.94   5
   1   6  -1  326.55   19.26   4
  -1  -6   1  348.93   14.27   1
  -1   6  -1  364.16   19.08   3
   1  -6   1  361.08   21.71   5
   1   6  -1  342.89   20.60   3
   1   6   1  355.41   21.56   3
   1   6   1  315.59   19.75   4
  -1   6   1  382.10   19.40   5
  -1   6  -1  298.68   19.95   4
   3  -6   1  442.83   29.22   2
  -3  -6  -1  487.09   20.85   1
  -3  -6   1  476.19   29.54   2
   3  -6   1  506.53   20.36   3
  -3  -6  -1  474.54   28.77   2
   3  -6  -1  461.05   21.87   3
   3  -6  -1  446.15   24.38   5
   3   6   1  440.39   23.67   4
  -3   6  -1  461.69   27.45   4
   3   6  -1  492.73   23.96   4
  -3   6   1  448.15   23.99   1
   3   6   1  468.89   26.90   3
  -3  -6  -1  446.28   20.08   5
   3  -6   1  496.49   26.77   5
  -3  -6   1  488.33   22.07   1
   3  -6  -1  481.32   27.49   2
  -3   6   1  420.17   25.83   4
   3   6  -1  488.70   27.87   3
   3  -6   1  466.90   24.37   1
  -3  -6   1  479.09   22.36   5
   5  -6  -1  137.70    9.83   3
  -5   6   1  124.22   16.97   1
   5   6  -1  155.77   11.71   4
   5   6  -1  141.65   18.69   2
   5   6   1  121.14   13.18   4
  -5  -6  -1  134.47    8.08   5
  -5   6  -1  146.26   18.67   4
  -5  -6  -1  152.10   15.78   1
   5  -6  -1  136.95   17.87   2
  -5  -6   1  140.72   10.68   5
   5   6   1  134.66   17.57   3
   5   6  -1  142.06   18.80   3
  -5  -6   1  141.82   15.39   1
  -5   6   1  125.00   17.08   4
   5  -6   1  126.70   17.75   2
  -5   6   1  113.67   16.03   5
   5   6   1  142.72   17.89   2
  -7   6   1  186.71   21.54   5
  -7   6   1  139.68   19.69   4
   7   6   1  158.92   20.92   3
  -7  -6  -1  160.18    9.73   5
  -7  -6   1  200.82   22.67   1
  -7   6  -1  139.89   20.04   4
  -7   6  -1  167.40   21.01   5
   7   6  -1  156.63   21.59   2
   7  -6  -1  152.11   21.49   2
   7   6  -1  137.81   20.41   3
  -7  -6   1  161.91   11.95   5
  -7   6  -1  177.49   24.07   1
  -7   6   1  141.75   21.94   1
   7  -6   1  183.91   23.23   2
   7   6   1  168.77   16.12   4
   7   6   1  169.43   21.80   2
  -7  -6  -1  137.50   19.44   1
  -9  -6  -1   85.23    9.39   5
  -9  -6   1   93.95   12.10   5
   9   6   1   89.12   17.13   3
   9   6  -1   82.05   17.51   2
  -9   6   1   87.89   16.91   5
   9   6   1   62.51   15.43   2
   9   6  -1   86.06   17.59   3
  -9   6  -1   91.36   17.24   5
  -9   6  -1  123.29   20.46   4
   9  -6  -1   66.36   15.60   2
  -9  -6  -1   74.66   16.71   1
   9  -6   1   70.44   16.19   2
  -9   6  -1   69.73   17.81   1
  -9   6   1   98.77   20.81   1
  -9  -6   1  101.28   19.14   1
 -11   6  -1   28.30   12.93   1
 -11  -6  -1   32.46    7.27   5
 -11  -6   1   26.76   12.24   1
  11  -6   1   13.22    9.67   2
  11  -6  -1   30.34   12.18   2
 -11  -6  -1   31.28   12.83   1
 -11   6   1    5.69   10.48   1
  11   6  -1   11.93    9.80   2
 -11   6   1   36.07   12.55   5
 -11   6  -1   31.89   12.35   5
  11   6   1   13.97    9.42   2
 -11  -6   1   22.99    6.72   5
   0  -7  -1  370.23   30.76   2
   0  -7   1  380.84   23.45   5
   0  -7   1  360.46   36.87   2
   0   7   1  367.15   22.85   4
   0   7  -1  349.67   22.42   4
   0   7  -1  413.52   22.91   3
   0  -7  -1  425.02   22.88   5
   0   7   1  394.89   23.42   3
  -2  -7  -1  623.27   28.88   5
  -2   7   1  664.52   27.31   1
  -2  -7  -1  672.57   21.58   1
   2   7   1  660.15   32.15   4
  -2   7   1  667.99   31.43   5
  -2  -7   1  687.88   25.81   1
  -2   7  -1  614.27   33.01   4
   2  -7  -1  692.29   38.24   2
  -2  -7   1  593.70   29.87   5
   2   7   1  675.02   34.16   3
   2  -7   1  627.30   26.68   1
   2  -7  -1  646.05   32.17   5
  -2  -7   1  611.47   39.10   2
   2  -7   1  678.57   41.78   2
   2   7  -1  677.53   31.25   4
  -2   7  -1  660.82   28.07   3
  -2  -7  -1  705.66   41.55   2
  -2   7   1  671.51   33.75   4
   2  -7   1  668.44   33.79   5
   2   7  -1  656.04   33.21   3
   2  -7  -1  641.15   29.51   3
   4  -7  -1  344.38   25.57   2
  -4  -7  -1  402.05   28.62   2
   4  -7  -1  426.51   21.66   3
   4  -7   1  375.80   24.61   5
  -4   7   1  368.30   24.74   5
  -4  -7   1  391.51   29.00   2
   4   7   1  378.90   26.24   3
   4  -7   1  404.76   18.70   3
   4   7  -1  372.86   21.83   4
   4   7  -1  360.32   26.02   3
  -4  -7   1  377.05   20.36   5
  -4  -7  -1  400.73   20.92   1
  -4   7   1  369.71   26.06   4
  -4  -7  -1  403.78   19.11   5
  -4   7  -1  360.23   26.72   4
  -4  -7   1  369.14   21.03   1
   4  -7  -1  416.31   25.61   5
   4   7   1  376.65   23.13   4
  -4   7   1  393.02   24.38   1
   4  -7   1  390.40   28.91   2
  -6  -7   1  187.81   13.45   5
  -6   7   1  194.75   22.98   1
   6   7   1  203.27   23.42   2
   6  -7   1  180.38   23.71   2
  -6  -7  -1  182.00   11.12   5
   6  -7  -1  220.41   24.67   2
   6   7  -1  168.20   22.47   2
  -6   7   1  212.22   22.53   5
  -6  -7   1  220.81   20.53   1
  -6   7  -1  168.09   21.99   4
   6   7  -1  174.16   22.36   3
  -6   7   1  221.14   23.75   4
  -6   7  -1  190.96   22.42   1
  -6   7  -1  185.18   21.83   5
   6   7   1  163.01   21.54   3
  -6  -7  -1  211.82   20.16   1
   8  -7  -1  208.78   27.50   2
  -8  -7  -1  231.23   25.83   1
   8  -7   1  224.42   28.60   2
   8   7   1  226.91   26.73   3
  -8   7  -1  189.10   25.96   4
   8   7  -1  219.84   28.16   2
  -8   7   1  166.11   22.90   5
  -8   7   1  221.18   26.05   4
   8   7  -1  223.36   27.63   3
  -8  -7   1  240.97   15.90   5
   8   7   1  199.19   26.24   2
  -8   7   1  220.26   28.97   1
  -8   7  -1  262.13   31.40   1
  -8  -7  -1  205.56   12.99   5
  -8   7  -1  236.47   26.26   5
  -8  -7   1  195.07   24.25   1
 -10  -7   1   66.52   11.11   5
 -10  -7  -1   52.39   15.56   1
 -10   7  -1   31.52   10.68   5
  10   7  -1   49.19   14.10   3
 -10  -7   1   69.88   16.76   1
 -10   7   1   46.46   13.31   5
 -10   7  -1   70.36   18.28   1
 -10  -7  -1   69.00    9.44   5
  10   7  -1   56.24   15.60   2
  10  -7  -1   70.90   17.61   2
  10   7   1   48.91   14.91   2
 -10   7   1   94.15   23.13   1
  10  -7   1   42.65   14.73   2
   1  -8  -1  343.96   22.73   5
   1   8  -1  332.35   23.11   3
  -1  -8   1  333.32   36.52   2
   1   8  -1  330.45   22.31   4
  -1   8  -1  341.06   21.38   3
   1  -8   1  331.73   23.39   5
  -1   8   1  346.22   14.66   1
  -1   8   1  349.31   20.39   5
   1   8   1  369.87   24.54   3
   1  -8  -1  376.70   30.91   2
  -1  -8  -1  321.22   35.01   2
  -1  -8  -1  290.45   19.88   5
  -1   8   1  287.47   21.72   4
  -1   8  -1  356.06   24.13   4
  -1  -8   1  320.95   22.15   5
   1   8   1  287.70   21.46   4
   1  -8   1  305.78   35.16   2
  -1   8   1  352.75   22.35   3
   3  -8   1  135.26   13.51   3
  -3  -8   1  156.06   16.47   5
   3   8  -1  146.37   16.85   4
  -3  -8  -1  181.46   24.60   2
  -3  -8   1  119.52   20.62   2
  -3  -8   1  159.28   11.55   1
   3  -8  -1  150.70   21.63   2
   3   8   1  142.64   16.94   4
  -3   8  -1  143.78   19.00   4
  -3   8   1  134.97   17.70   4
  -3   8   1  129.50   13.60   1
   3   8   1  118.72   17.29   3
   3  -8  -1  157.75   15.22   3
   3  -8  -1  145.73   17.82   5
  -3   8   1  145.41   17.09   5
   3  -8   1  141.45   22.48   2
   3  -8   1  165.37   19.19   5
  -3  -8  -1  126.57   13.81   5
  -3  -8  -1  134.67    9.10   1
   3   8  -1  155.68   19.46   3
  -5   8   1  238.57   23.63   5
  -5  -8   1  285.01   19.44   1
  -5  -8  -1  275.94   28.67   2
   5   8   1  269.52   26.38   3
  -5  -8  -1  277.95   18.43   1
   5   8   1  239.92   19.46   4
  -5   8  -1  273.99   26.66   4
  -5  -8  -1  248.15   15.62   5
  -5   8   1  310.87   23.11   1
  -5  -8   1  254.68   17.42   5
   5  -8   1  229.31   27.56   2
  -5   8  -1  292.50   22.31   1
  -5   8   1  269.02   26.58   4
   5   8  -1  269.89   19.04   4
  -5   8  -1  240.84   23.90   5
   5   8  -1  276.86   27.11   3
   5  -8  -1  261.44   27.35   2
  -5  -8   1  240.72   28.22   2
   7   8   1   71.66   15.41   3
   7  -8   1   70.24   16.29   2
  -7  -8  -1   87.00   17.10   2
  -7  -8   1   71.16   10.33   5
   7  -8  -1  109.40   19.64   2
  -7   8   1  105.43   18.40   4
  -7  -8   1   97.05   15.60   1
   7   8  -1   96.67   19.04   3
  -7  -8  -1   88.80    9.60   5
  -7   8   1   79.01   16.07   1
  -7   8  -1  121.17   19.49   4
  -7  -8   1   56.13   14.05   2
  -7   8  -1   70.89   15.69   1
  -7   8  -1   89.96   16.55   5
  -7   8   1   45.28   11.95   5
  -9  -8  -1   75.44    9.74   5
  -9   8  -1   99.62   20.52   1
  -9   8  -1   73.54   16.32   5
  -9   8   1   61.08   17.37   1
  -9  -8   1   69.93   10.96   5
   9  -8  -1   60.60   15.72   2
   9  -8   1   60.86   15.55   2
   9   8  -1   52.94   15.48   3
   9   8   1   83.41   18.16   3
   9   8  -1   71.58   17.37   2
  -9   8   1   78.33   16.97   5
   9   8   1   42.92   13.20   2
  -9   8  -1   78.72   17.62   4
 -11  -8   1   61.26   10.73   5
  11   8  -1   52.46   17.84   2
  11  -8  -1   50.88   14.24   2
 -11   8   1   32.79   14.01   1
 -11   8  -1   50.02   17.81   1
 -11   8   1   79.17   19.44   5
 -11   8  -1   73.87   19.00   5
  11  -8   1   41.12   18.31   2
  11   8   1   47.57   17.95   2
 -11  -8  -1   44.33    8.33   5
   0  -9   1   43.93   10.24   5
   0   9  -1   37.06    9.36   4
   0   9  -1   46.69   10.28   3
   0  -9  -1   54.98   14.93   2
   0   9   1   41.41    9.94   3
   0  -9   1   44.77   15.79   2
   0   9   1   36.17    9.44   4
   0  -9  -1   40.12    9.17   5
   2  -9   1   88.96   20.73   2
  -2   9  -1   86.03   15.65   4
   2  -9  -1  116.18   15.41   3
  -2  -9  -1  103.75   14.12   5
   2   9   1  114.65   17.54   3
  -2   9  -1  107.47   10.07   1
  -2   9  -1  109.54   13.88   3
  -2  -9   1  108.50   15.61   5
   2  -9  -1  111.39   21.26   2
  -2   9  -1  105.52   14.75   5
  -2   9   1  110.42   10.42   1
   2   9   1  104.35   15.42   4
   2   9  -1  108.35   17.24   3
  -2  -9  -1  141.15   25.43   2
  -2  -9   1  111.28   23.70   2
  -2   9   1  114.07   14.95   5
  -2   9   1  102.06   17.06   4
   2   9  -1  108.17   15.65   4
   2  -9   1   82.81   14.71   5
   2  -9  -1   75.59   13.54   5
  -4   9   1    3.07    3.90   5
  -4   9   1    8.86    5.69   4
  -4   9   1   -1.47    3.45   1
  -4  -9   1    4.57    5.30   2
   4   9   1    1.55    3.55   4
  -4  -9  -1    5.76    3.50   5
  -4  -9   1    4.23    4.04   5
   4  -9   1   -3.74    4.43   2
  -4   9  -1    3.19    4.07   5
  -4  -9  -1    2.95    6.24   2
   4  -9  -1    2.47    4.46   5
   4  -9  -1    6.23    5.26   3
  -4   9  -1   -1.01    3.73   1
   4   9   1    1.49    3.58   3
   4  -9  -1    7.00    6.70   2
   4   9  -1    7.17    4.10   4
   4   9  -1    8.92    5.98   3
  -4   9  -1   -1.51    4.18   4
   6   9  -1    8.86    7.59   3
  -6   9   1   11.30    6.41   1
  -6  -9   1    8.24    4.80   5
  -6   9   1   11.02    5.41   5
  -6   9  -1   15.09    7.96   5
  -6   9  -1    2.21    5.17   1
  -6  -9   1    8.20    6.24   2
   6  -9  -1   17.60    8.07   2
  -6   9  -1    7.62    6.10   4
  -6   9   1   19.06    8.28   4
  -6  -9  -1   -2.62    4.96   2
  -6  -9  -1    6.53    3.79   5
   6  -9   1    2.12    5.14   2
   6   9   1   14.43    6.02   4
   6   9   1   -1.78    5.13   3
  -8  -9  -1    3.67    3.65   5
  -8   9  -1    4.39    6.69   5
  -8   9  -1   -0.60    5.91   1
   8  -9   1    3.88    5.57   2
   8   9  -1    2.07    6.71   3
  -8   9   1   -1.94    6.00   4
  -8   9   1   -0.91    5.59   5
  -8   9   1   17.20    8.80   1
   8   9   1   -6.21    4.81   3
  -8  -9  -1   11.35    8.21   2
  -8  -9   1    5.69    3.97   5
  -8   9  -1    4.13    7.47   4
  -8  -9   1    8.62    7.06   2
   8  -9  -1    2.63    5.23   2
 -10  -9  -1   -6.49    3.56   5
 -10  -9   1    2.44    5.53   2
 -10   9   1   -0.28    7.74   5
  10  -9  -1   -3.15    6.27   2
 -10  -9   1   -3.49    4.03   5
 -10  -9  -1    9.31    8.10   2
  10  -9   1   12.96   11.02   2
 -10   9   1    2.59    7.62   1
  10   9   1  -17.62    6.81   3
  10   9  -1   -8.71    6.83   3
 -10   9  -1    0.77    8.33   5
 -10   9  -1   11.16    9.56   1
   1  10  -1  133.05   18.36   4
  -1 -10  -1  223.92   31.33   2
   1 -10   1  131.28   18.62   5
  -1 -10   1  190.35   30.57   2
  -1  10   1  133.17   19.68   4
   1  10   1  150.63   19.80   4
   1  10   1  177.91   21.41   3
   1  10  -1  145.92   19.31   3
  -1 -10   1  127.82   17.48   5
   1 -10  -1  155.35   19.79   5
  -1 -10  -1  120.68   16.66   5
  -1  10   1  167.90   19.37   3
  -1  10  -1  164.08   18.44   3
   1 -10  -1  192.55   29.27   2
  -1  10  -1  180.45   21.82   4
   1 -10   1  178.32   29.82   2
   3  10   1  282.79   26.25   4
  -3 -10   1  273.81   36.64   2
  -3 -10  -1  206.65   31.53   2
   3  10  -1  250.41   26.07   3
  -3 -10   1  203.09   21.15   5
   3  10   1  228.86   25.80   3
   3 -10   1  253.47   26.41   5
   3 -10   1  246.50   19.25   3
  -3  10  -1  213.91   22.85   5
   3 -10  -1  260.72   20.41   3
  -3  10  -1  265.99   27.94   4
  -3  10   1  218.44   24.87   4
   3 -10  -1  242.74   25.33   5
   3 -10   1  235.35   33.05   2
   3 -10  -1  192.85   27.97   2
   3  10  -1  226.19   23.17   4
  -3  10  -1  242.26   16.99   1
  -3 -10  -1  240.65   18.84   5
   5  10  -1   59.24   12.40   4
  -5  10  -1   69.18   13.14   1
   5  10   1   54.73   13.41   3
  -5 -10   1   63.21   12.05   5
  -5 -10  -1   61.31   16.48   2
  -5  10  -1   76.37   15.67   5
  -5 -10   1   69.25   16.54   2
   5  10  -1   83.38   17.01   3
  -5  10   1   62.05   13.15   5
   5 -10   1   87.30   19.66   2
  -5  10   1   66.79   13.98   4
   5  10   1   78.24   14.98   4
  -5  10   1   69.72   13.45   1
   5 -10  -1   75.34   17.28   2
  -5  10  -1   72.47   15.72   4
  -5 -10  -1   73.36   11.90   5
  -7 -10   1   76.13   17.56   2
   7 -10  -1  119.77   22.67   2
   7 -10   1   93.14   19.91   2
   7  10   1   61.89   15.33   3
  -7  10   1   92.21   18.36   5
  -7  10   1   96.27   18.59   1
  -7  10  -1  130.98   21.45   5
  -7 -10  -1   88.18   12.83   5
   7  10  -1   97.81   19.27   3
  -7 -10  -1   90.82   19.44   2
  -7  10   1  144.17   22.69   4
  -7  10  -1   91.50   18.20   4
  -7 -10   1  102.93   14.80   5
  -7  10  -1   99.51   18.47   1
   9  10   1   66.79   16.95   3
  -9  10   1   73.30   16.83   4
  -9 -10   1   21.18   10.20   2
  -9 -10   1   47.01   10.04   5
   9 -10   1   50.90   16.31   2
   9 -10  -1   47.09   15.60   2
  -9  10   1   52.60   14.64   1
  -9 -10  -1   77.45   18.76   2
  -9  10  -1   37.61   13.13   5
  -9  10  -1   72.34   17.48   4
   9  10  -1   42.04   14.15   3
  -9  10  -1   64.12   16.95   1
  -9 -10  -1   50.25    9.73   5
 -11  10   1    8.01   11.05   1
 -11  10  -1    5.57   11.23   1
 -11 -10  -1   21.57   11.22   2
 -11  10  -1   29.55   15.29   5
   0 -11   1   26.59   12.22   2
   0 -11  -1   27.98    8.89   5
   0 -11  -1   14.55    9.42   2
   0  11   1   20.09    7.82   4
   0  11  -1   19.00    7.33   4
   0  11  -1   24.71    8.71   3
   0  11   1   20.17    8.65   3
   0 -11   1   15.22    7.23   5
   2 -11  -1   98.23   17.21   5
   2  11   1  111.93   18.16   4
   2  11   1   98.93   17.71   3
   2 -11  -1   94.86   21.63   2
   2  11  -1  100.17   17.29   3
   2 -11  -1  106.58   17.19   3
   2 -11   1  113.01   19.33   5
  -2  11  -1  118.12   16.64   3
  -2 -11  -1  119.02   23.86   2
  -2 -11   1   94.46   21.89   2
  -2 -11  -1  109.39   16.14   5
  -2  11   1   94.17   17.18   4
   2 -11   1  112.82   24.49   2
  -2  11  -1   93.60   17.60   4
  -2 -11   1  108.51   16.42   5
   2  11  -1   92.79   16.55   4
   4 -11  -1   46.77   14.72   2
  -4 -11   1   38.08   14.87   2
  -4 -11  -1   45.60   16.07   2
   4  11   1   31.16   11.02   3
  -4 -11   1   36.10    9.36   5
  -4 -11  -1   45.78    9.98   5
   4 -11   1   37.59   14.51   2
   4  11   1   37.08   11.44   4
  -4  11  -1   39.85   12.05   4
   4  11  -1   58.37   13.62   4
   4  11  -1   32.76   10.23   3
  -4  11   1   31.60   10.59   4
  -6 -11  -1   14.95    6.39   5
   6 -11  -1   35.40   13.23   2
  -6  11  -1   11.97    9.02   4
   6 -11   1   19.75   10.53   2
   6  11  -1   27.55   11.90   3
  -6  11   1   21.15   10.32   4
  -6 -11  -1   27.63   11.73   2
  -6 -11   1   28.42   12.17   2
  -6 -11   1   15.88    6.94   5
   6  11   1   14.21    9.28   3
   8  11  -1   24.11   12.04   3
  -8 -11   1   39.58   10.11   5
  -8 -11  -1   62.68   16.49   2
  -8  11  -1   40.50   13.40   4
  -8 -11   1   43.38   14.63   2
   8 -11  -1   23.10   10.28   2
   8  11   1   50.08   15.34   3
  -8  11   1   39.49   12.44   4
  -8 -11  -1   45.39    9.90   5
   8 -11   1   35.48   13.84   2
 -10  11  -1   10.15    9.07   4
 -10 -11  -1    6.19    5.28   5
  10  11   1    1.99   10.58   3
  10 -11   1    4.36   11.71   2
  10  11  -1  -18.33    7.74   3
 -10 -11   1   10.05    9.09   2
 -10 -11   1    3.34    5.17   5
 -10 -11  -1  -11.24    7.50   2
  10 -11  -1   22.67   12.08   2
   1 -12  -1   38.00   14.08   2
  -1 -12   1   44.29   15.07   2
   1  12   1   32.86   10.22   4
  -1 -12   1   15.68    6.95   5
   1  12  -1   25.55    9.40   3
   1 -12   1   33.54   14.35   2
  -1  12   1   39.81   10.76   3
  -1  12  -1   31.89   10.31   4
  -1  12  -1   26.28    8.89   3
   1  12   1   38.15   11.11   3
  -1  12   1   23.95    9.22   4
   1 -12  -1   19.28    8.33   5
   1 -12   1   24.61    9.46   5
  -1 -12  -1   22.85   10.31   2
  -1 -12  -1   29.01    8.88   5
   1  12  -1   23.90    8.63   4
  -3 -12   1    5.13    8.44   2
   3 -12  -1   17.97    9.20   2
   3  12  -1    1.15    3.96   3
   3  12   1   -0.50    5.52   4
   3 -12  -1   11.06    7.32   3
   3  12  -1   -4.37    4.77   4
   3 -12  -1    7.28    6.11   5
  -3 -12  -1    1.48    3.36   5
  -3 -12  -1   19.38   10.33   2
  -3  12   1    6.46    5.30   4
   3 -12   1   -4.19    7.71   2
   3  12   1   -1.88    4.45   3
  -3  12  -1    2.33    5.83   4
  -3 -12   1   -4.04    3.59   5
  -5 -12  -1   23.97   11.03   2
   5  12   1   31.73   11.60   4
  -5  12   1   19.65    8.83   4
  -5 -12  -1   24.27    8.10   5
  -5  12  -1   45.24   14.25   4
  -5 -12   1   31.47    9.59   5
   5 -12   1   21.63   13.17   2
   5  12   1   39.47   12.76   3
   5  12  -1   14.05    8.12   3
   5 -12  -1   28.08   11.51   2
  -5 -12   1   33.55   13.32   2
  -7 -12  -1    2.37    3.90   5
   7 -12  -1    3.75    7.59   2
  -7 -12  -1    1.30    7.81   2
  -7 -12   1   -1.51    4.65   5
   7  12   1    4.93    8.21   3
  -7  12  -1   -0.59    6.55   4
  -7  12   1   11.42    7.32   4
  -7 -12   1   -0.19    8.19   2
   7  12  -1    5.67    7.30   3
   7 -12   1    3.96    8.14   2
  -9 -12   1    3.57    5.68   5
  -9  12   1    1.46    8.08   4
  -9 -12  -1    1.77    8.99   2
  -9  12  -1    9.02    7.80   4
   9 -12   1   17.99   12.21   2
   9 -12  -1   14.81    8.05   2
  -9 -12  -1   -0.68    5.48   5
   9  12  -1   -9.89    7.66   3
   9  12   1   17.38   11.18   3
  -9 -12   1    4.78    7.01   2
   0  13  -1   20.29    8.64   4
   0 -13  -1   12.73   10.02   2
   0  13   1   13.24    7.56   4
   0 -13  -1    1.98    4.77   5
   0  13  -1   11.78    7.10   3
   0 -13   1   21.22   11.12   2
   0 -13   1    8.58    6.11   5
   0  13   1    8.77    6.57   3
   2 -13  -1   70.84   15.33   3
   2  13   1   55.93   14.72   4
   2 -13  -1   62.28   15.20   5
   2 -13   1   91.89   23.13   2
   2  13  -1   71.93   15.74   3
  -2 -13   1   71.97   14.61   5
  -2  13   1   61.29   14.70   4
  -2 -13  -1   33.62   12.92   2
  -2  13  -1   25.55    9.86   4
  -2 -13  -1   69.70   13.95   5
   2  13   1   34.66   11.41   3
  -2 -13   1   50.56   16.41   2
   2 -13  -1   45.05   16.61   2
   2 -13   1   92.75   17.85   5
   2  13  -1   61.88   14.57   4
  -2  13  -1   77.45   14.84   3
   4 -13   1   24.28   14.50   2
  -4  13  -1   29.86   11.23   4
  -4  13   1   29.28   10.28   4
   4  13  -1   52.87   14.29   3
  -4 -13   1   25.75   11.01   2
  -4 -13  -1   20.30   12.62   2
  -4 -13  -1   18.34    7.26   5
   4  13   1   31.45   11.57   3
  -4 -13   1   32.80   10.10   5
   4  13  -1   34.81   11.27   4
   4 -13  -1   11.97   11.82   2
   4  13   1   39.12   12.42   4
  -6 -13  -1   12.76   11.83   2
  -6 -13   1   18.34    7.74   5
   6 -13  -1   20.96   11.52   2
   6  13  -1    5.10    7.15   3
  -6 -13  -1    9.42    5.82   5
  -6  13  -1    7.04    6.41   4
   6  13   1    2.60    6.18   3
  -6 -13   1   11.84   10.28   2
  -6  13   1    2.27    8.28   4
   6 -13   1    5.98    9.17   2
  -8  13  -1   26.61   12.13   4
   8 -13   1   51.91   17.96   2
  -8 -13  -1   66.45   19.10   2
  -8 -13   1   33.68    9.97   5
   8  13   1   31.69   13.89   3
   8  13  -1   32.63   15.11   3
  -8  13   1   61.71   17.27   4
  -8 -13  -1   22.43    8.37   5
   8 -13  -1   66.85   20.10   2
  -8 -13   1   11.68   10.52   2
   1 -14   1    2.06    5.05   5
  -1  14  -1   -0.51    4.30   4
   1 -14   1    4.11    7.39   2
   1 -14  -1    8.40    7.70   3
   1  14  -1    3.21    6.06   3
  -1  14   1   10.92    6.83   4
   1  14   1   -8.17    5.57   4
  -1 -14  -1   -0.57    5.37   2
  -1  14  -1   -3.15    3.90   3
   1  14  -1    2.42    6.39   4
   1 -14  -1    5.88    5.89   5
  -1 -14   1   20.07   10.16   2
   1  14   1    7.01    5.84   3
   1 -14  -1   24.02   12.83   2
  -1 -14   1    0.65    4.74   5
  -1 -14  -1    5.82    5.72   5
   3  14   1    2.94    6.77   3
  -3  14  -1   15.25    7.26   4
   3 -14   1   10.75   10.62   2
   3 -14  -1   14.37    9.81   2
  -3 -14   1   -0.71    8.73   2
   3  14  -1   -2.60    5.21   3
  -3 -14  -1   -3.49    3.32   5
  -3 -14  -1    2.31    7.70   2
   3  14  -1   -9.32    5.38   4
   3  14   1    1.01    6.14   4
  -3  14   1   -4.66    3.79   4
  -3 -14   1    9.00    6.21   5
   5  14   1    0.86    6.21   3
  -5  14   1    5.89    6.55   4
  -5  14  -1   13.04    8.04   4
  -5 -14   1    5.60    5.88   5
   5 -14   1   13.97   10.81   2
  -5 -14   1   -6.15    6.88   2
   5  14  -1   -9.75    5.07   3
   5 -14  -1   21.03   13.16   2
   5  14   1   -0.39    7.79   4
  -5 -14  -1   -1.53    8.47   2
  -5 -14  -1    5.99    6.44   5
   7 -14   1   13.58   11.11   2
  -7  14   1   -2.79    6.71   4
  -7 -14  -1    4.25    5.46   5
  -7 -14  -1   -5.61    9.77   2
  -7 -14   1    4.69    6.05   5
   7  14  -1   -1.78    6.84   3
  -7  14  -1    6.21    8.68   4
  -7 -14   1   -7.93    9.20   2
   7  14   1    5.88    9.78   3
   7 -14  -1    5.89   10.61   2
  -9 -14  -1  -19.26    9.08   2
  -9  14   1    5.48    8.18   4
   0  15  -1   20.04    9.89   4
   0  15   1    7.68    8.08   4
   0 -15  -1   23.77   10.77   5
   0 -15   1    8.06    9.27   2
   0  15   1   16.65    9.31   3
   0  15  -1   15.64    8.59   3
   0 -15   1   17.42    8.71   5
   0 -15  -1   -5.20    6.64   2
  -2 -15  -1   77.74   16.42   5
   2 -15  -1   85.07   18.10   5
   2 -15  -1  107.41   20.55   3
   2  15   1   81.82   18.72   3
   2  15  -1   79.36   17.82   3
   2  15   1   85.56   19.35   4
  -2  15   1   91.22   19.12   4
  -2 -15   1   71.43   15.46   5
   2 -15   1   87.65   24.17   2
  -2  15  -1   67.90   17.36   4
  -2 -15  -1   57.29   17.50   2
   2  15  -1   54.18   15.45   4
   2 -15  -1   75.17   20.68   2
  -2 -15   1   72.67   20.28   2
  -4 -15   1   57.95   19.02   2
  -4 -15  -1   74.04   19.73   2
  -4 -15   1   28.64    9.25   5
  -4  15   1   25.27   11.73   4
   4 -15  -1   29.95   16.43   2
  -4  15  -1   37.92   13.36   4
  -4 -15  -1   32.63   10.40   5
   4  15   1   28.44   12.61   3
   4  15   1   30.58   12.97   4
   4 -15   1   40.42   18.97   2
   4  15  -1   33.88   12.65   3
  -6 -15   1   18.84    7.76   5
   6  15   1   -1.43    8.07   3
  -6 -15   1   36.70   19.17   2
   6 -15  -1   19.26   12.57   2
  -6  15  -1   10.17    8.23   4
  -6 -15  -1   21.01    7.87   5
   6 -15   1   32.43   17.69   2
  -6  15   1   28.06   12.19   4
   6  15  -1   35.59   14.29   3
  -6 -15  -1   33.38   15.84   2
  -8 -15  -1   38.57   16.32   2
  -8  15   1   50.09   15.07   4
  -8 -15   1   59.45   17.99   2
  -1 -16  -1   21.75    9.19   5
   1  16   1    9.77    7.58   3
   1 -16  -1   24.54   11.90   3
  -1  16  -1   12.76    8.01   3
  -1 -16   1    7.03    6.64   5
   1 -16   1   26.01   13.17   2
   1 -16  -1   28.82   10.10   5
   1  16  -1   10.64    8.14   3
   1 -16   1    7.93    7.64   5
  -1  16  -1   14.95    8.38   4
  -1  16   1   13.16    7.72   4
  -1 -16   1   18.99   11.11   2
   1  16  -1   15.18    9.76   4
   1 -16  -1   15.89   13.32   2
   1  16   1   16.48   10.79   4
  -1 -16  -1    9.28   10.74   2
  -3 -16  -1   42.18   11.82   5
  -3  16  -1   55.57   15.91   4
   3  16  -1   27.31   10.96   3
  -3 -16  -1   39.09   15.79   2
  -3  16   1   24.91   12.54   4
   3 -16   1   19.46   14.81   2
  -3 -16   1   37.01   11.30   5
   3 -16  -1   37.30   16.58   2
   3  16   1   35.25   12.39   3
   3  16  -1   72.82   18.31   4
  -3 -16   1   44.84   16.44   2
   3  16   1   39.04   12.23   4
   5 -16   1   -7.18    9.72   2
   5  16   1    4.39    7.48   3
  -5 -16  -1   -9.73    4.53   5
   5  16  -1    1.77    6.88   3
  -5  16  -1    1.26    6.66   4
   5 -16  -1    9.99   10.54   2
  -5 -16   1    5.58    7.25   5
  -5 -16  -1   13.46   10.51   2
  -5  16   1   11.28    8.32   4
  -5 -16   1    1.68    9.68   2
  -7 -16   1   29.21   15.21   2
  -7 -16  -1    6.45   12.31   2
  -7  16   1   17.50   11.19   4
   0 -17   1    0.45    7.82   2
   0  17   1    4.91    8.77   4
   0 -17  -1   13.05    9.91   3
   0 -17  -1   10.82   10.32   2
   0 -17  -1    4.88    6.67   5
   0  17  -1    3.84    7.10   3
   0 -17   1    6.28    7.08   5
   0  17  -1   18.29    8.47   4
  -2 -17  -1   -5.40    7.96   2
   2  17  -1   20.38    7.16   3
   2 -17   1    5.05    8.35   2
   2  17   1    9.46    7.74   3
   2 -17  -1    6.52    8.94   2
   2  17  -1   16.67    9.38   4
  -2 -17  -1    3.87    5.21   5
  -2  17   1   18.51   11.55   4
  -2  17  -1    1.79    7.88   4
   2  17   1    4.46    8.96   4
  -2 -17   1   -0.74    6.49   5
  -2 -17   1   -1.73    7.50   2
  -4 -17   1   -3.03    5.82   5
   4 -17   1   -2.01    9.12   2
  -4  17   1  -13.05    5.61   4
   4  17   1   -3.11    6.67   3
  -4 -17   1    0.89    9.81   2
   4 -17  -1   11.59   10.76   2
   4  17   1  -13.10    8.93   4
   4  17  -1   -6.31    7.64   3
  -4 -17  -1    0.66    7.94   5
  -4 -17  -1  -23.39    8.61   2
  -4  17  -1    2.95    9.15   4
  -6 -17  -1  -18.59   10.26   2
   1  18  -1   15.86   10.13   3
  -1 -18   1   22.29   11.89   2
  -1 -18   1    1.88    7.99   5
  -1 -18  -1   20.50   12.03   2
  -1  18   1   21.95   13.72   4
  -1 -18  -1   13.75    9.64   5
   1 -18  -1   14.42   12.89   2
   1  18   1   18.65   13.47   4
   1  18  -1   16.80   11.74   4
  -1  18  -1   11.31   11.31   4
   1 -18   1   30.94   15.06   2
   3  18   1   13.59   12.06   4
  -3  18   1   13.53   12.11   4
   3 -18   1   -2.58    9.44   2
  -3 -18   1   11.32    9.80   2
  -3 -18  -1   12.31   10.16   2
  -3 -18   1   16.60    9.03   5
   3  18   1   13.77    8.17   3
   3 -18  -1   -4.01    9.68   2
  -3 -18  -1    7.32    8.89   5
   3  18  -1    6.79    8.44   3
  -3  18  -1    4.93    9.91   4
  -5 -18  -1   22.71   12.87   2
   0  19   1   38.63   16.50   4
   0 -19   1   16.90   12.79   2
   0 -19  -1   33.98   14.03   5
   0 -19  -1   38.70   17.50   3
   0 -19  -1   25.24   14.87   2
   0  19  -1   18.21   15.64   4
   2  19  -1  119.05   27.90   4
  -2 -19  -1  125.65   23.11   5
   2 -19  -1   98.67   22.89   2
  -2 -19   1   86.72   20.08   5
  -2 -19  -1  112.43   24.05   2
   2  19  -1   87.31   20.69   3
   2  19   1  112.74   27.09   4
   0   0   2 1840.38   50.81   5
   0   0   2 1914.95   49.03   4
   0   0   2 1947.59   50.39   2
   0   0  -2 1835.12   50.10   3
   0   0   2 1711.39   63.58   1
  -2   0   2 3368.67   98.60   1
  -2   0   2 3403.30   86.03   4
  -2   0  -2 3320.73   86.46   5
   2   0   2 3463.56   88.43   3
   2   0  -2 3433.22   91.58   3
   2   0  -2 3540.27   91.16   2
   2   0   2 3448.23   89.58   2
  -2   0  -2 3481.28   90.07   4
  -2   0   2 3186.07   90.00   5
  -4   0  -2 1302.97   38.77   5
   4   0   2 1456.55   42.10   3
  -4   0  -2 1397.06   45.35   4
   4   0  -2 1310.12   46.36   2
   4   0  -2 1337.64   45.93   3
   4   0   2 1417.61   52.89   1
  -4   0   2 1364.53   44.01   5
   4   0   2 1292.76   45.09   2
  -4   0   2 1386.38   52.59   1
  -4   0   2 1394.49   40.11   4
   6   0  -2 1918.98   67.50   2
  -6   0   2 1853.48   74.48   1
   6   0  -2 1959.41   65.62   3
   6   0   2 2003.59   59.50   3
  -6   0  -2 1943.69   64.10   4
  -6   0   2 1961.12   58.42   4
  -6   0   2 1857.91   62.20   5
   6   0   2 1906.41   66.01   2
  -6   0  -2 1921.09   57.04   5
   6   0   2 1912.99   75.44   1
  -8   0  -2  665.87   43.71   1
   8   0  -2  738.80   36.04   3
  -8   0   2  751.20   45.91   1
  -8   0  -2  683.14   31.66   5
   8   0  -2  716.66   39.19   2
   8   0   2  634.10   36.78   2
  -8   0  -2  691.51   35.13   4
  -8   0   2  627.07   32.58   5
  10   0  -2  773.36   47.55   2
 -10   0  -2  795.18   38.02   5
  10   0   2  782.48   45.99   2
 -10   0   2  761.61   53.84   1
 -10   0  -2  812.04   54.60   1
 -10   0   2  819.00   41.79   5
 -12   0   2  252.50   38.41   1
 -12   0   2  351.16   28.74   5
  12   0  -2  296.41   37.49   2
 -12   0  -2  298.99   41.91   1
 -12   0  -2  324.88   25.13   5
  12   0   2  359.64   40.18   2
  -1  -1  -2   21.37    3.56   3
  -1   1   2   10.72    3.35   1
   1   1   2   12.66    2.82   4
  -1  -1  -2   12.38    1.37   5
  -1  -1  -2   10.14    1.89   5
   1   1  -2   14.41    3.17   2
  -1   1   2   10.69    2.46   4
  -1   1  -2   13.90    1.98   3
   1  -1  -2   10.26    2.57   3
   1  -1  -2   11.02    2.25   2
  -1  -1   2   13.42    3.09   5
   1  -1   2   13.29    2.75   2
   1   1  -2   14.01    3.30   3
   1   1  -2   10.27    1.48   4
  -1   1  -2   11.66    2.85   4
  -1  -1   2   11.13    3.75   1
   1   1   2   12.16    1.96   2
   1   1   2   13.03    3.76   1
   1  -1   2   14.61    3.98   1
  -1   1   2    8.30    2.37   5
   3   1   2    1.93    2.23   1
   3   1   2    3.56    1.89   3
   3   1   2    4.08    2.03   4
   3  -1   2    4.84    1.39   3
  -3   1  -2    4.73    2.21   5
   3   1  -2   -0.38    1.76   3
  -3  -1   2    3.02    1.77   5
  -3  -1   2    4.42    1.45   4
   3  -1   2    8.05    4.16   1
   3  -1  -2    0.03    1.49   3
  -3  -1   2    2.75    3.08   1
   3  -1   2    3.22    2.11   2
   3   1  -2    4.42    2.61   2
  -3   1   2    1.87    2.10   4
  -3   1  -2    3.77    2.34   4
   3   1   2    4.64    1.86   2
   3  -1  -2   11.07    3.41   2
  -3   1   2    3.27    3.14   1
  -3   1   2   -0.32    1.58   5
  -5  -1   2    7.05    3.10   5
   5   1  -2    8.56    4.56   2
  -5   1   2    7.50    4.53   1
   5  -1   2    9.36    4.17   2
   5   1  -2   11.27    4.31   3
   5   1   2    6.07    3.55   2
   5  -1   2   10.15    2.95   3
  -5   1  -2   10.26    4.34   4
   5   1   2    6.08    3.20   3
   5  -1  -2    6.87    3.68   3
  -5  -1   2   16.50    6.26   1
   5  -1   2   10.29    5.78   1
  -5   1   2   11.78    3.95   4
  -5   1   2    7.24    3.39   5
   5   1   2    7.55    4.05   1
  -5  -1  -2    7.17    1.96   5
  -5  -1  -2    8.84    3.88   4
   5  -1  -2    8.96    4.62   2
  -5  -1   2   17.70    3.82   4
  -5   1  -2   15.12    3.92   5
   7  -1   2    0.68    3.72   2
   7   1   2   -1.98    2.65   2
   7  -1   2    1.80    4.44   1
   7   1  -2    9.85    4.89   3
   7  -1  -2    0.21    3.35   2
  -7  -1  -2   -2.20    2.50   4
   7   1   2   -1.96    3.68   1
  -7   1   2   -1.98    3.96   1
  -7   1   2    4.14    3.37   5
  -7   1  -2   -0.62    3.41   4
   7   1   2    3.94    2.94   3
   7  -1  -2    1.53    3.81   3
  -7  -1   2    3.16    3.94   1
   7   1  -2    3.26    3.64   2
  -7  -1   2    1.13    2.48   5
  -9  -1   2    9.65    7.10   1
  -9   1   2    4.80    6.41   1
  -9   1  -2   -2.66    2.95   5
  -9   1   2   -2.41    2.82   5
   9  -1  -2    2.20    4.74   2
  -9  -1   2    2.64    3.75   5
   9  -1   2    4.94    5.34   2
  -9  -1  -2    5.31    5.76   1
  -9  -1  -2    2.94    3.14   5
  -9   1  -2    4.05    6.27   1
   9   1  -2   -0.37    4.55   2
   9   1   2    2.27    4.05   2
  11  -1  -2    6.66    7.09   2
 -11  -1  -2    0.05    4.20   5
  11   1  -2   -1.75    6.53   2
 -11  -1   2    5.56    4.90   5
 -11   1  -2    5.31    8.97   1
  11  -1   2    0.59    7.26   2
 -11  -1  -2   -0.79    7.32   1
 -11   1   2    3.44    5.65   5
 -11  -1   2   -5.18    5.72   1
 -11   1  -2    6.27    4.74   5
 -11   1   2   -9.17    4.84   1
  11   1   2    7.38    7.64   2
   0  -2  -2  184.10   10.16   2
   0  -2   2  240.01   18.04   2
   0   2   2  176.44   10.30   4
   0  -2   2  188.27   12.34   5
   0   2  -2  224.04   10.49   3
   0   2   2  198.76   15.20   1
   0  -2   2  202.98   14.87   1
   0  -2  -2  190.08    8.89   5
   0   2  -2  204.62   10.11   4
   0  -2  -2  206.69   10.79   3
   2   2  -2 6074.91  161.41   2
  -2   2  -2 6289.72  159.67   4
   2  -2  -2 6475.48  158.35   5
   2   2   2 6107.82  168.30   1
   2   2   2 6346.86  158.30   4
   2  -2   2 6093.11  170.51   1
   2  -2  -2 6202.91  159.52   2
   2  -2  -2 6196.37  158.46   3
  -2   2   2 6065.66  169.14   1
   2   2  -2 6090.08  153.22   4
   2   2  -2 6099.55  162.90   3
   2   2   2 6050.51  160.69   3
  -2   2   2 6097.75  157.43   4
   2   2   2 6253.25  158.56   2
  -2  -2   2 6031.04  157.28   5
   2  -2   2 6220.21  161.10   2
  -2  -2   2 6141.14  168.83   1
   4  -2  -2  138.95   10.07   3
   4   2  -2  146.45   13.55   2
  -4   2   2  124.89   11.98   5
  -4   2  -2  136.50   10.14   5
  -4   2   2  140.58   10.58   4
   4   2  -2  149.73   14.02   3
  -4  -2   2  144.36    6.92   4
  -4  -2   2  127.29   14.51   1
  -4   2  -2  119.52   12.68   4
   4  -2   2  138.00   13.19   2
  -4   2   2  148.73   15.64   1
   4   2   2  118.62   13.88   1
   4   2   2  122.68   10.37   2
   4  -2   2  147.47   16.21   1
   4   2   2  156.23   11.53   3
  -4  -2   2  130.96    9.24   5
   4  -2  -2  133.55   12.99   2
   4   2   2  123.62   10.05   4
  -6  -2   2 3440.85  115.51   1
  -6   2   2 3397.54  103.89   5
  -6   2   2 3629.21  100.90   4
   6   2   2 3444.34  115.33   1
   6  -2  -2 3495.20  107.48   2
   6  -2   2 3392.50  117.47   1
   6   2   2 3472.90  102.45   3
   6   2   2 3449.70  104.50   2
  -6  -2   2 3329.21   97.52   5
   6  -2   2 3527.23  107.01   2
   6   2  -2 3672.35  109.01   3
  -6  -2  -2 3457.95  100.14   4
   6  -2  -2 3437.87  100.40   3
   6   2  -2 3363.06  107.29   2
  -6   2  -2 3542.05  105.82   4
  -6   2   2 3197.34  115.18   1
  -8   2   2   91.95   14.79   5
   8   2   2  138.58   18.84   2
  -8   2  -2  116.07   17.20   4
  -8   2  -2  122.11   15.72   5
  -8   2  -2  128.07   21.79   1
   8  -2  -2   98.93   16.91   2
  -8  -2   2  114.24   13.70   5
   8  -2   2   89.90   15.62   2
  -8  -2  -2  109.27   14.21   4
  -8  -2  -2  106.12   10.86   5
   8   2  -2   64.62   13.33   2
  -8  -2  -2  128.89   20.93   1
  -8  -2   2   95.98   18.61   1
  -8   2   2  115.24   21.36   1
   8   2  -2  117.06   17.45   3
 -10  -2  -2 1490.30   77.69   1
  10  -2   2 1380.34   67.41   2
 -10  -2  -2 1513.00   54.86   5
  10   2  -2 1449.38   69.60   2
 -10   2   2 1453.51   79.61   1
 -10   2  -2 1490.64   78.91   1
 -10  -2   2 1497.14   77.21   1
  10  -2  -2 1544.11   71.73   2
  10   2   2 1501.57   67.37   2
 -10   2   2 1475.58   63.55   5
 -10  -2   2 1447.00   58.45   5
 -10   2  -2 1393.43   60.54   5
  12   2   2   79.95   20.02   2
 -12   2  -2  108.04   18.87   5
 -12  -2   2  177.14   31.87   1
 -12  -2  -2  142.15   17.25   5
  12   2  -2  100.30   22.91   2
  12  -2  -2  137.64   25.58   2
  12  -2   2  140.91   25.18   2
 -12  -2  -2   78.25   20.34   1
 -12   2   2  123.30   26.53   1
 -12   2  -2   99.48   24.44   1
 -12   2   2  116.99   20.10   5
 -12  -2   2  120.04   18.08   5
   1   3  -2  285.53   13.08   4
   1  -3   2  291.16   16.28   5
   1  -3  -2  313.23   14.35   5
  -1  -3  -2  298.89   11.06   5
  -1   3   2  303.10   15.04   1
   1  -3   2  289.82   15.24   1
   1   3   2  277.43   13.49   1
  -1  -3  -2  279.29   11.49   5
   1   3   2  309.88   15.69   3
  -1   3   2  294.08   14.29   5
  -1  -3   2  291.26   16.25   1
   1   3   2  289.23   14.40   4
  -1   3  -2  265.27   14.88   4
   1  -3  -2  279.18   14.04   3
   1  -3  -2  289.87   14.46   2
  -1  -3   2  264.26   16.99   2
  -1   3   2  292.83   15.19   4
   1  -3   2  286.66   18.50   2
  -1   3  -2  285.82   12.45   3
   1   3  -2  305.02   15.46   3
  -1  -3  -2  312.11   16.72   2
  -1  -3   2  282.51   14.94   5
   3   3   2  190.13   12.48   2
  -3   3   2  175.54   12.24   4
  -3   3  -2  172.00   13.12   4
   3   3   2  159.86   12.25   3
   3   3   2  184.50   12.94   1
  -3  -3   2  173.62   10.50   5
   3   3  -2  162.28   13.06   3
   3   3   2  173.12   11.73   4
   3  -3   2  176.83   13.01   2
   3   3  -2  182.14    8.02   4
   3  -3  -2  190.70   11.04   3
  -3   3   2  152.62   11.62   5
   3  -3  -2  181.51   11.87   5
   3  -3  -2  189.68   13.12   2
   3  -3   2  190.13   14.87   1
   3   3  -2  166.10   13.09   2
  -3  -3   2  186.66   13.62   1
  -3   3   2  173.12   13.82   1
  -5  -3   2  148.17   10.51   5
  -5  -3   2  161.03    8.71   4
   5   3   2  147.89   14.70   3
   5   3   2  178.99   14.03   2
   5  -3  -2  179.33   17.40   2
   5  -3   2  134.26   17.67   1
  -5   3   2  140.46   13.80   4
   5  -3   2  155.74   16.21   2
   5   3  -2  141.86   16.02   2
  -5   3   2  136.62   17.30   1
   5  -3  -2  151.62   10.98   3
  -5   3   2  129.40   14.04   5
   5   3   2  144.12   16.53   1
   5   3  -2  143.51   16.30   3
   5   3   2  155.46   12.00   4
  -5   3  -2  154.23   16.27   4
  -5  -3   2  146.36   17.15   1
  -7   3   2   74.19   11.99   4
   7  -3  -2   78.02   13.64   2
   7  -3   2   56.76   12.06   2
  -7  -3   2   63.81    9.22   5
   7  -3   2   81.16   16.27   1
  -7  -3  -2   78.12   11.59   4
  -7  -3  -2   65.76    6.78   5
  -7   3  -2   79.85   14.38   4
  -7   3   2   84.27   16.44   1
   7   3  -2   66.23   13.05   2
   7   3   2   61.33   11.64   2
  -7  -3  -2   66.63   14.28   1
   7   3   2   85.72   13.13   3
  -7   3   2   80.39   13.51   5
   7   3  -2   74.04   13.49   3
  -7  -3   2   80.17   15.40   1
  -9   3   2   58.32   12.12   5
  -9   3  -2   53.86   11.67   5
  -9  -3  -2   41.27    7.09   5
  -9  -3   2   26.33   10.87   1
  -9   3  -2   43.45   13.46   1
   9  -3   2   47.31   12.41   2
  -9  -3  -2   48.86   13.65   1
  -9  -3   2   38.69    8.81   5
   9  -3  -2   43.20   12.01   2
  -9   3  -2   36.52   11.48   4
   9   3  -2   26.37   10.92   2
   9   3   2   76.34   15.53   2
  -9   3   2   21.07    9.85   1
   9   3  -2   62.22   13.83   3
  11   3   2   27.69   11.50   2
 -11  -3   2   23.43    8.17   5
  11  -3   2   37.27   12.32   2
  11  -3  -2   24.80   10.45   2
 -11   3  -2   41.38   12.14   5
 -11  -3   2   12.94    8.85   1
  11   3  -2   19.93   12.03   2
 -11  -3  -2   41.53   15.00   1
 -11   3   2    1.89    8.75   1
 -11   3  -2   33.91   14.93   1
 -11  -3  -2   24.28    6.11   5
 -11   3   2   32.30   11.21   5
   0  -4   2 1989.26   61.19   1
   0   4   2 2088.00   61.37   4
   0   4  -2 1953.08   59.57   4
   0   4   2 1924.66   60.41   3
   0   4  -2 1960.33   59.32   3
   0   4   2 2017.28   66.02   1
   0  -4  -2 1968.93   57.76   5
   0  -4  -2 1947.56   66.84   2
   0  -4   2 1958.80   78.03   2
   0  -4   2 1955.58   64.13   5
  -2  -4   2 1246.38   42.10   1
   2   4   2 1193.27   41.21   4
   2  -4   2 1188.35   45.93   2
   2   4  -2 1174.24   37.74   4
  -2   4   2 1231.28   41.74   5
   2  -4   2 1176.88   42.83   5
  -2  -4  -2 1231.18   32.79   5
   2   4  -2 1199.18   44.10   3
  -2   4  -2 1225.42   43.99   4
  -2  -4  -2 1154.70   43.03   2
   2   4   2 1164.67   43.73   3
  -2  -4   2 1166.06   39.57   5
   2  -4   2 1193.07   43.24   1
   2  -4  -2 1222.43   41.50   5
   2   4   2 1258.95   39.84   1
  -2   4  -2 1214.11   35.44   3
  -2  -4  -2 1173.07   34.54   5
  -2   4   2 1200.46   42.59   1
   2  -4  -2 1162.37   39.58   3
  -2   4   2 1219.14   42.34   4
   2  -4  -2 1264.98   42.89   2
  -2  -4   2 1176.52   45.45   2
   4  -4   2 1660.04   60.84   1
  -4  -4   2 1654.67   57.75   1
   4   4   2 1642.43   52.61   4
   4   4   2 1654.30   56.76   1
   4   4   2 1554.23   56.12   3
   4   4   2 1641.03   55.58   2
  -4   4  -2 1653.58   58.34   4
   4  -4  -2 1618.44   56.88   2
  -4   4   2 1579.00   54.94   4
  -4   4   2 1479.50   54.76   5
  -4  -4   2 1588.46   49.30   5
   4  -4  -2 1543.36   49.77   3
   4   4  -2 1493.37   57.25   2
   4  -4  -2 1630.23   53.42   5
  -4   4   2 1545.71   59.22   1
   4   4  -2 1591.90   58.81   3
   4   4  -2 1659.47   45.58   4
   4  -4   2 1430.42   55.67   2
  -6   4   2  812.07   43.99   1
   6   4  -2  853.34   42.18   3
   6   4   2  849.60   41.58   1
   6  -4   2  799.92   44.48   1
  -6  -4   2  833.27   31.74   5
   6   4  -2  764.16   39.71   2
   6   4   2  879.30   35.77   4
   6   4   2  812.53   38.23   3
  -6   4  -2  847.49   40.98   4
   6  -4  -2  813.51   32.55   3
  -6  -4   2  839.60   42.40   1
  -6   4   2  813.89   38.54   5
   6   4   2  810.40   38.68   2
  -6   4   2  932.75   39.37   4
   6  -4  -2  798.13   40.17   2
   6  -4   2  894.08   40.95   2
   8   4   2  842.92   44.72   2
  -8   4   2  821.76   50.67   1
  -8   4  -2  889.61   52.03   1
  -8  -4  -2  865.94   30.16   5
   8   4   2  962.07   44.20   3
  -8  -4   2  830.85   35.70   5
  -8  -4  -2  858.78   49.05   1
  -8   4   2  982.45   46.41   5
   8   4  -2  880.35   47.17   2
  -8  -4   2  863.52   49.08   1
   8  -4  -2  841.58   45.94   2
   8   4  -2  905.98   47.20   3
  -8   4  -2  903.63   45.87   4
  -8   4  -2  894.34   43.94   5
   8  -4   2  815.95   45.44   2
 -10   4   2  442.04   33.00   5
 -10   4  -2  468.35   46.15   1
 -10  -4   2  446.67   38.16   1
 -10   4  -2  431.15   32.21   5
  10  -4   2  452.40   35.51   2
 -10  -4  -2  408.55   41.40   1
  10   4   2  430.99   34.18   2
 -10  -4  -2  422.24   22.06   5
 -10   4   2  493.38   47.55   1
  10   4  -2  496.15   37.45   2
  10  -4  -2  474.71   37.13   2
 -10  -4   2  449.57   26.84   5
 -12  -4  -2  435.07   48.08   1
  12   4  -2  409.58   44.94   2
  12  -4   2  393.68   42.62   2
 -12  -4  -2  437.79   26.00   5
 -12  -4   2  482.02   31.28   5
 -12   4   2  428.66   38.90   5
  12   4   2  475.28   44.92   2
  12  -4  -2  394.55   43.23   2
 -12   4  -2  387.91   48.96   1
 -12   4   2  403.19   49.16   1
 -12  -4   2  410.55   47.89   1
 -12   4  -2  420.19   37.80   5
  -1  -5   2   -2.52    2.35   5
   1  -5   2   -1.66    2.28   1
   1   5   2    4.58    3.92   3
  -1   5   2   -0.35    2.10   1
   1  -5  -2    0.69    2.14   5
   1   5  -2   -0.44    3.03   3
  -1   5  -2    2.23    2.98   3
   1   5  -2    2.75    2.36   4
   1  -5   2    4.47    3.67   5
  -1  -5   2   -2.63    4.51   2
   1  -5   2    0.22    4.16   2
  -1   5   2   -2.73    2.67   4
  -1   5  -2    2.77    2.73   4
   1  -5  -2    1.10    3.55   2
  -1  -5  -2   -0.93    2.23   5
   1   5   2   -0.23    2.28   4
   1   5   2    0.05    1.50   1
   1  -5  -2   -1.78    1.50   3
  -1  -5   2   -1.46    3.50   1
  -1  -5  -2    3.61    5.87   2
  -1   5   2   -0.83    1.57   5
  -1  -5  -2   -0.18    1.69   5
   3  -5   2    2.89    2.14   3
  -3  -5  -2    1.94    1.11   5
  -3  -5  -2    0.94    1.39   5
   3   5  -2   -1.34    2.32   3
  -3  -5   2    5.09    3.23   5
  -3   5  -2    6.81    4.21   4
   3   5   2    3.26    2.25   1
   3  -5  -2    5.37    3.23   3
  -3   5   2    1.73    3.13   1
   3  -5   2    2.07    2.92   1
   3   5  -2    7.12    2.85   4
  -3   5   2    6.98    4.24   4
   3  -5   2   -2.52    2.22   2
   3  -5   2   10.47    4.52   5
  -3  -5  -2   -1.84    2.69   2
  -3  -5   2    5.45    4.72   2
   3  -5  -2   -3.57    2.49   2
   3  -5  -2    5.11    3.60   5
  -3   5   2    2.63    2.88   5
  -3  -5   2    3.90    3.29   1
   3   5   2    7.86    3.65   4
   3   5   2    4.61    3.30   3
  -5  -5   2    4.65    4.35   1
   5   5   2    3.73    2.92   1
   5  -5   2    7.00    5.83   1
   5   5   2   -0.44    2.23   4
   5  -5  -2    6.33    4.46   2
   5   5  -2    3.35    3.22   2
   5   5  -2    2.43    3.93   3
   5  -5   2    2.41    2.76   2
   5  -5  -2    0.18    2.14   3
  -5   5   2   -3.59    2.33   5
  -5  -5   2    5.89    3.29   5
   5   5   2   -1.80    2.24   2
  -5   5   2    1.45    4.40   4
  -5   5   2    1.49    3.64   1
   5   5   2    0.37    2.60   3
   5   5  -2    0.85    2.13   4
  -5   5  -2   -3.01    3.19   4
  -7   5   2    8.98    5.71   4
   7   5  -2   -0.93    3.36   2
   7   5   2    0.47    3.46   4
  -7   5  -2    3.80    4.26   4
   7  -5  -2    1.33    3.17   2
  -7  -5   2   -1.00    2.25   5
   7  -5   2    8.05    4.52   2
   7   5   2    6.08    4.75   3
  -7   5   2    3.22    4.67   1
  -7  -5  -2    6.40    5.61   1
  -7  -5   2   -5.35    3.00   1
  -7   5   2    0.72    3.51   5
  -7  -5  -2    1.99    1.53   5
   7   5  -2   -5.90    3.73   3
   7   5   2   -1.03    3.70   2
   9  -5  -2    2.92    5.84   2
   9  -5   2    6.99    5.87   2
  -9   5  -2    7.35    6.33   4
  -9  -5   2    1.00    3.16   5
  -9   5  -2   -1.87    6.17   1
   9   5  -2   -0.60    4.44   2
  -9   5   2   -4.18    3.95   5
  -9  -5  -2   -2.02    2.02   5
   9   5  -2   10.73    7.24   3
   9   5   2    8.65    6.33   2
  -9  -5   2   -2.24    4.71   1
  -9  -5  -2    1.87    6.73   1
  -9   5  -2    0.40    4.68   5
  -9   5   2   -2.49    4.71   1
 -11  -5   2    3.64    4.46   5
 -11   5  -2    2.64    7.48   1
 -11   5  -2   -2.85    6.38   5
 -11  -5   2   -7.12    6.75   1
 -11   5   2   -7.92    5.36   5
  11  -5   2    4.86    7.65   2
  11  -5  -2   -0.30    5.76   2
  11   5  -2    5.46    8.70   2
  11   5   2   -2.97    7.15   2
 -11   5   2   -1.28    7.85   1
 -11  -5  -2    1.28    3.76   5
 -11  -5  -2    5.76    7.71   1
   0   6  -2 1037.44   40.90   4
   0  -6  -2  963.58   37.90   5
   0  -6   2 1097.47   57.71   2
   0   6   2 1032.68   40.93   3
   0  -6   2 1009.93   43.13   5
   0   6   2 1115.95   36.34   1
   0  -6   2 1039.45   34.49   1
   0  -6  -2 1009.72   49.22   2
   0   6  -2 1057.05   40.23   3
   0   6   2 1015.47   41.44   4
  -2  -6  -2 3071.46   83.53   5
   2  -6  -2 2983.47   96.36   2
  -2   6  -2 3113.42   86.80   3
  -2   6  -2 3140.46   96.18   4
   2   6   2 3127.09   85.90   1
   2   6  -2 3006.31   95.91   3
  -2  -6   2 3172.30   92.04   1
   2  -6   2 2940.56  105.60   2
  -2   6   2 3120.65   91.88   1
   2  -6   2 3082.76   96.04   5
  -2   6   2 3196.40   95.67   4
   2  -6   2 3210.32   92.97   1
   2   6  -2 3067.23   90.05   4
  -2  -6  -2 3064.57   87.10   5
   2  -6  -2 3039.44   92.06   5
   2   6   2 3035.60   96.13   3
  -2  -6   2 2955.48   92.71   5
  -2   6   2 3174.32   91.97   5
  -2  -6   2 2980.37  103.18   2
  -2  -6  -2 2992.79  101.87   2
   2   6   2 3110.82   93.20   4
   2  -6  -2 3126.94   91.44   3
   4  -6  -2  710.91   29.87   3
  -4  -6   2  740.10   30.11   5
  -4   6  -2  723.79   36.93   4
  -4  -6   2  733.64   38.82   2
   4   6   2  682.99   32.17   4
  -4  -6  -2  713.57   22.15   5
   4  -6  -2  713.52   33.20   5
   4   6   2  708.33   31.17   1
   4  -6  -2  696.75   35.37   2
   4  -6   2  703.82   37.90   2
  -4   6   2  705.17   35.26   4
  -4  -6  -2  662.15   35.32   2
   4  -6   2  750.18   36.18   1
  -4   6   2  764.31   36.33   1
   4   6   2  645.60   34.66   3
   4   6  -2  695.95   28.61   4
   4  -6   2  785.58   35.71   5
  -4  -6  -2  711.50   22.97   5
   4   6  -2  740.28   38.18   3
  -4  -6   2  753.10   33.14   1
  -4   6   2  708.67   34.57   5
   4  -6   2  759.86   22.46   3
   6   6  -2 1807.56   72.84   3
  -6  -6   2 1795.06   58.61   5
   6  -6   2 1719.84   73.32   1
   6   6   2 1824.06   63.33   4
  -6   6   2 1846.50   68.90   4
   6  -6   2 1823.35   73.11   2
  -6   6   2 1859.16   69.43   5
  -6   6  -2 1816.15   71.04   4
   6   6   2 1698.87   69.08   3
  -6   6   2 1859.28   74.76   1
   6   6  -2 1860.04   73.13   2
  -6  -6   2 1792.75   69.81   1
  -6  -6  -2 1806.39   68.87   1
   6  -6  -2 1863.33   71.38   2
   6   6   2 1734.60   69.21   2
  -8   6   2  407.52   29.01   4
  -8  -6   2  366.12   29.91   1
  -8  -6   2  385.30   22.26   5
   8  -6   2  357.39   33.45   2
  -8   6   2  393.78   33.99   1
   8   6   2  451.68   31.33   3
  -8  -6  -2  376.86   30.52   1
   8   6  -2  374.16   30.59   2
  -8   6  -2  326.08   34.16   1
   8   6  -2  409.37   31.92   3
  -8  -6  -2  371.47   15.84   5
  -8   6  -2  444.40   31.90   4
   8  -6  -2  352.82   33.34   2
  -8   6  -2  364.06   28.75   5
   8   6   2  321.00   30.78   2
  -8   6   2  472.98   32.91   5
 -10   6   2  781.69   55.56   1
  10  -6   2  847.88   53.09   2
  10   6  -2  855.79   53.60   2
  10  -6  -2  821.49   51.94   2
  10   6  -2  863.89   52.33   3
 -10  -6  -2  826.01   31.92   5
 -10  -6  -2  809.36   52.57   1
 -10   6  -2  822.52   49.45   5
 -10   6   2  852.87   50.77   5
 -10   6  -2  945.57   61.03   1
 -10  -6   2  813.36   38.66   5
 -10  -6   2  922.52   56.11   1
  10   6   2  802.03   50.72   2
 -12   6   2  273.28   33.95   5
  12   6   2  205.46   32.00   2
 -12  -6  -2  288.37   18.50   5
 -12  -6   2  305.07   39.76   1
  -1   7  -2    6.18    4.47   4
  -1  -7   2   22.28    7.14   5
  -1   7   2   21.00    4.85   1
   1  -7  -2   21.92    5.99   5
  -1  -7  -2   25.78   10.78   2
   1   7  -2   15.86    5.11   4
   1  -7   2   20.25    4.81   1
  -1  -7   2    4.91    8.55   2
   1   7   2   15.04    5.75   4
   1   7   2   30.07    8.33   3
  -1  -7   2   21.34    4.52   1
   1  -7   2   33.45   12.52   2
   1  -7  -2   14.78    6.79   2
   1   7  -2   15.46    5.75   3
   1  -7  -2   18.71    6.06   3
  -1   7   2   26.96    7.76   4
  -1   7   2   16.27    5.26   5
  -1   7  -2   32.16    7.10   3
   1  -7   2   17.98    6.54   5
  -1  -7  -2   22.14    5.72   5
   3  -7  -2   22.63    6.54   3
  -3   7   2   11.00    5.74   4
  -3  -7  -2   10.57    4.07   5
  -3  -7   2   10.33    4.51   5
   3   7  -2   11.71    5.97   3
  -3   7   2    8.16    4.11   5
   3  -7  -2    9.01    4.42   5
   3  -7   2   11.30    5.42   1
   3   7  -2    9.98    4.74   4
  -3   7   2   19.46    5.60   1
  -3   7  -2    4.37    4.81   4
   3  -7   2    9.67    4.72   5
  -3   7  -2    6.17    3.67   3
  -3  -7   2    8.73    6.59   2
   3   7   2   14.66    5.36   4
  -3  -7   2   14.32    4.90   1
   3   7   2   14.74    6.22   3
   3  -7  -2    1.74    3.77   2
   3  -7   2   17.11    7.72   2
  -3  -7  -2    6.90    5.78   2
   5  -7  -2   14.12    6.24   2
  -5  -7  -2    7.02    5.47   1
   5  -7   2   15.85    7.67   2
  -5  -7   2   19.51    5.66   5
  -5  -7  -2   26.67    8.75   2
  -5  -7   2   26.60    7.57   1
  -5   7   2   18.56    7.03   5
  -5   7   2   11.51    5.82   1
   5   7   2   19.24    6.22   4
   5   7  -2   13.16    6.29   3
   5   7   2   15.22    6.30   3
  -5   7  -2   10.31    6.87   4
  -5   7   2   24.31    8.88   4
  -5  -7  -2   15.90    3.66   5
  -5  -7   2    6.55    4.70   2
   5  -7  -2    7.36    4.24   3
   5  -7   2   20.72    8.18   1
   5   7  -2    7.21    4.03   4
   7   7   2   11.74    6.42   3
  -7   7  -2   12.33    7.20   4
   7   7   2    8.42    4.73   4
   7   7   2    4.61    5.64   2
   7   7  -2    1.47    4.70   3
  -7  -7  -2    7.12    2.59   5
   7   7  -2    0.65    4.28   2
  -7  -7   2    7.35    3.87   5
  -7   7  -2    9.34    5.85   5
   7  -7  -2    2.84    4.39   2
  -7   7   2    1.95    4.88   1
  -7   7   2    4.85    5.41   5
  -7   7   2    7.25    5.80   4
  -7   7  -2   16.63    7.45   1
  -7  -7   2    8.85    5.20   1
  -7  -7  -2    2.41    5.38   1
   7  -7   2    7.77    6.72   2
  -9   7   2    0.13    6.23   5
  -9  -7  -2    8.79    6.96   1
   9   7   2    3.81    7.47   2
  -9   7   2    6.03    6.51   1
   9   7  -2    7.24    7.25   2
  -9   7  -2    8.60    8.34   1
   9   7  -2   23.92    9.80   3
  -9  -7   2    5.82    4.32   5
   9  -7  -2    7.15    4.91   2
  -9   7  -2    3.13    5.20   5
  -9  -7  -2    2.93    2.89   5
  -9  -7   2    2.00    6.43   1
  -9   7  -2   -0.22    5.67   4
   9   7   2  -16.25    4.97   3
   9  -7   2    9.77    7.28   2
 -11   7   2    9.65    9.62   5
  11   7   2    1.57    9.84   2
  11  -7   2    7.20   10.03   2
  11   7  -2    5.16    9.85   2
 -11  -7  -2    0.66    3.42   5
 -11   7   2    3.99    8.46   1
 -11   7  -2    9.57    8.06   5
  11  -7  -2    4.20    7.36   2
 -11   7  -2   14.23   10.22   1
 -11  -7   2   13.09    5.37   5
   0  -8   2 2687.15  108.82   2
   0   8  -2 2502.77   85.83   4
   0  -8  -2 2562.78   97.98   2
   0   8   2 2687.33   88.37   4
   0  -8   2 2559.43   88.76   5
   0   8   2 2603.39   86.68   3
   0  -8   2 2749.93   73.59   1
   0   8  -2 2637.54   85.68   3
   0  -8  -2 2648.54   84.33   5
   2   8   2  360.04   24.93   4
  -2   8  -2  355.22   25.34   4
  -2   8   2  421.31   26.58   4
   2   8  -2  382.73   26.09   3
   2  -8   2  403.50   39.79   2
  -2   8  -2  367.20   21.01   3
  -2  -8   2  320.07   22.95   5
  -2  -8  -2  399.87   22.11   5
   2   8  -2  377.67   23.34   4
   2  -8   2  395.81   26.41   5
  -2  -8  -2  364.76   36.36   2
   2  -8  -2  368.07   23.01   3
   2  -8   2  376.17   19.99   1
   2   8   2  388.44   26.17   3
   2  -8  -2  353.56   27.38   2
  -2   8   2  384.74   22.97   5
   2  -8  -2  347.39   23.38   5
  -2  -8   2  332.32   36.26   2
  -2  -8   2  396.65   20.95   1
  -2   8   2  383.14   20.21   1
  -4   8  -2 2095.12   81.03   4
   4  -8  -2 2217.30   76.87   5
   4   8  -2 2130.29   81.14   3
   4  -8   2 2174.64   76.20   1
   4   8   2 2100.50   79.86   3
   4  -8  -2 2209.53   71.79   3
   4   8  -2 2145.18   71.47   4
  -4  -8  -2 2180.14   68.01   1
  -4  -8   2 1994.60   70.96   5
   4  -8  -2 2012.56   78.87   2
  -4   8   2 2193.79   75.85   1
  -4   8   2 2179.23   76.69   5
  -4  -8   2 1847.86   82.59   2
  -4   8   2 2148.54   78.71   4
  -4  -8   2 2239.09   72.09   1
  -4  -8  -2 2087.64   66.54   5
   4   8   2 2042.90   74.79   4
   4  -8   2 2056.23   85.59   2
  -4  -8  -2 2194.11   83.83   2
  -6   8  -2  346.29   27.99   1
  -6   8  -2  286.42   29.47   4
  -6   8   2  319.82   26.63   1
   6  -8   2  301.63   31.88   2
  -6   8   2  356.45   26.30   5
   6   8   2  310.27   29.74   3
   6   8   2  341.83   23.92   4
  -6   8  -2  316.19   28.85   5
   6   8  -2  307.45   30.88   3
  -6  -8   2  344.70   21.34   5
  -6  -8  -2  328.98   23.34   1
  -6  -8  -2  337.53   16.46   5
  -6  -8  -2  302.52   29.96   2
  -6   8   2  316.22   25.87   4
  -6  -8   2  329.06   23.69   1
  -6  -8   2  321.48   32.29   2
   6  -8  -2  319.13   30.80   2
  -8   8  -2 1169.45   59.73   5
   8  -8  -2 1183.10   62.30   2
  -8   8   2 1200.62   58.43   4
  -8  -8  -2 1175.06   38.98   5
  -8   8   2 1187.40   60.30   5
  -8   8  -2 1147.45   62.66   1
   8  -8   2 1177.19   62.54   2
  -8  -8   2 1179.17   47.20   5
   8   8   2 1269.97   61.44   3
  -8   8   2 1247.77   64.40   1
  -8   8  -2 1154.29   61.38   4
   8   8  -2 1158.00   61.46   3
  -8  -8   2 1015.86   60.64   2
 -10   8  -2  168.67   26.59   4
 -10  -8   2  197.86   19.44   5
 -10   8  -2  225.61   34.87   1
 -10   8   2  202.53   32.39   1
  10   8  -2  250.10   33.55   3
 -10   8   2  258.52   32.50   5
  10  -8  -2  222.04   31.73   2
  10   8   2  275.52   34.27   2
 -10   8  -2  204.66   28.00   5
 -10  -8  -2  193.56   13.49   5
  10  -8   2  189.04   30.71   2
   1  -9   2  184.66   21.56   5
  -1  -9   2  177.75   19.99   5
   1   9   2  178.22   20.54   3
   1   9  -2  168.58   19.67   3
   1   9   2  193.48   21.46   4
   1  -9  -2  199.88   20.35   3
  -1  -9   2  216.00   32.45   2
  -1  -9  -2  191.38   18.39   5
   1  -9   2  202.58   11.55   1
   1  -9   2  196.63   30.79   2
   1  -9  -2  216.79   28.08   2
   1  -9  -2  183.55   19.83   5
  -1   9  -2  198.19   18.58   3
  -1   9  -2  152.60   19.87   4
   1   9  -2  211.36   20.29   4
  -1   9   2  150.54   19.63   4
  -1  -9  -2  193.98   27.99   2
  -3   9  -2  115.16   18.27   4
  -3   9   2  141.65   19.49   4
   3   9  -2   92.49   15.75   3
  -3  -9  -2  119.77   13.79   5
   3   9  -2   97.81   14.98   4
  -3   9  -2  118.09   13.45   3
   3  -9  -2  163.74   17.54   3
   3   9   2  152.70   20.31   3
   3  -9  -2  111.81   19.24   2
   3  -9   2  143.84   24.51   2
   3   9   2  147.95   18.74   4
  -3  -9  -2  129.10   23.32   2
   3  -9   2  146.24   14.73   1
  -3  -9   2   99.85   14.87   5
  -3   9   2  140.04   14.54   1
   3  -9   2  114.25   17.97   5
  -3   9   2  137.94   16.95   5
   3  -9  -2  146.28   18.27   5
  -3  -9   2  156.52   26.26   2
   5   9  -2   96.27   17.55   3
  -5   9   2  113.82   16.95   1
  -5   9  -2  119.31   17.69   1
   5   9  -2  145.92   17.22   4
  -5   9   2  139.90   19.00   5
  -5   9  -2  130.58   18.89   5
  -5  -9   2  121.91   21.57   2
  -5   9   2  117.12   18.53   4
  -5   9  -2  129.30   20.14   4
  -5  -9  -2  134.83   21.78   2
  -5  -9   2  104.44   14.62   5
   5   9   2  108.26   18.57   3
  -5  -9  -2  126.92   13.09   5
   5  -9  -2  103.11   17.97   2
   5   9   2  110.71   16.59   4
   5  -9   2  110.46   21.28   2
  -7  -9  -2   51.84   14.38   2
   7  -9  -2   73.16   16.50   2
   7   9   2   43.79   12.16   3
  -7   9   2   71.48   15.57   5
  -7   9   2   67.26   14.01   4
   7  -9   2   73.26   17.64   2
  -7  -9   2   60.23   10.77   5
   7   9  -2   57.76   14.25   3
  -7   9  -2   64.04   15.08   1
  -7   9   2   57.39   13.72   1
  -7  -9  -2   56.71    8.58   5
  -7   9  -2   80.89   15.94   5
  -7  -9   2   50.27   14.93   2
  -7   9  -2   43.55   12.86   4
  -9   9   2   64.61   17.41   1
  -9  -9  -2   45.93    7.85   5
  -9  -9  -2   49.73   14.23   2
   9  -9  -2   47.16   14.26   2
   9  -9   2   63.17   17.03   2
   9   9   2   36.65   11.84   3
  -9   9  -2   50.59   13.96   5
   9   9  -2   77.86   18.11   3
  -9  -9   2   45.49   10.07   5
  -9   9  -2   54.42   16.03   1
  -9   9  -2   53.04   14.26   4
  -9   9   2   47.21   13.08   5
 -11   9   2   28.79   13.82   1
 -11  -9  -2   33.68    6.90   5
 -11  -9   2   38.66    9.00   5
 -11  -9   2   26.06   11.01   2
 -11   9  -2   33.89   14.34   5
 -11   9   2   15.75   13.42   5
 -11  -9  -2   29.49   11.84   2
 -11   9  -2   48.80   17.31   1
  11  -9  -2   19.75   11.13   2
  11  -9   2   42.11   16.09   2
   0 -10   2  696.30   50.22   2
   0 -10   2  618.06   37.77   5
   0  10  -2  757.44   37.94   3
   0  10   2  667.80   38.11   4
   0 -10  -2  747.74   48.22   2
   0  10  -2  720.11   38.14   4
   0  10   2  628.67   36.98   3
   0 -10  -2  677.95   36.29   5
   2 -10  -2 1411.31   59.94   5
  -2 -10   2 1403.15   59.76   5
  -2 -10  -2 1512.40   75.59   2
  -2  10  -2 1479.35   56.18   3
   2  10   2 1445.84   61.47   4
   2  10   2 1385.04   62.44   3
  -2 -10  -2 1417.39   55.52   5
   2 -10   2 1410.37   78.74   2
  -2  10  -2 1367.40   62.57   4
   2 -10   2 1448.64   63.25   5
  -2 -10   2 1440.78   76.37   2
   2 -10  -2 1473.27   59.37   3
   2 -10  -2 1515.28   71.23   2
  -2  10   2 1430.86   62.56   4
   2  10  -2 1477.89   59.82   4
   2  10  -2 1361.02   61.01   3
   4 -10  -2  544.58   39.09   2
   4  10  -2  595.39   34.32   4
  -4  10  -2  442.52   33.84   4
  -4  10  -2  561.84   31.02   1
  -4  10  -2  548.12   35.07   5
  -4 -10   2  542.45   32.33   5
  -4  10   2  515.32   35.41   4
   4  10  -2  608.57   38.74   3
  -4  10   2  571.92   31.12   1
  -4 -10   2  523.55   41.85   2
  -4 -10  -2  542.06   41.77   2
   4  10   2  547.66   36.62   3
   4 -10   2  587.56   45.46   2
   4 -10  -2  618.36   33.89   3
  -4 -10  -2  564.49   29.20   5
   4  10   2  513.38   33.92   4
  -6 -10   2  882.22   43.38   5
  -6 -10  -2  902.03   38.83   5
   6  10  -2  914.80   53.39   3
  -6 -10  -2  907.11   54.66   2
   6  10   2  933.75   47.90   4
   6 -10  -2  941.76   54.20   2
  -6  10  -2  928.42   52.72   4
  -6 -10   2  920.04   57.46   2
  -6  10  -2  955.79   51.94   5
  -6  10  -2  978.44   49.75   1
   6 -10   2  897.04   57.29   2
  -6  10   2  913.36   49.92   4
  -6  10   2  931.70   49.43   1
   6  10   2  917.99   52.74   3
   8 -10  -2  312.38   36.13   2
  -8 -10  -2  349.76   21.07   5
   8 -10   2  332.28   40.06   2
  -8 -10   2  296.71   38.12   2
  -8  10   2  373.18   36.92   1
  -8  10   2  337.11   34.09   4
  -8  10  -2  295.11   34.72   1
  -8  10  -2  337.37   36.69   4
   8  10   2  363.96   37.08   3
  -8 -10   2  381.33   25.25   5
  -8  10  -2  322.60   34.21   5
   8  10  -2  310.39   36.65   3
  -8 -10  -2  367.44   40.25   2
  10  10  -2  547.26   45.10   3
 -10  10  -2  482.70   44.40   5
  10 -10  -2  525.21   50.60   2
 -10 -10   2  500.56   30.65   5
  10  10   2  461.13   45.35   3
 -10 -10   2  465.80   49.14   2
 -10  10  -2  572.32   46.69   1
 -10  10   2  531.99   50.19   1
 -10  10  -2  548.79   44.20   4
  10 -10   2  553.82   54.48   2
 -10 -10  -2  533.58   50.35   2
 -10 -10  -2  486.24   26.10   5
  -1  11  -2   67.70   14.44   4
  -1  11   2   79.93   15.18   4
   1 -11   2   73.59   15.15   5
   1  11   2   77.67   15.28   4
   1 -11   2   52.78   16.79   2
  -1 -11  -2   80.68   14.18   5
   1  11   2   64.86   13.74   3
   1  11  -2   75.95   14.82   4
  -1  11  -2  100.57   16.38   3
   1 -11  -2   79.95   15.19   3
  -1 -11   2   78.04   20.03   2
  -1 -11  -2   75.54   18.52   2
   1 -11  -2  107.22   21.73   2
  -1 -11   2   87.44   14.88   5
   1  11  -2   87.11   15.68   3
   1 -11  -2   88.89   15.87   5
   3 -11  -2   82.56   14.53   3
   3  11   2   98.32   17.69   4
  -3  11   2   81.18   15.97   4
  -3 -11   2   65.92   13.24   5
  -3 -11  -2  109.47   22.57   2
   3  11  -2   65.28   13.20   4
   3 -11   2   79.19   16.90   5
   3 -11   2   55.05   17.79   2
   3 -11  -2   88.97   19.74   2
   3 -11  -2   62.90   13.97   5
   3  11  -2   96.56   17.94   3
  -3 -11   2   61.97   18.65   2
   3  11   2   75.32   15.74   3
  -3 -11  -2   95.22   14.26   5
  -3  11  -2   78.13   15.63   4
  -5  11  -2   49.40   14.35   4
   5  11  -2   42.67   12.40   3
   5 -11  -2   40.25   13.56   2
   5 -11   2   58.34   17.18   2
  -5 -11  -2   51.66   10.44   5
   5  11   2   39.66   11.78   3
  -5  11   2   52.22   13.33   4
  -5 -11  -2   45.19   15.01   2
  -5 -11   2   40.51    9.99   5
   5  11   2   47.64   12.65   4
  -5 -11   2   68.09   18.54   2
  -7 -11  -2   24.53    7.26   5
   7  11  -2   35.78   12.20   3
   7  11   2   25.14   10.20   3
  -7 -11   2   21.47   10.41   2
   7 -11  -2   34.60   12.27   2
  -7 -11   2   34.85    9.48   5
  -7  11  -2   27.45   11.43   4
  -7  11   2   25.60    9.71   4
  -7 -11  -2   43.93   14.25   2
   7 -11   2   34.57   13.96   2
  -9  11  -2   25.86   12.11   4
   9  11  -2   36.19   14.46   3
  -9 -11   2   25.22    8.45   5
  -9 -11  -2   16.13    8.30   2
   9  11   2   18.08   11.24   3
  -9 -11  -2   22.84    7.15   5
  -9 -11   2   10.37    8.15   2
   9 -11  -2   35.14   12.16   2
   9 -11   2   11.61   11.45   2
   0 -12  -2 1292.20   70.30   2
   0 -12  -2 1408.68   61.29   5
   0  12  -2 1407.55   61.63   3
   0  12   2 1293.70   61.17   3
   0  12  -2 1393.63   62.34   4
   0 -12   2 1370.65   63.13   5
   0 -12   2 1519.15   77.11   2
   0  12   2 1270.56   62.10   4
  -2 -12   2  374.34   27.98   5
  -2 -12   2  372.56   44.55   2
   2  12   2  367.71   30.11   3
   2 -12   2  361.42   45.76   2
  -2 -12  -2  316.66   24.76   5
  -2  12  -2  382.52   34.64   4
  -2 -12  -2  370.51   40.79   2
   2  12   2  408.08   31.34   4
   2 -12  -2  385.81   41.54   2
   2  12  -2  412.16   30.08   4
  -2  12   2  281.01   30.43   4
   2 -12   2  399.19   31.97   5
   2 -12  -2  372.88   29.08   5
   2 -12  -2  390.75   29.35   3
  -2  12  -2  400.45   27.46   3
   2  12  -2  353.21   32.74   3
   4  12   2 1220.15   61.79   3
  -4 -12  -2 1137.05   50.45   5
  -4 -12  -2 1098.17   69.66   2
  -4  12   2 1081.38   58.08   4
   4  12  -2 1182.24   57.62   4
   4  12  -2 1084.28   58.52   3
   4  12   2 1212.44   60.24   4
  -4 -12   2 1149.42   54.53   5
   4 -12  -2 1123.70   64.58   2
  -4 -12   2 1050.57   71.55   2
   4 -12   2 1125.15   74.60   2
  -4  12  -2 1183.75   62.39   4
   6 -12   2  302.28   43.52   2
  -6 -12  -2  298.74   22.14   5
  -6 -12   2  298.53   24.62   5
  -6  12   2  317.64   34.35   4
  -6 -12   2  336.06   44.49   2
   6  12   2  312.34   34.95   3
   6  12   2  401.02   36.76   4
   6  12  -2  325.76   36.23   3
  -6  12  -2  317.21   36.21   4
  -6 -12  -2  291.42   40.92   2
   6 -12  -2  316.48   38.15   2
  -8  12  -2  802.32   54.10   4
  -8  12   2  738.34   49.34   4
  -8 -12   2  616.51   58.10   2
   8 -12  -2  715.50   53.80   2
  -8 -12   2  688.04   40.81   5
   8 -12   2  731.58   60.04   2
  -8 -12  -2  664.24   34.78   5
  -8 -12  -2  772.46   56.65   2
   8  12   2  738.63   51.54   3
   8  12  -2  841.72   56.15   3
 -10 -12  -2  224.83   17.73   5
 -10  12  -2  182.21   29.01   4
  10  12  -2  325.68   42.61   3
 -10 -12  -2  218.63   34.73   2
  10  12   2  180.04   31.36   3
   1  13  -2  253.66   28.40   4
  -1 -13   2  295.85   29.61   5
   1 -13  -2  293.91   38.71   2
  -1 -13   2  237.42   35.49   2
   1  13  -2  279.13   29.60   3
   1  13   2  279.08   30.91   4
   1  13   2  269.26   30.04   3
  -1  13  -2  267.86   30.11   4
  -1  13   2  234.18   29.50   4
   1 -13   2  258.26   29.26   5
  -1  13  -2  270.27   27.13   3
  -1 -13  -2  255.04   26.57   5
   1 -13  -2  258.30   28.24   5
   1 -13  -2  292.90   30.09   3
  -1 -13  -2  244.11   33.21   2
   1 -13   2  238.86   36.66   2
   3 -13   2  212.46   36.23   2
  -3 -13  -2  186.27   22.00   5
  -3 -13   2  205.49   35.08   2
  -3 -13  -2  177.58   30.91   2
   3 -13  -2  245.14   26.70   3
   3  13   2  171.97   25.83   3
   3  13  -2  244.17   29.56   3
   3 -13  -2  209.89   27.56   5
  -3  13   2  177.84   25.90   4
   3  13  -2  216.53   27.52   4
   3 -13  -2  180.15   30.76   2
   3  13   2  215.73   27.89   4
  -3 -13   2  193.28   24.18   5
  -3  13  -2  184.35   27.07   4
   5 -13  -2  199.93   31.05   2
   5 -13   2  181.71   33.87   2
  -5 -13  -2  201.91   35.87   2
   5  13  -2  173.26   27.04   3
   5  13   2  180.42   27.60   4
  -5  13   2  157.78   25.44   4
  -5  13  -2  162.73   25.60   4
   5  13   2  202.84   29.37   3
  -5 -13   2  162.54   33.65   2
  -5 -13  -2  148.08   19.21   5
  -5 -13   2  189.76   23.75   5
  -7 -13  -2  125.47   16.66   5
   7  13   2  101.07   21.19   3
  -7 -13   2   99.47   16.84   5
   7 -13   2   77.81   22.28   2
   7  13  -2   94.92   21.57   3
  -7  13  -2   96.67   21.49   4
  -7 -13   2   91.94   23.31   2
  -7  13   2  120.05   22.25   4
   7 -13  -2   89.06   21.32   2
  -7 -13  -2   99.36   24.10   2
   9 -13  -2   81.29   20.33   2
   9 -13   2   34.52   19.73   2
  -9 -13   2   64.44   13.42   5
  -9 -13   2  107.98   24.38   2
  -9 -13  -2   70.00   12.12   5
  -9 -13  -2   75.80   18.61   2
  -9  13  -2   75.64   18.61   4
   9  13  -2   96.11   23.99   3
  -9  13   2   54.72   16.22   4
   9  13   2   61.53   19.63   3
   0 -14  -2  317.96   39.25   2
   0  14  -2  270.48   29.26   3
   0 -14  -2  273.36   30.45   5
   0  14   2  284.31   33.25   4
   0 -14   2  304.34   40.75   2
   0 -14   2  287.71   31.70   5
   0  14  -2  284.65   31.89   4
  -2 -14   2 1228.82   62.02   5
   2  14  -2 1318.08   64.81   4
  -2 -14  -2 1290.64   73.01   2
   2 -14  -2 1253.24   62.48   3
   2  14   2 1393.09   69.47   4
   2  14  -2 1128.44   62.60   3
  -2  14  -2 1296.70   66.51   4
  -2 -14  -2 1299.06   59.73   5
  -2  14   2 1167.19   64.34   4
  -2 -14   2 1322.46   77.90   2
   2  14   2 1303.63   66.32   3
   2 -14   2 1258.35   80.49   2
   2 -14  -2 1481.35   68.28   5
   2 -14  -2 1337.02   75.73   2
  -4 -14   2  168.90   32.76   2
  -4 -14   2  198.29   25.34   5
   4  14   2  228.07   31.11   4
  -4 -14  -2  181.21   32.92   2
  -4 -14  -2  229.13   24.36   5
  -4  14  -2  257.15   33.44   4
   4  14   2  212.84   29.53   3
   4 -14   2  274.97   43.55   2
   4  14  -2  293.53   35.04   3
   4 -14  -2  250.01   36.05   2
  -4  14   2  232.34   31.01   4
   6  14  -2  779.47   55.27   3
  -6 -14  -2  841.25   42.25   5
  -6 -14   2  909.66   71.36   2
  -6 -14   2  885.28   48.39   5
   6 -14   2  687.87   68.47   2
  -6 -14  -2  789.67   64.31   2
   6  14   2  764.84   54.06   3
  -6  14  -2  786.87   53.11   4
   6 -14  -2  858.82   61.01   2
  -6  14   2  811.15   54.23   4
  -8  14  -2  168.41   28.57   4
  -8 -14  -2  173.05   19.75   5
   8  14   2  228.98   35.43   3
  -8  14   2  164.37   27.92   4
   8 -14   2  133.81   30.02   2
  -8 -14   2  138.56   20.46   5
   8  14  -2  186.08   32.48   3
   8 -14  -2  207.94   34.45   2
  -8 -14  -2  170.58   32.08   2
  -8 -14   2  178.87   36.34   2
   1  15  -2   39.74   12.54   4
  -1 -15   2   36.75   14.37   2
   1  15   2   31.81   11.71   3
  -1  15   2   36.76   12.68   4
  -1 -15  -2   34.57   10.58   5
   1 -15   2   51.25   14.12   5
   1  15  -2   27.70   10.43   3
   1 -15  -2   34.82   12.36   3
   1 -15  -2   24.51   13.22   2
  -1  15  -2   34.44   11.27   3
   1  15   2   39.95   12.78   4
   1 -15  -2   56.87   14.77   5
   1 -15   2   30.86   13.20   2
  -1  15  -2   28.21   11.43   4
  -1 -15  -2   57.87   16.14   2
  -1 -15   2   39.75   11.80   5
  -3  15  -2   17.56    9.66   4
  -3 -15  -2   29.86    9.04   5
  -3 -15   2   30.21   13.56   2
   3  15  -2   60.49   16.45   4
   3 -15  -2   44.25   18.08   2
   3 -15   2   23.64   15.92   2
  -3 -15   2   22.05    8.97   5
   3  15   2   43.62   13.79   3
  -3  15   2   20.71   10.19   4
   3  15   2   42.61   13.24   4
  -3 -15  -2   42.45   15.61   2
   3  15  -2   38.63   12.19   3
   5 -15   2    3.99   10.30   2
  -5 -15   2   27.39   13.99   2
  -5 -15   2   15.40    8.20   5
   5 -15  -2   28.53   12.48   2
   5  15   2   24.08   11.55   4
  -5  15   2   17.22    9.12   4
   5  15  -2   12.31   10.64   3
  -5 -15  -2   14.89   12.88   2
  -5  15  -2   16.19   11.29   4
  -5 -15  -2   41.58   10.78   5
   5  15   2   10.47    8.31   3
  -7 -15  -2    9.81    6.48   5
  -7  15   2   17.97   10.73   4
  -7  15  -2   13.78   10.40   4
  -7 -15   2   26.30    9.76   5
   7  15  -2   15.39   10.60   3
   7  15   2   23.89   15.49   3
   7 -15   2   12.20   11.03   2
   7 -15  -2    9.48   10.42   2
  -7 -15  -2   32.37   13.73   2
  -7 -15   2   26.22   13.18   2
   0  16   2  521.54   41.72   4
   0 -16  -2  577.85   43.04   3
   0 -16  -2  501.95   38.42   5
   0 -16   2  526.65   39.87   5
   0 -16  -2  598.48   55.27   2
   0  16  -2  486.94   39.89   4
   0  16  -2  457.86   36.63   3
   0 -16   2  516.44   52.37   2
  -2 -16   2  323.17   34.18   5
   2 -16  -2  397.83   38.10   3
   2 -16  -2  384.09   46.68   2
  -2 -16  -2  255.51   37.32   2
  -2 -16   2  298.83   41.83   2
   2  16   2  448.29   43.60   4
  -2 -16  -2  300.80   32.29   5
   2 -16   2  397.22   51.86   2
   2  16  -2  357.60   38.44   4
   2  16  -2  339.96   37.58   3
   2  16   2  276.59   35.64   3
  -2  16  -2  332.81   39.10   4
  -2  16   2  343.95   39.61   4
  -4 -16  -2  442.06   33.31   5
   4 -16   2  474.25   59.31   2
   4  16   2  457.20   45.46   3
  -4 -16   2  418.38   34.50   5
  -4 -16   2  424.24   53.21   2
   4  16  -2  478.96   46.72   3
   4 -16  -2  494.69   53.79   2
  -4 -16  -2  504.67   54.80   2
   4  16   2  523.68   48.14   4
  -4  16  -2  435.01   44.73   4
  -4  16   2  451.97   45.10   4
  -6 -16  -2  304.00   46.55   2
  -6 -16   2  253.89   43.51   2
  -6  16   2  269.38   35.89   4
  -6 -16  -2  226.93   25.63   5
   6  16   2  326.50   41.12   3
   6  16  -2  293.28   38.75   3
   6 -16   2  192.93   37.76   2
  -6 -16   2  256.51   30.46   5
   6 -16  -2  224.44   37.97   2
  -6  16  -2  302.07   40.17   4
  -1 -17  -2   96.65   22.71   2
   1 -17   2   49.39   18.07   2
   1 -17  -2   25.81   13.11   2
  -1  17   2   60.95   18.65   4
   1  17  -2   70.33   17.66   4
  -1  17  -2  110.61   22.49   4
   1 -17  -2   53.29   16.99   3
   1 -17  -2   39.42   12.62   5
   1  17  -2   29.33   11.45   3
   1  17   2   25.97   13.76   4
  -1 -17   2   61.49   19.04   2
  -1 -17  -2   41.54   14.91   3
  -1 -17   2   45.62   14.21   5
  -1 -17  -2   63.48   16.27   5
  -3 -17  -2   44.58   17.20   2
   3  17  -2   29.40   13.38   3
   3 -17   2   28.78   14.58   2
   3  17   2   36.83   14.12   4
  -3  17  -2   51.81   16.83   4
  -3 -17  -2   43.44   12.28   5
  -3 -17   2   20.45   13.27   2
   3 -17  -2   18.21   13.58   2
   3  17   2   27.31   12.00   3
  -3  17   2   24.64   10.32   4
  -3 -17   2   39.25   12.69   5
   5  17  -2   35.75   12.97   3
  -5 -17   2   17.79    9.84   5
  -5 -17  -2   31.48   10.89   5
   5 -17  -2   80.51   20.90   2
  -5 -17  -2   23.94   14.64   2
   5 -17   2   38.20   19.23   2
  -5  17  -2   41.80   13.89   4
  -5  17   2   54.93   15.21   4
  -5 -17   2   55.27   18.75   2
   0  18   2  165.83   29.25   4
   0 -18  -2  164.06   31.03   2
   0  18  -2  171.94   28.41   4
   0 -18  -2  182.71   28.97   5
   0 -18  -2  181.71   31.06   3
   0 -18   2  172.94   32.03   2
  -2  18  -2  732.20   53.67   4
   2  18   2  642.87   50.04   4
  -2 -18   2  666.37   46.79   5
  -2 -18  -2  574.22   54.47   2
   2  18  -2  622.29   47.07   3
  -2 -18  -2  713.94   54.60   3
  -2 -18  -2  594.78   44.67   5
  -2  18   2  704.02   53.70   4
   2 -18   2  550.10   60.18   2
   2 -18  -2  712.45   56.25   2
   2  18  -2  720.61   51.08   4
  -2 -18   2  635.70   60.03   2
  -4 -18  -2  117.21   26.93   2
   4  18   2  177.41   32.74   4
  -4 -18   2  144.62   23.98   5
   4 -18  -2  178.66   35.26   2
  -4 -18   2  141.46   27.63   2
   4  18  -2  125.52   24.20   3
   1  19   2   -4.23   10.14   4
   1 -19  -2   17.15   11.93   2
  -1  19  -2    5.16   12.09   4
  -1 -19  -2   -5.00    9.31   5
  -1 -19  -2   -5.08    9.78   2
  -1 -19  -2   14.98   13.81   3
  -1 -19   2    1.37    8.40   5
   1  19  -2   10.76    8.60   3
   1  19  -2    3.10   11.47   4
  -3 -19  -2    1.86    8.54   2
   3  19   2   -7.62   10.89   4
  -1   0  -3    1.27    2.33   3
  -1   0   3    1.61    4.12   1
   1   0   3   -0.34    1.52   2
   1   0   3    1.75    4.50   1
   1   0  -3   -1.70    2.47   3
  -1   0   3    1.30    2.57   5
   1   0  -3   -3.95    1.74   2
   1   0   3   -2.66    2.29   4
  -1   0   3    1.64    1.91   4
  -1   0  -3   -2.01    2.53   5
  -3   0   3    4.84    4.14   1
   3   0  -3    5.69    3.24   3
   3   0   3    0.31    2.02   2
  -3   0  -3    1.11    2.77   4
  -3   0   3    6.43    2.12   4
  -3   0  -3    0.59    1.97   5
   3   0  -3    5.42    3.48   2
  -3   0  -3    3.14    2.53   3
  -3   0   3    0.68    2.28   5
   3   0   3    7.39    4.38   1
  -5   0   3    2.31    2.55   4
   5   0   3   -1.46    1.53   2
   5   0  -3    6.57    3.60   3
  -5   0  -3   -0.99    2.30   4
  -5   0   3    3.56    4.37   1
  -5   0   3    2.50    2.34   5
  -5   0  -3   -0.70    1.68   5
   5   0   3    0.02    2.01   3
   5   0  -3   -1.75    2.87   2
   5   0   3    5.93    4.57   1
   7   0   3    0.35    4.13   1
  -7   0  -3    0.72    3.44   4
   7   0   3    4.54    4.12   2
  -7   0   3   -1.80    2.80   1
   7   0  -3    0.23    3.34   3
   7   0  -3    0.93    2.79   2
  -7   0   3    1.06    2.34   5
  -9   0  -3   -5.41    2.50   5
  -9   0  -3    1.09    4.88   1
  -9   0  -3    3.18    4.27   4
  -9   0   3    1.09    2.80   5
  -9   0   3    0.68    5.10   1
   9   0  -3    3.05    3.99   2
   9   0   3   -0.35    3.83   2
  11   0   3    4.23    7.08   2
  11   0  -3    9.01    6.97   2
 -11   0   3    4.36    8.33   1
 -11   0  -3   10.43    8.96   1
 -11   0  -3    0.77    3.31   5
 -11   0   3    2.88    5.10   5
   0   1  -3  972.09   28.85   4
   0  -1   3  963.41   33.31   5
   0  -1   3  854.53   42.76   1
   0  -1   3  903.48   36.04   2
   0   1   3  998.93   29.87   4
   0  -1  -3  947.47   30.75   3
   0   1  -3 1002.81   30.07   3
   0  -1  -3  978.46   26.06   2
  -2  -1  -3 1468.21   44.36   3
   2  -1   3 1459.67   52.98   1
  -2  -1  -3 1477.70   39.55   5
  -2  -1   3 1461.87   51.72   1
   2   1  -3 1500.68   45.82   2
   2  -1  -3 1420.83   45.09   3
  -2   1  -3 1507.11   40.39   3
   2  -1  -3 1445.03   43.69   2
  -2   1  -3 1442.58   44.71   5
  -2   1   3 1442.02   41.72   4
   2   1  -3 1511.46   47.28   3
  -2   1  -3 1504.54   45.76   4
  -2   1   3 1487.03   51.95   1
   2   1   3 1433.79   51.62   1
   2  -1   3 1509.28   44.11   2
  -2  -1   3 1450.56   45.35   5
   2   1   3 1537.82   42.07   2
   2   1   3 1484.12   45.50   4
  -4   1   3  706.50   34.53   1
   4  -1   3  711.39   35.88   1
   4   1   3  704.79   34.76   1
   4   1   3  688.50   28.18   2
  -4   1   3  736.09   29.61   5
   4   1  -3  737.09   30.74   2
  -4   1   3  734.14   25.62   4
   4  -1  -3  723.59   30.17   2
   4   1   3  762.82   27.74   3
   4   1  -3  738.89   31.85   3
  -4   1  -3  722.02   26.25   5
  -4  -1  -3  722.88   29.25   4
  -4   1  -3  728.28   30.05   4
   4  -1   3  726.30   29.57   2
   4  -1  -3  699.31   29.23   3
  -4  -1   3  699.97   34.76   1
  -4  -1  -3  732.20   20.87   5
  -4   1  -3  741.86   22.50   3
  -4  -1   3  696.01   28.08   5
   6  -1   3  453.53   31.38   1
  -6  -1  -3  441.52   24.28   4
   6  -1  -3  415.45   25.83   2
   6  -1   3  439.11   17.37   3
  -6   1   3  445.53   20.63   4
   6   1   3  432.97   24.57   2
   6   1  -3  433.47   26.14   3
   6  -1  -3  391.29   23.35   3
  -6   1   3  394.30   29.29   1
   6   1  -3  442.42   25.86   2
  -6   1   3  453.97   24.33   5
  -6  -1   3  455.01   30.16   1
  -6  -1  -3  428.34   17.29   5
   6   1   3  444.15   21.60   3
  -6   1  -3  441.03   25.41   4
   6   1   3  365.42   27.57   1
   6  -1   3  459.16   25.53   2
  -6  -1   3  441.95   23.02   5
  -8   1   3  343.03   23.10   5
   8   1  -3  326.40   24.81   3
   8   1  -3  359.53   26.76   2
   8  -1  -3  342.17   23.39   3
   8   1   3  338.90   33.45   1
  -8  -1   3  342.85   22.46   5
  -8   1   3  338.28   33.57   1
   8  -1   3  337.04   34.21   1
  -8   1  -3  282.46   22.69   4
   8  -1  -3  323.44   25.86   2
   8  -1   3  304.57   24.33   2
  -8  -1  -3  339.37   23.36   4
   8   1   3  283.68   22.99   2
  -8  -1   3  345.19   33.42   1
  10   1   3  129.11   20.82   2
 -10   1   3  114.50   23.41   1
 -10  -1  -3   89.00   19.89   1
 -10  -1   3  111.58   16.86   5
  10  -1  -3   90.13   17.82   2
 -10  -1   3  140.78   25.48   1
  10  -1   3  134.71   21.79   2
  10   1  -3   84.23   17.00   2
 -10  -1  -3  119.39   15.04   5
 -10   1   3  106.01   17.07   5
 -10   1  -3  107.13   15.78   5
 -10   1  -3  130.65   24.90   1
 -12   1   3   53.46   14.27   5
 -12   1  -3  106.03   24.98   1
 -12  -1  -3   76.98   12.88   5
 -12   1  -3   56.59   11.64   5
  12  -1  -3   58.64   16.41   2
 -12  -1   3   67.12   14.68   5
 -12  -1  -3  112.28   26.07   1
 -12  -1   3   94.08   23.87   1
  12   1   3   97.51   20.37   2
  12   1  -3   55.61   16.96   2
  12  -1   3  106.18   23.02   2
  -1  -2   3   20.50    4.93   5
  -1   2  -3   21.27    3.78   3
   1  -2  -3   20.41    3.90   2
   1   2  -3   20.45    3.52   4
   1  -2   3   10.92    5.35   1
  -1  -2  -3   20.24    4.02   2
   1   2   3   24.69    6.76   1
  -1  -2  -3   19.61    3.11   5
  -1  -2  -3   18.38    5.03   3
  -1  -2  -3   16.57    3.36   5
   1   2   3   14.58    4.36   4
  -1  -2   3   22.91    5.51   2
  -1  -2   3   10.82    6.10   1
  -1   2   3   18.60    5.93   1
  -1   2  -3   15.84    4.41   4
  -1   2   3   23.95    4.89   4
   1  -2  -3   25.64    4.73   5
   1   2  -3   16.15    4.76   3
   1  -2   3   16.97    5.31   2
  -1   2   3   17.35    4.59   5
   1  -2  -3   15.93    4.39   3
   1  -2   3   30.65    6.91   5
  -3   2   3    6.12    3.36   5
   3   2  -3   -0.14    2.51   3
  -3   2   3    5.02    3.94   1
   3  -2  -3   -1.97    2.22   2
   3   2   3   -3.07    1.70   2
   3   2   3   -1.96    1.61   4
  -3   2   3    3.09    2.78   4
   3  -2   3    1.93    4.13   1
   3  -2  -3   -1.65    1.78   3
  -3  -2   3   -0.59    2.90   1
   3   2   3    2.07    2.48   3
   3  -2   3   -0.78    2.03   2
  -3  -2   3   -2.19    1.62   5
  -3   2  -3    1.38    2.77   4
   3   2  -3    4.85    3.86   2
   3   2   3    1.67    2.95   1
   5  -2  -3   23.93    5.78   3
   5  -2   3   35.94    9.84   1
  -5   2  -3   21.61    5.51   5
  -5  -2   3   22.17    5.53   5
  -5   2   3   33.74    7.77   5
  -5   2   3   25.41    5.96   4
   5  -2  -3   37.06    8.47   2
  -5  -2   3   20.77    7.43   1
   5   2  -3   27.49    7.18   2
   5  -2   3   13.97    5.41   2
   5   2  -3   16.46    6.42   3
   5   2   3   34.28    7.12   3
   5   2   3   18.86    7.19   1
  -5   2   3   25.31    8.16   1
  -5  -2  -3   22.69    6.19   4
  -5   2  -3   27.11    6.89   4
   5   2   3   15.50    5.16   2
   7   2  -3    2.45    2.97   2
   7   2   3    0.39    3.14   2
  -7   2  -3    0.10    3.90   4
   7   2  -3   -0.51    3.66   3
   7   2   3    5.01    5.15   1
  -7  -2  -3    4.52    4.07   4
  -7   2   3   -1.92    2.63   5
  -7   2   3   -1.60    4.42   1
  -7  -2   3    1.67    3.85   1
   7  -2  -3   -4.46    3.16   3
   7  -2   3   -1.84    2.77   2
   7  -2   3    8.34    5.67   1
   7  -2  -3   -2.05    3.04   2
   7   2   3   -0.85    3.08   3
  -7  -2   3    6.48    3.63   5
  -7  -2  -3    2.05    2.32   5
   9   2  -3   -0.28    3.95   2
  -9  -2   3    2.71    3.65   5
  -9   2  -3    0.48    3.87   5
   9   2   3   -2.95    4.26   2
   9  -2  -3    5.01    5.06   2
   9   2  -3    0.58    5.20   3
  -9   2   3   -4.86    2.95   5
  -9  -2  -3    7.78    6.85   1
  -9   2   3    0.05    4.58   1
  -9  -2   3   -3.26    4.19   1
  -9   2  -3   17.66    9.12   1
   9  -2   3    4.96    5.36   2
  -9  -2  -3    3.54    2.82   5
  -9   2  -3    1.79    4.97   4
 -11  -2  -3    8.27    8.90   1
 -11  -2   3   -7.20    6.46   1
  11  -2   3    7.86    7.96   2
  11   2   3    0.73    6.47   2
 -11  -2   3    7.12    6.26   5
 -11   2  -3   -1.99    7.75   1
 -11   2   3   13.53    9.52   1
 -11   2   3    9.12    6.60   5
 -11  -2  -3   10.61    3.94   5
  11  -2  -3   -5.82    5.20   2
 -11   2  -3    1.66    5.53   5
  11   2  -3   -6.07    6.23   2
   0   3  -3    6.20    3.24   4
   0  -3   3    3.16    4.11   5
   0  -3  -3   10.99    3.24   5
   0   3   3    3.48    6.48   1
   0  -3  -3    7.41    3.75   3
   0   3  -3   11.08    4.12   3
   0  -3   3   16.79    6.67   1
   0  -3   3   15.06    7.96   2
   0  -3  -3   12.65    3.96   2
   0   3   3   14.79    4.46   4
   2   3   3  184.04   10.99   2
  -2   3   3  178.72   12.28   5
   2  -3   3  188.77   13.25   5
   2   3  -3  186.99    9.19   4
   2  -3  -3  179.17   11.58   2
  -2  -3   3  188.23   12.39   5
   2  -3   3  196.92   13.81   2
  -2   3   3  218.87   13.01   4
   2   3   3  183.20   12.45   4
  -2   3  -3  211.04   13.71   4
  -2   3   3  205.10   14.50   1
   2   3  -3  188.00   13.93   3
   2  -3  -3  177.20   11.64   3
   2   3   3  209.39   13.42   1
   2   3   3  193.44   13.10   3
   2  -3   3  196.62   14.99   1
  -2   3  -3  189.96    8.67   3
   2  -3  -3  191.46   11.96   5
   2   3  -3  192.29   13.95   2
  -2  -3   3  173.53   13.96   1
  -4   3   3   54.04    9.28   5
   4  -3   3   41.45   10.11   1
   4   3   3   29.25    7.43   1
   4  -3  -3   32.12    6.29   3
  -4   3   3   23.19    6.96   1
  -4   3  -3   48.15    9.26   4
   4   3  -3   33.30    7.97   2
   4   3   3   39.26    7.73   3
  -4  -3   3   53.41   10.57   1
   4  -3   3   24.80    6.64   2
   4   3   3   33.13    6.90   4
   4   3  -3   24.18    7.14   3
  -4   3   3   50.95    8.12   4
   4  -3  -3   25.72    6.99   2
  -4  -3   3   35.72    6.43   5
   4   3   3   38.72    7.27   2
   6   3   3   22.10    6.02   2
  -6   3   3   15.34    5.63   5
   6  -3  -3   15.84    5.11   3
   6  -3  -3   20.27    7.16   2
   6  -3   3   27.94    7.71   2
   6   3  -3   22.91    8.02   2
  -6  -3  -3   26.16    6.43   4
  -6   3  -3   18.47    7.08   4
  -6  -3   3   27.92    6.43   5
  -6   3   3   31.96    7.76   4
   6   3   3   21.62    7.52   1
  -6  -3   3   32.95    9.40   1
   6   3   3   31.66    8.18   3
  -6   3   3   24.81    8.70   1
   6  -3   3   38.50   10.99   1
   6   3  -3   30.92    7.98   3
   8  -3  -3   37.36   10.55   2
  -8  -3  -3   32.19    8.41   4
   8   3  -3   47.67   11.19   3
  -8   3  -3   33.38    9.07   4
  -8   3   3   45.23   11.01   5
   8   3   3   34.42    9.65   2
   8   3  -3   47.78   11.80   2
  -8   3   3   42.19   13.09   1
  -8  -3   3   34.31    7.48   5
   8  -3   3   29.69    9.77   2
  -8  -3   3   44.65   12.02   1
   8  -3   3   49.86   14.18   1
 -10  -3   3   10.41    5.54   5
 -10   3   3   -3.04    6.17   1
 -10   3  -3    3.56    5.24   5
 -10   3  -3  -11.01    5.20   1
 -10   3   3    2.31    5.15   5
 -10  -3  -3    5.85    7.50   1
 -10  -3   3    8.36    7.88   1
  10  -3  -3    8.73    6.75   2
 -10  -3  -3    1.87    2.83   5
  10   3   3    3.04    6.35   2
  10   3  -3    4.88    6.01   2
  10  -3   3   21.12    8.39   2
 -12   3  -3   10.17    8.32   5
 -12  -3   3   -5.13    8.28   1
  12   3   3   -0.77    8.81   2
 -12   3   3   34.28   14.21   1
  12  -3   3   18.14   11.31   2
  12  -3  -3    4.89    5.94   2
 -12  -3   3   -8.21    4.99   5
 -12  -3  -3    0.09    3.93   5
  12   3  -3   -3.75    9.14   2
 -12   3  -3    6.78   11.29   1
 -12   3   3    1.94    6.96   5
 -12  -3  -3   -3.02    8.59   1
  -1   4  -3  131.25   12.21   4
   1   4  -3  125.81    9.39   4
   1  -4  -3  106.67   10.05   2
  -1   4   3  118.12    9.63   5
  -1   4  -3  118.19    8.75   3
   1  -4  -3  107.82   10.75   3
   1  -4   3  119.14   14.05   5
   1  -4  -3  111.64    9.37   5
  -1  -4  -3  139.65    8.31   5
   1  -4   3  121.28   12.03   1
  -1  -4  -3  143.96    8.67   5
   1   4  -3  109.54   11.44   3
  -1  -4   3  139.29   15.15   1
   1   4   3  122.58   12.15   3
   1   4   3  123.94    9.97   1
  -1   4   3  109.25   11.70   1
  -1  -4   3  118.62   12.55   5
   1  -4   3   92.61   15.34   2
  -1  -4   3  149.95   17.80   2
  -1  -4  -3   97.13   14.17   2
  -1   4   3   96.64   10.84   4
   1   4   3  106.01   10.93   4
   3   4  -3  184.38   17.03   2
   3   4  -3  187.81    9.58   4
   3  -4   3  176.56   14.48   2
  -3   4   3  185.83   15.15   1
   3  -4  -3  204.06   13.66   5
   3  -4   3  196.86   14.47   5
   3  -4  -3  195.47   13.90   2
  -3   4  -3  177.80   14.65   4
   3   4   3  151.65   12.31   1
   3   4   3  174.93   12.63   2
  -3  -4   3  153.21   11.63   5
  -3  -4   3  195.93   15.29   1
  -3   4   3  182.57   14.00   5
   3  -4   3  220.53   17.11   1
   3   4  -3  173.93   16.38   3
   3   4   3  162.27   15.49   3
   3   4   3  169.79   12.72   4
   3  -4  -3  152.53   11.60   3
  -3   4   3  173.42   13.74   4
   5   4   3   37.28    8.66   3
  -5   4  -3   30.47    8.30   4
  -5  -4   3   33.02    6.60   5
   5   4   3   33.04    7.13   4
  -5  -4   3   36.92    9.33   1
   5  -4   3   34.71    8.52   2
   5  -4   3   37.04   10.33   1
   5   4   3   52.23    9.81   2
   5   4  -3   34.62    9.09   2
  -5   4   3   25.40    6.73   5
   5   4  -3   42.18    9.97   3
  -5   4   3   42.72    8.90   4
   5  -4  -3   35.82    7.02   3
  -5   4   3   34.11    9.05   1
   5  -4  -3   49.65   10.51   2
   5   4   3   33.69    8.38   1
   7  -4   3   66.64   15.04   1
   7   4  -3   46.69   11.27   2
  -7   4  -3   64.43   12.93   4
  -7   4   3   68.98   13.24   5
   7  -4  -3   59.63   12.22   2
  -7   4   3   84.60   13.72   4
  -7  -4  -3   76.86   11.99   4
  -7   4   3   54.14   13.39   1
   7  -4   3   42.70   11.11   2
   7   4   3   81.48   15.61   1
   7   4  -3   60.82   13.37   3
   7   4   3   44.20    9.80   3
   7   4   3   54.82   11.27   2
  -7  -4   3   48.23   12.06   1
  -7  -4   3   56.60    9.40   5
  -9   4   3    3.85    6.51   5
   9  -4  -3   25.53    9.49   2
   9   4   3   31.31   10.31   2
  -9   4  -3   28.07    8.83   5
  -9   4   3   14.12    8.18   1
   9   4  -3   25.56    9.64   2
  -9   4  -3   21.69   10.04   1
  -9   4  -3   27.57    9.72   4
  -9  -4  -3   22.42   10.27   1
  -9  -4  -3   21.21    4.26   5
  -9  -4   3   21.60    9.35   1
  -9  -4   3   23.24    7.03   5
   9  -4   3   25.16   10.04   2
   9   4  -3   36.48   11.21   3
 -11  -4  -3   -0.06    3.60   5
 -11   4  -3    7.71    9.66   1
  11  -4  -3   15.15    9.53   2
  11   4   3    0.85    7.48   2
  11   4  -3    9.00    9.09   2
 -11   4  -3   19.59    8.89   5
 -11  -4  -3    2.93    8.89   1
 -11  -4   3    6.40    5.04   5
 -11   4   3   12.60   10.30   1
 -11  -4   3    3.85    7.76   1
  11  -4   3    5.09    7.99   2
 -11   4   3    5.78    6.11   5
   0  -5   3 2584.74   83.93   5
   0  -5  -3 2511.81   82.20   2
   0   5  -3 2602.94   77.84   4
   0  -5  -3 2508.32   79.27   3
   0  -5   3 2546.95   80.64   1
   0  -5  -3 2560.42   75.36   5
   0   5  -3 2431.57   76.70   3
   0   5   3 2593.04   78.98   4
   0   5   3 2900.59   89.33   1
   0  -5   3 2639.89  100.30   2
  -2  -5   3  955.56   39.37   1
   2  -5   3 1036.34   41.93   5
   2  -5   3  966.45   39.25   1
  -2   5  -3  946.21   39.59   4
  -2   5  -3 1001.09   32.54   3
  -2  -5   3  974.18   38.31   5
  -2  -5  -3  995.12   41.20   2
  -2  -5  -3  958.45   29.46   5
   2   5  -3  934.06   40.08   3
   2  -5  -3  931.19   37.04   2
   2  -5   3  901.02   44.75   2
   2   5   3  951.39   38.18   4
  -2   5   3  973.62   38.91   4
  -2  -5  -3  991.96   31.39   5
   2   5   3  989.29   35.18   1
   2   5   3  947.90   39.68   3
   2  -5  -3  999.52   37.41   3
  -2  -5   3  966.55   44.01   2
  -2   5   3  981.60   38.75   1
   2   5  -3  963.18   34.70   4
   4   5  -3 1641.93   64.94   2
   4  -5  -3 1869.99   61.41   5
   4   5  -3 1816.02   51.72   4
  -4  -5   3 1861.73   58.65   5
   4   5   3 1816.54   64.69   3
  -4   5   3 1734.47   61.50   4
   4   5  -3 1784.35   66.63   3
   4   5   3 1855.17   62.94   1
   4  -5  -3 1792.16   58.54   3
  -4  -5   3 1842.27   65.36   1
   4  -5  -3 1799.94   63.75   2
   4   5   3 1650.60   59.87   4
  -4   5  -3 1817.45   65.74   4
   4  -5   3 1790.67   67.47   1
   4  -5   3 1796.45   65.45   2
  -4   5   3 1792.03   66.52   1
  -4   5   3 1733.25   62.71   5
   4   5   3 1837.32   62.80   2
  -6  -5   3  384.46   21.90   5
   6   5   3  462.39   26.02   4
   6  -5  -3  398.92   22.06   3
   6   5  -3  491.30   31.33   3
   6  -5   3  441.31   32.07   1
   6   5   3  439.09   28.38   1
  -6   5   3  413.54   29.88   1
  -6   5   3  435.79   26.55   4
   6   5  -3  451.59   29.89   2
   6   5   3  454.17   28.52   3
   6   5   3  405.01   25.98   2
  -6   5  -3  458.31   30.31   4
   6  -5  -3  434.61   28.04   2
   6  -5   3  408.35   28.14   2
  -6  -5   3  440.59   29.31   1
  -6   5   3  406.82   26.89   5
  -8  -5   3  728.42   44.61   1
   8   5  -3  740.10   44.03   3
  -8  -5   3  659.62   32.43   5
  -8  -5  -3  701.68   23.34   5
   8   5  -3  715.80   42.73   2
  -8   5   3  719.49   41.59   5
   8  -5   3  619.54   39.83   2
   8  -5  -3  666.21   41.02   2
   8  -5   3  651.21   45.67   1
   8   5   3  726.98   40.77   2
  -8   5   3  716.64   46.18   1
   8   5   3  707.39   39.19   3
  -8   5  -3  757.70   42.62   4
  -8  -5  -3  734.36   43.94   1
  10   5  -3  136.97   24.18   2
 -10  -5  -3  133.07   24.31   1
  10   5  -3  159.45   25.29   3
  10  -5   3  141.26   24.10   2
 -10  -5  -3  152.23   11.21   5
 -10   5   3  134.42   21.67   5
 -10   5  -3  133.46   25.54   1
 -10   5   3  173.52   28.93   1
  10  -5  -3  145.51   24.21   2
  10   5   3  126.88   22.02   2
 -10  -5   3  148.65   17.94   5
 -10  -5   3  131.80   23.74   1
 -10   5  -3  112.85   19.27   5
 -12  -5  -3  198.09   14.78   5
  12  -5   3  215.98   33.62   2
 -12   5   3  153.55   31.56   1
 -12   5   3  191.96   30.05   5
 -12  -5   3  189.26   31.52   1
 -12  -5  -3  139.33   27.17   1
 -12   5  -3  158.08   24.99   5
  12   5   3  156.36   27.83   2
  -1   6   3  352.49   21.66   4
   1  -6   3  263.08   30.53   2
   1   6   3  332.04   15.07   1
   1  -6  -3  332.86   19.34   5
  -1   6   3  341.60   18.70   5
   1   6  -3  297.72   18.55   4
  -1  -6   3  292.59   20.96   5
   1  -6   3  320.07   18.66   1
  -1   6   3  300.96   19.03   1
  -1  -6  -3  361.76   27.57   2
   1   6   3  324.36   21.16   3
   1  -6  -3  355.57   20.52   3
  -1  -6   3  335.65   33.79   2
  -1   6  -3  304.37   17.92   3
  -1  -6   3  329.45   20.67   1
   1   6  -3  339.67   20.96   3
  -1   6  -3  305.93   20.34   4
   1  -6  -3  295.35   20.92   2
   1   6   3  280.10   19.81   4
  -1  -6  -3  331.33   15.95   5
  -1  -6  -3  330.09   17.40   5
   1  -6   3  325.44   22.55   5
  -3   6   3  182.37   14.99   5
   3   6  -3  213.30   13.83   4
   3  -6  -3  171.77   16.95   2
  -3  -6   3  165.53   14.28   1
  -3   6  -3  193.63   19.08   4
   3   6   3  180.28   12.47   1
   3  -6  -3  169.00   16.21   5
   3  -6   3  179.24   17.33   1
   3   6   3  172.26   16.35   4
  -3  -6  -3  159.04    8.70   5
   3  -6   3  202.45   22.76   2
  -3   6   3  165.68   16.22   1
  -3  -6   3  152.19   19.80   2
  -3   6   3  187.23   17.79   4
   3   6   3  188.18   18.75   3
  -3  -6  -3  179.23   18.48   2
  -3   6  -3  175.39   10.35   3
   3  -6   3  168.67   18.24   5
  -3  -6  -3  200.77   11.24   5
   3  -6  -3  162.31   13.53   3
  -3  -6   3  172.88   14.00   5
   3   6  -3  144.16   17.88   3
   5  -6  -3  203.07   21.41   2
   5   6   3  223.72   17.48   1
   5  -6   3  193.50   22.31   1
  -5   6   3  230.98   20.94   4
   5   6  -3  232.45   24.36   2
  -5   6   3  206.33   21.65   1
   5  -6  -3  220.40   15.78   3
  -5  -6   3  212.47   15.98   5
   5   6   3  202.12   21.11   3
   5   6   3  242.31   19.26   2
   5   6  -3  203.02   23.13   3
   5  -6   3  193.10   22.19   2
   5   6   3  223.24   17.30   4
  -5   6   3  207.73   20.33   5
  -5   6  -3  220.95   22.95   4
  -5  -6   3  214.62   20.63   1
  -7   6   3   73.17   13.97   4
   7   6   3   96.73   14.52   4
  -7   6   3  131.16   19.25   5
   7   6   3  102.82   17.04   3
  -7   6   3   84.18   16.58   1
  -7  -6   3   87.75   12.04   5
   7   6  -3  127.64   20.72   3
   7  -6   3  132.36   21.89   1
   7  -6   3   69.04   14.49   2
   7  -6  -3   83.04   15.56   2
   7   6  -3   90.26   17.00   2
  -7   6  -3   75.23   14.57   4
  -7  -6   3   82.81   15.58   1
  -7  -6  -3   97.76   16.43   1
   7   6   3   90.92   15.48   2
  -9   6  -3   44.67   14.35   1
   9   6   3   57.83   14.18   3
   9   6   3   55.25   13.71   2
  -9  -6  -3   43.03   13.57   1
   9   6  -3   49.40   13.30   2
  -9  -6  -3   62.78    6.32   5
  -9   6   3   75.35   18.15   1
  -9  -6   3   34.57    8.87   5
  -9   6   3   46.65   12.60   5
   9   6  -3   72.29   16.56   3
  -9  -6   3   58.60   15.40   1
   9  -6  -3   63.61   14.55   2
  -9   6  -3   52.66   13.79   4
  -9   6  -3   54.70   13.42   5
   9  -6   3   60.52   15.42   2
 -11  -6   3   51.90   14.11   1
 -11   6  -3   35.35   12.97   5
 -11  -6  -3   60.09    8.46   5
 -11   6   3   65.79   15.34   5
 -11   6  -3   45.27   15.89   1
 -11  -6  -3   35.08   13.78   1
  11  -6   3   58.19   16.69   2
  11   6   3   54.88   16.24   2
 -11   6   3   51.90   17.35   1
  11   6  -3   36.99   14.28   2
  11  -6  -3   71.09   17.56   2
 -11  -6   3   65.47   12.49   5
   0  -7   3   55.57   11.49   5
   0   7  -3   63.97   10.82   4
   0   7  -3   62.26   10.64   3
   0  -7  -3   58.32   11.19   3
   0  -7  -3   68.00   10.47   5
   0  -7   3   57.50   15.95   2
   0  -7  -3   55.68   12.80   2
   0   7   3   53.45   10.66   4
   0   7   3   77.69    9.57   1
   0  -7   3   67.65    8.42   1
   2  -7  -3   49.00    9.47   5
   2   7   3   50.64   10.87   3
   2  -7   3   32.39   11.67   2
  -2   7  -3   40.72    7.56   3
  -2  -7  -3   50.27    7.14   5
   2  -7  -3   41.12    8.57   3
   2   7   3   49.64    6.19   1
   2   7  -3   59.45   11.66   3
   2  -7   3   51.28   11.39   5
  -2   7  -3   79.07   13.04   4
  -2  -7  -3   48.34    7.88   5
   2   7   3   30.42    7.87   4
  -2  -7   3   73.45   16.18   2
   2  -7   3   46.30    8.47   1
  -2   7   3   52.30    9.16   1
   2   7  -3   51.81    9.24   4
  -2  -7  -3   57.66   14.53   2
  -2  -7   3   45.39    9.59   5
  -2   7   3   36.79    8.15   5
  -2  -7   3   50.13   10.01   1
   2  -7  -3   43.08    9.97   2
  -2   7   3   39.14   10.05   4
   4  -7  -3   74.55   13.57   2
  -4   7   3   68.22   11.76   5
  -4  -7   3   87.08   12.84   1
  -4  -7   3   50.13    9.59   5
   4  -7  -3   67.20   10.99   3
  -4  -7  -3   76.66    6.09   5
   4   7   3   65.82   12.85   3
  -4  -7  -3   63.10   13.55   2
   4   7  -3   68.93   13.91   3
  -4   7   3   68.83   12.42   1
  -4  -7   3   75.75   16.11   2
   4  -7   3   75.00   14.88   2
   4  -7  -3   55.32   11.02   5
  -4   7   3   80.49   13.99   4
  -4   7  -3   66.97   13.43   4
   4   7   3   75.77   10.27   1
   4   7   3   63.41   11.18   4
  -4  -7  -3   82.15    8.31   5
   4   7  -3   62.67    9.58   4
   4  -7   3   80.88   13.82   1
  -6   7   3    1.94    4.86   4
   6   7   3   13.24    5.33   3
  -6  -7   3   11.02    4.72   5
   6   7   3    7.65    5.18   4
   6  -7   3    6.24    5.14   2
  -6   7   3    5.04    4.08   5
   6  -7  -3    7.30    5.72   2
   6   7  -3    7.28    5.75   3
   6  -7   3   11.25    6.56   1
  -6  -7   3    6.65    5.79   1
  -6  -7  -3    7.72    5.81   1
  -6   7  -3   13.11    6.69   4
  -6   7   3    4.54    4.62   1
  -8   7  -3   33.68   11.50   5
   8   7   3   44.86   12.22   2
   8  -7   3   48.50   13.58   2
  -8   7   3   50.60   14.44   1
   8   7  -3   77.66   16.84   2
   8   7   3   38.87   11.11   3
  -8  -7  -3   45.67   12.26   1
  -8  -7   3   59.73   14.08   1
   8  -7  -3   63.13   14.94   2
  -8   7   3   70.62   15.39   5
  -8   7  -3   41.35   12.25   4
  -8   7  -3   27.18   10.83   1
   8   7  -3   64.24   15.92   3
  -8  -7   3   57.13   10.26   5
  10   7   3   -9.44    5.37   2
  10   7  -3   14.69    8.90   3
  10   7  -3   -1.02    7.47   2
 -10   7  -3   18.36    9.23   1
 -10   7   3   -2.75    6.59   5
 -10  -7   3   -1.32    4.17   5
 -10  -7   3   -7.20    5.69   1
 -10   7  -3   14.92    8.25   4
  10  -7   3   10.16    8.59   2
 -10  -7  -3    3.45    3.01   5
 -10   7  -3    4.82    6.88   5
  10  -7  -3   16.22    8.12   2
 -10   7   3   -8.37    6.52   1
  -1   8   3  317.30   20.09   1
  -1  -8   3  294.08   16.11   1
   1  -8  -3  290.01   20.35   5
  -1  -8   3  269.86   21.94   5
  -1  -8  -3  270.83   29.67   2
   1   8  -3  290.23   21.49   3
   1  -8  -3  309.36   25.62   2
  -1   8  -3  293.30   19.80   3
   1  -8   3  302.62   24.11   5
  -1   8   3  256.66   20.98   4
  -1  -8  -3  274.46   18.43   5
   1  -8   3  298.38   16.90   1
  -1   8  -3  244.01   20.26   4
   1  -8  -3  292.62   20.79   3
   1   8   3  255.62   20.72   4
  -1   8   3  293.32   19.01   5
   1   8  -3  285.18   20.28   4
   1   8   3  300.19   22.67   3
  -1  -8   3  297.96   35.81   2
   1  -8   3  260.90   34.64   2
  -3  -8  -3  329.77   17.23   5
  -3   8   3  355.42   25.34   4
   3   8   3  331.82   23.83   4
  -3  -8  -3  340.70   19.11   5
   3   8  -3  291.33   24.20   3
   3  -8   3  323.41   34.66   2
   3  -8  -3  329.29   24.87   2
  -3  -8  -3  348.56   32.70   2
   3  -8   3  360.70   22.58   1
   3   8   3  314.57   24.79   3
  -3  -8   3  294.74   22.35   5
   3   8   3  339.62   16.65   1
  -3  -8   3  341.73   34.65   2
   3  -8  -3  374.87   24.92   5
   3  -8  -3  363.45   23.29   3
  -3   8  -3  333.89   18.74   3
  -3   8   3  326.13   22.00   1
   3   8  -3  341.80   22.08   4
  -3   8  -3  386.03   27.54   4
  -3   8   3  388.83   24.34   5
   3  -8   3  367.16   26.88   5
  -3  -8   3  322.48   22.12   1
  -5  -8   3  116.09   14.85   5
  -5  -8   3  121.58   16.46   1
  -5  -8   3  138.50   22.28   2
   5  -8  -3  128.89   15.68   3
  -5  -8  -3  128.99   14.38   1
   5   8   3   93.82   14.61   4
   5   8  -3  121.53   19.87   3
  -5   8   3  153.15   19.38   5
   5  -8   3  105.60   16.94   1
   5  -8  -3  104.04   16.96   2
  -5   8   3  132.66   18.61   4
   5   8   3  147.76   20.33   3
  -5   8  -3  129.32   19.81   4
   5  -8   3  140.96   22.17   2
  -5  -8  -3  117.05    9.48   5
  -5  -8  -3   52.19   13.78   2
  -5   8   3  127.49   18.25   1
  -7  -8   3  126.73   15.70   5
  -7  -8   3   91.05   18.23   2
  -7  -8   3  160.70   21.35   1
   7   8   3  138.45   21.35   3
  -7   8   3  126.22   19.94   5
   7   8  -3  155.18   23.79   3
  -7  -8  -3  141.98    9.02   5
  -7  -8  -3  182.83   23.94   2
   7  -8  -3  105.54   18.23   2
  -7   8   3  104.20   19.35   1
  -7   8  -3   83.32   17.13   4
   7  -8   3  157.41   24.95   2
   7   8   3  145.28   19.08   4
  -7   8   3  158.68   21.03   4
  -9   8  -3   58.63   16.32   1
  -9   8   3   91.79   19.60   1
  -9   8  -3   46.62   13.64   4
   9   8  -3   77.50   18.31   3
  -9  -8   3   74.68   12.48   5
   9  -8  -3   62.72   15.87   2
  -9   8  -3   69.54   16.25   5
   9   8   3   58.38   14.56   3
   9  -8   3   60.24   16.26   2
  -9   8   3   81.60   17.02   5
  -9  -8  -3   69.92    7.40   5
 -11  -8  -3   24.12    5.26   5
 -11   8  -3   33.44   15.24   1
  11  -8   3   47.00   17.48   2
 -11  -8   3   29.66    8.79   5
 -11   8   3   33.21   14.73   1
 -11   8   3   20.30   11.14   5
 -11   8  -3   31.00   13.04   5
  11  -8  -3   14.06   10.93   2
   0  -9  -3  262.11   19.94   5
   0   9   3  222.07   23.19   4
   0   9  -3  225.94   22.47   4
   0  -9  -3  251.07   29.41   2
   0  -9   3  264.48   35.37   2
   0  -9   3  268.59   25.33   5
   0   9  -3  292.70   21.63   3
   2  -9   3  784.60   56.72   2
   2   9  -3  837.13   43.24   3
   2  -9  -3  879.50   41.55   5
   2  -9  -3  888.84   41.52   3
   2   9  -3  842.23   39.86   4
  -2  -9  -3  832.15   36.62   5
   2   9   3  856.56   42.87   4
   2  -9   3  858.64   35.07   1
  -2  -9   3  813.34   55.46   2
   2   9   3  785.03   42.49   3
  -2   9   3  851.46   36.68   1
   2  -9   3  805.31   44.45   5
  -2   9  -3  814.35   43.23   4
   2  -9  -3  886.87   46.28   2
  -2  -9  -3  865.65   52.51   2
  -2  -9   3  880.33   43.24   5
  -2   9  -3  816.80   36.32   3
  -2   9   3  873.17   43.27   4
  -4  -9  -3  260.22   31.09   2
   4   9  -3  281.52   28.62   3
  -4   9   3  244.91   19.93   1
  -4  -9  -3  230.33   15.95   5
  -4  -9   3  252.89   20.60   5
   4  -9   3  248.42   20.89   1
   4   9   3  243.22   26.28   3
  -4   9   3  248.55   23.85   5
   4   9   3  233.73   24.00   4
   4  -9  -3  281.20   25.54   5
   4  -9   3  261.30   33.44   2
  -4  -9   3  251.29   31.40   2
   4   9  -3  262.80   21.31   4
   4  -9  -3  277.85   27.07   2
   4  -9  -3  249.48   20.47   3
  -4   9  -3  174.59   23.98   4
  -4   9   3  278.13   25.96   4
   6  -9   3  315.92   35.91   2
  -6   9   3  303.74   29.57   4
  -6   9  -3  317.09   32.46   4
  -6  -9   3  361.19   37.90   2
  -6  -9  -3  329.35   18.23   5
  -6  -9  -3  348.10   33.45   2
  -6   9   3  366.42   28.43   5
   6   9   3  319.93   30.90   3
   6  -9  -3  287.50   30.91   2
  -6   9   3  346.11   28.22   1
   6   9   3  338.93   26.34   4
   6  -9   3  312.57   26.64   1
  -6  -9   3  313.07   23.17   5
   6   9  -3  304.00   32.63   3
  -8   9   3  183.72   27.25   1
   8  -9   3  152.55   26.46   2
  -8  -9   3  143.78   17.88   5
   8   9   3  205.95   27.58   3
  -8   9  -3  187.79   28.26   4
  -8   9  -3  161.23   25.72   1
   8  -9  -3  175.13   26.86   2
  -8  -9  -3  153.67   11.55   5
  -8  -9  -3  131.64   23.20   2
  -8   9   3  173.85   24.42   4
  -8   9   3  176.65   25.95   5
  -8   9  -3  144.02   23.02   5
   8   9  -3  120.26   22.26   3
  -8  -9   3  129.40   24.08   2
 -10   9  -3  111.13   21.08   4
 -10   9  -3   92.76   22.84   1
  10   9  -3  146.23   26.11   3
  10  -9  -3  105.14   22.26   2
 -10  -9   3   77.81   13.89   5
 -10  -9  -3  110.52   10.62   5
 -10  -9   3   89.34   19.92   2
 -10   9   3  139.25   26.78   1
 -10  -9  -3   79.04   18.15   2
  10  -9   3   96.83   23.63   2
 -10   9  -3  107.78   21.68   5
   1  10  -3  168.51   20.77   3
  -1 -10   3  127.60   18.59   5
  -1 -10  -3  165.11   18.14   5
   1 -10  -3  208.14   21.92   5
  -1  10  -3  148.43   17.48   3
   1  10   3  164.80   21.47   4
   1 -10   3  143.32   27.24   2
   1  10  -3  181.22   20.45   4
  -1 -10  -3  202.66   28.35   2
   1 -10  -3  141.17   19.08   3
   1 -10  -3  180.40   26.32   2
  -1 -10   3  155.92   28.09   2
  -1  10   3  155.97   21.31   4
   1  10   3  177.78   22.12   3
   1 -10   3  194.57   23.87   5
  -1  10  -3  138.36   20.11   4
   3  10   3   98.56   16.69   4
   3 -10  -3   84.22   15.00   5
   3  10  -3   88.66   14.84   4
   3 -10  -3   66.60   14.83   2
  -3 -10   3   69.89   13.33   5
  -3  10   3   84.25   15.61   4
  -3 -10   3  118.39   24.37   2
   3 -10  -3   79.63   14.37   3
   3 -10   3  105.92   23.50   2
   3  10  -3   96.09   17.07   3
   3  10   3   93.52   16.75   3
   3 -10   3   70.42   15.58   5
  -3 -10  -3  108.90   13.98   5
  -3 -10  -3   78.05   19.92   2
  -3  10  -3   99.85   17.51   4
   5 -10  -3  138.13   21.58   2
  -5  10   3  135.80   18.80   1
  -5 -10  -3  155.68   25.25   2
  -5  10  -3  133.56   21.46   4
   5  10   3  134.90   21.76   3
   5  10  -3  102.05   18.81   3
   5 -10   3  168.89   20.46   1
  -5 -10   3  102.31   16.15   5
   5  10   3  134.22   20.19   4
  -5 -10   3  160.36   26.97   2
  -5  10   3  104.44   18.08   4
  -5 -10  -3  136.57   14.21   5
   5 -10   3  134.10   25.96   2
   7  10   3   77.96   16.77   3
  -7  10  -3   56.23   14.64   4
  -7 -10   3   46.34   10.86   5
  -7  10   3   77.26   16.58   1
  -7  10   3   50.74   13.13   4
   7 -10   3   69.30   18.47   2
  -7 -10  -3   53.25    9.31   5
  -7  10  -3   61.20   14.66   5
   7 -10  -3   64.73   15.63   2
   7  10   3   79.19   16.09   4
  -7 -10   3   49.72   15.59   2
   7  10  -3   79.24   17.99   3
  -7  10  -3   56.41   14.61   1
  -7 -10  -3   31.63   12.10   2
  -9 -10   3   47.16   15.72   2
  -9  10  -3   28.09   11.97   1
  -9  10  -3   48.63   15.61   4
  -9 -10   3   32.67    9.54   5
   9  10   3   19.59   11.58   3
  -9  10   3   13.42    9.58   1
   9 -10   3   29.20   13.30   2
  -9 -10  -3   22.86   11.14   2
  -9  10  -3   37.57   12.19   5
  -9 -10  -3   47.86    8.74   5
   9 -10  -3   59.87   16.51   2
   9  10  -3   23.30   12.20   3
 -11  10  -3   47.05   16.21   1
 -11 -10  -3   23.09    6.09   5
 -11 -10  -3   24.98   11.34   2
  11  10  -3   46.49   18.81   3
 -11  10  -3   44.41   16.29   5
 -11  10   3   29.90   14.35   1
   0 -11  -3  172.74   27.17   2
   0 -11   3  141.19   21.19   5
   0  11  -3  175.88   22.10   4
   0  11  -3  118.55   18.06   3
   0 -11   3  166.32   28.89   2
   0 -11  -3  149.82   21.57   3
   0 -11  -3  155.13   19.85   5
   0  11   3  133.62   20.55   4
  -2  11  -3  233.93   27.70   4
   2 -11  -3  239.18   25.53   5
   2 -11   3  260.30   28.52   5
   2  11   3  219.33   25.97   3
   2  11  -3  224.35   25.74   3
  -2 -11  -3  282.21   34.40   2
   2 -11  -3  217.88   23.92   3
   2 -11   3  208.76   35.71   2
   2  11  -3  246.31   24.75   4
  -2 -11  -3  206.48   20.63   5
  -2 -11   3  183.24   31.09   2
  -2  11  -3  239.63   19.78   3
  -2  11   3  246.66   26.93   4
  -2 -11   3  232.51   24.98   5
   2 -11  -3  190.17   27.10   2
   2  11   3  237.82   26.79   4
   4  11  -3  179.73   23.29   4
   4  11   3  129.28   20.61   4
   4  11   3  141.79   22.38   3
  -4 -11   3  144.68   19.68   5
  -4  11   3  135.21   21.41   4
  -4 -11  -3  172.79   29.44   2
   4  11  -3  123.86   21.36   3
   4 -11   3  148.19   29.65   2
   4 -11  -3  160.08   22.20   3
  -4 -11   3  176.43   30.54   2
  -4  11  -3  158.06   24.45   4
  -4 -11  -3  147.38   16.54   5
   4 -11  -3  150.45   24.09   2
  -6  11  -3   63.91   16.11   4
  -6 -11   3   83.73   20.62   2
  -6 -11   3   75.35   14.10   5
  -6 -11  -3  100.83   21.54   2
   6  11   3   89.84   18.16   4
  -6  11   3   69.79   15.23   4
   6 -11   3   90.64   22.27   2
   6  11   3  100.94   19.45   3
  -6 -11  -3   81.12   11.65   5
   6  11  -3   79.94   17.84   3
   6 -11  -3   90.33   19.20   2
   8  11  -3  117.57   23.62   3
  -8 -11  -3  100.67   22.44   2
   8  11   3   95.70   20.35   3
  -8 -11   3   59.31   17.54   2
   8 -11  -3   86.19   19.02   2
  -8  11   3   66.15   16.27   4
   8 -11   3  115.64   25.90   2
  -8  11  -3   59.32   16.54   4
  -8 -11   3   84.47   15.50   5
  -8 -11  -3  103.22   12.73   5
  10  11   3   33.37   14.70   3
 -10 -11  -3   27.93   10.43   2
 -10  11  -3   22.75   11.28   4
 -10 -11  -3   32.23    7.43   5
  10  11  -3    6.90   11.57   3
  10 -11   3   54.37   20.59   2
 -10 -11   3   10.66    9.29   2
 -10 -11   3   34.62   10.12   5
  10 -11  -3   39.86   14.72   2
  -1 -12   3   20.28   10.94   2
  -1  12   3   17.47    8.38   4
  -1 -12  -3   20.38    7.94   5
  -1  12  -3   20.00    8.65   3
   1 -12   3    8.75    7.51   5
   1 -12  -3   12.35    9.78   2
  -1  12  -3   20.20    8.23   4
   1  12   3   10.64    6.27   3
   1 -12  -3   29.40    9.20   5
  -1 -12   3   11.18    7.23   5
   1 -12  -3   20.21    8.16   3
   1  12  -3   22.16    7.12   4
   1  12  -3   11.47    6.24   3
   1  12   3    1.29    5.10   4
   1 -12   3    7.54    8.21   2
  -1 -12  -3   15.98    9.26   2
  -3  12  -3   33.68   10.96   4
   3  12   3   27.09   10.54   3
   3  12  -3   43.89   12.61   4
  -3 -12  -3   37.92    9.21   5
   3 -12   3   31.27   16.46   2
   3 -12  -3   43.57   12.28   3
   3  12  -3   21.80    9.56   3
  -3 -12   3   37.61   13.40   2
   3 -12  -3   51.07   12.82   5
  -3  12   3   39.81   11.33   4
  -3 -12   3   43.30   11.36   5
   3  12   3   43.44   12.71   4
  -3 -12  -3   74.38   18.88   2
   3 -12  -3   42.22   13.59   2
   5  12   3   12.11    7.40   3
  -5 -12  -3    0.43    9.96   2
   5  12  -3    3.92    5.73   3
  -5  12   3    7.98    6.26   4
  -5 -12  -3    8.81    4.67   5
  -5 -12   3   31.26   10.72   2
  -5 -12   3    3.59    5.05   5
   5  12   3   13.50    8.82   4
   5 -12  -3   19.83    9.19   2
   5 -12   3    2.02    8.75   2
  -5  12  -3    5.89    5.47   4
   7  12  -3    1.89    7.26   3
  -7 -12  -3    9.93    5.44   5
  -7 -12   3   13.05    7.09   5
  -7  12   3   22.46    8.94   4
   7 -12  -3    0.07    7.82   2
   7  12   3   14.11    8.81   3
  -7 -12  -3   22.09   11.31   2
  -7 -12   3   10.63   10.83   2
   7 -12   3   10.24    9.52   2
  -7  12  -3   18.96    9.49   4
  -9  12  -3    8.72    8.28   4
  -9 -12  -3  -10.69    8.29   2
  -9 -12   3    3.48    8.08   2
   9 -12   3   21.72   14.95   2
  -9 -12   3    7.30    6.86   5
   9  12   3   -0.81   10.19   3
   9  12  -3   29.75   14.16   3
   9 -12  -3    6.56    8.90   2
  -9 -12  -3   16.71    5.23   5
   0  13   3  186.05   26.78   4
   0 -13  -3  173.03   24.86   3
   0  13  -3  192.70   24.27   3
   0 -13  -3  167.11   22.10   5
   0 -13   3  144.42   22.66   5
   0 -13   3  175.04   30.78   2
   0  13  -3  143.49   21.55   4
   0 -13  -3  151.91   26.57   2
   2 -13  -3  129.67   20.95   5
  -2  13   3  140.36   23.78   4
   2 -13  -3  149.23   26.78   2
   2  13   3  110.53   20.42   4
   2  13  -3  132.63   21.74   3
  -2  13  -3  130.63   21.86   4
  -2 -13  -3  159.64   26.95   2
  -2 -13   3  138.30   21.20   5
  -2 -13   3  114.58   24.67   2
  -2 -13  -3  177.42   21.64   5
   2 -13   3  120.81   26.85   2
   2  13  -3  144.53   22.07   4
   2 -13   3  110.77   21.08   5
   2 -13  -3  139.37   21.42   3
   2  13   3  106.82   20.17   3
   4  13   3  176.60   26.84   4
   4  13  -3  160.35   25.20   3
  -4 -13   3  158.01   22.43   5
  -4 -13  -3  129.02   26.96   2
  -4  13   3   99.93   19.47   4
   4  13   3  161.33   25.56   3
  -4 -13  -3  182.13   20.49   5
   4 -13   3  192.62   37.04   2
  -4  13  -3  201.33   29.53   4
  -4 -13   3  167.56   32.10   2
   4 -13  -3  186.24   29.65   2
   6 -13   3   35.44   16.25   2
   6  13   3   38.60   13.20   3
  -6 -13   3   39.54   11.40   5
  -6 -13  -3   43.13   17.33   2
  -6 -13  -3   40.93    9.84   5
  -6  13  -3   56.65   15.77   4
   6 -13  -3   41.54   14.42   2
  -6  13   3   40.85   13.93   4
   6  13  -3   35.44   13.01   3
  -6 -13   3   49.79   18.07   2
   8 -13  -3   87.91   20.93   2
  -8  13   3   96.65   19.77   4
  -8  13  -3  126.23   25.45   4
  -8 -13  -3  101.83   14.19   5
   8  13   3   89.04   21.52   3
  -8 -13   3   93.43   23.94   2
   8 -13   3   93.67   27.77   2
   8  13  -3   84.47   21.12   3
  -8 -13  -3   89.44   24.53   2
  -8 -13   3  109.73   18.86   5
   1 -14  -3    2.00    8.49   2
   1  14  -3   -4.46    5.00   4
  -1 -14  -3    0.90    4.23   5
   1  14  -3    6.90    5.76   3
  -1 -14   3   16.82    9.08   2
   1 -14   3   -7.00    6.00   2
  -1  14  -3    3.18    5.14   3
   1  14   3    1.22    5.57   4
  -1  14   3   -2.58    4.94   4
  -1  14  -3    3.71    6.23   4
  -1 -14   3   10.55    6.18   5
  -1 -14  -3    6.57    6.75   2
   1 -14  -3   -2.01    5.28   3
   1 -14  -3    0.84    4.63   5
   1 -14   3    0.39    5.37   5
  -3 -14   3   13.56    9.18   2
  -3 -14  -3    6.72    3.38   5
   3  14  -3    1.80    5.48   3
   3 -14   3   16.32   10.52   2
  -3  14  -3   -5.65    6.00   4
  -3  14   3    0.47    5.53   4
   3 -14  -3   23.48    9.25   3
  -3 -14   3    2.79    5.56   5
   3  14   3    5.28    5.70   3
  -3 -14  -3    2.51    8.62   2
   3  14  -3   13.69    8.53   4
   3  14   3    5.76    7.15   4
   3 -14  -3   11.29    9.14   2
   5  14  -3   -0.02    6.15   3
   5 -14   3   -2.31   10.62   2
  -5 -14  -3   -6.94    7.66   2
   5  14   3   -4.29    5.36   3
   5  14   3  -10.07    6.16   4
  -5  14   3    9.89    6.92   4
  -5 -14   3   -0.45    4.38   5
  -5  14  -3    0.25    6.97   4
  -5 -14   3    3.35    9.28   2
  -5 -14  -3    7.94    5.63   5
   5 -14  -3   12.31    8.59   2
  -7 -14   3   -9.53    5.04   5
  -7  14  -3   16.71   10.16   4
   7 -14  -3   -4.83    6.23   2
  -7 -14  -3    2.79    4.73   5
   7  14  -3   17.55   12.25   3
   7  14   3    8.22    9.30   3
  -7  14   3   -5.72    6.10   4
  -7 -14  -3   -0.39   10.61   2
  -7 -14   3    5.01    9.85   2
   7 -14   3   -0.75   12.59   2
   0  15  -3   69.35   15.79   3
   0  15   3   40.88   13.91   4
   0 -15   3   73.51   16.90   5
   0 -15   3   43.80   16.79   2
   0  15  -3   56.04   14.98   4
   0 -15  -3   80.98   20.28   2
   0 -15  -3   60.72   13.87   5
   0 -15  -3   15.26   10.37   3
   2 -15  -3   89.82   19.43   5
   2  15   3   97.99   19.64   4
   2  15   3   72.90   17.49   3
  -2  15   3  102.08   21.10   4
   2 -15  -3   66.72   16.31   3
   2  15  -3   87.63   18.49   4
   2 -15   3   83.12   22.92   2
   2 -15  -3   64.13   19.00   2
  -2  15  -3  121.96   22.84   4
  -2 -15   3   91.81   22.24   2
   2  15  -3   69.85   16.61   3
  -2 -15  -3   56.82   16.02   2
  -2 -15   3  101.57   19.70   5
  -2 -15  -3   97.25   17.58   5
  -4 -15   3   48.57   19.37   2
  -4 -15  -3   58.82   19.69   2
   4 -15  -3   57.64   18.29   2
  -4  15  -3   74.49   17.84   4
   4  15  -3   60.82   16.67   3
  -4  15   3   64.49   17.06   4
  -4 -15  -3   53.43   12.63   5
   4  15   3   69.15   18.22   3
   4  15   3   77.17   18.54   4
  -4 -15   3   54.71   13.58   5
   4 -15   3   46.43   19.82   2
  -6 -15  -3   15.33    7.27   5
   6 -15   3   24.02   14.46   2
   6  15   3   22.52   12.86   3
  -6 -15   3   26.49    9.34   5
  -6  15  -3   31.99   12.28   4
   6 -15  -3   33.72   14.84   2
  -6  15   3   50.12   15.42   4
  -6 -15  -3   52.66   17.98   2
   6  15  -3   41.06   13.61   3
  -6 -15   3   24.81   14.34   2
  -8  15   3   34.59   12.11   4
  -1  16   3   32.13   12.98   4
   1  16  -3   20.05   10.43   3
   1 -16  -3   39.92   13.85   3
  -1 -16   3   17.95   11.41   2
   1  16  -3   29.64   11.33   4
   1 -16  -3   27.02    9.76   5
  -1 -16  -3   35.14   10.39   5
   1  16   3    5.70    7.38   4
   1 -16   3   16.88   13.48   2
   1 -16  -3   40.32   17.16   2
  -1  16  -3   28.21   10.32   4
  -1 -16  -3   29.82   12.12   2
  -1 -16  -3   36.71   13.12   3
  -1 -16   3   22.26    9.28   5
  -3 -16   3    3.28    8.05   2
   3  16  -3   -3.87    7.16   3
  -3 -16  -3   17.62    8.29   5
   3  16   3    0.86    6.15   3
  -3  16   3   -1.25    6.72   4
   3 -16  -3   11.10   10.54   2
   3 -16   3   13.45   11.24   2
  -3  16  -3   -0.36    7.13   4
  -3 -16   3   17.15    8.41   5
   3  16   3   12.78    9.71   4
  -3 -16  -3    4.74    9.65   2
  -5 -16   3   22.42   14.36   2
  -5  16   3    7.80    9.61   4
  -5  16  -3   41.44   14.09   4
   5  16   3   32.64   12.05   3
   5  16   3   36.03   16.04   4
   5  16  -3   33.11   13.36   3
  -5 -16  -3   24.56    9.38   5
  -5 -16   3   11.22    8.87   5
   5 -16  -3   27.75   14.07   2
   5 -16   3   37.12   17.16   2
  -5 -16  -3   27.66   14.65   2
   0 -17  -3  165.48   30.09   2
   0 -17   3  181.58   28.29   5
   0  17  -3  192.06   30.41   4
   0 -17  -3  143.64   24.25   5
   0  17   3  198.10   31.24   4
   0 -17   3  125.97   27.00   2
   0 -17  -3  202.73   30.78   3
  -2 -17  -3  129.79   26.16   3
  -2 -17   3  114.21   25.73   2
   2  17   3  144.46   26.94   4
   2 -17  -3  106.48   24.64   2
  -2 -17   3  168.15   25.97   5
  -2  17   3  152.61   28.74   4
  -2 -17  -3  112.89   20.39   5
   2  17  -3  143.35   25.15   3
  -2  17  -3  132.27   25.19   4
   2  17  -3  131.67   24.54   4
  -2 -17  -3  112.67   24.70   2
   2 -17   3  160.33   33.42   2
   4  17  -3  136.12   26.02   3
  -4 -17   3  154.14   24.76   5
   4  17   3  121.11   24.42   3
   4 -17   3  132.56   30.23   2
  -4 -17  -3  149.37   22.76   5
   4 -17  -3  119.69   27.74   2
   4  17   3  184.17   31.44   4
  -4 -17  -3  173.38   31.34   2
  -4 -17   3  116.82   27.82   2
  -4  17  -3  175.13   30.08   4
  -4  17   3   83.59   20.81   4
  -1 -18   3    8.96    8.87   5
  -1 -18   3    8.96    8.37   2
  -1  18  -3   28.94   12.85   4
   1  18   3   22.48   12.87   4
   1 -18  -3   -5.07    8.22   5
   1 -18   3   14.59   11.72   2
  -1 -18  -3    5.90    6.65   5
  -1 -18  -3   -8.78    8.93   2
   1  18  -3   -5.82    9.81   4
   1  18  -3   18.60    8.55   3
  -1  18   3   -1.57    9.78   4
   1 -18  -3    5.83   11.37   3
  -1 -18  -3   -3.23    9.10   3
   1 -18  -3    1.04    9.52   2
   3  18  -3   10.86    9.08   3
  -3  18   3   25.48    9.90   4
   3 -18   3    7.34   10.89   2
   3  18   3   25.98   12.69   4
  -3 -18   3   10.67   10.43   2
  -3 -18   3   14.35    8.84   5
  -3 -18  -3   20.64   13.92   3
  -3 -18  -3   17.91    9.04   5
  -3 -18  -3   16.84   10.27   2
  -3  18  -3   24.71   12.96   4
   3 -18  -3   13.85   11.63   2
   0 -19  -3    4.51   10.00   2
   0  19  -3    3.85   11.52   4
   0 -19  -3   -1.89    9.25   5
   0 -19  -3  -10.73   10.51   3
   2  19  -3    5.69    8.80   3
   2 -19  -3   25.42   14.11   2
  -2 -19  -3   18.42   10.69   2
  -2 -19   3   12.61   11.49   5
   0   0  -4 2729.94   75.68   3
   0   0   4 2827.60   75.38   2
   0   0   4 2767.90   73.46   4
   0   0   4 2864.02   78.10   5
   0   0   4 2361.51   97.16   1
   2   0   4   98.63    6.38   2
  -2   0   4   98.65    9.87   5
   2   0  -4  116.34    8.21   2
  -2   0  -4  101.76    7.44   3
   2   0  -4  109.09   10.36   3
  -2   0   4   91.54   12.83   1
   2   0   4   98.59    9.75   4
  -2   0   4   99.60    5.67   4
  -2   0  -4  109.17    8.90   5
   2   0   4   78.33   12.07   1
  -4   0   4 2559.66   79.38   5
  -4   0   4 2674.58   68.37   4
  -4   0  -4 2706.12   73.16   5
  -4   0   4 2617.25   89.76   1
   4   0  -4 2694.54   81.75   3
  -4   0  -4 2696.26   80.41   4
   4   0   4 2729.77   77.40   2
   4   0  -4 2635.99   79.77   2
   4   0   4 2502.64   89.33   1
  -4   0  -4 2635.11   73.23   3
  -6   0  -4  361.92   16.81   3
   6   0  -4  340.07   22.77   2
   6   0  -4  319.22   21.87   3
  -6   0   4  321.77   26.10   1
  -6   0  -4  347.18   17.20   5
  -6   0  -4  346.44   21.99   4
   6   0   4  334.85   21.01   2
   6   0   4  305.38   25.55   1
  -6   0   4  318.65   20.46   5
   8   0   4 1621.15   63.60   2
   8   0   4 1586.23   75.11   1
   8   0  -4 1474.48   63.93   2
  -8   0   4 1562.91   74.37   1
  -8   0  -4 1632.29   63.36   4
  -8   0   4 1474.53   59.25   5
   8   0  -4 1619.68   63.84   3
 -10   0  -4  213.06   20.81   5
 -10   0   4  250.90   35.12   1
 -10   0   4  217.22   24.27   5
  10   0   4  298.43   29.70   2
 -10   0  -4  277.66   35.32   1
  10   0  -4  279.13   32.20   2
 -12   0  -4  608.74   35.50   5
 -12   0   4  707.27   56.74   1
 -12   0   4  692.01   43.05   5
  12   0   4  666.77   47.99   2
  12   0  -4  572.78   44.96   2
 -12   0  -4  624.34   53.37   1
   1  -1   4  553.68   30.60   1
  -1  -1  -4  543.85   21.28   5
   1   1   4  526.62   31.13   1
   1   1   4  549.09   21.92   4
   1   1  -4  558.95   18.08   4
   1   1  -4  526.43   20.85   2
  -1   1  -4  552.33   19.99   3
  -1  -1   4  552.66   23.48   5
   1  -1  -4  562.75   18.17   2
   1   1   4  552.26   15.64   2
  -1   1   4  521.35   29.43   1
  -1  -1   4  570.18   31.03   1
   1   1  -4  531.27   22.19   3
   1  -1  -4  587.21   22.70   3
   1  -1   4  541.20   20.17   2
  -1  -1  -4  569.30   21.82   3
  -1   1   4  551.52   19.87   4
  -1   1  -4  536.80   21.42   4
  -3   1  -4  167.70   11.23   5
   3  -1  -4  139.50   10.93   3
   3   1  -4  130.56   10.49   2
   3   1   4  130.84   10.63   4
  -3   1   4  147.40   15.96   1
  -3   1  -4  139.01   11.31   4
  -3   1   4  113.71   11.33   5
   3  -1  -4  128.69    9.89   2
  -3   1   4  143.34    8.28   4
  -3  -1  -4  138.48    9.83   3
   3  -1   4  150.35    9.90   2
   3  -1   4  134.58   15.95   1
   3   1   4  140.59    8.97   2
  -3   1  -4  138.92    7.41   3
  -3  -1   4  127.47   15.25   1
  -3  -1   4  110.93   11.21   5
   3   1   4  141.16   15.29   1
  -3  -1  -4  136.01    7.56   5
   3   1  -4  146.67   11.85   3
   5   1  -4  308.27   20.62   2
  -5   1  -4  348.31   13.72   3
  -5   1  -4  362.71   17.99   5
   5   1   4  294.07   23.27   1
  -5  -1  -4  376.12   21.10   4
  -5  -1   4  334.77   24.64   1
  -5   1   4  286.94   19.30   5
   5  -1  -4  321.33   20.23   3
   5   1   4  351.83   18.09   3
   5  -1   4  320.74   19.28   2
  -5  -1  -4  338.23   13.81   5
  -5  -1   4  334.80   19.30   5
  -5   1   4  335.72   25.26   1
   5  -1  -4  337.09   20.92   2
   5   1   4  313.92   18.50   2
   5   1  -4  362.29   22.68   3
   5  -1   4  324.63   25.44   1
  -5   1   4  349.26   15.42   4
  -5   1  -4  363.02   21.39   4
  -7  -1  -4   73.44   12.27   4
  -7  -1   4   53.60   13.44   1
  -7   1   4   75.99   16.10   1
  -7  -1   4   63.19   10.54   5
   7   1   4   56.45   14.06   1
   7  -1  -4   64.69   12.22   3
  -7   1  -4   76.14   13.17   4
   7   1  -4   57.81   11.93   2
  -7   1   4   68.06   11.74   5
   7   1   4   81.22   13.06   2
   7  -1   4   77.79   16.14   1
   7  -1  -4   82.58   14.06   2
   7  -1   4   65.89   12.32   2
   7   1  -4   59.80   12.10   3
   9   1   4   38.55   13.23   1
   9  -1  -4   42.50   11.71   2
  -9   1   4   57.98   12.11   5
   9   1   4   43.72   11.29   2
   9  -1   4   59.48   13.55   2
  -9  -1   4   43.47    9.90   5
  -9  -1  -4   42.27   10.05   4
   9  -1   4   42.34   14.01   1
  -9  -1   4   52.58   15.31   1
  -9   1   4   41.67   13.31   1
   9   1  -4   69.06   14.06   3
  -9   1  -4   44.40   10.83   4
   9   1  -4   37.89   10.85   2
 -11  -1   4   43.04   11.52   5
 -11  -1  -4   67.70   19.01   1
 -11   1  -4   60.35   17.50   1
  11  -1   4   50.31   14.82   2
  11   1  -4   61.77   15.93   2
 -11  -1  -4   42.45    9.01   5
 -11   1   4   49.14   12.98   5
 -11   1  -4   28.62    8.54   5
  11  -1  -4   63.32   15.94   2
 -11   1   4   77.98   20.43   1
  11   1   4   53.88   14.80   2
 -11  -1   4   50.32   16.49   1
   0   2  -4 5592.16  146.04   3
   0  -2   4 5523.23  171.11   1
   0   2   4 5586.84  176.20   1
   0  -2   4 5878.63  152.32   5
   0  -2  -4 5539.72  140.42   2
   0  -2   4 5555.53  160.88   2
   0  -2  -4 5399.00  143.13   5
   0   2  -4 5567.77  142.93   4
   0   2   4 5740.85  145.47   4
   2  -2   4   55.26    7.37   2
   2  -2  -4   83.67    7.02   2
  -2   2  -4   64.44    8.44   4
  -2  -2   4   74.99    9.21   5
  -2   2   4   79.80   11.55   1
   2  -2  -4   64.14    8.35   3
   2   2  -4   72.85    9.29   2
   2   2   4   77.35    5.78   2
   2  -2   4   79.77   12.90   1
   2   2   4   73.46   11.05   1
   2   2   4   66.06    8.70   4
   2   2  -4   72.66    4.55   4
  -2   2   4   81.07    9.68   5
  -2  -2   4   77.21   12.15   1
  -2  -2  -4   69.67    4.45   5
  -2  -2  -4   74.46    6.16   5
  -2   2  -4   71.20    5.33   3
   2   2  -4   65.63    9.36   3
  -2   2   4   83.38    7.76   4
  -2  -2  -4   73.38    8.68   3
   4   2   4 4222.52  115.41   4
  -4   2   4 4135.09  116.68   5
   4   2   4 4216.91  114.29   3
  -4   2   4 4138.24  109.13   4
  -4  -2   4 4006.44  114.17   5
   4   2   4 3889.51  125.17   1
   4  -2  -4 4027.86  114.98   2
   4  -2   4 4080.00  114.60   2
   4   2   4 3935.57  111.50   2
  -4   2  -4 4118.61  113.79   5
  -4  -2   4 3948.33  126.56   1
   4   2  -4 4086.85  117.66   2
   4  -2  -4 4154.67  115.25   3
   4   2  -4 3959.54  118.83   3
  -4   2  -4 4133.54  116.32   4
  -4   2   4 3882.35  125.94   1
   4  -2   4 3983.71  128.46   1
   6  -2  -4   46.98   10.17   2
  -6   2   4   59.12   10.27   5
  -6  -2  -4   49.63    4.61   5
   6   2  -4   38.27    9.29   2
   6  -2   4   41.79    8.85   2
  -6   2   4   67.69    9.03   4
   6   2   4   42.68   10.80   1
   6  -2   4   60.21   14.22   1
  -6   2  -4   65.46   11.60   4
  -6  -2   4   50.90   12.22   1
   6   2   4   49.89    8.63   3
   6  -2  -4   63.91   10.63   3
  -6  -2  -4   51.89    9.93   4
  -6  -2   4   52.33    8.96   5
  -6   2   4   35.98   10.53   1
   6   2  -4   63.65   12.08   3
   6   2   4   44.86    8.69   2
   8  -2   4 1592.49   65.20   2
   8   2  -4 1607.57   67.63   2
  -8   2   4 1576.55   76.33   1
   8   2   4 1758.09   66.17   2
   8   2   4 1664.52   75.76   1
  -8  -2   4 1547.11   59.17   5
  -8   2  -4 1608.26   65.68   4
   8   2  -4 1683.27   68.53   3
  -8   2   4 1599.49   64.82   5
  -8  -2   4 1586.65   75.32   1
   8  -2  -4 1676.26   68.68   2
  -8  -2  -4 1610.75   62.34   4
   8  -2   4 1581.15   76.81   1
 -10   2  -4   73.92   19.32   1
  10   2  -4   75.99   17.38   2
 -10  -2  -4   75.75   11.40   5
 -10   2  -4   91.73   15.28   5
  10  -2  -4   54.78   14.79   2
  10   2   4   93.81   17.58   2
  10  -2   4   91.39   18.32   2
 -10   2   4   87.36   16.27   5
 -10  -2   4   62.87   16.58   1
 -10   2   4   72.49   18.97   1
 -10  -2  -4   55.92   15.89   1
 -10  -2   4   90.39   14.86   5
 -12  -2   4  662.76   55.25   1
  12   2   4  740.55   50.89   2
 -12   2   4  760.77   59.23   1
 -12   2   4  884.74   51.58   5
 -12   2  -4  742.15   42.51   5
  12  -2  -4  739.34   52.31   2
  12   2  -4  807.04   54.78   2
 -12  -2   4  821.72   46.13   5
  12  -2   4  745.37   51.29   2
 -12  -2  -4  751.31   36.97   5
 -12  -2  -4  706.83   57.34   1
 -12   2  -4  666.45   56.75   1
   1  -3   4   58.09   11.19   1
   1  -3  -4   70.71    6.67   2
   1  -3  -4   70.41    7.67   5
  -1   3  -4   48.65    7.52   4
  -1   3   4   63.30   11.08   1
  -1  -3   4   65.67   12.62   1
  -1  -3  -4   52.14    8.16   3
  -1   3  -4   61.30    6.75   3
   1   3   4   54.89    8.09   4
  -1   3   4   73.31    8.37   5
   1   3   4   59.61   11.10   1
   1   3  -4   64.87    8.96   3
  -1  -3   4   71.79   10.83   2
   1  -3   4   51.77    9.84   2
  -1  -3  -4   62.26    9.23   2
   1  -3   4   51.54    9.81   5
   1  -3  -4   45.06    7.34   3
  -1  -3  -4   64.26    5.84   5
  -1   3   4   61.80    8.42   4
   1   3  -4   68.64    6.62   4
  -1  -3  -4   68.89    6.54   5
  -1  -3   4   52.84    8.48   5
   3  -3   4    1.24    3.95   1
  -3   3   4    0.84    2.36   4
   3  -3  -4   -0.85    2.04   3
   3   3   4   -0.38    1.47   2
  -3  -3   4    1.58    2.39   5
   3  -3   4   -0.30    1.76   2
   3  -3  -4    0.76    2.27   2
   3   3  -4    6.19    3.50   3
   3   3   4    2.15    2.35   4
   3   3   4   -0.01    2.29   1
  -3   3  -4    5.19    3.17   4
  -3   3   4   -0.59    1.82   5
  -3   3  -4    0.99    1.60   3
  -3  -3   4   -3.69    2.52   1
   3   3   4   -0.59    1.74   3
   3   3  -4   -0.46    2.88   2
  -3   3   4    1.94    2.73   1
   5   3  -4   72.58   12.29   2
  -5   3  -4   40.62    9.23   4
  -5   3   4   47.26    8.49   4
  -5   3   4   61.08   10.63   5
  -5   3   4   60.45   12.19   1
   5   3   4   65.85   10.32   3
   5   3   4   40.66    9.58   1
   5   3   4   44.76    8.90   4
  -5  -3   4   66.91   12.55   1
   5  -3  -4   54.68    9.27   3
  -5  -3   4   49.20    8.41   5
   5  -3   4   55.23    9.89   2
   5  -3  -4   54.97   10.02   2
   5   3  -4   49.69   10.57   3
   5   3   4   54.02    9.07   2
   5  -3   4   52.17   12.20   1
   7   3   4    1.01    5.24   1
   7  -3   4    1.84    4.52   2
   7   3   4    3.29    3.89   2
  -7  -3   4    3.92    2.92   5
   7  -3   4    3.43    4.94   1
  -7  -3  -4    7.07    5.11   4
   7  -3  -4    6.65    3.98   2
   7   3   4    2.58    3.76   3
  -7  -3   4    0.52    3.50   1
  -7   3   4    0.75    2.98   5
  -7   3  -4    2.47    3.93   4
   7   3  -4    1.73    4.24   2
  -7   3   4    0.34    3.84   1
   7  -3  -4    6.36    4.41   3
   7   3  -4   -0.90    4.47   3
  -7  -3  -4    3.55    2.15   5
   9  -3  -4    1.79    4.85   2
   9   3  -4   -3.28    3.22   2
  -9   3   4   -9.79    3.93   1
  -9  -3   4    6.49    6.14   1
  -9   3  -4    7.13    5.84   4
   9   3  -4   -3.71    5.06   3
  -9   3   4    7.51    5.61   5
   9  -3   4   -0.44    3.93   2
  -9  -3   4   -0.77    2.97   5
   9   3   4   -7.27    4.01   2
   9  -3   4    5.14    6.22   1
  11  -3   4   23.23   11.48   2
 -11   3   4   13.33    8.39   5
 -11  -3  -4   10.95   10.09   1
 -11  -3  -4   18.21    6.06   5
  11  -3  -4    5.60    7.06   2
  11   3   4   10.62    8.18   2
 -11  -3   4    8.10    5.76   5
 -11   3  -4   15.00    8.62   5
 -11   3   4   13.81   10.28   1
 -11  -3   4   12.23    9.39   1
 -11   3  -4    9.61    8.83   1
  11   3  -4   19.46   11.25   2
   0   4   4 2800.14   82.40   4
   0   4  -4 2806.75   80.88   4
   0   4   4 2850.01  101.49   1
   0  -4   4 2800.94   93.41   1
   0  -4  -4 2667.38   83.01   3
   0  -4   4 2762.12  101.76   2
   0  -4   4 2868.65   89.51   5
   0  -4  -4 2748.28   78.38   5
   0  -4  -4 2786.42   79.56   2
   0   4  -4 2842.22   81.63   3
   2  -4   4 1366.49   53.94   2
   2  -4   4 1391.24   53.99   1
   2  -4  -4 1425.77   48.93   3
   2  -4  -4 1479.79   46.59   2
  -2   4   4 1426.28   52.93   1
  -2  -4  -4 1370.58   47.35   2
   2  -4  -4 1449.14   47.80   5
   2  -4   4 1446.64   52.81   5
  -2  -4  -4 1406.79   40.56   5
   2   4   4 1363.23   48.31   4
  -2   4   4 1461.54   48.74   4
  -2  -4   4 1363.94   53.40   2
  -2   4  -4 1372.50   49.26   4
   2   4  -4 1388.87   42.91   4
  -2  -4   4 1328.72   48.79   5
   2   4   4 1379.01   50.73   1
   2   4  -4 1400.14   50.98   3
  -2   4   4 1468.87   49.39   5
  -2  -4  -4 1322.83   49.82   3
  -2  -4  -4 1428.12   40.50   5
  -2  -4   4 1393.11   55.28   1
  -2   4  -4 1419.41   42.10   3
  -4  -4   4 2431.37   74.62   5
   4   4  -4 2405.53   81.64   3
   4   4  -4 2370.10   80.27   2
  -4  -4   4 2369.93   83.84   1
  -4   4   4 2363.39   77.93   5
   4  -4   4 2298.64   85.07   1
  -4   4   4 2354.63   84.06   1
   4   4   4 2514.35   77.09   4
   4   4   4 2430.13   81.48   1
   4  -4   4 2378.59   78.64   2
  -4   4   4 2427.07   74.79   4
   4   4   4 2399.41   74.74   2
   4  -4  -4 2406.13   76.42   2
   4   4   4 2411.46   78.06   3
  -4   4  -4 2488.82   79.78   4
   4  -4  -4 2434.71   75.42   3
  -6   4   4 1108.38   48.47   5
  -6   4  -4 1154.84   50.05   4
   6   4   4 1107.13   46.47   3
   6   4  -4 1066.24   49.79   2
  -6   4   4 1172.72   44.30   4
  -6  -4   4 1038.43   42.59   5
   6   4   4 1127.32   46.44   2
  -6  -4   4 1108.77   52.23   1
   6   4   4 1168.03   46.43   4
   6  -4   4 1040.01   47.64   2
  -6   4   4 1151.15   55.18   1
   6  -4   4 1081.64   54.98   1
   6  -4  -4 1086.36   44.44   3
   6   4  -4 1097.31   51.28   3
   6   4   4 1103.31   51.89   1
   6  -4  -4 1184.57   49.43   2
   8   4  -4 1276.54   61.55   2
   8   4   4 1503.09   68.16   1
  -8   4   4 1379.98   60.46   5
  -8   4   4 1442.96   71.13   1
   8  -4   4 1356.11   61.27   2
  -8  -4   4 1375.26   53.59   5
   8   4   4 1441.86   57.79   3
  -8  -4  -4 1328.06   55.77   4
   8  -4  -4 1335.14   61.60   2
   8   4  -4 1364.15   64.04   3
  -8  -4   4 1255.38   64.80   1
  -8   4  -4 1461.83   63.51   4
   8  -4   4 1452.21   72.52   1
   8   4   4 1345.56   58.97   2
  10   4  -4  521.24   40.18   2
 -10   4   4  475.94   47.93   1
  10   4   4  569.01   39.29   2
 -10   4  -4  609.39   38.45   5
  10  -4   4  573.63   40.28   2
 -10  -4  -4  567.54   24.83   5
 -10   4  -4  496.46   47.49   1
 -10  -4  -4  522.56   42.29   1
 -10   4   4  492.22   37.04   5
 -10   4  -4  569.41   39.61   4
 -10  -4   4  615.12   34.53   5
  10  -4  -4  588.44   41.68   2
 -10  -4   4  530.24   43.05   1
  12  -4   4  489.22   46.40   2
 -12   4   4  501.39   40.17   5
 -12  -4  -4  560.68   53.62   1
  12   4   4  569.22   44.57   2
 -12  -4   4  583.23   36.66   5
 -12   4   4  458.51   53.28   1
  12  -4  -4  513.24   42.66   2
 -12  -4  -4  500.60   26.53   5
 -12   4  -4  511.07   38.81   5
 -12   4  -4  506.23   55.51   1
 -12  -4   4  597.42   56.74   1
   1   5  -4  499.38   23.13   4
   1   5   4  563.22   27.25   1
   1  -5   4  528.10   29.39   5
  -1  -5   4  526.85   32.00   1
  -1   5   4  491.25   28.25   1
  -1   5   4  526.44   23.77   5
  -1   5   4  459.14   24.77   4
   1  -5   4  477.22   25.84   1
  -1  -5   4  472.29   33.07   2
  -1  -5  -4  505.74   26.45   3
   1  -5  -4  452.65   24.15   3
  -1  -5  -4  497.83   29.49   2
  -1   5  -4  479.58   25.23   4
   1  -5  -4  491.10   23.13   5
   1   5   4  464.52   24.29   4
   1   5  -4  494.71   24.99   3
   1  -5  -4  491.88   22.84   2
  -1  -5  -4  481.48   20.63   5
  -1   5  -4  492.76   22.17   3
   1  -5   4  389.49   31.18   2
  -1  -5  -4  489.09   20.02   5
  -1  -5   4  498.23   27.44   5
   3  -5  -4  158.63   14.78   5
   3   5   4  165.82   16.87   3
   3  -5   4  154.54   18.58   2
   3  -5   4  190.67   17.99   5
  -3  -5  -4  155.20   15.46   2
   3  -5  -4  152.46   14.48   3
   3  -5   4  173.64   18.25   1
  -3   5   4  167.12   15.60   4
   3   5   4  176.22   13.66   1
   3   5   4  133.77   14.67   4
   3   5  -4  127.91   16.01   3
  -3  -5  -4  152.27    8.17   5
   3   5  -4  151.23   10.24   4
  -3  -5   4  114.81   16.07   2
  -3  -5   4  185.28   18.35   1
  -3   5  -4  163.75    8.76   3
  -3   5  -4  122.36   15.54   4
  -3   5   4  134.79   16.04   1
  -3  -5  -4  161.55    7.82   5
  -3   5   4  133.04   14.53   5
   3  -5  -4  166.69   15.18   2
  -3  -5   4  162.77   15.17   5
   5  -5   4  356.73   24.75   2
   5  -5  -4  375.29   24.16   2
   5   5   4  344.34   22.31   4
   5   5  -4  407.93   27.69   2
  -5   5   4  342.74   21.95   4
   5   5   4  358.50   23.77   3
  -5   5   4  300.29   24.70   1
  -5  -5   4  400.24   26.75   1
  -5   5   4  365.11   24.33   5
   5   5   4  382.48   24.62   1
   5   5  -4  341.08   25.44   3
  -5   5  -4  395.34   26.65   4
   5  -5   4  366.32   27.55   1
   5   5   4  345.34   22.24   2
  -5  -5   4  316.06   20.35   5
   5  -5  -4  354.21   20.96   3
   7  -5  -4   71.25   14.13   2
  -7   5   4   83.21   14.73   5
   7   5   4   78.65   13.72   2
   7   5   4   78.73   12.92   4
   7  -5   4   90.76   18.56   1
  -7  -5   4   60.26   13.10   1
   7   5   4   78.90   13.97   3
   7   5  -4  105.47   17.52   2
   7  -5   4   80.23   14.49   2
  -7   5   4   86.72   17.16   1
  -7   5  -4   75.42   14.74   4
  -7  -5   4   68.11   11.36   5
  -7   5   4   74.66   12.78   4
   7   5  -4   67.43   14.93   3
   7   5   4  106.85   17.84   1
  -9   5  -4   53.64   13.90   4
  -9  -5   4   72.12   16.14   1
   9  -5  -4   53.78   13.82   2
  -9  -5   4   52.51   10.41   5
  -9  -5  -4   67.56    6.70   5
  -9  -5  -4   55.25   14.13   1
  -9   5   4   77.93   18.82   1
  -9   5   4   69.46   14.50   5
   9  -5   4   56.57   13.90   2
   9   5  -4   69.02   16.99   3
   9   5   4   91.94   17.24   2
   9   5  -4   76.83   16.82   2
 -11   5   4   54.21   18.46   1
  11  -5   4   24.66   13.55   2
 -11   5  -4   62.54   15.77   5
 -11  -5   4   53.99   11.96   5
  11  -5  -4   64.24   17.79   2
 -11  -5   4   58.30   16.92   1
 -11  -5  -4   65.30   18.46   1
 -11   5  -4   39.47   14.56   1
  11   5  -4   56.49   17.37   2
  11   5   4   68.09   15.99   2
 -11  -5  -4   71.16    9.32   5
 -11   5   4   69.36   17.37   5
   0  -6  -4 3395.95  102.39   2
   0  -6   4 3316.25  102.62   1
   0   6  -4 3134.94   97.96   3
   0   6   4 3595.09  111.35   1
   0   6  -4 3280.73   98.98   4
   0  -6   4 3435.02  124.83   2
   0  -6  -4 3239.60   95.74   5
   0   6   4 3315.27  100.87   4
   0  -6   4 3525.60  107.72   5
   0  -6  -4 3125.06  100.33   3
  -2  -6   4  906.67   40.88   5
  -2  -6  -4 1005.62   47.44   2
  -2  -6   4  918.42   48.29   2
   2  -6   4  868.60   49.41   2
  -2   6   4 1053.24   39.92   5
  -2   6   4 1011.28   41.94   4
  -2   6  -4 1000.53   35.42   3
   2  -6  -4  919.41   38.43   2
   2   6   4 1044.40   42.22   4
  -2  -6  -4 1017.99   34.16   5
  -2   6   4 1030.93   42.77   1
  -2  -6   4 1006.18   45.80   1
  -2  -6  -4  986.55   32.62   5
   2   6   4  979.81   36.91   1
   2   6  -4  964.73   36.57   4
   2   6   4  963.86   42.34   3
   2  -6  -4  936.45   39.66   3
   2   6  -4  941.68   42.49   3
   2  -6   4  969.99   41.26   1
   2  -6   4  985.62   45.72   5
   2  -6  -4  951.90   39.66   5
  -2   6  -4  972.89   42.19   4
  -4  -6  -4 2195.70   56.87   5
  -4  -6   4 2165.18   80.74   2
  -4   6  -4 2125.70   77.85   4
   4  -6  -4 2145.42   74.18   2
  -4   6   4 2124.65   73.95   4
   4  -6   4 2126.66   80.41   2
   4   6  -4 2042.82   78.16   3
  -4   6   4 2192.92   78.40   1
   4  -6   4 2172.21   80.13   1
  -4  -6   4 2134.20   71.78   5
   4   6   4 2137.52   76.48   3
   4   6   4 2200.83   73.18   1
  -4  -6  -4 2202.86   75.52   2
  -4  -6   4 2135.51   77.80   1
   4   6   4 2112.30   72.55   4
  -4   6   4 2156.79   74.98   5
   4  -6  -4 2171.50   72.75   5
   4  -6  -4 2193.53   71.44   3
   4   6  -4 2181.13   63.21   4
  -4  -6  -4 2175.11   58.95   5
   6  -6   4  445.56   32.59   1
  -6   6   4  359.14   29.23   1
   6  -6  -4  363.78   27.20   2
   6   6  -4  409.06   30.37   2
   6   6   4  442.36   28.20   2
   6   6   4  469.42   30.17   3
   6  -6   4  406.66   29.80   2
   6   6  -4  448.69   32.08   3
   6   6   4  387.50   25.67   4
   6  -6  -4  454.57   25.74   3
  -6   6  -4  415.32   30.03   4
  -6   6   4  432.10   29.05   5
  -6   6   4  480.64   28.67   4
  -6  -6   4  432.36   24.91   5
  -6  -6   4  447.85   30.65   1
   6   6   4  450.18   28.83   1
  -8  -6  -4  869.38   42.62   4
   8   6  -4  931.63   52.04   2
   8  -6   4  856.43   49.74   2
   8  -6  -4  819.74   47.53   2
  -8   6  -4  886.02   49.37   4
   8   6   4  924.59   46.69   3
  -8  -6   4  847.44   39.97   5
  -8  -6   4  930.75   52.11   1
  -8   6   4  921.46   49.28   5
   8  -6   4  882.25   55.21   1
  -8  -6  -4  759.10   47.05   1
   8   6  -4  931.93   53.18   3
   8   6   4  914.29   47.72   2
  10  -6  -4  284.38   33.95   2
  10  -6   4  248.14   32.13   2
 -10  -6  -4  254.95   13.55   5
 -10   6  -4  293.28   37.86   1
 -10  -6  -4  257.13   33.42   1
 -10   6  -4  296.95   31.86   5
  10   6  -4  264.66   34.47   2
  10   6   4  280.31   31.50   2
  10   6  -4  314.19   35.65   3
 -10  -6   4  284.17   35.66   1
 -10  -6   4  272.55   22.12   5
 -10   6  -4  225.08   30.24   4
 -10   6   4  269.46   31.15   5
 -10   6   4  267.15   37.21   1
  12   6   4  517.64   47.83   2
 -12  -6  -4  499.39   23.18   5
 -12  -6   4  459.14   49.52   1
   1   7  -4  187.47   14.97   4
   1  -7  -4  170.39   17.37   3
  -1  -7  -4  184.70   12.46   5
  -1   7   4  172.12   19.01   1
   1  -7   4  205.57   15.07   1
   1  -7  -4  208.88   15.48   5
   1   7   4  156.32   11.32   1
  -1   7   4  211.54   15.24   5
   1   7  -4  154.98   16.98   3
   1  -7   4  147.05   19.38   5
  -1  -7  -4  178.67   18.79   3
  -1   7  -4  162.85   15.04   3
  -1  -7   4  158.79   18.56   5
   1  -7   4  158.56   26.15   2
   1   7   4  124.24   16.10   4
  -1  -7  -4  212.73   24.20   2
  -1  -7   4  138.65   23.97   2
  -1   7   4  166.32   18.16   4
  -1  -7   4  172.04   16.71   1
   1  -7  -4  163.67   18.20   2
  -1   7  -4  143.52   17.14   4
  -1  -7  -4  192.74   13.79   5
  -3   7   4   32.47    8.23   1
   3   7  -4   36.51    7.64   4
   3   7   4   37.30    9.01   4
  -3   7  -4   47.43    7.03   3
  -3  -7  -4   33.66    6.07   5
   3  -7   4   34.56    8.94   1
   3  -7   4   15.82    8.45   2
   3  -7  -4   38.71    9.29   2
   3  -7  -4   22.46    6.87   5
  -3   7   4   30.97    7.47   5
   3  -7  -4   44.56    9.46   3
   3   7  -4   47.02   10.95   3
  -3   7   4   45.50   10.05   4
  -3  -7   4   48.62   12.82   2
   3  -7   4   40.73   10.24   5
  -3  -7  -4   40.97    5.72   5
   3   7   4   41.66    7.49   1
  -3   7  -4   33.02    8.62   4
  -3  -7   4   33.36    8.52   5
  -3  -7   4   59.66   11.98   1
  -3  -7  -4   36.61   10.50   2
   3   7   4   44.71   10.21   3
  -5  -7   4  138.55   21.16   2
  -5  -7  -4  145.13    9.02   5
   5   7  -4  138.92   20.72   3
   5  -7   4  162.89   22.34   2
  -5  -7   4  154.01   16.94   5
   5  -7  -4  168.73   17.61   3
   5   7   4  143.03   16.23   1
  -5   7  -4  133.72   19.29   4
   5   7   4  157.70   20.16   3
  -5  -7   4  171.90   19.55   1
  -5   7   4  153.82   20.19   1
  -5   7   4  136.46   17.66   4
  -5   7   4  170.23   19.96   5
   5  -7   4  130.86   19.62   1
   5  -7  -4  168.68   19.92   2
  -5  -7  -4  162.16   20.41   2
   5   7   4  142.84   17.97   4
  -5  -7  -4  164.00    7.67   5
  -7   7   4   23.16   10.28   1
  -7  -7   4   20.14    8.17   1
   7   7  -4   20.43    9.28   3
   7  -7   4   38.49   11.40   2
  -7   7   4   25.67    9.67   5
   7  -7  -4   11.43    6.17   2
  -7  -7   4   36.48    8.52   5
  -7   7  -4   26.15    9.78   4
  -7   7   4   31.88    8.73   4
   7   7   4   25.41    9.36   3
   7   7  -4   23.21    9.32   2
   7   7   4   27.80    8.25   4
   7  -7   4   35.63   11.30   1
   7   7   4   28.04    9.11   2
  -9  -7  -4   31.64   11.20   1
   9   7   4   14.89    9.47   3
   9   7  -4   19.10    9.63   2
   9   7   4   27.96    9.62   2
  -9  -7   4    7.59    5.25   5
  -9   7  -4   18.80    8.85   5
  -9   7  -4   31.86   11.46   1
  -9   7   4   24.56   10.21   1
  -9  -7   4   15.94    8.41   1
  -9   7  -4    9.36    7.72   4
  -9   7   4   27.08   10.99   5
   9  -7  -4    8.11    7.36   2
   9  -7   4   14.06    8.68   2
   9   7  -4   12.64    8.86   3
 -11   7  -4   46.37   15.10   5
 -11  -7  -4   33.47    5.71   5
  11   7   4   31.36   13.60   2
  11  -7  -4   25.82   10.99   2
 -11  -7   4   42.40   10.72   5
 -11   7   4   38.59   17.18   1
 -11   7   4   24.60   13.29   5
 -11   7  -4   25.54   13.98   1
  11   7  -4   19.89   12.35   2
  11  -7   4   20.09   14.00   2
   0  -8   4  698.98   39.19   5
   0  -8   4  740.01   31.49   1
   0   8  -4  701.32   35.84   4
   0  -8  -4  723.16   37.36   3
   0  -8  -4  724.13   39.79   2
   0  -8  -4  738.72   34.00   5
   0   8  -4  734.10   35.61   3
   0   8   4  766.28   32.00   1
   0  -8   4  818.25   53.25   2
   0   8   4  738.04   37.62   4
  -2  -8   4 1577.15   77.69   2
  -2  -8  -4 1542.18   71.19   2
   2  -8  -4 1587.46   63.15   2
   2   8  -4 1537.52   57.95   4
  -2   8   4 1664.69   61.20   1
   2  -8   4 1700.47   59.39   1
  -2   8   4 1665.48   59.42   5
   2  -8  -4 1603.01   60.86   5
  -2  -8  -4 1648.76   55.02   5
   2   8   4 1654.26   65.01   3
  -2  -8   4 1640.49   63.68   1
  -2   8  -4 1570.11   55.22   3
   2   8   4 1625.25   50.96   1
  -2   8  -4 1634.38   64.21   4
   2   8   4 1495.43   61.12   4
  -2   8   4 1649.41   63.57   4
   2  -8  -4 1675.94   62.03   3
  -2  -8   4 1641.31   64.82   5
   2  -8   4 1300.64   75.98   2
   2   8  -4 1567.40   63.47   3
   2  -8   4 1624.74   67.55   5
  -4   8   4  753.29   39.61   5
   4  -8  -4  862.66   39.99   5
  -4  -8   4  783.66   47.54   2
  -4   8   4  817.86   41.69   1
   4   8   4  777.54   33.83   1
  -4  -8   4  782.96   39.21   5
   4  -8   4  718.41   46.58   2
  -4   8  -4  759.14   42.21   4
   4  -8  -4  803.16   41.14   2
   4   8  -4  819.41   35.81   4
  -4  -8  -4  756.62   43.61   2
   4   8  -4  858.96   45.40   3
   4   8   4  838.10   40.85   4
   4  -8   4  821.00   41.25   1
  -4  -8   4  856.11   41.04   1
   4   8   4  756.10   41.81   3
  -4  -8  -4  821.17   31.20   5
  -4   8   4  819.56   41.53   4
   4  -8  -4  855.34   40.06   3
   6   8  -4 1434.18   66.42   3
  -6   8   4 1356.18   62.92   1
  -6  -8   4 1316.97   58.59   1
  -6   8   4 1304.20   60.05   5
   6   8   4 1245.43   59.51   3
  -6  -8   4 1311.30   67.07   2
  -6  -8   4 1338.84   54.33   5
  -6   8   4 1308.92   57.40   4
  -6  -8  -4 1316.30   41.53   5
  -6  -8  -4 1414.93   63.91   2
  -6   8  -4 1410.57   63.53   4
   6  -8   4 1325.79   63.64   1
   6   8   4 1381.74   55.75   1
   6  -8   4 1293.28   65.44   2
   6  -8  -4 1259.66   59.19   2
   6   8   4 1335.40   57.93   4
  -8   8   4  572.97   40.19   5
   8   8  -4  623.74   44.26   3
  -8  -8   4  668.21   45.99   2
   8  -8  -4  593.46   40.64   2
  -8   8  -4  555.51   39.83   4
  -8   8   4  577.33   42.21   1
  -8  -8   4  634.36   34.38   5
   8   8   4  602.73   40.30   3
  -8  -8  -4  608.04   40.59   2
   8  -8   4  587.34   43.57   2
 -10  -8   4  688.94   51.47   2
 -10   8   4  684.76   46.55   5
  10   8  -4  661.60   48.55   3
 -10   8  -4  632.91   49.79   1
 -10   8  -4  614.63   44.34   5
 -10   8   4  665.73   51.48   1
  10  -8   4  641.18   49.60   2
 -10   8  -4  633.15   46.23   4
 -10  -8   4  571.29   35.14   5
  10  -8  -4  643.97   46.92   2
  -1   9  -4   16.85    6.56   3
   1  -9  -4    8.66    6.99   2
   1  -9  -4    9.80    5.09   5
  -1   9   4   13.60    6.66   1
   1  -9  -4    8.03    4.88   3
   1  -9   4    6.51    8.28   2
  -1  -9   4    9.38    7.23   2
  -1  -9   4    6.68    5.46   5
   1   9  -4    4.07    3.59   4
   1  -9   4    7.17    5.59   5
  -1  -9  -4   16.55    9.52   2
  -1   9   4    8.43    5.80   4
  -1  -9  -4   -0.82    4.83   3
   1   9   4   11.17    6.02   4
  -1   9  -4    0.97    3.49   4
   1   9  -4    9.78    5.55   3
  -1  -9  -4   11.82    4.92   5
   1  -9   4   11.59    5.19   1
   3  -9   4    9.33    6.21   1
   3  -9   4   18.94    8.21   5
  -3  -9  -4    1.28    2.62   5
   3   9  -4    6.45    4.92   4
   3  -9   4   10.66    7.84   2
   3   9   4   16.20    6.64   3
  -3  -9   4    4.11    6.83   2
   3  -9  -4   13.49    7.44   2
  -3   9   4    3.36    4.42   1
  -3  -9   4    6.17    5.26   5
  -3  -9  -4   15.65   10.02   2
  -3   9   4   -1.07    3.08   4
   3   9  -4    8.57    4.65   3
   3  -9  -4   21.51    7.78   3
  -3   9  -4    6.97    4.51   4
   3   9   4    2.58    3.67   4
   3  -9  -4    9.19    4.92   5
   5  -9  -4    8.89    5.90   2
  -5   9   4   16.32    7.99   1
  -5   9   4   16.82    7.07   4
   5  -9  -4   12.31    6.37   3
  -5  -9   4   14.15    5.55   5
  -5  -9   4    7.12    6.62   2
  -5  -9  -4   21.88    5.12   5
  -5  -9  -4   27.36    9.04   2
   5  -9   4   25.87   10.55   2
   5  -9   4   29.03    9.56   1
  -5   9  -4   27.16    9.61   4
   5   9   4   20.63    8.01   3
   5   9  -4    9.63    6.36   3
   5   9   4   24.12    7.85   4
   7  -9  -4   -0.23    4.28   2
   7   9  -4  -12.59    4.01   3
  -7   9   4   -8.70    5.11   1
  -7   9   4   -1.65    4.46   4
   7  -9   4   -7.03    4.44   2
   7   9   4   -4.27    4.43   3
  -7   9  -4    0.79    5.21   4
  -7  -9  -4    0.06    2.81   5
   7   9   4    5.93    5.71   4
  -7  -9   4    6.32    4.91   5
  -7  -9  -4    4.99    5.61   2
   7  -9   4    3.31    5.48   1
  -7  -9   4    5.92    6.28   2
  -9   9   4    4.11    6.46   1
   9   9   4    5.62    7.64   3
   9  -9   4    6.99    6.94   2
  -9   9  -4    1.31    6.64   4
  -9  -9   4    5.88    5.49   5
  -9  -9  -4    9.51    6.80   2
  -9  -9   4    5.14    7.20   2
   9   9  -4    0.15    7.38   3
  -9   9  -4    1.09    7.54   1
   9  -9  -4   -0.53    5.30   2
  -9   9  -4    3.16    6.57   5
 -11   9  -4   24.31   13.24   1
  11   9  -4    7.83   11.67   3
 -11   9  -4    9.14   11.06   5
 -11   9   4   12.89   10.85   1
   0 -10  -4 1684.41   68.73   3
   0 -10  -4 1533.97   62.39   5
   0 -10   4 1731.27   85.16   2
   0 -10   4 1523.55   67.59   5
   0  10   4 1609.21   67.52   4
   0  10  -4 1592.57   66.02   4
   0  10  -4 1688.06   64.82   3
   0 -10  -4 1745.64   73.71   2
   2  10   4  902.86   46.66   4
  -2 -10   4  876.14   58.88   2
   2  10   4 1027.51   50.19   3
  -2 -10  -4  931.01   40.83   5
   2 -10  -4  960.08   49.61   2
  -2 -10   4  942.01   47.80   5
  -2  10  -4  903.45   40.65   3
   2 -10   4  902.01   49.68   5
  -2  10  -4  899.10   47.54   4
   2 -10  -4  942.36   45.91   3
   2  10  -4  912.87   44.29   4
  -2 -10  -4  967.59   56.06   2
   2  10  -4  841.20   46.01   3
   2 -10  -4  889.90   45.00   5
   2 -10   4 1019.91   67.92   2
  -2  10   4  928.91   47.51   4
   4 -10  -4 1155.62   53.70   5
   4 -10   4 1087.05   68.27   2
  -4 -10   4 1042.60   51.69   5
  -4 -10  -4 1160.17   64.41   2
   4 -10  -4 1030.55   52.91   2
   4 -10   4 1128.24   50.41   1
  -4 -10   4 1073.80   64.55   2
  -4  10   4 1015.46   52.18   4
  -4  10  -4 1115.70   57.01   4
   4 -10  -4 1113.32   51.63   3
  -4 -10  -4 1130.10   43.12   5
   4  10   4 1157.34   54.68   4
   4  10  -4 1013.23   54.95   3
   4  10   4 1132.93   55.89   3
  -4  10   4 1127.13   52.29   1
   6  10   4  461.21   35.24   3
  -6  10   4  479.98   34.32   4
  -6 -10  -4  467.08   22.85   5
   6  10  -4  455.86   36.85   3
   6 -10   4  418.51   44.98   2
   6  10   4  486.96   33.47   4
  -6 -10   4  386.51   42.05   2
  -6  10  -4  475.94   37.13   4
  -6  10   4  513.09   35.56   1
   6 -10  -4  405.64   33.37   2
   6 -10   4  430.52   33.16   1
  -6 -10   4  444.87   30.37   5
  -6 -10  -4  472.52   37.24   2
   8 -10   4  491.56   49.09   2
   8  10   4  504.34   38.95   3
  -8 -10   4  527.51   49.76   2
  -8  10   4  492.74   37.06   4
  -8 -10  -4  528.11   23.60   5
   8  10  -4  518.21   41.82   3
  -8  10   4  577.96   42.06   1
  -8 -10  -4  561.73   42.29   2
  -8  10  -4  523.01   40.47   1
  -8  10  -4  544.53   40.50   5
   8 -10  -4  514.34   40.95   2
  -8  10  -4  523.69   42.20   4
  -8 -10   4  447.76   31.62   5
 -10  10  -4  254.78   35.68   4
 -10 -10   4  244.32   36.92   2
 -10 -10   4  267.00   26.61   5
  10 -10  -4  204.39   31.76   2
 -10  10  -4  265.90   37.14   1
  10  10  -4  274.66   39.24   3
 -10  10   4  287.32   38.15   1
  10 -10   4  289.55   42.56   2
 -10  10  -4  284.95   35.36   5
  -1  11  -4  408.28   27.87   3
   1  11  -4  388.25   29.18   3
  -1 -11   4  409.77   30.85   5
   1 -11  -4  518.22   37.60   2
  -1 -11  -4  424.92   28.04   5
  -1  11  -4  445.21   32.35   4
  -1 -11  -4  494.62   34.46   3
  -1 -11   4  464.25   46.59   2
   1 -11   4  430.17   33.08   5
   1 -11  -4  425.41   29.28   5
   1  11   4  496.00   34.93   4
   1 -11  -4  388.59   29.72   3
   1  11  -4  392.72   28.73   4
   1 -11   4  469.75   48.43   2
  -1 -11  -4  464.09   36.04   2
  -1  11   4  443.85   32.33   4
   3 -11  -4  229.86   25.80   5
   3  11  -4  211.59   23.40   4
  -3 -11  -4  191.08   18.75   5
  -3 -11   4  211.83   34.90   2
   3  11  -4  205.84   26.49   3
   3 -11  -4  205.57   23.88   3
  -3 -11  -4  224.73   31.64   2
  -3  11  -4  182.27   24.91   4
   3  11   4  206.58   26.91   3
   3 -11   4  173.88   32.28   2
  -3 -11   4  181.51   23.59   5
   3 -11  -4  209.20   26.47   2
  -3  11   4  232.13   26.82   4
   3  11   4  226.82   26.99   4
  -5 -11  -4  370.85   42.12   2
   5  11  -4  272.03   32.70   3
  -5  11  -4  288.95   32.97   4
  -5 -11   4  349.38   27.99   5
   5  11   4  318.29   33.11   3
   5 -11  -4  316.15   33.14   2
  -5  11   4  330.87   31.67   4
  -5 -11  -4  319.65   20.61   5
   5  11   4  333.69   31.98   4
  -5 -11   4  336.59   42.56   2
   5 -11   4  404.13   47.63   2
  -7 -11  -4  116.19   12.75   5
  -7  11  -4  113.56   21.91   4
  -7 -11   4  120.85   25.04   2
   7 -11  -4   98.01   19.72   2
   7  11   4  157.65   24.63   4
  -7  11   4  139.54   22.00   4
  -7 -11   4  125.36   19.31   5
   7 -11   4  143.17   28.37   2
  -7 -11  -4  109.55   22.83   2
   7  11   4  153.51   24.78   3
   7  11  -4   76.25   18.62   3
   9  11   4  112.87   22.50   3
  -9 -11   4   77.95   15.45   5
   9  11  -4   72.61   20.40   3
  -9 -11  -4   63.30   16.05   2
   9 -11  -4  119.83   23.64   2
  -9 -11  -4  107.23   11.18   5
   9 -11   4   85.34   23.16   2
  -9 -11   4   92.85   23.12   2
  -9  11  -4   69.10   18.51   4
   0 -12  -4  501.24   32.08   5
   0  12  -4  414.06   30.75   4
   0  12  -4  420.93   29.82   3
   0 -12   4  453.88   46.35   2
   0 -12   4  485.95   35.55   5
   0 -12  -4  402.82   38.89   2
   0 -12  -4  456.10   34.13   3
   0  12   4  360.64   34.06   4
   2 -12  -4  706.50   40.60   5
  -2 -12   4  629.17   57.13   2
   2 -12  -4  683.52   44.71   2
  -2 -12  -4  607.70   35.21   5
  -2 -12   4  615.07   39.74   5
   2  12   4  642.76   42.59   3
  -2  12   4  653.48   42.25   4
  -2  12  -4  633.90   42.26   4
   2 -12   4  589.66   41.44   5
   2 -12   4  716.87   57.25   2
  -2 -12  -4  659.77   46.09   2
   2  12  -4  686.52   42.41   3
   2 -12  -4  681.30   40.83   3
   2  12  -4  706.12   40.08   4
   2  12   4  673.74   42.49   4
  -4 -12  -4  514.53   49.56   2
  -4  12   4  499.32   36.57   4
  -4 -12   4  506.17   35.37   5
  -4 -12  -4  505.24   28.86   5
   4  12   4  492.92   36.79   4
   4  12   4  470.12   36.82   3
   4  12  -4  474.29   37.33   3
  -4 -12   4  417.37   51.85   2
   4 -12   4  433.78   54.60   2
   4 -12  -4  511.06   36.22   3
  -4  12  -4  514.86   38.73   4
   4 -12  -4  531.37   39.07   2
  -6 -12   4  706.73   56.31   2
  -6 -12  -4  632.58   31.20   5
   6  12  -4  580.23   44.78   3
  -6 -12   4  642.94   40.71   5
  -6  12  -4  549.83   43.08   4
   6  12   4  652.36   44.04   4
  -6  12   4  656.50   43.55   4
   6 -12   4  640.95   61.09   2
   6  12   4  599.35   43.40   3
   6 -12  -4  642.03   44.81   2
  -6 -12  -4  620.44   50.32   2
  -8 -12   4  441.79   33.19   5
   8 -12  -4  354.87   40.27   2
   8 -12   4  373.65   51.47   2
  -8  12  -4  472.00   45.44   4
  -8 -12  -4  425.68   23.35   5
   8  12   4  468.22   44.02   3
   8  12  -4  452.40   47.53   3
  -8  12   4  409.02   39.09   4
  -8 -12   4  533.40   54.81   2
  -8 -12  -4  442.29   48.88   2
 -10 -12  -4  391.81   19.71   5
  -1 -13  -4    8.73    7.01   3
  -1  13  -4   15.58    7.12   3
  -1 -13  -4   30.99   10.54   2
  -1 -13  -4   12.43    6.60   5
   1  13  -4    5.92    7.19   3
   1 -13   4   19.89   10.13   2
   1  13   4   10.67    9.21   4
   1  13  -4   17.33    8.39   4
  -1 -13   4   25.85    9.18   5
   1 -13  -4   11.17    7.29   3
   1 -13   4   10.62    7.20   5
  -1  13   4   38.75   11.62   4
   1 -13  -4   13.03    6.33   5
  -1  13  -4    7.71    6.53   4
   1 -13  -4    7.98    7.64   2
  -1 -13   4   13.19    9.36   2
   3  13   4   46.68   13.52   3
  -3 -13  -4   75.28   13.43   5
  -3  13  -4   72.72   16.76   4
  -3  13   4   59.34   15.03   4
   3 -13  -4   72.67   15.79   5
   3  13   4   50.03   13.83   4
   3  13  -4   63.37   15.61   3
  -3 -13  -4   68.53   17.74   2
   3 -13  -4   73.46   16.91   2
   3 -13  -4   70.35   15.94   3
   3  13  -4   59.23   14.42   4
  -3 -13   4   69.60   19.57   2
  -3 -13   4   80.93   15.94   5
   3 -13   4   94.14   24.57   2
   5  13  -4    5.97    7.10   3
  -5  13   4    8.92    6.81   4
  -5 -13   4  -13.52    6.96   2
  -5 -13  -4    7.96    4.46   5
   5  13   4   -3.65    4.76   3
   5 -13   4   10.24   10.53   2
   5 -13  -4   10.72    7.00   2
  -5 -13  -4    4.63    7.56   2
   5  13   4    5.64    7.27   4
  -5 -13   4    2.69    4.82   5
  -5  13  -4    4.79    8.16   4
  -7 -13   4   12.21   10.32   2
  -7  13   4   28.77   10.82   4
  -7 -13   4   29.34   10.74   5
   7 -13  -4   38.86   12.71   2
  -7 -13  -4    7.69   13.76   2
  -7 -13  -4   21.48    6.52   5
   7 -13   4   23.55   15.19   2
   7  13   4   24.33   11.66   3
  -7  13  -4   48.10   15.08   4
   7  13  -4   24.54   11.52   3
  -9  13  -4  -12.87    6.17   4
  -9 -13  -4   10.36    5.10   5
   9  13   4   26.67   14.07   3
   9 -13  -4   29.66   11.34   2
   0  14   4  998.99   57.58   4
   0  14  -4  965.20   53.80   4
   0 -14  -4 1062.84   53.93   5
   0 -14  -4 1075.71   63.70   2
   0 -14   4  942.13   65.05   2
   0  14  -4  984.50   52.25   3
   0 -14  -4  973.99   55.43   3
   0 -14   4  962.43   55.33   5
  -2  14  -4  315.69   35.23   4
  -2 -14   4  271.34   30.65   5
  -2 -14  -4  314.50   29.35   5
   2 -14  -4  284.25   31.96   3
  -2 -14  -4  277.64   34.22   3
   2  14   4  207.98   29.09   4
  -2  14   4  273.33   33.43   4
   2 -14   4  265.39   41.17   2
   2 -14  -4  305.03   32.36   5
   2  14  -4  222.40   29.40   3
  -2 -14  -4  281.69   35.43   2
   2  14  -4  237.15   28.71   4
   2 -14  -4  286.74   36.08   2
  -2 -14   4  292.09   41.25   2
  -4  14   4  683.86   47.73   4
  -4 -14   4  682.09   43.69   5
  -4 -14   4  755.82   61.37   2
   4  14   4  684.21   48.34   3
  -4 -14  -4  670.38   38.48   5
  -4 -14  -4  693.61   53.69   2
   4  14  -4  783.86   50.56   3
   4 -14  -4  829.80   54.49   2
   4 -14   4  735.31   72.73   2
   4  14   4  678.66   47.73   4
  -4  14  -4  787.38   51.95   4
  -6 -14   4  144.37   22.43   5
  -6  14  -4  113.18   23.36   4
   6  14   4  113.71   23.44   3
  -6 -14  -4  144.44   28.58   2
  -6 -14   4   98.43   28.26   2
  -6 -14  -4  130.47   17.08   5
   6  14   4  148.67   26.10   4
   6 -14  -4  153.63   27.69   2
   6 -14   4  115.86   31.41   2
   6  14  -4  121.63   23.86   3
  -6  14   4  176.06   27.27   4
  -8  14   4  340.22   39.20   4
   8 -14  -4  325.35   42.51   2
  -8 -14   4  398.21   54.03   2
  -8  14  -4  424.30   46.42   4
  -8 -14  -4  369.08   23.45   5
   8 -14   4  318.27   54.54   2
   8  14   4  385.98   44.73   3
  -8 -14   4  377.59   35.70   5
   8  14  -4  371.77   46.35   3
  -1  15  -4  212.97   29.58   4
  -1  15   4  176.30   27.52   4
  -1 -15   4  180.16   25.97   5
  -1 -15  -4  191.58   29.33   3
   1  15  -4  220.71   28.62   4
   1 -15  -4  178.14   25.00   5
   1  15  -4  212.20   27.96   3
  -1 -15  -4  202.52   26.87   5
   1 -15  -4  180.67   27.23   3
  -1 -15  -4  180.94   29.24   2
  -1 -15   4  195.84   32.81   2
   1 -15   4  150.58   30.28   2
   1 -15  -4  212.64   33.11   2
   1  15   4  199.36   30.21   4
  -3 -15   4   80.77   21.36   2
   3 -15   4   70.28   22.04   2
   3  15   4  123.59   23.82   4
  -3  15   4   57.83   15.76   4
  -3 -15  -4  110.28   23.51   2
  -3 -15   4   92.61   17.84   5
  -3 -15  -4   90.88   16.76   5
   3  15  -4   84.80   18.87   3
   3 -15  -4  125.59   24.49   2
  -3  15  -4   57.24   16.52   4
  -5  15   4  129.49   24.67   4
  -5 -15  -4  131.19   18.86   5
  -5 -15   4  152.49   31.71   2
   5 -15  -4  147.65   28.26   2
   5  15  -4  125.26   24.57   3
  -5 -15  -4  139.92   29.12   2
  -5  15  -4  166.03   27.82   4
   5  15   4  207.93   31.74   3
  -5 -15   4  172.17   25.16   5
   5 -15   4  150.83   35.28   2
   5  15   4  165.06   28.05   4
  -7  15   4   70.39   18.52   4
  -7  15  -4   58.70   16.88   4
  -7 -15   4   67.65   20.56   2
   7  15  -4   89.52   22.81   3
  -7 -15  -4   64.53   12.10   5
   7  15   4  132.69   26.95   3
  -7 -15   4   69.34   16.89   5
   7 -15   4  108.26   32.65   2
   7 -15  -4   22.24   11.51   2
   0  16  -4  472.82   38.06   4
   0 -16  -4  455.65   36.20   5
   0  16  -4  416.69   38.26   3
   0  16   4  469.10   45.13   4
   0 -16   4  468.31   42.95   5
   0 -16  -4  541.06   49.94   2
   0 -16   4  475.97   51.16   2
   0 -16  -4  427.09   41.98   3
  -2 -16   4  293.53   33.77   5
   2  16   4  355.78   39.58   4
  -2 -16  -4  286.22   31.32   5
   2 -16  -4  325.80   37.14   5
  -2  16  -4  326.78   38.00   4
   2 -16   4  396.81   52.05   2
   2 -16  -4  377.99   44.16   2
   2 -16  -4  372.85   38.46   3
  -2 -16   4  311.71   43.24   2
   2  16  -4  316.81   36.41   3
  -2  16   4  312.43   38.84   4
  -2 -16  -4  278.33   36.48   3
   2  16  -4  374.40   37.88   4
  -2 -16  -4  381.27   42.75   2
   4 -16   4  506.25   63.53   2
   4 -16  -4  505.87   51.60   2
  -4 -16  -4  577.52   47.34   2
  -4 -16   4  500.54   38.79   5
   4  16   4  490.17   47.88   4
  -4  16  -4  491.43   46.81   4
  -4 -16  -4  514.33   35.65   5
  -4 -16   4  485.17   58.10   2
  -4  16   4  546.93   44.52   4
   4  16  -4  478.92   46.65   3
   6 -16  -4  350.21   45.17   2
   6  16  -4  308.25   40.82   3
   6  16   4  302.02   42.04   3
  -6  16   4  353.86   41.31   4
  -6 -16   4  238.86   42.24   2
   6 -16   4  268.76   49.19   2
  -6  16  -4  388.93   44.02   4
  -6 -16  -4  339.99   26.19   5
  -6 -16   4  316.32   34.36   5
   1 -17  -4    7.29    7.97   5
  -1 -17   4    0.96    7.44   2
  -1 -17  -4   -7.09    7.61   3
   1  17   4   15.62   10.24   4
   1  17  -4    4.35    9.25   4
  -1 -17   4  -15.86    6.45   5
   1 -17   4   18.80   11.63   2
  -1 -17  -4   -2.77    5.54   5
  -1 -17  -4    1.06    9.62   2
   1 -17  -4    8.36   11.22   2
   1 -17  -4   19.54    9.74   3
  -1  17   4   -1.71    9.32   4
   1  17  -4    6.35    7.58   3
  -1  17  -4  -17.40    5.13   4
  -3 -17   4   18.35   10.47   2
  -3  17   4   16.07    7.72   4
   3  17   4   -5.91    9.08   4
   3 -17   4    8.30   10.41   2
  -3  17  -4   14.44   11.73   4
  -3 -17  -4   -0.28    5.22   5
  -3 -17   4   -4.35    6.61   5
   3  17  -4    0.71    6.97   3
   3 -17  -4   -7.02    7.68   2
  -3 -17  -4   19.21   11.39   3
   5 -17   4   -8.37   14.19   2
  -5 -17  -4   -9.32    5.86   5
  -5 -17   4   19.41    9.35   5
  -5 -17   4   13.53   11.76   2
   5  17  -4   -6.25    6.44   3
  -5  17  -4    2.60   10.05   4
  -5  17   4    3.93    7.31   4
   5 -17  -4    1.97    8.68   2
   5  17   4   -8.03   11.74   4
   0 -18  -4  773.72   55.26   3
   0  18  -4  752.42   53.08   4
   0 -18  -4  724.77   50.11   5
   0 -18   4  693.54   57.56   2
   0 -18  -4  671.90   53.42   2
   0  18   4  672.29   54.03   4
  -2  18  -4  281.25   38.10   4
  -2 -18   4  210.84   36.03   2
  -2 -18   4  256.11   34.17   5
   2 -18  -4  311.29   43.01   2
  -2 -18  -4  243.80   37.62   3
  -2 -18  -4  251.14   31.42   5
   2  18  -4  328.43   38.78   3
  -2  18   4  258.85   37.68   4
   2  18   4  242.06   36.70   4
   2 -18   4  260.58   42.23   2
   4 -18  -4  582.25   56.83   2
   4  18   4  637.98   57.79   4
  -1 -19  -4   23.81   15.93   3
   1  19  -4   28.07   17.07   4
  -1 -19  -4   34.03   12.84   5
  -1   0   5   69.27    9.09   5
   1   0  -5   63.47    8.54   3
  -1   0   5   73.14   14.93   1
  -1   0   5   68.11    6.53   4
   1   0  -5   71.58    6.07   2
   1   0   5   74.37    4.35   2
   1   0   5   78.48    8.68   4
   1   0   5   41.08   11.47   1
  -1   0  -5   60.78    7.44   3
  -3   0  -5  202.90   13.57   5
   3   0   5  213.55   21.88   1
  -3   0  -5  187.30   11.40   3
  -3   0  -5  199.87   14.19   4
   3   0  -5  221.43   13.74   2
  -3   0   5  181.78   19.03   1
   3   0  -5  186.83   14.21   3
  -3   0   5  216.83    8.84   4
   3   0   5  212.09   11.52   2
  -3   0   5  208.20   15.09   5
   5   0   5    6.42    3.34   2
  -5   0  -5    9.89    4.73   4
   5   0  -5    9.02    4.43   3
   5   0  -5   10.40    5.20   2
  -5   0  -5   19.01    4.45   3
  -5   0   5    9.85    6.22   1
  -5   0  -5   16.32    4.75   5
  -5   0   5   14.49    5.33   5
   5   0   5   25.47    8.35   1
   7   0   5   59.23   10.99   2
  -7   0   5   45.69   12.34   1
   7   0  -5   52.32   11.75   3
   7   0   5   54.11   14.03   1
  -7   0  -5   64.93   11.69   4
  -7   0   5   51.51   10.88   5
   7   0  -5   50.43   10.63   2
  -9   0   5   38.45   10.11   5
   9   0  -5   18.92    8.12   2
  -9   0   5    9.68    6.70   1
   9   0   5   31.58    9.96   2
  -9   0  -5   24.95    8.22   4
   9   0   5   37.44   13.31   1
 -11   0  -5   -1.18    3.41   5
 -11   0   5   -2.12    5.10   5
 -11   0  -5    2.98    7.66   1
  11   0  -5   -8.35    4.49   2
  11   0   5    7.25    7.87   2
 -11   0   5    7.29    7.07   1
   0   1   5  164.20   10.65   4
   0   1  -5  165.64   10.88   3
   0  -1   5  177.20   13.49   5
   0   1   5  132.61   22.67   1
   0  -1   5  153.07   15.41   2
   0  -1  -5  178.14   11.83   3
   0   1   5  150.45   11.27   5
   0   1  -5  160.29    9.60   4
   0  -1   5  119.65   20.39   1
   2  -1   5  129.34   17.61   1
  -2   1   5  169.60   18.34   1
   2   1  -5  163.94   11.22   2
   2   1   5  152.46    7.41   2
   2   1  -5  155.54    7.24   4
  -2  -1  -5  144.73   10.96   5
   2   1   5  140.57   11.27   4
   2   1   5  110.81   16.03   1
   2  -1  -5  133.28   11.06   3
  -2  -1  -5  159.44   10.83   3
   2  -1  -5  168.60    9.90   2
  -2  -1   5  148.97   12.02   5
  -2   1  -5  153.90   11.58   4
  -2  -1   5  159.49   18.02   1
  -2   1   5  153.22   12.07   5
   2   1  -5  150.68   11.91   3
  -2   1  -5  153.20    9.22   3
   2  -1   5  154.12    9.30   2
  -2   1   5  155.88    9.20   4
  -4   1  -5   37.35    8.15   4
   4  -1   5   32.79    9.88   1
  -4   1  -5   83.92   10.12   5
  -4   1   5   28.09    8.49   1
  -4   1   5   49.66    5.44   4
   4   1  -5   35.84    7.56   2
  -4   1  -5   39.24    4.82   3
  -4   1   5   23.23    6.40   5
  -4  -1   5   32.04    7.18   5
   4  -1   5   31.37    6.16   2
  -4  -1  -5   44.66    8.52   4
  -4  -1  -5   33.84    6.10   3
   4  -1  -5   28.02    6.43   2
  -4  -1  -5   51.34    6.32   5
   4   1  -5   30.80    7.47   3
  -4  -1   5   33.16    8.98   1
   4   1   5   23.36    7.72   1
   4   1   5   28.78    5.44   2
   4  -1  -5   25.83    6.57   3
  -6  -1   5  153.85   21.11   1
   6  -1  -5  138.84   16.22   3
  -6  -1  -5  171.44   10.88   5
   6  -1  -5  147.46   17.48   2
   6   1  -5  170.40   18.97   3
  -6  -1  -5  148.54   16.80   4
  -6   1  -5  145.09   16.94   4
   6   1   5  149.49   15.33   2
  -6   1   5  168.91   22.37   1
  -6  -1   5  126.85   14.92   5
   6   1   5  135.40   20.51   1
   6  -1   5  155.75   16.18   2
  -6   1   5  143.46   16.59   5
   6  -1   5  128.00   20.76   1
   6   1  -5  163.89   18.60   2
  -6  -1  -5  164.08   12.19   3
   8   1  -5    5.43    5.58   3
  -8   1   5    1.69    3.20   5
  -8  -1   5    2.27    5.75   1
   8   1   5    2.51    3.65   2
   8  -1  -5    0.87    3.59   2
  -8  -1   5   -1.58    2.56   5
   8  -1   5   -3.95    2.84   2
  -8   1   5    1.22    4.89   1
   8   1  -5   -1.68    3.67   2
  -8  -1  -5    4.02    3.72   4
  -8   1  -5    1.85    4.24   4
   8  -1  -5    1.40    5.21   3
   8  -1   5    5.43    7.40   1
   8   1   5  -10.12    4.25   1
 -10   1   5   50.07   15.23   1
  10  -1  -5   55.16   14.35   2
 -10   1   5   57.64   13.33   5
 -10  -1   5   53.78   16.36   1
  10   1   5   30.62   10.50   2
  10  -1   5   64.71   15.15   2
  10   1  -5   49.03   13.90   2
  10  -1   5   55.22   16.33   1
 -10  -1   5   55.90   12.29   5
 -12  -1   5   14.67    8.07   5
 -12  -1  -5    6.88   11.88   1
 -12   1   5   10.93    8.04   5
 -12  -1  -5   12.61    6.45   5
  12  -1   5    5.86   10.50   2
  12   1  -5   -8.08    6.35   2
 -12   1  -5    9.16    5.75   5
 -12   1   5   -3.73    8.33   1
 -12  -1   5    4.32    9.43   1
  12  -1  -5   13.99    8.73   2
 -12   1  -5   -3.93   10.11   1
  12   1   5   30.90   12.59   2
   1  -2  -5    8.15    3.61   3
  -1  -2  -5   13.21    4.41   3
   1   2  -5   10.86    2.96   4
   1  -2  -5   17.88    3.13   2
   1  -2   5    6.09    5.01   5
  -1  -2   5   14.72    8.00   1
   1   2   5    6.82    7.11   1
  -1   2   5   14.72    4.41   5
  -1  -2  -5   11.99    3.69   5
   1  -2   5   12.84    7.32   1
  -1   2   5   16.45    4.33   4
  -1   2   5    7.74    5.73   1
  -1   2  -5   15.55    4.22   4
   1   2   5   10.05    4.14   4
  -1  -2   5   12.30    4.61   5
   1  -2   5    6.77    3.68   2
  -1  -2   5   14.08    4.71   2
   1   2  -5    8.17    3.94   3
  -1   2  -5   10.30    3.77   3
   3  -2  -5  112.70   10.29   2
  -3   2   5  117.81    8.84   4
   3   2   5   96.26   11.74   4
  -3   2  -5  110.77    6.93   3
   3   2   5  106.29    7.79   2
  -3  -2   5  128.13   16.89   1
   3   2  -5  106.52   12.42   2
   3   2  -5   90.44   12.03   3
   3  -2   5  109.58   16.22   1
  -3   2   5  103.47   12.03   5
  -3   2  -5  100.90   11.85   4
   3  -2   5  112.90   10.66   2
   3   2   5  111.91   15.73   1
  -3  -2   5   92.87   11.76   5
  -3  -2  -5  104.36    7.99   5
  -3  -2  -5  109.89   11.18   3
   3  -2  -5  104.73   11.80   3
  -3   2   5   92.61   14.97   1
   5   2  -5   -2.72    2.99   3
   5   2  -5   -1.35    2.85   2
   5   2   5    0.77    3.31   1
  -5  -2  -5    4.54    2.03   5
  -5   2   5    1.58    3.25   4
   5   2   5    0.99    2.43   2
  -5   2  -5   -2.60    2.50   4
  -5  -2   5    3.46    4.91   1
   5  -2  -5    0.55    3.25   2
   5  -2   5    6.28    6.17   1
  -5   2   5    1.33    2.50   5
  -5  -2  -5    3.11    3.83   3
  -5   2   5    3.58    3.93   1
  -5  -2   5    0.05    2.82   5
   5  -2  -5    0.79    3.03   3
   5  -2   5   -2.54    2.02   2
   7   2   5   23.80    8.99   1
  -7  -2  -5   29.28    8.32   4
   7  -2   5   49.12   10.56   2
   7   2  -5   40.17   10.44   3
   7  -2  -5   36.81    9.73   2
   7   2  -5   25.05    7.87   2
   7  -2   5   23.84    9.90   1
  -7   2  -5   24.95    7.55   4
  -7   2   5   24.38    7.60   5
   7   2   5   27.61    7.76   2
  -7  -2   5   26.26    7.30   5
   7  -2  -5   30.14    8.46   3
  -7  -2   5   28.36    9.73   1
  -7   2   5   42.66   11.92   1
   9   2  -5   15.38    8.09   3
   9  -2   5    9.59    5.94   2
  -9   2   5    8.76    6.32   5
   9  -2  -5   18.33    7.36   2
   9   2  -5   14.60    7.57   2
  -9   2   5   13.33    7.39   1
  -9  -2  -5   20.15    6.54   4
  -9  -2   5   21.24   10.45   1
   9  -2   5   13.67    8.90   1
   9   2   5   12.25    7.48   2
  -9  -2   5   13.45    5.99   5
   9   2   5   15.23    9.33   1
  -9   2  -5   15.91    7.68   4
 -11  -2  -5   -0.55    7.50   1
 -11  -2  -5    7.32    4.08   5
  11   2   5   13.29    9.43   2
  11   2  -5   -2.58    6.44   2
  11  -2  -5   -0.94    5.85   2
 -11  -2   5    9.34    6.92   1
 -11   2  -5    3.26    4.80   5
  11  -2   5    6.30    6.94   2
 -11  -2   5    2.65    5.45   5
 -11   2   5   12.11    7.26   5
 -11   2  -5   -8.32    6.25   1
 -11   2   5   -2.90    6.68   1
   0   3   5 1560.81   50.39   4
   0  -3  -5 1464.65   51.35   3
   0   3  -5 1570.97   48.29   4
   0  -3   5 1472.29   63.90   2
   0  -3   5 1700.72   58.78   5
   0   3  -5 1563.99   49.75   3
   0  -3   5 1421.33   64.41   1
   0  -3  -5 1535.88   47.23   5
   0  -3  -5 1584.87   42.63   2
   0   3   5 1509.26   71.46   1
   2  -3  -5  695.92   25.49   2
  -2  -3  -5  660.43   29.22   3
  -2  -3  -5  681.88   24.31   5
  -2  -3   5  650.24   30.46   2
   2   3   5  683.89   29.55   4
   2   3   5  727.40   35.86   1
   2   3  -5  666.65   23.12   4
  -2   3  -5  646.87   29.06   4
  -2  -3   5  687.74   37.63   1
  -2   3   5  691.10   29.70   5
  -2   3  -5  688.60   23.97   3
  -2  -3  -5  656.18   22.36   5
   2  -3   5  644.59   35.80   1
  -2  -3  -5  683.19   24.88   2
  -2  -3   5  693.22   30.68   5
   2  -3   5  688.06   29.85   2
   2  -3   5  699.58   33.26   5
  -2   3   5  683.66   28.14   4
   2  -3  -5  696.05   29.67   3
  -2   3   5  678.02   35.68   1
   2   3  -5  717.75   31.44   3
   4   3   5  770.18   30.54   2
   4   3  -5  745.51   36.61   3
  -4  -3   5  762.05   40.19   1
   4  -3  -5  796.62   33.75   3
  -4   3   5  802.72   30.74   4
   4  -3   5  759.82   33.24   2
   4   3  -5  758.72   35.57   2
   4   3   5  716.31   33.40   4
  -4  -3  -5  753.47   33.10   3
   4  -3   5  780.97   41.81   1
  -4  -3   5  725.10   33.27   5
  -4   3   5  778.77   40.57   1
   4  -3  -5  753.54   32.34   2
   4   3   5  712.37   37.47   1
  -4   3  -5  751.52   35.04   4
   6  -3  -5  545.96   29.28   3
   6  -3   5  481.85   35.10   1
   6   3   5  549.46   34.45   1
   6   3   5  554.97   27.91   2
   6   3  -5  518.33   32.92   3
  -6  -3   5  532.14   28.09   5
   6   3   5  524.25   28.22   3
   6  -3   5  581.60   31.37   2
  -6   3   5  548.24   31.22   5
  -6   3  -5  562.82   32.20   4
   6   3  -5  491.38   30.94   2
  -6   3   5  552.02   25.41   4
  -6   3   5  561.80   36.55   1
  -6  -3   5  544.15   35.69   1
   6  -3  -5  577.64   31.16   2
  -8   3  -5  174.88   22.44   4
   8  -3   5  171.82   21.80   2
  -8  -3   5  150.87   17.91   5
  -8   3   5  196.57   23.21   5
   8   3   5  220.76   28.09   1
   8   3  -5  178.15   23.15   2
  -8   3   5  168.37   25.47   1
  -8  -3  -5  167.49   19.87   4
   8  -3  -5  208.91   24.55   2
   8   3   5  162.57   20.24   2
   8  -3   5  139.42   24.74   1
   8   3  -5  185.22   24.37   3
  -8  -3   5  171.55   25.24   1
 -10   3  -5  174.24   25.57   4
 -10  -3   5  188.07   29.39   1
  10   3  -5  232.71   31.00   2
 -10   3   5  218.12   33.06   1
 -10  -3   5  215.70   23.32   5
 -10  -3  -5  255.78   16.44   5
 -10  -3  -5  245.73   33.83   1
  10  -3  -5  268.90   31.71   2
 -10   3   5  218.38   26.35   5
  10  -3   5  141.85   27.69   1
  10   3   5  238.09   27.91   2
  10  -3   5  215.60   27.53   2
 -12   3  -5   58.21   19.20   1
 -12  -3   5   84.42   22.15   1
  12  -3  -5   62.57   17.37   2
 -12  -3  -5   87.26   12.17   5
 -12  -3  -5   73.42   20.10   1
  12  -3   5   76.74   20.34   2
  12   3   5   93.10   21.98   2
 -12   3   5  105.65   21.47   5
   1  -4  -5  359.87   15.73   2
   1  -4   5  281.67   23.08   1
  -1  -4  -5  328.56   19.91   3
  -1  -4   5  318.03   24.28   2
   1   4   5  322.99   19.17   4
   1  -4  -5  353.65   17.96   5
   1  -4  -5  335.67   20.12   3
   1  -4   5  319.14   25.21   2
  -1   4  -5  326.61   16.98   3
  -1   4   5  330.33   18.89   4
  -1  -4  -5  358.43   19.14   2
  -1  -4   5  271.86   27.68   1
  -1   4   5  315.53   25.19   1
  -1  -4  -5  323.16   15.41   5
  -1  -4   5  360.76   22.33   5
  -1  -4  -5  339.58   16.20   5
   1   4   5  305.72   24.26   1
   1  -4   5  338.01   23.88   5
  -1   4  -5  282.30   17.83   4
   1   4  -5  330.91   16.91   4
  -1   4   5  340.20   18.65   5
   1   4  -5  326.61   19.31   3
  -3   4   5  510.96   26.91   5
  -3  -4  -5  492.50   17.40   5
  -3   4  -5  493.58   27.00   4
  -3  -4  -5  530.32   27.18   3
   3   4   5  488.35   26.16   4
   3   4   5  511.49   28.43   1
  -3  -4   5  499.10   26.49   5
   3  -4  -5  533.76   24.34   2
   3  -4   5  534.20   31.54   1
   3  -4   5  531.79   27.55   2
  -3   4   5  526.92   25.32   4
   3   4  -5  514.92   29.03   3
   3   4  -5  528.00   18.84   4
  -3   4  -5  531.30   19.09   3
  -3  -4   5  531.12   31.66   1
  -3   4   5  512.59   30.78   1
   3  -4  -5  538.31   26.84   3
  -3  -4  -5  539.80   18.70   5
   5  -4   5  143.07   20.88   1
  -5   4   5   99.03   16.93   1
   5   4  -5  118.94   16.92   3
   5   4  -5  147.11   18.65   2
  -5  -4   5  129.07   18.59   1
  -5   4  -5   86.11   14.10   4
  -5   4   5  120.10   15.68   5
   5   4   5  118.78   13.31   2
   5   4   5  101.89   15.77   1
   5   4   5  106.67   14.44   3
  -5  -4   5  110.05   13.89   5
   5  -4  -5  131.72   14.69   3
   5  -4  -5  119.83   15.19   2
  -5   4   5  110.55   12.58   4
   5  -4   5  126.88   15.86   2
   5   4   5   98.55   13.79   4
   7   4  -5  184.48   23.98   3
   7   4   5  185.65   19.71   3
  -7   4   5  155.30   20.25   5
   7   4   5  187.41   19.70   2
  -7  -4   5  187.09   25.07   1
   7  -4  -5  187.81   18.69   3
  -7  -4   5  174.70   17.78   5
   7  -4   5  193.17   21.68   2
   7  -4   5  196.15   27.10   1
  -7  -4  -5  191.28   19.65   4
   7  -4  -5  183.13   21.36   2
   7   4   5  232.67   26.02   1
  -7   4   5  199.45   26.26   1
  -7   4  -5  151.53   20.71   4
   7   4  -5  149.85   20.67   2
  -9  -4   5   90.20   19.71   1
   9   4   5   99.17   17.55   2
  -9   4  -5   79.39   16.40   4
  -9  -4   5   89.63   14.25   5
   9   4   5   98.03   20.29   1
  -9   4   5   66.73   14.63   5
   9   4  -5  117.20   20.59   3
   9  -4  -5   71.05   16.20   2
  -9   4   5   82.21   19.12   1
   9  -4   5   91.26   17.42   2
   9  -4   5  114.07   24.08   1
   9   4  -5   97.77   18.96   2
 -11   4  -5   34.28   10.98   5
  11  -4  -5   25.19   10.27   2
 -11   4  -5   24.19   11.86   1
  11   4  -5   15.09    9.38   2
 -11   4   5    6.02    7.23   1
 -11   4   5   12.84    9.21   5
 -11  -4  -5   21.65   11.45   1
  11   4   5   21.88   10.47   2
  11  -4   5   30.10   12.60   2
 -11  -4  -5   22.85    5.96   5
 -11  -4   5   20.51    8.56   5
 -11  -4   5   44.95   14.54   1
   0  -5   5    9.13    5.35   5
   0  -5  -5   13.21    4.40   5
   0   5   5   22.32    9.57   1
   0   5   5    8.32    4.15   4
   0  -5  -5   16.74    5.29   2
   0  -5   5   14.24    7.70   2
   0   5  -5   12.40    4.57   4
   0  -5  -5    6.42    3.90   3
   0  -5   5   12.10    6.06   1
   0   5  -5   24.67    6.35   3
   2  -5  -5   33.09    7.48   3
  -2   5   5   32.48    7.87   4
  -2  -5  -5   49.84   10.65   2
  -2  -5   5   38.10    9.77   2
   2  -5   5   37.24   10.05   5
  -2   5  -5   18.89    6.24   4
   2  -5  -5   25.86    6.36   5
   2   5   5   36.20    8.10   1
  -2  -5  -5   33.14    8.50   3
  -2  -5  -5   30.78    5.32   5
   2  -5   5   36.83    9.69   1
  -2  -5   5   32.38    8.18   5
   2  -5   5   35.23    9.97   2
  -2  -5  -5   29.26    4.95   5
  -2   5  -5   30.14    5.69   3
   2   5  -5   19.53    6.47   3
  -2  -5   5   40.32   11.27   1
  -2   5   5   22.83    7.42   1
   2  -5  -5   33.52    6.90   2
   2   5  -5   29.90    5.80   4
   2   5   5   32.48    7.66   4
  -2   5   5   39.68    8.28   5
   4   5   5    7.45    4.42   1
  -4   5   5    5.12    3.69   4
  -4   5  -5    6.40    4.16   4
   4  -5  -5    0.29    2.91   3
  -4   5   5    0.04    3.40   1
   4   5  -5   -0.25    1.64   4
  -4  -5   5    0.66    2.75   5
   4  -5   5    3.71    3.08   2
   4   5  -5    0.25    3.21   3
   4   5   5    1.80    4.05   3
   4   5   5    1.31    2.56   2
  -4  -5   5    6.66    5.55   1
   4  -5  -5    6.33    4.31   2
  -4   5   5    1.53    3.24   5
   4  -5   5    2.84    4.96   1
   4   5   5    2.99    3.04   4
   6  -5  -5   20.11    6.69   3
   6   5   5    6.28    4.32   4
   6  -5   5    7.15    5.05   2
   6  -5  -5    1.08    4.30   2
   6   5   5    7.16    3.87   2
  -6   5   5    1.43    4.19   1
  -6   5   5    4.25    5.30   4
  -6  -5   5    0.97    2.45   5
   6   5  -5   -4.12    3.23   3
  -6  -5   5    6.37    6.34   1
   6   5   5   11.64    5.35   3
  -6   5   5    6.52    4.59   5
   6   5  -5    7.88    5.39   2
   6  -5   5   11.98    7.20   1
   6   5   5    5.00    4.21   1
  -6   5  -5    5.79    4.42   4
  -8  -5  -5   27.76    8.29   4
   8   5   5   23.34    9.75   1
   8  -5   5   23.29    8.05   2
  -8   5   5    6.99    5.77   1
  -8  -5   5   11.06    7.33   1
   8   5   5   10.62    6.67   2
   8  -5   5   18.90    9.58   1
  -8   5  -5   27.35   10.46   4
   8  -5  -5   17.89    7.69   2
  -8   5   5    7.34    6.26   5
   8   5  -5   16.95    7.69   2
   8   5  -5   27.74   10.03   3
   8   5   5   16.60    7.99   3
  -8  -5   5    7.64    5.31   5
 -10   5   5    0.57    5.22   5
 -10   5   5    3.41    6.49   1
  10  -5  -5    5.52    6.18   2
 -10   5  -5    2.09    7.38   4
 -10  -5  -5    1.78    2.51   5
  10  -5   5    4.67    6.75   2
 -10   5  -5   -5.53    4.98   5
  10   5  -5   20.70    9.22   2
 -10  -5  -5    4.31    7.36   1
  10   5   5    3.44    6.13   2
 -10  -5   5  -14.72    5.07   1
  10   5  -5   34.65   11.60   3
 -10  -5   5   -0.58    4.35   5
 -12  -5  -5   -6.48    3.72   5
 -12  -5  -5   -4.75    8.93   1
 -12  -5   5   -3.44    8.22   1
 -12   5   5   -2.37    8.91   5
   1   6  -5  100.85   12.17   4
   1   6   5   81.62   12.50   4
  -1  -6   5   90.19   14.67   5
   1  -6  -5   91.51   12.83   3
   1  -6   5   84.99   13.18   1
   1  -6  -5  115.09   12.36   2
  -1   6   5   88.21   15.78   1
  -1  -6   5  103.84   20.32   2
  -1   6  -5  106.67   11.57   3
  -1  -6  -5   99.38   10.04   5
  -1   6   5   93.54   13.54   4
   1   6  -5  109.81   13.93   3
  -1  -6  -5   98.11   14.65   2
   1  -6   5   74.56   17.01   2
  -1  -6   5   83.03   14.77   1
  -1   6   5   99.29   12.20   5
   1  -6  -5   76.99   10.98   5
  -1  -6  -5   72.28    9.34   5
   1   6   5   80.63   12.43   1
  -1   6  -5   92.98   12.88   4
   1  -6   5   73.80   13.90   5
  -1  -6  -5   85.31   13.22   3
  -3   6   5   15.14    5.84   4
  -3   6   5   15.18    5.77   5
   3   6  -5    8.19    5.53   3
   3  -6  -5   11.01    4.94   3
   3   6  -5   11.13    3.78   4
  -3  -6  -5   13.68    3.83   5
  -3  -6   5    5.93    5.03   2
   3   6   5    8.78    4.60   1
   3  -6   5    3.37    4.63   2
   3  -6   5    8.15    5.79   1
  -3   6   5    6.90    5.16   1
  -3  -6  -5    7.54    2.95   5
  -3   6  -5   12.42    4.02   3
  -3  -6  -5   11.66    6.16   2
  -3  -6   5   10.77    4.92   5
   3  -6   5   15.36    7.46   5
   3  -6  -5    3.59    3.47   5
  -3  -6   5   20.31    7.98   1
  -3   6  -5   10.51    5.28   4
   3   6   5    6.74    3.83   4
   3  -6  -5   12.49    5.15   2
   5  -6   5   91.69   17.04   1
   5   6   5  124.81   17.56   3
  -5   6   5   73.50   12.62   4
   5  -6  -5   82.60   13.29   3
   5   6   5  100.87   14.97   4
  -5  -6   5   74.70   14.75   1
   5   6  -5   92.25   16.25   3
   5   6   5   87.30   13.81   1
  -5   6   5   90.36   14.04   5
  -5  -6   5  101.03   14.01   5
   5  -6   5   97.75   15.80   2
  -5   6  -5   91.64   15.49   4
   5  -6  -5   92.64   14.35   2
  -5   6   5   81.77   15.59   1
  -5  -6   5   92.19   16.56   2
   7   6   5    9.24    5.90   2
   7  -6  -5    8.07    5.24   2
   7   6   5   17.72    7.00   4
   7   6   5    1.37    5.16   1
  -7   6  -5   21.03    8.06   4
   7  -6   5   16.84    7.94   2
   7   6   5    1.39    4.87   3
   7   6  -5   26.74    9.54   3
  -7  -6   5   18.98    7.23   1
   7  -6   5   21.79    9.15   1
  -7  -6   5    3.58    4.16   5
  -7   6   5   12.54    6.41   5
   7   6  -5    7.57    6.91   2
  -7   6   5    5.93    5.30   1
  -9  -6   5    3.50    3.60   5
   9   6  -5   18.11    9.25   3
   9   6   5    2.20    5.67   2
   9  -6  -5    4.84    4.97   2
  -9   6   5   -2.17    5.86   5
   9  -6   5   16.34    8.37   2
  -9   6  -5   -0.76    5.09   4
   9  -6   5   11.69    7.63   1
  -9   6   5   12.27    7.16   1
  -9  -6  -5   12.46    7.84   1
   9   6  -5   11.88    7.33   2
  -9  -6   5   -3.74    6.06   1
 -11  -6   5   18.39    9.17   5
 -11  -6   5    4.12    9.47   1
  11  -6  -5   24.59   10.68   2
 -11  -6  -5   20.73    4.55   5
 -11   6  -5   29.72   14.38   1
 -11   6   5   17.40   10.30   5
  11   6  -5   34.49   12.03   2
 -11   6   5   27.69   12.88   1
  11  -6   5   28.95   13.20   2
  11   6   5   20.34   11.60   2
 -11   6  -5   28.11   11.98   5
 -11  -6  -5   22.58   11.79   1
   0  -7  -5  821.00   35.41   5
   0  -7   5  868.46   53.60   2
   0  -7   5  842.91   38.65   1
   0   7  -5  907.18   38.84   3
   0  -7  -5  905.70   39.72   2
   0  -7   5  840.47   43.51   5
   0   7   5  861.32   42.72   1
   0   7   5  799.42   39.82   4
   0   7  -5  832.89   38.09   4
   0  -7  -5  828.48   39.36   3
   2   7   5  491.22   28.88   4
  -2   7  -5  506.06   29.36   4
   2   7  -5  522.14   30.54   3
  -2   7   5  432.91   29.38   1
  -2  -7  -5  519.14   30.92   3
  -2  -7  -5  460.22   32.39   2
   2  -7   5  520.39   33.30   5
  -2  -7   5  509.40   30.95   5
  -2   7   5  548.84   30.41   4
   2  -7   5  495.31   39.53   2
   2   7   5  511.73   25.47   1
   2  -7  -5  475.61   27.15   5
   2   7  -5  445.79   24.57   4
   2  -7  -5  451.84   27.40   3
  -2  -7  -5  499.54   22.16   5
   2  -7  -5  500.88   26.91   2
  -2  -7  -5  492.72   23.22   5
  -2   7  -5  502.52   24.24   3
   2  -7   5  513.94   29.44   1
  -2  -7   5  487.05   36.93   2
  -2  -7   5  485.03   32.91   1
   4  -7  -5  388.58   25.40   2
   4   7   5  408.89   26.35   4
  -4   7   5  432.65   27.14   4
   4  -7   5  444.59   30.04   1
  -4   7   5  393.58   28.25   1
  -4  -7  -5  426.96   17.79   5
  -4  -7  -5  449.57   29.29   2
   4   7   5  390.18   23.90   1
   4  -7   5  389.78   30.44   2
   4  -7  -5  381.06   25.33   5
  -4  -7  -5  448.03   17.34   5
   4   7  -5  425.42   29.79   3
  -4  -7   5  364.47   24.94   5
   4  -7  -5  428.54   25.95   3
  -4   7  -5  377.33   27.42   4
  -4  -7   5  384.06   30.54   2
   4   7   5  351.59   26.38   3
  -4  -7   5  416.65   28.66   1
   6  -7   5  438.78   32.82   2
  -6   7   5  446.96   30.40   5
  -6  -7  -5  491.28   31.74   2
  -6   7   5  410.22   28.03   4
  -6  -7   5  375.86   31.42   2
   6   7   5  458.75   31.37   3
   6  -7   5  435.85   33.28   1
   6  -7  -5  462.03   28.26   3
   6  -7  -5  393.60   28.56   2
  -6   7   5  432.55   33.01   1
  -6  -7   5  438.72   27.27   5
   6   7   5  455.70   29.49   1
  -6  -7   5  471.18   32.66   1
  -6   7  -5  438.26   31.80   4
   6   7   5  429.33   29.14   4
   6   7  -5  426.96   32.90   3
   8  -7   5  101.77   18.99   2
  -8  -7   5   91.72   18.10   1
  -8   7   5   97.73   17.78   5
   8   7   5   79.23   15.96   3
   8   7  -5  108.95   21.32   3
   8  -7   5  112.25   21.83   1
  -8   7   5   91.55   19.09   1
   8   7  -5   86.74   18.71   2
   8   7   5  109.39   18.05   4
  -8   7  -5   74.81   16.71   4
   8   7   5  105.22   18.31   2
   8  -7  -5   86.28   17.31   2
  -8  -7   5  104.95   15.73   5
  10  -7   5  162.33   27.45   2
 -10   7  -5  167.56   26.81   4
  10  -7  -5  174.89   26.86   2
  10   7   5  166.56   25.99   2
 -10   7   5  162.20   26.41   5
  10   7  -5  188.76   29.69   3
 -10   7  -5  172.79   25.76   5
 -10   7   5  151.42   27.43   1
 -10  -7   5  170.57   21.37   5
 -10   7  -5  185.30   30.56   1
 -10  -7   5  184.85   28.53   1
  10   7  -5  123.40   23.53   2
  -1  -8   5  509.46   32.80   5
   1  -8  -5  491.44   28.00   5
   1  -8  -5  478.81   29.33   3
   1  -8   5  482.86   27.11   1
  -1   8  -5  490.09   29.83   4
  -1   8  -5  486.83   27.01   3
  -1  -8   5  442.93   43.47   2
   1  -8   5  443.44   31.65   5
   1  -8   5  531.98   42.66   2
  -1   8   5  502.15   30.66   4
  -1   8   5  525.48   33.39   1
  -1  -8  -5  445.14   31.20   2
   1   8   5  503.26   23.96   1
   1  -8  -5  547.32   30.09   2
  -1  -8  -5  457.81   24.87   5
   1   8  -5  491.63   29.48   3
   1   8  -5  505.95   28.29   4
   1   8   5  511.09   30.44   4
  -1  -8   5  520.26   28.25   1
  -1  -8  -5  508.77   31.39   3
   3  -8   5  641.49   45.48   2
   3  -8  -5  650.80   34.37   5
   3  -8  -5  692.78   36.29   3
   3  -8   5  740.27   37.45   1
  -3  -8   5  600.97   36.06   5
  -3   8   5  617.86   36.44   1
   3   8   5  671.78   36.60   4
  -3  -8   5  766.45   47.92   2
  -3  -8  -5  613.42   27.67   5
  -3   8  -5  612.92   36.49   4
   3   8  -5  676.47   32.19   4
  -3  -8   5  687.22   39.67   1
   3   8  -5  705.37   39.32   3
  -3  -8  -5  651.69   42.90   2
   3  -8  -5  730.88   35.73   2
   3   8   5  686.68   29.92   1
   3   8   5  699.91   39.08   3
  -3   8   5  652.61   36.19   4
  -5  -8   5  224.35   22.11   5
   5  -8  -5  258.33   23.30   3
   5   8   5  210.01   22.97   4
   5   8   5  175.17   23.21   3
  -5   8  -5  202.78   24.66   4
  -5  -8  -5  236.95   12.78   5
  -5   8   5  236.73   24.02   5
  -5  -8   5  275.69   26.81   1
   5   8   5  226.16   18.38   1
  -5  -8  -5  260.01   27.64   2
   5  -8  -5  247.01   24.14   2
   5  -8   5  212.84   24.80   1
  -5  -8   5  215.72   28.83   2
   5  -8   5  201.52   27.69   2
  -5   8   5  234.60   23.29   4
  -5   8   5  221.85   25.42   1
   5   8  -5  236.78   27.76   3
  -7   8   5  262.79   26.02   4
   7   8   5  267.45   25.57   1
   7   8   5  305.59   28.41   4
   7   8   5  268.43   28.99   3
   7  -8   5  280.63   32.21   1
   7   8  -5  278.43   33.31   3
  -7   8   5  265.38   31.37   1
   7  -8  -5  235.56   27.50   2
  -7  -8   5  287.14   33.32   2
  -7  -8  -5  295.96   30.01   2
  -7   8  -5  299.48   31.41   4
  -7  -8   5  325.18   31.21   1
  -7   8   5  256.20   27.78   5
  -7  -8   5  252.67   24.17   5
   7  -8   5  273.84   32.88   2
  -9   8   5  179.58   26.89   5
   9   8   5  153.60   23.85   3
  -9  -8   5  160.11   20.44   5
  -9  -8  -5  177.95   25.43   2
   9   8  -5  161.14   25.81   3
   9  -8  -5  109.58   20.79   2
  -9   8  -5  126.83   22.87   4
  -9  -8   5  181.63   28.33   2
  -9   8   5  195.91   29.86   1
   9  -8   5  144.56   25.50   2
 -11   8  -5   54.16   17.88   5
  11  -8  -5   41.62   13.63   2
 -11   8   5   63.38   18.68   1
  11   8  -5   74.65   20.95   3
 -11   8  -5   68.93   19.95   1
  11  -8   5   62.25   19.81   2
   0  -9  -5  169.48   21.79   2
   0  -9   5  115.96   18.78   5
   0  -9   5  102.81   22.30   2
   0  -9  -5  127.04   17.94   3
   0   9   5  126.57   18.87   4
   0   9  -5  103.50   15.70   3
   0   9  -5  105.80   15.57   4
   0  -9   5  131.14   14.03   1
   0  -9  -5  111.81   15.03   5
   2  -9  -5    6.42    6.10   2
  -2  -9   5    1.14    8.11   2
   2  -9   5    6.20    6.86   5
  -2  -9   5   10.74    5.67   5
   2  -9  -5   12.11    5.57   5
  -2   9  -5   22.27    7.16   3
  -2   9   5   13.96    6.97   1
   2   9  -5    7.78    5.39   4
  -2  -9  -5   17.23   10.34   2
   2   9   5    8.69    5.30   4
   2  -9   5    9.96    7.81   2
  -2  -9  -5    8.12    5.50   3
  -2   9   5    9.24    5.26   4
  -2   9  -5   20.87    6.98   4
   2  -9  -5    5.23    5.20   3
   2   9  -5    4.80    4.98   3
   2  -9   5   25.25    7.76   1
  -2  -9  -5    8.09    3.90   5
   4   9  -5   40.19   11.31   3
   4  -9  -5   33.35    9.23   2
  -4  -9  -5   37.23    7.04   5
   4  -9   5   52.69   12.38   1
   4   9   5   49.43   11.26   4
   4  -9   5   39.88   13.79   2
  -4  -9  -5   35.28   13.72   2
  -4  -9   5   42.03   13.64   2
   4  -9  -5   28.55    8.61   5
   4  -9  -5   29.76    9.30   3
  -4   9   5   55.96   12.47   1
  -4   9  -5   16.14    7.77   4
  -4   9   5   39.35   10.28   4
   4   9   5   20.24    7.92   3
  -4  -9   5   27.40    8.30   5
  -6  -9  -5   55.03   13.35   2
  -6  -9  -5   46.08    6.42   5
  -6  -9   5   43.50   10.72   5
   6   9  -5   47.71   14.09   3
   6   9   5   48.97   12.36   3
   6  -9   5   33.57   12.41   2
  -6   9  -5   36.45   11.28   4
   6  -9  -5   35.90   10.74   2
   6  -9   5   42.81   12.02   1
   6   9   5   35.02   10.71   4
  -6  -9   5   36.24   12.09   2
  -6   9   5   59.28   13.97   1
  -6   9   5   45.92   11.50   4
  -8  -9   5    4.10    5.16   5
  -8   9  -5   -0.06    5.25   4
   8   9   5   11.55    7.31   4
   8   9  -5   18.41    8.29   3
   8  -9  -5    3.06    5.93   2
  -8   9   5   -2.55    6.05   1
  -8  -9   5    7.14    7.53   2
   8   9   5    3.35    6.29   3
   8  -9   5    5.43    6.60   2
   8  -9   5   -2.36    6.92   1
  -8  -9  -5    2.42    6.74   2
  10  -9   5   22.88   13.89   2
 -10   9  -5   27.32   13.31   1
 -10   9  -5   19.23   10.46   5
  10   9  -5   11.93   10.62   3
  10  -9  -5   18.60    9.88   2
 -10  -9   5   17.07    9.18   2
 -10  -9   5   14.87    7.82   5
 -10   9  -5   13.71    9.56   4
 -10   9   5   48.84   16.03   1
   1 -10  -5   73.66   15.56   2
   1  10  -5   43.04   11.31   3
  -1 -10   5   31.21   12.84   2
  -1  10  -5   61.98   11.89   3
   1 -10  -5   39.46   11.06   3
   1  10   5   51.65   12.58   4
   1  10  -5   40.41    9.98   4
  -1 -10  -5   56.06   14.50   2
  -1 -10  -5   47.46   12.02   3
   1 -10   5   44.71   15.45   2
  -1  10  -5   54.53   12.11   4
   1 -10  -5   41.04   10.60   5
  -1 -10  -5   45.65    9.50   5
  -1 -10   5   51.54   12.96   5
   1 -10   5   33.70   10.82   5
  -1  10   5   34.95   10.33   4
  -3  10  -5    4.40    4.40   4
   3  10  -5   -4.98    3.64   3
  -3  10   5   -1.60    3.77   4
  -3 -10  -5    4.17    8.40   2
   3 -10  -5   -7.09    3.98   2
   3  10   5    3.00    4.54   4
   3  10   5    1.56    4.47   3
   3 -10  -5    1.69    4.41   5
   3 -10   5    7.23    5.73   1
   3 -10  -5   -0.91    4.86   3
  -3 -10   5    0.68    7.53   2
  -3 -10   5    2.28    3.59   5
   3  10  -5   -4.74    3.95   4
  -3 -10  -5    7.77    3.89   5
   3 -10   5    7.24    7.41   2
  -5 -10   5   52.56   12.34   5
  -5  10   5   57.53   12.88   4
   5 -10  -5   72.92   15.14   3
  -5 -10   5   52.58   15.63   2
  -5  10   5   45.47   12.11   1
   5 -10   5   57.91   17.09   2
   5 -10  -5   48.55   12.00   2
  -5 -10  -5   65.17   16.43   2
  -5  10  -5   35.89   11.28   4
   5  10  -5   37.01   12.40   3
  -5 -10  -5   52.91    8.34   5
   5  10   5   72.19   15.82   3
   5  10   5   63.96   13.76   4
   5 -10   5   53.83   12.52   1
   7 -10   5    9.60    8.40   2
   7 -10  -5   -1.36    4.35   2
  -7  10   5    2.47    7.25   1
   7  10   5   11.28    7.23   3
   7 -10   5    3.48    6.61   1
  -7 -10  -5   -6.45    5.77   2
  -7  10   5   -1.04    5.38   4
  -7 -10  -5    7.21    3.59   5
   7  10   5   -1.52    5.94   4
  -7  10  -5    9.24    6.46   4
  -7 -10   5   11.98    5.61   5
  -7 -10   5    4.70    7.24   2
   7  10  -5    1.23    5.30   3
   9  10   5   15.62    8.49   3
   9 -10   5   -5.10    7.74   2
  -9  10  -5    4.12    7.83   1
   9  10  -5   10.14    9.02   3
  -9  10  -5    1.60    6.48   5
  -9  10   5    2.84    9.50   1
   9 -10  -5    5.34    6.78   2
  -9 -10   5    3.14    6.85   2
  -9  10  -5   25.14   11.22   4
  -9 -10   5   14.92    7.66   5
   0 -11   5  103.00   18.80   5
   0  11   5  120.48   19.91   4
   0 -11  -5  156.33   23.97   2
   0  11  -5  126.09   19.36   4
   0 -11   5  140.20   27.89   2
   0 -11  -5  128.17   19.90   3
   0  11  -5  134.94   18.94   3
   0 -11  -5  129.06   18.08   5
  -2 -11  -5   98.17   20.33   2
  -2 -11  -5   90.44   17.44   3
   2 -11   5  146.94   30.98   2
   2 -11  -5  101.45   17.33   3
  -2  11  -5  100.94   15.13   3
   2 -11   5  108.21   19.76   5
  -2 -11   5   63.41   17.90   2
   2  11   5  133.89   21.39   4
  -2  11  -5  112.21   18.81   4
  -2  11   5   82.10   15.96   4
   2  11  -5   88.27   16.98   3
  -2 -11   5   96.32   17.65   5
  -2 -11  -5  109.97   15.15   5
   2 -11  -5  110.22   17.25   5
   2 -11  -5  127.45   20.70   2
  -4 -11  -5   42.37   15.17   2
   4  11  -5   48.68   13.57   3
   4 -11   5    9.19   12.18   2
  -4  11  -5   43.71   12.26   4
   4 -11  -5   25.96    9.53   2
  -4 -11  -5   37.79    8.46   5
  -4  11   5   41.53   11.66   4
   4  11   5   41.92   11.76   4
   4 -11  -5   44.82   12.87   3
  -4 -11   5   37.49   15.55   2
  -4 -11   5   49.46   11.92   5
   4  11   5   36.14   12.20   3
   6  11   5  158.35   24.17   4
  -6 -11   5  124.51   26.20   2
  -6  11  -5   93.25   20.28   4
  -6 -11  -5  133.71   13.19   5
  -6 -11  -5  108.24   22.17   2
  -6 -11   5  138.72   20.87   5
   6 -11  -5  110.98   20.53   2
   6  11   5  166.86   25.47   3
  -6  11   5  124.27   20.44   4
   6  11  -5  161.64   26.23   3
   6 -11   5   90.51   21.96   2
   8  11   5   -4.55    6.60   3
  -8  11  -5   18.93    9.07   1
   8  11  -5    6.40    8.70   3
  -8  11  -5    8.01    7.04   4
  -8 -11   5   14.99    8.01   5
   8 -11  -5    8.68    6.88   2
  -8 -11  -5    9.66    3.86   5
  -8  11  -5   10.09    9.24   5
  -8 -11   5   -2.92    6.98   2
   8 -11   5   12.84   10.50   2
  10  11  -5   69.96   23.81   3
  10 -11  -5   75.85   17.97   2
 -10  11  -5   53.84   16.79   4
   1  12  -5  110.41   18.38   3
  -1 -12  -5   70.38   15.95   3
  -1  12   5   89.60   17.35   4
  -1 -12  -5  108.07   20.56   2
   1 -12  -5   87.53   15.79   5
   1 -12  -5   81.66   17.83   2
   1 -12   5   88.71   22.37   2
   1  12   5   84.07   17.80   4
   1 -12  -5   87.04   17.45   3
  -1 -12   5   93.53   17.89   5
  -1  12  -5   81.24   14.24   3
  -1 -12  -5  102.48   15.92   5
  -1 -12   5  105.96   24.36   2
   1 -12   5   94.05   19.19   5
   1  12  -5   96.07   17.10   4
  -1  12  -5   84.50   16.81   4
  -3 -12   5  117.75   26.19   2
  -3  12  -5  169.41   25.27   4
  -3 -12  -5  149.13   25.14   2
  -3  12   5  143.03   22.20   4
   3  12  -5  187.25   25.69   3
   3 -12  -5  204.33   25.54   5
   3 -12   5  165.26   33.24   2
  -3 -12  -5  172.57   19.33   5
   3 -12  -5  143.09   21.51   3
   3  12  -5  195.89   24.06   4
   3  12   5  141.23   23.31   4
   3 -12  -5  185.30   25.40   2
  -3 -12   5  132.00   20.98   5
   5  12   5   24.46   10.15   3
  -5  12   5   38.94   11.83   4
  -5  12  -5   34.60   11.71   4
   5 -12   5   31.14   14.94   2
  -5 -12  -5   46.97    9.33   5
  -5 -12   5   19.59    8.12   5
   5  12  -5   39.17   13.41   3
  -5 -12   5   32.27   14.52   2
  -5 -12  -5   39.32   13.46   2
   5  12   5   45.63   13.53   4
   5 -12  -5   24.12    9.69   2
   7  12   5   43.01   14.14   3
  -7  12   5   74.72   16.18   4
   7  12  -5   36.85   14.22   3
  -7 -12  -5   76.07   10.86   5
   7 -12   5   49.00   20.08   2
   7  12   5   77.60   17.94   4
  -7 -12   5   40.31   15.16   2
   7 -12  -5   62.87   15.69   2
  -7  12  -5   72.70   18.37   4
  -7 -12   5   86.49   16.68   5
   9  12   5   13.35   12.65   3
   9  12  -5   35.48   18.45   3
   9 -12   5   66.19   24.62   2
  -9 -12   5   17.01   10.41   5
  -9 -12   5   47.40   14.42   2
   9 -12  -5   49.30   14.54   2
  -9 -12  -5   42.21    7.06   5
  -9  12  -5   29.65   13.11   4
   0 -13  -5  210.66   29.58   2
   0 -13  -5  162.81   22.12   5
   0  13   5  126.45   22.35   4
   0 -13   5  152.64   28.66   2
   0  13  -5  157.89   22.12   3
   0 -13  -5  134.81   22.33   3
   0 -13   5  155.74   24.16   5
   0  13  -5  174.16   24.05   4
  -2 -13  -5   21.91    7.54   5
   2 -13  -5   26.63    9.20   5
  -2  13   5   32.33   12.00   4
  -2 -13  -5   35.60   11.93   3
  -2 -13  -5   30.69   12.88   2
   2  13   5   23.84    9.71   4
  -2 -13   5   32.11   10.36   5
   2  13  -5    5.80    5.86   4
   2 -13  -5   37.95   13.11   2
   2 -13  -5   43.55   12.22   3
  -2  13  -5   20.64    7.88   4
   2 -13   5   35.61   15.12   2
   2  13  -5   32.84   12.04   3
  -2 -13   5   21.07   10.84   2
   4  13  -5   61.25   16.31   3
  -4  13   5   57.50   14.98   4
   4 -13  -5   75.49   18.55   3
  -4 -13   5   66.06   20.29   2
   4  13   5   74.80   18.85   4
  -4  13  -5   90.32   18.46   4
   4 -13  -5   61.17   15.11   2
  -4 -13  -5   39.62   13.37   2
  -4 -13   5   57.49   13.82   5
   4 -13   5  128.85   31.58   2
  -4 -13  -5   58.77   11.72   5
   6  13   5   35.40   14.12   4
   6  13  -5   44.82   14.19   3
  -6  13   5   35.36   13.36   4
  -6 -13  -5   65.30   11.10   5
  -6 -13   5   62.75   20.33   2
  -6  13  -5   45.65   14.18   4
   6 -13  -5   64.68   17.15   2
   6 -13   5   32.68   15.28   2
   6  13   5   64.83   17.65   3
  -6 -13   5   48.35   13.30   5
   8  13   5   11.47   11.57   3
  -8 -13   5   10.99    9.73   2
  -8 -13  -5   13.00    5.55   5
   8  13  -5   19.30   12.15   3
   8 -13  -5   12.07    8.39   2
  -8  13  -5   27.61   11.83   4
  -8 -13   5   23.44   10.40   5
   8 -13   5  -11.22   12.58   2
   1  14   5   18.32   10.49   4
  -1 -14   5   11.41    8.28   2
   1  14  -5    8.27    6.48   3
   1 -14  -5   12.42    8.00   3
   1 -14  -5    1.47    6.93   2
  -1  14  -5   30.36   11.01   4
  -1 -14  -5   21.04    7.12   5
   1  14  -5   33.88   10.92   4
   1 -14   5   14.90   11.05   2
  -1  14   5   22.97    8.87   4
  -1 -14   5   15.61    8.48   5
   1 -14  -5   22.73    9.11   5
  -1 -14  -5   19.23    8.57   3
  -1 -14  -5   17.15   10.72   2
   3 -14  -5   78.90   17.56   3
   3  14   5   63.35   16.72   4
  -3 -14  -5   52.08   14.45   3
  -3  14  -5   65.75   16.70   4
   3 -14   5  100.51   26.06   2
  -3 -14   5   57.72   14.03   5
   3  14  -5   61.40   16.74   3
  -3  14   5   49.91   14.57   4
  -3 -14   5   84.25   21.89   2
   3 -14  -5   51.51   15.51   2
  -3 -14  -5   62.39   17.28   2
  -3 -14  -5   66.74   13.01   5
   5  14  -5   18.87   11.44   3
   5 -14   5   34.17   19.28   2
  -5  14  -5   17.57    9.53   4
   5  14   5   13.82    7.83   4
  -5  14   5    4.58    8.00   4
  -5 -14  -5   -0.22    4.75   5
  -5 -14   5    8.34    8.95   2
  -5 -14   5    3.50    5.98   5
   5 -14  -5   -0.90    7.49   2
   7  14   5   -0.23    9.27   3
  -7  14  -5   27.75   10.78   4
   7 -14   5   10.16   17.33   2
   7  14  -5   52.37   17.48   3
   7 -14  -5   28.88   12.16   2
  -7 -14   5   21.54   16.61   2
  -7 -14   5   27.70   10.44   5
  -7 -14  -5   26.31    7.66   5
  -7  14   5   39.53   14.03   4
   0  15  -5   90.08   18.44   3
   0  15   5  119.62   23.58   4
   0 -15  -5  126.50   21.19   5
   0  15  -5  115.91   20.99   4
   0 -15  -5  142.71   25.64   2
   0 -15   5  111.78   25.51   2
   0 -15  -5  143.33   25.58   3
   0 -15   5  142.08   24.33   5
  -2 -15  -5   31.50   13.35   2
  -2 -15   5   50.88   16.82   2
  -2 -15  -5   21.88    8.23   5
  -2  15   5   36.62   12.86   4
  -2 -15  -5   32.11   12.53   3
   2 -15  -5   27.83   12.80   2
   2  15   5   33.05   12.69   4
   2 -15  -5   42.53   13.29   3
   2 -15  -5   31.42   16.52   5
  -2 -15   5   30.96   11.13   5
   2 -15   5   38.95   16.32   2
  -2  15  -5   28.53   11.65   4
   2  15  -5   25.00   10.39   3
  -4 -15   5   53.49   14.09   5
  -4 -15  -5   70.54   18.93   3
  -4 -15  -5   53.61   12.44   5
   4 -15   5   79.15   24.41   2
   4  15   5   78.43   20.05   4
  -4  15  -5   54.74   16.47   4
  -4  15   5   53.58   14.76   4
   4  15  -5   50.95   15.09   3
   4 -15  -5   65.61   17.75   2
  -4 -15   5   18.74   11.29   2
   6 -15  -5   67.26   18.83   2
  -6 -15   5   52.35   14.60   5
   6  15   5   90.72   21.96   4
   6  15  -5   70.13   18.43   3
  -6  15  -5   71.16   17.98   4
  -6 -15  -5   42.65   10.55   5
   6 -15   5   82.62   27.89   2
  -6  15   5   53.10   15.41   4
  -6 -15   5   75.73   24.48   2
  -1 -16  -5    3.33    5.10   5
   1 -16  -5    0.96    8.06   2
  -1 -16   5    3.37    5.63   5
  -1  16  -5   -2.45    6.42   4
   1 -16  -5    9.27    6.42   5
  -1  16   5   -0.54    7.40   4
  -1 -16   5    1.94    8.44   2
   1  16  -5    4.18    6.56   3
   1  16  -5    3.18    6.28   4
   1  16   5   -3.50    7.86   4
  -1 -16  -5   -3.74    8.57   2
   1 -16  -5   -4.90    6.22   3
  -1 -16  -5   -7.48    6.52   3
   1 -16   5   12.39   10.83   2
  -3  16   5   13.73    9.39   4
   3  16  -5    0.58    6.51   3
   3  16   5    7.51    9.06   4
  -3  16  -5   18.17    9.65   4
  -3 -16   5    2.29    6.67   5
  -3 -16  -5    4.93    9.37   3
  -3 -16  -5    4.20    5.53   5
   3 -16   5   30.39   14.90   2
   3 -16  -5   -9.66    7.55   2
  -3 -16   5   16.02    9.68   2
  -5 -16   5   -2.34    7.09   5
  -5 -16  -5    7.40    5.92   5
   5 -16   5   22.88   16.37   2
  -5  16   5   -4.99    6.36   4
  -5 -16   5   10.08   12.26   2
   5  16  -5   -1.18    6.04   3
  -5 -16  -5    1.37    7.65   3
   5  16   5    8.31   10.21   4
   5 -16  -5   16.20    9.79   2
  -5  16  -5    1.87    9.57   4
   0 -17  -5    2.35   10.47   3
   0 -17   5   38.88   14.77   2
   0  17  -5   22.83   11.87   4
   0 -17  -5   36.66   12.04   5
   0  17   5   -7.74    8.19   4
   2  17   5   -3.44    7.79   4
  -2 -17   5    3.00    8.17   5
  -2  17  -5   -2.27    7.06   4
   2 -17   5  -14.11    8.29   2
   2 -17  -5    7.01    8.92   3
   2 -17  -5   11.20    9.50   2
  -2 -17   5   -6.68    7.74   2
   2  17  -5  -10.32    6.36   3
  -2 -17  -5    2.88    8.82   3
  -2 -17  -5   -7.08    5.76   5
  -2  17   5   -3.40    6.89   4
   4 -17   5   18.36   14.58   2
   4  17   5  -16.21    8.16   4
  -4 -17   5   -0.23    7.94   5
   4 -17  -5   11.96   10.21   2
  -4  17  -5    0.55   10.32   4
   4  17  -5   -7.19    7.46   3
  -4 -17  -5   14.55    8.37   5
  -4 -17  -5    6.64   11.97   3
  -4  17   5   12.75    8.76   4
  -1  18   5   54.53   19.62   4
   1  18  -5   32.11   14.66   4
   1 -18   5   20.18   11.26   2
  -1 -18  -5   48.37   18.29   3
  -1  18  -5   51.73   17.14   4
  -1 -18  -5   32.10   13.03   5
   1 -18  -5   51.26   17.25   3
   1  18   5   53.55   20.49   4
   1 -18  -5   64.59   17.12   5
  -1 -18   5   52.39   16.86   2
   3  18   5   52.47   19.32   4
   3  18  -5   67.81   17.85   3
  -3  18  -5  105.40   23.40   4
  -3 -18   5   86.64   19.54   5
   0  19  -5   91.24   22.19   4
   0 -19  -5   77.84   18.82   5
   0 -19  -5   93.07   22.88   3
   0   0   6   71.00    8.37   4
   0   0   6   50.58   14.71   1
   0   0   6   77.27    9.22   2
   0   0   6   81.07   11.19   5
   0   0  -6   74.94    9.26   3
  -2   0   6 4553.58  148.26   1
   2   0  -6 4538.32  122.58   2
  -2   0   6 4648.11  117.55   4
  -2   0  -6 4506.33  128.41   5
   2   0   6 4341.33  148.73   1
  -2   0  -6 4588.12  123.32   3
  -2   0   6 4611.43  129.39   5
   2   0  -6 4509.72  128.25   3
   2   0   6 4660.71  126.20   4
   2   0   6 4689.15  117.20   2
  -4   0   6   32.77    9.98   1
  -4   0  -6   58.03   10.37   4
   4   0   6   28.32    5.66   2
   4   0  -6   59.53    9.78   2
   4   0  -6   40.10    8.56   3
  -4   0  -6   49.24    7.19   3
  -4   0   6   50.94    4.00   4
  -4   0   6   37.74    8.56   5
  -4   0  -6   46.18    8.33   5
   4   0   6   31.64    9.65   1
  -6   0  -6 2730.25   88.46   4
   6   0  -6 2647.04   87.59   2
  -6   0   6 2495.32   86.28   5
   6   0   6 2749.32   83.68   2
  -6   0   6 2585.23  101.01   1
   6   0  -6 2593.48   89.56   3
   6   0   6 2712.99  102.84   1
  -8   0  -6   20.58    6.70   4
  -8   0   6   28.56    7.41   5
   8   0  -6    9.66    7.80   3
   8   0   6   10.02    6.51   2
   8   0  -6    8.85    5.84   2
  -8   0   6   27.22    9.93   1
   8   0   6   24.32   11.03   1
 -10   0  -6 1121.47   57.69   4
  10   0   6 1146.68   71.55   1
  10   0   6 1255.69   58.82   2
  10   0  -6 1214.14   61.83   2
 -10   0   6 1131.30   70.57   1
 -10   0   6 1241.24   58.03   5
 -12   0  -6   48.75   17.72   1
  12   0  -6   39.92   14.24   2
 -12   0   6   79.71   17.37   5
  12   0   6   59.48   17.60   2
 -12   0   6   41.14   16.37   1
 -12   0  -6   37.21    9.01   5
   1  -1   6   -0.10    1.79   2
   1   1  -6    0.89    1.55   4
  -1   1  -6   -0.67    1.56   4
  -1   1   6   -3.41    1.72   5
  -1   1  -6   -2.40    1.75   3
   1   1   6    3.80    2.39   4
  -1  -1   6    0.42    2.14   2
   1  -1  -6    0.43    1.71   2
   1   1  -6    2.05    2.85   3
  -1  -1   6    3.90    2.74   5
   1  -1   6    2.22    5.06   1
   1   1   6    1.52    5.14   1
  -1   1   6   -1.76    1.81   4
  -1  -1   6   -1.56    4.74   1
   1  -1  -6    4.19    3.38   3
  -1   1   6    0.62    4.50   1
  -1  -1  -6    0.15    2.39   3
  -3   1   6    6.16    3.58   5
  -3   1  -6   18.06    6.02   5
   3   1  -6   14.02    4.76   2
   3   1   6    5.76    3.59   4
  -3  -1   6    9.91    4.43   5
   3   1   6   11.93    6.34   1
   3  -1  -6   13.37    4.17   2
  -3  -1  -6   14.55    4.88   5
  -3  -1  -6   16.12    4.52   3
   3  -1   6    6.48    2.67   2
  -3   1  -6    6.91    3.51   4
  -3   1   6   14.13    6.65   1
   3  -1   6    4.95    5.77   1
   3   1  -6   10.31    1.98   4
  -3  -1   6    8.48    5.57   1
  -3   1   6   14.24    3.39   4
  -3   1  -6   14.21    3.68   3
   3  -1  -6   12.63    4.89   3
   3   1   6   11.57    2.87   2
   3   1  -6    4.62    3.46   3
   5  -1   6    6.08    6.10   1
   5  -1  -6   -2.64    2.39   3
  -5  -1   6    0.97    3.05   5
  -5   1  -6    3.97    3.81   4
  -5   1  -6    3.93    2.34   3
  -5  -1  -6   -2.12    2.99   4
  -5  -1  -6    5.68    3.60   5
   5   1   6    3.56    2.58   2
  -5   1   6    2.76    2.87   5
  -5  -1   6   -2.65    3.11   1
  -5   1   6    4.33    4.97   1
   5  -1   6    1.38    2.16   2
   5   1  -6    2.31    3.50   2
  -5  -1  -6    1.85    3.17   3
   5  -1  -6   -2.99    2.88   2
   5   1   6    3.27    3.98   1
   7  -1   6    3.33    3.31   2
  -7  -1  -6    2.96    3.48   4
   7  -1   6    4.34    6.19   1
   7  -1  -6    5.65    4.37   3
   7   1   6    2.99    4.99   1
  -7   1   6    1.29    4.86   1
  -7   1  -6   16.23    5.57   4
  -7  -1   6    3.15    2.90   5
   7   1  -6   -8.73    3.55   3
  -7   1   6   -0.05    3.25   5
   7   1  -6    9.96    4.85   2
   7  -1  -6   -0.01    2.52   2
   7   1   6    3.65    3.29   2
  -7  -1   6    0.82    4.48   1
   9   1  -6    5.42    7.16   3
   9   1   6    4.70    6.54   1
  -9   1  -6    1.06    4.31   4
   9  -1   6    2.64    5.49   2
   9   1   6    4.23    5.74   2
  -9   1   6    0.33    4.93   1
  -9  -1  -6    4.38    4.11   4
   9  -1  -6    2.61    3.90   2
  -9  -1   6    1.41    3.80   5
  -9   1   6    2.43    3.82   5
  -9  -1   6    1.31    5.73   1
   9   1  -6   -2.15    4.16   2
   9  -1   6    4.93    8.09   1
 -11   1   6   -1.73    5.86   5
  11  -1   6   -1.22    6.44   2
  11   1   6   17.57    9.76   2
 -11  -1  -6   23.47   10.95   1
  11  -1  -6   -5.62    5.33   2
 -11   1  -6   -4.90    9.31   1
 -11  -1   6   -2.35    7.72   1
 -11  -1  -6   -4.47    3.95   5
  11   1  -6   -2.35    5.35   2
 -11   1   6    9.13    7.88   1
 -11  -1   6    1.18    5.93   5
 -11   1  -6   -6.62    4.05   5
   0  -2   6 1581.77   56.79   5
   0   2  -6 1498.69   49.20   3
   0   2   6 1357.18   71.62   1
   0   2  -6 1500.61   46.98   4
   0  -2  -6 1491.74   51.52   3
   0  -2   6 1575.04   60.92   2
   0  -2   6 1364.64   68.81   1
   0   2   6 1571.16   49.17   4
  -2  -2   6 1841.26   62.40   5
   2  -2   6 1805.62   75.25   1
  -2  -2  -6 1817.18   56.42   5
  -2   2   6 1877.63   55.70   4
  -2  -2  -6 1755.48   59.03   3
   2  -2  -6 1816.92   53.61   2
  -2   2  -6 1888.98   54.41   3
   2  -2   6 1905.27   56.66   2
   2   2   6 1879.66   50.20   2
  -2   2  -6 1780.84   59.10   4
   2   2  -6 1909.28   51.29   4
  -2   2   6 1859.11   74.88   1
   2   2  -6 1804.27   59.78   2
  -2  -2   6 1840.40   75.50   1
  -2   2   6 1848.27   61.75   5
   2   2   6 1916.60   60.93   4
   2   2   6 1796.85   74.99   1
   2  -2  -6 1754.09   60.60   3
   2   2  -6 1817.44   61.13   3
   4   2   6 1325.54   49.85   4
  -4  -2  -6 1362.86   47.04   3
  -4   2  -6 1220.26   48.59   4
  -4   2  -6 1273.65   38.13   3
   4  -2  -6 1286.91   49.25   3
  -4   2   6 1297.32   41.34   4
  -4   2   6 1251.22   49.32   5
   4   2   6 1287.69   42.59   2
  -4  -2  -6 1249.00   41.72   5
   4   2  -6 1333.59   51.89   3
  -4  -2   6 1289.45   58.90   1
   4  -2  -6 1299.32   46.36   2
  -4   2   6 1256.77   58.52   1
   4   2   6 1194.25   57.01   1
   4  -2   6 1335.96   46.16   2
   4   2  -6 1253.09   49.00   2
   4  -2   6 1341.68   61.53   1
  -4  -2   6 1325.18   49.77   5
  -6  -2   6 1252.91   51.28   5
   6   2  -6 1364.57   57.68   3
   6   2  -6 1263.78   54.23   2
   6   2   6 1298.57   62.17   1
  -6  -2  -6 1337.84   41.89   5
   6  -2   6 1293.99   64.40   1
  -6   2  -6 1308.45   54.16   4
  -6  -2  -6 1328.08   52.99   4
   6   2   6 1371.10   49.19   2
  -6   2   6 1306.94   54.51   5
   6  -2  -6 1210.83   51.65   3
  -6  -2   6 1296.71   62.67   1
   6  -2   6 1253.89   50.67   2
  -6   2   6 1279.43   63.08   1
   6  -2  -6 1309.28   52.78   2
  -6  -2  -6 1284.40   47.35   3
  -8   2  -6  720.49   41.38   4
   8   2   6  791.21   39.98   2
   8   2  -6  738.39   42.88   2
  -8   2   6  761.19   50.09   1
   8  -2   6  714.85   49.83   1
  -8  -2  -6  769.42   40.23   4
  -8  -2   6  717.98   38.84   5
  -8  -2   6  693.96   48.28   1
   8   2  -6  699.01   42.46   3
   8  -2   6  765.74   39.99   2
   8   2   6  774.21   49.30   1
  -8   2   6  802.94   42.92   5
   8  -2  -6  706.03   40.98   2
   8  -2  -6  717.50   40.23   3
 -10   2   6  687.77   42.38   5
  10  -2   6  636.67   40.93   2
  10   2  -6  653.91   44.83   2
 -10  -2   6  570.96   48.06   1
 -10  -2   6  585.06   37.35   5
  10  -2  -6  678.47   43.88   2
  10   2   6  654.81   39.95   2
 -10   2  -6  660.72   42.02   4
 -10   2   6  622.60   50.39   1
  10  -2   6  600.67   50.32   1
  10   2   6  586.50   47.31   1
 -12  -2  -6  301.40   41.80   1
  12  -2   6  295.02   35.86   2
 -12  -2   6  350.83   47.34   1
 -12   2   6  345.58   37.33   5
 -12  -2  -6  342.89   22.73   5
   1  -3  -6  127.29   13.30   3
  -1   3   6  106.51   11.96   5
  -1  -3   6  112.46   15.72   2
  -1   3  -6  100.49   11.12   4
   1  -3  -6  126.39    7.43   2
  -1  -3   6  100.34   13.68   5
   1   3  -6  130.90   13.22   3
   1   3   6  111.33   19.73   1
   1  -3   6  111.41   16.50   5
   1  -3   6  122.13   15.40   2
  -1   3  -6  112.28    9.46   3
  -1  -3  -6  120.22   12.73   3
   1   3   6  125.31   12.66   4
  -1  -3   6  117.67   20.69   1
  -1  -3  -6  140.37   10.67   5
   1  -3   6   98.04   17.75   1
  -1   3   6  122.94   11.59   4
  -1   3   6   90.50   17.75   1
   1   3  -6  117.96    8.86   4
   3   3  -6  193.91   15.84   2
   3   3   6  143.08   10.00   2
  -3   3   6  175.84   12.51   4
   3  -3   6  170.51   13.30   2
   3   3  -6  159.99   17.17   3
  -3  -3   6  183.10   21.81   1
  -3   3  -6  181.58   10.21   3
  -3  -3   6  158.02   15.96   5
   3   3   6  155.92   15.53   4
   3  -3   6  162.45   21.67   1
  -3   3   6  199.06   15.38   5
  -3  -3  -6  160.14   15.22   3
   3  -3  -6  134.73   14.75   3
  -3   3  -6  184.82   14.86   4
   3   3   6  155.35   19.16   1
  -3   3   6  173.15   21.05   1
   3   3  -6  166.03    8.25   4
  -3  -3  -6  187.79   11.30   5
   3  -3  -6  190.16   12.76   2
   5   3   6   52.42   10.21   4
   5  -3  -6   43.29    9.20   2
   5  -3  -6   28.41    7.51   3
  -5   3   6   48.33   10.08   5
  -5  -3  -6   40.55    8.51   3
   5  -3   6   58.74   13.83   1
  -5  -3  -6   42.73    5.70   5
  -5  -3   6   33.74    8.22   5
  -5  -3   6   51.45   12.94   1
   5   3   6   29.24    9.51   1
   5  -3   6   33.11    7.52   2
  -5   3   6   28.83    9.75   1
   5   3   6   39.73    7.45   2
   5   3  -6   51.39   11.18   2
   5   3  -6   50.98   11.58   3
  -5   3   6   44.96    7.95   4
  -5   3  -6   45.89   10.03   4
  -7  -3  -6   95.03   14.61   4
  -7   3  -6   68.48   13.60   4
   7  -3  -6   44.65   10.83   2
   7   3   6   57.89   10.83   2
   7   3   6   56.41   14.16   1
  -7  -3   6   68.00   12.13   5
  -7   3   6   73.31   13.76   5
   7   3  -6   75.74   15.35   3
   7  -3   6   38.55    9.77   2
  -7   3   6   72.49   16.43   1
   7   3  -6   42.48   10.93   2
   7  -3   6   62.73   16.07   1
   7  -3  -6   70.46   13.03   3
  -7  -3   6   56.88   14.40   1
   9  -3   6   23.23    8.98   2
   9   3   6   32.67    9.59   2
   9  -3   6   19.11   10.30   1
  -9  -3   6   23.20    6.87   5
  -9   3   6    0.57    7.82   1
   9   3  -6   51.54   14.28   3
  -9  -3  -6   32.87    9.75   4
   9  -3  -6   19.01    8.99   2
  -9   3   6   50.13   12.68   5
  -9   3  -6   24.88    9.52   4
   9   3   6   22.47    9.92   1
  -9  -3   6   30.40   11.71   1
   9   3  -6   31.68   10.25   2
  11   3   6   -2.98    7.56   2
 -11   3  -6   -0.12    7.71   5
 -11  -3  -6   12.96    9.44   1
 -11  -3   6   11.44    6.73   5
  11  -3   6   -3.37    7.51   2
  11  -3  -6    1.76    6.89   2
 -11  -3   6   15.88    9.08   1
 -11   3   6   11.78    9.82   1
 -11   3  -6  -11.25    8.64   1
 -11  -3  -6    4.14    4.50   5
  11   3  -6    0.61    5.68   2
 -11   3   6   18.20    9.23   5
   0  -4  -6  437.53   24.38   3
   0  -4  -6  428.06   20.54   5
   0  -4   6  429.88   27.89   5
   0  -4  -6  497.93   17.09   2
   0   4   6  510.10   38.03   1
   0   4   6  457.54   23.82   4
   0  -4   6  429.20   31.70   1
   0   4  -6  448.27   22.05   4
   0  -4   6  451.62   33.77   2
   0   4  -6  430.72   22.35   3
  -2   4  -6 4234.36  120.64   4
   2   4  -6 4260.72  123.53   3
   2  -4  -6 4199.12  113.66   2
  -2   4   6 4274.87  138.66   1
  -2  -4  -6 4050.29  121.90   3
  -2  -4  -6 4224.61  118.26   2
   2   4   6 4193.20  120.31   4
  -2  -4   6 4202.08  126.68   2
  -2  -4  -6 4288.95  113.13   5
  -2  -4   6 4116.61  122.95   5
   2   4  -6 4133.34  111.73   4
   2   4   6 4181.46  135.22   1
   2  -4   6 4148.95  126.43   2
   2  -4   6 4103.67  135.92   1
  -2   4  -6 4325.94  113.59   3
   2  -4  -6 4161.73  122.09   3
  -2  -4   6 3739.89  138.37   1
  -2   4   6 4376.96  121.48   5
  -2   4   6 4192.58  118.04   4
  -2  -4  -6 4056.87  110.72   5
   2  -4   6 4498.21  130.99   5
  -4  -4  -6  283.27   11.54   5
   4   4  -6  291.85   22.21   2
   4   4   6  274.24   20.18   4
  -4   4   6  348.84   19.62   4
   4  -4  -6  261.60   19.50   3
   4   4   6  268.14   21.98   1
  -4   4   6  273.80   26.66   1
  -4  -4   6  308.49   25.67   1
  -4   4   6  253.94   19.87   5
  -4  -4  -6  298.31   13.63   5
  -4  -4  -6  279.25   19.73   3
   4   4   6  315.43   17.58   2
   4  -4   6  284.67   28.12   1
   4   4  -6  255.51   21.19   3
  -4   4  -6  276.50   20.73   4
   4  -4  -6  275.13   18.63   2
  -4  -4   6  289.83   20.29   5
   4  -4   6  252.50   18.89   2
   6  -4   6 2263.15   80.28   2
  -6  -4   6 2247.49   91.25   1
  -6   4  -6 2328.14   83.02   4
   6   4   6 2253.59   79.58   4
  -6   4   6 2288.00   82.49   5
  -6   4   6 2226.19   92.50   1
   6   4   6 2192.61   87.79   1
   6  -4   6 2259.58   93.45   1
   6  -4  -6 2259.48   79.28   2
  -6  -4   6 2325.36   79.15   5
   6   4  -6 2388.23   84.96   2
  -6  -4  -6 2209.74   77.85   3
   6   4   6 2362.52   76.77   2
   6   4  -6 2321.90   87.11   3
   6  -4  -6 2267.68   79.52   3
  -8  -4   6  149.25   18.88   5
   8  -4  -6  153.73   21.95   2
  -8   4  -6  162.78   22.51   4
   8   4   6  154.71   24.58   1
  -8  -4  -6  150.37   20.23   4
   8  -4   6  160.83   26.60   1
   8  -4   6  173.54   22.24   2
  -8   4   6  196.32   29.34   1
   8   4   6  205.23   22.29   2
   8   4  -6  182.17   24.46   2
   8   4  -6  165.72   24.13   3
  -8  -4   6  173.94   26.39   1
  -8   4   6  170.31   22.30   5
  10  -4   6  956.73   54.05   2
 -10   4  -6  969.62   55.83   4
  10   4  -6  951.90   56.96   2
 -10   4   6 1039.17   57.02   5
 -10   4   6  849.65   61.92   1
 -10  -4   6  954.92   49.21   5
  10  -4  -6  931.62   55.55   2
  10   4  -6 1059.84   59.24   3
  10   4   6 1038.29   53.85   2
 -10  -4   6  936.84   62.14   1
  10  -4   6  994.57   66.25   1
  12  -4   6  160.24   28.46   2
 -12  -4  -6  150.69   12.21   5
 -12   4   6  175.06   27.05   5
 -12  -4  -6  157.36   30.66   1
   1   5   6    6.14    4.57   4
   1  -5   6   16.52    7.61   5
  -1  -5  -6    8.04    4.29   2
   1   5  -6    5.11    4.98   3
   1  -5  -6   13.08    4.03   2
  -1  -5  -6    7.79    3.40   5
  -1   5   6    6.59    3.79   5
  -1  -5   6    5.97    6.63   1
   1   5   6    2.26    5.09   1
   1  -5   6   10.30    6.94   2
   1  -5  -6    4.07    4.25   3
  -1   5  -6   13.23    5.12   3
  -1  -5  -6    8.44    4.69   3
  -1   5  -6    5.54    3.19   4
  -1  -5   6   12.87    8.17   2
  -1  -5   6    5.12    4.53   5
   1  -5  -6    9.49    4.02   5
   1   5  -6    6.42    3.09   4
  -1   5   6   11.56    5.30   4
  -1  -5  -6   12.80    4.47   5
   1  -5   6   11.05    6.09   1
  -1   5   6   -6.50    3.93   1
  -3   5  -6   -1.42    2.52   4
  -3   5   6    4.28    3.99   4
  -3  -5  -6   -0.17    1.55   5
  -3  -5   6    0.47    2.97   5
  -3   5  -6    1.26    2.63   3
  -3  -5   6    3.52    5.72   1
   3  -5   6   -2.96    3.04   2
   3  -5   6    9.43    5.50   5
   3   5  -6    3.89    2.34   4
   3   5   6    1.81    3.27   1
   3   5  -6   -1.31    2.58   3
  -3  -5   6    0.02    2.77   2
  -3  -5  -6    4.00    2.90   5
  -3  -5  -6   -3.25    2.89   3
  -3   5   6    0.50    3.13   5
   3  -5  -6    2.62    3.33   2
  -3   5   6   -2.20    3.39   1
   3  -5   6    5.74    5.65   1
  -3  -5  -6    0.43    3.71   2
   3  -5  -6    5.59    3.85   3
   3   5   6    2.40    2.89   4
   5  -5   6    8.38    7.26   1
  -5   5   6   26.41    9.62   1
   5   5   6    8.96    4.83   4
   5  -5   6   12.85    5.78   2
  -5  -5  -6    7.53    5.48   3
   5   5  -6    9.14    5.78   2
   5   5   6    6.54    4.31   2
   5  -5  -6    4.12    4.27   3
  -5  -5   6   18.61    7.94   1
  -5   5   6   10.88    5.53   5
  -5   5   6   10.21    5.66   4
  -5  -5   6   30.79    8.34   5
  -5  -5  -6   14.28    2.42   5
  -5  -5  -6   11.29    2.97   5
   5   5  -6    4.53    4.29   3
  -5   5  -6   11.21    5.13   4
   5   5   6    6.43    4.89   1
   5  -5  -6    3.10    4.83   2
   7  -5   6   -0.38    4.23   2
   7  -5  -6    0.52    3.13   2
  -7  -5  -6   -0.03    3.64   3
  -7   5   6   -0.50    3.96   1
   7   5   6   -1.03    5.16   1
   7   5   6    2.19    4.16   4
   7  -5   6    3.78    5.27   1
  -7  -5   6    0.25    3.26   5
  -7   5  -6   -3.69    4.10   4
   7   5  -6    7.33    6.17   3
   7  -5  -6   -0.26    4.76   3
  -7   5   6   -3.34    3.47   5
  -7  -5   6    4.64    5.30   1
   7   5   6   -9.52    3.38   2
   7   5  -6    7.75    5.62   2
   9  -5  -6    3.34    6.70   2
  -9  -5  -6    2.07    4.51   4
   9   5  -6    1.39    5.66   2
  -9  -5   6    6.72    4.25   5
   9  -5   6   -1.50    6.18   1
  -9   5   6    8.75    6.49   1
   9   5  -6   -4.06    5.36   3
  -9   5   6   -2.39    4.56   5
   9  -5   6    6.69    5.89   2
   9   5   6    8.88    6.90   1
  -9  -5   6   -4.91    4.98   1
  -9   5  -6    2.39    6.15   4
   9   5   6   -3.55    5.36   2
 -11  -5   6    9.04    5.88   5
 -11   5   6   -4.81    6.98   5
  11  -5   6   11.19    9.78   2
 -11   5  -6   11.65   10.28   1
 -11   5   6   18.72   10.97   1
 -11  -5  -6   10.98   10.07   1
  11   5  -6   -2.08    7.01   2
 -11  -5  -6   -0.72    3.17   5
 -11   5  -6   -5.62    6.25   5
 -11  -5   6   16.95    9.97   1
  11  -5  -6    8.67    7.32   2
   0  -6   6 2285.66   83.92   1
   0  -6   6 2246.06   82.73   5
   0  -6  -6 2174.58   76.83   3
   0  -6   6 2320.78   95.24   2
   0   6  -6 2223.28   73.15   4
   0   6  -6 2229.15   73.78   3
   0  -6  -6 2170.30   70.56   5
   0  -6  -6 2274.67   69.75   2
   0   6   6 2249.66   75.55   4
   0   6   6 2392.77   92.57   1
   2   6   6  448.76   27.06   4
   2  -6   6  536.94   33.74   5
  -2  -6   6  491.74   35.13   1
   2   6  -6  470.95   23.37   4
  -2  -6  -6  497.58   21.92   5
   2   6  -6  436.23   27.58   3
   2  -6  -6  442.44   26.52   3
  -2   6   6  490.80   26.87   5
   2  -6  -6  479.11   23.60   2
   2  -6   6  408.27   32.74   2
   2  -6  -6  447.47   24.99   5
  -2   6   6  450.55   26.66   4
   2  -6   6  474.09   30.89   1
  -2  -6   6  455.16   33.69   2
  -2   6   6  485.52   33.11   1
  -2   6  -6  510.37   28.42   4
  -2  -6  -6  453.63   29.20   2
  -2   6  -6  463.70   22.20   3
   2   6   6  443.93   27.24   1
  -2  -6  -6  498.23   28.64   3
  -2  -6  -6  479.90   21.67   5
  -2  -6   6  437.66   28.48   5
  -4   6   6 1884.34   75.97   1
  -4  -6   6 1943.98   78.65   1
  -4  -6  -6 2046.79   54.86   5
  -4   6  -6 1894.88   71.78   4
  -4  -6  -6 1822.05   67.94   2
   4  -6  -6 1943.37   66.83   2
  -4  -6  -6 1821.41   70.04   3
  -4  -6   6 1956.15   70.46   5
   4   6  -6 1924.38   73.49   3
   4   6   6 1798.92   69.49   1
  -4  -6   6 1852.38   76.62   2
   4  -6   6 1940.85   77.71   1
   4  -6   6 1695.83   71.79   2
  -4  -6  -6 1902.51   54.13   5
   4   6   6 1913.32   70.28   4
   4  -6  -6 1898.97   69.08   3
  -4   6   6 1903.06   67.42   4
  -4   6   6 1910.94   70.91   5
   6  -6   6  487.45   32.09   2
  -6  -6   6  370.85   30.20   1
   6   6   6  445.45   29.42   4
   6   6   6  388.18   29.02   1
   6  -6   6  427.25   33.93   1
  -6   6   6  527.91   33.87   5
  -6   6   6  415.48   33.16   1
  -6  -6   6  412.45   27.15   5
   6   6   6  444.10   27.69   2
  -6   6   6  430.46   26.95   4
  -6   6  -6  417.56   30.85   4
   6   6  -6  488.96   34.06   3
   6  -6  -6  461.67   28.64   3
   6   6  -6  417.59   31.76   2
   6  -6  -6  440.29   29.27   2
   8   6  -6 1086.06   59.45   2
   8  -6  -6 1118.65   55.50   2
   8   6   6 1186.64   60.08   1
   8  -6   6 1017.45   62.60   1
  -8  -6   6 1049.69   49.79   5
  -8   6  -6 1045.13   56.99   4
  -8   6   6 1026.78   61.60   1
  -8   6   6 1179.88   59.12   5
   8   6  -6 1158.36   61.68   3
   8   6   6 1125.09   54.01   2
   8  -6   6 1117.57   57.42   2
  -8  -6   6 1017.66   59.77   1
  10  -6   6  290.74   40.15   1
 -10   6  -6  263.07   33.56   4
 -10   6   6  312.01   41.34   1
 -10   6   6  283.81   33.31   5
  10   6  -6  331.50   38.87   3
  10   6  -6  205.77   31.24   2
 -10  -6   6  295.27   27.77   5
  10  -6   6  291.09   34.21   2
  10  -6  -6  301.57   35.50   2
 -10  -6   6  284.19   37.54   1
 -10  -6  -6  328.01   36.57   1
  -1  -7   6    8.38    7.39   2
   1  -7  -6    5.00    4.21   3
  -1  -7  -6    3.95    3.17   5
   1   7  -6    5.57    3.98   4
  -1   7  -6   23.06    6.74   3
   1  -7   6    6.23    4.58   5
   1   7   6   -0.52    4.27   1
   1  -7   6    5.06    4.89   1
  -1  -7  -6    1.66    5.06   2
   1  -7  -6    2.58    2.99   5
   1   7   6    3.00    3.96   4
  -1   7  -6    2.61    3.30   4
  -1   7   6    2.97    4.47   4
   1  -7   6    6.82    7.10   2
  -1  -7   6    5.93    4.80   5
  -1   7   6   12.46    7.89   1
   1  -7  -6    4.59    4.41   2
  -1  -7  -6    7.12    4.09   3
   1   7  -6    6.99    4.76   3
  -1  -7   6    7.94    6.50   1
   3   7   6    6.69    4.62   1
  -3  -7  -6   10.32    7.48   2
   3  -7  -6   17.99    6.44   5
  -3   7  -6   15.32    5.99   4
   3  -7  -6   21.81    6.98   2
  -3  -7   6   11.92    6.38   5
   3   7   6   15.44    5.81   4
   3   7  -6   14.89    5.53   4
  -3  -7  -6   13.60    4.22   5
   3   7  -6   17.20    7.76   3
  -3   7   6   27.56    8.43   4
  -3   7   6   23.08    7.38   5
  -3  -7  -6   26.47    9.19   3
  -3  -7   6   16.82    8.63   2
  -3  -7   6   27.68   10.98   1
   3  -7   6   15.49    8.49   2
  -3   7  -6   19.43    5.65   3
   3  -7  -6   17.22    6.31   3
   3  -7   6   34.53   10.39   1
  -3   7   6   14.04    6.80   1
  -5  -7   6    6.54    5.47   2
   5   7  -6   12.64    6.58   3
   5   7   6   -3.64    2.66   4
  -5  -7  -6   -0.67    3.33   3
   5   7   6   -6.10    2.90   1
  -5   7  -6    1.68    3.76   4
  -5  -7  -6    0.82    1.50   5
   5  -7  -6    5.53    4.00   3
  -5   7   6    1.89    4.76   4
   5  -7  -6    7.38    4.01   2
  -5  -7   6   -4.54    2.38   5
  -5   7   6    2.70    4.72   5
  -5  -7  -6    3.90    2.56   5
   5  -7   6    6.09    5.23   1
   5  -7   6   10.88    6.86   2
  -5  -7   6   -0.69    5.92   1
  -5   7   6   -6.79    4.49   1
  -5  -7  -6    8.67    6.58   2
   7  -7   6   17.51    8.61   1
  -7   7  -6   10.82    7.18   4
   7   7   6    8.50    6.66   1
  -7   7   6   -4.17    3.41   5
   7   7  -6    8.11    6.14   3
  -7  -7   6    6.34    5.79   2
  -7  -7   6    7.64    5.77   1
  -7  -7   6    3.28    5.02   5
   7  -7  -6    7.97    5.12   2
  -7  -7  -6   11.92    5.87   2
   7  -7   6    7.64    7.07   2
   7   7   6    7.18    4.50   4
  -7   7   6    3.09    5.56   1
   9  -7   6   -1.66    5.80   2
  -9   7   6   14.86    9.23   1
  -9   7   6   12.69    7.35   5
   9  -7  -6   -1.39    4.88   2
  -9   7  -6   -6.25    5.24   4
   9   7  -6   -6.02    5.92   3
  -9  -7   6   -0.83    5.89   1
   9   7  -6   11.14    6.88   2
  -9  -7   6    4.61    4.61   5
   9  -7   6   -0.10    6.42   1
 -11   7   6  -15.96    8.14   1
  11   7  -6    6.78    6.86   2
  11  -7   6    4.30   10.55   2
 -11   7  -6   12.32    9.27   5
  11   7  -6  -13.66   11.27   3
  11  -7  -6   -5.26    6.11   2
 -11   7  -6   16.30    9.13   4
 -11  -7   6    0.52    6.03   5
 -11   7  -6    6.73   10.86   1
   0   8   6  676.20   37.08   4
   0  -8   6  608.87   46.66   2
   0  -8  -6  621.23   35.85   3
   0  -8   6  694.52   36.27   1
   0   8   6  745.30   38.90   1
   0  -8  -6  678.93   34.08   2
   0  -8   6  659.32   40.10   5
   0  -8  -6  721.03   33.68   5
   0   8  -6  661.55   34.50   3
   0   8  -6  620.91   33.93   4
  -2  -8   6 1589.38   81.83   2
   2  -8   6 1704.01   66.09   1
  -2  -8   6 1710.25   71.88   1
  -2  -8  -6 1781.66   68.32   3
   2   8   6 1549.88   64.88   4
   2  -8  -6 1670.54   61.31   2
  -2   8   6 1677.00   72.03   1
   2   8  -6 1701.71   67.33   3
  -2  -8  -6 1804.89   57.50   5
  -2  -8   6 1634.70   69.11   5
  -2   8   6 1700.49   65.89   4
   2  -8  -6 1774.92   63.44   5
   2   8   6 1660.90   59.58   1
   2   8  -6 1616.25   60.22   4
  -2  -8  -6 1716.98   69.72   2
  -2   8  -6 1642.32   58.30   3
   2  -8  -6 1713.34   66.15   3
  -2   8  -6 1711.82   66.36   4
   2  -8   6 1442.34   80.44   2
   2  -8   6 1691.70   73.91   5
   4  -8  -6  469.01   29.61   2
   4  -8  -6  472.52   29.98   5
  -4   8  -6  488.99   32.98   4
  -4  -8   6  459.05   30.84   5
  -4  -8  -6  473.65   32.51   3
   4   8   6  481.56   27.38   1
  -4  -8   6  522.44   35.84   1
   4   8   6  491.15   31.36   4
   4   8  -6  516.63   34.93   3
  -4   8   6  463.35   33.32   1
  -4  -8   6  360.47   37.02   2
  -4  -8  -6  482.69   21.93   5
   4  -8  -6  478.99   30.55   3
  -4   8   6  489.70   30.78   4
   4  -8   6  503.97   33.37   1
  -4  -8  -6  467.66   33.77   2
   4  -8   6  531.74   38.57   2
   6   8  -6  933.52   53.48   3
   6  -8  -6 1017.84   49.67   2
   6   8   6 1011.78   47.59   1
  -6   8  -6  864.81   50.36   4
   6  -8   6  892.48   52.42   1
  -6  -8  -6 1028.29   51.68   2
  -6   8   6 1002.18   55.57   1
  -6  -8   6  910.10   56.45   2
   6  -8   6  982.90   55.07   2
  -6  -8   6  984.13   47.51   5
  -6  -8  -6  984.88   31.53   5
  -6  -8   6  962.41   52.94   1
  -6   8   6  928.65   46.81   4
   6   8   6  958.21   49.13   4
   6  -8  -6 1070.28   49.74   3
  -8  -8   6  230.54   31.92   2
  -8   8  -6  257.50   31.48   4
  -8   8   6  261.62   34.08   1
   8  -8   6  338.15   36.24   2
   8   8   6  254.39   28.72   4
  -8  -8   6  283.39   27.15   5
   8   8  -6  330.73   37.80   3
   8  -8   6  276.13   35.18   1
   8  -8  -6  259.29   30.00   2
 -10   8  -6  455.53   42.08   5
 -10   8   6  530.89   51.41   1
 -10   8  -6  493.72   50.12   1
 -10  -8   6  462.77   32.91   5
  10  -8   6  441.25   45.39   2
 -10   8  -6  414.33   42.36   4
 -10  -8   6  448.11   46.33   2
  10   8  -6  564.53   45.97   3
  10  -8  -6  427.27   42.00   2
   1  -9   6   79.53   20.24   2
  -1  -9  -6  109.81   13.84   5
  -1   9   6  112.43   17.76   4
   1   9   6   90.63   15.93   4
  -1   9   6  106.62   19.56   1
   1  -9  -6   96.18   16.18   3
  -1  -9  -6   91.46   15.87   3
   1   9  -6   92.00   14.57   4
   1  -9  -6  103.12   15.27   5
  -1  -9   6  122.34   24.65   2
  -1  -9  -6   94.46   16.65   2
   1  -9  -6  116.74   16.16   2
  -1  -9   6  113.58   19.13   5
   1  -9   6  121.82   20.44   5
   1   9  -6   99.28   16.32   3
  -1   9  -6  116.76   15.82   3
  -1   9  -6  101.38   16.44   4
  -1  -9   6  104.13   15.03   1
   1  -9   6  113.08   15.10   1
  -3  -9  -6  158.64   25.09   2
  -3  -9   6  127.87   19.86   5
  -3   9   6  129.30   19.13   4
  -3   9  -6  162.09   21.78   4
   3   9  -6  118.26   18.61   3
   3  -9   6  157.39   19.37   1
  -3  -9   6  157.72   27.24   2
   3  -9   6  123.67   24.57   2
   3  -9  -6  111.54   16.77   5
  -3  -9  -6   99.52   17.35   3
   3  -9  -6  118.59   17.98   3
   3   9   6  122.25   18.94   4
  -3   9   6  128.21   20.25   1
   3  -9  -6  153.25   19.17   2
   3   9  -6  167.43   18.20   4
  -3  -9  -6  161.09   14.53   5
   5  -9  -6   48.21   11.61   2
   5  -9   6   44.18   14.45   2
  -5   9   6   26.92    9.38   4
  -5  -9   6   24.88    8.56   5
   5   9  -6   29.03   10.79   3
  -5  -9  -6   76.34   17.72   2
   5  -9   6   31.92   10.42   1
   5   9   6   31.48    9.73   4
   5  -9  -6   61.65   13.43   3
  -5  -9   6   43.75   14.57   2
  -5  -9  -6   52.13    7.74   5
  -5   9   6   37.36   11.50   1
  -5   9  -6   31.21    9.99   4
   7   9  -6   58.29   16.07   3
  -7  -9  -6   50.37    6.10   5
   7   9   6   53.44   13.85   4
  -7  -9   6   48.42   15.10   2
   7  -9   6   61.03   15.94   2
  -7   9   6   95.04   19.76   1
  -7  -9   6   52.64   12.15   5
   7  -9  -6   55.44   14.24   2
  -7   9   6   36.52    9.78   4
   7   9   6   54.45   13.89   3
   7  -9   6   66.46   15.84   1
  -7   9  -6   70.88   16.58   4
  -9  -9   6   36.86   15.05   2
  -9   9   6   23.14   11.78   1
   9  -9  -6   31.18   11.54   2
  -9   9  -6    8.54    9.18   4
   9  -9   6   32.63   13.60   2
   9  -9   6   48.68   15.79   1
  -9  -9   6   19.10    8.25   5
   9   9  -6   54.14   16.80   3
   0 -10   6 2117.26   84.18   5
   0  10   6 1987.33   79.95   4
   0 -10  -6 2069.77   81.41   3
   0  10  -6 1997.82   76.35   3
   0  10  -6 1973.59   76.99   4
   0 -10  -6 2070.01   74.30   5
   0 -10   6 2042.61   96.91   2
   0 -10  -6 2175.83   80.20   2
   2  10   6  323.69   30.91   4
  -2  10  -6  253.17   27.99   4
   2 -10  -6  307.11   24.33   2
   2 -10  -6  321.72   25.14   5
   2  10  -6  284.70   22.20   4
   2  10  -6  315.11   29.41   3
   2 -10  -6  331.09   26.18   3
  -2 -10   6  338.37   31.69   5
   2 -10   6  340.84   45.12   2
  -2 -10  -6  324.20   31.01   3
  -2  10   6  319.90   29.38   4
  -2 -10  -6  319.16   31.97   2
  -2 -10   6  344.81   42.28   2
  -2 -10  -6  320.76   21.44   5
  -2  10  -6  311.52   22.08   3
  -4 -10  -6 1671.47   81.53   2
   4 -10  -6 1696.90   68.99   2
  -4 -10  -6 1703.66   75.19   3
  -4 -10   6 1597.45   85.64   2
   4 -10   6 1652.47   89.29   2
  -4  10  -6 1698.31   74.71   4
  -4  10   6 1625.83   70.87   4
   4 -10   6 1729.46   71.16   1
   4 -10  -6 1709.24   71.90   3
   4  10  -6 1694.44   75.96   3
  -4 -10  -6 1724.49   58.13   5
  -4  10   6 1691.23   74.24   1
   4  10   6 1640.03   71.31   4
  -4 -10   6 1771.84   74.22   5
   6  10   6  299.57   31.06   4
  -6  10  -6  306.29   33.10   4
  -6 -10   6  289.57   29.49   5
   6  10  -6  314.23   35.73   3
   6 -10  -6  319.42   31.20   2
   6 -10   6  289.47   38.71   2
  -6 -10   6  211.16   32.54   2
  -6 -10  -6  293.72   16.87   5
   6 -10   6  316.83   31.77   1
  -6  10   6  315.26   30.39   4
  -6  10   6  351.52   33.74   1
  -8 -10   6  961.52   51.49   5
   8 -10   6 1022.98   61.36   1
  -8 -10  -6 1008.36   33.05   5
   8  10  -6  994.31   61.97   3
   8 -10  -6  893.56   54.23   2
  -8 -10   6  953.27   63.95   2
   8 -10   6  944.23   63.27   2
   8  10   6 1046.07   57.93   4
  -8  10  -6 1005.55   60.52   4
  -8  10   6  974.64   61.19   1
 -10  10  -6  183.68   31.58   1
 -10  10  -6  230.24   34.20   4
 -10 -10   6  207.17   35.64   2
  10  10  -6  160.77   30.61   3
 -10  10   6  183.65   32.42   1
  10 -10  -6  219.02   31.87   2
 -10  10  -6  211.72   32.18   5
  10 -10   6  199.10   34.98   2
   1 -11   6  125.82   21.78   5
  -1  11   6   87.69   16.98   4
  -1 -11   6  108.64   18.93   5
  -1  11  -6  100.68   16.37   3
   1 -11  -6  116.11   18.90   3
  -1 -11   6   97.20   21.99   2
   1 -11  -6  102.38   18.04   2
  -1 -11  -6  122.17   21.04   2
  -1 -11  -6   98.79   18.24   3
   1  11  -6  103.06   17.50   3
   1 -11  -6  104.47   17.47   5
   1  11  -6   83.84   14.71   4
  -1 -11  -6  106.08   15.84   5
  -1  11  -6   89.12   16.60   4
   1  11   6  126.73   20.38   4
   1 -11   6  152.12   28.39   2
  -3  11   6   60.75   13.79   4
  -3 -11  -6   80.97   19.66   2
   3 -11  -6   58.84   13.00   2
   3  11  -6   78.76   16.91   3
  -3 -11  -6   49.36   13.09   3
  -3 -11  -6   53.18   10.43   5
  -3  11  -6   75.71   16.53   4
   3 -11  -6   51.98   12.88   3
  -3 -11   6   54.07   13.28   5
   3 -11   6   48.25   16.42   2
  -3 -11   6   36.08   15.57   2
   3 -11  -6   52.15   12.05   5
   3  11   6   52.70   12.99   4
   5 -11  -6   99.43   18.59   3
  -5 -11  -6   83.99   17.86   3
   5  11   6   77.43   16.56   4
   5  11  -6   79.08   18.40   3
  -5 -11   6   74.96   15.53   5
  -5  11   6   44.03   12.63   4
   5 -11   6   59.70   18.83   2
  -5  11  -6   81.39   17.83   4
   5 -11  -6   79.41   16.06   2
  -5 -11   6  110.99   24.67   2
  -5 -11  -6   86.93   11.77   5
  -7 -11   6   35.07   10.77   5
  -7 -11   6   19.79   12.90   2
   7  11  -6   22.81   11.59   3
  -7  11   6   33.37   11.39   4
   7 -11  -6   23.00    9.64   2
   7  11   6   47.87   13.23   4
  -7 -11  -6   27.00    6.16   5
  -7  11  -6   23.31   10.22   4
   7 -11   6   30.07   13.52   2
  -9 -11   6   17.13   12.53   2
   9  11  -6   33.95   15.49   3
   9 -11  -6   33.52   12.22   2
   9 -11   6   18.90   14.78   2
  -9 -11  -6   21.81   10.93   3
  -9  11  -6   44.52   16.38   4
  -9 -11   6   34.94   11.39   5
   0 -12   6  398.44   43.72   2
   0 -12   6  320.94   33.39   5
   0  12   6  305.57   32.56   4
   0 -12  -6  374.04   27.70   5
   0  12  -6  313.59   26.06   3
   0 -12  -6  301.60   31.97   3
   0 -12  -6  374.58   30.38   2
   0  12  -6  321.41   31.27   4
  -2 -12   6 1212.79   61.10   5
   2 -12  -6 1140.02   56.57   2
  -2  12   6 1206.58   59.91   4
  -2 -12  -6 1155.70   58.74   2
  -2 -12  -6 1071.85   49.90   5
  -2 -12   6 1088.38   71.46   2
   2 -12  -6 1140.76   57.95   3
   2 -12  -6 1130.18   56.02   5
   2  12   6 1182.09   60.96   4
  -2  12  -6 1199.61   60.35   4
   2 -12   6 1425.81   83.79   2
  -2 -12  -6 1027.69   58.37   3
   2  12  -6 1246.95   55.53   4
   2  12  -6 1133.35   58.10   3
   4 -12  -6  325.42   33.15   3
  -4 -12  -6  186.83   27.48   3
  -4 -12   6  235.05   40.29   2
   4 -12   6  245.41   41.03   2
   4  12   6  241.04   30.60   4
   4  12  -6  232.30   30.80   3
  -4 -12   6  268.21   30.31   5
  -4 -12  -6  271.50   20.54   5
   4 -12  -6  263.45   29.41   2
  -4  12  -6  248.24   31.28   4
  -4  12   6  211.29   27.72   4
  -6 -12  -6  713.21   33.07   5
  -6  12   6  696.71   45.84   4
   6 -12   6  606.62   60.41   2
   6  12  -6  740.36   51.34   3
   6  12   6  837.10   50.83   4
  -6 -12   6  692.73   45.51   5
  -6 -12   6  699.80   64.86   2
   6 -12  -6  674.87   45.65   2
  -6  12  -6  722.61   48.89   4
  -8 -12  -6  156.46   12.35   5
   8  12  -6  166.05   29.57   3
  -8 -12   6  179.33   35.44   2
   8 -12   6  137.26   31.90   2
  -8  12  -6  125.35   23.95   4
  -8 -12  -6  163.59   27.59   3
  -8 -12   6  125.07   20.88   5
   8 -12  -6  156.56   26.39   2
   1  13  -6  175.69   24.20   3
  -1  13  -6  180.65   26.01   4
   1 -13   6  140.41   28.51   2
   1 -13  -6  161.82   24.38   3
  -1 -13  -6  188.15   27.07   3
   1  13   6  143.53   23.67   4
   1 -13  -6  160.89   22.95   5
   1 -13  -6  191.53   26.18   2
  -1 -13   6  174.03   25.26   5
  -1 -13  -6  137.65   19.65   5
  -1  13   6  131.35   21.84   4
  -1 -13  -6  163.49   24.73   2
   1  13  -6  160.63   23.15   4
  -1 -13   6  149.73   28.80   2
  -1  13  -6  139.77   19.96   3
   3 -13  -6  159.47   25.11   3
   3 -13  -6  183.08   25.72   2
   3 -13  -6  168.36   24.66   5
  -3 -13   6  180.35   25.61   5
   3 -13   6  184.73   35.46   2
  -3  13   6  175.02   25.92   4
  -3 -13   6  130.29   29.50   2
  -3  13  -6  182.85   27.52   4
   3  13   6  169.80   25.88   4
  -3 -13  -6  252.11   32.77   3
  -3 -13  -6  156.45   19.11   5
   3  13  -6  159.55   24.56   3
  -5 -13  -6   75.51   12.68   5
  -5  13  -6   62.42   16.08   4
  -5 -13   6   40.97   17.76   2
  -5 -13  -6   74.18   17.59   3
   5  13  -6  120.29   22.97   3
   5  13   6   68.07   17.08   4
  -5 -13   6  111.73   19.72   5
   5 -13   6   58.34   19.93   2
  -5  13   6   70.51   15.65   4
   5 -13  -6   74.76   17.38   2
   7  13  -6   78.80   19.60   3
   7  13   6  102.50   22.59   4
   7 -13   6   67.17   24.25   2
  -7 -13   6   84.21   18.64   5
  -7  13  -6   67.05   17.21   4
  -7 -13   6   81.27   26.61   2
  -7 -13  -6   55.80   15.84   3
  -7  13   6   95.06   19.69   4
  -7 -13  -6   87.91   11.94   5
   7 -13  -6   44.06   14.25   2
   0 -14  -6  658.63   41.69   5
   0 -14   6  660.98   45.16   5
   0  14  -6  608.62   41.68   4
   0 -14   6  721.97   55.57   2
   0  14   6  689.76   46.88   4
   0  14  -6  663.01   41.67   3
   0 -14  -6  663.98   46.33   3
   0 -14  -6  639.06   44.89   2
   2  14  -6  274.33   29.89   4
  -2 -14  -6  270.75   26.97   5
  -2  14   6  197.06   28.69   4
   2 -14   6  255.79   40.82   2
   2 -14  -6  208.19   27.41   5
  -2  14  -6  287.44   34.33   4
  -2 -14  -6  199.96   29.68   3
   2  14  -6  235.52   30.21   3
   2  14   6  273.73   34.19   4
   2 -14  -6  274.16   31.91   3
   2 -14  -6  247.09   31.28   2
  -2 -14   6  216.24   36.19   2
  -2 -14   6  250.71   30.88   5
   4 -14  -6  595.84   43.57   2
  -4 -14  -6  571.69   44.84   3
  -4 -14   6  629.87   43.56   5
   4  14   6  597.63   45.12   4
  -4 -14   6  560.45   61.67   2
  -4  14  -6  550.86   42.95   4
   4  14  -6  522.98   42.00   3
  -4  14   6  595.92   44.23   4
  -4 -14  -6  581.66   34.32   5
   4 -14   6  572.05   65.56   2
  -6  14  -6  264.08   36.37   4
  -6 -14  -6  239.26   33.56   3
  -6 -14  -6  220.33   21.36   5
  -6 -14   6  237.34   45.04   2
   6 -14  -6  280.99   36.00   2
   6  14  -6  223.08   33.55   3
  -6  14   6  218.54   30.65   4
   6  14   6  254.97   36.14   4
   6 -14   6  177.73   38.78   2
  -6 -14   6  253.53   31.95   5
   8 -14  -6  427.21   46.03   2
  -8 -14  -6  433.97   24.29   5
  -8 -14  -6  337.56   40.82   3
   1 -15  -6   40.36   12.55   5
   1  15   6   50.76   14.66   4
   1 -15  -6   45.97   14.63   3
  -1 -15  -6   34.79   10.48   5
   1  15  -6   40.19   12.38   3
   1 -15   6   73.13   20.50   2
  -1  15  -6   63.03   16.43   4
  -1 -15  -6   44.40   14.60   3
  -1  15   6   14.79   10.47   4
  -1 -15   6   64.66   17.07   5
   1  15  -6   57.15   13.95   4
  -1 -15   6   71.89   19.57   2
   3 -15  -6   43.96   14.92   3
   3 -15   6    5.78   11.55   2
   3  15  -6    2.93    7.02   3
   3 -15  -6   27.44   10.67   2
  -3 -15   6   32.05   11.59   5
  -3  15   6   25.48   10.81   4
  -3 -15  -6   25.23    8.72   5
  -3 -15   6   24.49   14.40   2
  -3  15  -6   39.77   12.98   4
  -3 -15  -6    3.97    7.58   3
   3  15   6   44.63   13.86   4
   5 -15   6   64.60   24.15   2
  -5 -15   6   22.06   10.37   5
   5 -15  -6   53.49   15.55   2
  -5  15   6   32.06   12.08   4
   5  15   6   55.89   17.22   4
  -5 -15  -6   70.69   13.59   5
  -5 -15   6   32.89   15.52   2
  -5 -15  -6   47.31   14.37   3
   5  15  -6   29.87   14.30   3
  -5  15  -6   53.51   16.80   4
  -7  15   6   23.43    9.29   4
   7 -15  -6   14.37   10.83   2
   0  16  -6  192.27   28.01   4
   0  16   6  151.37   27.04   4
   0 -16  -6  239.75   34.58   3
   0 -16   6  189.89   34.06   2
   0 -16  -6  179.74   26.55   5
  -2 -16  -6  880.70   58.36   3
  -2 -16  -6  944.67   52.08   5
   2  16  -6  906.15   56.37   3
  -2 -16   6  932.48   67.08   2
   2 -16  -6  970.49   59.18   3
  -2  16   6  857.07   57.12   4
  -2 -16   6  882.52   55.37   5
   2  16   6  829.94   57.62   4
  -2  16  -6  930.23   57.66   4
   2 -16   6  951.97   71.22   2
  -4 -16   6  134.88   23.77   5
  -4 -16  -6  117.85   18.26   5
  -4  16   6   99.26   21.39   4
  -4 -16   6  143.78   31.73   2
   4 -16   6  197.38   39.91   2
  -4  16  -6  128.72   24.80   4
   4  16  -6  146.09   26.39   3
   4  16   6  194.05   31.76   4
   4 -16  -6  134.57   24.72   2
  -4 -16  -6  159.09   29.50   3
   6  16   6  649.27   58.17   4
   6 -16  -6  606.90   48.96   2
  -6  16   6  651.30   50.12   4
   1 -17   6   39.08   17.14   2
   1  17   6   54.06   16.86   4
   1 -17  -6   24.58   11.94   3
  -1  17   6   33.54   15.14   4
  -1 -17  -6   26.43   12.75   3
   1  17  -6   14.46    9.98   3
   1 -17  -6   10.97   10.33   5
  -1  17  -6   22.33   11.03   4
   1  17  -6   28.64   11.91   4
  -1 -17   6   -0.44    8.93   2
  -1 -17  -6   29.78   11.28   5
  -3  17   6    6.96    7.90   4
  -3 -17   6   -1.77    8.95   2
  -3  17  -6   22.38   13.42   4
   3  17  -6   19.46   10.78   3
   3 -17   6    7.52   13.67   2
  -3 -17   6   27.87   11.94   5
   3  17   6   30.19   15.02   4
  -3 -17  -6   61.21   20.97   3
  -3 -17  -6   32.33   11.89   5
   5  17   6   28.81   16.78   4
   0  18   6  341.94   43.83   4
   0 -18  -6  452.52   47.50   3
   0 -18   6  413.31   51.10   2
   0 -18  -6  494.05   45.23   5
   0  18  -6  456.11   45.18   4
   2  18   6  243.26   36.66   4
   2  18  -6  171.95   27.91   3
  -2 -18  -6  255.44   31.68   5
  -2 -18  -6  239.38   36.16   3
  -2  18  -6  225.23   34.53   4
  -1   0   7  324.56   16.15   4
  -1   0   7  318.74   20.48   5
   1   0   7  278.95   33.76   1
  -1   0  -7  324.29   18.27   3
   1   0   7  339.44   11.42   2
   1   0   7  332.76   18.44   4
   1   0  -7  332.88   19.73   3
  -1   0   7  299.42   34.22   1
  -3   0   7  222.79   25.97   1
   3   0  -7  308.75   17.80   2
  -3   0  -7  303.04   16.61   3
   3   0   7  307.16   31.04   1
  -3   0   7  281.10   20.00   5
  -3   0  -7  297.61   19.38   4
   3   0   7  315.65   14.05   2
  -3   0  -7  305.94   20.52   5
   3   0  -7  284.59   19.76   3
  -3   0   7  298.98   13.06   4
  -5   0   7  166.21   23.04   1
  -5   0   7  177.55   18.64   5
   5   0  -7  194.50   19.90   3
  -5   0  -7  187.42   12.22   3
   5   0  -7  199.15   18.22   2
   5   0   7  158.55   12.30   2
   5   0   7  136.39   22.16   1
  -5   0  -7  179.26   18.88   4
  -7   0   7   91.26   14.90   5
  -7   0   7   55.72   15.08   1
   7   0  -7  111.31   16.62   2
   7   0  -7  114.26   17.65   3
  -7   0  -7  116.25   16.89   4
   7   0   7  107.29   21.31   1
   7   0   7   89.87   13.44   2
   9   0   7   84.09   20.50   1
   9   0  -7   53.63   13.33   2
   9   0  -7   68.31   15.16   3
   9   0   7  107.41   17.48   2
  -9   0   7   92.79   16.20   5
  -9   0   7   48.45   15.68   1
  -9   0  -7   95.81   17.28   4
  11   0   7   23.37   14.85   1
  11   0  -7   13.47    9.43   2
  11   0   7   16.65    9.53   2
 -11   0   7    8.74   10.00   1
 -11   0   7   36.62   12.02   5
   0  -1   7   36.05    8.82   2
   0  -1   7   56.36   10.36   5
   0   1   7   55.46    9.79   5
   0  -1   7   38.82   13.72   1
   0   1   7   58.51    8.54   4
   0   1  -7   54.28    8.80   3
   0   1  -7   45.78    7.00   4
   0   1   7   43.48   14.84   1
   0  -1  -7   48.45    8.76   3
   2  -1  -7   -0.20    2.15   3
   2  -1   7    0.46    4.86   1
  -2  -1  -7    3.18    2.79   3
   2   1   7    1.64    1.09   2
  -2   1  -7    1.78    2.70   4
  -2   1  -7    1.03    2.62   3
   2   1   7    2.12    3.14   4
  -2  -1  -7   -3.94    2.72   5
  -2  -1   7    2.76    3.10   5
   2   1   7   -3.68    4.57   1
   2   1  -7   -1.43    2.23   3
   2   1  -7    0.34    1.61   4
  -2  -1   7    5.25    6.30   1
  -2   1   7   -0.53    1.99   4
  -2   1   7   -1.00    4.27   1
   2  -1   7    0.18    1.55   2
   2   1  -7   18.69    5.50   2
   2  -1  -7   -1.29    1.78   2
  -2   1   7    2.61    3.30   5
   4  -1   7   18.35    4.75   2
  -4   1   7   22.52    4.37   4
  -4   1  -7   28.90    5.48   3
  -4  -1   7   20.65    6.37   5
  -4   1   7   20.64    7.09   5
   4   1   7   16.69    4.25   2
  -4  -1   7   29.63   10.53   1
   4   1  -7   15.17    6.28   2
   4  -1  -7   16.03    5.77   3
  -4  -1  -7   26.79    7.44   4
  -4   1  -7    9.27    4.70   4
   4  -1   7   15.19    8.45   1
  -4  -1  -7   28.78    6.19   3
  -4  -1  -7   29.86    7.17   5
   4  -1  -7   14.17    5.01   2
   4   1   7    9.53    6.14   1
  -4   1   7   16.18    7.68   1
   4   1  -7   21.10    6.58   3
  -6   1   7    3.63    4.57   1
  -6  -1   7    7.42    6.50   1
   6   1  -7    5.98    4.94   3
  -6   1   7    6.78    4.27   5
   6   1   7   13.32    4.79   2
   6   1  -7    3.60    4.37   2
  -6  -1   7    8.99    4.15   5
   6  -1   7   11.79    4.16   2
   6  -1  -7    8.47    5.70   3
  -6  -1  -7    8.64    4.60   4
   6   1   7    0.64    5.45   1
   6  -1  -7    3.29    3.69   2
   6  -1   7    9.52    6.68   1
  -6   1  -7    7.22    4.58   4
   8  -1  -7   14.31    6.68   2
   8  -1  -7   10.84    7.22   3
  -8   1   7    4.31    4.92   5
   8  -1   7    6.58    8.49   1
  -8  -1   7    9.24    6.14   1
  -8   1  -7    8.15    6.29   4
   8  -1   7    9.71    5.63   2
   8   1  -7    6.74    4.86   2
   8   1   7    8.71    7.75   1
  -8  -1   7    9.39    5.39   5
  -8   1   7   14.05    7.29   1
   8   1  -7   13.63    7.57   3
   8   1   7    6.46    4.97   2
  10  -1   7   -0.49    6.26   2
  10  -1  -7    0.98    5.67   2
 -10   1  -7    4.38    6.84   4
 -10  -1   7   14.28    8.88   1
  10   1  -7   -2.44    4.94   2
 -10   1   7   -3.30    4.67   5
 -10  -1   7   -2.93    4.25   5
 -10  -1  -7   -1.98    4.91   4
  10  -1   7    0.37    9.66   1
 -10   1   7   16.43    9.44   1
  10   1   7    6.35    7.06   2
  10   1   7   -3.67    7.14   1
   1   2  -7  378.39   17.72   4
   1  -2   7  348.06   35.44   1
  -1  -2   7  435.21   23.99   2
   1   2  -7  400.28   21.97   3
  -1   2   7  364.69   36.69   1
   1  -2  -7  414.31   23.29   3
   1   2   7  262.28   33.83   1
  -1  -2   7  387.12   23.62   5
  -1   2   7  399.35   22.39   5
   1  -2  -7  417.51   15.04   2
   1  -2   7  424.22   27.94   5
  -1   2   7  399.15   19.72   4
  -1   2  -7  385.55   19.51   3
  -1   2  -7  393.21   20.55   4
   1   2   7  391.90   21.77   4
  -1  -2  -7  402.08   22.26   3
   1  -2   7  398.33   20.90   2
  -1  -2   7  377.81   37.84   1
  -3  -2   7  421.76   32.38   1
   3   2   7  424.20   31.70   1
   3  -2  -7  428.89   24.56   3
  -3  -2  -7  365.21   20.96   3
   3   2   7  391.36   16.18   2
   3  -2  -7  379.25   19.10   2
   3   2   7  369.86   22.82   4
  -3   2  -7  382.63   22.97   4
   3   2  -7  425.84   23.48   2
  -3   2   7  374.38   23.55   5
  -3   2  -7  382.25   17.74   3
  -3   2   7  392.23   18.82   4
  -3   2   7  326.43   27.89   1
  -3  -2  -7  416.77   20.86   5
   3   2  -7  395.48   24.29   3
   3  -2   7  373.74   31.67   1
  -3  -2   7  341.93   22.90   5
   3   2  -7  399.54   14.71   4
   3  -2   7  424.24   19.72   2
   5  -2  -7  171.44   18.67   3
  -5  -2   7  206.19   19.97   5
   5   2  -7  174.99   20.87   3
   5  -2   7  224.63   28.55   1
  -5  -2   7  192.28   25.38   1
  -5   2   7  164.71   18.62   5
  -5  -2  -7  211.59   14.54   5
  -5   2  -7  196.89   19.90   4
  -5  -2  -7  189.63   14.85   3
   5   2   7  183.64   13.24   2
   5   2  -7  201.35   19.93   2
   5  -2   7  171.73   14.20   2
  -5   2   7  161.42   22.92   1
   5  -2  -7  170.36   16.86   2
   5   2   7  194.79   25.61   1
   7  -2   7  187.06   19.25   2
   7  -2  -7  166.22   19.86   2
  -7   2   7  140.53   23.78   1
   7   2   7  179.36   26.31   1
   7  -2   7  138.11   24.31   1
  -7  -2  -7  163.81   19.97   4
   7   2  -7  182.75   23.85   3
  -7   2   7  165.39   20.42   5
   7   2  -7  151.82   20.52   2
  -7   2  -7  165.28   21.38   4
   7   2   7  169.38   17.94   2
  -7  -2   7  188.54   27.21   1
   7  -2  -7  158.48   20.40   3
  -7  -2   7  159.67   19.27   5
   9   2   7   81.93   15.26   2
   9   2   7   89.22   20.87   1
   9  -2   7   79.71   20.15   1
  -9   2   7   69.88   14.72   5
  -9   2   7   59.58   17.13   1
   9  -2  -7   63.55   14.60   2
  -9   2  -7   69.65   15.10   4
  -9  -2   7   98.51   21.09   1
  -9  -2   7   75.00   14.58   5
   9   2  -7   90.21   17.66   2
   9   2  -7  100.06   18.83   3
  -9  -2  -7   86.06   15.65   4
   9  -2   7   87.94   16.15   2
 -11   2   7   37.29   15.12   1
  11   2  -7   41.19   12.42   2
 -11  -2   7   55.35   14.42   5
  11  -2  -7   38.31   12.56   2
  11  -2   7   22.47   15.47   1
 -11  -2   7   45.96   15.96   1
 -11   2   7   43.02   13.29   5
  11  -2   7   24.17   11.85   2
   0   3  -7  121.15   12.40   3
   0   3   7  117.31   23.24   1
   0  -3   7   93.35   16.74   2
   0  -3   7  143.85   23.45   1
   0   3   7  115.47   12.66   4
   0  -3  -7   91.21   12.38   3
   0  -3   7  115.60   16.65   5
   0   3  -7   83.24   10.02   4
  -2   3  -7  370.88   21.85   4
  -2   3  -7  465.34   20.60   3
   2   3   7  470.90   25.32   4
  -2   3   7  472.71   22.30   4
   2   3  -7  452.30   25.40   3
   2  -3   7  394.83   32.54   1
   2  -3   7  427.42   22.72   2
  -2  -3   7  397.04   25.13   5
  -2   3   7  424.93   33.05   1
  -2  -3  -7  492.78   25.14   3
  -2  -3  -7  439.70   18.53   2
  -2   3   7  436.70   24.99   5
   2   3  -7  451.73   18.84   4
  -2  -3  -7  449.01   21.48   5
  -2  -3   7  417.33   34.60   1
   2   3   7  328.06   29.18   1
   2  -3   7  462.58   29.98   5
   2  -3  -7  464.00   25.58   3
  -2  -3   7  453.45   26.16   2
   2  -3  -7  415.78   18.11   2
   4  -3  -7  107.11   12.22   2
  -4  -3  -7  102.70   10.34   5
  -4  -3   7  109.66   14.92   5
  -4   3  -7  113.07    8.18   3
   4  -3   7  101.03   12.41   2
  -4  -3   7   94.58   17.77   1
   4   3   7   92.46   16.62   1
   4   3   7   88.60   13.32   4
  -4   3   7  123.74   11.48   4
  -4   3   7   96.80   17.49   1
   4  -3  -7   87.06   13.34   3
   4  -3   7   81.32   16.92   1
   4   3   7   98.21    9.79   2
  -4  -3  -7   94.83   12.87   3
   4   3  -7   96.26   15.40   3
  -4   3  -7   71.82   12.22   4
  -4   3   7   86.54   13.87   5
   4   3  -7   86.60   13.99   2
   6   3  -7  156.41   21.49   3
  -6  -3   7  149.98   22.74   1
  -6   3   7  133.56   18.04   5
   6  -3  -7  136.40   17.20   2
   6  -3   7  134.31   16.68   2
   6   3  -7  120.04   17.42   2
  -6   3   7  139.04   22.74   1
   6   3   7  115.54   20.42   1
  -6   3  -7  170.76   20.87   4
   6  -3  -7  140.30   18.08   3
  -6  -3  -7  130.46   17.47   4
  -6  -3  -7  147.12   16.04   3
   6  -3   7  115.26   21.38   1
  -6  -3   7  132.66   17.41   5
   6   3   7  132.55   14.59   2
   8  -3   7   51.10   15.22   1
   8   3   7   53.30   11.93   2
  -8   3  -7   70.26   14.77   4
   8  -3   7   55.99   12.41   2
   8  -3  -7   50.48   11.82   3
  -8  -3   7   54.80   11.09   5
   8   3  -7   48.76   14.04   3
  -8  -3  -7   45.76   10.98   4
   8   3   7   53.41   15.29   1
  -8   3   7   68.71   17.66   1
   8   3  -7   51.01   12.37   2
   8  -3  -7   63.72   14.11   2
  -8  -3   7   42.03   13.33   1
  -8   3   7   65.61   13.39   5
  10  -3   7   48.25   15.82   1
  10  -3   7   57.94   14.73   2
  10   3  -7   50.52   14.49   3
 -10   3  -7   40.01   12.40   4
  10   3   7   50.72   17.71   1
  10   3  -7   57.51   14.84   2
 -10  -3   7   42.58   15.02   1
 -10   3   7   49.04   16.91   1
 -10  -3   7   37.12   10.43   5
  10  -3  -7   43.80   14.06   2
 -10   3   7   30.59   10.47   5
  12  -3   7    6.74   12.09   2
  -1  -4   7   58.34   15.93   1
   1  -4  -7   37.16    8.46   3
   1  -4  -7   48.49    5.52   2
  -1  -4   7   57.96   11.97   5
   1   4   7   50.91    9.59   4
   1   4  -7   69.65   11.10   3
   1   4   7   12.55    9.14   1
  -1   4  -7   41.19    7.93   4
  -1  -4  -7   41.01    8.72   3
  -1  -4   7   64.87   14.36   2
  -1   4   7   43.16    8.54   5
   1  -4   7   40.03   10.79   5
   1   4  -7   46.06    7.48   4
   1  -4   7   31.79   10.74   1
  -1   4  -7   55.81    8.81   3
  -1   4   7   40.05   13.96   1
  -1  -4  -7   53.80    4.47   2
  -1   4   7   48.26    8.96   4
   1  -4   7   43.92   10.96   2
  -3   4   7   64.15   14.71   1
   3  -4  -7   73.33    9.54   2
  -3  -4  -7   87.96    9.14   5
   3  -4   7   63.02   11.11   2
   3   4  -7   62.10    6.63   4
  -3  -4   7   51.16   10.45   5
   3   4  -7   72.64   12.98   3
  -3  -4  -7   62.98   10.65   3
  -3   4   7   54.21   10.43   5
   3   4   7   60.06   10.95   4
  -3  -4   7   51.67   11.34   2
  -3   4  -7   63.96   11.09   4
  -3  -4   7   56.48   14.48   1
   3  -4   7   54.40   13.91   1
   3  -4  -7   57.47   10.66   3
  -3   4  -7   76.30    8.16   3
   3   4   7   62.51   13.90   1
  -3  -4  -7   72.18    9.56   2
  -3   4   7   60.45    9.69   4
  -5  -4   7   24.46    9.58   1
  -5  -4   7   25.60    8.04   5
   5  -4  -7   13.20    5.57   2
  -5  -4  -7   17.32    7.34   3
   5  -4   7   24.62    7.09   2
  -5   4   7   18.86    7.17   5
  -5   4  -7   21.23    7.19   4
   5  -4   7   32.60   10.53   1
   5   4   7   14.60    6.09   4
   5   4  -7   17.73    7.31   2
  -5  -4  -7   31.28    6.03   5
  -5   4   7   15.68    7.16   1
   5  -4  -7   30.33    8.34   3
   5   4   7   15.55    6.18   1
   5   4  -7   29.72    9.93   3
   5   4   7   22.70    6.12   2
  -5   4   7   12.67    5.22   4
  -7   4   7   14.31    7.00   5
  -7  -4   7   17.51    6.16   5
   7  -4   7   19.47    7.67   2
   7  -4  -7   21.78    8.29   2
  -7  -4   7   29.90   10.33   1
  -7   4   7   24.68    9.72   1
   7  -4  -7   28.59    9.36   3
   7   4   7   19.34    7.02   2
   7  -4   7   12.73    9.18   1
   7   4   7   24.16   10.17   1
  -7  -4  -7   35.07    9.08   3
  -7  -4  -7   23.16    7.66   4
  -7   4  -7   18.06    8.26   4
   7   4  -7   23.01    8.91   3
   7   4  -7   16.10    7.74   2
  -9   4   7   27.71   10.11   5
   9   4  -7   32.85   10.79   3
   9   4  -7   16.79    7.94   2
  -9  -4   7   12.29    6.42   5
   9  -4  -7   17.41    9.07   2
  -9  -4  -7    5.99    6.94   4
  -9  -4   7    8.95    7.64   1
   9   4   7   29.58   11.22   1
   9  -4   7   16.15    9.61   1
   9  -4   7    2.23    5.82   2
  -9   4   7   24.46   11.71   1
  -9   4  -7   17.18    8.18   4
  11  -4   7   32.63   12.65   1
 -11  -4   7   36.03   11.50   5
 -11   4   7    6.84    8.25   5
 -11   4   7   23.02   11.62   1
 -11  -4   7    2.80    9.05   1
 -11   4  -7   10.45    8.40   4
  11  -4  -7    7.95    7.90   2
 -11  -4  -7   29.07   12.34   1
  11   4  -7   16.80    9.23   2
  11  -4   7    3.74    8.79   2
 -11  -4  -7    8.78    4.15   5
   0   5  -7  120.40   13.36   4
   0  -5   7   93.04   19.09   2
   0  -5   7   87.46   17.39   1
   0  -5  -7  115.63   15.02   3
   0   5   7  113.50   14.36   4
   0  -5  -7   87.87   10.65   5
   0  -5  -7  122.47    8.56   2
   0   5  -7  115.04   13.65   3
   0  -5   7  101.62   17.05   5
   0   5   7   91.77   20.10   1
  -2   5   7  284.87   19.01   4
   2   5  -7  260.72   20.05   3
   2  -5  -7  205.82   19.81   3
  -2   5  -7  256.85   15.70   3
   2  -5   7  272.40   27.42   5
  -2  -5   7  253.66   30.71   1
  -2   5  -7  258.18   18.96   4
  -2  -5  -7  258.32   18.20   2
  -2  -5   7  255.27   23.36   5
  -2   5   7  239.99   18.62   5
  -2   5   7  216.73   27.06   1
   2   5   7  242.78   18.76   4
   2   5  -7  265.92   15.52   4
   2  -5  -7  275.73   15.52   2
  -2  -5  -7  220.85   13.58   5
   2   5   7  253.84   26.15   1
  -2  -5  -7  272.98   15.88   5
   2  -5   7  269.37   27.24   1
  -2  -5  -7  245.88   19.11   3
   2  -5   7  237.19   24.59   2
  -2  -5   7  279.09   27.54   2
  -4  -5  -7   69.69    6.80   5
  -4  -5  -7   75.40   13.01   3
  -4   5  -7   77.07   13.63   4
  -4  -5   7   71.05   12.72   5
  -4  -5  -7   91.25   12.44   2
   4  -5  -7   71.80   11.26   2
  -4  -5   7   85.02   17.65   1
   4   5   7   68.66   12.45   4
   4  -5   7   56.85   14.92   1
   4   5   7   93.00   15.99   1
   4   5  -7   96.67   15.94   3
  -4   5   7   83.03   13.97   5
   4  -5   7   67.66   12.22   2
  -4  -5   7   79.54   14.58   2
  -4   5   7  102.34   18.59   1
   4  -5  -7   67.21   12.14   3
  -4  -5  -7   97.52    8.77   5
  -4   5   7   62.23   10.69   4
   6  -5  -7  120.34   17.68   3
  -6  -5  -7  138.38    9.69   5
  -6  -5  -7  160.48   19.03   3
   6  -5   7  153.60   24.71   1
  -6  -5   7  158.70   18.95   5
  -6  -5   7  113.28   19.99   1
   6   5  -7  164.17   22.73   2
  -6   5   7  100.79   19.88   1
  -6   5  -7  138.32   19.63   4
   6   5  -7  158.32   22.08   3
   6   5   7  134.41   20.93   1
   6  -5   7  141.69   18.96   2
   6  -5  -7  142.26   18.07   2
   6   5   7  142.93   19.32   4
   6   5   7  112.12   14.88   2
  -6   5   7  172.82   21.75   5
   8   5   7   30.54   10.01   2
  -8  -5   7   39.64   10.26   5
  -8   5  -7   34.74   10.75   4
  -8  -5  -7   31.05    9.12   4
  -8   5   7   49.01   15.31   1
  -8  -5   7   28.62   11.24   1
  -8   5   7   33.66   10.29   5
   8   5  -7   52.78   14.55   3
   8   5   7   29.53   11.59   1
   8  -5  -7   38.38   11.28   2
   8  -5   7   33.37   10.23   2
   8  -5   7   24.07   11.94   1
   8   5  -7   24.05   10.49   2
  10   5   7   47.68   15.63   1
  10   5  -7   42.54   13.79   3
  10  -5   7   57.18   14.66   2
  10  -5  -7   49.84   13.87   2
 -10  -5   7   57.81   13.89   5
 -10  -5   7   60.81   16.24   1
  10  -5   7   40.15   16.22   1
 -10   5   7   38.67   15.35   1
 -10   5   7   84.10   18.68   5
  10   5  -7   30.62   13.14   2
 -10   5  -7   59.06   15.68   4
   1  -6  -7  864.20   36.22   5
   1  -6   7  830.56   44.46   1
   1  -6   7  838.13   50.24   2
   1   6  -7  828.63   34.88   4
  -1  -6   7  759.24   42.12   5
  -1  -6  -7  828.65   32.24   2
  -1   6  -7  825.15   35.29   3
  -1  -6   7  790.31   47.19   1
   1   6  -7  839.06   38.74   3
  -1  -6  -7  819.84   39.92   3
   1   6   7  860.60   47.32   1
  -1   6  -7  779.82   37.21   4
  -1   6   7  811.57   51.15   1
   1  -6  -7  763.34   39.26   3
  -1   6   7  818.91   38.19   4
   1   6   7  838.48   39.20   4
   1  -6  -7  863.61   31.56   2
  -1  -6   7  870.71   52.51   2
   1  -6   7  755.89   44.00   5
  -1  -6  -7  784.49   32.34   5
   3   6   7  713.45   39.11   1
  -3   6  -7  681.14   36.59   4
   3   6  -7  732.91   29.84   4
  -3  -6   7  766.33   43.41   2
  -3  -6  -7  726.30   37.82   3
  -3  -6   7  710.80   38.32   5
   3  -6  -7  722.12   32.20   2
   3  -6   7  751.97   41.53   2
   3  -6   7  711.29   41.66   1
   3   6  -7  747.66   39.47   3
  -3  -6   7  708.95   46.02   1
  -3   6  -7  770.27   29.10   3
   3   6   7  708.76   36.70   4
  -3   6   7  709.60   36.45   5
  -3  -6  -7  750.98   38.17   2
  -3   6   7  684.93   35.38   4
   3  -6  -7  711.18   36.61   3
  -3   6   7  733.78   44.14   1
  -3  -6  -7  692.34   27.53   5
   5  -6  -7  474.90   30.93   3
   5  -6  -7  494.63   29.07   2
  -5   6   7  479.34   28.18   4
  -5  -6   7  481.97   36.01   1
   5   6   7  462.03   30.38   4
  -5  -6   7  505.19   35.07   2
  -5  -6  -7  508.81   30.75   3
  -5  -6   7  540.96   31.96   5
  -5   6   7  447.81   34.98   1
  -5  -6  -7  553.52   30.80   2
   5   6  -7  482.43   33.16   3
   5   6   7  450.53   30.73   1
  -5   6   7  506.05   32.41   5
   5  -6   7  426.71   34.27   1
  -5   6  -7  460.38   31.39   4
   5  -6   7  481.29   31.51   2
  -5  -6  -7  474.97   18.09   5
  -7   6   7  344.74   31.86   5
   7  -6   7  321.45   29.89   2
   7   6  -7  311.26   32.80   2
   7   6   7  337.24   25.42   2
   7  -6  -7  348.16   26.93   3
  -7   6   7  301.19   34.93   1
   7   6   7  344.38   29.07   1
  -7   6  -7  313.58   31.91   4
  -7  -6   7  274.14   26.10   5
  -7  -6   7  362.17   36.07   1
   7  -6  -7  324.46   26.27   2
   7   6   7  332.23   26.63   4
   7  -6   7  312.26   36.17   1
  -7  -6  -7  346.66   26.42   3
   7   6  -7  311.88   33.28   3
   9   6   7  223.69   30.80   1
  -9   6   7  133.50   25.84   1
  -9   6   7  202.61   28.12   5
  -9  -6   7  225.52   24.75   5
  -9  -6  -7  217.07   26.16   4
  -9  -6   7  188.33   30.06   1
   9  -6   7  217.44   28.44   2
  -9   6  -7  183.87   27.33   4
   9   6  -7  165.90   27.65   3
   9  -6   7  211.68   33.98   1
   9  -6  -7  155.69   23.66   2
 -11  -6  -7  101.85   22.22   1
 -11  -6   7  117.01   19.74   5
  11   6  -7   92.87   21.68   2
  11  -6   7   83.48   20.69   2
 -11   6  -7  108.98   22.77   5
  11  -6  -7  131.10   23.50   2
 -11   6  -7   77.20   18.51   4
 -11   6   7   90.97   22.46   1
 -11  -6   7  150.91   28.45   1
   0  -7  -7  171.54   14.01   5
   0  -7   7  174.17   23.22   5
   0   7   7  181.09   20.15   4
   0   7  -7  198.58   18.39   3
   0  -7  -7  152.58   18.79   3
   0  -7   7  155.32   26.57   2
   0  -7   7  160.78   21.07   1
   0   7   7  166.35   23.95   1
   0  -7  -7  179.88   13.73   2
   0   7  -7  165.88   17.57   4
   2  -7  -7  143.06   18.12   3
  -2   7  -7  154.39   14.49   3
  -2  -7  -7  143.40   18.17   2
   2  -7   7  135.74   21.12   5
  -2   7   7  184.53   25.64   1
   2  -7   7  148.61   20.35   1
  -2  -7   7  159.35   24.69   1
  -2   7   7  180.01   20.06   4
   2  -7  -7  135.69   16.01   5
   2   7  -7  159.11   19.22   3
   2  -7   7  139.14   24.43   2
  -2  -7   7  125.34   19.68   5
   2   7  -7  134.87   14.44   4
   2   7   7  144.93   18.86   4
  -2  -7  -7  152.02   19.33   3
  -2   7  -7  130.87   17.86   4
   2   7   7  137.03   17.75   1
  -2  -7   7  146.08   25.14   2
  -2  -7  -7  162.92   12.66   5
   2  -7  -7  154.19   14.70   2
  -4  -7   7  116.82   17.63   5
  -4  -7   7  126.47   22.08   1
  -4   7  -7  140.87   19.76   4
   4   7  -7   99.12   16.83   3
   4  -7   7  139.75   21.76   1
  -4  -7  -7  143.37   10.20   5
  -4  -7  -7  146.00   20.05   2
  -4   7   7  110.68   19.76   1
  -4  -7  -7  152.55   19.85   3
  -4   7   7  118.71   17.12   4
   4  -7  -7  159.73   17.47   2
   4  -7   7  179.30   24.16   2
   4   7   7  143.08   18.24   1
   4  -7  -7  121.21   17.92   3
  -4  -7   7  130.74   21.69   2
   4   7   7  133.09   18.04   4
  -6  -7   7   66.74   16.09   1
  -6  -7  -7   61.52   13.72   3
  -6   7   7   55.03   14.45   1
   6   7  -7   62.09   14.92   3
  -6  -7  -7   60.52    5.87   5
   6   7   7   68.36   13.99   1
   6  -7   7   78.46   17.43   1
  -6  -7   7   68.27   13.66   5
   6  -7   7   75.84   15.66   2
   6   7   7   39.84   11.02   4
  -6   7  -7   56.90   13.63   4
   6  -7  -7   47.92   11.50   2
  -6  -7   7   61.71   15.04   2
  -6   7   7   42.55   10.87   4
   6  -7  -7   73.19   14.47   3
  -8   7  -7   53.69   15.34   4
   8   7   7   59.13   13.38   4
  -8   7   7   77.28   18.45   1
   8  -7   7   50.73   13.13   2
   8   7  -7   64.33   17.21   3
   8  -7   7   67.44   18.06   1
  -8  -7   7   79.87   17.65   1
   8  -7  -7   55.08   13.97   2
  -8  -7   7   64.80   16.91   2
  -8  -7  -7   60.55   13.93   3
  -8  -7   7   35.86   10.31   5
   8   7   7   92.44   18.63   1
  10  -7  -7   20.98   10.95   2
  10   7  -7   23.63   12.05   3
  10  -7   7   10.91    9.72   2
 -10   7  -7   21.07   11.45   4
 -10  -7   7   17.15    9.37   1
  10  -7   7   22.51   12.47   1
 -10  -7   7    7.93    6.79   5
 -10   7   7   12.62    9.76   1
  -1  -8  -7    9.58    4.24   5
   1  -8   7   -3.51    5.21   2
   1  -8   7   19.45    8.08   5
   1  -8   7    6.75    6.03   1
   1  -8  -7   10.90    6.47   3
  -1   8  -7   11.49    5.97   3
  -1  -8   7   -4.99    5.82   2
  -1   8   7   23.05   10.36   1
   1   8   7    8.23    5.83   4
   1   8  -7    9.04    5.29   4
   1   8  -7    5.32    5.16   3
  -1  -8   7    2.09    5.00   1
  -1  -8  -7    5.49    3.96   3
  -1  -8  -7   10.07    6.18   2
   1   8   7    6.06    5.08   1
  -1   8   7    6.41    4.81   4
   1  -8  -7    0.14    2.98   5
  -1  -8   7    6.11    5.63   5
   1  -8  -7    5.72    4.81   2
  -1   8  -7    6.71    4.80   4
   3   8   7    0.08    3.45   1
  -3  -8  -7    3.86    2.67   5
  -3  -8  -7    2.02    3.87   3
   3  -8  -7   -3.59    4.05   2
   3  -8   7    1.02    5.95   2
   3   8  -7    3.02    4.19   3
   3  -8  -7    2.80    3.44   5
  -3  -8  -7   -0.17    7.55   2
  -3  -8   7    4.39    4.33   5
   3  -8  -7    7.72    5.65   3
  -3   8   7   -8.89    4.42   1
  -3   8   7    2.10    3.92   4
   3   8   7    6.86    4.65   4
  -3   8  -7    5.49    4.86   4
  -3  -8   7   -1.41    5.69   2
  -3  -8   7    6.08    8.24   1
   3  -8   7    1.58    7.10   1
  -5  -8   7    2.63    4.52   5
   5  -8  -7    7.61    6.43   3
  -5   8   7   12.08    5.70   4
  -5   8  -7    3.34    4.58   4
  -5  -8  -7    4.16    5.07   3
   5   8   7   19.82    6.98   1
   5  -8  -7   11.73    5.62   2
  -5   8   7   -0.06    4.97   1
  -5  -8  -7    5.41    2.59   5
   5  -8   7    6.81    6.62   1
  -5  -8   7   -8.49    4.52   2
  -5  -8   7   10.15    8.14   1
   5   8   7    9.16    5.93   4
   5  -8   7    9.52    7.42   2
   5   8  -7   -4.82    4.96   3
  -7  -8   7    4.64    6.13   1
  -7  -8   7    5.18    6.01   2
   7  -8  -7   -4.42    5.49   2
   7  -8   7    8.41    7.27   2
  -7  -8  -7    0.11    5.02   3
  -7   8   7    2.00    6.55   1
   7   8  -7    5.55    5.32   3
  -7   8  -7   -2.90    4.34   4
   7   8   7    0.30    4.88   4
  -7  -8  -7    0.67    2.07   5
   7  -8   7    7.28    6.87   1
  -7  -8   7   -0.80    4.10   5
  -9   8  -7   -4.22    5.81   4
  -9   8   7   -1.14    7.62   1
   9  -8  -7    0.17    5.10   2
   9  -8   7    1.74    8.82   1
  -9  -8   7    8.66    9.13   2
   9   8  -7    8.64    9.98   3
  -9  -8   7    2.70    5.63   5
   9  -8   7   -0.28    8.49   2
 -11   8  -7   15.83    9.14   4
  11   8  -7   21.85   12.38   3
   0   9  -7  113.27   16.69   3
   0  -9  -7  118.53   16.07   2
   0  -9  -7  107.90   15.01   5
   0   9   7  110.77   17.12   1
   0  -9   7  133.36   21.69   5
   0  -9   7  136.54   24.89   2
   0  -9   7  130.16   16.62   1
   0   9   7   86.97   15.64   4
   0  -9  -7   84.71   15.64   3
   0   9  -7  108.06   16.41   4
   2  -9  -7   10.40    6.23   2
   2   9   7    3.12    4.66   4
  -2  -9  -7   14.14    4.86   5
   2  -9  -7   12.78    5.89   5
  -2   9  -7    8.13    5.33   4
  -2   9   7   22.06    8.43   4
  -2   9   7    0.50    6.53   1
   2  -9   7    5.02    6.51   1
   2  -9   7   24.70   13.09   2
   2  -9  -7   15.87    6.72   3
  -2  -9   7    6.31    8.79   2
  -2  -9  -7    2.64    4.31   3
  -2  -9   7    3.68    4.87   5
  -2   9  -7   13.90    6.07   3
  -2  -9  -7   11.13    7.85   2
   2   9  -7   11.28    6.42   3
   2   9  -7   12.02    5.41   4
  -2  -9   7   17.43    7.90   1
  -4  -9   7   55.06   13.71   5
  -4  -9   7  103.46   22.29   2
   4   9   7   86.45   15.65   4
  -4   9   7   97.79   16.48   4
   4  -9   7   74.92   19.71   2
  -4   9  -7   65.13   14.43   4
  -4  -9  -7   77.85   15.62   3
   4  -9  -7   70.13   14.05   5
   4  -9  -7   75.18   13.49   2
   4  -9  -7   80.49   15.31   3
  -4   9   7   69.15   16.31   1
   4  -9   7   52.96   12.78   1
   4   9  -7   93.63   18.04   3
  -4  -9  -7   59.55    8.91   5
  -6  -9   7    8.49    5.53   5
  -6  -9  -7   -1.91    2.17   5
   6  -9  -7   -3.32    6.07   3
  -6   9  -7   -0.70    5.61   4
   6  -9  -7    4.86    5.80   2
  -6  -9  -7    4.33    5.23   3
  -6   9   7   -2.68    5.84   1
  -6  -9   7   -6.19    5.30   2
   6   9   7   -4.98    4.01   4
   6  -9   7   -9.65    4.14   1
  -6   9   7    6.63    5.27   4
   6  -9   7    1.54    5.96   2
   6   9  -7   -7.04    3.66   3
   8  -9   7   29.67   12.64   2
  -8  -9   7    9.82    6.52   5
  -8  -9  -7   17.87    9.50   3
   8   9   7   15.58    8.85   4
   8  -9  -7   20.80    9.11   2
  -8   9   7   36.95   13.00   1
  -8  -9   7   25.11   11.92   2
  -8   9  -7   19.38    9.70   4
   8   9  -7   48.29   15.18   3
   8  -9   7   19.04   11.16   1
 -10  -9   7   -7.29    5.69   5
 -10   9  -7    1.05    7.81   4
  10  -9   7   12.53   11.43   2
  10  -9  -7   -3.16    7.24   2
 -10  -9   7    2.13   10.66   2
  10   9  -7   10.56   10.79   3
 -10   9   7    3.30   10.02   1
  -1 -10  -7  417.51   29.68   2
   1 -10  -7  487.90   30.75   2
  -1  10  -7  475.86   32.80   4
   1  10   7  460.36   32.85   4
  -1  10   7  433.62   31.70   4
  -1 -10  -7  431.27   32.57   3
  -1  10  -7  486.79   30.00   3
  -1 -10   7  450.73   34.71   5
   1 -10   7  482.43   36.32   5
   1 -10  -7  487.02   32.88   3
   1  10  -7  421.19   30.36   3
   1 -10  -7  504.12   30.66   5
   1  10  -7  446.93   29.26   4
  -1 -10   7  407.94   44.79   2
  -1 -10  -7  444.41   27.54   5
   1 -10   7  534.95   50.18   2
  -3 -10   7  398.82   32.20   5
  -3 -10   7  295.34   41.67   2
  -3 -10  -7  413.02   23.67   5
   3 -10  -7  439.20   30.78   5
   3  10   7  400.35   31.07   4
  -3 -10  -7  383.57   31.14   3
   3 -10  -7  445.34   28.56   2
   3 -10   7  410.00   29.38   1
   3  10  -7  398.73   31.76   3
  -3  10   7  384.92   29.51   4
   3 -10   7  394.64   46.66   2
  -3  10  -7  419.27   31.25   4
   3 -10  -7  451.70   32.09   3
   5  10   7  291.56   31.61   4
   5 -10   7  286.84   29.55   1
  -5 -10  -7  273.92   31.26   3
  -5  10   7  292.06   29.31   4
  -5  10  -7  247.14   29.68   4
  -5 -10   7  302.22   31.69   5
   5  10  -7  261.38   32.15   3
  -5  10   7  303.33   33.35   1
   5 -10  -7  269.49   30.20   3
  -5 -10   7  247.84   36.55   2
  -5 -10  -7  271.96   17.36   5
   5 -10  -7  282.97   27.39   2
   5 -10   7  300.78   39.97   2
  -7 -10   7  148.21   27.73   2
  -7 -10  -7  176.76   25.83   3
   7 -10  -7  204.56   26.83   2
  -7 -10  -7  175.22   11.64   5
  -7  10   7  219.56   32.16   1
  -7 -10   7  234.03   28.13   5
   7  10   7  177.02   26.43   4
   7 -10   7  191.61   30.70   2
   7 -10   7  149.74   24.80   1
  -7  10  -7  188.64   27.63   4
   7  10  -7  208.13   31.08   3
  -9  10  -7  105.09   21.85   4
   9  10  -7  136.14   26.44   3
  -9  10   7  173.99   29.91   1
  -9 -10   7  106.32   25.88   2
   9 -10   7  149.41   28.84   2
   9 -10   7   99.85   22.10   1
   9 -10  -7  139.92   24.51   2
  -9 -10   7  179.07   24.87   5
   0  11  -7    8.92    6.80   4
   0 -11  -7   13.52    7.12   3
   0 -11   7    5.55    6.67   5
   0 -11  -7   20.29    9.31   2
   0  11   7   14.35    7.09   4
   0  11  -7    7.01    5.18   3
   0 -11  -7    7.16    4.88   5
   0 -11   7   -2.72    6.89   2
  -2  11  -7    6.83    5.48   4
   2 -11   7   -0.64    7.79   2
   2 -11  -7    2.69    4.17   5
   2 -11  -7   -0.73    5.82   3
  -2 -11   7   18.89    8.05   5
   2  11  -7    4.22    5.23   3
  -2 -11  -7   -2.50    2.50   5
  -2 -11   7   -1.02    6.31   2
   2 -11  -7    4.21    4.83   2
  -2  11   7   11.17    5.85   4
   2  11   7    1.25    4.15   4
  -2 -11  -7    8.97    7.13   3
   2  11  -7   -0.37    4.82   4
  -4 -11  -7   18.52    9.57   3
   4  11  -7   -0.02    4.47   3
  -4 -11  -7   11.88    5.14   5
  -4  11   7    6.67    6.36   4
  -4 -11   7   15.73    8.17   5
  -4  11  -7    8.51    6.29   4
   4 -11   7   -6.03    8.15   2
  -4 -11   7    5.83    9.12   2
   4 -11  -7    1.97    4.28   2
   4  11   7   23.39   10.48   4
   4 -11  -7    1.62    5.67   3
  -6 -11   7   -1.98    4.91   5
  -6 -11  -7    2.88    5.55   3
  -6 -11   7  -10.80    5.82   2
   6  11   7   -7.30    4.98   4
   6  11  -7    5.80    7.39   3
   6 -11   7   12.43    8.80   2
   6 -11  -7    9.26    6.25   2
  -6  11   7    7.74    5.28   4
  -6  11  -7    2.59    4.93   4
  -6 -11  -7    5.24    3.63   5
  -8  11  -7    9.08    8.25   4
  -8 -11   7   20.10    8.86   5
  -8 -11  -7   10.78    8.97   3
  -8 -11  -7    8.04    3.97   5
   8  11   7    5.22    8.17   4
   8 -11  -7    1.96    7.21   2
   8  11  -7   15.65   12.06   3
  -8 -11   7   11.73   11.49   2
   8 -11   7   -8.56    8.71   2
   1  12  -7   12.16    7.08   3
  -1  12  -7   11.06    6.51   3
   1  12  -7   18.96    7.83   4
  -1 -12  -7   46.78   11.45   5
  -1 -12  -7   42.31   12.22   3
  -1  12   7   27.54   10.13   4
   1 -12   7   73.86   20.02   2
   1 -12  -7   23.81    8.74   2
  -1 -12   7   16.82    8.38   5
   1  12   7   22.38    9.61   4
  -1  12  -7    9.25    6.19   4
   1 -12  -7   21.70    7.95   3
  -1 -12   7   28.57   13.08   2
   1 -12  -7   22.16    8.10   5
  -3 -12   7   39.16   15.79   2
  -3  12   7   22.71    9.21   4
   3  12   7   33.14   10.95   4
   3 -12   7   15.16   10.89   2
   3 -12  -7   33.21    9.74   5
   3  12  -7   28.37   10.26   3
  -3 -12   7   36.13   11.38   5
  -3  12  -7   43.17   12.48   4
   3 -12  -7   38.81   11.37   2
  -3 -12  -7   31.43    8.76   5
  -3 -12  -7   19.85    8.04   3
   3 -12  -7   26.81   10.63   3
  -5  12   7    2.89    6.96   4
   5  12   7    3.10    5.22   4
  -5 -12   7    9.75   10.95   2
  -5 -12  -7   11.96    5.49   5
  -5 -12   7   33.27   10.82   5
   5 -12   7   25.80   12.94   2
   5 -12  -7   30.94   11.11   2
  -5 -12  -7   24.46   10.42   3
  -5  12  -7    1.34    6.65   4
   5  12  -7   25.42   10.69   3
  -7 -12  -7   31.55   11.92   3
   7  12  -7   14.50    9.77   3
  -7  12   7   18.80    9.12   4
   7 -12  -7   15.22    8.78   2
   7  12   7   14.86    9.05   4
  -7 -12   7   11.39   10.26   2
  -7 -12   7   12.27    8.70   5
  -7 -12  -7   25.40    6.20   5
  -7  12  -7   19.89   11.72   4
   7 -12   7   11.00   14.19   2
   9 -12   7   20.96   15.70   2
  -9 -12  -7    8.00    4.04   5
   9 -12  -7    1.46    7.17   2
  -9 -12  -7   18.51    9.93   3
   0  13   7    6.16    5.92   4
   0  13  -7   -2.36    4.54   3
   0 -13   7   -5.15    5.72   5
   0 -13   7    0.99    7.32   2
   0 -13  -7   -4.59    4.96   3
   0  13  -7    4.12    6.16   4
   0 -13  -7    1.45    4.92   5
  -2 -13   7   -8.92    7.27   2
   2 -13  -7    1.40    5.38   3
  -2  13  -7   -5.64    4.54   4
   2  13  -7    5.95    6.18   3
  -2 -13  -7    5.15    6.61   3
   2  13   7   -3.90    5.63   4
   2 -13   7   11.34   11.37   2
  -2 -13  -7    0.92    3.83   5
   2 -13  -7   10.25    5.82   5
  -2 -13   7   10.62    7.20   5
  -2  13   7   -0.66    5.23   4
   4 -13   7  -12.70    6.89   2
   4  13   7   -6.88    5.12   4
  -4 -13  -7   -0.73    4.00   5
  -4  13   7   -3.43    5.61   4
  -4 -13   7    1.48    5.50   5
  -4  13  -7    9.64    7.13   4
   4  13  -7    4.43    5.30   3
  -4 -13   7   12.18   11.24   2
  -4 -13  -7    4.53    5.61   3
   4 -13  -7    6.89    7.26   2
   4 -13  -7  -12.10    7.00   3
  -6 -13  -7    1.09    6.57   3
  -6 -13  -7    1.40    4.10   5
  -6  13  -7    2.69    7.41   4
   6 -13  -7   -0.73    6.20   2
   6  13  -7    7.92    7.24   3
  -6 -13   7  -12.89    4.89   5
  -6  13   7    6.38    6.55   4
  -6 -13   7   10.18   11.29   2
   6 -13   7   -2.75   12.06   2
   6  13   7   -3.77    8.36   4
  -8 -13  -7   -0.16    3.62   5
  -8 -13   7    9.90   12.95   2
  -8  13  -7    6.81    8.16   4
   8 -13  -7   12.83    8.58   2
  -8 -13  -7   -2.77    6.73   3
   8  13  -7  -12.01    8.62   3
  -8 -13   7   -7.79    7.68   5
   8 -13   7  -10.39   12.68   2
  -1 -14  -7   59.77   15.83   3
  -1  14  -7   49.58   14.51   4
   1  14  -7   57.93   14.73   3
  -1 -14   7   44.57   16.23   2
  -1 -14   7   52.76   13.64   5
   1 -14  -7   16.62    8.95   3
   1  14   7   23.42    9.70   4
  -1  14   7   44.60   13.72   4
  -1 -14  -7   39.60   11.38   5
   1 -14  -7   66.74   14.76   5
   1  14  -7   52.01   13.75   4
   1 -14   7   58.15   18.19   2
   3  14   7   57.70   15.71   4
  -3 -14  -7   59.51   12.36   5
   3  14  -7   58.26   15.59   3
  -3 -14   7   57.70   20.19   2
  -3 -14   7   63.46   15.42   5
  -3  14  -7   62.74   16.31   4
   3 -14  -7   65.44   17.94   3
  -3  14   7   47.45   14.80   4
   3 -14   7   57.95   20.07   2
  -3 -14  -7   48.05   14.85   3
   5 -14   7   39.46   18.86   2
  -5 -14   7   14.37    9.96   5
  -5 -14  -7   12.89    8.50   3
   5  14   7   20.77   11.47   4
  -5 -14   7   18.61   13.84   2
   5  14  -7   26.46   12.03   3
  -5  14  -7   22.77   11.90   4
   5 -14  -7   17.80    9.12   2
  -5 -14  -7   22.64    7.51   5
  -5  14   7   38.80   13.32   4
   7 -14   7   28.48   19.61   2
  -7 -14   7   30.73   12.42   5
  -7  14  -7   47.88   14.63   4
   7  14   7   34.58   16.07   4
   7 -14  -7   13.73    9.22   2
  -7 -14   7   13.55   17.95   2
  -7 -14  -7   19.40    6.52   5
  -7  14   7   13.00   11.16   4
   7  14  -7   11.06    8.99   3
  -7 -14  -7   45.73   13.90   3
   0 -15  -7   -0.55    6.06   3
   0 -15  -7    9.56    7.11   5
   0  15   7    2.58    7.36   4
   0 -15   7    1.62    8.03   2
   0  15  -7   12.30    6.94   4
   2 -15   7  -10.10    8.02   2
  -2  15   7    5.00    6.97   4
  -2  15  -7  -14.84    5.41   4
  -2 -15   7    3.78    7.28   5
  -2 -15  -7    4.01    7.39   3
  -2 -15   7   24.95   15.68   2
   2  15  -7   14.14    8.92   3
  -2 -15  -7    6.52    6.49   5
   2 -15  -7    2.47    7.48   3
   2 -15  -7   23.58    9.80   5
   2  15   7   11.09    9.40   4
  -4  15  -7    9.29    9.67   4
   4  15   7   -6.22    6.93   4
  -4 -15  -7    6.48    5.23   5
   4 -15   7   12.16   12.24   2
  -4 -15   7   16.06    7.31   5
   4  15  -7    9.03    8.21   3
  -4 -15  -7    1.02    6.86   3
  -4  15   7  -11.15    5.37   4
  -4 -15   7   12.31   12.94   2
   6  15  -7    1.66    6.71   3
  -6  15  -7  -13.45    7.59   4
  -6 -15   7   11.42    9.43   5
  -6  15   7    2.72    6.95   4
   6 -15   7   50.49   20.71   2
  -6 -15  -7    3.78    7.10   3
  -6 -15  -7   14.74    5.83   5
  -6 -15   7   -2.31   13.78   2
   6  15   7   -0.82    9.13   4
  -1  16  -7   84.70   19.84   4
  -1  16   7  100.09   20.71   4
   1 -16  -7   91.65   20.96   3
   1 -16   7  101.19   26.85   2
   1  16  -7   85.00   18.77   3
  -1 -16   7  100.43   24.09   2
   1  16   7   78.38   19.60   4
   1 -16  -7  106.06   20.84   5
  -1 -16  -7   84.56   20.17   3
  -1 -16  -7   88.63   17.92   5
  -3 -16   7   96.54   26.02   2
  -3 -16   7   61.07   15.92   5
   3  16  -7   91.40   19.90   3
   3  16   7   85.30   21.82   4
  -3 -16  -7   85.68   21.05   3
  -3 -16  -7   85.64   16.56   5
   3 -16  -7  144.03   26.42   3
  -3  16   7   82.09   20.37   4
  -3  16  -7  119.57   23.62   4
   3 -16   7  107.45   27.73   2
  -5 -16   7   43.35   21.56   2
   5  16  -7   60.15   17.02   3
  -5 -16   7   77.75   19.42   5
  -5  16   7   48.16   15.81   4
   5 -16   7    0.20   12.36   2
  -5  16  -7   54.47   17.11   4
   5  16   7   47.04   18.37   4
  -5 -16  -7   53.90   15.42   3
  -5 -16  -7   44.41    9.85   5
   0 -17  -7   36.26   12.65   5
   0 -17  -7   20.85   12.59   3
   0  17  -7   15.40   11.12   4
   0 -17   7   18.26   14.04   2
   0  17   7   27.23   13.25   4
   2  17  -7   -8.27    7.82   3
  -2 -17  -7   32.53   13.23   3
  -2 -17   7   15.49   13.27   2
  -2 -17  -7   10.77    8.90   5
   2  17   7    8.76   10.30   4
  -2  17   7   -3.12    7.08   4
   2 -17  -7   20.75   13.68   3
  -2  17  -7   21.96   11.63   4
   2 -17   7   11.03   13.03   2
  -4 -17   7   23.01   12.15   5
   4  17  -7    8.45    8.05   3
   4  17   7    7.08   11.75   4
  -1 -18  -7    1.32   10.31   3
  -1  18  -7    3.42   10.25   4
  -1 -18  -7   18.32   11.63   5
   1 -18  -7   -0.41   10.41   3
   1 -18  -7   -0.35    9.26   5
  -3 -18   7    7.81    9.51   5
   0   0   8 3815.02  111.75   5
   0   0  -8 3652.05  107.14   3
   0   0   8 3482.22  140.16   1
   0   0   8 3550.86  100.17   2
   0   0   8 3639.18  102.44   4
   2   0   8  742.30   51.87   1
  -2   0   8  855.35   54.41   1
   2   0  -8  820.27   37.82   3
  -2   0   8  876.53   30.50   4
   2   0  -8  835.95   32.33   2
   2   0   8  870.05   25.74   2
  -2   0   8  856.59   39.01   5
  -2   0  -8  852.83   34.49   3
  -4   0  -8 2554.87   82.43   4
   4   0   8 2529.76   71.10   2
  -4   0  -8 2449.98   74.03   3
  -4   0   8 2328.73   97.73   1
   4   0  -8 2354.27   83.94   3
   4   0   8 2288.13  101.52   1
  -4   0   8 2553.86   84.29   5
   4   0  -8 2447.78   78.33   2
  -6   0   8  352.08   25.41   5
   6   0  -8  340.16   23.25   2
   6   0   8  312.59   20.22   2
   6   0  -8  358.44   26.67   3
  -6   0   8  357.73   36.40   1
   6   0   8  355.49   37.12   1
  -6   0  -8  339.03   25.24   4
  -8   0   8  990.81   50.41   5
   8   0  -8  987.35   49.44   2
   8   0   8  976.37   46.12   2
   8   0   8  995.70   61.70   1
  -8   0   8  933.27   60.85   1
  -8   0  -8  950.47   49.35   4
   8   0  -8  998.32   52.31   3
  10   0   8  223.60   37.24   1
 -10   0  -8  207.85   27.10   4
  10   0  -8  270.94   32.50   2
 -10   0   8  241.29   28.47   5
 -10   0   8  230.58   36.46   1
  -1  -1   8  124.44   24.83   1
  -1   1   8   92.06   22.08   1
   1  -1  -8  101.26   13.44   3
  -1  -1  -8  107.69   12.55   3
   1  -1   8  105.28    7.78   2
   1   1   8  106.16   12.62   4
   1   1   8   86.17   20.71   1
  -1  -1   8  111.96   12.52   2
   1   1  -8  123.47   13.90   3
  -1  -1   8  106.33   14.65   5
   1  -1  -8  130.93    8.52   2
   1  -1   8   76.04   18.35   1
  -1   1  -8  116.76   12.14   3
  -1   1   8  122.34   14.51   5
  -1   1  -8  109.97   11.97   4
  -1   1   8  116.97   11.31   4
   1   1  -8  104.47    9.76   4
   1  -1   8  156.85   19.79   5
   3   1  -8   13.60    5.35   3
   3  -1   8   18.86    9.97   1
   3  -1  -8   18.77    5.24   2
  -3  -1  -8   12.80    5.19   3
   3  -1  -8   12.76    5.16   3
   3   1   8   13.61    5.81   4
   3   1  -8   17.53    6.20   2
   3   1  -8   12.99    3.11   4
   3   1   8   19.45    8.52   1
  -3   1  -8   13.58    5.31   4
   3   1   8   21.09    3.54   2
  -3  -1   8   21.92   10.39   1
   3  -1   8   22.28    4.61   2
  -3   1   8   17.93    6.37   5
  -3   1   8   19.36    8.73   1
  -3  -1   8   21.10    6.73   5
  -3   1   8   16.67    4.32   4
  -3   1  -8   18.09    5.30   3
  -5  -1  -8  111.57   15.92   4
   5  -1   8  106.53   11.73   2
   5   1   8   95.91   10.65   2
   5   1   8   89.70   19.40   1
   5  -1  -8  102.47   15.87   3
  -5   1   8   87.59   14.69   5
   5  -1  -8   99.12   13.75   2
  -5  -1  -8  112.84   12.33   3
  -5  -1   8  101.41   19.50   1
  -5  -1   8   92.67   14.57   5
  -5   1   8   75.18   17.62   1
   5  -1   8   79.67   18.90   1
  -5   1  -8   87.20   14.12   4
   5   1  -8   99.33   15.86   3
   5   1  -8  112.44   15.56   2
   7   1   8   15.72    9.26   1
  -7  -1  -8   12.09    5.89   4
   7  -1  -8   13.77    6.24   2
   7   1  -8    9.48    5.23   2
   7  -1   8   26.62    7.85   2
  -7   1   8   16.61    8.12   1
  -7  -1   8   15.24    5.97   5
  -7   1  -8   11.46    5.97   4
   7  -1  -8   13.29    6.15   3
   7  -1   8   12.84    9.43   1
   7   1   8    9.82    5.06   2
  -7  -1   8   14.32    8.06   1
   7   1  -8    9.41    6.43   3
  -7   1   8    9.93    6.71   5
  -9   1   8   15.24    7.81   5
   9  -1   8    9.00    7.52   2
   9  -1   8    0.92    9.05   1
   9   1  -8   -8.14    5.96   3
   9  -1  -8   23.35    9.20   2
  -9  -1   8   14.94    6.07   5
  -9  -1  -8   16.40    7.91   4
   9   1  -8    4.17    5.44   2
   9  -1  -8   20.98    8.81   3
  -9   1   8    3.74    7.26   1
  -9  -1   8    5.78    6.73   1
  -9   1  -8   25.49    8.69   4
   9   1   8   11.23    8.59   1
 -11   1   8    6.98    8.60   5
 -11  -1   8   30.39   13.39   1
 -11  -1   8    9.27    8.53   5
  11  -1  -8   41.56   13.28   2
  11   1  -8   18.14    9.52   2
 -11   1   8   19.29   12.53   1
  11   1   8   33.88   16.36   1
  11  -1   8   44.34   19.63   1
   0  -2  -8 3775.93  113.43   3
   0   2  -8 3709.93  110.93   3
   0  -2   8 3736.92  142.12   1
   0   2  -8 3826.32  107.61   4
   0   2   8 3866.33  109.91   4
   0   2   8 3814.81  147.83   1
   0  -2   8 4013.40  121.07   5
   0  -2   8 4026.23  121.37   2
  -2   2  -8   59.13   10.13   4
  -2   2  -8   50.53    8.01   3
  -2  -2   8   50.49   15.45   1
  -2   2   8   82.34   12.87   5
   2  -2  -8   69.98    7.63   2
  -2  -2   8   58.65   10.39   2
  -2  -2  -8   63.32   10.11   5
   2   2  -8   54.39    6.98   4
   2  -2   8   59.68   16.37   1
  -2   2   8   77.47    9.41   4
  -2  -2   8   56.16   10.88   5
   2  -2   8   69.86    8.25   2
  -2  -2  -8   75.58   11.15   3
   2   2  -8   65.96   11.55   3
  -2   2   8   50.30   15.38   1
   2   2   8   58.23   16.19   1
   2   2   8   67.65   11.14   4
   2  -2  -8   46.09    9.71   3
   4  -2   8 3195.42  124.38   1
  -4   2   8 3160.58  121.24   1
   4   2  -8 3165.67  105.85   3
   4   2   8 3405.71   90.88   2
  -4   2   8 3334.14   91.04   4
   4  -2  -8 3383.50  106.09   3
   4   2   8 3246.48  103.23   4
   4   2   8 3256.19  124.41   1
  -4   2   8 3199.94  104.87   5
  -4  -2   8 3180.40  121.30   1
   4   2  -8 3393.50  103.67   2
  -4   2  -8 3411.18   91.79   3
  -4  -2  -8 3368.41   98.77   3
  -4  -2   8 3202.04  104.86   5
  -4   2  -8 3198.05  102.85   4
   4  -2  -8 3248.74   96.66   2
   4  -2   8 3330.00   95.32   2
   6  -2   8  148.84   16.04   2
  -6  -2   8  152.59   18.94   5
   6   2   8  123.07   14.02   2
  -6  -2  -8  167.53   15.76   3
   6   2   8  146.79   24.53   1
   6   2  -8  147.56   19.08   2
   6  -2  -8  179.64   18.89   2
  -6  -2   8  117.97   21.62   1
  -6   2  -8  138.82   19.17   4
   6  -2   8  165.14   26.43   1
  -6   2   8  166.46   20.19   5
   6  -2  -8  157.18   20.01   3
  -6  -2  -8  158.07   19.70   4
   6   2  -8  159.41   21.48   3
  -6   2   8  146.88   24.34   1
   8  -2  -8 1870.24   74.80   2
  -8   2  -8 1889.38   78.15   4
  -8  -2  -8 1831.03   75.34   4
  -8  -2   8 1870.13   88.64   1
  -8   2   8 1793.33   75.40   5
   8   2  -8 1818.95   79.65   3
   8  -2   8 1818.28   91.14   1
   8   2  -8 1793.51   77.08   2
   8   2   8 1854.85   89.47   1
   8  -2  -8 1872.64   76.79   3
   8  -2   8 1980.68   72.72   2
  -8  -2   8 1847.61   74.01   5
  -8   2   8 1869.67   91.26   1
  10  -2   8  129.68   29.16   1
  10   2  -8  154.59   25.09   3
 -10  -2   8  106.29   18.39   5
 -10  -2  -8  138.91   22.28   4
 -10   2  -8  102.61   19.91   4
 -10   2   8  137.72   22.05   5
 -10   2   8  149.81   29.14   1
 -10  -2   8  117.79   25.31   1
  10   2   8  156.12   30.14   1
  10  -2   8  117.64   21.04   2
  10  -2  -8  111.56   21.19   2
  10   2  -8  112.70   22.00   2
  -1  -3  -8  380.26   23.34   3
  -1   3  -8  392.01   21.23   3
  -1   3  -8  385.56   21.27   4
  -1   3   8  283.10   36.75   1
   1  -3   8  484.15   30.98   5
  -1   3   8  370.65   23.23   5
   1   3   8  395.63   22.98   4
   1   3  -8  398.75   23.00   3
   1  -3   8  454.45   36.87   1
   1   3   8  274.03   36.01   1
   1  -3   8  350.38   22.79   2
  -1   3   8  367.95   21.12   4
   1   3  -8  365.00   18.86   4
  -1  -3   8  309.27   25.53   2
  -1  -3   8  380.61   40.59   1
   1  -3  -8  401.52   24.19   3
   1  -3  -8  414.38   14.78   2
  -1  -3   8  391.43   25.97   5
  -3  -3  -8  194.76   14.09   5
  -3   3   8  158.75   24.98   1
  -3   3  -8  186.09   12.53   3
   3   3   8  170.89   25.73   1
  -3  -3  -8  177.17   16.89   3
   3  -3  -8  156.04   18.11   3
   3  -3  -8  164.36   12.12   2
   3   3  -8  181.69   19.53   3
  -3   3  -8  154.91   16.82   4
  -3   3   8  144.05   17.33   5
  -3  -3   8  175.21   19.55   5
   3  -3   8  184.07   13.65   2
  -3  -3   8  181.69   18.74   2
   3   3   8  171.93   18.32   4
   3  -3   8  143.79   24.23   1
  -3   3   8  179.10   13.46   4
   3   3  -8  179.91   10.13   4
  -3  -3   8  147.58   24.60   1
  -5  -3  -8  333.15   21.33   3
   5  -3  -8  271.48   19.62   2
   5  -3   8  275.07   19.21   2
  -5  -3   8  291.72   32.85   1
  -5   3   8  295.81   23.07   5
   5   3   8  279.38   31.15   1
  -5   3  -8  309.13   23.35   4
   5   3   8  293.23   17.64   2
   5  -3   8  334.55   35.77   1
   5  -3  -8  231.26   23.23   3
  -5   3   8  254.87   30.97   1
  -5  -3   8  288.43   22.58   5
   5   3   8  266.71   21.62   4
   5   3  -8  276.52   22.82   2
   5   3  -8  322.74   25.16   3
  -7  -3   8  102.16   16.27   5
  -7   3   8  103.27   21.64   1
   7  -3   8  117.51   16.81   2
  -7  -3   8  108.79   21.53   1
  -7   3   8  106.46   17.68   5
   7  -3  -8  130.15   19.34   3
   7  -3   8   96.83   21.39   1
   7   3   8   90.73   19.14   1
  -7   3  -8  114.24   18.21   4
   7  -3  -8  107.45   16.81   2
   7   3  -8  133.76   19.69   2
   7   3  -8   91.11   17.58   3
  -7  -3  -8   85.34   15.20   4
   9  -3   8   80.77   21.60   1
  -9   3  -8   77.25   16.41   4
  -9  -3   8   61.80   12.83   5
   9   3  -8   57.29   14.85   2
  -9   3   8   42.76   15.19   1
  -9   3   8   52.86   12.40   5
   9   3  -8   57.23   15.48   3
  -9  -3  -8   43.36   12.03   4
   9  -3  -8   58.05   13.98   2
  -9  -3   8   47.32   14.85   1
   9  -3   8   43.50   11.34   2
   9   3   8   41.55   14.89   1
  11   3   8   71.76   21.85   1
  11   3  -8   81.76   19.97   2
 -11   3  -8   65.96   16.86   4
 -11  -3   8   50.15   16.90   1
 -11   3   8   51.84   14.57   5
 -11  -3   8   63.34   15.27   5
  11  -3   8   76.39   20.91   1
  11  -3  -8   58.18   16.81   2
 -11   3   8  114.97   26.93   1
   0  -4  -8 2017.63   73.11   3
   0   4   8 2182.08   71.27   4
   0  -4   8 1994.57   89.26   1
   0  -4   8 2057.94   83.40   2
   0   4  -8 2137.13   69.77   3
   0  -4   8 2215.86   81.18   5
   0   4  -8 2100.78   67.02   4
   0   4   8 2218.57   99.62   1
  -2  -4   8 1126.11   51.92   2
  -2   4  -8 1117.45   46.27   4
   2  -4  -8 1172.98   38.38   2
  -2   4  -8 1200.73   42.22   3
   2  -4   8 1265.97   57.84   5
  -2   4   8 1182.12   44.74   4
   2  -4  -8 1119.51   48.45   3
  -2  -4   8 1171.97   65.30   1
   2   4  -8 1188.63   40.45   4
   2  -4   8 1134.21   61.14   1
   2   4   8 1077.91   60.24   1
  -2   4   8 1168.32   64.69   1
   2   4   8 1178.47   48.08   4
  -2  -4   8 1204.82   51.70   5
  -2  -4  -8 1179.61   48.17   3
  -2   4   8 1246.06   49.93   5
   2   4  -8 1156.07   48.36   3
   2  -4   8 1146.69   48.14   2
  -4   4   8 1316.50   66.30   1
   4   4  -8 1241.33   56.21   3
   4   4   8 1380.05   55.30   4
  -4   4   8 1389.29   48.30   4
  -4   4  -8 1205.10   53.40   4
   4  -4   8 1237.13   65.90   1
  -4  -4   8 1330.02   68.59   1
  -4  -4  -8 1347.69   53.18   3
  -4  -4   8 1393.87   57.13   5
  -4   4   8 1333.63   55.06   5
   4  -4  -8 1332.57   54.87   3
  -4  -4   8 1373.33   58.02   2
   4   4   8 1226.04   61.96   1
   4  -4  -8 1327.71   48.17   2
   4  -4   8 1323.30   50.94   2
  -6  -4  -8  665.41   33.96   3
   6   4  -8  569.97   37.16   3
   6   4  -8  545.52   35.64   2
   6  -4   8  566.98   42.63   1
  -6   4   8  537.92   34.45   5
  -6   4   8  530.17   40.85   1
  -6   4  -8  542.50   34.83   4
   6  -4   8  571.46   31.78   2
   6  -4  -8  545.40   34.48   3
   6   4   8  530.15   38.60   1
  -6  -4   8  533.44   40.83   1
   6   4   8  510.94   33.07   4
  -6  -4   8  603.36   34.59   5
   6  -4  -8  565.92   31.94   2
   8  -4   8  545.88   35.27   2
   8  -4  -8  630.12   39.52   3
   8   4  -8  602.49   41.36   3
   8   4   8  509.87   41.25   1
  -8  -4   8  588.56   45.71   1
  -8   4   8  578.96   46.37   1
   8  -4  -8  637.26   38.99   2
  -8  -4  -8  618.93   37.94   4
   8   4  -8  550.25   39.27   2
  -8  -4   8  597.02   36.26   5
  -8   4  -8  542.93   38.68   4
   8  -4   8  597.97   48.34   1
  -8   4   8  548.44   37.60   5
 -10   4   8  328.11   44.01   1
  10  -4   8  345.36   33.50   2
  10   4   8  348.95   42.75   1
 -10  -4   8  350.34   32.54   5
 -10   4  -8  349.20   37.12   4
  10  -4   8  301.25   43.62   1
 -10  -4   8  251.98   37.78   1
  10  -4  -8  299.71   34.05   2
  10   4  -8  361.50   40.03   3
  10   4  -8  321.43   37.72   2
 -10   4   8  418.28   39.34   5
   1  -5  -8   55.45    6.26   2
  -1  -5  -8   49.78   10.71   3
   1   5  -8   57.01   10.60   3
   1   5   8   41.64   13.34   1
  -1   5  -8   33.06    8.13   4
   1  -5   8   28.31    9.86   5
  -1  -5   8   59.12   15.55   1
   1  -5   8   51.12   13.58   1
   1  -5  -8   43.56    9.75   3
  -1  -5   8   36.95   13.30   2
  -1   5   8   52.37   10.19   4
  -1  -5   8   50.46   12.80   5
   1  -5   8   35.30   10.88   2
   1   5  -8   31.08    6.93   4
  -1   5   8   63.86   17.50   1
  -1   5  -8   34.44    8.21   3
   1   5   8   59.44   11.09   4
   3  -5  -8   -2.50    3.18   2
  -3  -5   8    4.20    4.71   2
   3   5   8    3.12    3.14   4
  -3  -5  -8    0.99    3.56   3
  -3  -5   8    4.33    6.83   1
   3  -5   8    1.73    5.96   1
   3  -5  -8   -6.09    1.89   3
   3   5  -8    5.20    5.42   3
  -3  -5   8    0.89    3.94   5
   3   5  -8    6.46    3.05   4
   3  -5   8    6.47    4.44   2
  -3   5  -8    4.09    3.66   3
  -3   5   8    5.53    5.22   1
   3   5   8    5.67    5.52   1
  -3   5  -8   11.04    5.24   4
  -3   5   8    5.72    4.49   5
  -3   5   8    3.46    4.25   4
  -5  -5   8   68.83   16.21   1
  -5   5   8   82.46   12.38   4
  -5   5   8   69.50   13.39   5
   5   5   8   73.20   13.39   4
   5  -5   8   60.15   11.92   2
   5  -5  -8   67.65   11.96   2
  -5  -5   8   46.22   10.84   5
  -5   5   8   54.62   16.45   1
   5  -5   8   51.78   14.60   1
   5   5   8   70.50   15.14   1
   5   5  -8   47.63   12.03   3
  -5  -5  -8   60.36   12.46   3
  -5   5  -8   46.60   10.78   4
  -5  -5   8   71.03   14.83   2
   5  -5  -8   60.00   12.84   3
  -7  -5  -8    2.39    3.67   3
   7   5  -8   -2.48    4.72   3
  -7  -5   8    5.29    4.44   5
  -7   5   8    8.35    5.50   5
   7   5   8    1.33    4.71   4
   7  -5   8    4.21    6.36   1
   7   5   8    0.69    6.07   1
   7   5  -8    7.17    6.18   2
  -7   5  -8    7.17    4.69   4
  -7   5   8    4.24    6.28   1
  -7  -5   8   -2.46    6.31   1
   7  -5  -8    8.18    5.20   2
   7  -5  -8    1.66    5.63   3
   7  -5   8    5.19    5.11   2
  -9  -5   8    6.15    8.33   1
   9   5   8   -1.69    7.52   1
  -9  -5   8   19.77    7.34   5
  -9   5   8   14.61   10.24   1
  -9  -5  -8   16.17    8.50   4
   9  -5  -8    0.51    5.12   2
  -9   5  -8    2.92    7.18   4
  -9   5   8   17.87    7.85   5
   9  -5   8   -0.81    7.12   1
   9   5  -8    8.59    6.98   2
   9  -5   8    1.83    6.92   2
   9   5  -8   11.32    7.73   3
 -11   5   8    7.76    9.66   5
 -11  -5   8   23.98   10.80   1
 -11  -5   8   12.16    7.88   5
  11   5  -8    4.31    7.64   2
  11  -5  -8    6.72    8.99   2
  11  -5   8   10.59   11.46   2
 -11   5  -8    0.44    7.91   4
  11  -5   8    4.19    9.04   1
 -11   5   8   21.42   14.39   1
 -11  -5  -8   17.93   12.21   1
 -11  -5  -8    8.53    4.09   5
   0   6   8 1391.32   71.23   1
   0  -6  -8 1417.76   43.55   2
   0  -6  -8 1367.32   50.50   5
   0  -6   8 1460.05   63.11   5
   0   6  -8 1411.27   54.22   3
   0  -6   8 1394.94   65.70   1
   0  -6   8 1325.64   69.22   2
   0  -6  -8 1378.77   57.81   3
   0   6   8 1418.48   56.64   4
   0   6  -8 1372.21   53.00   4
  -2   6  -8  224.40   16.19   3
   2   6  -8  205.16   15.00   4
  -2  -6  -8  241.60   23.39   3
   2   6  -8  207.55   22.16   3
  -2   6   8  256.04   19.49   4
   2   6   8  246.35   27.17   1
  -2   6  -8  215.33   20.61   4
   2   6   8  218.14   22.02   4
   2  -6   8  244.38   27.69   1
   2  -6  -8  229.32   14.86   2
  -2  -6   8  244.62   30.23   2
  -2  -6  -8  205.26   14.05   5
   2  -6   8  221.76   26.39   2
  -2  -6   8  181.67   28.72   1
   2  -6  -8  226.71   21.94   3
  -2   6   8  204.61   29.52   1
  -2  -6   8  224.77   24.91   5
  -4   6  -8 1210.98   55.17   4
  -4  -6  -8 1317.32   56.49   3
  -4   6   8 1306.46   52.16   4
   4   6   8 1298.98   59.57   1
  -4  -6   8 1333.97   57.74   5
   4  -6  -8 1332.43   50.18   2
   4  -6   8 1267.98   57.30   2
  -4  -6  -8 1260.36   41.71   5
   4  -6   8 1203.73   63.98   1
   4  -6  -8 1336.91   57.61   3
  -4  -6   8 1302.99   61.90   2
  -4   6   8 1342.46   66.72   1
   4   6   8 1200.28   55.10   4
   4   6  -8 1303.39   58.99   3
  -4  -6   8 1329.91   68.69   1
   6   6   8  335.09   28.72   1
  -6  -6  -8  316.12   25.20   3
   6  -6  -8  346.12   26.95   3
  -6  -6   8  315.72   32.02   2
   6  -6   8  283.31   34.58   1
   6   6  -8  285.51   30.55   3
   6   6   8  331.59   26.85   4
   6  -6   8  354.38   27.33   2
  -6  -6   8  324.58   35.39   1
  -6   6  -8  312.59   30.57   4
  -6  -6   8  314.71   25.51   5
  -6   6   8  345.60   27.81   5
   6  -6  -8  363.61   25.55   2
  -6   6   8  294.15   34.82   1
  -8   6   8  846.69   57.48   1
  -8  -6   8  845.16   56.86   1
  -8  -6  -8  992.39   51.11   4
  -8   6  -8  848.04   51.69   4
   8  -6  -8  904.53   48.79   2
  -8  -6   8  976.13   49.43   5
   8   6  -8  856.83   54.56   3
   8   6  -8  851.37   52.85   2
   8  -6   8  843.99   58.42   1
   8  -6   8  837.21   48.89   2
  10   6  -8  271.05   36.77   3
  10  -6   8  210.56   30.03   2
 -10   6  -8  225.37   32.00   4
 -10   6   8  259.17   39.84   1
  10  -6  -8  293.45   34.99   2
  10   6  -8  243.32   33.84   2
 -10  -6   8  196.02   33.16   1
  10  -6   8  196.61   34.90   1
  10   6   8  240.86   34.70   1
 -10  -6   8  198.01   26.89   5
  -1  -7  -8   92.04   12.04   5
   1   7   8  100.00   15.62   4
   1  -7  -8  127.88   12.01   2
  -1   7   8  123.31   23.83   1
   1  -7   8  119.53   23.01   2
   1   7   8  100.15   18.45   1
  -1  -7  -8   86.35   15.11   3
  -1   7  -8  113.65   14.41   3
  -1   7  -8  113.36   16.12   4
   1  -7  -8   99.29   13.88   5
   1   7  -8  113.47   14.25   4
   1  -7   8  106.63   19.38   5
  -1   7   8  100.09   15.94   4
  -1  -7   8  127.57   20.77   5
  -1  -7   8   92.69   18.20   1
  -1  -7   8   81.65   19.25   2
   1  -7   8  119.21   18.62   1
   1   7  -8  100.14   15.71   3
   1  -7  -8  100.70   16.34   3
  -3  -7   8   17.77    8.01   5
  -3  -7   8   32.15   12.86   1
   3  -7   8   34.88   11.72   1
  -3  -7   8   30.05   10.51   2
  -3   7   8   21.51    9.45   1
  -3   7  -8   28.40    8.34   4
   3   7   8   19.98    7.25   4
   3  -7   8   26.52    9.41   2
   3   7  -8   29.01    9.28   3
  -3   7   8   41.52   10.28   4
  -3  -7  -8   28.80    5.88   5
   3   7   8   18.68    7.31   1
  -3  -7  -8   17.76    6.43   3
   3  -7  -8   36.00   10.23   3
   3  -7  -8   23.00    7.02   2
  -5  -7  -8   92.75   16.11   3
   5  -7  -8  124.37   19.43   3
  -5   7  -8   82.41   16.31   4
  -5   7   8   77.43   17.88   1
  -5   7   8  109.69   16.04   4
   5   7   8   67.03   14.71   1
   5   7  -8   99.34   18.79   3
  -5  -7   8   88.65   19.90   1
   5  -7  -8  120.81   16.40   2
   5  -7   8   81.18   17.27   1
  -5  -7   8  125.81   22.32   2
   5   7   8   89.83   15.99   4
  -5  -7  -8  100.58    9.16   5
   5  -7   8  106.50   18.11   2
  -5  -7   8   99.99   16.76   5
   7   7   8   28.65   10.74   1
   7   7   8   16.74    8.06   4
   7  -7   8   14.93    7.57   2
  -7  -7   8    6.64    6.81   2
  -7  -7   8   27.24    8.43   5
   7  -7   8   25.76   11.19   1
  -7   7   8   33.82   12.47   1
  -7   7  -8   17.87    8.79   4
   7  -7  -8   11.30    9.07   3
   7  -7  -8   15.14    7.06   2
   7   7  -8   23.07    9.98   3
  -7  -7   8   15.52    9.24   1
  -7  -7  -8   27.99    8.54   3
   9   7   8    8.04    9.48   1
  -9  -7   8   11.03    9.95   2
   9  -7   8    9.45    8.95   1
   9  -7  -8   29.17   10.56   2
  -9   7   8   18.39   10.61   1
  -9  -7   8   21.79    9.32   5
   9  -7   8    5.75    8.52   2
  -9  -7   8    4.14   11.60   1
   9   7  -8   15.44   10.60   3
  -9  -7  -8   18.92    8.57   4
  -9   7  -8   37.75   13.86   4
  11   7  -8   52.28   17.93   3
  11  -7   8   31.49   14.47   2
 -11   7  -8   36.17   13.00   4
   0   8   8  620.38   41.91   1
   0  -8   8  687.49   42.73   5
   0  -8   8  667.80   48.03   2
   0  -8  -8  695.91   34.03   5
   0   8  -8  644.68   34.47   3
   0   8  -8  654.27   35.11   4
   0  -8  -8  676.40   38.94   3
   0   8   8  674.03   38.21   4
   0  -8   8  642.99   38.83   1
  -2  -8   8 1440.24   77.87   2
   2  -8  -8 1461.90   58.64   5
   2   8  -8 1434.39   61.64   3
   2  -8  -8 1471.69   62.93   3
   2  -8  -8 1526.34   53.39   2
  -2  -8   8 1458.42   66.48   5
  -2  -8  -8 1378.52   51.39   5
  -2   8   8 1495.99   74.94   1
  -2   8  -8 1419.24   60.56   4
  -2  -8  -8 1429.10   62.89   3
   2   8  -8 1520.99   55.80   4
   2   8   8 1646.07   63.86   1
  -2  -8   8 1267.18   66.54   1
   2   8   8 1500.83   62.93   4
   2  -8   8 1411.01   65.34   1
   2  -8   8 1316.30   73.54   2
  -2   8  -8 1495.41   54.86   3
  -2   8   8 1448.15   60.60   4
   4  -8  -8  484.04   32.82   3
   4  -8   8  432.33   33.52   1
  -4  -8  -8  430.32   31.24   3
  -4   8   8  428.51   36.86   1
   4   8  -8  418.91   31.76   3
  -4   8  -8  383.14   30.13   4
   4  -8   8  345.11   35.82   2
   4   8   8  511.63   31.30   1
  -4   8   8  432.66   29.38   4
  -4  -8   8  437.68   42.59   2
  -4  -8   8  400.88   31.13   5
   4   8   8  471.73   32.04   4
   4  -8  -8  451.44   27.28   2
  -4  -8  -8  428.96   21.76   5
  -4  -8   8  492.41   39.81   1
   6  -8   8  748.44   47.42   2
  -6  -8  -8  808.05   46.11   3
   6   8   8  737.17   43.02   1
  -6   8   8  811.17   42.00   4
  -6  -8   8  824.92   53.08   2
   6   8  -8  814.71   50.31   3
  -6  -8  -8  786.86   28.99   5
  -6   8  -8  779.65   47.84   4
   6   8   8  742.24   44.58   4
  -6   8   8  813.12   53.60   1
  -6  -8   8  729.56   43.48   5
  -6  -8   8  815.86   53.94   1
   6  -8  -8  862.94   47.39   3
   6  -8   8  798.30   51.02   1
   6  -8  -8  792.52   43.06   2
  -8   8   8  191.50   31.10   1
  -8  -8  -8  273.43   29.55   3
  -8  -8   8  203.76   25.97   5
  -8  -8   8  234.99   34.15   2
   8  -8  -8  257.94   28.86   2
  -8   8  -8  256.46   32.26   4
   8   8   8  241.64   29.28   4
   8  -8   8  222.01   30.27   2
   8  -8   8  184.64   31.17   1
   8   8  -8  234.06   33.16   3
  10   8  -8  580.15   52.71   3
 -10   8   8  398.68   48.16   1
  10  -8  -8  404.81   41.45   2
 -10  -8   8  415.15   33.99   5
 -10  -8   8  349.60   44.04   2
 -10   8  -8  427.64   43.52   4
  10  -8   8  386.47   42.42   2
  10  -8   8  459.50   51.91   1
   1  -9  -8  264.29   21.18   5
  -1   9   8  258.38   30.51   1
   1  -9   8  229.23   24.11   1
   1   9   8  226.26   25.75   4
   1  -9  -8  214.82   24.75   3
  -1   9  -8  265.56   21.23   3
  -1  -9   8  232.44   33.77   2
  -1  -9  -8  257.56   18.94   5
   1  -9   8  278.86   36.46   2
  -1  -9   8  250.08   25.70   1
  -1  -9  -8  233.34   26.44   3
  -1  -9   8  239.91   29.45   5
  -1   9  -8  234.33   24.25   4
   1   9  -8  272.94   21.26   4
  -1   9   8  272.29   26.54   4
   1   9  -8  222.95   23.76   3
   3  -9  -8  103.22   16.87   5
  -3   9   8   92.65   16.38   4
  -3  -9   8  141.21   21.83   5
   3  -9  -8  133.25   16.74   2
   3   9  -8  131.64   20.68   3
  -3  -9   8  138.12   27.33   2
  -3   9  -8  123.12   18.95   4
  -3  -9   8  139.27   24.35   1
  -3   9   8  179.66   28.09   1
  -3  -9  -8  117.84   13.63   5
   3  -9   8  148.65   22.26   1
   3  -9  -8  111.66   18.41   3
  -3  -9  -8  142.14   21.26   3
   3  -9   8  121.13   24.28   2
   3   9   8   95.75   17.33   4
  -5  -9  -8  200.01   25.89   3
  -5  -9   8  224.50   32.58   2
  -5  -9   8  207.90   26.88   5
  -5  -9  -8  182.27   13.64   5
  -5   9   8  213.00   29.36   1
   5  -9  -8  207.21   26.53   3
   5  -9   8  196.14   29.31   2
  -5   9  -8  204.45   26.84   4
   5   9  -8  221.88   29.22   3
  -5   9   8  205.67   23.96   4
   5  -9  -8  199.54   22.07   2
   5  -9   8  220.01   27.71   1
   5   9   8  212.85   26.30   4
  -7  -9   8   83.16   16.87   5
  -7  -9   8   71.71   19.24   2
   7  -9   8   92.82   19.79   2
  -7  -9  -8   85.40   17.39   3
   7  -9  -8   79.73   15.83   2
  -7   9  -8   61.55   15.21   4
  -7  -9  -8   96.58    8.81   5
  -7   9   8   38.58   15.41   1
   7   9   8   97.94   19.16   4
   7  -9   8   86.54   19.40   1
   7   9  -8   77.42   18.90   3
   9  -9   8   56.30   16.73   2
  -9  -9   8   50.61   13.35   5
  -9   9   8   77.20   19.35   1
  -9  -9   8   36.14   15.53   2
   9   9   8   74.74   17.69   4
   9  -9  -8   48.88   13.36   2
   9   9  -8   43.18   15.26   3
   9  -9   8   31.96   11.85   1
  -9   9  -8   39.52   14.48   4
   0  10  -8  821.34   44.45   3
   0 -10  -8  928.62   50.13   3
   0  10   8  989.34   51.07   4
   0  10  -8  943.60   46.82   4
   0 -10   8 1015.80   54.86   5
   0 -10  -8  937.71   44.35   5
   0 -10   8  967.77   61.85   2
   2 -10  -8  401.09   31.50   3
  -2 -10  -8  442.11   26.08   5
  -2  10   8  418.09   31.43   4
  -2  10  -8  424.37   30.95   4
  -2 -10   8  463.26   34.62   5
   2 -10  -8  374.71   27.99   5
   2 -10   8  407.27   47.48   2
   2  10   8  426.58   32.20   4
  -2 -10   8  434.64   48.25   2
  -2 -10  -8  450.97   34.05   3
   2  10  -8  424.36   31.69   3
   2 -10   8  394.05   29.59   1
   2  10  -8  433.38   28.51   4
  -4  10   8  929.45   48.90   4
  -4 -10  -8  860.92   50.15   3
  -4  10  -8  868.42   49.74   4
  -4 -10  -8  924.63   38.46   5
  -4 -10   8  943.01   53.12   5
   4 -10  -8  915.97   50.62   3
   4 -10   8  859.74   60.24   2
   4  10   8  826.01   48.69   4
   4 -10  -8  922.57   44.97   2
  -4 -10   8  753.31   58.49   2
   4  10  -8  912.23   52.25   3
   4 -10   8  954.15   50.34   1
  -6  10   8  562.03   43.83   1
   6 -10  -8  451.87   33.16   2
   6  10  -8  472.52   43.49   3
  -6 -10  -8  417.64   34.46   3
  -6 -10   8  457.93   49.23   2
   6 -10   8  450.06   36.45   1
  -6  10  -8  442.08   40.45   4
  -6 -10  -8  461.01   22.48   5
   6 -10   8  412.77   44.63   2
  -6 -10   8  428.60   34.63   5
   6  10   8  440.25   35.44   4
  -6  10   8  463.10   32.99   4
  -8  10   8  722.23   54.28   1
  -8 -10  -8  697.22   25.96   5
  -8 -10   8  629.00   57.80   2
   8  10  -8  681.53   52.03   3
   8 -10  -8  684.25   45.68   2
   8 -10   8  673.04   50.75   1
   8 -10   8  666.89   51.80   2
  -8 -10   8  679.17   44.46   5
   8  10   8  689.50   48.29   4
  -8  10  -8  705.08   49.84   4
  10 -10  -8  268.04   34.47   2
  -1  11   8    4.89    5.00   4
   1  11   8   11.93    7.54   4
   1 -11  -8    1.71    3.78   5
   1 -11   8    6.20    8.79   2
  -1 -11   8   -2.23    7.47   2
  -1 -11  -8   10.72    6.07   3
   1  11  -8    4.33    5.40   3
  -1 -11   8   15.67    7.01   5
   1  11  -8   -3.94    4.45   4
  -1  11  -8    7.68    5.13   3
  -1 -11  -8    9.70    4.63   5
   1 -11  -8   -0.22    5.24   3
  -1  11  -8    8.09    5.84   4
   3  11   8   42.70   11.83   4
   3 -11  -8   50.16   11.71   5
  -3  11  -8   40.27   12.08   4
  -3 -11  -8   52.51   14.43   3
   3 -11   8   35.46   13.14   2
  -3 -11   8   42.68   15.78   2
  -3 -11   8   38.77   13.24   5
  -3  11   8   32.84   11.56   4
  -3 -11  -8   23.11    7.21   5
   3 -11  -8   43.23   13.06   3
   3  11  -8   57.56   14.16   3
   5  11  -8   -0.33    5.01   3
  -5  11  -8   -4.94    3.90   4
   5  11   8    3.20    4.90   4
   5 -11  -8    5.66    5.11   2
  -5  11   8    9.80    6.24   4
  -5 -11  -8    4.23    3.53   5
  -5 -11   8   -6.29    6.95   2
  -5 -11  -8    7.47    7.61   3
   5 -11   8   -2.67    8.63   2
   5 -11  -8   -9.57    6.02   3
  -5 -11   8    1.60    6.35   5
  -7 -11   8   -0.39    8.55   2
  -7 -11  -8    8.11    4.28   5
  -7 -11  -8    8.44    6.71   3
  -7  11  -8   15.21    8.29   4
   7  11  -8   -6.40    6.19   3
   7  11   8   36.64   12.93   4
   7 -11  -8   15.06    8.90   2
  -7 -11   8    1.11    6.92   5
   7 -11   8   32.74   14.21   2
  -9  11  -8   -7.37    7.16   4
  -9 -11   8   -2.38    6.09   5
   9  11  -8    2.13   12.97   3
   9 -11  -8    1.88    6.78   2
   9 -11   8   -8.49   12.64   2
   0  12  -8  618.97   38.76   3
   0  12  -8  651.60   40.18   4
   0 -12  -8  596.89   36.96   5
   0  12   8  590.13   41.16   4
   0 -12  -8  634.94   43.35   3
   0 -12   8  679.15   51.36   2
  -2 -12  -8  947.02   45.96   5
   2 -12  -8 1059.18   52.90   5
  -2  12   8  944.52   53.78   4
  -2 -12   8  858.04   63.48   2
  -2 -12  -8  925.80   55.64   3
   2  12   8  998.42   56.41   4
   2 -12  -8  978.31   55.80   3
  -2 -12   8  936.79   55.44   5
   2  12  -8  996.30   54.16   3
  -2  12  -8 1019.34   54.67   4
   2 -12   8  952.58   67.54   2
  -4  12  -8  371.85   38.37   4
  -4  12   8  407.68   33.31   4
   4  12  -8  401.33   39.23   3
  -4 -12   8  412.83   52.70   2
   4  12   8  468.17   37.31   4
  -4 -12  -8  415.82   26.23   5
  -4 -12   8  470.90   36.77   5
   4 -12  -8  451.98   36.66   3
  -4 -12  -8  326.54   35.84   3
   4 -12   8  332.00   47.29   2
  -6  12  -8  500.69   45.34   4
  -6 -12   8  534.90   60.15   2
   6 -12  -8  501.88   36.37   2
  -6 -12   8  550.59   41.87   5
   6  12  -8  562.50   44.77   3
   6  12   8  531.99   41.72   4
  -6 -12  -8  534.13   27.85   5
  -6  12   8  492.73   37.43   4
   6 -12   8  506.94   55.70   2
  -8 -12  -8  222.32   14.66   5
   8  12   8  248.68   35.12   4
   8  12  -8  294.84   41.12   3
   8 -12  -8  215.08   30.41   2
   8 -12   8  236.23   41.78   2
  -8  12  -8  242.04   34.70   4
  -8 -12   8  276.47   34.33   5
  -8 -12  -8  236.28   32.34   3
  -8 -12   8  209.32   38.62   2
   1 -13   8  332.96   43.72   2
  -1  13   8  224.04   29.88   4
  -1 -13   8  263.87   38.54   2
   1 -13  -8  211.18   29.60   3
  -1 -13  -8  280.22   33.75   3
   1  13  -8  261.70   29.44   3
  -1 -13  -8  262.12   26.72   5
   1 -13  -8  304.61   29.95   5
  -1 -13   8  239.87   31.59   5
   1  13  -8  288.56   30.19   4
  -1  13  -8  331.66   33.41   4
   1  13   8  259.47   32.93   4
  -3 -13   8  146.82   30.82   2
   3  13  -8  194.77   28.02   3
  -3  13  -8  166.53   26.15   4
  -3  13   8  148.36   25.12   4
  -3 -13   8  177.44   27.26   5
   3 -13  -8  159.38   24.97   3
   3 -13   8  162.20   32.91   2
  -3 -13  -8  129.65   17.96   5
   3 -13  -8  212.03   27.88   5
   3  13   8  174.87   27.17   4
  -3 -13  -8  154.44   25.07   3
  -5 -13   8  196.06   29.15   5
   5  13   8  258.63   34.40   4
   5 -13   8  150.60   32.25   2
  -5  13  -8  207.30   29.36   4
  -5 -13  -8  224.50   20.77   5
  -5  13   8  256.04   32.27   4
  -5 -13   8  259.42   44.92   2
   5  13  -8  191.82   29.87   3
  -5 -13  -8  264.84   33.87   3
  -7  13  -8  116.58   22.55   4
  -7 -13   8  106.63   29.79   2
   7 -13   8  101.75   29.14   2
  -7 -13  -8  101.02   12.93   5
   7  13  -8  140.42   26.31   3
  -7 -13   8  122.78   23.70   5
  -7 -13  -8   79.62   17.79   3
   7  13   8  103.95   23.37   4
   0 -14  -8  875.80   48.67   5
   0  14   8  804.13   51.94   4
   0 -14   8  777.02   58.46   2
   0  14  -8  806.93   48.27   4
   0 -14  -8  769.25   52.09   3
   0  14  -8  776.08   46.62   3
   2  14  -8  183.44   26.87   3
  -2 -14   8   98.18   24.28   2
   2 -14  -8  183.32   28.74   3
   2 -14  -8  156.09   22.95   5
  -2  14   8  184.43   28.06   4
   2 -14   8  164.79   32.96   2
  -2  14  -8  189.51   27.68   4
  -2 -14  -8  166.37   22.15   5
   2  14   8  181.18   28.27   4
  -2 -14   8  164.42   26.26   5
  -2 -14  -8  139.52   25.86   3
  -4 -14   8  806.93   52.82   5
  -4  14   8  747.55   51.34   4
  -4 -14  -8  752.29   52.65   3
   4  14   8  812.76   55.05   4
  -4 -14   8  829.90   68.01   2
  -4  14  -8  758.43   51.83   4
   4 -14   8  793.18   74.24   2
   4 -14  -8  855.49   54.39   3
  -4 -14  -8  773.29   41.46   5
   4  14  -8  756.95   52.58   3
  -6  14   8  179.73   28.75   4
  -6 -14   8  170.45   37.68   2
  -6 -14  -8  204.37   20.26   5
  -6  14  -8  231.32   33.76   4
   6 -14   8  150.50   35.27   2
  -6 -14  -8  242.83   34.26   3
   6  14  -8  196.00   31.30   3
  -6 -14   8  240.59   32.87   5
   6  14   8  291.85   38.84   4
   1  15  -8   -8.31    4.99   3
  -1  15   8   -1.21    5.55   4
  -1 -15  -8    6.03    7.34   3
   1 -15  -8   -2.81    6.04   5
  -1 -15  -8    8.33    5.06   5
   1 -15  -8   -6.90    7.19   3
  -1  15  -8    0.80    6.92   4
   1  15   8  -15.54    5.78   4
  -1 -15   8  -23.54    5.57   2
   1 -15   8    6.09    9.62   2
   3  15   8    6.76    9.35   4
   3 -15   8   22.70   13.22   2
  -3 -15   8   32.51   12.02   5
   3 -15  -8   16.77   11.25   3
  -3 -15  -8    1.91    7.30   3
   3  15  -8   19.67    8.83   3
  -3  15  -8    7.44    8.94   4
  -3 -15   8   -8.57    8.17   2
  -3  15   8   22.19    9.92   4
  -3 -15  -8   20.35    7.77   5
  -5 -15  -8   -1.02    4.45   5
   5 -15   8   -3.00   12.22   2
  -5 -15   8   12.57   16.36   2
  -5  15  -8   12.25   10.32   4
   5  15  -8  -14.62    6.38   3
  -5  15   8    8.53    7.12   4
  -5 -15   8   -6.71    7.26   5
  -5 -15  -8    4.62    6.74   3
   5  15   8   -5.91    7.97   4
   0 -16  -8  548.97   50.01   3
   0 -16   8  498.07   53.60   2
   0 -16  -8  546.53   40.44   5
   0  16  -8  529.23   41.00   4
   0  16   8  587.96   45.70   4
   2 -16  -8  533.73   40.14   5
   2 -16  -8  541.62   50.09   3
   2  16   8  461.20   47.50   4
  -2  16  -8  480.92   44.61   4
  -2 -16   8  392.10   49.65   2
  -2  16   8  441.46   45.30   4
   2 -16   8  415.75   53.75   2
  -2 -16  -8  406.55   45.38   3
   2  16  -8  493.27   44.74   3
  -2 -16  -8  405.78   32.86   5
  -4 -16  -8  404.05   43.92   3
  -4 -16  -8  372.95   29.36   5
  -4  16   8  422.70   45.04   4
  -4 -16   8  274.85   35.61   5
   4 -16   8  431.92   57.98   2
  -4  16  -8  383.10   44.34   4
   4  16  -8  364.56   41.93   3
   4  16   8  377.99   44.50   4
  -4 -16   8  308.28   48.30   2
   1 -17  -8   76.72   20.30   3
   1 -17   8   78.66   23.08   2
  -1 -17  -8   83.10   20.54   3
   1  17   8   73.44   19.92   4
  -1 -17   8   87.71   25.48   2
  -1 -17  -8   65.19   16.92   5
  -1  17   8   38.05   13.41   4
  -1  17  -8  111.45   22.60   4
   1 -17  -8   74.37   18.89   5
  -3 -17   8   35.63   15.10   5
   3  17  -8   27.54   11.31   3
   3  17   8   36.81   16.41   4
  -3  17  -8   60.28   18.63   4
   3 -17   8   62.57   21.19   2
   0 -18  -8  470.50   44.70   5
  -1   0   9  133.14   12.36   4
  -1   0   9  144.71   17.73   5
   1   0  -9  144.63   16.34   3
  -1   0   9  145.06   11.53   2
  -1   0  -9  169.77   15.69   3
   1   0   9  124.40   13.90   4
   1   0   9  132.35   26.98   1
  -1   0   9  151.21   29.24   1
  -3   0  -9   26.77    7.68   4
  -3   0  -9   31.23    7.29   3
   3   0   9   19.02   10.60   1
   3   0   9   22.32    3.81   2
  -3   0   9    9.92    5.46   5
  -3   0   9   17.35   10.81   1
  -3   0   9   25.22    5.18   4
   3   0  -9   36.67    7.74   2
   3   0  -9    5.22    3.97   3
   5   0  -9  125.23   16.04   2
   5   0   9  132.11   24.62   1
  -5   0  -9  118.71   16.96   4
  -5   0   9  150.24   19.71   5
   5   0  -9  125.83   18.27   3
  -5   0   9  109.31   21.64   1
   5   0   9  129.67   12.11   2
  -7   0   9   18.00    9.25   1
   7   0   9   14.32    9.84   1
   7   0  -9   24.60    9.25   3
  -7   0   9   27.03    9.19   5
   7   0  -9    9.18    5.25   2
  -7   0  -9   17.87    7.40   4
   9   0   9    7.44    9.17   1
  -9   0  -9   27.24    8.95   4
   9   0  -9   16.65    8.02   2
  -9   0   9   11.80    7.17   5
   9   0  -9    7.78    8.58   3
  -9   0   9    6.97    7.32   1
  11   0  -9   27.59   11.58   2
 -11   0   9    5.45    9.65   1
 -11   0   9   20.70   10.72   5
 -11   0  -9    3.98    6.92   4
  11   0   9   34.22   17.20   1
   0  -1   9  318.58   38.86   1
   0   1   9  305.19   18.54   4
   0   1  -9  278.70   17.46   4
   0  -1   9  341.25   24.65   5
   0  -1   9  292.27   18.58   2
   0  -1  -9  285.79   20.20   3
   0   1  -9  283.71   19.20   3
   0   1   9  288.40   38.92   1
   0   1   9  307.81   21.84   5
  -2  -1  -9  160.58   15.55   3
   2   1   9   84.76   21.73   1
  -2   1   9  155.08   27.82   1
   2  -1  -9  148.58   17.33   3
  -2   1  -9  129.19   15.42   4
   2   1   9  154.67   16.74   4
   2  -1   9  152.49    8.94   2
  -2  -1   9  166.93   28.34   1
  -2  -1   9  144.53   17.89   5
   2   1  -9  142.40   10.46   4
   2   1  -9  131.49   16.41   3
  -2  -1   9  157.52   14.71   2
   2  -1   9  137.52   26.55   1
  -2   1  -9  163.17   14.90   3
   2  -1  -9  159.61   11.31   2
  -2   1   9  147.37   17.65   5
  -2   1   9  151.01   11.60   4
  -4   1  -9  134.26   12.28   3
  -4  -1   9  120.55   24.20   1
   4  -1   9  114.76   10.35   2
   4  -1   9   91.10   20.77   1
   4  -1  -9   99.83   12.34   2
   4   1  -9   98.41   13.89   2
   4  -1  -9  105.16   16.32   3
  -4   1   9  111.51   16.37   5
   4   1   9   72.55   17.87   1
  -4  -1   9   77.49   13.88   5
  -4   1  -9   96.97   15.20   4
   4   1  -9   80.08   14.41   3
  -4   1   9   97.62   21.30   1
  -4  -1  -9  103.93   12.61   3
  -4  -1  -9   94.39   14.24   4
   6   1  -9  160.00   21.78   3
   6   1   9  183.73   29.39   1
  -6  -1  -9  185.97   22.03   4
   6  -1   9  134.69   25.92   1
  -6   1   9  160.47   20.86   5
  -6  -1   9  122.02   17.86   5
   6   1  -9  168.98   20.41   2
   6  -1   9  186.30   14.86   2
   6  -1  -9  191.02   19.56   2
  -6   1  -9  203.33   23.05   4
   6  -1  -9  183.67   22.32   3
  -6  -1   9  205.27   31.02   1
  -6   1   9  164.65   27.35   1
   8   1  -9   13.10    6.97   2
   8  -1  -9   13.37    7.85   3
   8   1   9   25.11   11.87   1
  -8   1  -9   14.19    7.56   4
  -8  -1   9   19.18    7.58   5
  -8  -1  -9    0.09    4.48   4
  -8  -1   9    2.09    5.79   1
  -8   1   9   20.90   10.65   1
   8  -1   9    7.07    8.74   1
  -8   1   9    1.75    4.62   5
   8  -1  -9   14.77    7.29   2
   8   1  -9    6.53    8.23   3
 -10  -1   9   43.79   12.71   5
 -10  -1  -9   73.10   16.34   4
 -10   1  -9   75.28   17.10   4
 -10   1   9   44.25   15.84   1
 -10  -1   9   92.18   23.57   1
  10   1  -9   49.03   13.83   2
  10   1   9   94.75   25.43   1
  10  -1  -9   67.98   16.89   2
  10  -1   9   51.44   18.42   1
 -10   1   9   72.76   16.21   5
  -1   2  -9   74.04   10.89   3
  -1  -2   9   53.49   11.55   5
   1   2  -9   67.45   11.77   3
   1  -2   9   59.10   14.21   5
   1  -2  -9   71.35    6.46   2
  -1  -2  -9   67.56   11.56   3
  -1   2  -9   71.55   10.96   4
  -1   2   9   61.32   18.70   1
   1   2  -9   64.60    8.86   4
  -1   2   9   83.28   13.09   5
   1  -2   9   80.94    9.66   2
   1   2   9   51.15    9.82   4
  -1  -2   9   52.54   17.33   1
   1  -2   9   88.52   21.31   1
   1  -2  -9   61.53   11.74   3
  -1   2   9   70.09   10.27   4
  -1  -2   9   76.95   13.95   2
   1   2   9   60.46   18.17   1
  -3  -2  -9    2.72    3.17   3
  -3   2   9   -5.11    4.23   1
   3   2   9    2.47    4.10   4
   3  -2  -9    4.64    3.81   3
   3  -2   9    6.57    8.18   1
   3   2  -9    3.50    2.25   4
  -3   2   9    3.69    3.91   5
  -3  -2   9    0.60    3.38   5
   3   2  -9   -0.10    3.63   3
  -3  -2   9    1.19    6.49   1
  -3   2  -9    3.30    3.46   3
   3  -2   9    0.96    2.10   2
  -3   2   9    2.24    3.12   4
  -3   2  -9    6.40    3.99   4
   3   2   9   -0.83    5.34   1
   3  -2  -9    0.29    2.73   2
  -5   2   9   36.67   13.12   1
  -5  -2  -9   88.25   14.93   4
  -5   2  -9  106.38   16.54   4
  -5  -2   9   74.50   17.64   1
   5  -2   9   67.07   10.01   2
   5   2  -9   59.56   12.45   3
   5  -2   9   69.65   19.18   1
   5   2  -9   97.91   15.67   2
  -5   2   9   58.23   12.56   5
   5   2   9   64.64   17.20   1
  -5  -2  -9   85.72   12.25   3
   5  -2  -9   65.92   11.24   2
  -5  -2   9   54.53   11.86   5
   5  -2  -9   57.59   12.25   3
   7  -2   9    6.21    5.53   2
  -7  -2   9   -1.88    3.47   5
   7   2  -9   -0.55    4.28   2
  -7   2   9   16.60    6.89   5
  -7  -2  -9    0.75    4.10   4
  -7   2  -9    9.93    5.06   4
   7  -2   9   -1.29    5.36   1
  -7   2   9    5.23    7.20   1
  -7  -2   9   10.38    7.42   1
   7   2  -9   12.28    6.55   3
   7  -2  -9    1.25    5.17   3
   7   2   9    2.33    7.53   1
   7  -2  -9   -2.94    3.11   2
  -9  -2   9   18.55    7.23   5
   9   2  -9   11.94    8.27   3
  -9  -2   9    8.73    8.42   1
  -9   2   9   13.04    7.00   5
   9  -2   9    3.15    6.73   1
   9  -2  -9    2.25    8.14   3
   9  -2  -9   12.22    7.49   2
  -9  -2  -9   -5.71    4.62   4
   9   2  -9    8.64    6.28   2
   9   2   9    9.07   10.37   1
  -9   2   9   10.02    9.03   1
  -9   2  -9   -1.80    5.06   4
 -11  -2   9   38.66   13.95   1
  11   2  -9    6.74    7.36   2
 -11  -2   9   34.53   13.04   5
  11  -2  -9   23.24   10.65   2
 -11   2   9   22.18   13.89   1
  11  -2   9   -0.69   11.86   1
  11   2   9   16.38   15.28   1
 -11   2   9   19.69    9.46   5
 -11   2  -9   23.57   10.11   4
   0  -3  -9   28.92    8.10   3
   0  -3   9   33.94    9.83   5
   0  -3   9   27.34    8.66   2
   0   3  -9   32.72    8.19   3
   0   3  -9   21.48    6.08   4
   0   3   9   32.34    8.11   4
   0   3   9   42.34   16.17   1
   0  -3   9   28.09   12.05   1
  -2  -3   9   99.52   16.12   5
   2   3  -9  105.86   10.23   4
   2  -3   9  113.47   21.97   1
   2  -3  -9   74.63   13.10   3
  -2   3   9   71.11   19.34   1
  -2   3  -9   73.57   11.83   4
   2  -3   9   91.75   11.55   2
  -2   3   9  117.72   16.50   5
  -2   3  -9  105.31   11.98   3
  -2   3   9   84.95   11.26   4
   2  -3  -9   97.14    7.91   2
  -2  -3   9   83.02   14.25   2
  -2  -3   9   87.73   20.87   1
   2   3   9   89.54   13.72   4
   2   3  -9   76.78   13.18   3
   2   3   9   64.88   18.27   1
  -2  -3  -9   75.45   12.14   3
  -4  -3   9    0.81    6.30   1
  -4   3   9    2.54    5.41   1
   4   3   9    9.41    4.79   4
  -4  -3  -9    2.39    4.00   3
  -4   3  -9    8.08    4.38   4
   4  -3   9    2.25    5.30   1
   4   3  -9    3.12    5.05   2
  -4   3   9   -1.55    3.53   4
  -4   3   9   -0.01    4.17   5
   4  -3  -9    4.40    4.27   2
   4   3  -9    6.56    4.54   3
   4  -3   9    1.21    2.80   2
  -4  -3   9    7.60    4.95   5
   4   3   9    9.36    6.96   1
   4  -3  -9   -3.15    2.75   3
   6   3  -9    1.23    5.88   3
  -6   3   9   -1.83    5.42   1
   6  -3  -9    0.89    3.63   2
   6   3  -9    6.63    4.88   2
  -6   3   9    4.60    5.59   5
   6  -3   9    1.94    3.59   2
  -6  -3  -9   -1.58    4.02   3
  -6  -3   9    9.57    6.02   5
  -6   3  -9   12.48    5.33   4
  -6  -3  -9    9.35    5.61   4
  -6  -3   9    1.84    6.40   1
   6  -3  -9    8.50    5.06   3
   6   3   9    7.22    7.62   1
   6  -3   9    0.68    6.43   1
  -8   3   9   19.95    8.39   5
  -8  -3   9   16.12    9.19   1
  -8  -3  -9   12.15    7.04   4
   8   3  -9   13.38    8.80   3
   8  -3   9    4.45    7.96   1
   8   3  -9   16.65    8.41   2
  -8  -3   9   11.63    6.72   5
   8  -3   9   22.78    8.71   2
  -8   3  -9   12.95    7.00   4
  -8   3   9   21.94   11.36   1
   8  -3  -9   33.29   10.70   3
   8  -3  -9    7.24    5.58   2
   8   3   9   20.22   11.13   1
 -10   3   9    3.51    9.46   1
  10   3  -9    1.23    8.11   3
  10   3  -9    6.60    6.52   2
 -10  -3  -9   -1.57    5.67   4
 -10   3   9    9.20    7.07   5
  10  -3   9  -10.42    7.98   1
 -10  -3   9   -1.11    6.51   1
  10   3   9    4.13    9.84   1
 -10   3  -9    1.37    6.28   4
 -10  -3   9    2.64    5.91   5
  10  -3  -9    0.43    6.36   2
   1  -4  -9  353.10   24.32   3
  -1   4   9  274.03   39.80   1
   1  -4   9  306.12   23.76   2
  -1   4   9  342.29   22.06   4
  -1  -4   9  370.74   34.40   2
  -1  -4  -9  384.71   24.81   3
   1   4  -9  387.47   24.53   3
   1  -4   9  400.13   34.40   1
   1   4  -9  359.37   20.23   4
  -1   4  -9  335.16   20.85   3
  -1  -4   9  327.94   26.38   5
   1   4   9  356.77   23.56   4
   1  -4   9  383.53   30.37   5
   1   4   9  346.48   40.01   1
  -1  -4   9  310.77   37.28   1
  -1   4  -9  341.06   21.84   4
  -3   4   9  111.95   13.53   4
  -3   4  -9  140.94   12.68   3
  -3   4  -9   94.54   14.79   4
   3  -4   9  127.24   14.56   2
   3   4  -9  123.17   17.64   3
  -3  -4   9  170.70   28.97   1
  -3   4   9  118.00   23.47   1
   3  -4   9  107.74   22.41   1
  -3  -4  -9  125.35   16.44   3
   3   4   9  107.03   15.74   4
  -3  -4   9  132.85   18.74   2
  -3   4   9  156.39   19.07   5
   3  -4  -9  131.38   17.79   3
   3  -4  -9  126.91   11.72   2
   3   4   9  117.28   21.55   1
  -3  -4   9  127.74   18.81   5
  -5   4   9  264.60   26.36   5
   5  -4  -9  278.49   20.28   2
   5   4   9  249.07   25.29   4
   5   4   9  261.63   32.65   1
   5  -4   9  266.53   35.63   1
  -5  -4   9  247.20   34.23   1
   5  -4   9  327.06   21.95   2
   5  -4  -9  239.95   24.82   3
  -5  -4  -9  327.41   22.49   3
  -5  -4   9  273.53   26.28   5
   5   4  -9  272.20   27.50   3
  -5   4  -9  255.51   25.49   4
  -5   4   9  232.74   31.84   1
   7  -4   9   75.66   19.08   1
  -7   4   9   55.22   16.14   1
  -7   4   9   76.21   15.76   5
   7   4  -9   92.01   18.73   3
   7  -4   9   98.42   15.71   2
   7   4   9   79.68   18.90   1
  -7   4  -9   82.36   16.42   4
  -7  -4   9   78.00   20.17   1
   7  -4  -9   71.48   15.47   3
  -7  -4  -9   91.07   16.06   4
   7  -4  -9   97.52   16.26   2
   7   4  -9   81.08   16.79   2
  -7  -4   9   77.98   14.87   5
  -9  -4   9   64.93   18.50   1
   9  -4   9   25.14   12.20   1
   9   4   9   59.21   18.25   1
  -9   4   9   63.37   17.91   1
  -9  -4   9   46.66   11.90   5
  -9   4   9   51.64   13.58   5
   9  -4   9   38.88   11.84   2
   9  -4  -9   35.86   11.75   2
  -9  -4  -9   54.53   13.60   4
  -9   4  -9   34.19   10.68   4
   9   4  -9   69.53   16.95   2
   9   4  -9   81.82   18.67   3
 -11  -4   9   47.83   14.17   5
  11   4  -9   47.81   14.41   2
 -11  -4   9   75.56   19.88   1
  11   4   9  118.83   28.65   1
  11  -4  -9   44.61   14.84   2
 -11   4  -9   24.71   12.26   4
 -11   4   9   62.07   18.15   5
   0   5   9  794.17   38.92   4
   0  -5   9  879.73   47.92   5
   0   5  -9  867.95   38.64   3
   0   5   9  825.22   55.66   1
   0  -5   9  831.03   51.12   1
   0   5  -9  859.28   37.28   4
   0  -5  -9  854.51   42.36   3
   0  -5   9  878.88   50.39   2
  -2  -5   9  184.57   23.19   5
  -2  -5   9  198.45   32.15   1
   2   5   9  172.67   19.82   4
   2   5  -9  210.39   14.79   4
  -2  -5  -9  213.41   21.41   3
   2  -5  -9  209.87   12.65   2
  -2   5  -9  190.62   14.98   3
  -2   5   9  158.36   17.36   4
   2  -5  -9  198.24   21.15   3
   2   5   9  179.56   27.06   1
  -2   5   9  183.84   30.41   1
   2   5  -9  205.02   21.25   3
  -2   5  -9  182.60   18.98   4
  -2  -5   9  252.86   28.99   2
   2  -5   9  233.75   30.23   1
   2  -5   9  209.38   22.61   2
   4  -5  -9  417.83   29.43   3
  -4   5   9  420.10   24.68   4
  -4  -5   9  373.14   40.94   1
   4   5   9  392.37   27.48   4
  -4   5  -9  401.66   27.88   4
   4  -5   9  381.88   25.15   2
   4  -5  -9  408.29   23.02   2
  -4   5   9  393.34   40.65   1
   4   5  -9  381.94   28.92   3
  -4  -5   9  407.32   29.51   5
  -4  -5  -9  427.04   27.56   3
   4  -5   9  418.59   35.79   1
   4   5   9  410.84   32.77   1
  -4  -5   9  423.06   31.48   2
  -6   5   9  246.20   26.92   5
  -6  -5  -9  239.69   23.10   3
  -6  -5   9  229.48   25.69   5
  -6   5   9  221.50   31.87   1
  -6  -5   9  218.64   27.86   2
   6  -5  -9  232.73   22.32   2
   6   5  -9  257.90   29.27   3
   6  -5   9  277.77   35.91   1
  -6  -5   9  192.43   31.01   1
   6   5   9  272.21   31.46   1
   6  -5   9  246.45   23.51   2
   6   5   9  226.58   25.62   4
   6  -5  -9  268.49   27.76   3
  -6   5  -9  183.31   24.60   4
   8   5  -9   95.53   18.91   2
  -8   5   9   92.65   22.01   1
   8  -5   9   69.27   14.78   2
  -8  -5   9  102.79   17.40   5
  -8  -5   9  121.78   25.55   1
   8   5   9   67.10   17.04   1
   8  -5  -9   78.24   15.82   2
  -8   5  -9  115.33   21.11   4
   8   5  -9   89.04   19.27   3
   8  -5   9   78.28   20.19   1
  -8  -5  -9   90.51   17.04   4
 -10   5   9   91.98   23.77   1
  10  -5   9   83.60   21.41   1
  10  -5  -9   62.60   15.45   2
  10   5   9   72.96   21.26   1
 -10  -5   9   95.68   18.11   5
 -10  -5   9   94.64   23.33   1
 -10   5  -9  117.35   22.76   4
  10   5  -9   94.95   22.56   3
  10   5  -9   98.14   21.28   2
  -1   6   9   15.40    6.74   4
   1  -6  -9   23.43    7.67   3
   1  -6   9    8.97    7.37   2
  -1   6  -9    5.57    4.11   4
   1   6  -9   23.02    7.88   3
   1  -6   9   20.01    9.87   1
  -1  -6   9   16.32    8.63   5
   1   6   9    9.54    8.18   1
   1   6  -9    8.46    5.06   4
   1   6   9   16.23    6.40   4
  -1  -6   9   -7.26    5.60   2
  -1   6   9   16.31   10.66   1
  -1   6  -9   17.43    6.63   3
  -1  -6   9   24.32   10.54   1
  -1  -6  -9   10.31    5.77   3
   3   6  -9   96.19   16.93   3
   3  -6   9   68.93   14.03   2
  -3   6   9   82.15   13.56   4
  -3  -6   9   92.11   21.65   1
   3   6   9   76.94   16.92   1
   3  -6   9  112.20   20.71   1
  -3   6   9   82.49   20.07   1
  -3  -6   9   72.39   14.81   5
  -3  -6   9   63.35   15.52   2
  -3  -6  -9   50.41   10.86   3
  -3   6  -9   65.63   13.07   4
   3  -6  -9   68.41   13.89   3
   3   6   9   61.37   12.37   4
   3  -6  -9   95.12   11.76   2
   5  -6  -9  -12.91    3.41   3
  -5  -6   9    7.79    7.24   1
  -5  -6   9   -2.07    5.30   2
  -5   6   9    6.44    5.06   4
   5   6   9    5.14    4.63   4
   5  -6   9    2.16    3.87   2
  -5  -6  -9    0.70    3.50   3
   5  -6  -9   -1.78    4.41   2
   5   6  -9    1.83    4.47   3
  -5   6   9    2.98    6.83   1
  -5  -6   9   -5.31    3.40   5
   5  -6   9    4.34    5.49   1
  -5   6  -9    1.09    4.24   4
   5   6   9    6.92    6.12   1
  -7  -6   9   22.99   11.98   1
  -7   6   9    3.11    7.34   1
   7  -6  -9   27.19    9.24   3
   7  -6  -9   39.61   10.23   2
   7  -6   9   27.43   11.13   1
  -7   6  -9   20.99    8.68   4
   7   6   9   22.91    8.51   4
   7   6   9   27.28   11.14   1
  -7  -6   9   32.29   10.04   5
  -7  -6  -9   31.64    9.13   3
   7  -6   9   15.81    7.83   2
   7   6  -9   21.67   11.63   3
  -7  -6   9   26.50   10.65   2
  -9   6   9   20.55   11.65   1
  -9  -6   9   -8.83    7.17   1
   9  -6   9   -0.63    6.88   1
   9  -6  -9    2.49    6.35   2
  -9  -6   9   -3.61    6.47   5
   9   6   9   16.34   10.74   1
   9   6  -9   41.08   13.73   3
  -9   6  -9    8.78    6.69   4
  -9  -6  -9   20.31    8.80   4
   9  -6   9    7.88    7.26   2
  11   6  -9   -5.80   11.85   3
 -11  -6   9  -25.46    9.32   1
   0   7  -9   18.03    6.50   4
   0   7  -9   14.74    6.68   3
   0  -7  -9   15.51    6.86   3
   0  -7   9   17.49    8.41   5
   0  -7  -9   20.18    6.27   5
   0   7   9   23.41    7.73   4
   0   7   9   14.22    9.48   1
   0  -7   9   23.76   10.59   2
   0  -7   9   22.62    9.45   1
  -2  -7  -9   40.00    7.63   5
   2  -7   9   58.07   14.96   1
  -2  -7   9   60.15   14.48   5
   2   7  -9   75.35   14.35   3
   2   7   9   70.58   13.56   4
  -2   7   9   60.19   17.70   1
  -2  -7   9   41.69   14.02   1
   2   7  -9   57.61   10.27   4
   2  -7   9   41.54   12.95   2
  -2  -7  -9   81.11   15.19   3
   2   7   9   53.31   14.41   1
  -2   7   9   66.46   13.15   4
  -2   7  -9   58.53   12.32   4
   2  -7  -9   52.34   12.00   3
  -2   7  -9   70.43   11.71   3
  -2  -7   9   85.85   20.90   2
  -4  -7   9   -2.77    4.53   2
  -4   7   9   -2.47    6.60   1
  -4  -7   9   -0.36    5.68   1
  -4   7   9   -0.27    3.62   4
   4  -7  -9    3.91    4.74   2
   4  -7  -9    9.59    5.33   3
   4  -7   9   -0.17    5.49   1
  -4  -7   9    2.77    4.96   5
   4   7  -9    0.28    3.82   3
   4   7   9   -3.96    2.81   4
  -4   7  -9   -6.82    3.51   4
   4  -7   9    9.36    6.73   2
   4   7   9    4.18    5.48   1
  -4  -7  -9    1.27    2.59   5
  -4  -7  -9    1.43    3.38   3
   6   7   9    8.58    5.40   4
   6  -7  -9   12.29    7.10   3
  -6  -7   9   -1.99    6.48   1
   6  -7   9   -3.38    5.49   1
  -6  -7  -9   -4.29    3.93   3
  -6   7   9   -7.46    5.53   1
   6   7  -9    4.01    4.28   3
  -6  -7   9    6.19    5.18   5
   6  -7   9   11.05    6.76   2
   6   7   9    3.13    6.44   1
  -6   7  -9   -0.24    4.17   4
   6  -7  -9    5.32    4.70   2
  -6  -7   9    4.67    6.24   2
   8   7  -9    4.29    8.28   3
   8  -7   9   13.69    7.97   2
   8  -7   9   21.30   10.79   1
  -8   7  -9   19.26    8.68   4
  -8  -7   9   -3.19    7.09   2
  -8  -7   9   18.93    7.75   5
  -8   7   9  -10.21    6.26   1
  -8  -7   9   27.66    9.97   1
   8  -7  -9   -0.41    4.78   2
   8   7   9   16.72    9.30   1
   8   7   9    7.43    6.98   4
 -10  -7   9  -12.36    7.28   2
 -10   7   9    6.44   11.07   1
  10  -7  -9   -8.01    6.81   2
  10  -7   9  -16.29    6.77   1
 -10  -7   9   16.95    8.98   1
 -10   7  -9    8.01    8.14   4
 -10  -7   9    5.14    7.16   5
  10  -7   9    7.82    9.89   2
  10   7  -9   -0.90    9.37   3
  -1   8  -9  439.67   27.39   3
   1   8  -9  383.08   27.66   3
  -1   8   9  488.83   40.54   1
  -1  -8   9  499.06   35.80   5
  -1   8   9  462.14   30.95   4
   1  -8   9  445.80   33.80   1
  -1   8  -9  443.66   29.10   4
  -1  -8  -9  437.97   31.25   3
   1   8   9  467.87   31.59   4
   1  -8  -9  506.36   29.16   5
   1   8  -9  404.31   26.02   4
  -1  -8  -9  445.79   25.34   5
   1   8   9  538.75   36.44   1
   1  -8  -9  396.29   30.17   3
   1  -8   9  482.84   43.78   2
  -1  -8   9  464.97   34.44   1
  -1  -8   9  461.80   45.48   2
  -3   8  -9  202.32   24.44   4
  -3   8   9  204.10   22.34   4
  -3  -8   9  253.01   29.45   5
   3  -8   9  204.29   28.31   2
   3   8  -9  218.09   24.95   3
  -3  -8   9  224.74   33.36   2
  -3  -8  -9  205.91   15.13   5
  -3  -8   9  162.38   29.03   1
  -3   8   9  258.10   35.10   1
   3   8   9  250.14   25.49   1
  -3  -8  -9  187.29   23.79   3
   3  -8   9  237.49   27.28   1
   3   8   9  204.48   24.49   4
   3  -8  -9  192.53   24.03   3
  -5  -8  -9  334.71   18.46   5
  -5  -8   9  366.53   42.26   1
  -5  -8  -9  357.33   29.03   3
   5  -8   9  290.52   33.38   1
   5   8  -9  330.85   33.25   3
   5  -8   9  416.69   32.97   2
  -5   8   9  411.97   43.15   1
  -5   8  -9  322.35   32.14   4
   5  -8  -9  368.45   25.57   2
  -5  -8   9  339.96   32.80   5
   5   8   9  378.00   29.80   1
   5  -8  -9  341.23   32.38   3
  -5   8   9  382.76   27.17   4
  -5  -8   9  356.30   39.19   2
   5   8   9  370.49   29.56   4
   7   8   9  131.84   22.43   4
   7   8  -9  139.05   24.97   3
  -7  -8   9  107.48   22.56   2
   7  -8   9  143.37   23.61   2
  -7  -8  -9  105.38   18.49   3
   7  -8   9  125.23   24.35   1
   7  -8  -9  158.57   21.79   2
  -7   8  -9  137.04   24.04   4
  -7  -8   9  121.73   25.34   1
  -7  -8   9  107.75   18.74   5
  -7   8   9  137.14   26.82   1
   9  -8   9   92.78   19.75   2
  -9  -8  -9   63.01   15.08   4
   9   8  -9   62.37   18.03   3
   9  -8  -9   96.36   18.99   2
  -9  -8   9  107.27   20.14   5
  -9  -8   9   96.28   23.85   2
  -9   8   9   93.17   23.49   1
  -9   8  -9  106.44   21.42   4
   9  -8   9  115.10   26.46   1
   0   9   9  125.43   19.27   4
   0  -9  -9  132.92   19.93   3
   0  -9   9  136.39   23.01   5
   0   9  -9  180.84   20.85   4
   0  -9   9  196.95   24.46   1
   0   9  -9  174.06   20.45   3
   0  -9   9  182.36   29.42   2
   0   9   9  165.44   23.90   1
   0  -9  -9  116.85   16.10   5
  -2  -9  -9   96.86   17.59   3
   2  -9   9   88.19   21.06   2
   2  -9   9   76.85   15.17   1
  -2   9  -9   88.84   15.68   4
  -2  -9   9   93.68   18.15   5
  -2   9   9  107.30   17.92   4
   2  -9  -9   81.17   15.97   3
   2  -9  -9   76.21   13.89   5
  -2   9   9  114.35   24.33   1
  -2  -9   9   80.79   20.94   2
  -2  -9   9   96.99   19.13   1
  -2  -9  -9  110.79   14.37   5
   2   9   9   84.02   16.17   4
   2   9  -9   67.61   14.22   3
   4   9  -9   42.22   12.85   3
  -4   9   9   44.74   11.15   4
  -4  -9  -9  104.30   18.99   3
  -4  -9  -9   51.60    9.11   5
  -4   9  -9   53.85   13.02   4
  -4  -9   9   64.76   16.18   1
   4   9   9   49.72   13.59   4
  -4   9   9   69.50   17.65   1
  -4  -9   9   53.64   16.61   2
   4  -9   9   53.24   15.53   2
   4  -9   9   66.38   15.41   1
   4  -9  -9   48.62   13.19   3
  -4  -9   9   52.64   13.58   5
   6   9  -9   98.77   20.48   3
  -6  -9  -9  106.31   19.06   3
  -6   9   9   99.50   23.24   1
   6  -9   9  132.16   23.27   1
  -6  -9  -9  127.81   11.74   5
  -6   9  -9  104.55   19.95   4
  -6  -9   9  140.59   21.64   5
  -6  -9   9   94.51   21.20   2
   6  -9  -9  200.46   27.55   3
   6   9   9  118.73   20.51   4
   6  -9  -9  105.75   17.72   2
   6  -9   9  123.60   22.40   2
  -8  -9  -9   -3.98    5.90   3
   8   9   9    0.34    6.43   4
  -8   9  -9    1.26    7.58   4
   8   9  -9    2.62    8.65   3
  -8  -9   9   11.44    9.31   2
  -8  -9   9    4.05    6.17   5
   8  -9  -9    5.75    6.14   2
  -8   9   9    2.69    9.89   1
   8  -9   9    3.07    8.42   1
   8  -9   9    7.93    8.95   2
  10  -9   9   65.02   19.79   2
  10  -9  -9   38.69   14.78   2
 -10   9   9   71.21   23.91   1
  -1 -10  -9    5.73    4.04   5
   1 -10  -9   16.25    8.31   3
   1  10   9   -1.30    4.42   4
   1  10  -9   14.66    6.59   4
   1  10  -9    2.87    5.31   3
  -1 -10   9   -1.16    5.91   5
  -1  10   9   17.51    7.26   4
   1 -10  -9   -4.76    3.26   5
  -1 -10   9    2.80    8.44   2
  -1  10  -9    5.68    5.34   4
  -1 -10  -9    0.18    4.78   3
   1 -10   9   20.57   10.95   2
  -1  10  -9    7.19    5.09   3
  -3 -10   9   41.95   16.57   2
   3 -10   9   42.70   15.35   2
  -3  10   9   48.28   12.34   4
  -3 -10  -9   34.38   11.11   3
   3  10   9   61.22   14.59   4
  -3 -10  -9   34.04    8.04   5
   3  10  -9   36.89   12.11   3
   3 -10   9   56.10   13.49   1
   3 -10  -9   44.83   12.37   3
  -3  10  -9   61.07   13.91   4
   3 -10  -9   47.42   12.32   5
  -3 -10   9   72.14   16.26   5
  -5 -10  -9   -0.42    3.16   5
   5 -10  -9   -8.55    5.38   3
  -5  10   9    3.66    5.60   4
   5  10   9    1.55    4.46   4
  -5  10  -9   -4.07    4.39   4
   5 -10   9    3.04    7.75   2
   5 -10   9    5.29    6.22   1
  -5 -10   9    4.07    5.61   5
   5  10  -9   -1.71    5.74   3
  -5 -10   9   11.30    9.08   2
  -5 -10  -9   -4.76    4.79   3
   7  10   9   28.17   10.96   4
   7 -10   9   15.06   10.52   2
  -7 -10   9   38.33   13.91   2
  -7  10   9   17.90   10.37   1
   7  10  -9   15.48    8.84   3
  -7 -10  -9   20.68    8.75   3
  -7 -10  -9    4.84    3.85   5
  -7 -10   9   15.90    8.04   5
  -7  10  -9   37.13   12.79   4
   7 -10   9   22.42   10.35   1
   9 -10   9   16.06   11.90   2
  -9  10  -9   -1.96    7.02   4
   9 -10   9    5.44   10.62   1
   9  10  -9   32.37   14.74   3
  -9 -10   9    1.55    7.21   5
  -9 -10   9  -12.02    9.19   2
   9  10   9    9.83   11.24   4
   0 -11   9   53.44   16.85   2
   0  11  -9   44.21   12.18   3
   0  11  -9   62.28   13.40   4
   0  11   9   89.12   17.74   4
   0 -11  -9   50.89   12.89   3
   0 -11  -9   51.81   11.22   5
   2 -11  -9    1.78    5.31   3
   2  11  -9    5.16    6.48   3
  -2  11  -9    8.29    5.81   4
  -2 -11  -9    2.60    3.33   5
  -2 -11  -9    6.71    6.79   3
  -2 -11   9    3.69    6.85   5
  -2 -11   9    2.53    8.53   2
   2 -11   9   14.31   12.23   2
   2 -11  -9    1.84    4.35   5
   2  11   9    2.01    5.03   4
  -2  11   9    8.02    5.35   4
  -4  11   9   25.45    9.56   4
  -4 -11   9   18.84   11.49   2
  -4  11  -9    8.68    6.88   4
   4  11   9    8.58    7.12   4
   4 -11   9    7.65    9.97   2
  -4 -11  -9   15.24    7.64   3
  -4 -11  -9   27.36    7.41   5
   4  11  -9   12.07    7.13   3
  -4 -11   9    4.10    6.63   5
   4 -11  -9   18.32    9.30   3
  -6  11  -9   19.32    9.09   4
   6  11  -9   33.42   13.65   3
  -6 -11  -9   33.95    7.25   5
  -6  11   9   28.80    9.50   4
  -6 -11  -9   14.40    6.83   3
  -6 -11   9   27.47   11.75   2
   6 -11   9   52.22   16.86   2
  -6 -11   9   33.18   12.90   5
   6  11   9   31.93   11.76   4
   8  11   9   -9.72    7.59   4
  -8 -11   9   13.32   12.03   2
   8  11  -9    0.48   10.22   3
   8 -11   9   13.87   12.54   2
  -8  11  -9    0.55    5.83   4
  -8 -11   9   -3.73    6.77   5
  -8 -11  -9  -12.84    6.08   3
   1  12  -9  124.47   20.10   4
   1 -12  -9  101.26   18.11   5
   1  12   9   89.54   18.11   4
  -1  12  -9  120.31   20.47   4
  -1 -12  -9  122.23   17.98   5
  -1 -12   9  130.54   26.20   2
  -1 -12   9  141.30   23.79   5
  -1 -12  -9  103.40   20.06   3
   1 -12  -9   94.97   18.73   3
   1  12  -9   79.40   16.59   3
  -1  12   9   87.10   17.74   4
   1 -12   9  115.37   24.73   2
   3  12  -9   30.34   11.41   3
   3 -12  -9   29.85   10.09   5
   3 -12  -9   28.53   11.61   3
  -3  12  -9   58.96   14.90   4
  -3 -12   9   36.49   15.62   2
  -3 -12  -9   43.27   12.27   3
  -3 -12   9   39.54   12.39   5
  -3 -12  -9   23.30    7.56   5
  -3  12   9   49.10   13.55   4
   3 -12   9   20.94   13.91   2
   3  12   9   42.94   13.00   4
  -5 -12  -9  117.48   15.25   5
  -5 -12   9  100.58   25.38   2
   5 -12   9   88.38   24.02   2
   5 -12  -9  112.62   22.91   3
  -5  12   9  101.00   20.13   4
  -5 -12   9   79.27   19.09   5
   5  12  -9   68.09   17.71   3
   5  12   9   98.57   20.03   4
  -5 -12  -9   99.91   20.32   3
  -5  12  -9   79.25   18.56   4
  -7 -12  -9   28.21    6.93   5
  -7  12  -9   18.56   10.13   4
  -7 -12  -9   28.99   10.60   3
  -7 -12   9   44.31   18.85   2
   7  12   9   36.07   14.04   4
  -7 -12   9   36.00   12.98   5
   7 -12   9   23.59   13.05   2
   7  12  -9   47.50   16.82   3
   0  13  -9   48.53   12.48   3
   0 -13  -9   44.44   11.55   5
   0  13  -9   64.58   14.92   4
   0  13   9   71.31   16.83   4
   0 -13   9   44.45   16.84   2
   0 -13  -9   39.71   12.32   3
   2 -13  -9   -2.03    6.73   3
  -2 -13   9   15.18    7.66   5
  -2  13  -9    9.50    6.40   4
  -2 -13   9    8.08    9.66   2
  -2 -13  -9    8.37    7.88   3
   2 -13  -9    3.25    4.93   5
   2  13   9    7.27    8.42   4
  -2 -13  -9    4.92    6.03   5
   2 -13   9   -8.32    8.01   2
   2  13  -9    4.23    7.13   3
  -2  13   9   -2.70    5.02   4
  -4 -13  -9    8.62    5.62   5
  -4 -13  -9   25.71   10.09   3
   4 -13   9   14.91   11.37   2
   4  13  -9    7.25    6.77   3
  -4 -13   9    4.37   10.49   2
   4 -13  -9   26.54   11.63   3
  -4  13   9   13.33    8.60   4
  -4  13  -9    2.83    7.10   4
  -4 -13   9    9.10    7.43   5
   4  13   9   26.85   10.39   4
  -6 -13   9   32.86   13.33   5
  -6 -13  -9   30.94   12.14   3
  -6 -13   9    7.36   13.92   2
   6 -13   9   37.06   17.60   2
  -6 -13  -9   36.48    8.27   5
  -6  13  -9   44.23   15.16   4
   6  13   9    8.87   10.01   4
   6  13  -9   17.25    8.78   3
  -6  13   9   54.06   15.15   4
   8  13   9   31.91   14.31   4
   1 -14  -9   50.21   13.49   5
  -1  14   9   33.26   12.43   4
  -1 -14  -9   48.91   15.43   3
   1  14  -9   20.65    9.84   3
   1  14   9   43.83   13.49   4
   1 -14   9   17.07   11.87   2
  -1 -14  -9   27.80    9.36   5
   1 -14  -9   55.72   15.94   3
  -1 -14   9   37.92   14.08   2
  -1  14  -9   17.07    9.24   4
  -3  14   9   17.18    8.14   4
  -3 -14  -9    7.11    8.38   3
  -3 -14   9    8.23    9.87   2
   3  14   9    5.45    7.43   4
   3 -14   9   21.50   10.95   2
   3  14  -9    8.64    7.11   3
  -3 -14   9    8.64    7.46   5
   3 -14  -9   -3.54    7.32   3
  -3 -14  -9    8.73    5.46   5
  -3  14  -9   -1.81    5.97   4
  -5  14   9   22.19   10.00   4
  -5  14  -9   31.37   12.36   4
  -5 -14  -9   46.18   10.31   5
   5  14  -9   36.26   13.72   3
   5 -14   9   20.96   15.29   2
  -5 -14   9   29.59   12.49   5
  -5 -14  -9   49.27   14.27   3
  -5 -14   9   56.07   24.07   2
   5  14   9   91.34   20.92   4
   7  14   9    1.15   11.37   4
   0 -15   9  111.82   24.94   2
   0  15  -9   51.69   15.72   4
   0  15   9   49.61   14.44   4
   0 -15  -9   59.87   16.43   3
   0 -15  -9   80.92   16.87   5
  -2 -15   9    9.79   11.40   2
   2  15  -9   25.14   10.48   3
  -2  15  -9   12.74    9.63   4
  -2 -15  -9    6.41    7.06   5
   2 -15  -9   20.71    8.95   5
  -2  15   9   -3.75    6.41   4
  -2 -15  -9   24.03   11.53   3
   2 -15  -9   20.16   11.89   3
   2  15   9   -2.22    6.83   4
   2 -15   9    3.79   10.55   2
   4  15  -9    2.59    7.99   3
  -4  15  -9   10.64   11.07   4
   4  15   9   24.90   13.64   4
  -4 -15  -9   25.50    8.72   5
   4 -15   9   47.58   20.30   2
  -4 -15  -9   23.64   12.22   3
  -4  15   9   10.90    8.73   4
  -4 -15   9   40.05   13.12   5
  -4 -15   9   21.27   17.93   2
  -6  15   9    7.28    7.38   4
   6  15   9   -8.95   10.79   4
  -1 -16  -9  -10.66    6.10   5
   1 -16  -9   -0.50    8.84   3
  -1  16  -9    4.28   10.29   4
   1 -16  -9    5.89    8.77   5
   1 -16   9    1.46    8.83   2
  -1 -16  -9   -7.23    7.45   3
  -1  16   9   -9.29    5.96   4
  -1 -16   9   -7.72    8.00   2
   1  16   9   -2.15    8.45   4
  -3  16   9    8.52    7.83   4
  -3  16  -9   13.56   10.35   4
   3  16  -9    9.26    8.16   3
  -3 -16  -9    7.34    7.11   5
   3 -16   9  -13.69   10.77   2
   3 -16  -9   -3.41   10.10   3
   3  16   9    5.68   11.01   4
  -3 -16   9   13.64   13.68   2
  -3 -16  -9   -9.63    7.91   3
  -5 -16   9   -1.17    9.68   5
   0 -17   9   33.78   16.29   2
   0  17   9   52.65   14.94   4
   0 -17  -9   31.14   11.86   5
   0 -17  -9   60.69   21.09   3
   2 -17  -9   60.43   19.74   3
  -2  17  -9   13.13   12.21   4
   2  17  -9   21.09   10.19   3
   0   0  10  259.23   17.47   4
   0   0 -10  251.26   19.34   3
   0   0  10  235.48   35.90   1
  -2   0 -10 2650.75   82.83   3
   2   0  10 2256.33  116.47   1
  -2   0 -10 2553.20   84.06   4
  -2   0  10 2542.80   89.61   5
   2   0 -10 2571.26   87.97   3
  -2   0  10 2545.05  116.94   1
  -2   0  10 2633.82   76.29   4
  -2   0  10 2704.93   79.50   2
   4   0 -10  339.95   22.19   2
   4   0 -10  303.64   24.61   3
   4   0  10  324.30   42.22   1
  -4   0 -10  333.24   20.47   3
  -4   0  10  334.55   25.60   5
  -4   0 -10  283.35   23.14   4
  -4   0  10  295.82   38.61   1
  -6   0 -10 1878.93   75.58   4
   6   0 -10 1822.11   76.90   3
  -6   0  10 1856.55   92.05   1
  -6   0  10 1963.26   76.66   5
   6   0 -10 1924.87   71.89   2
   6   0  10 1772.66   94.47   1
   8   0  10  215.45   36.41   1
  -8   0  10  268.92   29.05   5
   8   0 -10  268.93   31.10   3
   8   0 -10  287.74   29.60   2
  -8   0  10  258.63   37.92   1
  -8   0 -10  277.69   29.64   4
 -10   0 -10  948.04   56.15   4
 -10   0  10  925.25   68.36   1
 -10   0  10 1036.95   57.40   5
  10   0 -10  897.42   55.29   2
  10   0  10  857.65   69.54   1
  -1   1 -10  311.81   20.24   4
  -1  -1  10  348.23   23.95   2
   1  -1  10  315.36   13.93   2
  -1   1 -10  317.36   20.90   3
  -1  -1 -10  317.19   21.67   3
  -1  -1  10  342.95   24.92   5
  -1   1  10  350.30   45.39   1
  -1   1  10  312.75   18.78   4
   1  -1 -10  310.65   22.42   3
   1   1  10  260.21   38.56   1
   1   1  10  327.84   21.50   4
   1   1 -10  302.54   17.88   4
  -1  -1  10  306.76   41.42   1
  -1   1  10  286.91   22.72   5
   1   1 -10  289.75   21.92   3
   1  -1  10  274.00   39.13   1
   3  -1  10  346.21   43.75   1
  -3  -1 -10  446.83   25.17   3
   3   1  10  382.54   45.34   1
  -3  -1  10  384.28   44.64   1
  -3   1  10  389.86   44.85   1
   3   1 -10  425.96   19.55   4
   3   1 -10  378.41   27.05   3
   3  -1 -10  437.88   22.83   2
   3   1 -10  409.57   24.73   2
  -3   1 -10  444.52   24.04   3
  -3   1 -10  444.71   27.29   4
   3  -1 -10  369.42   26.58   3
  -3   1  10  470.56   21.40   4
  -3  -1  10  426.94   29.22   5
  -3   1  10  455.61   29.76   5
   5  -1 -10  152.37   21.49   3
   5  -1 -10  165.47   17.85   2
  -5  -1  10  159.84   28.69   1
   5   1 -10  165.16   19.19   2
  -5  -1 -10  137.45   19.03   4
  -5   1 -10  137.83   19.15   4
   5   1 -10  149.26   21.00   3
   5   1  10  168.13   30.78   1
  -5   1  10  136.71   19.58   5
  -5  -1  10  146.64   20.09   5
  -5  -1 -10  174.95   16.09   3
  -5   1  10  108.61   23.11   1
   5  -1  10  137.85   27.06   1
   7  -1 -10  165.50   24.31   3
  -7  -1  10  198.21   25.05   5
  -7  -1 -10  167.50   23.15   4
  -7   1 -10  153.57   21.89   4
   7   1 -10  155.17   21.46   2
  -7   1  10  171.64   30.06   1
   7   1  10  158.59   29.75   1
   7   1 -10  169.67   24.81   3
  -7   1  10  181.96   24.04   5
   7  -1 -10  188.68   22.49   2
  -7  -1  10  137.92   27.40   1
   7  -1  10  190.59   33.08   1
  -9   1 -10  111.31   20.51   4
  -9  -1  10  117.90   25.76   1
  -9  -1 -10  105.13   18.89   4
  -9   1  10   91.05   17.86   5
   9  -1 -10  147.62   24.51   3
  -9  -1  10   92.73   17.82   5
   9   1 -10   89.14   19.85   3
   9   1 -10   88.17   18.61   2
   9   1  10  112.91   27.29   1
   9  -1 -10   97.58   18.78   2
   9  -1  10   85.21   24.59   1
  -9   1  10   94.45   23.39   1
 -11  -1 -10   33.08   10.66   4
  11   1 -10   46.48   15.31   2
  11  -1 -10   19.40    9.96   2
 -11   1  10   50.82   14.66   5
 -11   1 -10   30.09   10.97   4
 -11  -1  10   27.45   12.36   5
   0   2 -10  659.31   32.55   3
   0  -2 -10  593.18   32.29   3
   0  -2  10  649.38   38.47   5
   0   2  10  526.28   52.16   1
   0  -2  10  596.26   47.94   1
   0   2 -10  594.26   28.91   4
   0  -2  10  587.45   30.97   2
   0   2  10  651.72   31.00   4
  -2   2 -10 2455.96   81.68   4
   2   2  10 2430.79   82.77   4
  -2   2  10 2478.87   86.52   5
  -2   2 -10 2419.69   78.31   3
  -2  -2  10 2485.98   88.95   5
   2  -2  10 2631.71  113.94   1
  -2   2  10 2384.05  112.42   1
   2   2  10 2105.36  111.30   1
  -2  -2  10 2495.42   83.80   2
   2   2 -10 2467.12   85.16   3
   2  -2  10 2477.73   71.69   2
  -2  -2  10 2486.06  114.44   1
  -2  -2 -10 2360.23   81.19   3
   2  -2 -10 2560.53   86.65   3
  -2   2  10 2511.65   76.48   4
   2   2 -10 2559.00   73.27   4
   4  -2  10  253.49   36.67   1
  -4   2 -10  383.32   26.70   4
   4  -2 -10  360.02   26.60   3
   4   2  10  407.69   27.37   4
  -4  -2  10  365.17   27.72   5
  -4   2  10  405.60   28.38   5
  -4  -2 -10  354.93   23.18   3
  -4   2  10  336.67   40.98   1
   4   2 -10  394.73   26.28   2
  -4   2 -10  381.16   20.45   3
   4  -2 -10  360.69   21.01   2
   4   2  10  367.22   42.93   1
  -4  -2  10  405.35   43.71   1
   4  -2  10  336.90   18.65   2
   4   2 -10  365.92   27.17   3
  -6   2  10 1319.01   74.42   1
   6   2 -10 1298.06   57.93   2
   6   2 -10 1242.01   61.51   3
  -6   2 -10 1353.71   59.86   4
  -6   2  10 1316.75   60.67   5
  -6  -2 -10 1235.41   58.06   4
   6   2  10 1227.51   73.69   1
   6  -2 -10 1279.44   54.00   2
  -6  -2  10 1327.08   60.14   5
   6  -2  10 1376.92   79.51   1
  -6  -2  10 1251.17   72.68   1
   6  -2 -10 1312.96   61.07   3
   8  -2  10  236.37   37.75   1
  -8  -2  10  182.44   24.85   5
  -8  -2 -10  180.20   24.52   4
   8  -2 -10  163.09   24.79   3
  -8   2 -10  189.14   26.36   4
   8   2 -10  173.74   26.78   3
   8  -2 -10  225.85   25.29   2
   8   2  10  278.62   39.67   1
   8   2 -10  213.67   26.65   2
  -8  -2  10  249.58   38.29   1
  -8   2  10  175.07   25.12   5
  -8   2  10  183.55   31.58   1
 -10   2 -10  631.33   45.10   4
  10   2  10  557.48   58.62   1
  10   2 -10  620.96   46.19   3
  10  -2 -10  584.70   42.70   2
 -10  -2  10  503.35   39.79   5
 -10   2  10  603.57   60.47   1
  10   2 -10  620.57   45.04   2
 -10  -2  10  594.02   60.88   1
 -10  -2 -10  661.53   43.79   4
 -10   2  10  673.01   46.16   5
  10  -2  10  608.64   65.10   1
   1   3 -10   89.87   14.23   3
   1   3 -10   79.29   10.54   4
   1  -3  10   80.04   12.26   2
  -1   3  10   58.37   19.32   1
  -1  -3  10   71.94   14.70   5
  -1   3  10   92.48   12.72   4
  -1  -3  10   77.46   20.40   1
   1   3  10   75.22   12.34   4
  -1  -3 -10   56.34   11.29   3
  -1   3 -10   68.98   11.14   4
  -1  -3  10   84.00   17.15   2
  -1   3 -10   84.99   12.53   3
   1   3  10   72.43   19.92   1
   1  -3  10   99.50   22.33   1
   1  -3 -10   75.44   13.39   3
  -3   3  10  165.35   13.40   4
  -3  -3  10  188.95   21.21   2
   3   3 -10  147.44   19.50   3
   3  -3 -10  152.93   19.89   3
  -3  -3  10  108.51   23.52   1
  -3   3  10  118.21   25.23   1
  -3   3 -10  154.11   18.33   4
  -3   3 -10  151.97   14.49   3
   3  -3  10  141.92   27.53   1
   3  -3  10  177.05   13.24   2
   3  -3 -10  153.97   12.25   2
  -3  -3  10  193.80   23.17   5
  -3  -3 -10  171.09   18.58   3
   3   3  10  171.73   20.16   4
   3   3  10  170.23   29.64   1
   5   3 -10   30.75   10.29   3
   5  -3 -10   27.19    8.11   2
   5   3 -10   24.32    7.91   2
   5   3  10   61.20   16.57   1
  -5  -3 -10   41.99    9.62   3
   5  -3  10   21.68    6.19   2
  -5   3 -10   29.22    8.80   4
   5  -3 -10   34.04    9.76   3
   5  -3  10   15.72    9.49   1
   5   3  10   14.90    6.46   4
  -5   3  10   28.04    9.49   5
  -5  -3  10   17.84    7.36   5
  -5   3  10    9.24    7.72   1
  -5  -3  10   26.83   12.03   1
  -7  -3  10   75.55   14.86   5
  -7  -3 -10   51.73   12.98   4
   7   3  10   55.53   18.00   1
   7   3 -10   43.49   11.83   2
   7   3 -10   78.82   16.97   3
  -7   3  10   49.08   16.25   1
  -7  -3  10   60.38   17.38   1
   7  -3 -10   67.18   15.08   3
   7  -3 -10   63.41   13.03   2
  -7   3  10   66.30   14.64   5
   7  -3  10   46.27   16.74   1
  -7   3 -10   52.29   13.51   4
  -9  -3  10   13.12    7.85   5
  -9   3  10   37.25   14.61   1
   9  -3 -10   20.39    9.48   2
   9   3 -10   39.35   13.78   3
  -9   3  10   20.23   10.37   5
   9  -3  10   30.95   14.37   1
   9   3 -10   32.93   12.13   2
  -9  -3  10    1.64   10.21   1
  -9  -3 -10    8.63    8.11   4
  -9   3 -10   32.18   11.77   4
   9   3  10   31.99   15.99   1
 -11  -3  10   -1.05    7.41   5
 -11   3 -10   21.03    9.01   4
  11   3 -10    9.21    7.20   2
  11  -3 -10   27.15   10.57   2
   0  -4  10  318.61   29.15   2
   0  -4  10  320.39   37.73   1
   0   4  10  331.58   41.52   1
   0   4  10  279.69   20.36   4
   0  -4  10  337.59   31.37   5
   0   4 -10  257.01   20.06   3
   0  -4 -10  273.73   22.33   3
   0   4 -10  290.86   19.58   4
   2   4  10 1132.96   49.49   4
  -2   4 -10 1082.33   47.43   4
  -2  -4  10 1128.37   71.37   1
   2  -4 -10 1112.93   51.17   3
  -2  -4 -10 1113.23   49.21   3
  -2  -4  10 1183.04   57.12   2
   2  -4  10 1067.86   45.18   2
  -2   4  10 1070.25   69.21   1
  -2   4 -10 1168.75   44.34   3
  -2  -4  10 1125.86   54.53   5
   2   4 -10 1225.65   42.57   4
  -2   4  10 1130.09   45.34   4
   2   4  10 1231.97   71.76   1
   2   4 -10 1111.43   49.52   3
   2  -4  10 1129.25   64.78   1
   4   4 -10  318.22   26.51   3
   4   4  10  368.74   39.14   1
  -4  -4 -10  316.40   23.68   3
   4  -4  10  347.87   41.74   1
   4   4  10  317.46   25.30   4
  -4  -4  10  330.54   26.97   2
   4  -4 -10  354.87   20.87   2
   4  -4  10  321.99   21.24   2
  -4   4  10  404.82   44.00   1
   4  -4 -10  313.55   25.59   3
  -4   4  10  331.30   20.60   4
  -4   4 -10  304.02   24.49   4
  -4  -4  10  359.20   28.20   5
  -4  -4  10  385.07   44.91   1
   6  -4 -10 1014.41   53.24   3
  -6   4 -10 1021.63   51.96   4
  -6  -4  10  916.82   63.12   1
  -6   4  10 1068.80   65.69   1
   6  -4  10  870.11   61.44   1
  -6  -4  10 1005.84   51.64   5
   6  -4  10 1002.85   44.85   2
   6   4 -10  941.55   53.44   3
   6  -4 -10  964.72   44.65   2
   6   4  10 1029.19   62.18   1
  -6  -4 -10 1087.34   46.91   3
   6   4 -10 1029.51   52.83   2
   6   4  10  982.00   51.17   4
  -8  -4 -10  322.83   33.19   4
   8  -4 -10  270.86   32.28   3
  -8   4 -10  320.62   33.96   4
   8   4  10  315.99   39.35   1
  -8  -4  10  327.70   31.78   5
   8  -4  10  323.77   44.35   1
  -8   4  10  305.22   41.80   1
   8  -4 -10  325.63   26.65   2
   8   4 -10  308.31   35.98   3
  -8  -4  10  316.39   42.07   1
   8   4 -10  273.99   32.80   2
 -10  -4  10  503.42   39.00   5
 -10   4  10  619.49   61.31   1
 -10  -4 -10  516.93   39.91   4
 -10  -4  10  522.68   57.60   1
  10   4 -10  600.76   45.24   2
 -10   4 -10  588.91   43.85   4
  10  -4 -10  569.33   42.00   2
  10   4 -10  518.76   48.87   3
  10  -4  10  574.33   61.46   1
   1   5  10  240.54   22.47   4
   1   5 -10  334.65   23.73   3
  -1  -5  10  248.77   34.05   1
   1   5  10  316.70   39.48   1
  -1   5 -10  332.13   22.37   4
   1  -5 -10  306.49   24.12   3
  -1  -5  10  271.03   32.08   2
   1   5 -10  262.29   18.64   4
   1  -5  10  313.70   35.54   1
   1  -5  10  292.24   27.55   2
  -1  -5 -10  284.84   22.79   3
  -1   5  10  268.68   39.61   1
  -1   5 -10  314.64   21.26   3
  -1  -5  10  338.40   31.98   5
  -1   5  10  325.77   22.83   4
  -3   5  10  441.98   25.56   4
  -3   5  10  410.38   45.91   1
   3  -5  10  392.27   25.23   2
  -3  -5 -10  324.72   24.83   3
   3   5  10  405.38   27.87   4
  -3  -5  10  337.24   42.00   1
   3  -5 -10  400.73   29.11   3
  -3   5 -10  379.31   26.73   4
  -3  -5  10  443.81   33.21   2
   3   5 -10  375.56   27.79   3
   3  -5  10  367.05   39.37   1
  -3  -5  10  375.51   29.45   5
   3   5  10  322.85   37.39   1
  -5   5 -10  199.73   23.91   4
  -5   5  10  130.42   25.99   1
   5   5  10  129.26   19.76   4
   5  -5  10  146.15   27.17   1
  -5  -5 -10  170.26   20.57   3
  -5  -5  10  151.80   23.46   2
  -5  -5  10  140.90   21.03   5
  -5  -5  10  183.76   30.92   1
   5  -5  10  142.42   17.71   2
   5  -5 -10  190.97   18.63   2
   5   5 -10  106.39   19.18   3
   5  -5 -10  165.73   22.28   3
   5   5  10  150.95   26.37   1
   7  -5  10  171.92   21.92   2
   7  -5 -10  200.70   26.54   3
   7  -5 -10  178.87   22.01   2
   7  -5  10  159.47   29.48   1
  -7   5 -10  132.94   21.68   4
  -7  -5  10  172.07   26.02   2
  -7   5  10  171.97   30.69   1
   7   5 -10  196.75   28.36   3
  -7  -5  10  177.24   24.20   5
  -7  -5  10  188.03   32.52   1
   7   5  10  172.90   27.82   1
   9   5 -10   81.93   18.87   2
  -9  -5  10   93.05   18.05   5
  -9  -5 -10  106.30   19.63   4
  -9   5 -10   87.87   19.43   4
   9   5  10   97.49   23.03   1
  -9  -5  10   91.52   23.32   1
  -9   5  10  110.37   25.95   1
   9   5 -10  106.07   22.08   3
   9  -5  10  107.19   27.09   1
   9  -5 -10   92.51   18.43   2
   0   6  10 1051.25   48.24   4
   0  -6  10 1013.79   58.82   1
   0  -6 -10  959.66   48.79   3
   0   6  10  996.23   62.95   1
   0   6 -10 1080.87   47.11   3
   0   6 -10 1022.74   44.76   4
   0  -6  10 1192.68   60.53   2
  -2   6  10 1001.03   65.93   1
   2  -6  10 1100.96   60.19   1
  -2   6 -10 1065.06   48.30   4
  -2   6 -10 1031.91   42.88   3
   2   6  10  971.81   48.29   4
  -2  -6  10 1031.53   53.67   5
  -2  -6  10 1034.65   61.67   2
   2   6 -10 1062.78   42.07   4
   2  -6  10  960.41   51.31   2
   2   6 -10 1032.10   48.67   3
   2   6  10 1141.26   61.72   1
   2  -6 -10  990.26   49.70   3
  -2   6  10 1019.40   45.93   4
  -2  -6 -10  996.25   49.56   3
  -2  -6  10 1086.31   65.16   1
  -4  -6  10  716.72   53.51   1
  -4  -6  10  816.86   48.28   2
   4  -6  10  716.48   49.75   1
   4   6  10  662.63   40.31   4
  -4   6  10  759.16   54.44   1
  -4   6 -10  662.28   40.06   4
  -4  -6 -10  720.11   39.98   3
   4  -6  10  715.28   39.27   2
  -4   6  10  743.52   37.13   4
   4  -6 -10  778.07   43.41   3
   4   6 -10  677.90   42.51   3
  -4  -6  10  728.36   43.28   5
   4   6  10  849.85   50.85   1
   6  -6  10  467.77   46.63   1
  -6  -6 -10  529.28   34.23   3
   6  -6 -10  620.78   40.37   3
   6   6  10  591.32   38.63   4
  -6   6 -10  531.26   37.27   4
   6   6 -10  514.85   39.14   3
   6   6  10  629.18   44.24   1
   6  -6 -10  564.72   33.00   2
  -6   6  10  507.60   48.97   1
  -6  -6  10  552.05   47.18   1
  -6  -6  10  529.03   40.72   2
   6  -6  10  521.06   34.02   2
  -6  -6  10  573.49   38.45   5
  -8   6 -10  401.56   38.68   4
   8  -6  10  366.89   30.12   2
   8   6  10  353.05   39.39   1
  -8  -6  10  392.28   47.94   1
   8  -6 -10  394.45   31.07   2
  -8  -6  10  362.91   38.07   2
  -8  -6 -10  438.59   33.98   4
  -8   6  10  410.06   47.82   1
   8   6 -10  425.88   41.31   3
  -8  -6  10  324.23   33.21   5
   8  -6  10  427.63   48.02   1
 -10   6 -10  268.11   36.20   4
  10  -6 -10  316.42   34.73   2
 -10  -6 -10  267.83   32.88   4
 -10  -6  10  269.66   40.82   1
  10  -6  10  186.17   35.65   1
 -10   6  10  275.67   43.16   1
 -10  -6  10  290.58   33.29   5
 -10  -6  10  276.84   38.16   2
  10   6  10  337.45   42.90   1
  10   6 -10  297.29   40.49   3
   1  -7  10  178.23   25.98   1
  -1   7 -10  164.22   18.50   3
  -1  -7  10  151.09   23.74   5
  -1   7  10  148.03   19.35   4
   1   7  10  172.22   26.74   1
  -1  -7  10  172.44   26.75   1
  -1   7  10  138.01   27.84   1
   1  -7  10  207.13   28.15   2
  -1   7 -10  188.61   21.11   4
   1   7 -10  159.03   17.69   4
   1  -7 -10  157.31   21.88   3
   1   7 -10  170.50   20.71   3
  -1  -7 -10  208.92   24.46   3
   1   7  10  198.75   22.52   4
  -1  -7  10  221.04   32.14   2
   3  -7 -10  258.25   27.60   3
  -3  -7  10  267.83   29.97   5
   3   7 -10  241.59   26.39   3
   3  -7  10  199.83   27.72   1
   3  -7  10  196.84   25.74   2
  -3  -7  10  266.60   37.81   1
   3   7  10  193.20   23.85   4
  -3   7  10  199.90   32.53   1
  -3   7  10  214.81   22.20   4
  -3  -7 -10  224.49   24.96   3
  -3   7 -10  242.48   25.29   4
  -3  -7  10  262.51   34.63   2
   3   7  10  205.22   27.78   1
  -5   7  10  103.22   23.61   1
  -5  -7 -10   74.37   14.73   3
  -5  -7  10   99.58   21.13   2
   5   7  10  105.90   20.24   1
   5  -7 -10   83.38   17.42   3
   5   7 -10  111.37   20.53   3
  -5   7 -10   77.14   16.12   4
   5   7  10   82.71   16.06   4
  -5  -7  10  109.56   24.78   1
   5  -7  10   97.71   21.01   1
   5  -7  10   85.47   16.08   2
  -5  -7  10   73.81   15.51   5
  -7   7  10  111.23   24.28   1
  -7  -7  10  103.83   21.94   2
  -7  -7  10   83.08   17.50   5
   7  -7  10   82.01   16.65   2
  -7  -7  10  178.02   32.01   1
   7   7 -10   83.25   18.28   3
   7   7  10   82.33   17.30   4
   7  -7 -10  126.86   22.45   3
   7   7  10  105.30   21.37   1
   7  -7  10   79.37   20.79   1
  -7   7 -10  139.41   23.50   4
  -7  -7 -10   98.02   16.84   3
  -9   7  10   54.31   18.36   1
  -9   7 -10  103.99   21.12   4
  -9  -7  10   70.81   16.18   5
   9   7 -10   78.88   20.98   3
  -9  -7 -10   62.81   14.05   4
   9  -7  10   64.45   19.96   1
  -9  -7  10   57.16   19.09   1
  -9  -7  10   68.95   19.56   2
   0  -8  10  667.94   43.39   1
   0  -8  10  752.92   50.82   2
   0  -8 -10  680.29   41.43   3
   0   8  10  668.10   39.48   4
   0   8 -10  697.41   37.74   3
   0   8 -10  685.27   37.36   4
   0   8  10  688.95   47.03   1
  -2  -8 -10  539.96   36.26   3
  -2  -8 -10  453.03   26.57   5
   2  -8  10  534.89   38.55   1
  -2   8  10  507.81   51.88   1
   2   8  10  536.33   37.42   1
   2   8  10  533.81   34.82   4
   2   8 -10  535.13   34.61   3
  -2  -8  10  536.36   39.39   5
  -2  -8  10  562.62   41.84   1
   2  -8  10  456.66   38.04   2
  -2  -8  10  519.64   48.62   2
   2  -8 -10  490.37   34.53   3
  -2   8  10  538.43   33.67   4
  -2   8 -10  506.97   33.51   4
  -4  -8  10  732.95   55.25   1
   4  -8 -10  691.39   43.08   3
   4  -8  10  675.73   47.24   1
  -4  -8  10  750.62   46.75   5
  -4  -8  10  660.43   49.48   2
   4   8  10  594.37   39.91   4
   4   8  10  737.84   43.91   1
  -4   8 -10  640.91   40.91   4
  -4  -8 -10  697.30   42.71   3
   4   8 -10  663.14   41.98   3
   4  -8  10  654.69   42.88   2
  -4   8  10  644.18   51.97   1
  -4   8  10  681.10   38.20   4
  -6  -8  10  432.71   44.35   2
  -6  -8 -10  517.84   36.07   3
   6   8  10  471.55   36.30   4
   6  -8  10  459.91   36.08   2
  -6   8 -10  509.00   38.36   4
  -6  -8  10  580.08   55.53   1
   6  -8 -10  536.57   39.60   3
  -6  -8  10  518.81   38.22   5
   6  -8  10  460.78   44.68   1
   6   8 -10  523.49   39.89   3
  -6   8  10  515.82   52.07   1
   8  -8  10  438.72   35.68   2
   8   8  10  472.81   37.86   4
   8  -8  10  445.79   47.93   1
  -8   8 -10  474.29   44.68   4
   8   8 -10  441.41   45.77   3
  -8   8  10  568.41   56.07   1
  -8  -8  10  386.33   44.64   2
  -8  -8  10  489.49   37.15   5
  -1  -9  10   18.36    8.81   1
   1  -9  10   36.33   13.87   2
   1   9 -10   29.53    9.35   3
  -1  -9  10   35.83   12.56   5
   1  -9  10   16.36    7.79   1
   1   9  10   31.31    9.66   4
  -1   9  10   26.68   12.55   1
  -1  -9 -10   33.65    8.36   5
  -1   9 -10   21.89    7.43   3
   1  -9 -10   12.66    6.07   5
  -1  -9 -10   20.50    8.68   3
  -1   9  10   25.40    9.53   4
   1   9 -10   21.90    7.55   4
  -1   9 -10   22.89    8.07   4
  -1  -9  10   32.35   11.89   2
   1  -9 -10   20.71    8.68   3
  -3  -9  10   75.79   20.89   2
   3  -9  10   72.02   17.50   2
  -3   9  10   68.73   20.73   1
   3  -9  10   93.29   17.85   1
  -3  -9 -10   49.29    9.19   5
  -3   9  10   61.48   13.25   4
   3  -9 -10   60.68   13.94   3
   3   9 -10   66.85   14.85   3
  -3  -9  10   70.35   15.94   5
  -3  -9  10   76.38   18.48   1
  -3  -9 -10   64.05   14.36   3
  -3   9 -10   57.56   13.12   4
   3   9  10   69.80   15.10   4
   5  -9  10    3.66    6.20   1
   5  -9 -10   -1.20    5.66   3
  -5  -9  10   11.77    6.74   5
   5   9  10   13.52    6.94   4
  -5   9  10    8.90    9.18   1
  -5   9  10   10.67    6.44   4
  -5   9 -10    4.34    5.03   4
   5  -9  10    2.93    7.87   2
   5   9 -10    4.03    6.16   3
  -5  -9 -10   10.47    5.52   3
  -5  -9  10   17.67    9.71   2
  -7  -9  10   25.22    9.95   5
  -7  -9  10   36.06   13.35   2
   7   9 -10   48.78   14.26   3
   7   9  10   29.00   11.89   4
  -7  -9 -10   22.91   10.52   3
  -7   9 -10   34.66   12.22   4
   7  -9  10   25.19   11.39   2
  -7   9  10    6.13   10.32   1
   7  -9  10   28.39   12.55   1
  -9   9  10   11.27   13.20   1
  -9   9 -10   10.02    6.61   4
  -9  -9 -10    8.56    9.03   4
   9   9 -10   15.41   12.30   3
  -9  -9  10   14.83   10.60   5
   9  -9  10   10.21    9.48   1
  -9  -9  10   -1.43    9.07   2
   9  -9  10   19.56   12.96   2
   0  10 -10  923.73   47.75   3
   0 -10 -10  987.23   46.79   5
   0  10 -10  944.90   48.42   4
   0 -10 -10  966.03   54.52   3
   0  10  10  898.74   51.30   4
   0 -10  10  964.04   59.67   2
   2  10 -10  577.74   38.25   3
  -2 -10 -10  491.09   29.33   5
   2 -10  10  545.89   37.41   1
   2  10  10  517.40   37.97   4
   2 -10 -10  582.70   36.28   5
  -2  10  10  477.72   35.58   4
   2 -10 -10  517.62   38.12   3
  -2 -10  10  536.94   53.04   2
   2 -10  10  580.89   46.42   2
  -2 -10  10  596.53   41.75   5
  -2 -10 -10  474.86   36.17   3
  -2  10 -10  569.00   37.43   4
  -4  10 -10  595.40   40.58   4
   4  10  10  628.35   43.03   4
   4 -10 -10  626.21   43.32   3
  -4 -10  10  686.80   47.31   5
  -4 -10  10  645.97   61.69   2
   4  10 -10  668.61   44.55   3
   4 -10  10  554.19   45.40   2
  -4 -10 -10  600.66   30.73   5
   4 -10  10  580.15   41.94   1
  -4 -10 -10  668.89   43.60   3
  -4  10  10  637.66   39.66   4
   6 -10  10  322.55   37.83   2
  -6 -10  10  249.75   39.01   2
   6  10  10  270.88   33.92   4
  -6 -10  10  297.20   34.33   5
  -6 -10 -10  282.53   32.84   3
   6  10 -10  286.39   36.10   3
   6 -10 -10  351.75   38.75   3
  -6  10 -10  305.06   34.47   4
   6 -10  10  313.19   36.25   1
   8  10  10  352.91   40.43   4
  -8  10 -10  349.27   39.59   4
  -8 -10  10  318.09   44.90   2
  -8 -10  10  416.83   41.51   5
   8 -10  10  369.36   43.10   1
   8 -10  10  299.00   38.47   2
   8  10 -10  428.78   46.91   3
   1 -11 -10  331.70   26.81   5
   1 -11 -10  287.91   33.04   3
  -1 -11 -10  295.96   34.04   3
   1  11 -10  371.38   28.04   4
  -1 -11 -10  346.70   25.38   5
  -1  11  10  381.92   35.57   4
  -1  11 -10  356.15   32.85   4
  -1 -11  10  285.09   39.37   2
   1  11 -10  374.10   29.74   3
   1 -11  10  329.13   41.08   2
   1  11  10  347.30   34.87   4
  -3 -11  10  490.97   53.72   2
   3  11 -10  357.66   35.96   3
  -3  11 -10  372.12   34.89   4
  -3 -11 -10  350.62   37.00   3
   3 -11 -10  370.75   36.82   3
  -3 -11  10  386.17   38.89   5
  -3 -11 -10  412.99   26.29   5
   3 -11  10  418.68   46.33   2
   3  11  10  398.02   38.08   4
  -3  11  10  414.70   32.69   4
   5 -11  10  229.31   35.28   2
  -5  11  10  159.73   23.89   4
  -5  11 -10  177.98   26.61   4
  -5 -11  10  310.85   46.92   2
   5  11 -10  175.86   27.25   3
   5 -11 -10  228.35   31.34   3
   5  11  10  207.91   29.13   4
  -5 -11 -10  173.19   26.24   3
  -5 -11 -10  188.99   17.59   5
  -5 -11  10  175.35   27.50   5
  -7  11 -10  214.87   31.27   4
  -7 -11  10  226.34   31.59   5
   7  11  10  207.19   31.32   4
  -7 -11 -10  183.88   27.74   3
   7  11 -10  142.47   27.23   3
   7 -11  10  180.78   31.09   2
  -7 -11  10  194.74   35.87   2
   0  12 -10  442.48   33.04   3
   0 -12 -10  476.20   38.37   3
   0  12  10  354.31   37.05   4
   0  12 -10  462.23   33.92   4
   0 -12  10  429.68   47.04   2
   0 -12 -10  474.80   32.14   5
  -2 -12 -10  488.84   31.66   5
   2  12 -10  498.86   37.52   3
   2 -12 -10  419.13   40.49   3
   2 -12  10  500.77   52.53   2
   2 -12 -10  498.77   35.77   5
  -2  12  10  440.97   35.86   4
  -2  12 -10  463.31   36.56   4
   2  12  10  430.47   40.51   4
  -2 -12  10  449.64   49.75   2
  -2 -12  10  563.32   43.10   5
  -2 -12 -10  516.90   40.30   3
  -4 -12 -10  438.34   28.03   5
  -4  12 -10  459.15   36.99   4
  -4 -12  10  430.04   53.45   2
   4  12  10  439.22   42.49   4
  -4  12  10  418.97   37.74   4
   4 -12 -10  402.80   40.67   3
   4 -12  10  448.45   51.62   2
   4  12 -10  463.76   42.66   3
  -4 -12  10  410.63   41.51   5
   6  12 -10  405.29   44.42   3
   6 -12  10  395.45   48.93   2
  -6 -12 -10  472.60   44.39   3
  -6 -12 -10  466.70   26.58   5
  -6 -12  10  508.09   62.60   2
  -6  12 -10  473.57   45.46   4
   6  12  10  477.47   45.80   4
  -6 -12  10  582.17   45.66   5
   8  12  10  271.32   38.24   4
  -8 -12 -10  374.88   40.37   3
   8 -12  10  300.78   44.71   2
   1 -13 -10    5.35    5.66   5
   1 -13  10   10.23    9.78   2
  -1  13 -10    8.61    7.11   4
  -1 -13 -10    3.22    6.49   3
   1 -13 -10    6.28    6.74   3
   1  13  10   -5.89    5.56   4
  -1 -13  10   -4.37    6.54   2
   1  13 -10    5.58    6.83   3
  -1  13  10    5.96    5.04   4
  -1 -13 -10    4.05    4.88   5
  -3 -13 -10    8.92    6.74   3
   3  13  10    4.01    9.53   4
  -3 -13 -10   -1.47    4.08   5
   3 -13 -10    8.89    9.00   3
  -3  13 -10   -3.34    5.42   4
  -3 -13  10    0.18    7.03   5
   3 -13  10   25.65   11.37   2
  -3 -13  10   -1.39   11.66   2
   3  13 -10   -0.88    6.72   3
  -3  13  10   -5.03    5.53   4
  -5 -13  10   13.55    9.30   5
  -5  13 -10   -0.16    7.67   4
   5  13 -10   27.48   10.84   3
   5 -13 -10   -4.46    9.13   3
  -5 -13 -10    7.17    5.35   5
  -5 -13 -10   -0.24    5.83   3
   5  13  10    2.85    8.19   4
   5 -13  10   19.26   14.18   2
  -5 -13  10   29.64   16.68   2
  -5  13  10   13.60    9.23   4
  -7 -13 -10   11.36    4.68   5
   7  13  10   -7.45    9.01   4
   7 -13  10   20.73   16.10   2
  -7 -13 -10    5.45    7.03   3
  -7 -13  10    2.56   10.08   5
   0 -14 -10  480.96   45.70   3
   0 -14 -10  513.10   36.92   5
   0 -14  10  495.54   50.58   2
   0  14  10  454.11   43.57   4
   0  14 -10  523.55   39.20   4
  -2  14 -10  714.41   47.67   4
   2  14 -10  602.73   44.02   3
  -2 -14 -10  569.77   46.03   3
  -2  14  10  610.31   45.25   4
   2 -14  10  688.08   62.63   2
   2  14  10  598.59   46.57   4
   2 -14 -10  593.02   41.99   5
   2 -14 -10  615.31   46.62   3
  -2 -14  10  575.79   56.19   2
  -2 -14 -10  612.20   38.04   5
  -4 -14 -10  280.23   36.61   3
  -4  14  10  307.03   35.71   4
   4 -14 -10  423.57   43.62   3
  -4 -14 -10  357.07   26.51   5
   4  14  10  352.83   41.45   4
   4 -14  10  308.11   46.68   2
  -4 -14  10  363.32   51.68   2
   4  14 -10  349.29   40.00   3
  -4 -14  10  394.22   42.46   5
  -4  14 -10  385.13   41.83   4
  -6 -14  10  436.90   60.80   2
   6 -14  10  406.52   53.68   2
   6  14  10  423.94   47.78   4
  -6 -14 -10  373.78   41.79   3
  -6 -14  10  379.80   43.17   5
   1 -15 -10  160.80   28.54   3
  -1  15  10  150.88   27.05   4
   1 -15 -10  211.13   27.96   5
   1  15  10  148.14   26.03   4
  -1  15 -10  187.78   29.05   4
   1 -15  10  181.85   34.47   2
  -1 -15 -10  170.55   24.43   5
  -1 -15 -10  202.16   32.76   3
  -1 -15  10  173.50   31.73   2
   3 -15  10  233.07   39.80   2
  -3  15  10  217.80   31.81   4
  -3 -15 -10  206.75   24.18   5
   3  15 -10  217.29   31.46   3
  -3 -15  10  206.68   37.92   2
  -3  15 -10  218.43   32.10   4
   3  15  10  166.58   30.47   4
   3 -15 -10  186.86   32.03   3
  -3 -15 -10  166.85   27.92   3
   5  15  10  112.53   23.61   4
   5 -15  10  121.56   32.16   2
  -5 -15  10  115.66   23.97   5
  -5  15  10  124.84   23.93   4
   0 -16 -10  189.68   28.09   5
   0 -16 -10  118.13   26.53   3
   0 -16  10  194.60   34.92   2
   0  16  10  154.21   27.19   4
  -2 -16 -10  367.04   34.54   5
  -2  16  10  389.49   43.69   4
   2 -16  10  447.56   55.22   2
  -2  16 -10  446.31   45.42   4
  -2 -16 -10  424.20   46.93   3
   2  16 -10  319.83   38.15   3
   2 -16 -10  451.94   47.20   3
  -2 -16  10  371.21   46.93   2
   2  16  10  397.05   45.95   4
   1 -17 -10   -2.35    8.59   5
  -1   0  11   53.97    9.55   4
  -1   0  11   46.06   16.38   1
   1   0 -11   57.25   11.64   3
   1   0  11   64.27   18.93   1
  -1   0 -11   52.81    9.98   4
  -1   0 -11   95.38   14.53   3
   3   0  11   33.97   14.41   1
   3   0 -11   38.61   10.52   3
  -3   0  11   25.56   12.38   1
  -3   0 -11   26.46    8.13   3
  -3   0 -11   28.82    8.21   4
  -3   0  11   53.11   12.99   5
  -5   0  11   52.57   17.60   1
  -5   0  11   37.61   10.74   5
   5   0  11   47.95   17.48   1
   5   0 -11   56.86   12.09   2
  -5   0 -11   31.41    9.50   4
   5   0 -11   55.16   13.15   3
  -7   0  11    7.03    7.65   1
  -7   0  11   15.95    7.85   5
   7   0  11   13.09   12.29   1
   7   0 -11    8.51    5.68   2
   7   0 -11   19.14    8.84   3
  -7   0 -11    9.60    6.43   4
   9   0 -11   24.81   10.46   2
  -9   0  11    7.89    7.14   5
  -9   0 -11   19.48    8.81   4
   9   0 -11   11.07    8.97   3
   9   0  11    3.38   10.83   1
  -9   0  11    0.81   12.13   1
  11   0 -11   18.77    8.78   2
 -11   0 -11   -4.79    6.65   4
 -11   0  11    3.66    8.79   5
   0   1  11   34.93    8.33   4
   0   1 -11   10.02    5.71   3
   0  -1  11   25.80   11.99   1
   0   1 -11   33.26    7.65   4
   0  -1 -11   34.24    9.42   3
   0   1  11    4.93    9.78   1
  -2   1  11   14.88    5.28   4
   2   1  11    6.97    3.91   4
  -2   1  11    6.74    8.99   1
   2   1 -11   -0.34    2.86   4
  -2  -1  11   10.06    5.28   2
  -2   1 -11   14.33    5.99   4
   2  -1  11   26.20   13.45   1
   2   1  11    6.37    9.69   1
   2  -1 -11   -2.92    3.36   3
  -2  -1  11    9.90    5.87   5
   2   1 -11   15.40    6.26   3
  -2   1 -11    9.40    5.33   3
  -2  -1 -11    9.87    5.57   3
  -2  -1  11    8.65    8.59   1
   4  -1  11    7.21    9.66   1
   4  -1 -11   22.11    8.33   3
  -4   1 -11   18.08    6.39   3
  -4  -1  11   12.00    8.29   1
  -4  -1 -11   14.31    6.14   3
  -4   1 -11   17.34    6.82   4
  -4  -1  11   19.15    8.19   5
   4   1 -11   13.08    7.42   2
   4   1  11    8.68    7.63   1
   4   1 -11   22.33    7.95   3
  -4   1  11    7.67    6.77   5
  -4   1  11    4.04    8.71   1
   4  -1 -11   13.50    6.32   2
  -4  -1 -11    6.73    4.93   4
  -6  -1  11   -3.80    7.05   1
   6   1 -11   -0.11    5.51   3
   6  -1 -11   -0.32    4.35   3
  -6  -1 -11   -4.56    4.40   4
  -6  -1  11    1.42    4.64   5
   6  -1  11   11.46   11.06   1
  -6   1  11   -4.01    4.29   5
   6  -1 -11    7.45    4.62   2
   6   1  11    0.89    7.61   1
  -6   1 -11   44.57   11.93   4
   6   1 -11    3.87    4.57   2
  -6   1  11  -11.50    6.68   1
  -8  -1 -11    5.36    5.41   4
   8   1 -11    0.58    6.02   3
  -8   1 -11   16.54    7.72   4
   8  -1 -11   11.21    8.23   3
  -8  -1  11   17.29   11.40   1
   8   1  11   14.97   11.47   1
   8   1 -11    2.20    6.53   2
  -8   1  11   14.26    6.96   5
   8  -1  11    7.08   10.51   1
  -8   1  11    9.52    8.65   1
   8  -1 -11   -3.25    4.91   2
  -8  -1  11   -8.51    5.02   5
 -10   1  11  -26.92    7.05   1
  10  -1  11   11.76   14.92   1
 -10  -1  11   -5.74    7.38   5
  10  -1 -11   -3.51    5.68   2
  10   1 -11   16.43    8.98   2
  10   1 -11    3.60   11.44   3
 -10  -1 -11    8.93    6.59   4
 -10  -1  11  -16.26    8.38   1
 -10   1  11   -3.58    7.01   5
 -10   1 -11    3.36    5.89   4
  10   1  11   -4.17   12.53   1
  -1  -2  11   27.00   12.96   1
  -1  -2 -11   45.82   10.97   3
  -1   2  11   45.25   16.81   1
  -1   2 -11   30.53    8.12   4
   1   2  11   37.30    9.12   4
  -1   2  11   30.18    7.44   4
  -1   2 -11   36.88    9.02   3
   1  -2 -11   39.39    9.97   3
   1   2  11   39.74   15.79   1
   1   2 -11   34.90   10.35   3
   1  -2  11   24.93   13.69   1
   1   2 -11   43.76    8.38   4
  -1  -2  11   30.94   10.27   2
  -3   2  11   30.40    7.32   4
  -3  -2  11   25.25    8.60   5
   3  -2 -11   16.60    7.05   3
  -3   2 -11   14.76    6.38   4
  -3   2 -11   36.37    8.52   3
   3  -2  11   17.11   10.01   1
   3   2  11   24.90   12.09   1
  -3   2  11   16.26   10.86   1
   3   2  11   30.73    8.64   4
   3   2 -11   22.38    7.55   3
  -3  -2  11   34.81    9.66   2
  -3  -2 -11   34.95    9.15   3
  -3  -2  11   25.81   13.47   1
   5  -2 -11   31.01   10.17   3
  -5  -2 -11   33.58    8.15   3
   5   2 -11   45.28   10.59   2
   5   2  11   18.00   12.65   1
  -5   2  11   30.68   11.22   1
   5   2 -11   24.87    9.58   3
  -5  -2  11   12.41    6.49   5
  -5  -2  11   20.70   12.69   1
   5  -2  11   33.65   15.74   1
  -5   2 -11   16.81    7.48   4
   5  -2 -11   18.69    7.34   2
  -5  -2 -11   23.36    7.84   4
  -5   2  11   21.08    8.29   5
   7   2 -11   27.94    9.83   2
  -7   2  11    6.50    6.64   5
   7   2  11   22.09   13.01   1
  -7   2 -11    7.24    6.44   4
   7  -2  11    2.49    8.71   1
   7  -2 -11   13.99    8.01   3
  -7  -2  11   21.73    8.55   5
  -7  -2 -11   20.05    8.95   4
  -7  -2  11   13.81   10.61   1
  -7   2  11    6.17    8.17   1
   7  -2 -11    6.63    5.64   2
   7   2 -11   15.04    8.23   3
   9   2 -11   13.97    8.19   2
   9  -2 -11   30.93   11.53   3
  -9   2  11   18.48   13.36   1
   9   2 -11    0.72    7.82   3
   9  -2 -11   13.39    7.25   2
  -9  -2 -11    1.29    5.64   4
  -9   2  11   12.78    8.12   5
  -9  -2  11   -7.49    4.97   5
  -9   2 -11    9.35    6.80   4
   9   2  11   -5.18    9.38   1
   9  -2  11    4.94   10.92   1
  -9  -2  11   20.30   11.98   1
  11  -2 -11    9.78    8.56   2
 -11  -2 -11    8.23    7.63   4
   0   3 -11  240.65   17.71   4
   0   3  11  225.17   18.35   4
   0  -3 -11  223.96   22.96   3
   0   3  11  220.25   35.85   1
   0   3 -11  240.49   19.76   3
   0  -3  11  236.99   22.24   2
   0  -3  11  269.97   37.51   1
  -2   3  11  102.50   26.12   1
  -2  -3  11   81.21   15.80   2
  -2   3  11  102.71   13.35   4
  -2  -3  11  102.60   17.89   5
   2   3 -11  100.52   15.51   3
  -2   3 -11  100.60   13.82   3
  -2   3 -11   96.93   14.76   4
   2   3  11  127.42   28.27   1
   2   3  11   96.53   14.69   4
   2  -3 -11   95.35   16.10   3
  -2  -3 -11  105.13   15.54   3
   2  -3  11  138.69   27.92   1
   2   3 -11   95.53   11.34   4
  -2  -3  11  107.02   25.51   1
  -4  -3  11  172.07   23.16   5
  -4   3 -11  209.64   23.01   4
   4   3  11  222.01   36.46   1
  -4  -3  11  167.06   32.41   1
   4   3 -11  137.74   19.95   3
  -4  -3 -11  147.09   17.91   3
   4   3  11  162.28   20.56   4
  -4  -3  11  148.11   20.86   2
   4  -3 -11  182.37   23.34   3
  -4   3  11  192.61   33.42   1
   4  -3  11  163.28   29.83   1
  -6  -3  11   84.13   16.57   5
  -6  -3 -11   50.19   11.71   4
   6  -3 -11   36.52   11.51   3
  -6   3 -11   55.67   13.38   4
   6   3 -11   63.23   15.10   3
   6   3 -11   51.41   12.09   2
  -6   3  11   54.32   17.67   1
   6  -3 -11   63.79   12.29   2
   6   3  11   43.55   17.41   1
  -6  -3  11   37.69   14.51   1
   6  -3  11   63.11   20.33   1
  -8  -3  11   66.40   20.17   1
   8  -3  11   64.74   21.53   1
   8  -3 -11   92.45   16.57   2
   8   3  11   95.22   24.77   1
  -8   3 -11   65.45   15.24   4
  -8   3  11  102.54   24.60   1
   8  -3 -11   73.86   17.82   3
   8   3 -11   62.97   14.51   2
   8   3 -11   79.11   18.33   3
  -8  -3 -11  112.72   19.96   4
  -8  -3  11   85.14   17.06   5
 -10  -3  11   32.43   11.93   5
  10  -3 -11   29.11   10.22   2
 -10   3 -11    9.99    8.19   4
  10   3  11   40.78   19.43   1
 -10   3  11   52.00   21.22   1
  10   3 -11    1.33   10.52   3
 -10  -3 -11   27.49    9.36   4
  10  -3  11   41.31   15.80   1
  10   3 -11   29.71   11.65   2
 -10  -3  11   -7.45    9.59   1
   1  -4  11  183.56   19.67   2
  -1   4 -11  184.83   18.35   3
  -1   4 -11  163.14   18.05   4
  -1  -4  11  123.59   25.82   1
   1  -4 -11  201.10   22.84   3
   1  -4  11  185.01   29.94   1
   1   4  11  186.94   20.10   4
  -1   4  11  203.77   19.54   4
  -1   4  11  172.59   31.82   1
  -1  -4  11  194.44   26.20   2
   1   4  11  212.03   35.45   1
   1   4 -11  186.17   16.59   4
   1   4 -11  222.62   22.12   3
  -1  -4 -11  175.21   20.54   3
  -3   4 -11  157.88   15.53   3
  -3  -4  11  174.08   32.45   1
  -3  -4 -11  163.35   19.78   3
   3   4 -11  118.86   18.22   3
  -3  -4  11  165.67   22.86   2
   3  -4  11  116.08   24.87   1
  -3  -4  11  138.30   21.21   5
   3  -4 -11  173.48   22.61   3
  -3   4  11  137.57   15.32   4
   3   4  11  130.69   18.71   4
  -3   4  11  131.11   27.30   1
  -3   4 -11  185.24   21.23   4
   3   4  11  164.40   30.01   1
  -5  -4  11  160.90   22.85   2
   5   4  11   85.26   15.91   4
   5   4  11  192.99   32.48   1
  -5  -4  11  128.21   27.69   1
  -5  -4  11  144.83   21.47   5
   5  -4  11  131.49   26.92   1
   5   4 -11  100.32   18.42   3
   5  -4 -11  128.20   20.59   3
  -5   4  11  123.45   26.23   1
  -5   4 -11  143.39   21.39   4
  -5  -4 -11  150.85   18.88   3
  -7  -4  11   56.58   13.72   5
   7  -4  11   56.47   17.96   1
   7   4 -11   67.58   16.55   3
  -7   4  11   70.51   19.30   1
   7   4  11   88.55   21.38   1
  -7  -4  11   88.88   23.68   1
   7  -4 -11   61.87   15.50   3
   7   4 -11   90.93   18.26   2
  -7   4 -11   43.55   12.89   4
  -7  -4 -11   91.86   17.70   4
  -9  -4 -11   20.30    9.66   4
  -9  -4  11   62.28   15.02   5
   9   4  11   46.70   18.56   1
  -9   4  11   53.54   19.15   1
  -9  -4  11  110.15   25.46   1
   9   4 -11   34.53   13.16   2
   9  -4  11   40.76   14.95   1
  -9   4 -11   35.59   11.16   4
   9   4 -11   36.51   14.10   3
   0  -5  11  144.88   26.62   1
   0  -5  11  161.60   23.39   2
   0  -5 -11  139.99   19.69   3
   0   5  11  163.63   29.73   1
   0   5 -11  141.18   16.43   4
   0   5  11  160.62   18.77   4
   0   5 -11  163.80   18.73   3
   2  -5 -11   36.54   10.11   3
   2   5  11   23.67   11.96   1
  -2   5  11   68.86   19.68   1
   2  -5  11   32.31    8.79   2
  -2  -5  11   10.75    9.89   1
   2   5 -11   26.46    8.67   3
  -2   5 -11   27.38    8.46   4
  -2  -5  11   25.60   11.66   2
   2   5  11   31.31    9.58   4
   2  -5  11   24.63   11.42   1
  -2   5 -11   41.19    9.09   3
  -2  -5 -11   28.75    8.07   3
  -2  -5  11   39.00   12.15   5
  -2   5  11   29.43    8.22   4
  -4  -5 -11   83.48   14.85   3
   4   5  11  105.31   17.29   4
   4  -5 -11  102.94   18.17   3
  -4  -5  11   84.38   17.04   2
   4   5 -11   85.32   16.78   3
  -4   5  11   73.72   20.87   1
   4   5  11  105.03   22.41   1
   4  -5  11  109.54   24.15   1
  -4  -5  11   71.71   19.89   1
  -4   5 -11   96.63   17.02   4
  -4  -5  11  107.84   18.29   5
  -4   5  11  103.55   14.39   4
   4  -5  11   84.22   13.54   2
  -6  -5  11   29.48   13.34   1
   6  -5 -11   34.11   11.21   3
  -6  -5  11   22.47   10.56   2
  -6  -5 -11   28.72    8.22   3
   6   5  11   24.71   12.94   1
   6   5 -11   10.12    7.51   3
  -6   5  11    7.69   10.50   1
   6  -5  11   24.62   11.88   1
   6   5  11   17.55    7.67   4
  -6  -5  11   27.33    9.53   5
  -6   5 -11   25.50    9.76   4
  -8  -5  11   40.18   14.10   2
  -8  -5 -11   28.82   11.17   4
   8   5 -11   41.11   14.20   3
  -8   5 -11   61.25   15.09   4
   8  -5  11   31.86   15.95   1
  -8  -5  11   21.32   12.58   1
  -8  -5  11   35.29   11.70   5
  -8   5  11   43.74   15.03   1
   8  -5 -11   54.18   14.47   3
   8   5  11   24.73   12.67   1
  10  -5  11    1.58    9.81   1
 -10  -5 -11   11.26    6.91   4
 -10   5 -11   -6.89    5.90   4
 -10  -5  11    2.93   10.09   1
 -10   5  11   16.65   16.06   1
  10   5 -11   25.60   13.17   3
 -10  -5  11    6.73    8.38   5
  10   5  11    2.79   13.94   1
   1  -6  11   14.88    9.64   1
   1   6 -11   13.06    5.92   3
   1   6  11   34.83   13.94   1
  -1   6  11   12.23    5.48   4
  -1  -6  11   15.28   10.97   2
  -1   6 -11   18.78    7.23   4
   1   6 -11   11.04    5.60   4
  -1  -6 -11    7.12    4.95   3
  -1   6  11   29.89   13.67   1
  -1  -6  11   27.89   11.67   1
   1  -6 -11   15.71    7.94   3
  -1   6 -11   18.96    7.28   3
   1   6  11    8.49    5.22   4
   1  -6  11   26.85   10.62   2
  -3   6 -11   26.48    8.61   4
  -3   6  11   24.22   12.28   1
   3   6  11   19.06    7.73   4
   3   6 -11   16.97    7.40   3
   3  -6  11   18.81    7.37   2
  -3  -6  11   25.16   13.00   1
  -3  -6  11   22.36    9.60   5
   3   6  11   59.29   16.34   1
   3  -6  11   13.31    9.00   1
  -3  -6 -11   31.82    8.99   3
  -3  -6  11   23.75   10.87   2
   3  -6 -11   16.44    7.86   3
  -3   6  11   29.37    8.12   4
  -5  -6 -11    3.06    4.19   3
  -5  -6  11   16.92    8.62   2
   5   6 -11   12.33    7.82   3
   5   6  11    2.68    4.67   4
  -5  -6  11    9.00    7.41   5
  -5  -6  11   -2.23    7.96   1
   5   6  11   15.30    9.85   1
   5  -6 -11    5.56    6.52   3
  -5   6  11   33.19   12.57   1
  -5   6 -11    1.77    4.89   4
   5  -6  11   29.40    8.57   2
   5  -6  11   24.18   11.35   1
   7   6 -11   22.84    9.93   3
   7   6  11   14.90    8.06   4
   7  -6  11   17.12   10.56   1
   7  -6 -11    6.76    8.23   3
  -7  -6  11   16.63    9.06   2
   7   6  11    4.84    7.88   1
  -7  -6  11    0.38    5.71   5
  -7  -6  11   15.48   11.67   1
  -7   6  11   -5.13    9.54   1
  -7   6 -11    3.06    6.02   4
   9   6 -11    3.67    8.50   3
  -9  -6  11   10.18    7.80   5
  -9   6  11   26.99   12.38   1
   9  -6  11   20.35   11.88   1
  -9   6 -11    8.41    6.95   4
   9   6  11    1.45   11.17   1
  -9  -6  11   -1.15    8.10   2
  -9  -6 -11    8.65    6.91   4
  -9  -6  11    0.75   10.84   1
   0   7 -11  121.24   17.55   3
   0   7  11  131.64   18.79   4
   0   7 -11  107.31   16.41   4
   0  -7  11  116.22   22.48   1
   0   7  11  137.10   26.35   1
   0  -7 -11  116.58   18.09   3
   2  -7  11   85.21   17.49   2
  -2  -7  11  124.69   24.77   2
  -2   7  11  109.57   16.51   4
  -2   7 -11  133.84   16.84   3
  -2   7 -11   85.42   15.32   4
   2  -7 -11  123.51   19.74   3
   2   7  11  133.56   20.19   4
   2   7  11  107.51   22.08   1
  -2   7  11  103.97   26.15   1
   2  -7  11   98.66   20.45   1
  -2  -7  11   94.50   20.30   5
  -2  -7  11   99.51   23.48   1
  -2  -7 -11  122.07   19.87   3
   2   7 -11  104.50   18.08   3
  -4   7 -11   65.29   14.76   4
   4  -7 -11   78.35   16.42   3
  -4  -7  11   89.16   18.18   5
   4   7 -11   90.78   17.41   3
  -4  -7  11  110.24   25.82   1
   4   7  11   80.78   15.98   4
  -4  -7 -11   86.56   16.14   3
  -4  -7  11   78.95   19.34   2
   4   7  11   77.21   18.30   1
   4  -7  11  120.57   24.16   1
  -4   7  11  104.20   25.36   1
   4  -7  11  139.85   20.40   2
  -4   7  11  111.24   16.11   4
   6  -7 -11   42.36   13.42   3
  -6   7  11   72.95   20.90   1
  -6   7 -11   57.67   14.71   4
  -6  -7  11   58.99   14.08   5
   6   7  11   61.69   14.81   4
  -6  -7  11   56.46   16.68   2
  -6  -7 -11   52.54   12.83   3
  -6  -7  11   38.14   18.46   1
   6  -7  11   50.51   16.19   1
   6   7  11   61.48   16.87   1
   6   7 -11   71.40   16.80   3
   8   7  11   87.28   20.13   1
   8  -7  11   40.86   14.61   1
   8   7 -11   26.36   13.97   3
  -8   7 -11   45.26   14.07   4
  -8  -7  11   48.71   14.42   5
  -8  -7 -11   37.56   12.54   4
  -8  -7  11   62.74   20.29   1
  -8  -7  11   57.09   17.45   2
  -8   7  11   51.07   18.83   1
 -10  -7 -11   19.42    9.38   4
  -1   8 -11  286.89   22.69   3
   1   8  11  256.72   27.54   4
  -1   8  11  274.09   27.14   4
   1   8 -11  262.62   26.21   3
   1  -8  11  335.04   34.63   1
   1  -8  11  298.07   34.37   2
   1   8  11  365.78   36.71   1
  -1   8 -11  320.87   28.42   4
   1   8 -11  256.94   21.26   4
  -1   8  11  288.89   38.28   1
   1  -8 -11  240.53   27.87   3
  -1  -8  11  354.02   39.59   2
  -1  -8  11  260.50   32.55   1
  -1  -8 -11  284.80   29.80   3
   3  -8  11  207.49   29.45   1
  -3   8  11  245.84   38.95   1
  -3  -8  11  236.17   34.88   1
   3   8 -11  244.34   28.40   3
  -3  -8  11  246.69   31.85   5
   3  -8  11  194.90   26.79   2
  -3   8 -11  234.12   27.01   4
   3   8  11  208.79   26.21   4
   3   8  11  264.81   31.59   1
  -3   8  11  238.14   24.99   4
  -3  -8  11  248.35   37.48   2
   3  -8 -11  235.35   28.69   3
  -3  -8 -11  205.33   26.15   3
  -5  -8  11  178.83   30.17   2
   5  -8 -11  240.51   30.66   3
   5  -8  11  146.45   22.69   2
   5   8  11  231.20   28.66   4
  -5  -8  11  189.95   28.04   5
  -5  -8  11  205.69   35.26   1
  -5   8 -11  148.01   22.92   4
  -5   8  11  183.04   33.75   1
   5   8 -11  150.24   23.72   3
  -5  -8 -11  217.72   26.34   3
   5  -8  11  184.12   28.97   1
   7   8 -11  115.73   23.58   3
  -7  -8  11  114.08   23.86   2
  -7   8  11  115.95   28.09   1
  -7  -8  11  139.53   23.72   5
  -7  -8 -11  118.59   20.38   3
   7  -8 -11  115.21   22.49   3
  -7   8 -11   91.82   18.82   4
   7  -8  11  123.86   25.67   1
  -7  -8  11  129.34   30.10   1
   7   8  11  132.67   22.88   4
   9  -8  11   90.77   23.94   1
  -9   8 -11   74.01   18.14   4
  -9  -8  11   83.70   19.09   5
  -9  -8  11   74.95   21.39   2
   9   8 -11   72.08   21.87   3
  -9   8  11  119.95   27.56   1
  -9  -8 -11   54.54   14.65   4
   0   9  11    4.14    8.69   1
   0  -9  11    1.54    6.04   1
   0  -9 -11    3.65    5.20   3
   0   9 -11   11.02    5.43   4
   0   9  11   -0.07    4.23   4
   0  -9  11   15.80    9.07   2
   0   9 -11    7.74    5.54   3
   2  -9  11   -1.45    5.50   1
  -2   9 -11   -6.51    3.83   4
   2   9 -11   12.69    6.51   3
   2  -9 -11    8.87    6.23   3
  -2   9  11    7.86    5.20   4
  -2  -9 -11    8.75    5.80   3
  -2  -9  11    9.57    8.81   5
   2  -9  11   -0.78    6.35   2
  -2  -9  11   15.11   10.94   2
  -2  -9  11    7.08    6.63   1
   2   9  11   16.04    7.26   4
  -2   9  11   11.60   11.69   1
   4  -9 -11    6.98    8.41   3
  -4   9  11   43.16   14.28   1
  -4   9  11   -1.84    4.77   4
  -4  -9  11    8.82    8.18   1
   4   9  11   -2.95    3.51   4
   4  -9  11   32.80   11.66   2
   4  -9  11    0.10    6.87   1
  -4  -9 -11    4.34    5.03   3
  -4   9 -11    3.90    5.34   4
   4   9 -11    8.02    6.13   3
  -4  -9  11    3.96    7.88   2
  -4  -9  11    7.18    6.80   5
  -6   9 -11   -1.71    5.15   4
   6   9  11    5.56    5.36   4
  -6   9  11   21.14   12.25   1
  -6  -9 -11   -4.48    4.35   3
   6  -9  11    4.44    6.46   2
   6  -9  11    0.08    7.21   1
   6   9 -11   -8.24    5.17   3
  -6  -9  11   -4.98    7.31   2
   6  -9 -11    8.49    8.01   3
  -6  -9  11    0.62    6.46   5
  -8   9  11   -4.75   11.17   1
   8   9 -11    5.22    9.76   3
   8   9  11   13.31    8.81   4
  -8   9 -11   16.25   10.18   4
  -8  -9  11   -0.75    7.81   2
  -8  -9  11   15.06    9.66   5
   8  -9  11   -8.92    7.93   1
  -1  10 -11   10.00    5.65   4
   1 -10  11    5.15    6.57   1
  -1 -10 -11    5.03    4.35   5
  -1  10  11    2.34    5.75   4
   1  10 -11   23.57    8.47   3
   1  10  11   14.92    7.10   4
  -1 -10  11   -2.04    8.32   2
  -1 -10 -11    6.59    6.62   3
   1 -10  11   15.84   10.11   2
   1 -10 -11   19.87    9.24   3
  -3 -10 -11   11.58    7.81   3
  -3 -10 -11    7.91    4.96   5
  -3  10  11   15.56    7.90   4
  -3  10 -11    1.63    4.87   4
  -3 -10  11   16.97   11.23   2
   3  10 -11    0.51    5.82   3
  -3 -10  11   12.56    8.66   5
   3  10  11    9.33    7.29   4
   3 -10  11    8.53    9.95   2
   3 -10  11    9.87    6.74   1
   3 -10 -11   10.42    7.11   3
  -5  10 -11    2.81    5.97   4
   5 -10  11    7.58    9.04   1
   5 -10  11   -2.68    8.90   2
  -5 -10  11    9.02    7.81   5
   5 -10 -11   -8.91    6.25   3
   5  10 -11    5.75    6.93   3
  -5 -10 -11   15.39    8.44   3
  -5 -10  11    2.60    8.65   2
   5  10  11   -1.45    4.34   4
  -7 -10 -11    9.06    7.60   3
   7 -10  11   24.94   12.50   2
  -7 -10  11   18.65   10.82   5
   7  10  11    2.16   10.19   4
   7  10 -11    9.56    7.77   3
  -7  10 -11   -5.02    6.25   4
  -7 -10  11   -7.61    7.34   2
   7 -10  11    3.40    8.78   1
   0  11 -11    6.64    6.26   4
   0 -11  11    2.84    7.98   2
   0 -11 -11    0.67    4.48   5
   0  11  11    3.31    5.20   4
   0 -11 -11   -0.85    5.44   3
   0  11 -11    2.93    4.71   3
  -2 -11 -11    8.31    8.25   3
  -2 -11 -11   19.75    6.85   5
  -2  11  11   34.63   11.30   4
  -2 -11  11   30.70   13.81   2
   2 -11 -11   21.14    8.86   3
   2  11  11   25.76   10.58   4
   2 -11  11    4.50   11.32   2
  -2  11 -11   31.64    9.70   4
   2  11 -11   17.28    9.53   3
  -4 -11  11   -6.07    5.81   5
   4  11 -11    6.98    7.24   3
   4  11  11    2.84    6.06   4
  -4 -11 -11    0.96    4.18   5
   4 -11  11    2.20    8.40   2
   4 -11 -11   -7.95    6.30   3
  -4 -11  11    8.50    9.66   2
  -4 -11 -11    0.19    5.16   3
  -4  11 -11    7.77    5.86   4
  -4  11  11   11.34    7.55   4
  -6 -11  11    6.22   12.40   2
  -6 -11  11    8.89    8.95   5
  -6  11 -11    7.82    9.95   4
   6 -11 -11   -4.08    9.06   3
   6 -11  11   14.43   10.90   2
  -6 -11 -11   -2.78    5.88   3
   6  11 -11    2.10    6.63   3
   6  11  11   15.16    9.28   4
  -8 -11  11  -10.19    8.03   5
   8  11  11   22.67   12.53   4
  -1 -12 -11   41.83   14.75   3
   1  12  11   88.69   17.89   4
   1 -12  11   56.02   16.37   2
  -1  12 -11   75.64   15.82   4
  -1 -12  11   61.00   17.09   2
   1 -12 -11   87.94   16.85   5
   1  12 -11   68.29   15.49   3
  -1 -12 -11   53.40   11.99   5
   1 -12 -11   50.72   14.70   3
  -1  12  11   63.28   15.04   4
  -3  12 -11   23.77    9.38   4
  -3 -12 -11   45.14   13.47   3
  -3 -12  11   70.31   21.47   2
   3  12 -11   52.97   14.54   3
  -3 -12 -11   59.23   11.95   5
   3 -12  11   25.07   14.12   2
   3  12  11   35.12   12.03   4
   3 -12 -11   29.21   12.47   3
  -3  12  11   43.26   13.62   4
  -5  12 -11   54.24   15.50   4
  -5  12  11   26.25    9.42   4
   5 -12 -11   54.56   17.97   3
   5  12 -11   48.12   14.91   3
  -5 -12 -11   36.44   14.28   3
  -5 -12 -11   50.69   10.70   5
   5  12  11   47.14   16.30   4
  -5 -12  11   44.88   19.23   2
   5 -12  11   34.29   15.55   2
  -5 -12  11   57.24   16.45   5
   7 -12  11   24.95   17.62   2
  -7 -12  11    5.62   15.76   2
  -7 -12  11   54.95   17.99   5
  -7 -12 -11   42.24   12.86   3
   7  12  11   24.63   14.79   4
   0  13  11    1.20    6.02   4
   0 -13 -11    3.51    4.32   5
   0 -13  11    7.06    8.75   2
   0 -13 -11    5.66    7.37   3
  -2 -13  11    5.34   11.21   2
  -2  13  11   22.23    9.74   4
   2 -13 -11   20.98   10.59   3
  -2 -13 -11   11.25    6.36   3
   2  13 -11   13.60    9.19   3
  -2 -13 -11   15.81    7.47   5
  -2  13 -11   21.15    8.76   4
   2 -13 -11   24.18    9.10   5
   2  13  11   27.07   10.60   4
   2 -13  11    7.24   10.34   2
   4  13  11   -4.69    7.61   4
  -4  13  11    3.92    6.43   4
  -4 -13 -11   -1.97    4.84   3
   4 -13  11   16.66   12.55   2
   4 -13 -11  -16.06    7.01   3
  -4 -13  11   13.06   13.03   2
  -4  13 -11    1.68    8.42   4
  -4 -13  11   -0.68    8.31   5
  -4 -13 -11   -2.35    3.88   5
   4  13 -11    9.75    7.67   3
  -6 -13  11   20.63   16.88   2
  -6 -13  11   20.47   11.45   5
   6  13  11   11.52   12.02   4
  -6  13 -11   11.51    8.86   4
  -6 -13 -11   18.87    8.61   3
   6 -13  11   31.20   16.25   2
   6  13 -11   26.32   11.38   3
  -1 -14  11   51.24   16.86   2
  -1  14  11   13.97    9.33   4
   1  14 -11    9.62    9.11   3
   1 -14 -11   13.67    9.20   5
  -1 -14 -11   19.69   11.85   3
   1 -14 -11   23.61   11.98   3
   1 -14  11   43.92   16.91   2
  -1  14 -11   17.35    9.62   4
  -1 -14 -11    4.84    6.25   5
   1  14  11   22.21   11.25   4
   3  14 -11   20.58    9.32   3
  -3  14 -11   12.62    9.45   4
  -3 -14 -11   19.80    8.57   3
  -3 -14 -11   36.60   10.54   5
  -3 -14  11   27.31   16.39   2
   3 -14 -11   15.11   12.06   3
   3 -14  11   -3.95   10.25   2
  -3  14  11   14.72    9.85   4
   3  14  11   29.45   12.82   4
  -5 -14  11   15.09   19.04   2
  -5  14 -11   10.60   11.50   4
  -5 -14  11   13.90   10.87   5
  -5 -14 -11    8.71    9.01   3
   5  14  11   31.72   14.04   4
  -5  14  11    7.85    8.02   4
   5 -14  11   15.18   14.83   2
   5  14 -11    7.83    8.40   3
  -5 -14 -11   21.27    7.65   5
   0  15  11   28.02   11.87   4
   0 -15 -11   30.09   13.16   3
   0 -15  11   41.29   17.41   2
   0 -15 -11   40.79   13.10   5
   2  15 -11   -2.02    6.67   3
   2 -15  11   11.50   12.56   2
  -2 -15 -11    4.82    9.99   3
  -2  15 -11   -2.80    7.54   4
   2 -15 -11    5.89   10.44   3
   2  15  11    7.66   10.44   4
  -2 -15  11   -3.05    9.64   2
  -2  15  11   12.25    6.30   4
  -2 -15 -11   -1.39    6.36   5
  -4 -15  11   16.58   16.11   2
  -4  15  11    5.20    8.80   4
   4  15 -11   29.67   12.02   3
   4 -15  11   35.03   17.73   2
  -4  15 -11   27.19   13.13   4
   4 -15 -11   53.63   17.79   3
   1 -16 -11    4.49    8.19   5
   1 -16  11   -5.29   11.66   2
   1 -16 -11    2.61   12.09   3
  -1 -16 -11    3.62    6.77   5
  -1 -16  11   21.08   12.61   2
   3  16 -11   16.42    8.76   3
   3 -16 -11    2.05   13.17   3
   0   0 -12 2080.78   77.36   3
   0   0  12 2217.57  108.92   1
   0   0 -12 2170.42   73.01   4
  -2   0 -12  127.30   17.55   4
  -2   0 -12  112.65   16.10   3
  -2   0  12  137.48   32.10   1
   2   0  12  141.69   32.07   1
   2   0 -12  131.79   19.30   3
  -4   0 -12 1984.18   68.09   3
   4   0  12 1769.77  104.97   1
  -4   0  12 1911.15  104.21   1
   4   0 -12 1941.48   79.61   3
  -4   0 -12 1871.98   75.52   4
   6   0  12  171.81   36.06   1
  -6   0  12  141.12   30.67   1
  -6   0 -12  201.34   25.85   4
  -6   0  12  239.75   28.55   5
   6   0 -12  200.70   27.11   3
   8   0 -12 1099.48   56.75   2
   8   0  12 1071.60   79.30   1
  -8   0 -12 1030.16   57.95   4
  -8   0  12 1184.52   62.01   5
  -8   0  12 1168.82   79.68   1
   8   0 -12 1106.74   63.40   3
 -10   0  12  134.19   28.53   1
  10   0 -12  142.51   24.32   2
  10   0 -12  174.60   30.23   3
  10   0  12  136.40   35.01   1
 -10   0 -12  137.02   23.40   4
  -1   1 -12   26.90    7.64   4
  -1  -1 -12   33.65    9.04   3
  -1   1 -12   33.19    8.72   3
  -1  -1  12   33.42   13.91   1
   1  -1 -12   22.14    7.90   3
  -1   1  12   38.48    8.71   4
  -1   1  12   29.98   14.03   1
   1   1  12   29.32    7.85   4
   1   1 -12   43.13    8.32   4
   1  -1  12   34.23   15.25   1
   1   1  12   20.70   14.30   1
   1   1 -12   28.78    8.71   3
  -3   1  12   82.40   24.59   1
  -3   1 -12   65.29   11.46   3
  -3   1 -12   66.12   12.87   4
   3  -1  12   61.40   19.62   1
   3   1 -12   57.09   13.57   3
  -3  -1 -12   92.10   15.28   4
   3  -1 -12   49.45   11.79   3
   3   1  12   60.06   21.22   1
  -3  -1  12   67.13   20.56   1
  -3  -1 -12   75.85   12.75   3
  -5   1  12    3.01    7.09   1
   5  -1  12    8.85    9.92   1
   5  -1 -12    5.01    5.94   3
  -5  -1  12    1.20    7.50   1
  -5  -1 -12   10.18    6.19   4
   5   1  12   12.78   11.25   1
  -5  -1  12   17.59    8.83   5
   5   1 -12    3.10    5.58   3
  -5   1 -12   12.00    6.21   4
   7  -1 -12   30.53   11.15   3
   7   1  12   11.27   12.12   1
   7   1 -12   30.21   11.86   3
  -7  -1  12   53.83   13.31   5
  -7   1  12    7.55   10.96   1
  -7  -1  12   26.31   15.33   1
   7  -1  12   41.29   18.14   1
  -7  -1 -12   28.51    9.57   4
  -7   1 -12   26.72    9.70   4
   7   1 -12   17.61    7.74   2
  -9  -1  12   17.77    7.80   5
  -9   1 -12   13.36    7.40   4
  -9  -1 -12   11.22    7.70   4
   9   1  12   21.89   15.73   1
   9  -1  12   35.72   19.65   1
  -9  -1  12    6.37    8.78   1
  -9   1  12   14.60   10.82   1
   9   1 -12   -8.22    8.59   3
   9  -1 -12    0.57   11.74   3
   9   1 -12    9.46    7.61   2
   0   2 -12 1943.02   70.30   3
   0   2  12 1864.65   98.78   1
   0  -2 -12 1770.41   70.06   3
   0  -2  12 1745.70   93.87   1
   0   2 -12 1879.81   65.35   4
   0   2  12 1760.49   65.64   4
   2  -2  12  239.71   38.20   1
  -2   2 -12  233.76   20.66   3
   2   2 -12  206.99   23.23   3
  -2  -2 -12  176.48   20.24   3
  -2  -2  12  169.22   33.57   1
  -2   2  12  200.36   16.24   4
   2   2  12  176.27   36.21   1
  -2   2 -12  214.00   21.69   4
   2   2 -12  217.35   15.84   4
   2  -2 -12  191.08   22.94   3
  -2   2  12  162.99   34.14   1
   2   2  12  195.98   21.32   4
  -4  -2 -12 1359.92   61.39   4
   4   2 -12 1382.61   64.03   3
  -4  -2 -12 1465.21   57.12   3
   4   2  12 1303.16   86.42   1
  -4   2 -12 1404.17   61.73   4
  -4  -2  12 1450.17   60.90   2
   4  -2  12 1390.33   87.73   1
   4  -2 -12 1385.51   64.58   3
  -4   2  12 1500.33   89.23   1
  -4  -2  12 1373.20   84.40   1
  -6  -2 -12   98.21   18.58   4
  -6  -2  12   99.76   25.68   1
   6   2  12  106.10   26.23   1
  -6   2 -12  130.52   20.60   4
   6  -2  12  156.49   33.70   1
  -6   2  12   98.89   24.69   1
   6  -2 -12  102.26   19.36   3
   6   2 -12  124.17   21.58   3
   6   2 -12  164.34   22.15   2
  -6  -2  12  144.26   22.78   5
   8   2 -12  692.38   48.54   3
  -8  -2  12  790.06   48.56   5
   8   2  12  728.68   61.32   1
  -8  -2 -12  637.94   44.32   4
  -8   2  12  671.79   58.19   1
   8  -2 -12  791.78   50.36   3
  -8  -2  12  644.64   65.50   1
  -8   2 -12  650.17   45.24   4
   8  -2  12  495.68   61.91   1
   8   2 -12  668.41   44.04   2
  10   2  12   95.04   28.87   1
 -10   2  12   93.76   25.79   1
 -10  -2  12  111.99   22.16   5
 -10   2 -12   96.82   20.76   4
  10   2 -12   60.29   20.22   3
 -10  -2  12   97.85   25.59   1
  10  -2  12   61.44   27.49   1
 -10  -2 -12  114.57   21.94   4
  10   2 -12  109.02   22.84   2
  -1   3  12  139.75   16.76   4
  -1   3 -12  142.33   17.75   3
  -1   3  12  174.04   32.45   1
   1  -3  12  142.44   27.85   1
   1   3 -12  141.90   18.74   3
   1  -3 -12  139.77   19.93   3
  -1  -3  12  146.94   29.29   1
   1   3  12  108.19   26.28   1
  -1   3 -12  146.28   17.37   4
   1   3 -12  136.47   14.94   4
  -1  -3 -12  157.83   19.98   3
   1   3  12  132.33   17.70   4
   3   3 -12  182.67   23.37   3
   3  -3  12  224.74   37.11   1
  -3  -3  12  149.19   31.70   1
   3   3  12  140.70   29.99   1
  -3   3 -12  220.48   19.38   3
  -3   3  12  195.20   36.00   1
   3   3  12  157.47   20.94   4
  -3  -3  12  231.90   25.69   2
  -3  -3 -12  238.30   22.51   3
   3  -3 -12  191.26   24.05   3
  -3   3 -12  230.25   23.64   4
  -3  -3  12  163.10   23.64   5
  -3   3  12  193.84   17.81   4
  -5   3 -12   61.86   14.57   4
  -5  -3  12  101.61   18.57   5
   5  -3 -12   95.40   18.10   3
   5   3  12   90.82   23.61   1
  -5   3  12   32.07   17.71   1
   5   3 -12   76.38   16.14   3
  -5  -3 -12   98.88   14.31   3
   5  -3  12   67.69   22.23   1
  -5  -3  12   80.43   16.24   2
  -5  -3 -12   63.35   13.99   4
  -5  -3  12   88.32   25.06   1
   7  -3  12   65.58   20.31   1
   7   3 -12   64.06   15.41   2
   7  -3 -12   86.97   18.50   3
   7   3 -12   99.96   20.31   3
  -7  -3 -12   77.55   16.96   4
   7   3  12   82.50   23.89   1
  -7   3 -12   37.64   11.68   4
  -7  -3  12   69.53   21.66   1
  -7  -3  12   69.50   15.54   5
  -7   3  12   73.33   23.51   1
  -9  -3  12   44.65   17.39   1
   9  -3  12   40.06   17.37   1
  -9   3 -12   50.86   14.41   4
   9   3 -12   37.45   14.92   3
   9  -3 -12   49.84   17.56   3
  -9  -3  12   43.69   13.55   5
  -9   3  12   48.54   18.04   1
   9   3 -12   84.25   18.79   2
  -9  -3 -12   30.83   10.68   4
   9   3  12   48.74   18.78   1
   0   4 -12 1210.63   49.78   4
   0   4 -12 1185.90   51.56   3
   0   4  12 1217.16   51.63   4
   0  -4  12 1106.78   69.04   1
   0   4  12 1205.46   75.48   1
   0  -4 -12 1241.79   56.37   3
  -2   4  12  260.42   43.28   1
  -2   4 -12  263.68   21.60   4
   2   4  12  223.70   37.95   1
  -2   4  12  279.42   20.67   4
  -2  -4  12  196.98   34.33   1
  -2   4 -12  301.03   21.26   3
   2  -4 -12  260.03   26.90   3
  -2  -4 -12  280.09   25.68   3
  -2  -4  12  282.51   33.57   2
   2  -4  12  305.40   39.27   1
   2   4  12  264.87   25.27   4
   2   4 -12  249.23   25.83   3
  -4   4  12 1163.16   78.01   1
  -4  -4  12 1268.87   60.55   2
  -4  -4 -12 1160.82   52.78   3
  -4   4 -12 1077.53   54.22   4
   4   4  12 1074.21   54.21   4
  -4  -4  12 1123.68   58.06   5
   4  -4  12 1196.52   74.66   1
   4  -4 -12 1171.94   57.83   3
  -4  -4  12 1160.63   77.25   1
   4   4 -12 1101.54   56.55   3
   4   4  12 1142.45   75.05   1
   6  -4 -12  241.34   30.37   3
  -6  -4  12  340.79   47.89   1
   6   4  12  355.34   45.20   1
  -6  -4  12  311.03   32.28   2
  -6  -4  12  394.98   35.64   5
  -6   4  12  276.84   43.21   1
   6   4 -12  290.77   32.82   3
  -6  -4 -12  291.12   30.93   4
  -6   4 -12  253.10   29.66   4
   6  -4  12  213.79   37.50   1
   8   4 -12  571.13   45.66   3
  -8  -4 -12  666.25   45.57   4
   8   4  12  753.77   60.06   1
  -8  -4  12  773.89   48.89   5
   8  -4  12  617.29   65.14   1
  -8  -4  12  704.50   60.67   1
  -8   4  12  663.70   65.12   1
  -8   4 -12  676.56   47.04   4
   8  -4 -12  710.08   48.93   3
  10   4  12  254.68   44.60   1
  10   4 -12  240.99   35.96   3
 -10  -4  12  224.56   31.42   5
 -10  -4  12  205.58   39.55   1
  10   4 -12  276.30   36.15   2
 -10  -4 -12  186.15   28.15   4
  -1   5 -12    8.68    5.61   4
  -1   5  12   13.07    5.45   4
  -1  -5  12    1.55    7.66   2
  -1  -5  12   11.99   10.10   1
  -1   5 -12   16.73    6.20   3
   1   5 -12    9.68    4.99   4
   1   5  12   14.57    6.32   4
   1  -5  12    9.19    9.28   1
  -1   5  12   24.25   12.53   1
  -1  -5 -12   15.27    7.16   3
   1   5  12   16.84   11.48   1
   1   5 -12    6.74    5.36   3
   1  -5 -12    4.65    4.73   3
   3   5  12   43.37   11.07   4
   3  -5 -12   25.31    9.86   3
  -3  -5 -12   37.15    9.65   3
  -3   5  12   16.98   11.80   1
   3   5  12   38.86   14.42   1
  -3  -5  12   42.12   12.69   5
  -3  -5  12   35.88   17.49   1
  -3   5  12   26.62    6.90   4
  -3  -5  12   22.05   10.99   2
  -3   5 -12   29.70    9.15   4
   3   5 -12   22.05    8.63   3
   3  -5  12   23.16   11.23   1
   5   5 -12   -4.90    4.59   3
  -5   5 -12    0.45    4.45   4
  -5  -5  12    9.51    8.22   1
   5   5  12    6.78    6.05   4
  -5   5  12   -8.06    7.51   1
  -5  -5  12   29.04    9.47   5
   5  -5  12    4.42    8.36   1
   5   5  12    9.78    9.78   1
   5  -5 -12   -3.34    5.20   3
  -5  -5  12    5.65    7.92   2
  -5  -5 -12    1.91    4.16   3
   7   5 -12    7.97    7.78   3
  -7  -5  12    4.79    6.79   5
  -7  -5  12    9.96   11.47   1
   7  -5  12   12.78   11.23   1
  -7  -5 -12   20.42    7.97   4
  -7  -5  12   18.56   11.01   2
  -7   5 -12   13.32    8.62   4
  -7   5  12   16.15   10.67   1
   7  -5 -12   19.17   10.30   3
   7   5  12   18.02   11.25   1
   9  -5  12    0.37    8.55   1
  -9  -5  12    3.67    9.74   2
   9   5 -12    7.05   10.58   3
  -9  -5 -12    4.13    6.95   4
  -9   5  12    3.74   12.25   1
  -9   5 -12    6.39    7.22   4
  -9  -5  12    1.07   10.63   1
  -9  -5  12    7.34    7.11   5
   9   5  12  -20.90    8.77   1
   0   6 -12 1105.50   48.16   4
   0  -6  12 1069.23   54.94   2
   0  -6  12 1024.40   63.42   1
   0  -6 -12 1043.45   53.03   3
   0   6 -12 1057.63   48.99   3
   0   6  12 1079.86   68.47   1
   0   6  12 1016.47   48.98   4
  -2  -6  12  775.26   57.59   1
  -2   6  12  759.80   39.49   4
  -2  -6  12  855.40   54.46   2
  -2   6 -12  723.05   40.41   4
   2  -6 -12  727.82   43.76   3
  -2   6  12  949.35   68.16   1
   2   6 -12  730.11   42.49   3
   2   6  12  699.57   41.63   4
   2  -6  12  773.53   54.13   1
   2   6  12  810.63   56.18   1
  -2   6 -12  819.93   38.66   3
  -2  -6 -12  738.41   43.20   3
  -4  -6 -12  802.66   45.17   3
  -4   6 -12  811.09   46.11   4
   4  -6  12  864.72   61.48   1
  -4  -6  12  734.55   51.12   2
   4   6 -12  731.07   46.53   3
   4  -6 -12  762.54   47.82   3
  -4   6  12  965.93   68.88   1
   4   6  12  936.55   60.31   1
  -4  -6  12  864.84   51.50   5
   4   6  12  850.62   47.75   4
  -4  -6  12  835.43   64.63   1
   6   6  12  495.65   47.98   1
  -6   6  12  463.51   55.04   1
  -6  -6 -12  448.77   32.74   3
   6  -6 -12  462.59   37.18   3
  -6  -6  12  461.57   36.37   5
  -6  -6  12  483.75   57.15   1
  -6  -6  12  477.82   43.23   2
   6   6 -12  419.79   40.35   3
   6   6  12  435.62   34.36   4
   6  -6  12  437.63   50.88   1
  -6   6 -12  373.17   36.93   4
   8  -6  12  378.30   50.67   1
  -8  -6 -12  462.13   41.97   4
  -8   6 -12  361.54   39.48   4
   8   6  12  449.60   48.26   1
   8   6 -12  388.52   42.14   3
  -8  -6  12  464.95   55.44   1
  -8  -6  12  469.41   46.39   2
  -8   6  12  392.21   54.13   1
   8  -6 -12  523.27   47.57   3
  -8  -6  12  452.05   41.35   5
   1  -7 -12   35.69   11.02   3
  -1   7  12   21.47    7.94   4
  -1   7 -12   38.96   10.08   3
   1   7 -12   39.55    9.03   4
  -1  -7  12   47.63   14.63   2
   1  -7  12   20.80   11.43   1
   1   7  12   52.79   17.06   1
  -1  -7 -12   32.92   10.28   3
   1  -7  12   24.76   11.75   2
  -1  -7  12   13.70    9.02   1
  -1   7  12   34.08   15.27   1
   1   7 -12   32.22    9.81   3
   1   7  12   35.44    9.88   4
  -1   7 -12   28.37    8.62   4
   3   7  12   71.94   14.99   4
  -3  -7  12   73.78   16.73   5
   3  -7  12   62.25   17.32   1
   3   7  12   42.03   14.55   1
  -3   7 -12   47.56   11.79   4
  -3   7  12   49.62   11.24   4
  -3   7  12   72.13   24.12   1
   3  -7 -12   54.50   14.69   3
  -3  -7 -12   41.57   11.61   3
  -3  -7  12   59.65   17.90   1
   3   7 -12   81.37   17.04   3
  -3  -7  12   62.73   17.40   2
   5   7  12   11.89    6.94   4
  -5   7 -12    5.83    6.03   4
  -5  -7  12   14.44    9.69   2
   5   7 -12   21.92    9.65   3
   5  -7 -12   20.03    9.02   3
  -5   7  12  -22.36    7.65   1
   5  -7  12   27.10   13.08   1
  -5  -7 -12   14.51    7.20   3
   5   7  12    0.59    9.25   1
  -5  -7  12   20.87    8.78   5
  -5  -7  12   56.99   19.88   1
   7   7  12    9.62   11.04   1
   7   7  12   22.55    9.58   4
  -7  -7  12   20.76    9.08   5
  -7  -7  12   23.61   19.22   1
   7  -7  12   16.35   10.81   1
   7  -7 -12   54.39   16.70   3
   7   7 -12   15.77   10.05   3
  -7   7 -12   30.56   11.05   4
  -7  -7  12   28.99   12.92   2
  -7   7  12   24.85   13.50   1
  -9  -7 -12   22.93    8.60   4
   9  -7  12   17.68   12.59   1
  -9  -7  12    7.98   13.01   2
  -9   7 -12   12.55    9.47   4
  -9  -7  12   36.73   14.74   1
   9   7 -12   33.90   15.90   3
  -9  -7  12   21.53   11.16   5
  -9   7  12   27.32   18.89   1
   0   8 -12  678.14   38.05   4
   0  -8  12  608.03   44.90   1
   0   8  12  595.69   38.66   4
   0   8 -12  698.65   39.24   3
   0  -8 -12  563.76   40.13   3
   0  -8  12  772.81   49.43   2
   0   8  12  681.05   49.89   1
  -2  -8  12  644.78   48.49   1
  -2  -8 -12  648.07   42.33   3
  -2   8  12  614.44   52.76   1
  -2   8  12  642.46   38.64   4
   2   8  12  660.70   41.99   4
   2  -8  12  659.75   44.93   2
   2   8 -12  571.16   38.65   3
   2  -8  12  672.35   47.52   1
  -2  -8  12  746.42   54.50   2
   2  -8 -12  723.28   44.09   3
  -2   8 -12  661.66   40.24   4
   2   8  12  641.00   47.20   1
   4   8 -12  563.87   40.69   3
  -4   8  12  641.53   62.47   1
  -4   8  12  572.95   35.54   4
  -4  -8  12  615.88   44.48   5
   4  -8  12  610.63   47.15   1
   4   8  12  613.41   41.19   4
   4   8  12  618.33   45.18   1
  -4   8 -12  569.15   39.71   4
  -4  -8 -12  582.29   39.46   3
  -4  -8  12  575.62   58.92   1
   4  -8 -12  619.82   42.41   3
  -4  -8  12  534.98   53.70   2
   6   8 -12  551.79   42.28   3
   6  -8 -12  491.57   40.32   3
  -6  -8  12  576.69   61.06   1
  -6  -8  12  538.07   41.66   5
  -6   8 -12  519.22   40.26   4
   6   8  12  574.80   42.21   4
  -6  -8  12  592.88   48.71   2
  -6  -8 -12  524.16   37.92   3
   6  -8  12  493.02   49.86   1
  -6   8  12  516.57   58.64   1
  -8   8  12  471.44   59.26   1
  -8  -8  12  411.63   47.69   2
  -8   8 -12  392.85   42.53   4
   8   8 -12  475.87   48.77   3
   8  -8  12  423.91   50.06   1
  -8  -8  12  374.95   39.76   5
  -1   9  12  117.04   19.37   4
   1  -9  12   92.40   20.45   2
  -1   9  12   72.74   18.59   1
   1  -9 -12  128.63   21.44   3
  -1   9 -12  137.09   20.61   4
   1  -9  12  105.09   20.36   1
  -1  -9  12  111.40   23.60   2
   1   9 -12  113.32   18.34   3
  -1  -9 -12   94.75   17.81   3
  -1  -9  12  113.80   22.69   1
   1   9  12  114.47   19.35   4
   3  -9  12  181.97   27.52   2
  -3  -9 -12  128.20   21.56   3
   3  -9 -12  132.27   22.75   3
   3  -9  12  149.98   26.59   1
  -3   9  12  161.99   22.10   4
  -3  -9  12  175.16   31.85   2
  -3   9  12  158.82   34.14   1
   3   9 -12  163.79   24.09   3
  -3   9 -12  161.29   24.18   4
  -3  -9  12  157.96   27.97   1
   3   9  12  128.70   21.62   4
   5   9 -12   58.25   15.01   3
   5  -9  12   63.88   18.17   1
  -5  -9  12   84.35   22.87   2
  -5   9  12   80.37   22.30   1
  -5  -9  12   51.89   14.17   5
  -5  -9 -12   77.50   16.71   3
   5   9  12   65.04   16.21   4
   5  -9 -12   41.85   14.79   3
  -5   9 -12   62.11   15.76   4
  -7   9 -12   87.76   21.13   4
   7   9 -12   81.25   20.63   3
  -7  -9 -12   99.17   18.46   3
  -7  -9  12   94.88   21.01   5
   7  -9  12   80.57   20.25   1
  -7  -9  12   56.72   20.49   2
   7   9  12   72.32   17.98   4
  -7   9  12   77.96   23.03   1
   0 -10 -12  369.36   37.71   3
   0  10 -12  478.46   32.95   3
   0  10  12  403.56   32.71   4
   0 -10  12  502.94   46.98   2
   0  10 -12  506.54   33.95   4
   2  10 -12  480.79   35.72   3
  -2 -10 -12  473.95   38.21   3
   2 -10 -12  476.59   37.93   3
   2 -10  12  561.98   45.10   2
   2  10  12  498.64   37.89   4
   2 -10  12  539.77   39.89   1
  -2 -10  12  594.53   48.55   2
  -2  10 -12  463.12   34.81   4
  -2  10  12  467.77   35.31   4
   4  10 -12  312.95   34.86   3
  -4  10  12  437.87   32.81   4
   4 -10  12  299.06   36.43   1
  -4  10 -12  322.02   35.05   4
  -4 -10 -12  295.52   34.42   3
   4  10  12  359.19   37.71   4
   4 -10 -12  405.80   39.73   3
   4 -10  12  333.56   37.67   2
  -4 -10  12  357.27   48.49   2
  -4 -10  12  380.14   41.99   5
  -6 -10  12  406.07   43.69   5
   6  10  12  291.41   36.40   4
   6 -10  12  334.63   40.32   1
  -6 -10 -12  314.29   35.66   3
   6  10 -12  362.07   40.92   3
  -6 -10  12  356.29   48.33   2
   6 -10 -12  427.48   44.66   3
  -6  10 -12  292.86   36.07   4
   8 -10  12  274.78   38.89   1
  -8 -10  12  247.52   41.61   2
   8  10  12  212.65   32.63   4
  -8 -10  12  246.82   35.82   5
  -1 -11 -12    2.63    6.75   3
  -1 -11  12    0.61    9.34   2
  -1  11  12   12.06    6.91   4
   1  11 -12    6.43    6.57   3
   1  11  12    6.55    5.74   4
   1 -11 -12   14.24    8.65   3
   1 -11  12   11.93   10.33   2
  -1  11 -12    4.99    6.13   4
   3 -11 -12   11.57    8.15   3
   3  11 -12   11.32    8.09   3
  -3 -11  12  -13.57    8.60   2
  -3 -11 -12   -0.98    4.28   3
  -3  11  12   -0.73    5.72   4
  -3  11 -12   11.47    7.94   4
   3 -11  12    4.17    9.23   2
   3  11  12    0.85    5.51   4
   5 -11  12   21.46   10.54   2
  -5 -11  12    0.21   13.34   2
   5  11  12   18.48   10.37   4
  -5  11 -12   15.06    8.62   4
   5  11 -12    1.31    5.72   3
   5 -11 -12   -1.01    8.52   3
  -5 -11 -12   12.79    7.50   3
  -5 -11  12   10.58    9.57   5
  -7 -11  12   -1.10    9.16   5
  -7 -11 -12    7.66    7.90   3
  -7 -11  12    3.79   12.52   2
   7  11 -12    7.27    7.57   3
   7  11  12    6.58    9.37   4
  -7  11 -12   -9.59    7.59   4
   0 -12  12  323.40   40.70   2
   0 -12 -12  405.46   40.18   3
   0  12  12  331.88   36.47   4
  -2 -12  12  364.26   45.32   2
  -2  12 -12  334.28   35.34   4
  -2  12  12  385.52   38.10   4
   2 -12  12  357.35   44.13   2
  -2 -12 -12  330.47   37.69   3
   2  12  12  293.87   35.51   4
   2 -12 -12  281.04   35.65   3
   2  12 -12  341.08   35.26   3
  -4 -12  12  402.63   53.06   2
   4 -12  12  475.30   48.66   2
  -4  12 -12  372.75   38.71   4
   4  12 -12  433.12   42.03   3
   4  12  12  411.99   42.61   4
   4 -12 -12  395.89   43.06   3
  -4 -12 -12  418.05   42.75   3
  -4  12  12  417.59   38.72   4
  -6 -12  12  297.27   50.42   2
  -6 -12  12  314.44   41.52   5
   6  12 -12  324.94   40.62   3
  -6  12 -12  270.11   36.05   4
  -6 -12 -12  257.97   33.65   3
   6  12  12  364.20   42.06   4
  -1 -13 -12  135.35   20.63   5
   1 -13 -12  138.89   25.40   3
  -1  13 -12  147.95   23.99   4
  -1  13  12   97.68   19.56   4
  -1 -13  12  174.08   31.17   2
   1 -13  12  182.53   33.70   2
   1  13 -12  105.92   20.18   3
  -1 -13 -12  151.34   27.58   3
   1  13  12  170.45   27.67   4
   3 -13 -12  149.76   26.71   3
  -3 -13 -12  184.44   23.07   5
  -3  13 -12  183.84   28.42   4
  -3 -13 -12  164.38   27.98   3
  -3  13  12  198.03   28.97   4
   3  13 -12  166.96   27.25   3
   3  13  12  129.27   24.39   4
   3 -13  12  157.75   30.55   2
  -3 -13  12  150.23   31.72   2
   5 -13 -12   79.70   23.47   3
   5 -13  12  132.61   28.72   2
  -5  13 -12   83.79   19.81   4
   5  13  12   70.85   19.17   4
  -5 -13  12   84.03   24.88   2
  -5 -13 -12  118.02   22.01   3
   5  13 -12   80.10   19.01   3
   0 -14 -12  477.14   48.05   3
   0 -14  12  528.68   51.93   2
   0  14  12  483.37   45.77   4
   0 -14 -12  493.21   37.36   5
  -2 -14  12  284.90   41.71   2
  -2  14 -12  293.67   35.70   4
   2  14 -12  237.87   31.92   3
  -2 -14 -12  268.24   28.99   5
  -2  14  12  283.05   35.54   4
   2  14  12  293.18   37.68   4
   2 -14  12  355.62   46.61   2
   2 -14 -12  310.61   39.20   3
  -2 -14 -12  281.18   36.77   3
   4  14  12  428.86   47.22   4
  -4 -14  12  410.05   54.27   2
   4 -14 -12  412.52   47.45   3
  -4 -14 -12  442.72   31.49   5
   4  14 -12  488.38   46.81   3
   4 -14  12  423.40   50.73   2
  -4  14  12  383.94   40.45   4
  -4  14 -12  420.20   43.22   4
  -4 -14 -12  338.31   41.41   3
   1 -15 -12    4.26   11.33   3
  -1 -15 -12    7.89    7.49   5
   1  15  12    3.65    6.26   4
  -1 -15  12   21.18   13.82   2
   1 -15  12   -4.06    9.99   2
  -1  15  12   18.02    8.61   4
   1 -15 -12   18.82    9.94   5
  -1 -15 -12   13.41   12.83   3
  -3  15  12   -3.60    7.71   4
  -3  15 -12   -3.73    8.86   4
  -3 -15  12   21.60   15.25   2
   3 -15  12  -21.45   10.96   2
   3  15 -12   12.90    8.80   3
   3 -15 -12  -13.94   10.31   3
  -1   0  13  218.21   38.19   1
  -1   0 -13  234.03   22.14   4
   1   0 -13  219.94   24.48   3
   1   0 -13  225.07   17.21   4
  -1   0 -13  201.89   21.67   3
   1   0  13  257.25   42.11   1
   3   0 -13   96.05   17.64   3
  -3   0 -13  104.85   15.51   3
  -3   0  13   55.44   19.75   1
  -3   0 -13  113.10   17.81   4
   3   0  13   61.11   22.65   1
  -5   0  13  145.73   32.37   1
   5   0 -13  181.97   25.72   3
  -5   0 -13  160.84   23.16   4
   5   0  13  160.91   35.66   1
   7   0  13   68.54   24.57   1
   7   0 -13   40.72   13.87   3
  -7   0  13   69.02   23.99   1
  -7   0 -13   51.59   13.51   4
  -9   0  13   19.69   15.97   1
   9   0  13   28.78   21.53   1
   9   0 -13   36.31   14.65   3
  -9   0 -13   53.70   14.97   4
   0   1 -13    7.22    5.03   4
   0   1  13    5.09    8.49   1
   0   1 -13    3.24    3.96   3
   0   1  13    5.37    3.66   4
   0  -1  13   -7.65    5.95   1
   0  -1 -13    3.07    3.72   3
  -2  -1 -13    6.98    5.58   4
  -2   1 -13   12.83    6.33   4
  -2  -1 -13   17.07    6.91   3
  -2  -1  13   19.51   13.30   1
   2   1  13   45.38   17.97   1
  -2   1 -13   13.44    6.31   3
   2  -1 -13   18.64    8.15   3
  -2   1  13   21.35   13.57   1
   2  -1  13   29.87   14.09   1
  -2   1  13   10.72    5.33   4
   2   1 -13   12.58    5.15   4
   2   1 -13   15.84    7.62   3
  -4  -1 -13   12.28    5.66   3
  -4  -1 -13   19.95    7.94   4
   4   1 -13    8.72    5.61   3
  -4   1  13    1.98   10.34   1
   4  -1  13    4.17    9.22   1
  -4  -1  13   13.63    9.98   1
   4  -1 -13    9.62    7.08   3
   4   1  13    5.25   12.44   1
  -4   1 -13    9.08    5.86   4
   6  -1  13    0.71   10.62   1
  -6  -1 -13    2.87    5.44   4
   6   1 -13   11.43    6.71   3
  -6  -1  13    0.36    9.01   1
  -6   1  13   -9.20    8.86   1
  -6   1 -13   -0.97    5.37   4
   6   1  13   18.41   13.33   1
   6  -1 -13    7.78    6.77   3
  -8  -1 -13   51.18   13.69   4
   8  -1  13   36.94   20.09   1
   8   1  13    4.05   15.14   1
  -8   1 -13   37.32   11.84   4
  -8   1  13   62.35   23.23   1
   8  -1 -13   53.62   16.75   3
   8   1 -13   20.35   11.86   3
  -8  -1  13   29.92   15.57   1
  10   1 -13   -9.84   11.57   3
  -1  -2 -13  296.33   23.73   3
  -1  -2  13  319.00   43.83   1
   1  -2 -13  268.35   26.96   3
   1   2  13  290.68   22.45   4
   1   2 -13  265.91   19.36   4
  -1   2 -13  282.85   22.43   3
   1   2  13  271.09   43.34   1
  -1   2  13  382.17   50.30   1
  -1   2 -13  285.25   22.01   4
   1  -2  13  239.35   38.68   1
  -1   2  13  301.44   21.25   4
   1   2 -13  296.46   24.13   3
  -3   2 -13  151.27   17.71   3
   3  -2 -13  148.99   22.14   3
   3   2  13  160.43   34.09   1
   3  -2  13  181.76   35.22   1
  -3   2 -13  107.72   17.92   4
  -3  -2 -13  130.18   17.68   3
  -3   2  13  102.13   27.49   1
  -3  -2  13  142.94   32.10   1
   3   2 -13  130.29   20.04   3
   5  -2 -13  254.37   30.14   3
   5   2  13  249.66   43.20   1
   5   2 -13  229.58   29.11   3
  -5   2  13  286.63   46.32   1
  -5  -2 -13  211.22   26.30   4
  -5   2 -13  243.91   28.22   4
  -5  -2  13  303.50   47.45   1
   5  -2  13  275.06   44.49   1
   7   2  13  110.39   28.55   1
   7   2 -13   91.43   19.07   3
  -7  -2 -13   94.72   18.78   4
   7  -2  13   61.28   19.79   1
  -7   2 -13  110.58   20.45   4
  -7  -2  13   83.81   22.36   1
   7  -2 -13   80.50   18.79   3
  -7   2  13  105.12   27.19   1
   9   2 -13   38.38   16.81   3
   9  -2 -13   65.87   19.92   3
  -9  -2  13   73.73   23.00   1
   9  -2  13   49.15   24.17   1
  -9   2 -13   75.50   17.50   4
  -9  -2 -13   46.78   14.02   4
   9   2  13   28.48   19.59   1
  -9   2  13   86.65   29.49   1
   0   3 -13  125.25   18.10   3
   0   3 -13  146.47   17.12   4
   0  -3  13  104.28   24.63   1
   0   3  13  162.99   31.58   1
   0  -3 -13  173.91   22.07   3
   0   3  13  152.87   18.47   4
  -2  -3 -13   64.70   13.39   3
  -2   3  13   46.66   20.97   1
   2   3  13   39.25   17.62   1
  -2   3 -13   42.15   10.37   4
   2   3 -13   51.15   12.03   3
  -2   3 -13   57.73   11.09   3
  -2  -3  13   45.55   17.08   1
  -2   3  13   43.09    9.58   4
   2   3  13   59.14   12.26   4
   2  -3  13   60.63   20.20   1
   2  -3 -13   46.75   12.42   3
   4   3 -13   50.46   13.09   3
  -4  -3 -13   52.78   11.56   3
   4  -3  13   54.48   20.14   1
   4   3  13   45.17   18.70   1
  -4   3 -13   72.70   15.00   4
  -4   3  13   55.38   19.34   1
   4   3  13   48.21   12.27   4
   4  -3 -13   66.00   14.77   3
  -4  -3  13   73.46   22.50   1
  -6  -3  13   85.60   17.27   5
  -6   3 -13   68.32   16.05   4
   6  -3 -13  107.38   20.52   3
   6   3  13   78.62   24.16   1
   6  -3  13   90.27   26.92   1
  -6  -3  13   69.10   16.30   2
   6   3 -13   61.51   15.85   3
  -6  -3 -13   65.85   14.99   4
  -6   3  13   59.20   20.57   1
  -6  -3  13   95.04   27.07   1
  -8   3 -13    5.31    5.77   4
  -8  -3  13   25.91   13.23   1
   8   3 -13    8.32    9.14   3
  -8  -3 -13   -0.65    6.61   4
   8  -3  13    2.01    9.53   1
   8  -3 -13   -1.05    7.71   3
  -8   3  13   19.35   13.19   1
   8   3  13   15.94   16.73   1
  -8  -3  13    7.29    7.39   5
 -10  -3  13   35.47   14.42   5
  -1   4 -13   48.05   10.76   3
  -1   4 -13   78.92   13.98   4
  -1  -4 -13   56.23   12.26   3
   1  -4  13   67.57   19.39   1
  -1   4  13   61.35   11.77   4
   1   4  13   71.95   21.68   1
   1   4  13   59.50   12.00   4
   1   4 -13   70.83   14.48   3
  -1  -4  13   69.64   20.24   1
  -1   4  13   46.32   18.07   1
   1   4 -13   76.74   13.03   4
   1  -4 -13   64.02   14.33   3
  -3   4  13   -1.82   11.25   1
  -3   4 -13   15.22    7.54   4
  -3  -4 -13   21.51    7.23   3
   3   4  13   11.69   11.93   1
   3  -4 -13   15.58    7.54   3
   3   4  13   12.85    7.57   4
   3   4 -13   16.92    7.89   3
  -3  -4  13   23.11   12.51   1
   3  -4  13   10.77   10.46   1
   5  -4 -13   81.16   18.01   3
   5   4 -13   78.75   17.27   3
  -5   4 -13   73.93   16.07   4
  -5  -4  13   61.21   20.67   1
  -5   4  13   75.84   25.01   1
  -5  -4 -13   64.76   12.47   3
   5   4  13   86.09   17.26   4
  -5  -4  13   95.06   18.82   2
   5  -4  13   43.19   19.69   1
   5   4  13   57.28   20.56   1
   7  -4 -13   17.62    9.56   3
  -7  -4  13    7.50   12.20   1
  -7  -4  13    3.52    5.64   5
   7  -4  13    7.88   10.17   1
  -7   4  13   45.25   18.80   1
   7   4 -13   17.16   11.44   3
  -7   4 -13    9.10    6.45   4
  -7  -4  13   18.60    9.39   2
   7   4  13   -5.53   10.25   1
  -7  -4 -13    4.15    6.45   4
   9  -4  13    7.54   10.51   1
  -9  -4  13   23.12   13.40   2
  -9   4 -13    8.30    7.18   4
   9   4 -13   -1.67   11.00   3
  -9  -4  13   10.41   11.88   1
  -9  -4  13   13.11    9.84   5
  -9  -4 -13   -5.10    6.48   4
   9   4  13   17.37   15.03   1
  -9   4  13    1.69   13.55   1
   0   5  13   26.90   12.66   1
   0  -5  13   -0.77    8.53   1
   0  -5 -13   13.68    7.71   3
   0   5 -13   14.43    5.96   3
   0   5  13   12.01    6.11   4
   0   5 -13   12.49    6.43   4
   2  -5  13  177.93   31.49   1
   2   5  13  202.03   35.30   1
  -2   5  13  230.78   39.88   1
  -2  -5  13  138.92   29.25   1
   2  -5 -13  150.87   22.42   3
  -2   5  13  134.10   17.96   4
  -2  -5 -13  188.57   23.45   3
   2   5  13  141.24   20.35   4
  -2   5 -13  155.14   18.63   3
   2   5 -13  124.30   19.31   3
  -2   5 -13  172.54   21.48   4
  -4  -5 -13   35.99   10.28   3
  -4  -5  13   14.21   14.19   1
  -4   5 -13   47.75   12.72   4
   4  -5 -13   44.70   13.42   3
   4  -5  13   27.77   13.52   1
   4   5 -13   58.33   14.79   3
  -4  -5  13   24.38   12.27   2
   4   5  13   39.46   11.80   4
  -4   5  13   34.31   17.39   1
   4   5  13   33.73   14.53   1
  -6  -5  13   52.08   20.77   1
   6   5  13   50.90   18.43   1
  -6  -5  13   70.90   17.93   5
  -6  -5  13   55.17   14.70   2
  -6   5  13   30.40   16.76   1
  -6   5 -13   61.07   15.56   4
   6  -5  13   26.68   13.23   1
   6   5 -13   57.13   15.78   3
   6  -5 -13   38.94   13.12   3
  -8  -5  13   47.94   17.88   1
  -8  -5  13   26.11   13.12   2
  -8  -5  13   20.61   11.26   5
  -8   5  13   94.93   26.87   1
   8  -5 -13   34.97   15.23   3
   8  -5  13   58.27   21.97   1
  -8   5 -13   31.94   12.17   4
   8   5  13   23.72   15.82   1
  -8  -5 -13   49.14   13.59   4
   8   5 -13   23.74   14.06   3
  -1  -6  13  439.73   46.65   1
  -1   6 -13  514.67   31.78   3
  -1   6  13  507.50   53.43   1
  -1  -6 -13  483.62   34.40   3
   1  -6  13  498.64   49.85   1
   1   6  13  452.58   48.60   1
   1   6  13  456.28   32.56   4
   1  -6 -13  482.05   35.34   3
  -1   6  13  440.01   30.35   4
  -1   6 -13  537.54   33.40   4
   1   6 -13  471.20   32.17   3
   3   6  13  238.46   27.65   4
   3  -6 -13  259.02   30.05   3
  -3  -6 -13  275.47   28.78   3
   3  -6  13  266.51   38.23   1
  -3  -6  13  382.26   43.15   2
  -3   6  13  226.35   41.45   1
  -3  -6  13  264.95   41.66   1
  -3   6  13  292.12   22.47   4
   3   6 -13  263.52   29.31   3
  -3   6 -13  264.87   27.73   4
   3   6  13  365.90   44.62   1
  -5   6  13  359.61   53.02   1
  -5  -6  13  370.22   52.26   1
  -5  -6 -13  393.71   29.95   3
  -5  -6  13  370.28   38.95   5
  -5  -6  13  377.33   41.65   2
   5  -6  13  406.78   48.71   1
   5   6 -13  352.68   37.60   3
   5  -6 -13  322.49   35.15   3
   5   6  13  419.97   46.32   1
  -5   6 -13  418.29   37.38   4
   5   6  13  396.95   36.57   4
   7  -6 -13  194.97   29.72   3
  -7  -6  13  191.08   27.93   5
   7   6  13  188.17   32.87   1
  -7  -6  13  136.73   33.14   1
   7   6 -13  207.42   31.47   3
  -7  -6 -13  133.08   23.11   4
  -7   6  13  196.48   38.63   1
  -7  -6  13  185.56   30.04   2
   7  -6  13  133.95   30.66   1
  -7   6 -13  170.58   26.31   4
  -9  -6  13  134.51   28.58   2
  -9  -6  13   87.39   20.65   5
   9   6  13  124.03   29.63   1
  -9   6  13   36.73   22.55   1
  -9  -6  13   98.48   26.11   1
  -9  -6 -13  122.96   23.59   4
   0   7 -13   89.53   15.50   3
   0  -7 -13  100.02   17.92   3
   0   7 -13   84.83   15.54   4
   0  -7  13   74.80   18.73   1
   0   7  13   82.87   15.94   4
   0   7  13   81.79   21.70   1
  -2   7  13   17.62   14.95   1
   2   7  13   38.65   11.00   4
   2   7 -13   63.25   14.49   3
  -2  -7  13   34.03   13.80   2
   2   7  13   58.14   17.88   1
   2  -7  13   40.10   14.58   1
  -2   7  13   37.22    9.91   4
  -2  -7  13   23.19   13.43   1
  -2  -7 -13   33.57   10.72   3
  -2   7 -13   34.35   10.56   4
   2  -7 -13   49.00   12.87   3
  -4   7  13   44.44   17.77   1
  -4  -7 -13   36.71   10.34   3
   4   7 -13   35.36   11.78   3
  -4   7 -13   31.34   10.71   4
   4   7  13    9.86    6.89   4
   4   7  13   75.12   20.87   1
   4  -7  13   32.75   13.35   1
   4  -7 -13   42.61   13.00   3
  -4  -7  13   21.59   12.16   2
  -4  -7  13   49.24   19.44   1
   6  -7 -13   70.28   18.70   3
  -6  -7  13  108.18   22.97   5
   6  -7  13   85.78   21.59   1
   6   7 -13   62.92   16.71   3
  -6  -7 -13   67.31   14.54   3
  -6  -7  13   77.99   20.33   2
  -6   7 -13   52.02   14.78   4
   6   7  13   55.99   17.73   1
   6   7  13   46.46   13.92   4
  -6  -7  13   91.39   24.08   1
  -6   7  13   79.02   25.74   1
  -8   7  13    0.15   13.29   1
   8  -7  13   10.27   11.99   1
   8   7 -13   -3.62    9.17   3
  -8  -7 -13    1.44    6.14   4
  -8  -7  13   -1.38    7.44   5
  -8  -7  13  -30.53   11.11   1
  -8  -7  13  -11.04    9.90   2
  -8   7 -13   15.63    7.95   4
   1   8  13    7.25    8.85   1
  -1   8 -13   11.40    6.47   4
   1  -8  13   -0.45    6.47   1
   1   8 -13   -1.34    4.67   3
  -1   8  13    7.00   11.38   1
   1  -8 -13    1.92    5.71   3
  -1  -8  13    8.66    7.35   1
  -1   8  13    4.05    4.76   4
  -1  -8 -13    5.96    6.26   3
  -1   8 -13    4.53    5.66   3
   1   8  13   -0.85    4.20   4
  -1  -8  13   20.06   10.23   2
  -3  -8  13  -10.85    7.94   1
   3   8  13    3.81    5.87   4
  -3   8  13    6.67   11.67   1
  -3  -8 -13    7.53    5.92   3
  -3   8  13    1.54    4.72   4
   3  -8  13   -0.73    6.15   1
   3  -8 -13   -1.43    5.93   3
  -3  -8  13   21.49   13.12   2
   3   8  13    7.57   10.21   1
  -3   8 -13    8.12    6.19   4
   3   8 -13   -4.10    4.80   3
  -5  -8 -13   17.42    7.41   3
  -5   8  13   26.02   14.74   1
   5  -8 -13    1.78    6.38   3
   5   8 -13   17.44    9.35   3
   5   8  13   15.87    8.24   4
  -5  -8  13   36.27   14.19   1
  -5   8 -13   11.89    8.71   4
  -5  -8  13    1.94    9.41   2
   5  -8  13   16.89    9.73   1
  -5  -8  13   11.61    8.82   5
  -7  -8  13   -6.62    8.99   2
   7  -8  13   -6.19    8.15   1
   7   8  13   12.20    8.95   4
   7   8 -13    3.27    7.43   3
  -7   8 -13   -1.10    7.29   4
  -7  -8  13   -1.45    7.35   5
   7  -8 -13  -16.60    7.28   3
  -7  -8  13   20.25   13.58   1
  -7   8  13   -7.85   11.87   1
   0   9  13   -1.06    4.40   4
   0  -9 -13    1.61    4.34   3
   0   9 -13   -3.70    5.21   3
   0   9 -13   -3.81    4.92   4
   0  -9  13    6.92    8.14   1
   0  -9  13    3.42    7.27   2
  -2   9  13   25.88    8.46   4
  -2   9 -13   17.85    8.66   4
  -2   9  13   13.16   15.11   1
   2   9  13   25.28   10.70   4
   2   9 -13   29.51   10.99   3
   2  -9  13   16.29    9.86   1
  -2  -9  13    0.12   10.28   2
  -2  -9  13   22.04   11.11   1
  -2  -9 -13   15.40    7.27   3
   2  -9 -13   21.76    9.45   3
   4  -9 -13    2.33    7.43   3
  -4  -9  13    6.56   10.16   2
  -4   9  13   34.80   17.34   1
  -4   9 -13   -2.16    4.58   4
  -4  -9  13   28.15   11.93   1
   4  -9  13   11.08    9.10   1
  -4  -9 -13   10.29    6.58   3
   4   9  13   21.61    9.33   4
   4   9 -13   11.82    6.37   3
  -6   9 -13    4.01    7.62   4
  -6  -9 -13   15.09    7.56   3
   6   9 -13   11.17    7.96   3
  -6  -9  13   -6.79    9.25   2
  -6   9  13   21.50   14.85   1
   6  -9 -13    8.87    9.57   3
  -6  -9  13   -1.91    7.30   5
   6  -9  13  -11.33    8.51   1
   6   9  13    6.18    8.26   4
  -8  -9  13   -3.20   13.60   2
   8  -9  13   10.25   10.47   1
  -8   9  13    2.82   19.76   1
  -8  -9  13    9.44   11.50   5
   1 -10  13  272.67   33.23   1
  -1  10 -13  304.83   30.79   4
   1 -10 -13  298.52   34.62   3
   1  10 -13  296.57   30.25   3
  -1  10  13  329.11   33.92   4
  -1 -10 -13  277.83   34.24   3
  -1 -10  13  309.51   39.37   2
   1  10  13  341.05   34.86   4
   1 -10  13  410.33   43.61   2
  -3  10  13  201.64   26.22   4
   3  10 -13  206.57   28.04   3
   3  10  13  161.62   25.43   4
  -3  10 -13  173.27   25.78   4
  -3 -10  13  132.03   28.82   2
   3 -10 -13  185.08   28.19   3
   3 -10  13  223.22   30.67   1
  -3 -10 -13  161.39   26.08   3
  -5  10 -13  214.25   30.13   4
   5 -10  13  216.89   31.44   1
  -5 -10 -13  252.34   32.22   3
   5 -10 -13  246.72   35.09   3
   5  10 -13  230.35   32.21   3
  -5 -10  13  226.35   40.43   2
   5  10  13  289.02   35.60   4
  -7 -10  13  120.65   24.84   5
  -7  10 -13   99.90   21.85   4
   7 -10  13  108.25   23.74   1
  -7 -10  13  145.29   32.96   2
  -7 -10 -13  143.47   23.77   3
   7  10  13  102.32   21.89   4
   7  10 -13  139.74   26.61   3
   0  11  13    6.31    6.65   4
   0 -11 -13    7.03    6.77   3
   0 -11  13   -3.54    7.57   2
   2  11  13   -5.64    5.98   4
  -2 -11  13   14.15   11.24   2
   2 -11 -13   -1.55    6.82   3
  -2  11  13    8.46    6.68   4
   2  11 -13   -3.77    5.41   3
  -2  11 -13    4.14    6.30   4
  -2 -11 -13    6.11    6.56   3
   4  11 -13   13.56    8.78   3
   4  11  13   -6.83    6.24   4
  -4 -11 -13    3.80    6.53   3
  -4  11  13    3.49    6.05   4
  -4  11 -13   -0.52    6.27   4
  -4 -11  13   -1.68   11.28   2
   4 -11 -13   -0.45    8.28   3
   6 -11 -13   10.73   12.67   3
  -6 -11 -13    8.80    8.01   3
  -6  11 -13   10.92    9.25   4
   6  11  13   44.91   16.28   4
  -6 -11  13   28.04   19.28   2
   6  11 -13   28.62   12.03   3
   1 -12  13    8.39   11.01   2
  -1  12 -13   47.41   13.93   4
   1 -12 -13   29.98   12.93   3
   1  12  13   28.58   11.40   4
   1  12 -13   48.15   13.43   3
  -1 -12  13   23.87   14.32   2
  -1  12  13   29.61   11.89   4
  -1 -12 -13   32.80   12.01   3
  -3 -12 -13    8.62    8.15   3
   3  12  13   16.33    8.44   4
   3  12 -13    0.25    6.23   3
  -3  12 -13    1.64    8.51   4
  -3 -12  13   -1.33   10.34   2
  -3  12  13   11.47    8.16   4
   3 -12 -13   14.80    9.82   3
   5  12 -13   49.93   14.17   3
  -5 -12  13   41.98   19.20   2
   5 -12 -13   38.84   15.42   3
  -5  12 -13   44.57   14.47   4
  -5 -12 -13   31.07   10.87   3
   5  12  13   28.60   14.03   4
   0 -13  13    5.78   10.56   2
   0 -13 -13   25.21   13.76   3
   0  13  13   -3.19    6.32   4
   2  13  13   14.33    8.01   4
   2 -13  13   20.59   15.75   2
  -2 -13 -13   17.20    9.88   3
  -2  13  13   10.31    8.50   4
   2  13 -13   20.39    9.82   3
  -2 -13  13   10.29   13.11   2
  -2  13 -13   17.83   11.36   4
   2 -13 -13   34.66   15.10   3
  -4  13  13   13.20    7.79   4
   4  13 -13   29.24   10.96   3
   4  13  13   12.09   10.40   4
   4 -13 -13    2.45   11.09   3
  -4 -13  13   -8.30   12.58   2
  -4  13 -13   19.54   10.72   4
  -4 -13 -13   11.43    6.31   3
  -1 -14 -13   42.09   17.14   3
   1 -14 -13   69.87   19.93   3
   1  14  13   69.43   18.08   4
  -1  14  13   68.72   17.13   4
   1 -14  13   57.12   19.88   2
  -1 -14  13   59.50   20.10   2
   3  14 -13   22.02   11.54   3
   3 -14 -13   18.69   13.77   3
  -3 -14  13    2.09   13.00   2
  -3  14 -13   27.73   12.26   4
  -3  14  13   11.28    9.75   4
   0 -15  13   11.36   13.50   2
  -2  15 -13   24.06   11.81   4
   2 -15  13  -18.58   10.48   2
  -2 -15  13    8.74   12.17   2
   0   0 -14  179.06   19.28   4
   0   0 -14  122.26   18.91   3
   0   0  14  209.69   37.40   1
  -2   0  14 1557.52   95.55   1
   2   0  14 1473.11   94.36   1
  -2   0 -14 1559.41   65.41   4
   2   0 -14 1575.88   69.83   3
  -2   0 -14 1540.31   63.13   3
  -4   0  14  126.56   31.21   1
   4   0 -14  110.11   20.19   3
   4   0  14  141.49   33.01   1
  -4   0 -14   99.20   18.20   4
  -6   0  14  824.65   71.28   1
   6   0 -14  796.83   51.84   3
  -6   0 -14  870.32   51.09   4
   6   0  14  852.60   84.19   1
   8   0 -14   52.35   18.08   3
  -8   0  14   64.55   22.85   1
   8   0  14   27.31   18.78   1
  -8   0 -14   45.30   13.01   4
  -1  -1  14   -2.24    6.92   1
  -1  -1 -14    3.19    4.02   3
   1  -1 -14   -0.66    4.02   3
   1   1  14   11.42   11.25   1
  -1   1 -14   -0.26    4.16   4
   1   1 -14    1.93    4.20   3
  -1   1  14   -0.39    3.29   4
  -1   1  14    1.92    9.12   1
  -1  -1 -14    8.34    5.17   4
   1  -1  14    6.29    8.66   1
  -1   1 -14    0.25    3.67   3
   1   1 -14    7.25    4.98   4
  -3  -1  14    7.88   11.33   1
  -3   1  14    0.09   11.70   1
  -3   1 -14    7.73    4.97   3
   3   1 -14   13.81    8.43   3
   3  -1 -14   18.63    8.95   3
  -3  -1 -14    5.60    4.62   3
  -3  -1 -14    9.99    6.73   4
  -3   1 -14    3.75    5.47   4
   3  -1  14   21.16   13.64   1
   3   1  14   18.61   13.79   1
  -5   1 -14    3.12    5.82   4
  -5  -1 -14    6.30    4.51   4
   5  -1  14    5.23   13.33   1
  -5   1  14   22.93   13.36   1
   5  -1 -14   16.65    9.14   3
  -5  -1  14   -1.37    7.55   1
   5   1 -14    4.72    5.77   3
   5   1  14   16.82   15.12   1
   7   1 -14   13.90    9.37   3
  -7   1  14    1.32    9.61   1
   7  -1  14   12.20   15.24   1
   7   1  14    7.91   13.11   1
  -7  -1  14    7.65   11.39   1
  -7  -1 -14    0.12    5.98   4
   7  -1 -14   14.55   10.34   3
  -7   1 -14   13.06    5.99   4
   9   1  14   18.07   20.28   1
  -9  -1  14   -4.98    9.69   1
   9  -1  14   -7.24   16.68   1
  -9  -1 -14    5.39    6.45   4
   9  -1 -14   -5.46   10.25   3
  -9   1 -14   12.88    7.89   4
  -9   1  14   -4.89   12.34   1
   9   1 -14    4.09   12.77   3
   0   2 -14  163.23   19.07   4
   0   2  14  174.89   19.80   4
   0   2  14  192.64   35.71   1
   0  -2  14  209.76   36.21   1
   0  -2 -14  189.84   23.75   3
   0   2 -14  124.23   18.79   3
  -2   2  14  951.57   42.68   4
  -2   2 -14 1014.01   47.22   3
  -2   2  14 1096.02   78.30   1
   2   2  14 1069.16   77.62   1
   2  -2 -14 1002.34   52.69   3
   2  -2  14  958.91   70.84   1
   2   2 -14  937.62   50.83   3
  -2   2 -14 1033.67   49.45   4
  -2  -2 -14 1010.03   48.78   3
   2   2  14  923.88   47.98   4
   4  -2 -14  241.09   30.01   3
  -4   2 -14  229.16   26.89   4
   4  -2  14  241.19   44.74   1
  -4  -2  14  180.04   37.91   1
  -4  -2 -14  205.59   26.04   4
  -4  -2 -14  243.89   23.91   3
   4   2  14  229.10   43.55   1
  -4   2  14  244.87   43.84   1
   4   2 -14  210.21   28.17   3
  -6  -2  14  751.24   76.70   1
  -6   2 -14  846.26   51.48   4
   6  -2 -14  948.48   56.64   3
   6   2 -14  892.56   55.02   3
   6   2  14  866.58   83.54   1
  -6  -2 -14  919.89   53.19   4
  -6   2  14  871.32   74.16   1
   6  -2  14 1011.82   81.16   1
  -8  -2  14  249.07   45.75   1
   8  -2  14  297.06   51.98   1
  -8  -2 -14  264.60   33.32   4
  -8   2 -14  236.14   32.22   4
   8  -2 -14  209.63   31.71   3
   8   2  14  283.82   50.01   1
  -8   2  14  260.20   47.14   1
   8   2 -14  187.03   30.67   3
  -1   3 -14   26.86    8.60   4
  -1   3 -14   20.27    7.52   3
  -1   3  14   33.21    8.78   4
   1   3  14   26.28    8.96   4
   1  -3 -14   26.00    9.06   3
   1   3  14   31.71   16.02   1
  -1  -3  14   22.57   13.94   1
   1  -3  14   17.13   11.80   1
  -1   3  14   -4.95    8.12   1
   1   3 -14   24.62    8.72   3
   1   3 -14   13.01    6.69   4
  -1  -3 -14   35.28   10.03   3
  -3  -3  14  103.27   28.53   1
   3   3  14   76.95   14.68   4
  -3   3 -14   71.95   15.04   4
   3  -3  14   91.67   25.66   1
   3  -3 -14   67.99   15.26   3
   3   3 -14   91.26   18.02   3
   3   3  14   96.32   26.14   1
  -3  -3 -14   86.77   15.74   3
  -3   3  14   91.68   28.25   1
   5   3  14    8.56   12.43   1
   5   3 -14    7.34    7.22   3
  -5   3  14   13.50   11.47   1
   5  -3  14    7.93   10.85   1
  -5  -3  14   23.41   11.80   1
  -5   3 -14    6.34    7.62   4
   5  -3 -14   -2.03    6.13   3
  -5  -3 -14    3.46    5.39   4
   7   3 -14   32.01   14.04   3
   7  -3 -14   56.00   15.92   3
   7   3  14   19.85   16.18   1
  -7   3  14   24.69   17.71   1
  -7  -3 -14   46.28   13.55   4
  -7  -3  14   17.54   17.16   1
   7  -3  14   33.93   18.18   1
  -7   3 -14   13.92    8.44   4
   9   3  14   35.39   21.46   1
  -9  -3  14   15.10   14.36   1
   9  -3 -14   19.75   15.94   3
   9   3 -14   20.02   14.64   3
  -9  -3 -14   40.17   12.21   4
   0   4  14  376.63   27.23   4
   0   4 -14  375.17   28.19   3
   0  -4 -14  384.36   30.90   3
   0   4 -14  443.48   28.24   4
   0  -4  14  395.16   47.86   1
   0   4  14  536.94   55.75   1
   2   4  14 1106.28   54.26   4
  -2   4 -14 1180.65   54.02   4
   2  -4  14 1125.73   72.85   1
  -2   4  14 1056.00   77.13   1
   2   4  14 1192.65   78.70   1
  -2  -4  14 1076.58   74.69   1
  -2  -4 -14 1040.76   53.47   3
  -2   4 -14 1137.80   49.89   3
  -2   4  14 1101.95   48.88   4
   2  -4 -14 1055.59   56.48   3
   2   4 -14 1058.57   54.86   3
  -4   4 -14  277.29   30.38   4
  -4  -4  14  251.05   46.10   1
   4  -4  14  323.99   47.67   1
   4   4 -14  258.15   30.77   3
   4   4  14  273.24   30.03   4
  -4   4  14  344.26   51.78   1
  -4  -4 -14  319.43   25.64   3
   4  -4 -14  278.39   31.97   3
   4   4  14  322.74   49.41   1
  -6   4  14  606.27   70.46   1
   6  -4 -14  615.57   45.42   3
   6   4 -14  592.51   44.26   3
   6  -4  14  533.86   64.82   1
  -6  -4  14  545.44   65.80   1
  -6  -4 -14  489.28   38.67   4
  -6   4 -14  546.21   40.71   4
   6   4  14  833.51   67.65   1
   8   4  14  199.16   39.01   1
   8  -4 -14  176.60   31.41   3
  -8  -4 -14  148.84   25.50   4
  -8  -4  14  162.88   36.64   1
  -8   4  14  165.82   37.13   1
  -8   4 -14  174.73   27.83   4
   8  -4  14  131.56   32.91   1
   8   4 -14  202.21   32.40   3
  -1   5  14   -9.76    6.92   1
  -1   5 -14    0.74    4.47   3
   1   5  14   21.18   12.63   1
  -1   5 -14    1.25    5.04   4
  -1  -5 -14   -1.67    3.66   3
  -1   5  14    4.85    4.47   4
   1   5 -14    1.25    4.99   3
   1   5  14    0.31    4.73   4
   1  -5 -14   -1.49    3.29   3
   1  -5  14    9.03    9.77   1
  -1  -5  14   -1.23    7.84   1
  -3  -5 -14   10.39    6.42   3
   3   5 -14    7.91    6.79   3
   3  -5  14   14.31   10.05   1
   3   5  14   12.31   11.06   1
  -3   5  14   23.72   15.42   1
   3  -5 -14   13.84    7.41   3
  -3  -5  14   17.71   12.60   1
  -3   5 -14   14.08    7.10   4
   3   5  14    0.18    4.91   4
   5   5  14   10.89   11.14   1
  -5  -5  14   31.72   17.69   1
   5   5 -14   10.93    7.87   3
  -5   5  14   -5.32    9.92   1
   5  -5 -14    3.26    6.71   3
  -5  -5 -14   -1.37    5.59   3
   5  -5  14    1.41   10.44   1
   5   5  14    8.13    6.22   4
  -5   5 -14   13.83    8.13   4
   7   5  14    1.27   13.64   1
   7  -5  14    0.73    9.78   1
  -7  -5  14  -13.28    9.78   1
  -7   5  14    3.73   13.18   1
   7   5 -14   22.82   10.41   3
  -7   5 -14   -5.41    5.92   4
  -7  -5 -14    3.14    6.87   4
   7  -5 -14   -8.77    8.50   3
   9   5  14    7.44   16.73   1
   0   6 -14  608.87   35.01   4
   0  -6 -14  481.67   36.16   3
   0   6  14  521.70   34.62   4
   0   6 -14  487.78   33.63   3
   0   6  14  557.23   55.54   1
   0  -6  14  495.18   49.61   1
   2   6  14  519.64   52.41   1
   2   6 -14  540.06   37.39   3
  -2  -6 -14  584.28   38.72   3
  -2   6  14  554.43   60.17   1
   2   6  14  617.66   38.87   4
  -2   6  14  531.14   33.41   4
  -2  -6  14  545.49   54.70   1
   2  -6  14  574.96   48.77   1
   2  -6 -14  534.63   38.46   3
  -2   6 -14  488.87   34.38   4
   4   6 -14  587.91   41.90   3
   4   6  14  635.80   53.11   1
  -4   6  14  709.20   72.99   1
   4   6  14  575.38   40.85   4
   4  -6 -14  549.76   41.58   3
   4  -6  14  638.70   54.45   1
  -4  -6 -14  596.34   39.21   3
  -4  -6  14  578.66   65.76   1
  -4   6 -14  587.22   40.02   4
   6   6 -14  476.88   45.27   3
   6  -6 -14  578.93   45.40   3
   6   6  14  556.98   41.83   4
  -6  -6  14  649.95   70.14   1
  -6   6 -14  433.38   42.40   4
  -6   6  14  628.88   72.22   1
   6   6  14  629.37   53.50   1
   6  -6  14  587.86   61.74   1
  -8  -6 -14  493.57   45.56   4
   8   6  14  516.70   56.99   1
  -8   6 -14  485.67   45.98   4
   8  -6 -14  439.53   48.64   3
  -8  -6  14  526.18   65.72   1
   8  -6  14  428.92   56.96   1
  -8   6  14  313.71   53.89   1
   8   6 -14  420.66   46.57   3
  -1  -7 -14    8.23    5.25   3
   1   7  14    2.71    9.11   1
   1   7 -14   -9.97    3.18   3
  -1   7  14   10.76   10.40   1
   1  -7  14  -15.59    6.33   1
   1   7  14   -9.92    4.38   4
  -1  -7  14   -9.25    6.63   1
   1  -7 -14    6.82    6.37   3
  -1   7 -14   -1.48    4.94   3
  -1   7  14   -4.76    4.15   4
  -1   7 -14    4.59    6.19   4
   3   7 -14   36.51   12.03   3
  -3   7 -14   40.63   11.96   4
  -3   7  14   14.94    7.08   4
   3   7  14    4.73    9.64   1
   3   7  14   23.44    8.95   4
  -3   7  14    8.93   15.53   1
  -3  -7 -14    3.41    5.42   3
  -3  -7  14   26.25   15.04   1
   3  -7 -14   15.38    8.57   3
   3  -7  14   43.00   17.12   1
  -5  -7 -14   -6.93    5.27   3
   5  -7 -14   10.49    7.45   3
  -5   7 -14   -7.28    6.16   4
   5   7 -14    1.45    4.97   3
   5  -7  14   -7.45    7.59   1
   5   7  14   -4.16    5.37   4
  -5   7  14   13.72   15.17   1
  -5  -7  14    4.59   13.10   1
   5   7  14   -2.06    8.96   1
  -7   7 -14   -0.15    8.15   4
  -7   7  14   -2.01   15.59   1
  -7  -7  14   10.84   13.83   1
   7  -7  14   -0.64    9.45   1
   7   7 -14  -10.56    8.20   3
   7  -7 -14   20.19   12.44   3
   0  -8  14  671.50   50.27   1
   0   8 -14  639.05   39.70   3
   0  -8 -14  646.31   43.61   3
   0   8  14  577.50   39.82   4
   0   8  14  720.00   54.51   1
  -2  -8 -14  538.84   39.78   3
  -2   8  14  568.74   58.29   1
  -2  -8  14  477.96   49.06   1
   2   8  14  471.98   36.74   4
   2   8 -14  565.45   39.25   3
  -2   8  14  490.78   34.46   4
   2  -8 -14  550.01   40.61   3
  -2   8 -14  559.15   37.80   4
   2   8  14  559.84   46.78   1
   2  -8  14  599.20   47.43   1
  -4  -8  14  495.83   55.85   1
   4   8 -14  502.99   39.03   3
   4  -8  14  408.91   46.45   1
  -4   8 -14  439.30   36.03   4
  -4   8  14  505.18   63.95   1
   4   8  14  450.46   36.74   4
  -4  -8 -14  469.89   36.75   3
   4  -8 -14  433.32   42.40   3
   6   8  14  303.20   36.63   4
  -6   8  14  387.03   56.44   1
  -6  -8  14  337.54   51.90   1
  -6  -8  14  351.63   46.49   2
  -6  -8 -14  292.13   32.04   3
   6   8 -14  279.17   35.80   3
  -6   8 -14  291.89   37.06   4
   6  -8 -14  332.89   40.44   3
   6  -8  14  242.79   39.24   1
  -8  -8  14  253.86   40.80   2
  -8   8  14  198.50   44.27   1
  -1  -9  14   32.90   13.41   1
   1   9 -14   33.46   11.20   3
   1  -9  14   27.64   12.05   1
   1   9  14   17.28    8.30   4
   1  -9 -14   32.07   12.09   3
  -1   9  14   49.33   12.76   4
  -1  -9 -14   49.50   13.55   3
   3  -9  14   92.24   21.19   1
  -3  -9  14   56.78   18.66   1
   3   9 -14   77.69   17.00   3
   3  -9 -14   68.42   17.39   3
   3   9  14   62.60   15.20   4
  -3   9 -14   67.10   15.42   4
  -3   9  14  106.04   28.08   1
  -3   9  14  100.66   17.71   4
  -3  -9 -14  112.33   21.23   3
   5  -9  14   -9.19    7.64   1
   5   9 -14   14.53    9.05   3
  -5   9 -14   18.73   10.18   4
  -5   9  14   16.71   17.98   1
   5   9  14   16.31    9.12   4
  -5  -9  14   -2.45   11.43   2
  -5  -9 -14    8.92    7.75   3
   5  -9 -14   19.40   10.80   3
   7  -9 -14   41.28   18.78   3
  -7   9  14   67.10   27.22   1
   7   9  14   25.02   12.27   4
  -7  -9  14   61.10   22.11   2
   7  -9  14   39.18   15.98   1
   0  10  14  344.73   35.47   4
   0 -10 -14  382.55   39.18   3
  -2  10 -14  292.33   32.02   4
  -2  10  14  207.14   27.44   4
   2  10 -14  279.49   32.25   3
   2 -10  14  248.47   34.47   1
  -2 -10 -14  286.76   34.79   3
   2 -10 -14  254.78   33.71   3
   2  10  14  253.46   32.02   4
   4  10 -14  428.32   41.09   3
   4 -10 -14  379.28   41.41   3
   4  10  14  368.48   40.29   4
  -4 -10 -14  479.13   39.18   3
  -4 -10  14  477.01   55.05   2
   4 -10  14  424.63   45.15   1
  -4  10 -14  400.53   39.60   4
   6 -10  14  291.82   39.12   1
   6 -10 -14  299.35   40.17   3
   6  10  14  231.56   33.98   4
  -6 -10 -14  259.40   33.54   3
  -6  10 -14  298.59   37.63   4
  -6 -10  14  395.51   55.29   2
   6  10 -14  237.58   34.70   3
   1  11 -14   22.39   10.89   3
   1 -11 -14   30.67   14.71   3
  -1  11  14   32.26   11.51   4
  -1  11 -14   14.25    7.98   4
   1  11  14   33.87   11.86   4
  -1 -11 -14   40.30   12.39   3
  -3  11  14   -1.36    6.57   4
   3  11  14   10.20    8.90   4
  -3 -11 -14   10.03    7.11   3
  -3 -11  14   -8.27   10.54   2
   3  11 -14   17.48    9.83   3
  -3  11 -14    9.48    9.55   4
   3 -11 -14    5.23    9.88   3
   5  11 -14   36.04   12.59   3
  -5 -11 -14   56.50   15.45   3
  -5  11 -14   11.79   10.81   4
   5 -11 -14   42.58   16.79   3
  -5 -11  14   38.26   20.57   2
   5  11  14   67.14   18.40   4
   0 -12 -14  336.83   40.38   3
   0  12  14  417.21   40.55   4
  -2 -12 -14  406.70   42.47   3
  -2 -12  14  387.75   46.95   2
  -2  12 -14  421.54   40.33   4
  -2  12  14  415.06   39.43   4
   2  12 -14  430.10   40.82   3
   2  12  14  414.42   43.45   4
   2 -12 -14  344.01   40.47   3
   4  12 -14  212.18   31.94   3
   4 -12 -14  190.84   32.25   3
  -4 -12  14  315.26   47.49   2
  -4  12 -14  251.71   33.69   4
  -4 -12 -14  284.89   36.71   3
   4  12  14  270.40   37.58   4
  -1 -13 -14   50.21   17.84   3
  -1  13  14   55.80   15.88   4
   1  13  14   72.93   17.93   4
   1 -13 -14   79.53   21.36   3
  -3 -13 -14  114.47   23.86   3
  -3  13 -14  113.67   22.70   4
   3  13 -14  109.16   22.51   3
  -3  13  14   86.90   18.93   4
   3 -13 -14   68.13   21.98   3
  -3 -13  14   67.51   22.75   2
  -2 -14  14  260.57   39.66   2
  -1   0 -15   54.58   12.21   4
   1   0 -15   41.56   12.25   3
  -1   0 -15   44.77   11.35   3
   1   0  15   52.45   19.49   1
  -1   0  15   52.56   17.82   1
   1   0 -15   38.39   10.32   4
  -3   0 -15   66.61   14.38   4
  -3   0 -15   77.80   14.34   3
  -3   0  15   96.32   29.64   1
   3   0  15   79.20   25.21   1
   3   0 -15   56.47   14.15   3
  -5   0  15    9.64   11.72   1
   5   0  15   26.25   18.77   1
  -5   0 -15   11.62    6.70   4
   5   0 -15   22.28   10.03   3
  -7   0 -15   45.85   13.84   4
   7   0  15   42.99   23.55   1
   7   0 -15   44.29   15.35   3
  -7   0  15   29.87   20.90   1
   0   1  15    8.04    9.56   1
   0  -1 -15   10.89    6.38   4
   0   1 -15    6.49    6.14   3
   0   1 -15   12.15    5.74   4
   0  -1  15   -8.94    7.95   1
   0  -1 -15   11.39    7.40   3
  -2  -1  15   25.12   15.52   1
   2   1  15   29.96   15.00   1
   2  -1  15   21.56   14.85   1
   2   1 -15    4.99    5.54   3
  -2  -1 -15    5.01    5.19   4
  -2   1 -15   14.07    7.72   4
   2  -1 -15   17.59    7.56   3
  -2   1  15  -12.45    7.41   1
  -2   1 -15   10.43    6.23   3
  -2  -1 -15    9.48    5.62   3
  -4   1  15   -4.28    9.48   1
   4   1 -15    0.01    4.87   3
  -4  -1 -15    8.71    7.11   4
   4   1  15  -11.11    8.82   1
   4  -1 -15   -1.13    5.83   3
  -4   1 -15    2.78    5.19   4
   4  -1  15   22.86   14.10   1
  -4  -1  15   -4.10    8.06   1
  -6  -1 -15   -1.96    6.52   4
   6   1  15    1.09   13.74   1
   6  -1  15    4.31   14.08   1
  -6  -1  15    2.93   12.57   1
   6   1 -15    7.37    8.49   3
  -6   1  15    6.90   11.51   1
  -6   1 -15    3.23    5.41   4
   6  -1 -15    6.84    7.61   3
  -8  -1  15    7.69   13.26   1
   8  -1 -15    4.56   12.17   3
   8  -1  15   -9.92   16.51   1
  -8   1 -15   -1.30    5.07   4
  -8  -1 -15   -4.33    5.49   4
  -8   1  15  -22.71   12.85   1
   8   1  15   17.30   18.79   1
   8   1 -15   -2.96    9.25   3
   1  -2  15   33.96   14.66   1
   1   2  15    4.72   11.14   1
   1   2 -15   29.53   10.35   3
   1   2  15   22.29    8.08   4
   1  -2 -15   30.94   10.18   3
  -1   2 -15   45.39   11.77   4
  -1  -2  15   18.45   11.85   1
  -1   2  15   31.94   16.08   1
  -1   2 -15   22.14    8.30   3
  -1   2  15   33.37    8.90   4
  -1  -2 -15   25.96    9.75   3
  -3  -2 -15   40.25   10.69   3
  -3  -2 -15   37.39   11.06   4
  -3   2  15   39.14   19.15   1
  -3   2 -15   36.82   11.76   4
   3   2  15   36.94   18.10   1
   3   2 -15   32.24   10.80   3
   3  -2 -15   39.34   12.16   3
   3  -2  15   55.06   20.98   1
  -3  -2  15   39.65   18.22   1
   5   2 -15    8.65    8.99   3
  -5  -2 -15   16.58    8.46   4
   5  -2  15   11.41   13.14   1
  -5   2  15   45.65   18.12   1
  -5   2 -15    7.90    7.66   4
  -5  -2  15   10.18   11.30   1
   5   2  15   -0.62   13.74   1
   5  -2 -15   23.14    9.89   3
   7  -2 -15   13.92   10.36   3
  -7   2 -15   19.41    9.58   4
  -7  -2  15   10.44   13.76   1
   7   2 -15   22.02   11.14   3
   7  -2  15   28.42   18.94   1
  -7  -2 -15   19.30   11.16   4
  -7   2  15   19.39   19.05   1
   7   2  15   20.13   20.04   1
   0   3 -15   59.93   13.60   3
   0  -3  15   63.51   20.32   1
   0  -3 -15   60.01   13.82   3
   0   3  15   87.10   24.21   1
   0   3  15   76.29   14.29   4
   0   3 -15   79.85   14.26   4
   2  -3 -15   90.92   18.53   3
  -2   3 -15  107.90   16.70   3
  -2  -3 -15  108.69   18.23   3
   2  -3  15   97.19   24.75   1
  -2  -3  15   71.56   24.12   1
   2   3  15  103.20   17.94   4
  -2   3 -15  123.32   18.71   4
   2   3 -15   85.44   17.10   3
  -2   3  15   86.76   26.01   1
   2   3  15   98.87   27.35   1
  -4  -3  15   57.78   24.03   1
  -4   3 -15   43.88   12.79   4
  -4  -3 -15   20.72    8.19   3
  -4   3  15   18.22   15.51   1
   4   3  15   35.22   18.62   1
   4  -3  15   36.75   16.37   1
   4  -3 -15   57.11   14.64   3
   4   3 -15   48.73   14.25   3
  -4  -3 -15   35.69   11.02   4
   6  -3 -15  115.92   23.02   3
  -6   3  15  106.97   30.80   1
   6   3  15  126.58   34.82   1
   6   3 -15  110.96   22.48   3
  -6  -3 -15   65.46   16.35   4
   6  -3  15  116.63   32.49   1
  -6   3 -15   80.11   18.37   4
  -6  -3  15   76.80   25.88   1
   8   3  15   34.21   23.31   1
   8  -3  15    3.55   12.31   1
  -8   3  15   22.84   23.31   1
  -8  -3 -15   31.73   11.39   4
   8   3 -15   38.09   15.55   3
   8  -3 -15   27.44   15.01   3
  -8  -3  15  -11.41   14.43   1
  -1   4  15  102.16   15.78   4
   1   4  15  119.76   18.59   4
  -1   4 -15  137.40   19.75   4
   1   4  15  110.16   26.79   1
  -1  -4 -15  112.37   19.53   3
  -1   4  15  118.28   28.23   1
  -1   4 -15  119.21   18.25   3
   1  -4  15  113.98   26.54   1
   1   4 -15  132.28   20.82   3
   1  -4 -15  113.83   20.69   3
  -1  -4  15  106.82   25.51   1
  -3  -4  15  124.42   30.78   1
   3   4  15  135.67   21.39   4
   3   4 -15   93.88   18.45   3
  -3   4 -15  134.02   21.33   4
   3  -4 -15   96.97   19.33   3
   3  -4  15  188.05   36.17   1
  -3   4  15  183.71   41.69   1
   3   4  15  120.74   29.85   1
  -3  -4 -15  130.38   20.16   3
  -5   4 -15  105.32   20.71   4
   5  -4  15   83.18   26.20   1
   5   4  15   70.28   24.08   1
  -5  -4 -15   47.23   13.39   4
   5  -4 -15   79.33   17.63   3
  -5   4  15  120.44   32.49   1
   5   4 -15   50.09   13.96   3
  -5  -4  15  100.84   29.46   1
   7   4  15   94.65   29.02   1
   7  -4  15   47.62   21.68   1
  -7  -4 -15   61.94   17.20   4
   7  -4 -15   70.06   18.64   3
  -7   4  15   74.26   25.46   1
  -7   4 -15   41.89   15.55   4
  -7  -4  15   57.27   20.99   1
   7   4 -15   84.88   21.64   3
   0  -5 -15   24.75   10.75   3
   0  -5  15   47.49   16.56   1
   0   5 -15   54.22   12.56   4
   0   5  15   47.98   11.47   4
   0   5  15   48.08   19.01   1
   0   5 -15   33.54   10.56   3
  -2   5 -15   16.66    8.28   4
  -2   5  15   30.75    8.85   4
   2   5 -15   29.63   10.35   3
   2  -5  15   36.02   16.79   1
   2   5  15   27.02   15.71   1
   2   5  15   19.51    8.59   4
  -2   5  15   45.91   19.60   1
  -2  -5 -15   27.30   10.49   3
  -2  -5  15    8.88   13.01   1
   2  -5 -15   13.07    8.97   3
  -4  -5 -15   45.53   11.54   3
   4   5 -15   40.94   13.08   3
  -4   5 -15   50.07   14.04   4
   4   5  15   48.79   13.79   4
   4   5  15   43.43   20.32   1
   4  -5 -15   29.51   11.25   3
   4  -5  15   23.50   14.30   1
  -4  -5  15   80.15   25.72   1
  -4   5  15   42.22   20.19   1
   6  -5 -15    1.48    8.18   3
  -6   5 -15    8.00    9.32   4
  -6   5  15   24.08   16.20   1
   6   5  15    9.11   15.31   1
  -6  -5 -15   17.48    8.10   4
   6  -5  15   27.38   14.48   1
   6   5 -15    9.31    9.51   3
  -6  -5  15   -9.08   11.29   1
   8  -5 -15   30.24   15.60   3
   8   5  15   42.48   22.02   1
  -8  -5  15   18.07   14.40   1
  -1  -6 -15   -0.94    4.62   3
  -1   6  15    1.34    9.02   1
   1   6 -15    9.68    6.56   3
  -1   6 -15    4.18    5.58   3
   1  -6 -15    7.95    5.76   3
  -1   6  15    5.75    4.74   4
   1  -6  15   11.34    8.34   1
  -1  -6  15   17.31   11.21   1
  -1   6 -15   -2.53    5.97   4
   1   6  15    0.97   10.45   1
   1   6  15    1.06    4.06   4
   3   6  15    0.29    9.93   1
  -3  -6 -15   -2.93    4.62   3
   3  -6 -15    6.78    5.84   3
  -3  -6  15    0.63   10.95   1
  -3   6  15  -12.37   10.03   1
   3   6 -15   12.18    6.85   3
   3  -6  15   -0.38    8.27   1
  -3   6 -15   11.46    7.13   4
   3   6  15    1.83    5.19   4
  -5   6 -15   -2.47    6.86   4
  -5  -6  15    8.04   13.02   1
   5   6  15   10.23   13.86   1
   5  -6 -15    5.80    8.09   3
   5   6  15   -2.95    4.70   4
  -5  -6 -15    3.92    5.67   3
  -5   6  15    7.16   15.44   1
   5  -6  15    1.33   11.16   1
   5   6 -15    6.26    7.83   3
   7   6 -15   -5.53    8.71   3
   7  -6  15   13.22   10.59   1
  -7   6  15   20.87   18.76   1
  -7  -6 -15    2.98    6.48   4
   7   6  15   -6.58   13.38   1
  -7   6 -15    4.18    9.34   4
  -7  -6  15    1.76   12.27   1
   7  -6 -15   -7.86    8.70   3
   0   7  15   94.69   24.36   1
   0  -7  15  105.20   23.73   1
   0  -7 -15   88.28   18.45   3
   0   7  15  111.54   19.44   4
   0   7 -15   92.75   17.65   3
  -2   7  15   43.79   11.48   4
   2   7  15   46.94   18.20   1
  -2   7  15   33.40   15.52   1
   2   7 -15   41.22   12.52   3
  -2  -7  15   43.62   17.08   1
  -2   7 -15   33.85   11.97   4
   2  -7 -15   26.35   10.51   3
  -2  -7 -15   27.72   10.26   3
   2  -7  15   27.83   12.85   1
   2   7  15   37.25   11.29   4
  -4  -7  15   63.32   20.83   1
   4  -7 -15   45.41   14.35   3
   4   7  15   54.83   18.06   1
   4   7 -15   54.11   15.40   3
  -4  -7 -15   52.53   13.22   3
  -4   7 -15   43.39   13.01   4
   4  -7  15   89.60   24.94   1
   4   7  15   57.28   15.04   4
  -4   7  15   98.82   31.40   1
  -6   7  15   63.32   28.90   1
   6  -7  15   80.94   22.04   1
   6  -7 -15   32.95   14.86   3
   6   7  15   45.18   19.85   1
   6   7 -15   44.93   15.25   3
  -6   7 -15   20.85   13.42   4
  -6  -7  15   56.47   25.03   1
   6   7  15   49.38   15.12   4
   1  -8 -15  185.20   26.95   3
  -1  -8  15  148.45   28.31   1
  -1   8  15  210.16   34.88   1
  -1   8 -15  184.20   24.86   4
   1  -8  15  180.83   30.73   1
  -1  -8 -15  171.13   26.45   3
  -1   8  15  151.33   22.10   4
   1   8  15  197.52   27.03   4
   1   8  15  167.01   30.46   1
   1   8 -15  193.75   26.41   3
  -3  -8  15  165.68   32.83   1
   3   8  15  164.95   24.93   4
  -3   8 -15  196.13   27.68   4
  -3   8  15  224.92   39.87   1
   3  -8 -15  196.00   28.71   3
   3   8 -15  198.79   28.29   3
   3  -8  15  175.21   31.19   1
  -3  -8 -15  183.08   26.59   3
  -5  -8 -15  139.88   22.91   3
  -5  -8  15  115.17   29.34   1
   5   8  15  105.69   22.03   4
   5  -8  15   78.78   21.25   1
   5   8 -15   87.73   20.06   3
  -5   8 -15  106.31   21.86   4
  -5   8  15  177.70   42.81   1
   5  -8 -15   81.12   20.52   3
  -7   8  15  124.40   34.96   1
   7  -8  15   91.20   22.90   1
   7  -8 -15   96.83   24.35   3
   0   9  15   16.77    8.04   4
   0  -9  15    5.92   10.63   1
   0  -9 -15    4.77    7.00   3
  -2  -9  15   12.91   10.78   1
   2  -9 -15  -13.42    5.95   3
  -2  -9 -15   -8.84    4.33   3
   2  -9  15   10.45    8.86   1
  -2   9  15    4.50    5.64   4
   2   9 -15    0.90    6.38   3
  -2   9 -15   -0.40    5.84   4
   2   9  15   -3.10    4.83   4
  -4  -9 -15    9.44    7.15   3
   4  -9 -15   10.63   10.17   3
  -4   9  15   10.27   15.86   1
   4   9  15    5.31    8.10   4
   4  -9  15   13.51    9.00   1
  -4   9 -15   16.08    9.89   4
   4   9 -15   13.06    7.96   3
  -6   9 -15    5.40   10.12   4
  -6  -9 -15   15.67    7.64   3
   6  -9  15    6.30    9.26   1
   6  -9 -15   16.36   13.12   3
  -6   9  15   10.78   22.17   1
   6   9  15   10.23    8.80   4
   6   9 -15    7.92    7.40   3
  -1  10  15   11.38    7.66   4
   1  10  15    2.79    5.80   4
   1  10 -15   24.21    9.87   3
   1 -10 -15   -4.99    7.35   3
  -1 -10 -15   -2.21    6.71   3
   3 -10 -15  -10.17    6.61   3
  -3 -10 -15    8.42    6.64   3
  -3  10 -15   -9.12    5.60   4
   3  10 -15    1.01    6.71   3
   3 -10  15    8.39    8.62   1
   3  10  15   -0.79    5.79   4
   5  10  15   -9.63    7.97   4
   5  10 -15    7.91    7.53   3
   5 -10  15    7.31    9.58   1
  -5  10 -15    2.50    9.35   4
  -5 -10 -15    4.06    6.61   3
   5 -10 -15    0.98   10.54   3
   0  11  15   28.16   11.01   4
   0 -11 -15   36.65   14.23   3
   2 -11 -15    9.01   10.38   3
   2  11 -15   15.36    8.47   3
  -2  11 -15   12.71    8.05   4
  -2  11  15   -6.07    5.93   4
  -2 -11 -15   -4.37    6.47   3
   2  11  15    9.57    7.29   4
   4 -11 -15    8.77    9.94   3
   4  11 -15   -5.20    7.15   3
  -4 -11 -15   30.42   13.07   3
  -4  11 -15   27.49   13.65   4
   4  11  15   43.07   13.54   4
  -1 -12 -15   43.30   13.53   3
   1 -12 -15   49.32   18.79   3
  -1  12  15   18.09    9.14   4
   1  12  15   50.89   15.04   4
   3  12 -15   66.34   17.08   3
  -3  12  15   71.49   16.14   4
   3 -12 -15   68.38   19.29   3
  -3 -12 -15   56.16   14.95   3
  -3  12 -15   87.41   20.14   4
   0  13  15   -1.24    5.90   4
   2  13 -15   -2.79    7.02   3
  -2  13  15    3.30    6.38   4
   0   0  16 1290.87   83.78   1
   0   0 -16 1122.66   58.22   3
   0   0 -16 1191.67   54.56   4
  -2   0 -16  197.17   24.86   4
  -2   0 -16  163.51   22.01   3
   2   0 -16  151.61   23.68   3
   2   0  16  182.90   37.99   1
  -2   0  16  156.80   34.35   1
   4   0  16  937.45   80.44   1
  -4   0 -16  900.57   52.53   4
   4   0 -16  925.51   56.15   3
  -4   0  16  936.19   90.01   1
  -6   0 -16  132.84   24.60   4
   6   0  16  112.89   34.66   1
   6   0 -16  146.02   27.26   3
  -6   0  16  105.98   30.31   1
   1  -1 -16   96.69   15.43   4
  -1   1 -16   79.92   15.46   4
  -1   1 -16  102.30   17.89   3
  -1  -1 -16   98.06   16.85   4
   1   1  16   83.46   24.85   1
   1  -1 -16   70.69   16.35   3
   1  -1  16  112.98   29.02   1
  -1  -1 -16   77.91   15.78   3
   1   1 -16   71.52   15.94   3
  -1   1  16   70.27   24.20   1
   3   1 -16  100.72   19.20   3
  -3  -1 -16   68.36   14.83   3
  -3   1  16   78.31   26.06   1
   3  -1  16  125.16   33.91   1
  -3  -1  16   89.57   26.35   1
   3   1  16  118.11   30.56   1
   3  -1 -16   96.93   19.58   3
  -3   1 -16   85.55   16.80   4
  -3  -1 -16   75.73   16.49   4
   5  -1  16   21.27   20.39   1
  -5   1  16   16.15   17.61   1
   5  -1 -16   45.62   14.07   3
   5   1 -16   50.73   16.25   3
  -5   1 -16   35.91   12.16   4
  -5  -1 -16   57.27   15.88   4
   5   1  16   -2.64   18.25   1
  -5  -1  16   51.09   23.18   1
   7  -1  16   36.24   25.80   1
   7   1  16   54.29   30.15   1
   7  -1 -16   63.30   19.06   3
  -7   1  16   67.23   24.27   1
  -7   1 -16   42.52   14.20   4
  -7  -1  16   33.42   18.83   1
  -7  -1 -16   38.23   13.76   4
   7   1 -16   60.29   18.75   3
   0   2 -16 1068.87   50.35   4
   0  -2  16 1062.66   76.23   1
   0  -2 -16 1058.51   56.39   3
   0   2 -16 1110.07   56.70   3
   0   2  16 1179.41   80.16   1
  -2   2 -16  126.96   19.55   3
  -2  -2  16  133.05   31.25   1
   2   2  16  105.50   28.05   1
  -2   2  16  142.76   33.64   1
  -2   2 -16  101.37   17.80   4
   2  -2  16   70.63   23.38   1
  -2  -2 -16  117.34   19.39   3
  -2  -2 -16  114.95   18.61   4
   2  -2 -16   91.70   18.48   3
  -4  -2  16  922.44   89.01   1
   4   2  16 1048.64   84.27   1
   4   2 -16  824.98   53.95   3
  -4   2 -16 1022.36   54.86   4
  -4   2  16  942.44   91.76   1
   4  -2  16 1133.67   86.31   1
  -4  -2 -16  861.88   51.38   4
   4  -2 -16  985.51   58.55   3
  -6  -2 -16  155.12   25.95   4
  -6   2 -16   86.86   19.54   4
   6   2  16  134.77   37.42   1
   6  -2 -16  112.53   23.64   3
   6   2 -16  124.34   24.54   3
  -6  -2  16  143.73   36.07   1
   6  -2  16  131.31   35.23   1
  -6   2  16  153.34   38.57   1
   8  -2 -16  621.35   56.43   3
  -1   3 -16   31.03    9.57   4
   1   3  16   27.73   16.34   1
   1   3 -16   39.65   11.52   3
   1  -3  16   44.22   17.84   1
  -1   3 -16   15.04    8.43   3
   1   3  16   18.87    7.30   4
  -1  -3 -16   30.34    9.98   3
  -1  -3  16   37.90   16.13   1
  -1   3  16   24.30    8.01   4
   1  -3 -16   32.40   11.52   3
  -1   3  16   17.96   12.78   1
  -3  -3 -16   26.48    9.77   4
   3   3 -16   26.87   11.16   3
  -3  -3 -16   39.19   10.80   3
  -3   3 -16   36.26   11.25   4
  -3   3  16   63.39   22.08   1
   3   3  16   32.17   17.68   1
  -3  -3  16   29.67   16.01   1
   3  -3  16   22.52   12.44   1
   3  -3 -16   27.84   11.09   3
  -5  -3 -16    2.54    7.13   4
   5   3  16   14.40   19.46   1
   5  -3  16   16.71   12.91   1
  -5  -3  16   13.78   15.16   1
  -5   3 -16    9.32    8.28   4
   5  -3 -16   33.71   12.85   3
  -5   3  16   -9.32   16.38   1
   5   3 -16    8.28    7.72   3
  -7   3  16   11.95   15.62   1
   7   3 -16    3.51   10.95   3
  -7  -3  16   25.11   17.33   1
  -7   3 -16   57.55   19.13   4
   7  -3  16    0.72   13.43   1
   7   3  16    6.29   17.05   1
  -7  -3 -16   14.06    7.22   4
   7  -3 -16    3.98    9.39   3
   0   4 -16  898.07   48.53   3
   0   4  16  787.58   44.01   4
   0   4 -16  842.18   44.61   4
   0   4  16  801.19   64.48   1
   0  -4 -16  753.77   48.16   3
   0  -4  16  782.44   62.89   1
  -2   4 -16  372.19   29.43   4
  -2  -4  16  328.96   49.27   1
   2  -4 -16  290.98   33.59   3
   2   4  16  330.19   48.55   1
   2   4 -16  301.81   32.72   3
  -2  -4 -16  259.87   29.93   3
  -2   4  16  298.90   47.13   1
   2  -4  16  451.86   54.68   1
   2   4  16  303.88   30.55   4
   4   4 -16  634.03   45.69   3
  -4   4  16  848.82   85.65   1
  -4  -4 -16  587.28   39.31   3
   4   4  16  649.16   72.09   1
  -4  -4 -16  585.40   42.69   4
   4  -4  16  620.29   67.89   1
  -4  -4  16  710.66   75.37   1
  -4   4 -16  645.91   43.95   4
   4  -4 -16  646.83   46.95   3
  -6  -4 -16  203.39   28.64   4
   6   4  16  178.35   41.64   1
  -6   4 -16  203.74   30.24   4
   6  -4  16  190.46   39.42   1
  -6   4  16  378.76   59.53   1
   6  -4 -16  233.33   34.65   3
  -6  -4  16  227.51   45.12   1
   6   4 -16  253.99   35.85   3
   1  -5 -16   77.41   18.15   3
  -1  -5 -16  114.98   20.66   3
  -1   5  16   96.60   16.90   4
  -1   5  16   81.19   25.26   1
  -1  -5  16   71.89   21.43   1
   1   5 -16   49.63   13.79   3
   1  -5  16   98.31   24.53   1
   1   5  16  110.23   27.17   1
  -1   5 -16   91.90   16.52   3
  -1   5 -16  123.58   19.27   4
   1   5  16  102.77   18.27   4
  -3  -5 -16   77.92   16.49   3
  -3  -5  16   99.35   28.23   1
   3   5  16  125.35   28.89   1
   3  -5  16   70.66   22.51   1
  -3   5  16   86.98   29.41   1
   3   5  16   72.51   16.38   4
   3  -5 -16  117.21   22.26   3
  -3   5 -16   93.52   17.66   4
   3   5 -16   64.21   16.23   3
  -5   5  16   68.59   25.15   1
  -5  -5  16  101.42   29.44   1
   5  -5  16   81.85   25.61   1
  -5  -5 -16   45.85   15.92   4
  -5   5 -16   83.90   19.72   4
   5  -5 -16   62.96   18.93   3
   5   5 -16   64.48   16.81   3
   5   5  16   95.96   27.43   1
   7  -5  16   61.44   19.71   1
  -7   5  16   64.97   26.80   1
  -7  -5  16   54.63   21.73   1
  -7   5 -16   71.71   19.85   4
  -7  -5 -16   78.81   17.48   4
   7   5  16   59.41   25.83   1
   7  -5 -16   71.48   21.16   3
   0  -6 -16  394.44   38.53   3
   0   6  16  507.36   56.18   1
   0  -6  16  493.19   51.65   1
   0   6  16  472.86   33.97   4
   0   6 -16  443.40   33.82   3
  -2   6  16  318.27   47.54   1
   2  -6 -16  229.72   31.57   3
   2   6 -16  208.15   28.50   3
   2   6  16  276.50   43.35   1
  -2   6 -16  297.70   31.05   4
   2   6  16  250.11   30.03   4
  -2  -6  16  248.62   40.32   1
   2  -6  16  304.26   43.21   1
  -2  -6 -16  263.28   31.79   3
   4  -6 -16  454.78   43.14   3
  -4   6  16  438.50   64.12   1
   4   6  16  424.16   53.41   1
   4  -6  16  369.10   49.98   1
   4   6 -16  396.83   40.55   3
   4   6  16  457.56   36.72   4
  -4   6 -16  393.98   38.60   4
  -4  -6 -16  366.92   35.12   3
  -4  -6  16  458.80   59.24   1
   6  -6  16  230.36   42.27   1
  -6  -6  16  172.44   39.18   1
  -6  -6 -16  188.63   27.96   4
   6  -6 -16  192.32   32.66   3
  -6   6  16  337.51   59.14   1
  -6   6 -16  208.81   31.19   4
   6   6 -16  218.67   32.97   3
   6   6  16  284.13   46.22   1
  -1   7  16   51.67   12.49   4
   1   7  16   53.82   13.33   4
  -1  -7 -16   35.95   13.12   3
  -1   7 -16   47.96   12.95   4
   1  -7 -16   58.62   15.34   3
  -1  -7  16   36.82   15.12   1
   1  -7  16   45.47   15.94   1
   1   7 -16   53.13   13.80   3
   1   7  16   61.66   21.37   1
  -3   7 -16   69.70   16.26   4
   3   7  16   61.04   20.62   1
  -3  -7  16   51.43   20.95   1
   3  -7  16   59.50   20.29   1
   3   7 -16   57.54   16.39   3
   3   7  16   57.64   15.08   4
  -3   7  16   31.35   19.16   1
   3  -7 -16   44.83   15.36   3
  -3  -7 -16   37.30   12.82   3
   5  -7  16   86.31   22.48   1
  -5   7 -16   24.17   12.29   4
   5   7  16   23.83   10.85   4
  -5  -7  16   31.01   16.99   1
   5  -7 -16   40.04   14.23   3
   5   7 -16   53.28   15.06   3
   5   7  16   48.49   20.15   1
  -5   7  16   19.97   23.43   1
  -5  -7 -16   34.80   10.16   3
  -7  -7  16   49.34   20.53   1
   0   8  16  322.62   33.01   4
   0  -8  16  309.08   42.57   1
   0   8  16  395.47   46.86   1
   0  -8 -16  268.86   34.32   3
   0   8 -16  328.94   32.55   3
  -2  -8 -16  368.54   37.76   3
  -2   8  16  422.46   32.63   4
  -2   8  16  430.14   53.43   1
   2   8  16  345.32   36.19   4
   2  -8 -16  387.21   40.55   3
  -2  -8  16  396.69   47.67   1
   2  -8  16  377.79   45.35   1
   2   8 -16  369.58   37.32   3
  -2   8 -16  422.69   33.78   4
  -4  -8 -16  258.24   32.41   3
   4  -8  16  315.56   43.00   1
  -4   8  16  261.91   47.33   1
  -4  -8  16  337.76   48.58   1
   4   8 -16  252.53   34.28   3
   4  -8 -16  186.93   30.33   3
  -4   8 -16  266.23   34.05   4
   4   8  16  255.40   33.67   4
  -6   8  16  470.45   69.36   1
  -6  -8  16  352.67   54.73   1
   6  -8  16  290.67   45.08   1
   6  -8 -16  288.62   41.25   3
  -1  -9  16    6.72   10.06   1
   1  -9  16    2.83    8.04   1
  -1   9  16   16.26    8.78   4
   1  -9 -16    8.20    8.96   3
   1   9  16   12.67    8.21   4
  -1  -9 -16   -0.64    6.65   3
   1   9 -16    3.49    7.48   3
  -3  -9 -16    4.41    6.07   3
   3   9  16    6.65    6.09   4
   3   9 -16    2.30    7.41   3
   3  -9  16    4.00    9.56   1
  -3   9 -16   17.82   10.68   4
   3  -9 -16    9.31    8.52   3
  -5   9 -16   14.03   11.68   4
   5  -9 -16   -3.72    9.76   3
   5  -9  16    7.10    9.92   1
   5   9 -16    3.06    7.12   3
  -5  -9 -16    8.73    7.06   3
   0  10  16  285.01   34.22   4
   0 -10 -16  369.31   39.44   3
  -2  10  16  295.97   32.76   4
   2  10  16  277.16   34.48   4
  -2 -10 -16  247.09   33.60   3
   2 -10 -16  278.46   37.86   3
   2  10 -16  312.02   35.20   3
  -2  10 -16  329.22   35.89   4
   4 -10  16  315.82   40.99   1
  -4 -10 -16  312.05   36.74   3
   4  10 -16  304.52   36.55   3
  -4  10 -16  362.64   39.56   4
   4 -10 -16  332.47   42.40   3
  -1  11  16  109.25   20.70   4
   1 -11 -16  100.68   23.90   3
   1  11  16   99.73   20.48   4
  -1 -11 -16   74.83   17.60   3
  -3 -11 -16   87.79   19.03   3
   3 -11 -16  156.47   28.40   3
   3  11 -16  101.69   20.23   3
  -3  11 -16  137.73   24.44   4
   0  12  16  285.38   36.23   4
  -2  12  16  257.63   33.04   4
   2  12 -16  362.86   39.34   3
  -1   0 -17    5.60    5.56   4
  -1   0  17   29.71   14.11   1
   1   0 -17   -4.55    5.14   3
  -1   0 -17    3.74    5.58   3
   1   0  17    9.04   13.59   1
   3   0 -17   -7.43    6.15   3
  -3   0  17   -3.77   11.46   1
   3   0  17    4.22   13.11   1
  -3   0 -17   -3.32    5.11   4
  -5   0  17   53.50   20.93   1
   5   0  17    0.43   14.85   1
   5   0 -17   25.14   11.37   3
  -5   0 -17   -8.52    6.91   4
   7   0 -17   12.96   10.89   3
   0   1 -17   68.03   15.95   3
   0  -1  17   95.22   27.56   1
   0  -1 -17  131.48   19.45   4
   0  -1 -17   76.56   17.53   3
   0   1 -17   91.89   16.83   4
   0   1  17  107.51   29.33   1
  -2   1 -17   26.14    9.56   3
   2   1 -17   -0.23    5.97   3
   2   1  17   11.71   11.85   1
  -2  -1 -17   10.84    7.26   3
  -2  -1 -17   22.01   10.25   4
   2  -1  17    1.95   13.16   1
   2  -1 -17   10.01    6.57   3
  -2   1  17   34.45   17.93   1
  -2   1 -17    8.97    6.82   4
  -2  -1  17   19.13   15.86   1
  -4   1 -17   38.37   13.00   4
  -4  -1 -17   66.64   16.43   4
   4   1 -17   55.77   15.76   3
  -4   1  17   56.39   24.02   1
  -4  -1  17   30.75   19.00   1
   4  -1  17   43.72   24.29   1
   4   1  17   62.01   24.75   1
   4  -1 -17   52.54   15.54   3
   6   1 -17   51.86   17.00   3
  -6  -1  17   28.71   18.36   1
  -6  -1 -17   22.87   12.81   4
   6   1  17   61.45   27.38   1
  -6   1  17   31.18   26.35   1
  -6   1 -17   30.73   13.08   4
   6  -1  17   21.93   23.51   1
   6  -1 -17   25.94   14.51   3
  -1   2  17    2.30    8.10   1
  -1  -2 -17   -4.60    5.01   4
  -1  -2  17    6.09    9.26   1
   1   2  17  -15.59    9.75   1
  -1  -2 -17    0.54    5.45   3
  -1   2 -17   13.46    7.24   4
   1  -2 -17    5.74    6.93   3
  -1   2 -17   -1.20    6.19   3
   1  -2  17   10.56   11.46   1
   1   2 -17    5.53    5.99   3
   3   2 -17    7.53    6.55   3
   3   2  17   19.31   16.17   1
  -3   2 -17    5.24    6.22   4
  -3  -2 -17    1.07    6.19   3
   3  -2 -17    5.58    7.43   3
  -3   2  17   -2.73   13.55   1
   3  -2  17   -1.68   11.12   1
  -3  -2 -17   16.33    8.73   4
  -3  -2  17   21.53   17.06   1
   5   2  17    1.63   16.66   1
  -5   2  17  -12.99   14.50   1
   5   2 -17   13.58    9.13   3
   5  -2 -17   -0.83    7.39   3
  -5  -2  17   10.12   14.37   1
   5  -2  17   -1.69   14.24   1
  -5  -2 -17    3.44    7.91   4
  -5   2 -17   19.74   10.13   4
   0   3  17   -6.32    9.09   1
   0  -3  17   29.28   15.86   1
   0   3 -17   18.63    8.55   3
   0  -3 -17   16.88    8.17   3
   0   3  17   16.84    7.85   4
  -2  -3 -17   15.85    8.10   4
  -2   3 -17   23.77    8.61   4
   2   3 -17   10.25    8.14   3
  -2  -3 -17    8.95    7.58   3
   2   3  17   -7.58   10.04   1
  -2   3  17   26.90   16.10   1
   2  -3  17   32.03   15.84   1
  -2  -3  17   -5.68   11.16   1
   2  -3 -17   19.88    8.94   3
  -4  -3  17    3.56   11.91   1
  -4   3  17   15.55   17.79   1
   4   3  17    3.03   13.72   1
   4  -3  17  -12.83   10.89   1
   4   3 -17    2.60    6.34   3
  -4  -3 -17    0.93    6.37   4
   4  -3 -17    1.93    8.15   3
  -4   3 -17    5.40    6.75   4
   6  -3  17    4.52   13.07   1
   6  -3 -17    0.44   10.17   3
  -6   3  17  -32.38   14.54   1
  -6  -3 -17   16.48   10.79   4
   6   3  17    8.14   18.38   1
  -6  -3  17   -2.66   12.48   1
   6   3 -17   18.62   12.25   3
  -6   3 -17    3.94    9.61   4
   1  -4 -17   26.99   10.89   3
  -1  -4 -17   45.59   13.74   3
  -1   4  17   86.16   24.94   1
   1   4  17   39.68   18.99   1
  -1   4 -17   67.30   14.79   4
   1   4  17   47.01   11.74   4
  -1   4 -17   48.54   12.44   3
   1   4 -17   32.36   12.19   3
   1  -4  17   30.38   15.37   1
  -1  -4  17   21.98   15.67   1
  -3   4 -17    5.72    7.67   4
   3  -4  17    3.75   10.38   1
  -3  -4 -17    5.97    6.68   3
   3   4  17   14.94   14.95   1
  -3  -4  17    8.11   11.92   1
   3  -4 -17    8.62    8.46   3
  -3   4  17    5.13   13.87   1
   3   4 -17   -5.69    5.74   3
  -5   4 -17   30.55   15.21   4
  -5  -4  17   52.61   19.14   1
   5  -4  17   35.40   17.37   1
   5   4  17  103.36   30.68   1
   5  -4 -17   42.40   14.44   3
  -5   4  17   27.82   21.97   1
   5   4 -17   40.78   13.99   3
  -5  -4 -17   36.48   13.39   4
   0  -5  17  172.79   33.01   1
   0   5  17  147.98   21.92   4
   0   5  17  166.98   33.76   1
   0  -5 -17  154.50   25.43   3
   0   5 -17  171.59   25.00   3
   2  -5 -17   78.71   17.64   3
  -2  -5 -17   76.23   17.06   3
   2   5 -17  110.36   21.46   3
  -2   5 -17   81.01   17.14   4
  -2   5  17   77.89   24.27   1
   2   5  17   74.64   24.45   1
   2   5  17   64.97   14.82   4
  -2  -5  17  100.10   25.30   1
   2  -5  17   76.17   22.36   1
  -4   5 -17   98.10   20.52   4
  -4  -5  17   99.02   29.59   1
   4  -5  17   78.86   24.26   1
   4   5  17  111.88   31.24   1
  -4  -5 -17   77.75   16.51   3
  -4   5  17   67.62   29.41   1
   4   5 -17  133.25   24.51   3
   4  -5 -17   85.22   20.57   3
   6   5 -17   61.67   17.60   3
  -6   5  17  110.06   36.55   1
   6   5  17   81.74   30.51   1
  -6   5 -17  144.73   26.98   4
   6  -5  17  156.77   35.69   1
   6  -5 -17   63.87   20.18   3
  -1   6  17   28.97   14.75   1
  -1   6  17   12.07    6.73   4
   1   6  17   31.86   18.72   1
   1   6 -17   28.37   10.38   3
   1  -6  17   34.07   14.35   1
  -1  -6  17   20.01   14.51   1
   1  -6 -17    2.41    7.15   3
  -1  -6 -17   30.59   11.27   3
   1   6  17   36.36   11.27   4
  -3  -6 -17   36.63   11.54   3
  -3   6 -17   32.09   12.86   4
   3  -6  17   58.23   19.85   1
   3   6  17   50.52   14.04   4
   3   6 -17   45.60   13.79   3
   3   6  17   52.73   21.19   1
   3  -6 -17   37.62   13.71   3
  -3  -6  17   45.44   19.80   1
  -3   6  17   76.21   26.57   1
  -5   6 -17  -12.96    9.03   4
  -5   6  17   14.69   21.42   1
   5  -6  17    7.03   11.35   1
   5  -6 -17    7.92   10.26   3
  -5  -6 -17    3.52    9.42   4
   5   6 -17    5.76    7.96   3
  -5  -6  17   29.71   19.04   1
   5   6  17   31.45   18.18   1
   0   7  17    7.02   12.30   1
   0   7 -17    4.59    8.00   3
   0  -7  17  -11.48    8.17   1
   0   7  17    0.75    6.23   4
   0  -7 -17   17.23    9.04   3
  -2  -7  17   23.70   13.79   1
   2  -7 -17   23.88   11.60   3
  -2   7  17   -3.82   13.75   1
   2   7 -17   28.46    8.88   3
   2   7  17   21.54    9.47   4
   2  -7  17   18.09   11.25   1
   2   7  17   12.74   13.78   1
  -2   7 -17    7.69    8.96   4
  -2  -7 -17   10.18    9.08   3
   4   7  17   -0.92    5.91   4
  -4  -7 -17   13.27    6.34   3
   4   7  17   -5.05   13.88   1
   4  -7  17  -22.55    9.04   1
  -4   7  17  -43.57   12.14   1
  -4   7 -17  -23.29    7.20   4
   4  -7 -17    4.84    8.93   3
  -4  -7  17   -0.09   11.46   1
   4   7 -17   -6.48    6.65   3
  -1  -8 -17   47.52   13.68   3
   1  -8 -17   53.68   15.49   3
  -1   8  17   51.24   13.85   4
   1   8  17   76.41   17.18   4
   1  -8  17  102.39   24.28   1
  -1   8  17   66.69   22.12   1
  -1  -8  17   79.21   21.11   1
   1   8 -17   55.49   15.33   3
   3  -8  17   29.59   16.70   1
  -3   8 -17   29.07   12.89   4
  -3  -8  17   30.34   14.81   1
  -3  -8 -17   32.01   10.46   3
   3   8 -17   42.73   13.08   3
   3  -8 -17   27.76   13.12   3
  -3   8  17   17.07   14.95   1
   3   8  17   49.33   14.96   4
  -5  -8 -17   67.40   17.05   3
  -5  -8  17   84.99   26.07   1
   5  -8  17   71.24   20.52   1
  -5   8  17   75.31   32.47   1
   0  -9 -17   39.17   13.23   3
   0   9  17   27.10   11.66   4
   0  -9  17   27.87   12.06   1
  -2  -9  17   38.24   16.85   1
   2   9 -17   34.13   12.46   3
   2  -9  17   53.18   18.55   1
   2   9  17   27.34   10.36   4
  -2  -9 -17   44.29   13.14   3
   2  -9 -17   34.06   14.84   3
   4  -9  17   13.85   10.70   1
  -4  -9 -17   22.48    8.82   3
  -4   9 -17   13.23   12.15   4
   1 -10 -17   18.20   12.23   3
   1  10  17   31.41   12.63   4
  -1  10  17    2.92    7.48   4
  -1 -10 -17   24.09   10.73   3
   3  10 -17   16.60    8.86   3
  -3  10 -17   24.70   15.31   4
   0  11  17   43.86   12.55   4
   2  11 -17    5.71    7.20   3
   0   0  18  106.74   29.55   1
   0   0 -18  140.44   23.91   3
  -2   0 -18  541.61   38.85   3
   2   0 -18  543.41   42.35   3
  -2   0 -18  599.25   40.79   4
   2   0  18  569.65   67.39   1
  -2   0  18  637.20   69.60   1
  -4   0  18  192.22   43.34   1
  -4   0 -18  127.00   23.30   4
   4   0  18  196.65   44.76   1
   4   0 -18  130.17   24.05   3
  -1  -1  18   13.94   13.13   1
  -1  -1 -18   31.53   10.37   3
   1  -1 -18   23.04   10.27   3
  -1   1 -18   21.01    9.52   3
  -1  -1 -18   31.95   10.69   4
  -1   1 -18   38.35   11.52   4
   1   1  18   59.45   22.12   1
   1  -1  18    4.16   11.35   1
   1   1 -18   12.76    9.65   3
  -1   1  18    8.69   13.28   1
  -3  -1  18   -0.72   10.68   1
   3   1  18    5.88   14.34   1
  -3  -1 -18   10.02    7.23   4
   3  -1 -18    5.34    7.04   3
  -3   1 -18   10.18    7.37   4
   3  -1  18    5.52   13.20   1
  -3   1  18   15.72   16.21   1
   3   1 -18    1.96    6.30   3
   5   1 -18   42.54   15.01   3
   5   1  18   30.91   23.00   1
  -5   1 -18   42.85   14.95   4
  -5  -1 -18   52.55   17.28   4
   5  -1  18   10.98   21.47   1
  -5   1  18   63.28   31.26   1
   5  -1 -18   18.68   12.02   3
  -5  -1  18  -12.65   13.33   1
   0  -2 -18  239.84   30.59   3
   0   2  18  197.86   39.72   1
   0  -2 -18  203.95   24.81   4
   0   2 -18  174.18   26.10   3
   0  -2  18  261.92   44.94   1
   2   2 -18  926.27   55.80   3
  -2   2  18 1000.48   78.10   1
   2  -2 -18  851.96   56.14   3
   2   2  18 1060.87   80.63   1
  -2  -2  18  943.09   75.13   1
   2  -2  18 1005.77   77.59   1
  -2   2 -18  967.83   52.69   4
  -2  -2 -18  928.61   52.34   4
  -2  -2 -18  930.84   53.15   3
   4   2  18  117.58   34.18   1
   4  -2  18  109.05   30.69   1
  -4   2 -18  139.30   23.92   4
  -4   2  18  150.54   40.98   1
  -4  -2  18   89.22   27.40   1
   4   2 -18  148.09   26.39   3
  -4  -2 -18  129.81   23.87   4
   4  -2 -18  104.06   22.96   3
  -1   3 -18   41.31   13.16   3
   1   3 -18   69.24   16.55   3
   1   3  18   89.68   28.14   1
  -1  -3 -18   59.93   14.96   3
  -1  -3  18   97.45   26.47   1
  -1   3  18   71.69   24.51   1
   1  -3 -18  108.33   21.07   3
   1  -3  18   56.83   20.48   1
  -1   3 -18   93.58   17.57   4
  -1  -3 -18   39.65   11.91   4
  -3   3 -18   15.49    9.29   4
   3  -3  18   21.84   13.33   1
   3   3  18   26.74   18.53   1
  -3   3  18   34.24   18.42   1
   3  -3 -18   26.98   11.75   3
  -3  -3 -18   38.46   12.00   4
  -3  -3 -18   24.47   10.47   3
  -3  -3  18   27.76   15.19   1
   3   3 -18   38.50   12.91   3
   5   3  18   77.78   30.24   1
  -5  -3 -18   54.98   17.54   4
  -5   3 -18   65.22   18.27   4
   5  -3  18   96.76   28.49   1
  -5  -3  18  130.01   36.28   1
  -5   3  18   68.15   31.66   1
   5  -3 -18  103.21   24.46   3
   0  -4  18  174.46   34.80   1
   0  -4 -18  175.91   27.04   3
   0   4 -18  196.48   27.71   3
   0   4  18  220.06   40.97   1
   0   4  18  217.05   25.86   4
   2   4  18  408.44   57.31   1
  -2  -4 -18  348.52   36.07   4
  -2   4  18  371.14   56.31   1
   2   4 -18  396.04   38.68   3
  -2  -4 -18  387.82   37.64   3
  -2   4 -18  392.79   36.61   4
  -2  -4  18  268.79   44.90   1
   2  -4  18  373.87   52.70   1
   2  -4 -18  330.70   37.76   3
  -4   4  18  259.11   50.35   1
   4   4 -18  227.96   33.87   3
  -4  -4  18  211.12   43.19   1
   4  -4  18  239.65   43.98   1
   4  -4 -18  261.26   36.68   3
  -4  -4 -18  245.90   32.60   4
   4   4  18  244.40   48.43   1
  -4   4 -18  275.97   33.90   4
   1   5  18   15.81   15.96   1
   1  -5  18   30.23   14.99   1
  -1  -5  18   13.28   13.61   1
  -1   5  18    3.67   15.99   1
  -1  -5 -18    8.62    8.10   3
   1  -5 -18    8.52    7.70   3
   1   5 -18   -0.10    6.64   3
   1   5  18   19.14    8.29   4
   3   5  18   -0.28   13.58   1
   3   5 -18    2.40    8.04   3
  -3   5  18  -13.19   13.75   1
  -3  -5  18   -5.51   10.42   1
  -3  -5 -18   11.61    7.48   3
   3  -5 -18    7.45    8.56   3
   3  -5  18    7.73   11.08   1
  -3   5 -18    4.91    9.37   4
  -5   5 -18    3.88   11.79   4
  -5   5  18   15.34   22.18   1
  -5  -5  18   44.35   17.09   1
   5   5  18   37.88   22.51   1
   0   6  18  248.29   29.69   4
   0   6  18  287.93   44.80   1
   0   6 -18  191.57   26.56   3
   0  -6  18  213.80   38.21   1
   0  -6 -18  220.13   30.79   3
   2  -6  18  435.42   53.47   1
   2   6 -18  413.01   40.82   3
  -2   6 -18  448.89   40.04   4
   2   6  18  438.74   55.91   1
  -2  -6  18  429.79   53.64   1
  -2  -6 -18  358.86   37.92   3
   2  -6 -18  355.07   39.74   3
   2   6  18  340.68   35.83   4
  -2   6  18  393.00   55.34   1
   4  -6  18  194.01   35.35   1
  -4  -6  18  174.21   35.64   1
  -4   6  18  176.99   43.32   1
   4   6 -18  197.54   30.81   3
   4   6  18  172.03   37.65   1
  -4  -6 -18  199.36   27.43   3
   4  -6 -18  147.02   28.50   3
  -4   6 -18  176.01   29.48   4
   1  -7  18   50.76   17.51   1
  -1   7  18   27.12   16.65   1
   1   7 -18   29.15   11.21   3
   1  -7 -18   14.52    8.96   3
  -1  -7 -18   29.67   12.67   3
  -1  -7  18   31.65   15.37   1
   1   7  18    5.26   14.33   1
   1   7  18   24.38    8.61   4
  -3  -7  18   15.40   11.80   1
  -3   7  18  -34.37   12.64   1
   3  -7 -18   14.90   10.20   3
   3   7  18    3.70    6.82   4
   3   7  18    4.58   16.43   1
   3  -7  18   23.60   13.37   1
  -3   7 -18   14.99   11.53   4
  -3  -7 -18    2.07    7.45   3
   3   7 -18    7.09    8.19   3
   0   8  18  218.69   29.60   4
   0  -8  18  204.13   35.43   1
   0  -8 -18  258.28   34.97   3
   2  -8 -18  127.95   25.16   3
   2   8  18  108.13   20.52   4
  -2  -8 -18  105.59   21.08   3
   2  -8  18  116.84   26.04   1
  -2  -8  18  187.55   34.88   1
  -2   8  18  131.21   33.12   1
   2   8 -18   85.69   19.56   3
  -4  -8  18  296.15   44.11   1
  -4   8  18  302.32   51.73   1
   1  -9  18   49.23   19.51   1
  -1   9  18   70.01   15.59   4
   1   9  18   46.50   13.03   4
  -1  -9  18   97.97   25.28   1
  -3   9 -18   20.17   14.17   4
   3  -9  18    6.93   12.07   1
   1   0 -19   21.32    9.52   3
  -1   0 -19    6.89    7.49   3
  -1   0  19   23.99   13.85   1
   1   0  19    8.92   15.20   1
  -1   0 -19   21.57   10.13   4
  -3   0  19   39.68   22.83   1
   3   0 -19   26.56   12.14   3
   3   0  19   46.13   22.44   1
  -3   0 -19   28.54   13.57   4
   0  -1 -19    8.19    8.32   3
   0   1 -19   20.86    9.87   3
   0   1  19   -1.27   14.29   1
   0  -1  19   -8.27    8.05   1
  -2  -1 -19   -1.53    7.75   4
   2   1 -19    5.82    7.35   3
   2  -1  19   18.26   16.98   1
  -2  -1 -19   14.34    7.84   3
  -2   1 -19   23.00   10.07   4
   2  -1 -19    5.10    7.77   3
  -2  -1  19   25.52   15.96   1
   2   1  19    5.51   15.00   1
  -2   1  19   13.02   14.68   1
  -4   1 -19    7.78    9.81   4
   4  -1  19    7.64   20.87   1
  -4   1  19    2.84   16.94   1
   4   1  19   24.53   23.47   1
   4  -1 -19   -9.31    7.33   3
  -4  -1  19   -2.09   10.58   1
   4   1 -19   -6.64    7.89   3
  -4  -1 -19    1.64    8.67   4
   1  -2 -19   12.81    8.67   3
  -1  -2 -19   28.01   12.08   4
  -1  -2 -19   24.05   10.45   3
  -1   2 -19   30.52   11.11   3
  -1  -2  19   45.48   17.39   1
   1  -2  19   42.74   19.32   1
   1   2  19   29.27   20.60   1
   1   2 -19   33.63   11.88   3
  -1   2  19   17.52   17.02   1
   3   2 -19   41.76   14.83   3
  -3   2 -19   41.49   13.83   4
  -3  -2  19   58.12   24.41   1
   3  -2  19   47.59   18.54   1
   3   2  19   43.27   22.83   1
  -3  -2 -19   39.00   13.11   4
  -3   2  19   48.57   22.79   1
   3  -2 -19   20.76    9.60   3
   0  -3 -19   30.19   11.49   3
   0  -3  19   20.78   16.22   1
   0   3  19   57.51   22.46   1
   0   3 -19   18.73    9.43   3
  -2   3  19    1.41   15.87   1
   2  -3 -19   41.85   14.10   3
   2   3  19   88.82   29.71   1
  -2  -3 -19   32.78   12.45   4
  -2  -3  19   35.19   18.97   1
   2   3 -19   22.13   11.90   3
   2  -3  19   74.68   22.63   1
  -2  -3 -19   48.71   13.69   3
  -2   3 -19   62.87   17.25   4
  -4   3 -19   39.21   14.79   4
  -4  -3  19   52.24   18.49   1
  -4  -3 -19   97.85   22.05   4
  -4   3  19   90.45   30.37   1
   4   3 -19   69.12   17.96   3
   4   3  19   44.83   25.26   1
  -1  -4  19    2.59   10.08   1
   1   4 -19   -0.52    6.39   3
  -1   4  19   -8.80   13.43   1
   1   4  19   30.60   18.42   1
   1  -4  19   -7.10    8.98   1
   1  -4 -19    5.93    6.07   3
  -1  -4 -19   -6.73    7.44   4
  -1  -4 -19   -1.41    6.88   3
  -3   4 -19   13.12   11.21   4
   3  -4  19   -0.80   12.07   1
  -3  -4 -19   -2.21    8.22   4
   3  -4 -19   -1.59    6.82   3
  -3   4  19   -9.65   16.03   1
  -3  -4 -19   15.85    8.11   3
  -3  -4  19    3.51   12.83   1
   3   4  19  -14.72   13.73   1
   3   4 -19    2.18    7.46   3
   0   5  19   75.06   24.83   1
   0  -5  19   33.86   16.38   1
   0  -5 -19   45.64   14.98   3
   0   5 -19   35.48   12.14   3
   2   5 -19  -13.90    6.89   3
   2  -5 -19    3.68    6.16   3
   2   5  19   -5.02   13.49   1
  -2   5  19   47.17   20.29   1
  -2  -5 -19   10.31    7.94   3
  -2  -5  19   -6.14   11.12   1
   2  -5  19  -13.42    8.85   1
   4   5  19    5.77   18.96   1
  -4   5 -19   15.26   13.54   4
  -1  -6 -19   80.66   18.16   3
   1   6  19   61.21   24.03   1
   1   6  19   56.40   14.21   4
  -1  -6  19   45.80   17.55   1
   1  -6 -19   60.66   16.12   3
  -1   6  19   59.96   22.94   1
   1   6 -19   60.04   15.38   3
   1  -6  19   65.32   21.80   1
   3   6  19   88.31   28.34   1
  -3   6 -19  136.80   25.71   4
  -3  -6  19   94.09   23.86   1
   3   6 -19   89.98   19.46   3
  -3  -6 -19  100.17   20.77   3
  -3   6  19  126.04   34.43   1
   0  -7  19    8.53   11.29   1
   0   7  19   18.00    8.17   4
   0   7  19   31.48   18.94   1
  -2  -7 -19   37.76   12.07   3
   2   7  19   28.58   21.99   1
   2   7  19   11.26    7.32   4
   2   7 -19   37.58   13.76   3
  -2   7  19   45.41   22.42   1
  -2  -7  19   51.88   18.09   1
  -1  -8  19   10.52   11.84   1
   0   0 -20  739.91   50.65   3
   0   0  20  933.77   75.45   1
   2   0  20   66.82   28.96   1
  -2   0  20   56.42   22.92   1
   2   0 -20   14.30    9.68   3
  -2   0 -20   44.64   15.31   4
  -1  -1 -20    2.53    7.49   3
   1   1 -20    6.52    7.63   3
   1  -1 -20   -4.94    5.92   3
   1   1  20   23.42   19.10   1
  -1   1  20   30.96   19.50   1
  -1  -1  20   -4.25    9.67   1
  -1   1 -20  -10.08    6.41   3
   1  -1  20    2.42   12.88   1
  -3   1 -20  -14.61    7.67   4
  -3  -1 -20   -3.24    8.93   4
   0  -2  20  309.33   48.16   1
   0   2 -20  318.76   36.20   3
   0   2  20  437.82   59.61   1
   0  -2 -20  278.71   35.52   3
   2   2 -20  188.01   29.45   3
  -2  -2 -20  209.00   29.38   3
  -2  -2 -20  205.29   29.78   4
  -2   2 -20  210.46   30.51   4
   2  -2 -20  201.74   30.89   3
   2   2  20  198.18   43.16   1
   1   3 -20   14.72   10.48   3
   1  -3 -20    0.50    6.45   3
  -1  -3 -20   -0.76    9.38   4
  -1   3  20   24.04   17.28   1
   1   3  20    1.27   16.28   1
  -1  -3 -20   -1.15    7.65   3
  -3   3 -20    7.96   10.64   4
   0   4  20  576.70   67.30   1
   0  -4 -20  526.45   42.41   3
   0   4 -20  654.04   44.59   3
  -2  -4 -20   71.43   16.26   3
   2   4 -20  114.41   21.83   3
  -2  -4 -20   91.40   20.91   4
   1   5 -20  -12.78    6.79   3
  -1  -5 -20  -21.64    7.18   4
   0   0   0    0.00    0.00   0
;
_shelx_hkl_checksum              4972
loop_
_space_group_symop_operation_xyz
'x, y, z'
'-x, -y, z'
'x, -y, -z'
'-x, y, -z'
'x+1/2, y+1/2, z+1/2'
'-x+1/2, -y+1/2, z+1/2'
'x+1/2, -y+1/2, -z+1/2'
'-x+1/2, y+1/2, -z+1/2'
'-x, -y, -z'
'x, y, -z'
'-x, y, z'
'x, -y, z'
'-x+1/2, -y+1/2, -z+1/2'
'x+1/2, y+1/2, -z+1/2'
'-x+1/2, y+1/2, z+1/2'
'x+1/2, -y+1/2, z+1/2'
loop_
_atom_site_label
_atom_site_type_symbol
_atom_site_fract_x
_atom_site_fract_y
_atom_site_fract_z
_atom_site_U_iso_or_equiv
_atom_site_adp_type
_atom_site_occupancy
_atom_site_site_symmetry_order
_atom_site_calc_flag
_atom_site_refinement_flags_posn
_atom_site_refinement_flags_adp
_atom_site_refinement_flags_occupancy
U1 U 0.2500 0.2500 0.2500 0.00877(7) Uani 1 2 d S . P
Cs1 Cs 0.0000 0.5000 0.15534(5) 0.02222(14) Uani 1 4 d S T P
Cs2 Cs 0.0000 0.0000 0.30534(5) 0.01927(14) Uani 1 4 d S T P
Cs3 Cs 0.0000 0.26498(5) 0.5000 0.01996(14) Uani 1 4 d S T P
Cs4 Cs 0.0000 0.19171(5) 0.0000 0.02081(14) Uani 1 4 d S T P
Si1 Si 0.18953(18) 0.5000 0.38806(12) 0.0087(3) Uani 1 2 d S T P
O1 O 0.2442(3) 0.3271(3) 0.1371(3) 0.0190(7) Uani 1 1 d . . .
O2 O 0.2512(3) 0.3973(3) 0.3373(3) 0.0210(8) Uani 1 1 d . . .
O3 O 0.0000 0.2471(3) 0.2537(4) 0.0238(13) Uani 1 2 d S T P
O4 O 0.0000 0.5000 0.3896(5) 0.0182(14) Uani 1 4 d S T P
O5 O 0.2479(7) 0.5000 0.5000 0.0199(15) Uani 1 4 d S T P
loop_
_atom_site_aniso_label
_atom_site_aniso_U_11
_atom_site_aniso_U_22
_atom_site_aniso_U_33
_atom_site_aniso_U_23
_atom_site_aniso_U_13
_atom_site_aniso_U_12
U1 0.00659(10) 0.00865(11) 0.01107(12) -0.00224(8) 0.00007(7) 0.00030(7)
Cs1 0.0215(3) 0.0206(3) 0.0246(3) 0.000 0.000 0.000
Cs2 0.0165(3) 0.0149(3) 0.0265(3) 0.000 0.000 0.000
Cs3 0.0197(3) 0.0221(3) 0.0181(3) 0.000 0.000 0.000
Cs4 0.0183(3) 0.0239(3) 0.0202(3) 0.000 0.000 0.000
Si1 0.0094(7) 0.0082(7) 0.0087(8) 0.000 0.0007(6) 0.000
O1 0.0235(17) 0.0177(17) 0.0158(17) 0.0030(14) 0.0005(13) 0.0023(12)
O2 0.0212(17) 0.0161(17) 0.026(2) -0.0126(15) 0.0008(13) 0.0015(12)
O3 0.007(2) 0.022(3) 0.042(4) -0.005(2) 0.000 0.000
O4 0.009(3) 0.033(4) 0.012(3) 0.000 0.000 0.000
O5 0.013(3) 0.038(4) 0.009(3) 0.000 0.000 0.000
loop_
_atom_type_symbol
_atom_type_description
_atom_type_scat_dispersion_real
_atom_type_scat_dispersion_imag
_atom_type_scat_source
Cs Cs -0.3680 2.1192 'International Tables Vol C Tables 4.2.6.8 and 6.1.1.4'
O O 0.0106 0.0060 'International Tables Vol C Tables 4.2.6.8 and 6.1.1.4'
Si Si 0.0817 0.0704 'International Tables Vol C Tables 4.2.6.8 and 6.1.1.4'
U U -9.6767 9.6646 'International Tables Vol C Tables 4.2.6.8 and 6.1.1.4'
loop_
_geom_angle_atom_site_label_1
_geom_angle_atom_site_label_2
_geom_angle_atom_site_label_3
_geom_angle
_geom_angle_site_symmetry_1
_geom_angle_site_symmetry_3
O1 U1 O1 180.0 . 13
O1 U1 O3 90.18(17) . .
O1 U1 O3 89.81(17) 13 .
O1 U1 O3 89.81(17) . 13
O1 U1 O3 90.19(17) 13 13
O3 U1 O3 180.0(2) . 13
O1 U1 O2 90.30(14) . 13
O1 U1 O2 89.70(14) 13 13
O3 U1 O2 89.61(14) . 13
O3 U1 O2 90.39(14) 13 13
O1 U1 O2 89.71(14) . .
O1 U1 O2 90.30(14) 13 .
O3 U1 O2 90.39(14) . .
O3 U1 O2 89.61(14) 13 .
O2 U1 O2 180.0 13 .
O1 U1 Cs2 126.14(11) . .
O1 U1 Cs2 53.86(11) 13 .
O3 U1 Cs2 55.98(12) . .
O3 U1 Cs2 124.02(12) 13 .
O2 U1 Cs2 53.78(9) 13 .
O2 U1 Cs2 126.22(9) . .
O1 U1 Cs2 53.86(11) . 13
O1 U1 Cs2 126.14(11) 13 13
O3 U1 Cs2 124.02(12) . 13
O3 U1 Cs2 55.98(12) 13 13
O2 U1 Cs2 126.22(9) 13 13
O2 U1 Cs2 53.78(9) . 13
Cs2 U1 Cs2 180.0 . 13
O1 U1 Cs3 47.50(10) . 13
O1 U1 Cs3 132.50(10) 13 13
O3 U1 Cs3 123.00(14) . 13
O3 U1 Cs3 57.00(14) 13 13
O2 U1 Cs3 60.52(9) 13 13
O2 U1 Cs3 119.48(9) . 13
Cs2 U1 Cs3 114.158(11) . 13
Cs2 U1 Cs3 65.842(11) 13 13
O1 U1 Cs3 132.50(10) . .
O1 U1 Cs3 47.50(10) 13 .
O3 U1 Cs3 57.00(14) . .
O3 U1 Cs3 123.00(14) 13 .
O2 U1 Cs3 119.48(9) 13 .
O2 U1 Cs3 60.52(9) . .
Cs2 U1 Cs3 65.843(11) . .
Cs2 U1 Cs3 114.158(11) 13 .
Cs3 U1 Cs3 180.0 13 .
O1 U1 Cs1 44.82(10) . .
O1 U1 Cs1 135.18(10) 13 .
O3 U1 Cs1 60.00(13) . .
O3 U1 Cs1 120.00(13) 13 .
O2 U1 Cs1 119.67(9) 13 .
O2 U1 Cs1 60.33(9) . .
Cs2 U1 Cs1 115.296(4) . .
Cs2 U1 Cs1 64.704(4) 13 .
Cs3 U1 Cs1 92.306(11) 13 .
Cs3 U1 Cs1 87.694(11) . .
O1 U1 Cs1 135.18(10) . 13
O1 U1 Cs1 44.82(10) 13 13
O3 U1 Cs1 120.00(13) . 13
O3 U1 Cs1 60.00(13) 13 13
O2 U1 Cs1 60.33(9) 13 13
O2 U1 Cs1 119.67(9) . 13
Cs2 U1 Cs1 64.704(4) . 13
Cs2 U1 Cs1 115.296(4) 13 13
Cs3 U1 Cs1 87.694(11) 13 13
Cs3 U1 Cs1 92.306(11) . 13
Cs1 U1 Cs1 180.0 . 13
O1 Cs1 O1 170.60(14) 11 12_565
O1 Cs1 O1 93.59(12) 11 2_565
O1 Cs1 O1 85.64(12) 12_565 2_565
O1 Cs1 O1 85.64(12) 11 .
O1 Cs1 O1 93.59(12) 12_565 .
O1 Cs1 O1 170.60(14) 2_565 .
O1 Cs1 O4 94.70(7) 11 .
O1 Cs1 O4 94.70(7) 12_565 .
O1 Cs1 O4 94.70(7) 2_565 .
O1 Cs1 O4 94.70(7) . .
O1 Cs1 O3 50.08(7) 11 .
O1 Cs1 O3 134.80(7) 12_565 .
O1 Cs1 O3 134.80(7) 2_565 .
O1 Cs1 O3 50.08(7) . .
O4 Cs1 O3 67.45(8) . .
O1 Cs1 O3 134.80(7) 11 2_565
O1 Cs1 O3 50.08(7) 12_565 2_565
O1 Cs1 O3 50.08(7) 2_565 2_565
O1 Cs1 O3 134.80(7) . 2_565
O4 Cs1 O3 67.45(8) . 2_565
O3 Cs1 O3 134.89(16) . 2_565
O1 Cs1 O2 137.67(9) 11 12_565
O1 Cs1 O2 51.42(9) 12_565 12_565
O1 Cs1 O2 101.25(8) 2_565 12_565
O1 Cs1 O2 85.44(8) . 12_565
O4 Cs1 O2 45.12(5) . 12_565
O3 Cs1 O2 94.25(8) . 12_565
O3 Cs1 O2 52.03(8) 2_565 12_565
O1 Cs1 O2 51.42(9) 11 11
O1 Cs1 O2 137.67(9) 12_565 11
O1 Cs1 O2 85.44(8) 2_565 11
O1 Cs1 O2 101.25(8) . 11
O4 Cs1 O2 45.12(5) . 11
O3 Cs1 O2 52.03(8) . 11
O3 Cs1 O2 94.25(8) 2_565 11
O2 Cs1 O2 90.24(11) 12_565 11
O1 Cs1 O2 85.44(8) 11 2_565
O1 Cs1 O2 101.25(8) 12_565 2_565
O1 Cs1 O2 51.42(9) 2_565 2_565
O1 Cs1 O2 137.67(9) . 2_565
O4 Cs1 O2 45.12(5) . 2_565
O3 Cs1 O2 94.25(8) . 2_565
O3 Cs1 O2 52.03(8) 2_565 2_565
O2 Cs1 O2 74.08(11) 12_565 2_565
O2 Cs1 O2 43.83(11) 11 2_565
O1 Cs1 O2 101.25(8) 11 .
O1 Cs1 O2 85.44(8) 12_565 .
O1 Cs1 O2 137.67(9) 2_565 .
O1 Cs1 O2 51.42(9) . .
O4 Cs1 O2 45.12(5) . .
O3 Cs1 O2 52.02(8) . .
O3 Cs1 O2 94.25(8) 2_565 .
O2 Cs1 O2 43.83(11) 12_565 .
O2 Cs1 O2 74.07(11) 11 .
O2 Cs1 O2 90.24(11) 2_565 .
O1 Cs1 Si1 76.56(7) 11 2_565
O1 Cs1 Si1 112.26(7) 12_565 2_565
O1 Cs1 Si1 76.56(7) 2_565 2_565
O1 Cs1 Si1 112.26(7) . 2_565
O4 Cs1 Si1 26.72(3) . 2_565
O3 Cs1 Si1 69.97(7) . 2_565
O3 Cs1 Si1 69.97(7) 2_565 2_565
O2 Cs1 Si1 68.94(6) 12_565 2_565
O2 Cs1 Si1 25.70(5) 11 2_565
O2 Cs1 Si1 25.70(5) 2_565 2_565
O2 Cs1 Si1 68.94(6) . 2_565
O2 Cs2 O2 49.29(12) 14_445 7_455
O2 Cs2 O2 103.66(13) 14_445 13
O2 Cs2 O2 83.59(12) 7_455 13
O2 Cs2 O2 83.59(13) 14_445 8_545
O2 Cs2 O2 103.66(13) 7_455 8_545
O2 Cs2 O2 49.29(12) 13 8_545
O2 Cs2 O1 153.21(9) 14_445 13
O2 Cs2 O1 108.33(8) 7_455 13
O2 Cs2 O1 53.97(9) 13 13
O2 Cs2 O1 89.43(8) 8_545 13
O2 Cs2 O1 53.97(9) 14_445 14_445
O2 Cs2 O1 89.43(8) 7_455 14_445
O2 Cs2 O1 153.21(9) 13 14_445
O2 Cs2 O1 108.33(8) 8_545 14_445
O1 Cs2 O1 151.48(13) 13 14_445
O2 Cs2 O1 108.33(8) 14_445 8_545
O2 Cs2 O1 153.21(9) 7_455 8_545
O2 Cs2 O1 89.43(8) 13 8_545
O2 Cs2 O1 53.97(9) 8_545 8_545
O1 Cs2 O1 87.80(12) 13 8_545
O1 Cs2 O1 85.25(11) 14_445 8_545
O2 Cs2 O1 89.43(8) 14_445 7_455
O2 Cs2 O1 53.97(9) 7_455 7_455
O2 Cs2 O1 108.33(8) 13 7_455
O2 Cs2 O1 153.21(9) 8_545 7_455
O1 Cs2 O1 85.25(11) 13 7_455
O1 Cs2 O1 87.80(12) 14_445 7_455
O1 Cs2 O1 151.48(13) 8_545 7_455
O2 Cs2 O3 57.21(8) 14_445 2
O2 Cs2 O3 105.81(9) 7_455 2
O2 Cs2 O3 105.81(9) 13 2
O2 Cs2 O3 57.21(8) 8_545 2
O1 Cs2 O3 136.92(6) 13 2
O1 Cs2 O3 51.45(7) 14_445 2
O1 Cs2 O3 51.45(7) 8_545 2
O1 Cs2 O3 136.92(6) 7_455 2
O2 Cs2 O3 105.81(9) 14_445 .
O2 Cs2 O3 57.21(8) 7_455 .
O2 Cs2 O3 57.21(8) 13 .
O2 Cs2 O3 105.81(9) 8_545 .
O1 Cs2 O3 51.45(7) 13 .
O1 Cs2 O3 136.92(6) 14_445 .
O1 Cs2 O3 136.92(6) 8_545 .
O1 Cs2 O3 51.45(7) 7_455 .
O3 Cs2 O3 154.85(18) 2 .
O2 Cs2 Si1 24.75(6) 14_445 14_445
O2 Cs2 Si1 24.75(6) 7_455 14_445
O2 Cs2 Si1 91.77(7) 13 14_445
O2 Cs2 Si1 91.77(7) 8_545 14_445
O1 Cs2 Si1 130.68(6) 13 14_445
O1 Cs2 Si1 72.41(6) 14_445 14_445
O1 Cs2 Si1 130.68(6) 8_545 14_445
O1 Cs2 Si1 72.41(6) 7_455 14_445
O3 Cs2 Si1 81.11(6) 2 14_445
O3 Cs2 Si1 81.11(6) . 14_445
O2 Cs2 Si1 91.77(7) 14_445 13
O2 Cs2 Si1 91.77(7) 7_455 13
O2 Cs2 Si1 24.75(6) 13 13
O2 Cs2 Si1 24.75(6) 8_545 13
O1 Cs2 Si1 72.41(6) 13 13
O1 Cs2 Si1 130.68(6) 14_445 13
O1 Cs2 Si1 72.41(6) 8_545 13
O1 Cs2 Si1 130.68(6) 7_455 13
O3 Cs2 Si1 81.11(6) 2 13
O3 Cs2 Si1 81.11(6) . 13
Si1 Cs2 Si1 89.56(5) 14_445 13
O1 Cs3 O1 135.20(13) 7_455 6
O1 Cs3 O1 74.57(13) 7_455 16_455
O1 Cs3 O1 88.60(12) 6 16_455
O1 Cs3 O1 88.60(12) 7_455 13
O1 Cs3 O1 74.57(13) 6 13
O1 Cs3 O1 135.20(13) 16_455 13
O1 Cs3 O4 127.75(8) 7_455 9_566
O1 Cs3 O4 93.96(10) 6 9_566
O1 Cs3 O4 93.96(10) 16_455 9_566
O1 Cs3 O4 127.75(8) 13 9_566
O1 Cs3 O4 93.96(10) 7_455 .
O1 Cs3 O4 127.75(8) 6 .
O1 Cs3 O4 127.75(8) 16_455 .
O1 Cs3 O4 93.96(10) 13 .
O4 Cs3 O4 53.3(2) 9_566 .
O1 Cs3 O3 125.34(8) 7_455 10_556
O1 Cs3 O3 50.93(7) 6 10_556
O1 Cs3 O3 50.93(7) 16_455 10_556
O1 Cs3 O3 125.34(8) 13 10_556
O4 Cs3 O3 67.27(12) 9_566 10_556
O4 Cs3 O3 120.53(13) . 10_556
O1 Cs3 O3 50.93(7) 7_455 .
O1 Cs3 O3 125.34(8) 6 .
O1 Cs3 O3 125.34(8) 16_455 .
O1 Cs3 O3 50.93(7) 13 .
O4 Cs3 O3 120.53(13) 9_566 .
O4 Cs3 O3 67.27(12) . .
O3 Cs3 O3 172.20(16) 10_556 .
O1 Cs3 O2 102.85(9) 7_455 .
O1 Cs3 O2 98.36(8) 6 .
O1 Cs3 O2 171.92(9) 16_455 .
O1 Cs3 O2 51.51(8) 13 .
O4 Cs3 O2 81.53(10) 9_566 .
O4 Cs3 O2 44.33(7) . .
O3 Cs3 O2 131.68(7) 10_556 .
O3 Cs3 O2 53.17(7) . .
O1 Cs3 O2 171.92(9) 7_455 10_556
O1 Cs3 O2 51.51(8) 6 10_556
O1 Cs3 O2 102.85(9) 16_455 10_556
O1 Cs3 O2 98.36(8) 13 10_556
O4 Cs3 O2 44.33(7) 9_566 10_556
O4 Cs3 O2 81.53(10) . 10_556
O3 Cs3 O2 53.17(7) 10_556 10_556
O3 Cs3 O2 131.68(7) . 10_556
O2 Cs3 O2 78.64(11) . 10_556
O1 Cs3 O2 51.51(8) 7_455 11
O1 Cs3 O2 171.92(9) 6 11
O1 Cs3 O2 98.36(8) 16_455 11
O1 Cs3 O2 102.85(9) 13 11
O4 Cs3 O2 81.53(10) 9_566 11
O4 Cs3 O2 44.33(7) . 11
O3 Cs3 O2 131.68(7) 10_556 11
O3 Cs3 O2 53.17(7) . 11
O2 Cs3 O2 74.42(11) . 11
O2 Cs3 O2 122.31(11) 10_556 11
O1 Cs3 O2 98.36(8) 7_455 4_556
O1 Cs3 O2 102.85(9) 6 4_556
O1 Cs3 O2 51.51(8) 16_455 4_556
O1 Cs3 O2 171.92(9) 13 4_556
O4 Cs3 O2 44.33(7) 9_566 4_556
O4 Cs3 O2 81.53(10) . 4_556
O3 Cs3 O2 53.17(7) 10_556 4_556
O3 Cs3 O2 131.68(7) . 4_556
O2 Cs3 O2 122.31(11) . 4_556
O2 Cs3 O2 74.42(11) 10_556 4_556
O2 Cs3 O2 78.64(11) 11 4_556
O5 Cs4 O5 81.91(15) 5_444 13
O5 Cs4 O2 46.73(6) 5_444 16_454
O5 Cs4 O2 99.12(8) 13 16_454
O5 Cs4 O2 99.12(8) 5_444 13
O5 Cs4 O2 46.73(6) 13 13
O2 Cs4 O2 139.17(12) 16_454 13
O5 Cs4 O2 46.73(6) 5_444 7_455
O5 Cs4 O2 99.12(8) 13 7_455
O2 Cs4 O2 85.86(12) 16_454 7_455
O2 Cs4 O2 80.14(12) 13 7_455
O5 Cs4 O2 99.12(8) 5_444 6_554
O5 Cs4 O2 46.73(6) 13 6_554
O2 Cs4 O2 80.14(12) 16_454 6_554
O2 Cs4 O2 85.86(12) 13 6_554
O2 Cs4 O2 139.17(12) 7_455 6_554
O5 Cs4 O1 144.18(6) 5_444 .
O5 Cs4 O1 89.24(8) 13 .
O2 Cs4 O1 167.89(9) 16_454 .
O2 Cs4 O1 52.46(8) 13 .
O2 Cs4 O1 101.53(8) 7_455 .
O2 Cs4 O1 99.70(8) 6_554 .
O5 Cs4 O1 89.24(8) 5_444 4
O5 Cs4 O1 144.18(6) 13 4
O2 Cs4 O1 52.46(8) 16_454 4
O2 Cs4 O1 167.89(9) 13 4
O2 Cs4 O1 99.70(8) 7_455 4
O2 Cs4 O1 101.53(8) 6_554 4
O1 Cs4 O1 116.25(12) . 4
O5 Cs4 O1 144.18(6) 5_444 10
O5 Cs4 O1 89.24(8) 13 10
O2 Cs4 O1 101.53(8) 16_454 10
O2 Cs4 O1 99.70(8) 13 10
O2 Cs4 O1 167.89(9) 7_455 10
O2 Cs4 O1 52.46(8) 6_554 10
O1 Cs4 O1 69.64(12) . 10
O1 Cs4 O1 77.89(11) 4 10
O5 Cs4 O1 89.24(8) 5_444 11
O5 Cs4 O1 144.18(6) 13 11
O2 Cs4 O1 99.70(8) 16_454 11
O2 Cs4 O1 101.53(8) 13 11
O2 Cs4 O1 52.46(8) 7_455 11
O2 Cs4 O1 167.89(9) 6_554 11
O1 Cs4 O1 77.89(11) . 11
O1 Cs4 O1 69.64(12) 4 11
O1 Cs4 O1 116.25(12) 10 11
O5 Cs4 O3 98.70(6) 5_444 .
O5 Cs4 O3 98.70(6) 13 .
O2 Cs4 O3 137.49(6) 16_454 .
O2 Cs4 O3 53.31(7) 13 .
O2 Cs4 O3 53.31(7) 7_455 .
O2 Cs4 O3 137.49(6) 6_554 .
O1 Cs4 O3 48.31(7) . .
O1 Cs4 O3 116.98(8) 4 .
O1 Cs4 O3 116.98(8) 10 .
O1 Cs4 O3 48.31(7) 11 .
O5 Cs4 O3 98.70(6) 5_444 10
O5 Cs4 O3 98.70(6) 13 10
O2 Cs4 O3 53.31(7) 16_454 10
O2 Cs4 O3 137.49(6) 13 10
O2 Cs4 O3 137.49(6) 7_455 10
O2 Cs4 O3 53.31(7) 6_554 10
O1 Cs4 O3 116.98(8) . 10
O1 Cs4 O3 48.31(7) 4 10
O1 Cs4 O3 48.31(7) 10 10
O1 Cs4 O3 116.98(8) 11 10
O3 Cs4 O3 156.91(15) . 10
O2 Si1 O2 113.2(3) . 12_565
O2 Si1 O4 109.67(17) . .
O2 Si1 O4 109.67(17) 12_565 .
O2 Si1 O5 108.53(18) . .
O2 Si1 O5 108.53(18) 12_565 .
O4 Si1 O5 107.1(3) . .
O2 Si1 Cs1 75.83(15) . .
O2 Si1 Cs1 75.83(15) 12_565 .
O4 Si1 Cs1 64.0(2) . .
O5 Si1 Cs1 171.1(2) . .
O2 Si1 Cs2 56.93(14) . 13
O2 Si1 Cs2 56.93(14) 12_565 13
O4 Si1 Cs2 135.6(2) . 13
O5 Si1 Cs2 117.4(2) . 13
Cs1 Si1 Cs2 71.51(3) . 13
O2 Si1 Cs3 69.51(13) . .
O2 Si1 Cs3 173.88(14) 12_565 .
O4 Si1 Cs3 64.27(11) . .
O5 Si1 Cs3 75.03(11) . .
Cs1 Si1 Cs3 99.96(3) . .
Cs2 Si1 Cs3 126.34(2) 13 .
O2 Si1 Cs3 173.88(14) . 9_566
O2 Si1 Cs3 69.52(13) 12_565 9_566
O4 Si1 Cs3 64.27(11) . 9_566
O5 Si1 Cs3 75.03(11) . 9_566
Cs1 Si1 Cs3 99.96(3) . 9_566
Cs2 Si1 Cs3 126.34(2) 13 9_566
Cs3 Si1 Cs3 107.28(4) . 9_566
O2 Si1 Cs4 118.36(13) . 5
O2 Si1 Cs4 54.96(14) 12_565 5
O4 Si1 Cs4 131.80(13) . 5
O5 Si1 Cs4 54.61(13) . 5
Cs1 Si1 Cs4 130.70(3) . 5
Cs2 Si1 Cs4 78.75(3) 13 5
Cs3 Si1 Cs4 129.32(4) . 5
Cs3 Si1 Cs4 67.749(16) 9_566 5
O2 Si1 Cs4 54.96(14) . 13
O2 Si1 Cs4 118.36(13) 12_565 13
O4 Si1 Cs4 131.80(13) . 13
O5 Si1 Cs4 54.61(13) . 13
Cs1 Si1 Cs4 130.70(3) . 13
Cs2 Si1 Cs4 78.75(3) 13 13
Cs3 Si1 Cs4 67.749(16) . 13
Cs3 Si1 Cs4 129.32(4) 9_566 13
Cs4 Si1 Cs4 77.89(3) 5 13
U1 O1 Cs1 110.00(14) . .
U1 O1 Cs3 106.62(13) . 13
Cs1 O1 Cs3 143.33(13) . 13
U1 O1 Cs2 98.53(13) . 13
Cs1 O1 Cs2 86.25(9) . 13
Cs3 O1 Cs2 86.59(8) 13 13
U1 O1 Cs4 102.29(13) . .
Cs1 O1 Cs4 90.26(8) . .
Cs3 O1 Cs4 83.79(9) 13 .
Cs2 O1 Cs4 158.82(12) 13 .
Si1 O2 U1 159.9(2) . .
Si1 O2 Cs2 98.31(16) . 13
U1 O2 Cs2 91.43(11) . 13
Si1 O2 Cs4 101.77(17) . 13
U1 O2 Cs4 94.15(11) . 13
Cs2 O2 Cs4 97.89(8) 13 13
Si1 O2 Cs3 85.61(14) . .
U1 O2 Cs3 85.89(10) . .
Cs2 O2 Cs3 174.76(11) 13 .
Cs4 O2 Cs3 77.84(8) 13 .
Si1 O2 Cs1 78.47(14) . .
U1 O2 Cs1 86.29(11) . .
Cs2 O2 Cs1 79.03(9) 13 .
Cs4 O2 Cs1 176.91(12) 13 .
Cs3 O2 Cs1 105.25(8) . .
U1 O3 U1 176.6(3) 7_455 .
U1 O3 Cs2 91.30(12) 7_455 .
U1 O3 Cs2 91.30(12) . .
U1 O3 Cs3 91.31(14) 7_455 .
U1 O3 Cs3 91.31(14) . .
Cs2 O3 Cs3 81.33(11) . .
U1 O3 Cs1 88.53(13) 7_455 .
U1 O3 Cs1 88.53(13) . .
Cs2 O3 Cs1 170.02(17) . .
Cs3 O3 Cs1 108.65(12) . .
U1 O3 Cs4 88.85(14) 7_455 .
U1 O3 Cs4 88.85(14) . .
Cs2 O3 Cs4 91.03(11) . .
Cs3 O3 Cs4 172.35(15) . .
Cs1 O3 Cs4 78.99(11) . .
Si1 O4 Si1 178.5(5) 2_565 .
Si1 O4 Cs1 89.2(2) 2_565 .
Si1 O4 Cs1 89.2(2) . .
Si1 O4 Cs3 90.35(11) 2_565 .
Si1 O4 Cs3 90.34(11) . .
Cs1 O4 Cs3 116.63(10) . .
Si1 O4 Cs3 90.35(11) 2_565 9_566
Si1 O4 Cs3 90.34(11) . 9_566
Cs1 O4 Cs3 116.63(10) . 9_566
Cs3 O4 Cs3 126.7(2) . 9_566
Si1 O5 Si1 144.3(4) . 10_556
Si1 O5 Cs4 101.60(11) . 5
Si1 O5 Cs4 101.60(11) 10_556 5
Si1 O5 Cs4 101.60(11) . 13
Si1 O5 Cs4 101.60(11) 10_556 13
Cs4 O5 Cs4 98.09(15) 5 13
Si1 O5 Cs3 79.90(13) . .
Si1 O5 Cs3 79.90(13) 10_556 .
Cs4 O5 Cs3 173.89(15) 5 .
Cs4 O5 Cs3 75.802(10) 13 .
Si1 O5 Cs3 79.90(13) . 9_566
Si1 O5 Cs3 79.90(13) 10_556 9_566
Cs4 O5 Cs3 75.802(10) 5 9_566
Cs4 O5 Cs3 173.89(15) 13 9_566
Cs3 O5 Cs3 110.31(15) . 9_566
loop_
_geom_bond_atom_site_label_1
_geom_bond_atom_site_label_2
_geom_bond_distance
_geom_bond_site_symmetry_2
U1 O1 1.861(4) .
U1 O1 1.861(4) 13
U1 O3 2.14626(19) .
U1 O3 2.1463(2) 13
U1 O2 2.266(3) 13
U1 O2 2.266(3) .
U1 Cs2 3.96947(19) .
U1 Cs2 3.96948(18) 13
U1 Cs3 4.08449(16) 13
U1 Cs3 4.08449(16) .
U1 Cs1 4.1101(2) .
U1 Cs1 4.1101(3) 13
Cs1 O1 3.083(3) 11
Cs1 O1 3.083(3) 12_565
Cs1 O1 3.083(3) 2_565
Cs1 O1 3.083(3) .
Cs1 O4 3.252(7) .
Cs1 O3 3.561(5) .
Cs1 O3 3.561(5) 2_565
Cs1 O2 3.579(4) 12_565
Cs1 O2 3.579(4) 11
Cs1 O2 3.579(4) 2_565
Cs1 O2 3.579(4) .
Cs1 Si1 3.6166(18) 2_565
Cs2 O2 3.203(4) 14_445
Cs2 O2 3.203(4) 7_455
Cs2 O2 3.203(4) 13
Cs2 O2 3.203(4) 8_545
Cs2 O1 3.241(3) 13
Cs2 O1 3.241(3) 14_445
Cs2 O1 3.241(3) 8_545
Cs2 O1 3.241(3) 7_455
Cs2 O3 3.291(5) 2
Cs2 O3 3.291(5) .
Cs2 Si1 3.7822(17) 14_445
Cs2 Si1 3.7822(17) 13
Cs3 O1 3.143(3) 7_455
Cs3 O1 3.143(3) 6
Cs3 O1 3.143(3) 16_455
Cs3 O1 3.143(3) 13
Cs3 O4 3.418(3) 9_566
Cs3 O4 3.418(3) .
Cs3 O3 3.426(5) 10_556
Cs3 O3 3.426(5) .
Cs3 O2 3.565(4) .
Cs3 O2 3.565(4) 10_556
Cs3 O2 3.565(4) 11
Cs3 O2 3.565(4) 4_556
Cs4 O5 3.300(4) 5_444
Cs4 O5 3.300(4) 13
Cs4 O2 3.316(4) 16_454
Cs4 O2 3.316(4) 13
Cs4 O2 3.316(4) 7_455
Cs4 O2 3.316(4) 6_554
Cs4 O1 3.334(3) .
Cs4 O1 3.334(3) 4
Cs4 O1 3.334(3) 10
Cs4 O1 3.334(3) 11
Cs4 O3 3.595(5) .
Cs4 O3 3.595(5) 10
Si1 O2 1.600(3) .
Si1 O2 1.600(3) 12_565
Si1 O4 1.6265(16) .
Si1 O5 1.633(2) .
Si1 Cs2 3.7822(17) 13
Si1 Cs3 3.7942(11) 9_566
Si1 Cs4 3.9655(13) 5
Si1 Cs4 3.9655(13) 13
O1 Cs3 3.143(3) 13
O1 Cs2 3.241(3) 13
O2 Cs2 3.203(4) 13
O2 Cs4 3.316(4) 13
O3 U1 2.14626(19) 7_455
O4 Si1 1.6265(16) 2_565
O4 Cs3 3.418(3) 9_566
O5 Si1 1.633(2) 10_556
O5 Cs4 3.300(4) 5
O5 Cs4 3.300(4) 13
O5 Cs3 3.723(3) 9_566
