#------------------------------------------------------------------------------
#$Date: 2016-02-13 21:28:24 +0200 (Sat, 13 Feb 2016) $
#$Revision: 176429 $
#$URL: svn://www.crystallography.net/cod/cif/4/34/31/4343131.cif $
#------------------------------------------------------------------------------
#
# This file is available in the Crystallography Open Database (COD),
# http://www.crystallography.net/
#
# All data on this site have been placed in the public domain by the
# contributors.
#
data_4343131
loop_
_publ_author_name
'Murphy, Denissa T.'
'Schmid, Siegbert'
'Hester, James R.'
'Blanchard, Peter E. R.'
'Miiller, Wojciech'
_publ_section_title
;
 Coordination Site Disorder in Spinel-Type LiMnTiO4.
;
_journal_issue                   10
_journal_name_full               'Inorganic chemistry'
_journal_page_first              4636
_journal_page_last               4643
_journal_paper_doi               10.1021/ic502747p
_journal_volume                  54
_journal_year                    2015
_chemical_formula_sum            'Li Mn O4 Ti'
_chemical_formula_weight         173.8
_chemical_name_common            Lithium_manganese_titanate_quenched_950C
_chemical_name_systematic        ' Lithium_manganese_titanate'
_space_group_IT_number           227
_symmetry_cell_setting           cubic
_symmetry_Int_Tables_number      227
_symmetry_space_group_name_Hall  '-F 4vw 2vw 3'
_symmetry_space_group_name_H-M   'F d -3 m :2'
_cell_angle_alpha                90
_cell_angle_beta                 90
_cell_angle_gamma                90
_cell_formula_units_Z            8
_cell_length_a                   8.38728(3)
_cell_length_b                   8.38728(3)
_cell_length_c                   8.38728(3)
_cell_measurement_temperature    293
_cell_volume                     590.016(4)
_diffrn_ambient_temperature      293
_diffrn_measurement_device_type  powder_diffraction
_diffrn_radiation_probe          neutron
_diffrn_radiation_type           neutron
_diffrn_radiation_wavelength     1.622
_exptl_absorpt_coefficient_mu    0.11
_exptl_crystal_density_diffrn    3.9109
_exptl_crystal_F_000             656
_pd_char_colour                  black
_pd_instr_location               ' ?'
_pd_meas_2theta_range_max        163.950
_pd_meas_2theta_range_min        2.751
_pd_meas_number_of_points        3226
_pd_proc_2theta_range_max        163.95
_pd_proc_2theta_range_min        11.851
_pd_proc_ls_background_function  'Manual background'
_pd_proc_ls_pref_orient_corr     none
_pd_proc_ls_profile_function     Pseudo-Voigt
_pd_proc_ls_prof_R_factor        0.0308
_pd_proc_ls_prof_wR_expected     0.0239
_pd_proc_ls_prof_wR_factor       0.0431
_refine_ls_goodness_of_fit_all   4.58
_refine_ls_number_constraints    0
_refine_ls_number_parameters     11
_refine_ls_number_restraints     0
_refine_ls_R_factor_all          0.0592
_refine_ls_R_factor_gt           0.0591
_refine_ls_shift/su_max          0.0000
_refine_ls_shift/su_mean         0.0000
_refine_ls_weighting_scheme      sigma
_refine_ls_wR_factor_all         0.0896
_refine_ls_wR_factor_gt          0.0896
_cod_data_source_file            ic502747p_si_001.cif
_cod_data_source_block           I
_cod_original_sg_symbol_Hall     '-F 4abvw;2abvw;3'
_cod_original_sg_symbol_H-M      'F d -3 m'
_cod_original_formula_sum        'Li1 Mn1 O4 Ti1'
_cod_database_code               4343131
loop_
_symmetry_equiv_pos_site_id
_symmetry_equiv_pos_as_xyz
1 x,y,z
2 -x+3/4,-y+1/4,z+1/2
3 -x+1/4,y+1/2,-z+3/4
4 x+1/2,-y+3/4,-z+1/4
5 z,x,y
6 z+1/2,-x+3/4,-y+1/4
7 -z+3/4,-x+1/4,y+1/2
8 -z+1/4,x+1/2,-y+3/4
9 y,z,x
10 -y+1/4,z+1/2,-x+3/4
11 y+1/2,-z+3/4,-x+1/4
12 -y+3/4,-z+1/4,x+1/2
13 y+3/4,x+1/4,-z+1/2
14 -y,-x,-z
15 y+1/4,-x+1/2,z+3/4
16 -y+1/2,x+3/4,z+1/4
17 x+3/4,z+1/4,-y+1/2
18 -x+1/2,z+3/4,y+1/4
19 -x,-z,-y
20 x+1/4,-z+1/2,y+3/4
21 z+3/4,y+1/4,-x+1/2
22 z+1/4,-y+1/2,x+3/4
23 -z+1/2,y+3/4,x+1/4
24 -z,-y,-x
25 -x,-y,-z
26 x+1/4,y+3/4,-z+1/2
27 x+3/4,-y+1/2,z+1/4
28 -x+1/2,y+1/4,z+3/4
29 -z,-x,-y
30 -z+1/2,x+1/4,y+3/4
31 z+1/4,x+3/4,-y+1/2
32 z+3/4,-x+1/2,y+1/4
33 -y,-z,-x
34 y+3/4,-z+1/2,x+1/4
35 -y+1/2,z+1/4,x+3/4
36 y+1/4,z+3/4,-x+1/2
37 -y+1/4,-x+3/4,z+1/2
38 y,x,z
39 -y+3/4,x+1/2,-z+1/4
40 y+1/2,-x+1/4,-z+3/4
41 -x+1/4,-z+3/4,y+1/2
42 x+1/2,-z+1/4,-y+3/4
43 x,z,y
44 -x+3/4,z+1/2,-y+1/4
45 -z+1/4,-y+3/4,x+1/2
46 -z+3/4,y+1/2,-x+1/4
47 z+1/2,-y+1/4,-x+3/4
48 z,y,x
49 x,y+1/2,z+1/2
50 -x+3/4,-y+3/4,z
51 -x+1/4,y,-z+1/4
52 x+1/2,-y+1/4,-z+3/4
53 z,x+1/2,y+1/2
54 z+1/2,-x+1/4,-y+3/4
55 -z+3/4,-x+3/4,y
56 -z+1/4,x,-y+1/4
57 y,z+1/2,x+1/2
58 -y+1/4,z,-x+1/4
59 y+1/2,-z+1/4,-x+3/4
60 -y+3/4,-z+3/4,x
61 y+3/4,x+3/4,-z
62 -y,-x+1/2,-z+1/2
63 y+1/4,-x,z+1/4
64 -y+1/2,x+1/4,z+3/4
65 x+3/4,z+3/4,-y
66 -x+1/2,z+1/4,y+3/4
67 -x,-z+1/2,-y+1/2
68 x+1/4,-z,y+1/4
69 z+3/4,y+3/4,-x
70 z+1/4,-y,x+1/4
71 -z+1/2,y+1/4,x+3/4
72 -z,-y+1/2,-x+1/2
73 -x,-y+1/2,-z+1/2
74 x+1/4,y+1/4,-z
75 x+3/4,-y,z+3/4
76 -x+1/2,y+3/4,z+1/4
77 -z,-x+1/2,-y+1/2
78 -z+1/2,x+3/4,y+1/4
79 z+1/4,x+1/4,-y
80 z+3/4,-x,y+3/4
81 -y,-z+1/2,-x+1/2
82 y+3/4,-z,x+3/4
83 -y+1/2,z+3/4,x+1/4
84 y+1/4,z+1/4,-x
85 -y+1/4,-x+1/4,z
86 y,x+1/2,z+1/2
87 -y+3/4,x,-z+3/4
88 y+1/2,-x+3/4,-z+1/4
89 -x+1/4,-z+1/4,y
90 x+1/2,-z+3/4,-y+1/4
91 x,z+1/2,y+1/2
92 -x+3/4,z,-y+3/4
93 -z+1/4,-y+1/4,x
94 -z+3/4,y,-x+3/4
95 z+1/2,-y+3/4,-x+1/4
96 z,y+1/2,x+1/2
97 x+1/2,y,z+1/2
98 -x+1/4,-y+1/4,z
99 -x+3/4,y+1/2,-z+1/4
100 x,-y+3/4,-z+3/4
101 z+1/2,x,y+1/2
102 z,-x+3/4,-y+3/4
103 -z+1/4,-x+1/4,y
104 -z+3/4,x+1/2,-y+1/4
105 y+1/2,z,x+1/2
106 -y+3/4,z+1/2,-x+1/4
107 y,-z+3/4,-x+3/4
108 -y+1/4,-z+1/4,x
109 y+1/4,x+1/4,-z
110 -y+1/2,-x,-z+1/2
111 y+3/4,-x+1/2,z+1/4
112 -y,x+3/4,z+3/4
113 x+1/4,z+1/4,-y
114 -x,z+3/4,y+3/4
115 -x+1/2,-z,-y+1/2
116 x+3/4,-z+1/2,y+1/4
117 z+1/4,y+1/4,-x
118 z+3/4,-y+1/2,x+1/4
119 -z,y+3/4,x+3/4
120 -z+1/2,-y,-x+1/2
121 -x+1/2,-y,-z+1/2
122 x+3/4,y+3/4,-z
123 x+1/4,-y+1/2,z+3/4
124 -x,y+1/4,z+1/4
125 -z+1/2,-x,-y+1/2
126 -z,x+1/4,y+1/4
127 z+3/4,x+3/4,-y
128 z+1/4,-x+1/2,y+3/4
129 -y+1/2,-z,-x+1/2
130 y+1/4,-z+1/2,x+3/4
131 -y,z+1/4,x+1/4
132 y+3/4,z+3/4,-x
133 -y+3/4,-x+3/4,z
134 y+1/2,x,z+1/2
135 -y+1/4,x+1/2,-z+3/4
136 y,-x+1/4,-z+1/4
137 -x+3/4,-z+3/4,y
138 x,-z+1/4,-y+1/4
139 x+1/2,z,y+1/2
140 -x+1/4,z+1/2,-y+3/4
141 -z+3/4,-y+3/4,x
142 -z+1/4,y+1/2,-x+3/4
143 z,-y+1/4,-x+1/4
144 z+1/2,y,x+1/2
145 x+1/2,y+1/2,z
146 -x+1/4,-y+3/4,z+1/2
147 -x+3/4,y,-z+3/4
148 x,-y+1/4,-z+1/4
149 z+1/2,x+1/2,y
150 z,-x+1/4,-y+1/4
151 -z+1/4,-x+3/4,y+1/2
152 -z+3/4,x,-y+3/4
153 y+1/2,z+1/2,x
154 -y+3/4,z,-x+3/4
155 y,-z+1/4,-x+1/4
156 -y+1/4,-z+3/4,x+1/2
157 y+1/4,x+3/4,-z+1/2
158 -y+1/2,-x+1/2,-z
159 y+3/4,-x,z+3/4
160 -y,x+1/4,z+1/4
161 x+1/4,z+3/4,-y+1/2
162 -x,z+1/4,y+1/4
163 -x+1/2,-z+1/2,-y
164 x+3/4,-z,y+3/4
165 z+1/4,y+3/4,-x+1/2
166 z+3/4,-y,x+3/4
167 -z,y+1/4,x+1/4
168 -z+1/2,-y+1/2,-x
169 -x+1/2,-y+1/2,-z
170 x+3/4,y+1/4,-z+1/2
171 x+1/4,-y,z+1/4
172 -x,y+3/4,z+3/4
173 -z+1/2,-x+1/2,-y
174 -z,x+3/4,y+3/4
175 z+3/4,x+1/4,-y+1/2
176 z+1/4,-x,y+1/4
177 -y+1/2,-z+1/2,-x
178 y+1/4,-z,x+1/4
179 -y,z+3/4,x+3/4
180 y+3/4,z+1/4,-x+1/2
181 -y+3/4,-x+1/4,z+1/2
182 y+1/2,x+1/2,z
183 -y+1/4,x,-z+1/4
184 y,-x+3/4,-z+3/4
185 -x+3/4,-z+1/4,y+1/2
186 x,-z+3/4,-y+3/4
187 x+1/2,z+1/2,y
188 -x+1/4,z,-y+1/4
189 -z+3/4,-y+1/4,x+1/2
190 -z+1/4,y,-x+1/4
191 z,-y+3/4,-x+3/4
192 z+1/2,y+1/2,x
loop_
_atom_site_label
_atom_site_type_symbol
_atom_site_fract_x
_atom_site_fract_y
_atom_site_fract_z
_atom_site_adp_type
_atom_site_U_iso_or_equiv
_atom_site_symmetry_multiplicity
_atom_site_occupancy
_atom_site_calc_flag
Li11 Li 0.125 0.125 0.125 Uiso 0.00712(17) 8 0.6751 d
Ti11 Ti 0.125 0.125 0.125 Uiso 0.00712(17) 8 0.2974 d
Li12 Li 0.5 0.5 0.5 Uiso 0.01094(7) 16 0.1625 d
Ti12 Ti 0.5 0.5 0.5 Uiso 0.01094(7) 16 0.3513 d
Mn12 Mn 0.5 0.5 0.5 Uiso 0.01094(7) 16 0.4863 d
O1 O 0.26276(5) 0.26276(5) 0.26276(5) Uiso 0.01595(17) 32 1 d
Mn11 Mn 0.125 0.125 0.125 Uiso 0.00712(17) 8 0.0275 d
loop_
_atom_type_symbol
_atom_type_scat_length_neutron
_atom_type_scat_source
Li -1.900 International_Tables_Vol_C
Mn -3.730 International_Tables_Vol_C
Ti -3.438 International_Tables_Vol_C
O 5.803 International_Tables_Vol_C
loop_
_geom_angle_atom_site_label_1
_geom_angle_atom_site_label_2
_geom_angle_atom_site_label_3
_geom_angle_site_symmetry_1
_geom_angle_site_symmetry_3
_geom_angle
Ti11 Li11 O1 . . 0
Ti11 Li11 O1 . 98_555 0
Ti11 Li11 O1 . 51_555 0
Ti11 Li11 O1 . 148_555 0
Ti11 Li11 Mn11 . . 0
O1 Li11 O1 . 98_555 109.471(17)
O1 Li11 O1 . 51_555 109.471(17)
O1 Li11 O1 . 148_555 109.471(17)
O1 Li11 Mn11 . . 0
O1 Li11 O1 98_555 51_555 109.471(17)
O1 Li11 O1 98_555 148_555 109.471(17)
O1 Li11 Mn11 98_555 . 0
O1 Li11 O1 51_555 148_555 109.471(17)
O1 Li11 Mn11 51_555 . 0
O1 Li11 Mn11 148_555 . 0
Li11 Ti11 O1 . . 0
Li11 Ti11 O1 . 98_555 0
Li11 Ti11 O1 . 51_555 0
Li11 Ti11 O1 . 148_555 0
Li11 Ti11 Mn11 . . 0
O1 Ti11 O1 . 98_555 109.471(17)
O1 Ti11 O1 . 51_555 109.471(17)
O1 Ti11 O1 . 148_555 109.471(17)
O1 Ti11 Mn11 . . 0
O1 Ti11 O1 98_555 51_555 109.471(17)
O1 Ti11 O1 98_555 148_555 109.471(17)
O1 Ti11 Mn11 98_555 . 0
O1 Ti11 O1 51_555 148_555 109.471(17)
O1 Ti11 Mn11 51_555 . 0
O1 Ti11 Mn11 148_555 . 0
Li12 Li12 Li12 50_555 98_665 180.0(5)
Li12 Li12 Li12 50_555 51_656 120.00000(14)
Li12 Li12 Li12 50_555 147_555 60.00000(14)
Li12 Li12 Li12 50_555 100_555 60.00000(14)
Li12 Li12 Li12 50_555 148_566 120.00000(14)
Li12 Li12 Ti12 50_555 . 0
Li12 Li12 Ti12 50_555 50_555 0.0(5)
Li12 Li12 Ti12 50_555 98_665 180.0(5)
Li12 Li12 Ti12 50_555 51_656 120.00000(14)
Li12 Li12 Ti12 50_555 147_555 60.00000(14)
Li12 Li12 Ti12 50_555 100_555 60.00000(14)
Li12 Li12 Ti12 50_555 148_566 120.00000(14)
Li12 Li12 Mn12 50_555 . 0
Li12 Li12 Mn12 50_555 50_555 0.0(5)
Li12 Li12 Mn12 50_555 98_665 180.0(5)
Li12 Li12 Mn12 50_555 51_656 120.00000(14)
Li12 Li12 Mn12 50_555 147_555 60.00000(14)
Li12 Li12 Mn12 50_555 100_555 60.00000(14)
Li12 Li12 Mn12 50_555 148_566 120.00000(14)
Li12 Li12 O1 50_555 50_555 85.651(12)
Li12 Li12 O1 50_555 147_555 42.013(12)
Li12 Li12 O1 50_555 100_555 42.013(12)
Li12 Li12 O1 50_555 109_556 94.349(12)
Li12 Li12 O1 50_555 63_565 137.987(12)
Li12 Li12 O1 50_555 160_655 137.987(12)
Li12 Li12 Li12 98_665 51_656 60.00000(14)
Li12 Li12 Li12 98_665 147_555 120.00000(14)
Li12 Li12 Li12 98_665 100_555 120.00000(14)
Li12 Li12 Li12 98_665 148_566 60.00000(14)
Li12 Li12 Ti12 98_665 . 0
Li12 Li12 Ti12 98_665 50_555 180.0(5)
Li12 Li12 Ti12 98_665 98_665 0.0(5)
Li12 Li12 Ti12 98_665 51_656 60.00000(14)
Li12 Li12 Ti12 98_665 147_555 120.00000(14)
Li12 Li12 Ti12 98_665 100_555 120.00000(14)
Li12 Li12 Ti12 98_665 148_566 60.00000(14)
Li12 Li12 Mn12 98_665 . 0
Li12 Li12 Mn12 98_665 50_555 180.0(5)
Li12 Li12 Mn12 98_665 98_665 0.0(5)
Li12 Li12 Mn12 98_665 51_656 60.00000(14)
Li12 Li12 Mn12 98_665 147_555 120.00000(14)
Li12 Li12 Mn12 98_665 100_555 120.00000(14)
Li12 Li12 Mn12 98_665 148_566 60.00000(14)
Li12 Li12 O1 98_665 50_555 94.349(12)
Li12 Li12 O1 98_665 147_555 137.987(12)
Li12 Li12 O1 98_665 100_555 137.987(12)
Li12 Li12 O1 98_665 109_556 85.651(12)
Li12 Li12 O1 98_665 63_565 42.013(12)
Li12 Li12 O1 98_665 160_655 42.013(12)
Li12 Li12 Li12 51_656 147_555 180.0(5)
Li12 Li12 Li12 51_656 100_555 120.00000(14)
Li12 Li12 Li12 51_656 148_566 60.00000(14)
Li12 Li12 Ti12 51_656 . 0
Li12 Li12 Ti12 51_656 50_555 120.00000(14)
Li12 Li12 Ti12 51_656 98_665 60.00000(14)
Li12 Li12 Ti12 51_656 51_656 0.0(5)
Li12 Li12 Ti12 51_656 147_555 180.0(5)
Li12 Li12 Ti12 51_656 100_555 120.00000(14)
Li12 Li12 Ti12 51_656 148_566 60.00000(14)
Li12 Li12 Mn12 51_656 . 0
Li12 Li12 Mn12 51_656 50_555 120.00000(14)
Li12 Li12 Mn12 51_656 98_665 60.00000(14)
Li12 Li12 Mn12 51_656 51_656 0.0(5)
Li12 Li12 Mn12 51_656 147_555 180.0(5)
Li12 Li12 Mn12 51_656 100_555 120.00000(14)
Li12 Li12 Mn12 51_656 148_566 60.00000(14)
Li12 Li12 O1 51_656 50_555 137.987(12)
Li12 Li12 O1 51_656 147_555 94.349(12)
Li12 Li12 O1 51_656 100_555 137.987(12)
Li12 Li12 O1 51_656 109_556 42.013(12)
Li12 Li12 O1 51_656 63_565 85.651(12)
Li12 Li12 O1 51_656 160_655 42.013(12)
Li12 Li12 Li12 147_555 100_555 60.00000(14)
Li12 Li12 Li12 147_555 148_566 120.00000(14)
Li12 Li12 Ti12 147_555 . 0
Li12 Li12 Ti12 147_555 50_555 60.00000(14)
Li12 Li12 Ti12 147_555 98_665 120.00000(14)
Li12 Li12 Ti12 147_555 51_656 180.0(5)
Li12 Li12 Ti12 147_555 147_555 0.0(5)
Li12 Li12 Ti12 147_555 100_555 60.00000(14)
Li12 Li12 Ti12 147_555 148_566 120.00000(14)
Li12 Li12 Mn12 147_555 . 0
Li12 Li12 Mn12 147_555 50_555 60.00000(14)
Li12 Li12 Mn12 147_555 98_665 120.00000(14)
Li12 Li12 Mn12 147_555 51_656 180.0(5)
Li12 Li12 Mn12 147_555 147_555 0.0(5)
Li12 Li12 Mn12 147_555 100_555 60.00000(14)
Li12 Li12 Mn12 147_555 148_566 120.00000(14)
Li12 Li12 O1 147_555 50_555 42.013(12)
Li12 Li12 O1 147_555 147_555 85.651(12)
Li12 Li12 O1 147_555 100_555 42.013(12)
Li12 Li12 O1 147_555 109_556 137.987(12)
Li12 Li12 O1 147_555 63_565 94.349(12)
Li12 Li12 O1 147_555 160_655 137.987(12)
Li12 Li12 Li12 100_555 148_566 180.0(5)
Li12 Li12 Ti12 100_555 . 0
Li12 Li12 Ti12 100_555 50_555 60.00000(14)
Li12 Li12 Ti12 100_555 98_665 120.00000(14)
Li12 Li12 Ti12 100_555 51_656 120.00000(14)
Li12 Li12 Ti12 100_555 147_555 60.00000(14)
Li12 Li12 Ti12 100_555 100_555 0.0(5)
Li12 Li12 Ti12 100_555 148_566 180.0(5)
Li12 Li12 Mn12 100_555 . 0
Li12 Li12 Mn12 100_555 50_555 60.00000(14)
Li12 Li12 Mn12 100_555 98_665 120.00000(14)
Li12 Li12 Mn12 100_555 51_656 120.00000(14)
Li12 Li12 Mn12 100_555 147_555 60.00000(14)
Li12 Li12 Mn12 100_555 100_555 0.0(5)
Li12 Li12 Mn12 100_555 148_566 180.0(5)
Li12 Li12 O1 100_555 50_555 42.013(12)
Li12 Li12 O1 100_555 147_555 42.013(12)
Li12 Li12 O1 100_555 100_555 85.651(12)
Li12 Li12 O1 100_555 109_556 137.987(12)
Li12 Li12 O1 100_555 63_565 137.987(12)
Li12 Li12 O1 100_555 160_655 94.349(12)
Li12 Li12 Ti12 148_566 . 0
Li12 Li12 Ti12 148_566 50_555 120.00000(14)
Li12 Li12 Ti12 148_566 98_665 60.00000(14)
Li12 Li12 Ti12 148_566 51_656 60.00000(14)
Li12 Li12 Ti12 148_566 147_555 120.00000(14)
Li12 Li12 Ti12 148_566 100_555 180.0(5)
Li12 Li12 Ti12 148_566 148_566 0.0(5)
Li12 Li12 Mn12 148_566 . 0
Li12 Li12 Mn12 148_566 50_555 120.00000(14)
Li12 Li12 Mn12 148_566 98_665 60.00000(14)
Li12 Li12 Mn12 148_566 51_656 60.00000(14)
Li12 Li12 Mn12 148_566 147_555 120.00000(14)
Li12 Li12 Mn12 148_566 100_555 180.0(5)
Li12 Li12 Mn12 148_566 148_566 0.0(5)
Li12 Li12 O1 148_566 50_555 137.987(12)
Li12 Li12 O1 148_566 147_555 137.987(12)
Li12 Li12 O1 148_566 100_555 94.349(12)
Li12 Li12 O1 148_566 109_556 42.013(12)
Li12 Li12 O1 148_566 63_565 42.013(12)
Li12 Li12 O1 148_566 160_655 85.651(12)
Ti12 Li12 Ti12 . 50_555 0
Ti12 Li12 Ti12 . 98_665 0
Ti12 Li12 Ti12 . 51_656 0
Ti12 Li12 Ti12 . 147_555 0
Ti12 Li12 Ti12 . 100_555 0
Ti12 Li12 Ti12 . 148_566 0
Ti12 Li12 Mn12 . . 0
Ti12 Li12 Mn12 . 50_555 0
Ti12 Li12 Mn12 . 98_665 0
Ti12 Li12 Mn12 . 51_656 0
Ti12 Li12 Mn12 . 147_555 0
Ti12 Li12 Mn12 . 100_555 0
Ti12 Li12 Mn12 . 148_566 0
Ti12 Li12 O1 . 50_555 0
Ti12 Li12 O1 . 147_555 0
Ti12 Li12 O1 . 100_555 0
Ti12 Li12 O1 . 109_556 0
Ti12 Li12 O1 . 63_565 0
Ti12 Li12 O1 . 160_655 0
Ti12 Li12 Ti12 50_555 98_665 180.0(5)
Ti12 Li12 Ti12 50_555 51_656 120.00000(14)
Ti12 Li12 Ti12 50_555 147_555 60.00000(14)
Ti12 Li12 Ti12 50_555 100_555 60.00000(14)
Ti12 Li12 Ti12 50_555 148_566 120.00000(14)
Ti12 Li12 Mn12 50_555 . 0
Ti12 Li12 Mn12 50_555 50_555 0.0(5)
Ti12 Li12 Mn12 50_555 98_665 180.0(5)
Ti12 Li12 Mn12 50_555 51_656 120.00000(14)
Ti12 Li12 Mn12 50_555 147_555 60.00000(14)
Ti12 Li12 Mn12 50_555 100_555 60.00000(14)
Ti12 Li12 Mn12 50_555 148_566 120.00000(14)
Ti12 Li12 O1 50_555 50_555 85.651(12)
Ti12 Li12 O1 50_555 147_555 42.013(12)
Ti12 Li12 O1 50_555 100_555 42.013(12)
Ti12 Li12 O1 50_555 109_556 94.349(12)
Ti12 Li12 O1 50_555 63_565 137.987(12)
Ti12 Li12 O1 50_555 160_655 137.987(12)
Ti12 Li12 Ti12 98_665 51_656 60.00000(14)
Ti12 Li12 Ti12 98_665 147_555 120.00000(14)
Ti12 Li12 Ti12 98_665 100_555 120.00000(14)
Ti12 Li12 Ti12 98_665 148_566 60.00000(14)
Ti12 Li12 Mn12 98_665 . 0
Ti12 Li12 Mn12 98_665 50_555 180.0(5)
Ti12 Li12 Mn12 98_665 98_665 0.0(5)
Ti12 Li12 Mn12 98_665 51_656 60.00000(14)
Ti12 Li12 Mn12 98_665 147_555 120.00000(14)
Ti12 Li12 Mn12 98_665 100_555 120.00000(14)
Ti12 Li12 Mn12 98_665 148_566 60.00000(14)
Ti12 Li12 O1 98_665 50_555 94.349(12)
Ti12 Li12 O1 98_665 147_555 137.987(12)
Ti12 Li12 O1 98_665 100_555 137.987(12)
Ti12 Li12 O1 98_665 109_556 85.651(12)
Ti12 Li12 O1 98_665 63_565 42.013(12)
Ti12 Li12 O1 98_665 160_655 42.013(12)
Ti12 Li12 Ti12 51_656 147_555 180.0(5)
Ti12 Li12 Ti12 51_656 100_555 120.00000(14)
Ti12 Li12 Ti12 51_656 148_566 60.00000(14)
Ti12 Li12 Mn12 51_656 . 0
Ti12 Li12 Mn12 51_656 50_555 120.00000(14)
Ti12 Li12 Mn12 51_656 98_665 60.00000(14)
Ti12 Li12 Mn12 51_656 51_656 0.0(5)
Ti12 Li12 Mn12 51_656 147_555 180.0(5)
Ti12 Li12 Mn12 51_656 100_555 120.00000(14)
Ti12 Li12 Mn12 51_656 148_566 60.00000(14)
Ti12 Li12 O1 51_656 50_555 137.987(12)
Ti12 Li12 O1 51_656 147_555 94.349(12)
Ti12 Li12 O1 51_656 100_555 137.987(12)
Ti12 Li12 O1 51_656 109_556 42.013(12)
Ti12 Li12 O1 51_656 63_565 85.651(12)
Ti12 Li12 O1 51_656 160_655 42.013(12)
Ti12 Li12 Ti12 147_555 100_555 60.00000(14)
Ti12 Li12 Ti12 147_555 148_566 120.00000(14)
Ti12 Li12 Mn12 147_555 . 0
Ti12 Li12 Mn12 147_555 50_555 60.00000(14)
Ti12 Li12 Mn12 147_555 98_665 120.00000(14)
Ti12 Li12 Mn12 147_555 51_656 180.0(5)
Ti12 Li12 Mn12 147_555 147_555 0.0(5)
Ti12 Li12 Mn12 147_555 100_555 60.00000(14)
Ti12 Li12 Mn12 147_555 148_566 120.00000(14)
Ti12 Li12 O1 147_555 50_555 42.013(12)
Ti12 Li12 O1 147_555 147_555 85.651(12)
Ti12 Li12 O1 147_555 100_555 42.013(12)
Ti12 Li12 O1 147_555 109_556 137.987(12)
Ti12 Li12 O1 147_555 63_565 94.349(12)
Ti12 Li12 O1 147_555 160_655 137.987(12)
Ti12 Li12 Ti12 100_555 148_566 180.0(5)
Ti12 Li12 Mn12 100_555 . 0
Ti12 Li12 Mn12 100_555 50_555 60.00000(14)
Ti12 Li12 Mn12 100_555 98_665 120.00000(14)
Ti12 Li12 Mn12 100_555 51_656 120.00000(14)
Ti12 Li12 Mn12 100_555 147_555 60.00000(14)
Ti12 Li12 Mn12 100_555 100_555 0.0(5)
Ti12 Li12 Mn12 100_555 148_566 180.0(5)
Ti12 Li12 O1 100_555 50_555 42.013(12)
Ti12 Li12 O1 100_555 147_555 42.013(12)
Ti12 Li12 O1 100_555 100_555 85.651(12)
Ti12 Li12 O1 100_555 109_556 137.987(12)
Ti12 Li12 O1 100_555 63_565 137.987(12)
Ti12 Li12 O1 100_555 160_655 94.349(12)
Ti12 Li12 Mn12 148_566 . 0
Ti12 Li12 Mn12 148_566 50_555 120.00000(14)
Ti12 Li12 Mn12 148_566 98_665 60.00000(14)
Ti12 Li12 Mn12 148_566 51_656 60.00000(14)
Ti12 Li12 Mn12 148_566 147_555 120.00000(14)
Ti12 Li12 Mn12 148_566 100_555 180.0(5)
Ti12 Li12 Mn12 148_566 148_566 0.0(5)
Ti12 Li12 O1 148_566 50_555 137.987(12)
Ti12 Li12 O1 148_566 147_555 137.987(12)
Ti12 Li12 O1 148_566 100_555 94.349(12)
Ti12 Li12 O1 148_566 109_556 42.013(12)
Ti12 Li12 O1 148_566 63_565 42.013(12)
Ti12 Li12 O1 148_566 160_655 85.651(12)
Mn12 Li12 Mn12 . 50_555 0
Mn12 Li12 Mn12 . 98_665 0
Mn12 Li12 Mn12 . 51_656 0
Mn12 Li12 Mn12 . 147_555 0
Mn12 Li12 Mn12 . 100_555 0
Mn12 Li12 Mn12 . 148_566 0
Mn12 Li12 O1 . 50_555 0
Mn12 Li12 O1 . 147_555 0
Mn12 Li12 O1 . 100_555 0
Mn12 Li12 O1 . 109_556 0
Mn12 Li12 O1 . 63_565 0
Mn12 Li12 O1 . 160_655 0
Mn12 Li12 Mn12 50_555 98_665 180.0(5)
Mn12 Li12 Mn12 50_555 51_656 120.00000(14)
Mn12 Li12 Mn12 50_555 147_555 60.00000(14)
Mn12 Li12 Mn12 50_555 100_555 60.00000(14)
Mn12 Li12 Mn12 50_555 148_566 120.00000(14)
Mn12 Li12 O1 50_555 50_555 85.651(12)
Mn12 Li12 O1 50_555 147_555 42.013(12)
Mn12 Li12 O1 50_555 100_555 42.013(12)
Mn12 Li12 O1 50_555 109_556 94.349(12)
Mn12 Li12 O1 50_555 63_565 137.987(12)
Mn12 Li12 O1 50_555 160_655 137.987(12)
Mn12 Li12 Mn12 98_665 51_656 60.00000(14)
Mn12 Li12 Mn12 98_665 147_555 120.00000(14)
Mn12 Li12 Mn12 98_665 100_555 120.00000(14)
Mn12 Li12 Mn12 98_665 148_566 60.00000(14)
Mn12 Li12 O1 98_665 50_555 94.349(12)
Mn12 Li12 O1 98_665 147_555 137.987(12)
Mn12 Li12 O1 98_665 100_555 137.987(12)
Mn12 Li12 O1 98_665 109_556 85.651(12)
Mn12 Li12 O1 98_665 63_565 42.013(12)
Mn12 Li12 O1 98_665 160_655 42.013(12)
Mn12 Li12 Mn12 51_656 147_555 180.0(5)
Mn12 Li12 Mn12 51_656 100_555 120.00000(14)
Mn12 Li12 Mn12 51_656 148_566 60.00000(14)
Mn12 Li12 O1 51_656 50_555 137.987(12)
Mn12 Li12 O1 51_656 147_555 94.349(12)
Mn12 Li12 O1 51_656 100_555 137.987(12)
Mn12 Li12 O1 51_656 109_556 42.013(12)
Mn12 Li12 O1 51_656 63_565 85.651(12)
Mn12 Li12 O1 51_656 160_655 42.013(12)
Mn12 Li12 Mn12 147_555 100_555 60.00000(14)
Mn12 Li12 Mn12 147_555 148_566 120.00000(14)
Mn12 Li12 O1 147_555 50_555 42.013(12)
Mn12 Li12 O1 147_555 147_555 85.651(12)
Mn12 Li12 O1 147_555 100_555 42.013(12)
Mn12 Li12 O1 147_555 109_556 137.987(12)
Mn12 Li12 O1 147_555 63_565 94.349(12)
Mn12 Li12 O1 147_555 160_655 137.987(12)
Mn12 Li12 Mn12 100_555 148_566 180.0(5)
Mn12 Li12 O1 100_555 50_555 42.013(12)
Mn12 Li12 O1 100_555 147_555 42.013(12)
Mn12 Li12 O1 100_555 100_555 85.651(12)
Mn12 Li12 O1 100_555 109_556 137.987(12)
Mn12 Li12 O1 100_555 63_565 137.987(12)
Mn12 Li12 O1 100_555 160_655 94.349(12)
Mn12 Li12 O1 148_566 50_555 137.987(12)
Mn12 Li12 O1 148_566 147_555 137.987(12)
Mn12 Li12 O1 148_566 100_555 94.349(12)
Mn12 Li12 O1 148_566 109_556 42.013(12)
Mn12 Li12 O1 148_566 63_565 42.013(12)
Mn12 Li12 O1 148_566 160_655 85.651(12)
O1 Li12 O1 50_555 147_555 83.695(17)
O1 Li12 O1 50_555 100_555 83.695(17)
O1 Li12 O1 50_555 109_556 180.0(5)
O1 Li12 O1 50_555 63_565 96.305(17)
O1 Li12 O1 50_555 160_655 96.305(17)
O1 Li12 O1 147_555 100_555 83.695(17)
O1 Li12 O1 147_555 109_556 96.305(17)
O1 Li12 O1 147_555 63_565 180.0(5)
O1 Li12 O1 147_555 160_655 96.305(17)
O1 Li12 O1 100_555 109_556 96.305(17)
O1 Li12 O1 100_555 63_565 96.305(17)
O1 Li12 O1 100_555 160_655 180.0(5)
O1 Li12 O1 109_556 63_565 83.695(17)
O1 Li12 O1 109_556 160_655 83.695(17)
O1 Li12 O1 63_565 160_655 83.695(17)
Li12 Ti12 Li12 . 50_555 0
Li12 Ti12 Li12 . 98_665 0
Li12 Ti12 Li12 . 51_656 0
Li12 Ti12 Li12 . 147_555 0
Li12 Ti12 Li12 . 100_555 0
Li12 Ti12 Li12 . 148_566 0
Li12 Ti12 Ti12 . 50_555 0
Li12 Ti12 Ti12 . 98_665 0
Li12 Ti12 Ti12 . 51_656 0
Li12 Ti12 Ti12 . 147_555 0
Li12 Ti12 Ti12 . 100_555 0
Li12 Ti12 Ti12 . 148_566 0
Li12 Ti12 Mn12 . . 0
Li12 Ti12 Mn12 . 50_555 0
Li12 Ti12 Mn12 . 98_665 0
Li12 Ti12 Mn12 . 51_656 0
Li12 Ti12 Mn12 . 147_555 0
Li12 Ti12 Mn12 . 100_555 0
Li12 Ti12 Mn12 . 148_566 0
Li12 Ti12 O1 . 50_555 0
Li12 Ti12 O1 . 147_555 0
Li12 Ti12 O1 . 100_555 0
Li12 Ti12 O1 . 109_556 0
Li12 Ti12 O1 . 63_565 0
Li12 Ti12 O1 . 160_655 0
Li12 Ti12 Li12 50_555 98_665 180.0(5)
Li12 Ti12 Li12 50_555 51_656 120.00000(14)
Li12 Ti12 Li12 50_555 147_555 60.00000(14)
Li12 Ti12 Li12 50_555 100_555 60.00000(14)
Li12 Ti12 Li12 50_555 148_566 120.00000(14)
Li12 Ti12 Ti12 50_555 50_555 0.0(5)
Li12 Ti12 Ti12 50_555 98_665 180.0(5)
Li12 Ti12 Ti12 50_555 51_656 120.00000(14)
Li12 Ti12 Ti12 50_555 147_555 60.00000(14)
Li12 Ti12 Ti12 50_555 100_555 60.00000(14)
Li12 Ti12 Ti12 50_555 148_566 120.00000(14)
Li12 Ti12 Mn12 50_555 . 0
Li12 Ti12 Mn12 50_555 50_555 0.0(5)
Li12 Ti12 Mn12 50_555 98_665 180.0(5)
Li12 Ti12 Mn12 50_555 51_656 120.00000(14)
Li12 Ti12 Mn12 50_555 147_555 60.00000(14)
Li12 Ti12 Mn12 50_555 100_555 60.00000(14)
Li12 Ti12 Mn12 50_555 148_566 120.00000(14)
Li12 Ti12 O1 50_555 50_555 85.651(12)
Li12 Ti12 O1 50_555 147_555 42.013(12)
Li12 Ti12 O1 50_555 100_555 42.013(12)
Li12 Ti12 O1 50_555 109_556 94.349(12)
Li12 Ti12 O1 50_555 63_565 137.987(12)
Li12 Ti12 O1 50_555 160_655 137.987(12)
Li12 Ti12 Li12 98_665 51_656 60.00000(14)
Li12 Ti12 Li12 98_665 147_555 120.00000(14)
Li12 Ti12 Li12 98_665 100_555 120.00000(14)
Li12 Ti12 Li12 98_665 148_566 60.00000(14)
Li12 Ti12 Ti12 98_665 50_555 180.0(5)
Li12 Ti12 Ti12 98_665 98_665 0.0(5)
Li12 Ti12 Ti12 98_665 51_656 60.00000(14)
Li12 Ti12 Ti12 98_665 147_555 120.00000(14)
Li12 Ti12 Ti12 98_665 100_555 120.00000(14)
Li12 Ti12 Ti12 98_665 148_566 60.00000(14)
Li12 Ti12 Mn12 98_665 . 0
Li12 Ti12 Mn12 98_665 50_555 180.0(5)
Li12 Ti12 Mn12 98_665 98_665 0.0(5)
Li12 Ti12 Mn12 98_665 51_656 60.00000(14)
Li12 Ti12 Mn12 98_665 147_555 120.00000(14)
Li12 Ti12 Mn12 98_665 100_555 120.00000(14)
Li12 Ti12 Mn12 98_665 148_566 60.00000(14)
Li12 Ti12 O1 98_665 50_555 94.349(12)
Li12 Ti12 O1 98_665 147_555 137.987(12)
Li12 Ti12 O1 98_665 100_555 137.987(12)
Li12 Ti12 O1 98_665 109_556 85.651(12)
Li12 Ti12 O1 98_665 63_565 42.013(12)
Li12 Ti12 O1 98_665 160_655 42.013(12)
Li12 Ti12 Li12 51_656 147_555 180.0(5)
Li12 Ti12 Li12 51_656 100_555 120.00000(14)
Li12 Ti12 Li12 51_656 148_566 60.00000(14)
Li12 Ti12 Ti12 51_656 50_555 120.00000(14)
Li12 Ti12 Ti12 51_656 98_665 60.00000(14)
Li12 Ti12 Ti12 51_656 51_656 0.0(5)
Li12 Ti12 Ti12 51_656 147_555 180.0(5)
Li12 Ti12 Ti12 51_656 100_555 120.00000(14)
Li12 Ti12 Ti12 51_656 148_566 60.00000(14)
Li12 Ti12 Mn12 51_656 . 0
Li12 Ti12 Mn12 51_656 50_555 120.00000(14)
Li12 Ti12 Mn12 51_656 98_665 60.00000(14)
Li12 Ti12 Mn12 51_656 51_656 0.0(5)
Li12 Ti12 Mn12 51_656 147_555 180.0(5)
Li12 Ti12 Mn12 51_656 100_555 120.00000(14)
Li12 Ti12 Mn12 51_656 148_566 60.00000(14)
Li12 Ti12 O1 51_656 50_555 137.987(12)
Li12 Ti12 O1 51_656 147_555 94.349(12)
Li12 Ti12 O1 51_656 100_555 137.987(12)
Li12 Ti12 O1 51_656 109_556 42.013(12)
Li12 Ti12 O1 51_656 63_565 85.651(12)
Li12 Ti12 O1 51_656 160_655 42.013(12)
Li12 Ti12 Li12 147_555 100_555 60.00000(14)
Li12 Ti12 Li12 147_555 148_566 120.00000(14)
Li12 Ti12 Ti12 147_555 50_555 60.00000(14)
Li12 Ti12 Ti12 147_555 98_665 120.00000(14)
Li12 Ti12 Ti12 147_555 51_656 180.0(5)
Li12 Ti12 Ti12 147_555 147_555 0.0(5)
Li12 Ti12 Ti12 147_555 100_555 60.00000(14)
Li12 Ti12 Ti12 147_555 148_566 120.00000(14)
Li12 Ti12 Mn12 147_555 . 0
Li12 Ti12 Mn12 147_555 50_555 60.00000(14)
Li12 Ti12 Mn12 147_555 98_665 120.00000(14)
Li12 Ti12 Mn12 147_555 51_656 180.0(5)
Li12 Ti12 Mn12 147_555 147_555 0.0(5)
Li12 Ti12 Mn12 147_555 100_555 60.00000(14)
Li12 Ti12 Mn12 147_555 148_566 120.00000(14)
Li12 Ti12 O1 147_555 50_555 42.013(12)
Li12 Ti12 O1 147_555 147_555 85.651(12)
Li12 Ti12 O1 147_555 100_555 42.013(12)
Li12 Ti12 O1 147_555 109_556 137.987(12)
Li12 Ti12 O1 147_555 63_565 94.349(12)
Li12 Ti12 O1 147_555 160_655 137.987(12)
Li12 Ti12 Li12 100_555 148_566 180.0(5)
Li12 Ti12 Ti12 100_555 50_555 60.00000(14)
Li12 Ti12 Ti12 100_555 98_665 120.00000(14)
Li12 Ti12 Ti12 100_555 51_656 120.00000(14)
Li12 Ti12 Ti12 100_555 147_555 60.00000(14)
Li12 Ti12 Ti12 100_555 100_555 0.0(5)
Li12 Ti12 Ti12 100_555 148_566 180.0(5)
Li12 Ti12 Mn12 100_555 . 0
Li12 Ti12 Mn12 100_555 50_555 60.00000(14)
Li12 Ti12 Mn12 100_555 98_665 120.00000(14)
Li12 Ti12 Mn12 100_555 51_656 120.00000(14)
Li12 Ti12 Mn12 100_555 147_555 60.00000(14)
Li12 Ti12 Mn12 100_555 100_555 0.0(5)
Li12 Ti12 Mn12 100_555 148_566 180.0(5)
Li12 Ti12 O1 100_555 50_555 42.013(12)
Li12 Ti12 O1 100_555 147_555 42.013(12)
Li12 Ti12 O1 100_555 100_555 85.651(12)
Li12 Ti12 O1 100_555 109_556 137.987(12)
Li12 Ti12 O1 100_555 63_565 137.987(12)
Li12 Ti12 O1 100_555 160_655 94.349(12)
Li12 Ti12 Ti12 148_566 50_555 120.00000(14)
Li12 Ti12 Ti12 148_566 98_665 60.00000(14)
Li12 Ti12 Ti12 148_566 51_656 60.00000(14)
Li12 Ti12 Ti12 148_566 147_555 120.00000(14)
Li12 Ti12 Ti12 148_566 100_555 180.0(5)
Li12 Ti12 Ti12 148_566 148_566 0.0(5)
Li12 Ti12 Mn12 148_566 . 0
Li12 Ti12 Mn12 148_566 50_555 120.00000(14)
Li12 Ti12 Mn12 148_566 98_665 60.00000(14)
Li12 Ti12 Mn12 148_566 51_656 60.00000(14)
Li12 Ti12 Mn12 148_566 147_555 120.00000(14)
Li12 Ti12 Mn12 148_566 100_555 180.0(5)
Li12 Ti12 Mn12 148_566 148_566 0.0(5)
Li12 Ti12 O1 148_566 50_555 137.987(12)
Li12 Ti12 O1 148_566 147_555 137.987(12)
Li12 Ti12 O1 148_566 100_555 94.349(12)
Li12 Ti12 O1 148_566 109_556 42.013(12)
Li12 Ti12 O1 148_566 63_565 42.013(12)
Li12 Ti12 O1 148_566 160_655 85.651(12)
Ti12 Ti12 Ti12 50_555 98_665 180.0(5)
Ti12 Ti12 Ti12 50_555 51_656 120.00000(14)
Ti12 Ti12 Ti12 50_555 147_555 60.00000(14)
Ti12 Ti12 Ti12 50_555 100_555 60.00000(14)
Ti12 Ti12 Ti12 50_555 148_566 120.00000(14)
Ti12 Ti12 Mn12 50_555 . 0
Ti12 Ti12 Mn12 50_555 50_555 0.0(5)
Ti12 Ti12 Mn12 50_555 98_665 180.0(5)
Ti12 Ti12 Mn12 50_555 51_656 120.00000(14)
Ti12 Ti12 Mn12 50_555 147_555 60.00000(14)
Ti12 Ti12 Mn12 50_555 100_555 60.00000(14)
Ti12 Ti12 Mn12 50_555 148_566 120.00000(14)
Ti12 Ti12 O1 50_555 50_555 85.651(12)
Ti12 Ti12 O1 50_555 147_555 42.013(12)
Ti12 Ti12 O1 50_555 100_555 42.013(12)
Ti12 Ti12 O1 50_555 109_556 94.349(12)
Ti12 Ti12 O1 50_555 63_565 137.987(12)
Ti12 Ti12 O1 50_555 160_655 137.987(12)
Ti12 Ti12 Ti12 98_665 51_656 60.00000(14)
Ti12 Ti12 Ti12 98_665 147_555 120.00000(14)
Ti12 Ti12 Ti12 98_665 100_555 120.00000(14)
Ti12 Ti12 Ti12 98_665 148_566 60.00000(14)
Ti12 Ti12 Mn12 98_665 . 0
Ti12 Ti12 Mn12 98_665 50_555 180.0(5)
Ti12 Ti12 Mn12 98_665 98_665 0.0(5)
Ti12 Ti12 Mn12 98_665 51_656 60.00000(14)
Ti12 Ti12 Mn12 98_665 147_555 120.00000(14)
Ti12 Ti12 Mn12 98_665 100_555 120.00000(14)
Ti12 Ti12 Mn12 98_665 148_566 60.00000(14)
Ti12 Ti12 O1 98_665 50_555 94.349(12)
Ti12 Ti12 O1 98_665 147_555 137.987(12)
Ti12 Ti12 O1 98_665 100_555 137.987(12)
Ti12 Ti12 O1 98_665 109_556 85.651(12)
Ti12 Ti12 O1 98_665 63_565 42.013(12)
Ti12 Ti12 O1 98_665 160_655 42.013(12)
Ti12 Ti12 Ti12 51_656 147_555 180.0(5)
Ti12 Ti12 Ti12 51_656 100_555 120.00000(14)
Ti12 Ti12 Ti12 51_656 148_566 60.00000(14)
Ti12 Ti12 Mn12 51_656 . 0
Ti12 Ti12 Mn12 51_656 50_555 120.00000(14)
Ti12 Ti12 Mn12 51_656 98_665 60.00000(14)
Ti12 Ti12 Mn12 51_656 51_656 0.0(5)
Ti12 Ti12 Mn12 51_656 147_555 180.0(5)
Ti12 Ti12 Mn12 51_656 100_555 120.00000(14)
Ti12 Ti12 Mn12 51_656 148_566 60.00000(14)
Ti12 Ti12 O1 51_656 50_555 137.987(12)
Ti12 Ti12 O1 51_656 147_555 94.349(12)
Ti12 Ti12 O1 51_656 100_555 137.987(12)
Ti12 Ti12 O1 51_656 109_556 42.013(12)
Ti12 Ti12 O1 51_656 63_565 85.651(12)
Ti12 Ti12 O1 51_656 160_655 42.013(12)
Ti12 Ti12 Ti12 147_555 100_555 60.00000(14)
Ti12 Ti12 Ti12 147_555 148_566 120.00000(14)
Ti12 Ti12 Mn12 147_555 . 0
Ti12 Ti12 Mn12 147_555 50_555 60.00000(14)
Ti12 Ti12 Mn12 147_555 98_665 120.00000(14)
Ti12 Ti12 Mn12 147_555 51_656 180.0(5)
Ti12 Ti12 Mn12 147_555 147_555 0.0(5)
Ti12 Ti12 Mn12 147_555 100_555 60.00000(14)
Ti12 Ti12 Mn12 147_555 148_566 120.00000(14)
Ti12 Ti12 O1 147_555 50_555 42.013(12)
Ti12 Ti12 O1 147_555 147_555 85.651(12)
Ti12 Ti12 O1 147_555 100_555 42.013(12)
Ti12 Ti12 O1 147_555 109_556 137.987(12)
Ti12 Ti12 O1 147_555 63_565 94.349(12)
Ti12 Ti12 O1 147_555 160_655 137.987(12)
Ti12 Ti12 Ti12 100_555 148_566 180.0(5)
Ti12 Ti12 Mn12 100_555 . 0
Ti12 Ti12 Mn12 100_555 50_555 60.00000(14)
Ti12 Ti12 Mn12 100_555 98_665 120.00000(14)
Ti12 Ti12 Mn12 100_555 51_656 120.00000(14)
Ti12 Ti12 Mn12 100_555 147_555 60.00000(14)
Ti12 Ti12 Mn12 100_555 100_555 0.0(5)
Ti12 Ti12 Mn12 100_555 148_566 180.0(5)
Ti12 Ti12 O1 100_555 50_555 42.013(12)
Ti12 Ti12 O1 100_555 147_555 42.013(12)
Ti12 Ti12 O1 100_555 100_555 85.651(12)
Ti12 Ti12 O1 100_555 109_556 137.987(12)
Ti12 Ti12 O1 100_555 63_565 137.987(12)
Ti12 Ti12 O1 100_555 160_655 94.349(12)
Ti12 Ti12 Mn12 148_566 . 0
Ti12 Ti12 Mn12 148_566 50_555 120.00000(14)
Ti12 Ti12 Mn12 148_566 98_665 60.00000(14)
Ti12 Ti12 Mn12 148_566 51_656 60.00000(14)
Ti12 Ti12 Mn12 148_566 147_555 120.00000(14)
Ti12 Ti12 Mn12 148_566 100_555 180.0(5)
Ti12 Ti12 Mn12 148_566 148_566 0.0(5)
Ti12 Ti12 O1 148_566 50_555 137.987(12)
Ti12 Ti12 O1 148_566 147_555 137.987(12)
Ti12 Ti12 O1 148_566 100_555 94.349(12)
Ti12 Ti12 O1 148_566 109_556 42.013(12)
Ti12 Ti12 O1 148_566 63_565 42.013(12)
Ti12 Ti12 O1 148_566 160_655 85.651(12)
Mn12 Ti12 Mn12 . 50_555 0
Mn12 Ti12 Mn12 . 98_665 0
Mn12 Ti12 Mn12 . 51_656 0
Mn12 Ti12 Mn12 . 147_555 0
Mn12 Ti12 Mn12 . 100_555 0
Mn12 Ti12 Mn12 . 148_566 0
Mn12 Ti12 O1 . 50_555 0
Mn12 Ti12 O1 . 147_555 0
Mn12 Ti12 O1 . 100_555 0
Mn12 Ti12 O1 . 109_556 0
Mn12 Ti12 O1 . 63_565 0
Mn12 Ti12 O1 . 160_655 0
Mn12 Ti12 Mn12 50_555 98_665 180.0(5)
Mn12 Ti12 Mn12 50_555 51_656 120.00000(14)
Mn12 Ti12 Mn12 50_555 147_555 60.00000(14)
Mn12 Ti12 Mn12 50_555 100_555 60.00000(14)
Mn12 Ti12 Mn12 50_555 148_566 120.00000(14)
Mn12 Ti12 O1 50_555 50_555 85.651(12)
Mn12 Ti12 O1 50_555 147_555 42.013(12)
Mn12 Ti12 O1 50_555 100_555 42.013(12)
Mn12 Ti12 O1 50_555 109_556 94.349(12)
Mn12 Ti12 O1 50_555 63_565 137.987(12)
Mn12 Ti12 O1 50_555 160_655 137.987(12)
Mn12 Ti12 Mn12 98_665 51_656 60.00000(14)
Mn12 Ti12 Mn12 98_665 147_555 120.00000(14)
Mn12 Ti12 Mn12 98_665 100_555 120.00000(14)
Mn12 Ti12 Mn12 98_665 148_566 60.00000(14)
Mn12 Ti12 O1 98_665 50_555 94.349(12)
Mn12 Ti12 O1 98_665 147_555 137.987(12)
Mn12 Ti12 O1 98_665 100_555 137.987(12)
Mn12 Ti12 O1 98_665 109_556 85.651(12)
Mn12 Ti12 O1 98_665 63_565 42.013(12)
Mn12 Ti12 O1 98_665 160_655 42.013(12)
Mn12 Ti12 Mn12 51_656 147_555 180.0(5)
Mn12 Ti12 Mn12 51_656 100_555 120.00000(14)
Mn12 Ti12 Mn12 51_656 148_566 60.00000(14)
Mn12 Ti12 O1 51_656 50_555 137.987(12)
Mn12 Ti12 O1 51_656 147_555 94.349(12)
Mn12 Ti12 O1 51_656 100_555 137.987(12)
Mn12 Ti12 O1 51_656 109_556 42.013(12)
Mn12 Ti12 O1 51_656 63_565 85.651(12)
Mn12 Ti12 O1 51_656 160_655 42.013(12)
Mn12 Ti12 Mn12 147_555 100_555 60.00000(14)
Mn12 Ti12 Mn12 147_555 148_566 120.00000(14)
Mn12 Ti12 O1 147_555 50_555 42.013(12)
Mn12 Ti12 O1 147_555 147_555 85.651(12)
Mn12 Ti12 O1 147_555 100_555 42.013(12)
Mn12 Ti12 O1 147_555 109_556 137.987(12)
Mn12 Ti12 O1 147_555 63_565 94.349(12)
Mn12 Ti12 O1 147_555 160_655 137.987(12)
Mn12 Ti12 Mn12 100_555 148_566 180.0(5)
Mn12 Ti12 O1 100_555 50_555 42.013(12)
Mn12 Ti12 O1 100_555 147_555 42.013(12)
Mn12 Ti12 O1 100_555 100_555 85.651(12)
Mn12 Ti12 O1 100_555 109_556 137.987(12)
Mn12 Ti12 O1 100_555 63_565 137.987(12)
Mn12 Ti12 O1 100_555 160_655 94.349(12)
Mn12 Ti12 O1 148_566 50_555 137.987(12)
Mn12 Ti12 O1 148_566 147_555 137.987(12)
Mn12 Ti12 O1 148_566 100_555 94.349(12)
Mn12 Ti12 O1 148_566 109_556 42.013(12)
Mn12 Ti12 O1 148_566 63_565 42.013(12)
Mn12 Ti12 O1 148_566 160_655 85.651(12)
O1 Ti12 O1 50_555 147_555 83.695(17)
O1 Ti12 O1 50_555 100_555 83.695(17)
O1 Ti12 O1 50_555 109_556 180.0(5)
O1 Ti12 O1 50_555 63_565 96.305(17)
O1 Ti12 O1 50_555 160_655 96.305(17)
O1 Ti12 O1 147_555 100_555 83.695(17)
O1 Ti12 O1 147_555 109_556 96.305(17)
O1 Ti12 O1 147_555 63_565 180.0(5)
O1 Ti12 O1 147_555 160_655 96.305(17)
O1 Ti12 O1 100_555 109_556 96.305(17)
O1 Ti12 O1 100_555 63_565 96.305(17)
O1 Ti12 O1 100_555 160_655 180.0(5)
O1 Ti12 O1 109_556 63_565 83.695(17)
O1 Ti12 O1 109_556 160_655 83.695(17)
O1 Ti12 O1 63_565 160_655 83.695(17)
Li12 Mn12 Li12 . 50_555 0
Li12 Mn12 Li12 . 98_665 0
Li12 Mn12 Li12 . 51_656 0
Li12 Mn12 Li12 . 147_555 0
Li12 Mn12 Li12 . 100_555 0
Li12 Mn12 Li12 . 148_566 0
Li12 Mn12 Ti12 . . 0
Li12 Mn12 Ti12 . 50_555 0
Li12 Mn12 Ti12 . 98_665 0
Li12 Mn12 Ti12 . 51_656 0
Li12 Mn12 Ti12 . 147_555 0
Li12 Mn12 Ti12 . 100_555 0
Li12 Mn12 Ti12 . 148_566 0
Li12 Mn12 O1 . 50_555 0
Li12 Mn12 O1 . 147_555 0
Li12 Mn12 O1 . 100_555 0
Li12 Mn12 O1 . 109_556 0
Li12 Mn12 O1 . 63_565 0
Li12 Mn12 O1 . 160_655 0
Li12 Mn12 Li12 50_555 98_665 180.0(5)
Li12 Mn12 Li12 50_555 51_656 120.00000(14)
Li12 Mn12 Li12 50_555 147_555 60.00000(14)
Li12 Mn12 Li12 50_555 100_555 60.00000(14)
Li12 Mn12 Li12 50_555 148_566 120.00000(14)
Li12 Mn12 Ti12 50_555 . 0
Li12 Mn12 Ti12 50_555 50_555 0.0(5)
Li12 Mn12 Ti12 50_555 98_665 180.0(5)
Li12 Mn12 Ti12 50_555 51_656 120.00000(14)
Li12 Mn12 Ti12 50_555 147_555 60.00000(14)
Li12 Mn12 Ti12 50_555 100_555 60.00000(14)
Li12 Mn12 Ti12 50_555 148_566 120.00000(14)
Li12 Mn12 O1 50_555 50_555 85.651(12)
Li12 Mn12 O1 50_555 147_555 42.013(12)
Li12 Mn12 O1 50_555 100_555 42.013(12)
Li12 Mn12 O1 50_555 109_556 94.349(12)
Li12 Mn12 O1 50_555 63_565 137.987(12)
Li12 Mn12 O1 50_555 160_655 137.987(12)
Li12 Mn12 Li12 98_665 51_656 60.00000(14)
Li12 Mn12 Li12 98_665 147_555 120.00000(14)
Li12 Mn12 Li12 98_665 100_555 120.00000(14)
Li12 Mn12 Li12 98_665 148_566 60.00000(14)
Li12 Mn12 Ti12 98_665 . 0
Li12 Mn12 Ti12 98_665 50_555 180.0(5)
Li12 Mn12 Ti12 98_665 98_665 0.0(5)
Li12 Mn12 Ti12 98_665 51_656 60.00000(14)
Li12 Mn12 Ti12 98_665 147_555 120.00000(14)
Li12 Mn12 Ti12 98_665 100_555 120.00000(14)
Li12 Mn12 Ti12 98_665 148_566 60.00000(14)
Li12 Mn12 O1 98_665 50_555 94.349(12)
Li12 Mn12 O1 98_665 147_555 137.987(12)
Li12 Mn12 O1 98_665 100_555 137.987(12)
Li12 Mn12 O1 98_665 109_556 85.651(12)
Li12 Mn12 O1 98_665 63_565 42.013(12)
Li12 Mn12 O1 98_665 160_655 42.013(12)
Li12 Mn12 Li12 51_656 147_555 180.0(5)
Li12 Mn12 Li12 51_656 100_555 120.00000(14)
Li12 Mn12 Li12 51_656 148_566 60.00000(14)
Li12 Mn12 Ti12 51_656 . 0
Li12 Mn12 Ti12 51_656 50_555 120.00000(14)
Li12 Mn12 Ti12 51_656 98_665 60.00000(14)
Li12 Mn12 Ti12 51_656 51_656 0.0(5)
Li12 Mn12 Ti12 51_656 147_555 180.0(5)
Li12 Mn12 Ti12 51_656 100_555 120.00000(14)
Li12 Mn12 Ti12 51_656 148_566 60.00000(14)
Li12 Mn12 O1 51_656 50_555 137.987(12)
Li12 Mn12 O1 51_656 147_555 94.349(12)
Li12 Mn12 O1 51_656 100_555 137.987(12)
Li12 Mn12 O1 51_656 109_556 42.013(12)
Li12 Mn12 O1 51_656 63_565 85.651(12)
Li12 Mn12 O1 51_656 160_655 42.013(12)
Li12 Mn12 Li12 147_555 100_555 60.00000(14)
Li12 Mn12 Li12 147_555 148_566 120.00000(14)
Li12 Mn12 Ti12 147_555 . 0
Li12 Mn12 Ti12 147_555 50_555 60.00000(14)
Li12 Mn12 Ti12 147_555 98_665 120.00000(14)
Li12 Mn12 Ti12 147_555 51_656 180.0(5)
Li12 Mn12 Ti12 147_555 147_555 0.0(5)
Li12 Mn12 Ti12 147_555 100_555 60.00000(14)
Li12 Mn12 Ti12 147_555 148_566 120.00000(14)
Li12 Mn12 O1 147_555 50_555 42.013(12)
Li12 Mn12 O1 147_555 147_555 85.651(12)
Li12 Mn12 O1 147_555 100_555 42.013(12)
Li12 Mn12 O1 147_555 109_556 137.987(12)
Li12 Mn12 O1 147_555 63_565 94.349(12)
Li12 Mn12 O1 147_555 160_655 137.987(12)
Li12 Mn12 Li12 100_555 148_566 180.0(5)
Li12 Mn12 Ti12 100_555 . 0
Li12 Mn12 Ti12 100_555 50_555 60.00000(14)
Li12 Mn12 Ti12 100_555 98_665 120.00000(14)
Li12 Mn12 Ti12 100_555 51_656 120.00000(14)
Li12 Mn12 Ti12 100_555 147_555 60.00000(14)
Li12 Mn12 Ti12 100_555 100_555 0.0(5)
Li12 Mn12 Ti12 100_555 148_566 180.0(5)
Li12 Mn12 O1 100_555 50_555 42.013(12)
Li12 Mn12 O1 100_555 147_555 42.013(12)
Li12 Mn12 O1 100_555 100_555 85.651(12)
Li12 Mn12 O1 100_555 109_556 137.987(12)
Li12 Mn12 O1 100_555 63_565 137.987(12)
Li12 Mn12 O1 100_555 160_655 94.349(12)
Li12 Mn12 Ti12 148_566 . 0
Li12 Mn12 Ti12 148_566 50_555 120.00000(14)
Li12 Mn12 Ti12 148_566 98_665 60.00000(14)
Li12 Mn12 Ti12 148_566 51_656 60.00000(14)
Li12 Mn12 Ti12 148_566 147_555 120.00000(14)
Li12 Mn12 Ti12 148_566 100_555 180.0(5)
Li12 Mn12 Ti12 148_566 148_566 0.0(5)
Li12 Mn12 O1 148_566 50_555 137.987(12)
Li12 Mn12 O1 148_566 147_555 137.987(12)
Li12 Mn12 O1 148_566 100_555 94.349(12)
Li12 Mn12 O1 148_566 109_556 42.013(12)
Li12 Mn12 O1 148_566 63_565 42.013(12)
Li12 Mn12 O1 148_566 160_655 85.651(12)
Ti12 Mn12 Ti12 . 50_555 0
Ti12 Mn12 Ti12 . 98_665 0
Ti12 Mn12 Ti12 . 51_656 0
Ti12 Mn12 Ti12 . 147_555 0
Ti12 Mn12 Ti12 . 100_555 0
Ti12 Mn12 Ti12 . 148_566 0
Ti12 Mn12 O1 . 50_555 0
Ti12 Mn12 O1 . 147_555 0
Ti12 Mn12 O1 . 100_555 0
Ti12 Mn12 O1 . 109_556 0
Ti12 Mn12 O1 . 63_565 0
Ti12 Mn12 O1 . 160_655 0
Ti12 Mn12 Ti12 50_555 98_665 180.0(5)
Ti12 Mn12 Ti12 50_555 51_656 120.00000(14)
Ti12 Mn12 Ti12 50_555 147_555 60.00000(14)
Ti12 Mn12 Ti12 50_555 100_555 60.00000(14)
Ti12 Mn12 Ti12 50_555 148_566 120.00000(14)
Ti12 Mn12 O1 50_555 50_555 85.651(12)
Ti12 Mn12 O1 50_555 147_555 42.013(12)
Ti12 Mn12 O1 50_555 100_555 42.013(12)
Ti12 Mn12 O1 50_555 109_556 94.349(12)
Ti12 Mn12 O1 50_555 63_565 137.987(12)
Ti12 Mn12 O1 50_555 160_655 137.987(12)
Ti12 Mn12 Ti12 98_665 51_656 60.00000(14)
Ti12 Mn12 Ti12 98_665 147_555 120.00000(14)
Ti12 Mn12 Ti12 98_665 100_555 120.00000(14)
Ti12 Mn12 Ti12 98_665 148_566 60.00000(14)
Ti12 Mn12 O1 98_665 50_555 94.349(12)
Ti12 Mn12 O1 98_665 147_555 137.987(12)
Ti12 Mn12 O1 98_665 100_555 137.987(12)
Ti12 Mn12 O1 98_665 109_556 85.651(12)
Ti12 Mn12 O1 98_665 63_565 42.013(12)
Ti12 Mn12 O1 98_665 160_655 42.013(12)
Ti12 Mn12 Ti12 51_656 147_555 180.0(5)
Ti12 Mn12 Ti12 51_656 100_555 120.00000(14)
Ti12 Mn12 Ti12 51_656 148_566 60.00000(14)
Ti12 Mn12 O1 51_656 50_555 137.987(12)
Ti12 Mn12 O1 51_656 147_555 94.349(12)
Ti12 Mn12 O1 51_656 100_555 137.987(12)
Ti12 Mn12 O1 51_656 109_556 42.013(12)
Ti12 Mn12 O1 51_656 63_565 85.651(12)
Ti12 Mn12 O1 51_656 160_655 42.013(12)
Ti12 Mn12 Ti12 147_555 100_555 60.00000(14)
Ti12 Mn12 Ti12 147_555 148_566 120.00000(14)
Ti12 Mn12 O1 147_555 50_555 42.013(12)
Ti12 Mn12 O1 147_555 147_555 85.651(12)
Ti12 Mn12 O1 147_555 100_555 42.013(12)
Ti12 Mn12 O1 147_555 109_556 137.987(12)
Ti12 Mn12 O1 147_555 63_565 94.349(12)
Ti12 Mn12 O1 147_555 160_655 137.987(12)
Ti12 Mn12 Ti12 100_555 148_566 180.0(5)
Ti12 Mn12 O1 100_555 50_555 42.013(12)
Ti12 Mn12 O1 100_555 147_555 42.013(12)
Ti12 Mn12 O1 100_555 100_555 85.651(12)
Ti12 Mn12 O1 100_555 109_556 137.987(12)
Ti12 Mn12 O1 100_555 63_565 137.987(12)
Ti12 Mn12 O1 100_555 160_655 94.349(12)
Ti12 Mn12 O1 148_566 50_555 137.987(12)
Ti12 Mn12 O1 148_566 147_555 137.987(12)
Ti12 Mn12 O1 148_566 100_555 94.349(12)
Ti12 Mn12 O1 148_566 109_556 42.013(12)
Ti12 Mn12 O1 148_566 63_565 42.013(12)
Ti12 Mn12 O1 148_566 160_655 85.651(12)
O1 Mn12 O1 50_555 147_555 83.695(17)
O1 Mn12 O1 50_555 100_555 83.695(17)
O1 Mn12 O1 50_555 109_556 180.0(5)
O1 Mn12 O1 50_555 63_565 96.305(17)
O1 Mn12 O1 50_555 160_655 96.305(17)
O1 Mn12 O1 147_555 100_555 83.695(17)
O1 Mn12 O1 147_555 109_556 96.305(17)
O1 Mn12 O1 147_555 63_565 180.0(5)
O1 Mn12 O1 147_555 160_655 96.305(17)
O1 Mn12 O1 100_555 109_556 96.305(17)
O1 Mn12 O1 100_555 63_565 96.305(17)
O1 Mn12 O1 100_555 160_655 180.0(5)
O1 Mn12 O1 109_556 63_565 83.695(17)
O1 Mn12 O1 109_556 160_655 83.695(17)
O1 Mn12 O1 63_565 160_655 83.695(17)
Li11 O1 Ti11 . . 0.0(5)
Li11 O1 Li12 . 50_555 120.91(2)
Li11 O1 Li12 . 147_555 120.91(2)
Li11 O1 Li12 . 100_555 120.91(2)
Li11 O1 Ti12 . 50_555 120.91(2)
Li11 O1 Ti12 . 147_555 120.91(2)
Li11 O1 Ti12 . 100_555 120.91(2)
Li11 O1 Mn12 . 50_555 120.91(2)
Li11 O1 Mn12 . 147_555 120.91(2)
Li11 O1 Mn12 . 100_555 120.91(2)
Li11 O1 Mn11 . . 0.0(5)
Ti11 O1 Li12 . 50_555 120.91(2)
Ti11 O1 Li12 . 147_555 120.91(2)
Ti11 O1 Li12 . 100_555 120.91(2)
Ti11 O1 Ti12 . 50_555 120.91(2)
Ti11 O1 Ti12 . 147_555 120.91(2)
Ti11 O1 Ti12 . 100_555 120.91(2)
Ti11 O1 Mn12 . 50_555 120.91(2)
Ti11 O1 Mn12 . 147_555 120.91(2)
Ti11 O1 Mn12 . 100_555 120.91(2)
Ti11 O1 Mn11 . . 0.0(5)
Li12 O1 Li12 50_555 147_555 95.973(18)
Li12 O1 Li12 50_555 100_555 95.973(18)
Li12 O1 Ti12 50_555 50_555 0.0(5)
Li12 O1 Ti12 50_555 147_555 95.973(18)
Li12 O1 Ti12 50_555 100_555 95.973(18)
Li12 O1 Mn12 50_555 50_555 0.0(5)
Li12 O1 Mn12 50_555 147_555 95.973(18)
Li12 O1 Mn12 50_555 100_555 95.973(18)
Li12 O1 Mn11 50_555 . 120.91(2)
Li12 O1 Li12 147_555 100_555 95.973(18)
Li12 O1 Ti12 147_555 50_555 95.973(18)
Li12 O1 Ti12 147_555 147_555 0.0(5)
Li12 O1 Ti12 147_555 100_555 95.973(18)
Li12 O1 Mn12 147_555 50_555 95.973(18)
Li12 O1 Mn12 147_555 147_555 0.0(5)
Li12 O1 Mn12 147_555 100_555 95.973(18)
Li12 O1 Mn11 147_555 . 120.91(2)
Li12 O1 Ti12 100_555 50_555 95.973(18)
Li12 O1 Ti12 100_555 147_555 95.973(18)
Li12 O1 Ti12 100_555 100_555 0.0(5)
Li12 O1 Mn12 100_555 50_555 95.973(18)
Li12 O1 Mn12 100_555 147_555 95.973(18)
Li12 O1 Mn12 100_555 100_555 0.0(5)
Li12 O1 Mn11 100_555 . 120.91(2)
Ti12 O1 Ti12 50_555 147_555 95.973(18)
Ti12 O1 Ti12 50_555 100_555 95.973(18)
Ti12 O1 Mn12 50_555 50_555 0.0(5)
Ti12 O1 Mn12 50_555 147_555 95.973(18)
Ti12 O1 Mn12 50_555 100_555 95.973(18)
Ti12 O1 Mn11 50_555 . 120.91(2)
Ti12 O1 Ti12 147_555 100_555 95.973(18)
Ti12 O1 Mn12 147_555 50_555 95.973(18)
Ti12 O1 Mn12 147_555 147_555 0.0(5)
Ti12 O1 Mn12 147_555 100_555 95.973(18)
Ti12 O1 Mn11 147_555 . 120.91(2)
Ti12 O1 Mn12 100_555 50_555 95.973(18)
Ti12 O1 Mn12 100_555 147_555 95.973(18)
Ti12 O1 Mn12 100_555 100_555 0.0(5)
Ti12 O1 Mn11 100_555 . 120.91(2)
Mn12 O1 Mn12 50_555 147_555 95.973(18)
Mn12 O1 Mn12 50_555 100_555 95.973(18)
Mn12 O1 Mn11 50_555 . 120.91(2)
Mn12 O1 Mn12 147_555 100_555 95.973(18)
Mn12 O1 Mn11 147_555 . 120.91(2)
Mn12 O1 Mn11 100_555 . 120.91(2)
Li11 Mn11 Ti11 . . 0
Li11 Mn11 O1 . . 0
Li11 Mn11 O1 . 98_555 0
Li11 Mn11 O1 . 51_555 0
Li11 Mn11 O1 . 148_555 0
Ti11 Mn11 O1 . . 0
Ti11 Mn11 O1 . 98_555 0
Ti11 Mn11 O1 . 51_555 0
Ti11 Mn11 O1 . 148_555 0
O1 Mn11 O1 . 98_555 109.471(17)
O1 Mn11 O1 . 51_555 109.471(17)
O1 Mn11 O1 . 148_555 109.471(17)
O1 Mn11 O1 98_555 51_555 109.471(17)
O1 Mn11 O1 98_555 148_555 109.471(17)
O1 Mn11 O1 51_555 148_555 109.471(17)
loop_
_geom_bond_atom_site_label_1
_geom_bond_atom_site_label_2
_geom_bond_site_symmetry_2
_geom_bond_distance
Li11 Ti11 . 0
Li11 O1 . 2.0013(4)
Li11 O1 98_555 2.0013(4)
Li11 O1 51_555 2.0013(4)
Li11 O1 148_555 2.0013(4)
Li11 Mn11 . 0
Ti11 O1 . 2.0013(4)
Ti11 O1 98_555 2.0013(4)
Ti11 O1 51_555 2.0013(4)
Ti11 O1 148_555 2.0013(4)
Ti11 Mn11 . 0
Li12 Li12 50_555 2.965351(15)
Li12 Li12 98_665 2.965351(15)
Li12 Li12 51_656 2.965351(15)
Li12 Li12 147_555 2.965351(15)
Li12 Li12 100_555 2.965351(15)
Li12 Li12 148_566 2.965351(15)
Li12 Ti12 . 0
Li12 Ti12 50_555 2.965351(15)
Li12 Ti12 98_665 2.965351(15)
Li12 Ti12 51_656 2.965351(15)
Li12 Ti12 147_555 2.965351(15)
Li12 Ti12 100_555 2.965351(15)
Li12 Ti12 148_566 2.965351(15)
Li12 Mn12 . 0
Li12 Mn12 50_555 2.965351(15)
Li12 Mn12 98_665 2.965351(15)
Li12 Mn12 51_656 2.965351(15)
Li12 Mn12 147_555 2.965351(15)
Li12 Mn12 100_555 2.965351(15)
Li12 Mn12 148_566 2.965351(15)
Li12 O1 50_555 1.9956(4)
Li12 O1 147_555 1.9956(4)
Li12 O1 100_555 1.9956(4)
Li12 O1 109_556 1.9956(4)
Li12 O1 63_565 1.9956(4)
Li12 O1 160_655 1.9956(4)
Ti12 Ti12 50_555 2.965351(15)
Ti12 Ti12 98_665 2.965351(15)
Ti12 Ti12 51_656 2.965351(15)
Ti12 Ti12 147_555 2.965351(15)
Ti12 Ti12 100_555 2.965351(15)
Ti12 Ti12 148_566 2.965351(15)
Ti12 Mn12 . 0
Ti12 Mn12 50_555 2.965351(15)
Ti12 Mn12 98_665 2.965351(15)
Ti12 Mn12 51_656 2.965351(15)
Ti12 Mn12 147_555 2.965351(15)
Ti12 Mn12 100_555 2.965351(15)
Ti12 Mn12 148_566 2.965351(15)
Ti12 O1 50_555 1.9956(4)
Ti12 O1 147_555 1.9956(4)
Ti12 O1 100_555 1.9956(4)
Ti12 O1 109_556 1.9956(4)
Ti12 O1 63_565 1.9956(4)
Ti12 O1 160_655 1.9956(4)
Mn12 O1 50_555 1.9956(4)
Mn12 O1 147_555 1.9956(4)
Mn12 O1 100_555 1.9956(4)
Mn12 O1 109_556 1.9956(4)
Mn12 O1 63_565 1.9956(4)
Mn12 O1 160_655 1.9956(4)
O1 Mn11 . 2.0013(4)
loop_
_pd_proc_point_id
_pd_proc_2theta_corrected
_pd_proc_intensity_net
_pd_calc_intensity_net
_pd_proc_ls_weight
13 11.8057 745.83 743.16 20.91
14 11.8557 784.74 742.76 21.47
15 11.9058 758.37 742.36 21.14
16 11.9557 746.98 741.97 21.02
17 12.0057 749.55 741.57 21.03
18 12.0557 734.74 741.17 20.82
19 12.1057 744.53 740.78 21.00
20 12.1557 743.00 740.38 21.01
21 12.2057 746.52 739.98 21.04
22 12.2557 738.06 739.58 20.88
23 12.3057 770.75 739.18 21.44
24 12.3556 702.61 738.79 20.41
25 12.4057 808.30 738.39 21.94
26 12.4557 765.72 737.99 21.35
27 12.5057 736.55 737.59 20.82
28 12.5557 724.93 737.20 20.59
29 12.6057 768.89 736.80 21.16
30 12.6557 734.43 736.40 20.86
31 12.7058 713.23 736.00 18.90
32 12.7558 724.67 735.61 19.05
33 12.8058 770.34 735.21 19.68
34 12.8558 755.77 734.93 19.43
35 12.9058 769.90 734.53 19.67
36 12.9558 766.02 734.14 19.58
37 13.0058 735.91 733.74 19.21
38 13.0557 763.75 733.34 19.56
39 13.1057 760.56 732.95 19.54
40 13.1557 797.43 732.55 20.01
41 13.2057 734.45 732.16 19.18
42 13.2557 774.18 731.76 19.68
43 13.3057 765.31 731.37 19.57
44 13.3557 776.64 730.97 19.78
45 13.4057 743.64 730.58 19.31
46 13.4557 792.39 730.18 19.93
47 13.5057 750.60 729.79 19.42
48 13.5557 736.27 729.39 19.20
49 13.6056 759.33 729.00 19.54
50 13.6557 733.42 728.60 19.18
51 13.7057 722.55 728.21 19.01
52 13.7557 733.24 727.81 19.18
53 13.8057 754.77 727.42 19.43
54 13.8557 758.37 727.03 19.51
55 13.9057 726.42 726.63 19.09
56 13.9558 731.86 726.23 19.27
57 14.0058 748.28 725.84 19.47
58 14.0558 780.45 725.45 19.92
59 14.1058 709.15 725.05 18.94
60 14.1558 736.69 724.66 19.32
61 14.2058 739.06 724.27 19.37
62 14.2557 746.20 723.87 19.46
63 14.3057 744.21 723.48 19.41
64 14.3557 706.95 723.09 18.95
65 14.4057 714.57 722.69 19.04
66 14.4557 746.04 722.30 19.47
67 14.5057 755.89 721.91 19.58
68 14.5557 748.20 721.51 19.48
69 14.6057 734.45 721.12 19.29
70 14.6557 749.02 720.73 19.49
71 14.7057 767.43 720.34 19.73
72 14.7557 738.20 719.94 19.35
73 14.8057 710.53 719.55 18.97
74 14.8556 750.45 719.16 19.54
75 14.9057 717.57 718.77 19.08
76 14.9557 746.72 718.38 19.49
77 15.0057 743.71 717.98 19.44
78 15.0557 734.59 717.59 19.30
79 15.1056 751.18 717.20 19.55
80 15.1557 744.33 716.81 19.45
81 15.2058 713.16 716.42 19.02
82 15.2558 754.58 716.03 19.58
83 15.3058 719.74 715.64 19.14
84 15.3558 692.72 715.25 18.74
85 15.4058 740.76 714.86 19.37
86 15.4558 738.33 714.47 19.36
87 15.5057 760.58 714.09 19.65
88 15.5557 783.91 713.70 19.92
89 15.6057 699.87 713.31 18.89
90 15.6557 765.47 712.92 19.71
91 15.7057 747.89 712.54 19.48
92 15.7557 712.83 712.15 19.00
93 15.8057 750.74 711.77 19.52
94 15.8557 754.72 711.38 19.58
95 15.9057 733.91 711.00 19.31
96 15.9557 750.62 710.61 19.51
97 16.0057 722.54 710.23 19.15
98 16.0557 735.96 709.85 19.32
99 16.1056 724.85 709.47 19.21
100 16.1557 709.80 709.08 18.97
101 16.2057 723.11 708.70 19.17
102 16.2557 757.62 708.32 19.61
103 16.3057 742.20 707.95 19.41
104 16.3557 735.51 707.57 19.34
105 16.4057 708.88 707.19 18.98
106 16.4558 683.22 706.82 18.83
107 16.5058 690.54 706.44 18.93
108 16.5558 711.64 706.07 19.24
109 16.6058 699.73 705.70 19.04
110 16.6558 689.93 705.33 18.91
111 16.7058 741.95 704.96 19.61
112 16.7557 734.28 704.60 19.56
113 16.8057 728.80 704.23 19.46
114 16.8557 724.34 703.87 19.41
115 16.9057 711.21 703.51 19.20
116 16.9557 704.33 703.16 19.12
117 17.0057 682.71 702.80 18.82
118 17.0556 706.54 702.44 19.16
119 17.1057 736.22 702.08 19.56
120 17.1557 713.83 701.72 19.26
121 17.2057 725.45 701.37 19.42
122 17.2556 716.24 701.02 19.27
123 17.3056 680.33 700.68 18.79
124 17.3556 706.53 700.34 19.19
125 17.4057 731.22 700.01 19.50
126 17.4556 723.34 699.69 19.40
127 17.5057 704.80 699.38 19.15
128 17.5556 732.62 699.09 19.49
129 17.6056 711.80 698.81 19.24
130 17.6557 713.74 698.54 19.26
131 17.7058 691.76 698.31 18.73
132 17.7558 719.25 698.11 19.13
133 17.8058 722.72 697.95 19.19
134 17.8558 731.95 697.84 19.27
135 17.9058 724.49 697.80 19.19
136 17.9557 730.82 697.84 19.23
137 18.0057 719.12 697.99 19.12
138 18.0557 719.36 698.27 19.10
139 18.1057 719.45 698.72 19.15
140 18.1557 740.73 699.36 19.40
141 18.2057 726.33 700.24 19.22
142 18.2557 702.02 701.40 18.87
143 18.3056 721.58 702.89 19.13
144 18.3557 747.02 704.77 19.45
145 18.4057 742.02 707.06 19.45
146 18.4557 736.18 709.82 19.35
147 18.5056 748.60 713.07 19.51
148 18.5556 748.65 716.84 19.49
149 18.6056 738.40 721.12 19.40
150 18.6557 760.38 725.89 19.65
151 18.7056 745.97 731.06 19.47
152 18.7557 729.27 736.58 19.25
153 18.8056 756.75 742.27 19.59
154 18.8556 718.96 747.99 19.16
155 18.9057 785.68 753.55 19.99
156 18.9558 764.55 758.67 19.59
157 19.0058 771.53 763.11 19.68
158 19.0558 816.97 766.60 20.26
159 19.1058 778.42 768.87 19.73
160 19.1558 822.14 769.71 20.30
161 19.2057 770.67 768.96 19.67
162 19.2557 780.24 766.58 19.79
163 19.3057 768.22 762.65 19.59
164 19.3557 783.40 757.39 19.82
165 19.4057 818.56 751.10 20.26
166 19.4557 771.58 744.15 19.68
167 19.5056 775.43 736.88 19.72
168 19.5556 734.17 729.58 19.18
169 19.6057 740.67 722.50 19.26
170 19.6557 759.07 715.85 19.52
171 19.7057 760.92 709.75 19.54
172 19.7556 710.83 704.29 18.88
173 19.8056 684.10 699.49 18.54
174 19.8556 689.00 695.33 18.61
175 19.9057 702.81 691.80 18.78
176 19.9556 740.57 688.84 19.27
177 20.0057 724.02 686.36 19.07
178 20.0556 691.61 684.32 18.64
179 20.1056 707.21 682.63 18.85
180 20.1557 708.03 681.22 18.85
181 20.2058 656.54 680.03 18.59
182 20.2558 671.09 679.01 18.80
183 20.3058 713.64 678.13 19.40
184 20.3558 672.39 677.35 18.80
185 20.4058 649.08 676.64 18.46
186 20.4557 675.90 675.99 18.85
187 20.5057 695.95 675.37 19.17
188 20.5557 681.87 674.79 18.94
189 20.6057 652.79 674.22 18.54
190 20.6557 658.04 673.68 18.61
191 20.7057 678.12 673.15 18.90
192 20.7556 682.03 672.63 18.95
193 20.8056 683.17 672.13 18.96
194 20.8556 675.54 671.63 18.86
195 20.9056 661.16 671.13 18.66
196 20.9557 673.87 670.65 18.85
197 21.0056 684.48 670.17 18.99
198 21.0556 648.87 669.69 18.45
199 21.1056 640.27 669.22 18.39
200 21.1557 662.42 668.75 18.68
201 21.2056 680.48 668.29 18.92
202 21.2557 671.79 667.83 18.81
203 21.3056 645.75 667.38 18.45
204 21.3556 680.52 666.92 18.94
205 21.4057 675.14 666.47 18.86
206 21.4557 698.49 666.03 19.26
207 21.5058 666.68 665.58 18.82
208 21.5558 674.62 665.14 18.92
209 21.6058 698.22 664.69 19.25
210 21.6557 693.07 664.25 19.16
211 21.7057 666.36 663.82 18.77
212 21.7557 672.39 663.38 18.89
213 21.8057 668.15 662.94 18.81
214 21.8557 667.89 662.51 18.85
215 21.9057 687.10 662.08 19.08
216 21.9557 674.66 661.64 18.93
217 22.0056 676.87 661.21 18.94
218 22.0556 668.61 660.78 18.80
219 22.1056 619.56 660.35 18.10
220 22.1556 646.05 659.93 18.50
221 22.2057 673.29 659.50 18.90
222 22.2556 654.56 659.07 18.63
223 22.3056 667.10 658.63 18.82
224 22.3556 623.05 658.18 18.18
225 22.4057 642.59 657.74 18.46
226 22.4556 630.66 657.29 18.29
227 22.5057 663.07 656.85 18.75
228 22.5556 649.59 656.41 18.59
229 22.6056 678.99 655.96 18.98
230 22.6556 650.34 655.52 18.57
231 22.7057 652.00 655.08 18.45
232 22.7558 665.67 654.64 18.61
233 22.8058 648.33 654.20 18.43
234 22.8557 671.81 653.76 18.67
235 22.9057 661.10 653.32 18.56
236 22.9557 653.84 652.88 18.44
237 23.0057 654.44 652.43 18.46
238 23.0557 678.49 652.00 18.78
239 23.1057 654.72 651.56 18.47
240 23.1557 670.40 651.12 18.69
241 23.2057 636.40 650.68 18.19
242 23.2556 681.00 650.24 18.86
243 23.3056 686.61 649.80 18.91
244 23.3556 654.54 649.37 18.48
245 23.4056 681.14 648.93 18.85
246 23.4556 667.49 648.49 18.69
247 23.5056 639.30 648.05 18.24
248 23.5556 638.03 647.62 18.22
249 23.6056 664.87 647.18 18.66
250 23.6557 657.99 646.74 18.50
251 23.7056 656.40 646.31 18.52
252 23.7556 649.71 645.87 18.40
253 23.8056 645.69 645.43 18.34
254 23.8556 647.71 645.00 18.35
255 23.9056 649.25 644.56 18.41
256 23.9557 647.74 644.13 19.20
257 24.0058 648.58 643.69 19.21
258 24.0558 651.84 643.25 19.37
259 24.1057 662.62 642.82 19.43
260 24.1557 683.15 642.38 19.76
261 24.2057 677.71 641.95 19.67
262 24.2557 659.18 641.51 19.43
263 24.3057 645.46 641.08 19.11
264 24.3557 651.52 640.64 19.32
265 24.4057 620.08 640.21 18.86
266 24.4557 650.88 639.77 19.30
267 24.5056 642.29 639.34 19.15
268 24.5556 642.33 638.91 19.10
269 24.6056 642.88 638.47 19.14
270 24.6556 651.38 638.04 19.29
271 24.7056 630.40 637.60 18.93
272 24.7556 650.15 637.17 19.25
273 24.8056 594.57 636.73 18.44
274 24.8556 631.83 636.30 19.03
275 24.9056 640.27 635.87 19.10
276 24.9556 671.62 635.43 19.56
277 25.0056 654.23 635.00 19.35
278 25.0556 621.61 634.56 18.82
279 25.1056 657.58 634.13 19.39
280 25.1556 611.00 633.70 18.63
281 25.2057 634.34 633.26 18.62
282 25.2558 637.16 632.83 18.77
283 25.3058 636.46 632.39 18.80
284 25.3557 632.38 631.96 18.69
285 25.4057 620.09 631.53 18.46
286 25.4557 645.81 631.09 18.82
287 25.5057 621.58 630.66 18.56
288 25.5557 648.57 630.23 18.89
289 25.6057 654.73 629.79 18.99
290 25.6557 647.68 629.36 18.90
291 25.7057 630.53 629.12 18.62
292 25.7556 618.08 628.59 18.44
293 25.8056 651.86 628.16 18.91
294 25.8556 617.94 627.73 18.46
295 25.9056 659.82 627.30 19.05
296 25.9556 652.73 626.87 19.00
297 26.0056 619.73 626.45 18.49
298 26.0556 628.95 626.02 18.60
299 26.1056 652.18 625.59 19.00
300 26.1556 627.94 625.16 18.61
301 26.2056 629.30 624.73 18.67
302 26.2556 646.27 624.31 18.85
303 26.3056 693.63 623.88 19.56
304 26.3556 617.78 623.45 18.49
305 26.4056 614.09 623.03 18.37
306 26.4556 636.68 622.60 24.85
307 26.4965 628.93 622.25 17.20
308 26.5465 652.04 621.82 17.52
309 26.5965 615.28 621.40 17.05
310 26.6465 619.36 620.97 17.07
311 26.6965 600.82 620.54 16.82
312 26.7465 620.16 620.12 17.07
313 26.7965 662.35 619.69 17.64
314 26.8464 592.65 619.27 16.70
315 26.8965 637.65 618.84 17.33
316 26.9465 613.25 618.42 17.00
317 26.9964 621.30 617.99 17.07
318 27.0464 612.88 617.57 16.98
319 27.0964 635.87 617.14 17.27
320 27.1464 607.95 616.72 16.91
321 27.1964 626.47 616.29 17.18
322 27.2464 622.96 615.87 17.15
323 27.2964 631.53 615.45 17.24
324 27.3464 646.53 615.02 17.49
325 27.3964 621.52 614.60 17.11
326 27.4464 624.96 614.18 17.14
327 27.4964 626.38 613.75 17.16
328 27.5464 607.93 613.25 16.90
329 27.5964 624.55 612.74 17.14
330 27.6464 639.56 612.23 17.38
331 27.6965 628.89 611.73 18.17
332 27.7465 596.05 611.22 17.71
333 27.7965 635.27 610.72 18.40
334 27.8465 591.51 610.21 17.70
335 27.8965 599.82 609.71 17.69
336 27.9465 593.71 609.20 17.62
337 27.9965 602.53 608.70 17.87
338 28.0465 596.31 608.20 17.70
339 28.0965 603.03 607.69 17.87
340 28.1465 620.73 607.19 18.08
341 28.1965 622.08 606.69 18.07
342 28.2464 578.38 606.19 17.49
343 28.2964 602.31 605.69 17.82
344 28.3464 605.28 605.20 17.90
345 28.3964 589.20 604.70 17.58
346 28.4464 605.61 604.20 17.93
347 28.4964 607.15 603.70 17.87
348 28.5464 586.93 603.21 17.64
349 28.5964 613.86 602.72 17.98
350 28.6464 629.01 602.22 18.13
351 28.6964 613.74 601.73 18.00
352 28.7464 612.42 601.24 17.97
353 28.7964 637.84 600.75 18.35
354 28.8464 595.71 600.26 17.68
355 28.8964 611.83 599.78 17.94
356 28.9496 615.68 599.26 14.71
357 29.0057 593.77 598.72 18.28
358 29.0557 578.96 598.24 18.07
359 29.1057 618.64 597.76 18.62
360 29.1557 573.20 597.29 17.95
361 29.2057 590.80 596.81 18.21
362 29.2557 587.90 596.34 18.17
363 29.3057 599.05 595.88 18.36
364 29.3556 632.31 595.41 18.91
365 29.4057 609.08 594.95 18.53
366 29.4556 597.04 594.49 18.33
367 29.5056 617.35 594.04 18.63
368 29.5556 584.19 593.59 18.11
369 29.6056 605.16 593.15 18.42
370 29.6556 603.72 592.71 18.43
371 29.7056 613.05 592.27 18.59
372 29.7556 594.62 591.84 18.30
373 29.8056 615.47 591.42 18.62
374 29.8555 634.07 591.01 18.90
375 29.9056 599.94 590.61 18.38
376 29.9556 612.41 590.22 18.61
377 30.0056 604.64 589.83 18.44
378 30.0556 582.41 589.46 18.11
379 30.1056 607.47 589.10 18.51
380 30.1556 599.37 588.76 18.39
381 30.2057 595.62 588.44 17.10
382 30.2557 556.80 588.14 16.50
383 30.3057 606.34 587.87 17.27
384 30.3557 599.93 587.64 17.14
385 30.4057 612.29 587.45 17.33
386 30.4557 614.53 587.31 17.36
387 30.5057 640.32 587.26 17.77
388 30.5556 606.60 587.31 17.22
389 30.6056 596.29 587.50 17.14
390 30.6557 626.02 587.88 17.54
391 30.7056 647.07 588.50 17.84
392 30.7556 653.34 589.45 17.97
393 30.8056 646.42 590.83 17.85
394 30.8556 650.24 592.73 17.91
395 30.9056 630.45 595.29 17.60
396 30.9556 652.41 598.64 17.92
397 31.0056 675.66 602.90 18.25
398 31.0556 677.66 608.21 18.23
399 31.1055 655.48 614.63 17.99
400 31.1556 691.89 622.25 18.42
401 31.2056 675.54 631.01 18.25
402 31.2556 668.46 640.79 18.13
403 31.3056 703.96 651.39 18.65
404 31.3556 733.13 662.47 19.02
405 31.4056 695.54 673.60 18.52
406 31.4551 744.38 684.13 18.67
407 31.5051 770.37 693.64 18.99
408 31.5551 769.29 704.57 19.02
409 31.6051 760.08 709.91 18.83
410 31.6551 753.17 712.25 18.78
411 31.7051 733.27 711.26 18.50
412 31.7551 778.56 706.92 19.10
413 31.8051 762.35 699.56 18.86
414 31.8550 748.47 689.80 18.73
415 31.9050 778.69 678.37 19.06
416 31.9550 771.66 666.03 18.99
417 32.0050 698.58 653.49 18.06
418 32.0550 706.26 641.28 18.14
419 32.1050 692.52 629.81 18.01
420 32.1550 649.04 619.36 17.38
421 32.2050 601.68 610.09 16.74
422 32.2550 646.95 602.07 17.39
423 32.3050 591.11 595.27 16.59
424 32.3549 609.62 589.62 16.90
425 32.4050 646.15 584.97 17.38
426 32.4550 613.06 581.22 16.94
427 32.5050 600.03 578.20 16.77
428 32.5550 579.66 575.77 16.43
429 32.6050 613.89 573.81 16.95
430 32.6550 599.32 572.21 16.74
431 32.6999 603.02 571.01 16.91
432 32.7499 544.51 569.86 16.09
433 32.7999 559.63 569.75 16.33
434 32.8499 573.78 569.75 16.47
435 32.8999 562.74 569.84 16.29
436 32.9499 571.99 569.98 16.46
437 32.9999 586.40 570.18 16.73
438 33.0498 551.09 570.42 16.15
439 33.0998 553.56 570.69 16.20
440 33.1498 576.36 570.99 16.52
441 33.1998 561.34 571.31 16.35
442 33.2498 612.33 571.66 17.07
443 33.2998 546.12 572.02 16.06
444 33.3498 560.60 595.32 16.31
445 33.3998 578.96 596.12 16.54
446 33.4498 588.16 596.96 16.71
447 33.4998 581.10 597.82 16.56
448 33.5498 593.43 598.70 16.74
449 33.5997 586.97 599.61 16.69
450 33.6498 574.46 600.55 16.50
451 33.6998 571.44 601.52 16.47
452 33.7498 566.32 602.52 16.38
453 33.7998 580.56 603.54 16.60
454 33.8497 550.02 604.59 16.12
455 33.8998 601.98 605.67 16.88
456 33.9445 596.39 606.66 16.62
457 33.9946 561.62 607.81 16.10
458 34.0445 597.71 608.98 16.65
459 34.0945 607.10 610.18 16.77
460 34.1445 602.23 611.42 16.71
461 34.1945 597.79 612.70 16.69
462 34.2445 589.44 614.02 16.53
463 34.2945 607.32 615.37 16.78
464 34.3445 604.00 616.77 16.74
465 34.3945 595.41 618.21 16.63
466 34.4444 585.21 619.69 16.49
467 34.4944 617.14 621.22 16.92
468 34.5444 612.95 622.80 16.84
469 34.5944 600.22 624.43 16.69
470 34.6444 625.15 626.12 17.05
471 34.6944 596.73 627.87 16.65
472 34.7444 622.74 629.68 17.02
473 34.7944 638.94 631.56 17.23
474 34.8444 639.72 633.51 17.26
475 34.8944 653.19 635.53 17.43
476 34.9444 642.20 637.63 17.30
477 34.9944 660.34 639.82 17.51
478 35.0444 640.28 642.09 17.23
479 35.0944 702.95 644.46 18.12
480 35.1444 688.57 646.94 17.86
481 35.1997 676.17 649.80 17.48
482 35.2498 665.14 652.53 17.32
483 35.2997 659.13 655.37 17.22
484 35.3497 721.05 658.35 17.94
485 35.3997 710.59 661.49 17.83
486 35.4497 699.68 664.79 17.70
487 35.4997 705.10 668.26 17.79
488 35.5497 671.86 671.93 17.36
489 35.5997 691.23 675.81 17.61
490 35.6497 640.54 679.92 16.97
491 35.6997 660.87 684.28 17.25
492 35.7496 646.48 688.91 17.04
493 35.7996 602.12 693.85 16.44
494 35.8496 606.96 699.15 16.51
495 35.8996 606.18 704.83 16.52
496 35.9496 598.75 710.97 16.42
497 35.9996 583.86 717.62 16.22
498 36.0496 637.16 724.90 16.96
499 36.0996 609.95 732.93 16.56
500 36.1496 647.01 741.91 17.08
501 36.1996 642.20 752.11 17.02
502 36.2496 672.46 763.90 17.44
503 36.2996 671.75 777.80 17.44
504 36.3496 695.68 794.52 17.75
505 36.3996 701.19 815.01 17.85
506 36.4557 767.24 844.02 18.45
507 36.5057 817.10 876.95 19.04
508 36.5557 839.41 918.54 19.36
509 36.6057 917.67 970.97 20.18
510 36.6557 969.36 1036.64 20.82
511 36.7056 1043.05 1117.80 21.60
512 36.7556 1111.09 1217.04 22.30
513 36.8056 1237.88 1335.98 23.48
514 36.8556 1348.08 1475.59 24.58
515 36.9056 1439.79 1635.61 25.37
516 36.9556 1588.26 1814.16 26.68
517 37.0055 1789.78 2007.07 28.28
518 37.0555 1964.22 2209.19 29.61
519 37.1056 2229.06 2412.38 31.60
520 37.1556 2412.53 2605.52 32.83
521 37.2056 2624.93 2777.17 34.22
522 37.2555 2710.75 2914.50 34.79
523 37.3055 2779.12 3006.32 35.14
524 37.3555 2844.71 3043.52 35.63
525 37.4056 2837.33 3022.52 35.54
526 37.4555 2765.56 2946.85 35.05
527 37.5056 2676.08 2825.37 34.47
528 37.5555 2483.27 2672.32 33.17
529 37.6055 2408.68 2501.15 32.71
530 37.6556 2200.55 2324.81 31.20
531 37.7057 2108.92 2154.49 32.06
532 37.7557 1774.63 1998.82 29.35
533 37.8057 1686.60 1863.25 28.66
534 37.8557 1484.69 1752.24 26.78
535 37.9057 1386.96 1668.25 25.86
536 37.9556 1271.92 1613.09 24.78
537 38.0056 1262.96 1587.99 24.77
538 38.0556 1287.56 1593.47 25.01
539 38.1056 1385.42 1633.84 26.00
540 38.1556 1567.74 1713.69 27.65
541 38.2056 1735.89 1839.82 29.19
542 38.2555 1940.74 2021.23 30.91
543 38.3055 2256.47 2270.72 33.43
544 38.3556 2589.18 2603.26 35.95
545 38.4056 3046.98 3033.67 39.21
546 38.4556 3507.18 3579.17 42.04
547 38.5055 4160.12 4253.40 45.99
548 38.5555 4693.04 5070.40 49.00
549 38.6055 5310.61 6034.04 52.19
550 38.6556 6335.37 7142.37 57.34
551 38.7055 7430.36 8371.67 62.24
552 38.7556 8751.76 9700.80 67.91
553 38.8055 10245.00 11072.00 73.88
554 38.8555 11720.30 12429.30 79.42
555 38.9056 13172.70 13693.40 84.80
556 38.9556 15201.90 14769.00 94.64
557 39.0057 16022.60 15567.00 97.53
558 39.0557 16645.40 16002.00 99.63
559 39.1057 17047.30 16022.00 101.22
560 39.1557 16608.60 15617.90 99.69
561 39.2056 16482.30 14832.60 99.29
562 39.2556 15315.40 13744.30 95.07
563 39.3056 14449.70 12454.70 92.13
564 39.3556 13181.60 11063.80 87.35
565 39.4056 11576.50 9657.24 81.18
566 39.4556 9901.31 8302.15 74.31
567 39.5055 8212.39 7048.99 67.05
568 39.5555 6884.30 5923.37 60.92
569 39.6055 5677.94 4943.95 54.84
570 39.6555 4700.78 4114.38 49.64
571 39.7056 3783.58 3427.57 44.24
572 39.7555 3003.12 2874.60 39.26
573 39.8055 2536.99 2435.22 35.98
574 39.8555 2255.43 2092.29 33.91
575 39.9056 2091.21 1827.29 32.60
576 39.9555 1999.12 1630.25 31.87
577 40.0055 1821.46 1475.06 30.35
578 40.0555 1735.47 1355.44 29.62
579 40.1055 1651.12 1262.08 28.88
580 40.1556 1525.21 1187.74 27.74
581 40.2056 1424.78 1127.49 26.01
582 40.2557 1282.78 1077.32 24.70
583 40.3057 1190.31 1034.77 23.82
584 40.3557 1093.29 997.92 22.75
585 40.4057 1008.36 965.50 21.85
586 40.4556 946.49 936.66 21.19
587 40.5056 940.37 910.66 21.12
588 40.5556 861.69 887.11 20.19
589 40.6056 815.63 865.66 19.68
590 40.6556 784.62 846.03 19.31
591 40.7056 753.73 828.00 18.90
592 40.7555 785.63 811.44 19.33
593 40.8055 769.67 796.10 19.10
594 40.8555 716.31 781.91 18.45
595 40.9055 707.89 768.73 18.32
596 40.9556 745.01 756.45 18.76
597 41.0055 742.75 745.05 18.79
598 41.0555 716.71 734.39 18.45
599 41.1055 710.10 724.41 18.35
600 41.1556 702.45 715.03 18.24
601 41.2055 677.45 706.26 17.89
602 41.2555 678.31 698.00 17.93
603 41.3055 663.24 690.22 17.77
604 41.3555 646.70 682.88 17.51
605 41.4055 666.74 675.94 17.78
606 41.4640 679.89 668.30 18.21
607 41.5140 681.96 662.14 18.24
608 41.5640 664.62 656.29 17.95
609 41.6140 682.76 650.74 18.16
610 41.6640 673.34 645.46 18.06
611 41.7139 643.65 640.45 17.67
612 41.7639 690.25 635.67 18.27
613 41.8139 705.17 631.11 18.50
614 41.8639 654.96 626.76 17.82
615 41.9139 683.35 622.60 18.21
616 41.9639 693.46 618.63 18.34
617 42.0139 705.96 614.84 18.48
618 42.0638 713.67 611.22 18.59
619 42.1138 722.17 607.75 18.72
620 42.1639 774.04 604.42 19.35
621 42.2139 748.23 601.24 19.06
622 42.2638 786.96 598.20 19.62
623 42.3138 775.38 595.29 19.45
624 42.3638 776.73 592.51 19.51
625 42.4139 812.30 589.84 19.93
626 42.4638 848.39 587.29 20.37
627 42.5139 797.07 584.86 19.74
628 42.5638 732.28 582.54 18.91
629 42.6138 760.82 580.33 19.30
630 42.6639 748.10 578.22 19.09
631 42.7164 709.60 576.12 19.17
632 42.7664 702.51 574.23 19.06
633 42.8164 740.52 572.45 19.59
634 42.8664 733.20 570.77 19.47
635 42.9164 718.92 569.20 19.28
636 42.9664 710.22 567.73 19.13
637 43.0164 678.87 566.37 18.76
638 43.0664 633.92 565.13 18.12
639 43.1163 611.41 563.99 17.77
640 43.1663 643.23 562.98 18.24
641 43.2163 631.40 562.08 18.09
642 43.2663 627.95 561.32 18.02
643 43.3163 618.84 559.19 17.89
644 43.3663 611.76 560.27 17.87
645 43.4163 628.66 561.51 18.05
646 43.4663 624.97 562.90 18.00
647 43.5163 611.38 564.46 17.85
648 43.5663 635.27 566.20 18.15
649 43.6162 616.59 568.14 17.88
650 43.6663 612.99 570.29 17.83
651 43.7163 604.42 572.67 17.72
652 43.7663 574.99 575.31 17.29
653 43.8163 605.31 578.23 17.71
654 43.8663 637.35 581.46 18.19
655 43.9163 639.34 585.03 18.18
656 43.9581 650.27 588.31 18.11
657 44.0081 636.41 592.63 17.95
658 44.0581 631.62 597.43 17.87
659 44.1081 633.44 602.80 17.86
660 44.1581 614.86 608.83 17.63
661 44.2080 611.70 615.64 17.56
662 44.2580 642.98 623.44 18.03
663 44.3080 633.60 632.48 17.89
664 44.3580 663.98 643.14 18.35
665 44.4080 666.33 658.12 18.36
666 44.4580 734.77 673.91 19.29
667 44.5079 716.66 693.70 19.04
668 44.5579 720.91 719.05 19.11
669 44.6080 798.56 752.00 20.12
670 44.6580 843.81 794.98 20.72
671 44.7080 926.14 851.23 21.74
672 44.7579 954.80 924.29 22.05
673 44.8080 1058.73 1018.76 23.23
674 44.8579 1175.74 1138.09 24.55
675 44.9080 1247.47 1287.15 25.28
676 44.9579 1392.75 1445.92 26.74
677 45.0080 1586.37 1661.35 28.57
678 45.0579 1876.44 1908.70 31.09
679 45.1079 2158.86 2185.55 33.43
680 45.1580 2437.55 2484.47 35.50
681 45.1991 2719.21 2737.70 37.65
682 45.2491 3007.04 3041.86 39.54
683 45.2991 3403.33 3323.02 42.14
684 45.3491 3630.74 3558.22 43.40
685 45.3991 3787.09 3723.88 44.37
686 45.4490 3925.90 3800.09 45.18
687 45.4990 3890.97 3776.37 44.95
688 45.5490 3932.43 3654.64 45.23
689 45.5990 3828.97 3449.89 44.53
690 45.6490 3469.86 3185.36 42.31
691 45.6990 3285.31 2886.33 41.13
692 45.7489 2942.15 2576.21 38.86
693 45.7989 2524.46 2271.79 35.93
694 45.8489 2210.77 1986.83 33.66
695 45.8990 1875.19 1729.44 30.97
696 45.9490 1627.93 1505.33 28.82
697 45.9989 1391.19 1315.80 26.63
698 46.0489 1168.88 1159.12 24.38
699 46.0989 1068.30 1032.94 23.35
700 46.1490 903.68 933.27 21.48
701 46.1989 822.42 856.35 20.46
702 46.2490 717.32 797.27 19.09
703 46.2989 714.25 752.59 19.03
704 46.3489 739.47 718.62 19.38
705 46.3990 745.87 692.65 19.53
706 46.4424 713.26 675.01 27.67
707 46.4860 647.49 660.65 18.83
708 46.5360 657.36 647.29 18.99
709 46.5860 628.63 636.38 18.55
710 46.6360 689.52 627.27 19.40
711 46.6860 649.84 619.53 18.83
712 46.7359 645.96 612.87 18.80
713 46.7860 567.79 607.03 17.61
714 46.8359 608.31 601.92 18.29
715 46.8859 577.51 597.39 17.82
716 46.9359 584.80 593.37 17.88
717 46.9859 599.39 589.80 18.09
718 47.0359 587.72 586.63 17.89
719 47.0859 594.19 583.81 18.01
720 47.1359 588.93 581.30 17.97
721 47.1859 557.22 579.07 17.48
722 47.2359 545.83 577.11 17.28
723 47.2859 567.18 575.37 17.60
724 47.3358 559.12 573.86 17.57
725 47.3859 594.79 572.54 18.11
726 47.4359 569.71 571.40 17.68
727 47.4859 523.62 570.43 16.89
728 47.5358 557.80 569.63 17.44
729 47.5859 538.53 568.97 17.20
730 47.6359 549.07 568.46 17.37
731 47.6925 523.63 568.05 16.35
732 47.7425 511.18 567.83 16.06
733 47.7926 551.48 567.74 16.74
734 47.8425 526.58 567.78 16.42
735 47.8926 530.36 567.94 16.39
736 47.9425 554.67 568.23 16.86
737 47.9925 554.75 568.65 16.73
738 48.0425 542.42 569.21 16.57
739 48.0925 525.41 569.90 16.37
740 48.1425 551.26 570.73 16.79
741 48.1925 520.11 571.72 16.28
742 48.2424 531.46 572.86 16.48
743 48.2924 526.27 574.19 16.34
744 48.3424 537.16 575.70 16.47
745 48.3924 532.68 577.42 16.46
746 48.4424 526.02 579.37 16.36
747 48.4924 517.03 581.58 16.19
748 48.5424 554.74 583.62 16.80
749 48.5924 570.79 586.02 17.01
750 48.6424 555.92 588.85 16.85
751 48.6924 568.78 592.22 16.99
752 48.7424 553.51 596.29 16.72
753 48.7924 558.70 601.27 16.91
754 48.8424 584.45 607.51 17.28
755 48.8924 581.00 615.46 17.24
756 48.9469 615.73 626.85 14.57
757 49.0056 623.04 643.57 17.58
758 49.0556 641.15 662.84 17.85
759 49.1056 725.48 688.25 18.99
760 49.1556 711.17 721.47 18.82
761 49.2056 798.02 764.32 19.93
762 49.2556 814.32 818.58 20.13
763 49.3055 869.26 885.64 20.73
764 49.3555 989.16 966.78 22.17
765 49.4056 1053.27 1062.27 22.93
766 49.4555 1189.25 1170.47 24.42
767 49.5055 1288.28 1289.51 25.34
768 49.5555 1508.98 1414.86 27.43
769 49.6055 1611.66 1540.14 28.42
770 49.6555 1739.73 1656.92 29.51
771 49.7055 1844.29 1755.00 30.40
772 49.7555 1920.78 1823.72 30.98
773 49.8055 1911.66 1854.08 30.98
774 49.8554 1961.20 1841.44 31.41
775 49.9055 1858.34 1787.07 30.49
776 49.9555 1810.54 1698.49 30.10
777 50.0055 1685.66 1586.25 29.03
778 50.0555 1621.23 1461.50 28.42
779 50.1055 1389.59 1333.82 26.29
780 50.1555 1274.46 1210.53 25.12
781 50.2056 1148.42 1096.49 24.90
782 50.2556 1072.41 995.29 24.06
783 50.3056 960.78 908.17 22.76
784 50.3556 856.83 835.32 21.44
785 50.4056 756.74 776.01 20.17
786 50.4556 709.66 728.79 19.53
787 50.5056 676.64 691.94 19.11
788 50.5555 632.46 663.64 18.45
789 50.6055 647.11 642.01 18.72
790 50.6555 613.99 625.55 18.20
791 50.7055 608.58 612.96 18.12
792 50.7555 622.00 603.22 18.30
793 50.8055 605.07 595.53 18.06
794 50.8555 583.77 589.32 17.75
795 50.9055 614.66 584.19 18.22
796 50.9555 572.04 579.85 17.57
797 51.0055 579.50 576.11 17.67
798 51.0555 581.82 572.83 17.71
799 51.1054 591.66 569.93 17.91
800 51.1555 581.14 562.40 17.70
801 51.2055 565.66 560.15 17.48
802 51.2555 561.01 558.11 17.38
803 51.3055 554.55 556.26 17.27
804 51.3555 570.21 555.08 17.54
805 51.4055 558.37 553.55 17.36
806 51.4555 557.13 552.15 24.65
807 51.4981 541.16 551.05 17.25
808 51.5482 519.54 549.85 16.92
809 51.5982 540.65 548.76 17.25
810 51.6481 540.43 547.74 17.26
811 51.6981 554.35 546.80 17.48
812 51.7481 558.62 545.93 17.57
813 51.7981 526.07 545.12 17.02
814 51.8481 509.61 544.37 16.78
815 51.8981 522.42 543.67 17.00
816 51.9481 558.80 543.02 17.56
817 51.9981 560.57 542.41 17.56
818 52.0480 537.90 541.84 17.21
819 52.0980 540.59 541.31 17.27
820 52.1480 524.87 540.81 17.00
821 52.1980 535.47 540.34 17.18
822 52.2480 531.13 539.90 17.11
823 52.2980 550.65 539.48 17.38
824 52.3480 537.06 539.09 17.23
825 52.3980 548.48 538.72 17.40
826 52.4480 521.29 538.37 16.95
827 52.4980 528.58 538.04 17.08
828 52.5480 517.71 537.73 16.90
829 52.5980 501.84 537.44 16.65
830 52.6480 519.97 537.16 16.95
831 52.6905 526.33 536.94 24.24
832 52.7394 552.34 536.70 17.43
833 52.7894 549.39 536.46 17.41
834 52.8394 550.11 536.23 17.42
835 52.8894 531.91 536.02 17.11
836 52.9394 541.36 535.82 17.25
837 52.9894 552.71 535.63 17.44
838 53.0394 525.45 535.46 17.03
839 53.0894 540.53 535.28 17.26
840 53.1393 520.69 535.13 16.95
841 53.1893 512.24 534.97 16.80
842 53.2393 514.65 534.83 16.85
843 53.2893 536.30 534.70 17.18
844 53.3393 557.43 534.57 17.48
845 53.3893 501.92 534.46 16.63
846 53.4393 575.75 534.35 17.81
847 53.4893 547.93 534.24 17.36
848 53.5393 536.69 534.15 17.17
849 53.5893 547.70 534.06 17.35
850 53.6392 517.10 533.98 16.90
851 53.6893 513.25 533.91 16.81
852 53.7393 552.71 533.84 17.48
853 53.7893 556.97 533.83 17.53
854 53.8393 558.56 533.82 17.56
855 53.8893 583.58 533.82 17.95
856 53.9458 534.39 533.83 13.73
857 53.9984 565.88 533.84 17.12
858 54.0484 580.14 533.87 17.43
859 54.0984 539.91 533.90 16.72
860 54.1484 544.60 533.94 16.79
861 54.1983 566.54 533.99 17.11
862 54.2483 548.65 534.05 16.85
863 54.2983 568.64 534.11 17.18
864 54.3483 561.67 534.19 17.03
865 54.3983 547.51 534.28 16.87
866 54.4483 556.76 534.38 16.98
867 54.4983 561.17 534.49 17.07
868 54.5482 543.97 534.62 16.78
869 54.5982 522.56 534.76 16.44
870 54.6482 560.43 534.91 17.04
871 54.6983 555.06 535.09 16.97
872 54.7483 544.96 535.28 16.80
873 54.7982 544.11 535.49 16.84
874 54.8482 524.30 535.72 16.47
875 54.8982 529.68 535.98 16.57
876 54.9483 507.49 536.27 16.24
877 54.9983 516.01 536.58 16.38
878 55.0483 561.71 536.93 17.06
879 55.0982 538.44 537.32 16.70
880 55.1482 555.61 537.75 17.04
881 55.2007 556.45 538.26 13.67
882 55.2571 552.56 541.80 16.42
883 55.3071 548.07 542.49 16.41
884 55.3571 539.69 541.19 16.20
885 55.4071 523.67 542.10 16.00
886 55.4570 524.98 543.15 16.00
887 55.5070 551.02 544.37 16.39
888 55.5570 541.74 545.83 16.27
889 55.6070 534.99 547.61 16.18
890 55.6570 549.22 549.84 16.38
891 55.7070 559.39 552.68 16.52
892 55.7570 585.48 556.38 16.94
893 55.8070 551.90 561.23 16.39
894 55.8570 558.70 567.59 16.51
895 55.9070 587.64 575.86 16.95
896 55.9570 586.15 586.50 16.90
897 56.0069 574.07 599.87 16.77
898 56.0570 614.57 616.40 17.33
899 56.1069 647.62 636.13 17.81
900 56.1570 613.20 659.13 17.30
901 56.2070 662.92 684.88 18.02
902 56.2570 733.60 712.58 18.92
903 56.3070 777.96 740.88 19.51
904 56.3570 784.33 767.83 19.63
905 56.4070 826.59 790.96 20.14
906 56.4645 876.18 809.24 21.12
907 56.5146 855.37 815.28 20.87
908 56.5646 849.47 810.97 20.79
909 56.6146 887.89 797.05 21.22
910 56.6645 836.16 775.71 20.61
911 56.7145 837.71 749.69 20.61
912 56.7645 816.69 721.71 20.33
913 56.8145 768.82 693.90 19.70
914 56.8645 699.59 667.79 18.82
915 56.9145 659.15 644.31 18.28
916 56.9645 660.86 623.99 18.32
917 57.0144 584.60 607.00 17.18
918 57.0644 575.99 593.16 17.07
919 57.1144 580.92 582.21 17.14
920 57.1644 535.28 573.74 16.46
921 57.2145 554.47 567.31 16.71
922 57.2644 545.61 562.52 16.63
923 57.3144 547.64 558.97 16.60
924 57.3644 526.98 556.35 16.34
925 57.4145 546.87 554.41 16.64
926 57.4644 538.26 552.97 16.51
927 57.5144 537.59 551.90 16.47
928 57.5644 592.14 551.09 17.33
929 57.6144 555.80 550.48 16.79
930 57.6644 539.62 550.04 16.52
931 57.7250 535.00 549.67 16.36
932 57.7751 550.25 549.49 16.61
933 57.8251 509.55 549.41 16.00
934 57.8750 571.28 549.42 16.93
935 57.9251 538.09 549.50 16.46
936 57.9750 523.68 549.67 16.21
937 58.0250 530.54 549.90 16.33
938 58.0750 543.12 550.22 16.47
939 58.1250 540.68 550.60 16.49
940 58.1750 559.51 551.06 16.76
941 58.2250 517.54 551.59 16.08
942 58.2749 541.52 552.20 16.51
943 58.3249 534.99 552.90 16.36
944 58.3749 542.95 553.67 16.49
945 58.4249 547.44 554.54 16.59
946 58.4750 537.90 555.51 16.43
947 58.5249 574.59 556.58 16.99
948 58.5749 567.22 557.77 16.89
949 58.6249 537.28 559.08 16.42
950 58.6750 556.32 560.53 16.73
951 58.7249 554.14 562.13 16.66
952 58.7750 545.39 563.90 16.55
953 58.8249 549.52 565.86 16.61
954 58.8749 559.04 568.03 16.75
955 58.9249 562.16 570.45 16.78
956 58.9660 571.23 572.64 18.66
957 59.0161 554.16 575.60 18.40
958 59.0661 554.91 578.75 18.33
959 59.1161 561.03 582.32 18.45
960 59.1661 556.42 586.41 18.26
961 59.2160 592.64 591.11 19.04
962 59.2660 568.14 596.63 18.68
963 59.3160 579.04 603.19 18.82
964 59.3660 531.37 611.16 17.99
965 59.4160 591.60 621.08 18.99
966 59.4660 557.33 633.71 18.50
967 59.5159 603.30 650.07 19.32
968 59.5659 635.15 671.63 19.71
969 59.6159 636.65 700.18 19.77
970 59.6659 725.73 737.90 21.09
971 59.7160 730.92 787.35 21.19
972 59.7659 799.00 850.77 22.10
973 59.8159 850.36 930.81 22.93
974 59.8659 988.15 1029.06 24.65
975 59.9160 1135.99 1146.40 26.33
976 59.9659 1269.45 1281.04 27.96
977 60.0160 1500.87 1430.81 30.20
978 60.0659 1613.13 1588.40 31.37
979 60.1159 1831.48 1745.13 33.40
980 60.1659 2022.77 1887.29 35.20
981 60.2055 2130.58 1978.72 35.88
982 60.2556 2215.86 2053.60 36.89
983 60.3056 2217.10 2071.28 36.58
984 60.3555 2235.81 2028.57 36.61
985 60.4055 2171.30 1932.77 36.22
986 60.4555 2010.09 1799.15 34.72
987 60.5055 1888.88 1645.01 33.85
988 60.5555 1764.79 1485.35 32.59
989 60.6055 1511.24 1331.23 30.08
990 60.6555 1299.81 1189.97 27.92
991 60.7055 1165.26 1065.76 26.54
992 60.7554 1001.18 960.49 24.67
993 60.8054 929.96 873.67 23.80
994 60.8554 812.77 804.13 22.25
995 60.9054 745.01 749.69 21.19
996 60.9555 685.06 707.76 20.21
997 61.0054 698.59 676.01 20.52
998 61.0554 637.34 651.92 19.49
999 61.1054 604.38 633.60 19.00
1000 61.1555 602.63 619.47 19.06
1001 61.2054 601.57 608.43 19.01
1002 61.2554 593.95 599.53 18.93
1003 61.3054 624.03 592.20 19.34
1004 61.3554 633.14 586.02 19.73
1005 61.4054 597.26 580.70 18.91
1006 61.4555 584.00 578.98 18.21
1007 61.5056 554.00 574.94 17.67
1008 61.5555 562.12 571.36 17.87
1009 61.6055 613.65 568.16 18.67
1010 61.6555 579.04 565.27 18.12
1011 61.7055 567.52 562.66 17.94
1012 61.7555 561.22 560.29 17.97
1013 61.8055 589.56 557.66 18.34
1014 61.8555 603.80 555.71 18.66
1015 61.9055 551.35 553.92 17.53
1016 61.9555 564.18 552.29 17.81
1017 62.0054 545.97 550.79 17.66
1018 62.0554 572.98 549.41 18.14
1019 62.1054 537.78 548.14 17.43
1020 62.1554 542.79 546.96 17.54
1021 62.2055 592.57 545.87 18.53
1022 62.2554 533.96 544.86 17.37
1023 62.3054 505.59 543.93 16.95
1024 62.3554 557.11 543.06 17.79
1025 62.4054 513.17 542.25 17.03
1026 62.4554 518.35 541.50 17.17
1027 62.5054 559.88 540.81 17.83
1028 62.5554 529.92 540.16 17.30
1029 62.6054 549.31 539.55 17.75
1030 62.6554 531.04 538.99 17.32
1031 62.7055 536.80 538.47 17.97
1032 62.7556 516.16 537.99 17.66
1033 62.8055 529.23 537.54 17.96
1034 62.8555 537.71 537.13 18.03
1035 62.9055 507.68 536.74 17.56
1036 62.9555 506.99 536.39 17.55
1037 63.0055 517.81 536.07 17.64
1038 63.0555 534.06 535.77 17.98
1039 63.1055 526.04 535.51 17.85
1040 63.1555 498.12 535.27 17.25
1041 63.2055 524.28 535.05 17.85
1042 63.2554 533.57 534.86 18.00
1043 63.3054 548.33 534.70 18.20
1044 63.3554 489.31 534.57 17.22
1045 63.4054 502.02 534.46 17.36
1046 63.4554 519.13 534.37 17.69
1047 63.5054 569.93 534.31 18.57
1048 63.5554 541.91 534.28 18.07
1049 63.6054 506.08 534.27 17.46
1050 63.6554 539.74 534.30 18.09
1051 63.7054 490.85 534.35 17.22
1052 63.7554 549.95 534.43 18.19
1053 63.8054 515.97 534.54 17.72
1054 63.8554 523.65 534.69 17.80
1055 63.9054 487.20 534.87 17.20
1056 63.9555 491.91 535.08 16.54
1057 64.0056 543.33 535.34 17.36
1058 64.0555 511.05 535.64 16.89
1059 64.1055 522.15 535.97 17.01
1060 64.1555 544.03 536.36 17.36
1061 64.2055 521.89 536.80 17.01
1062 64.2555 521.41 537.29 17.01
1063 64.3055 540.57 538.12 17.31
1064 64.3555 529.02 539.01 17.15
1065 64.4055 542.38 539.97 17.38
1066 64.4555 534.87 541.01 17.24
1067 64.5054 544.41 542.14 17.40
1068 64.5554 543.20 543.36 17.35
1069 64.6054 551.65 544.68 17.50
1070 64.6554 516.95 546.12 16.99
1071 64.7054 516.08 547.70 16.93
1072 64.7554 513.51 549.42 16.86
1073 64.8054 529.45 551.30 17.16
1074 64.8554 538.28 553.37 17.32
1075 64.9054 524.19 555.65 17.06
1076 64.9554 516.73 558.16 16.95
1077 65.0054 519.80 560.96 17.02
1078 65.0554 525.49 564.15 17.07
1079 65.1054 529.18 567.62 17.15
1080 65.1642 533.82 572.27 13.71
1081 65.2186 537.83 577.23 16.87
1082 65.2686 572.94 582.49 17.45
1083 65.3185 552.24 588.59 17.11
1084 65.3686 541.99 595.83 16.99
1085 65.4185 564.29 601.72 17.24
1086 65.4685 555.39 612.60 17.17
1087 65.5185 598.53 626.39 17.84
1088 65.5685 571.11 644.24 17.39
1089 65.6185 605.29 667.68 17.85
1090 65.6685 651.59 698.69 18.65
1091 65.7184 660.24 739.49 18.78
1092 65.7684 724.32 792.86 19.60
1093 65.8184 754.86 861.29 20.02
1094 65.8684 890.80 947.03 21.79
1095 65.9184 987.02 1051.43 22.93
1096 65.9684 1154.26 1174.43 24.82
1097 66.0184 1288.05 1313.90 26.27
1098 66.0684 1500.54 1464.87 28.25
1099 66.1184 1629.65 1618.60 29.48
1100 66.1684 1776.79 1761.73 30.88
1101 66.2184 1827.97 1876.92 31.34
1102 66.2684 1960.81 1945.03 32.45
1103 66.3184 2014.15 1952.84 32.92
1104 66.3684 1983.79 1898.57 32.64
1105 66.4184 1866.33 1793.14 31.66
1106 66.4685 1818.94 1654.56 30.36
1107 66.5186 1627.74 1501.57 28.69
1108 66.5685 1467.10 1349.37 27.22
1109 66.6185 1304.05 1206.84 25.68
1110 66.6685 1131.90 1079.99 23.80
1111 66.7185 996.08 971.53 22.38
1112 66.7685 901.12 881.89 21.23
1113 66.8184 775.63 810.13 19.77
1114 66.8685 744.90 753.75 19.36
1115 66.9185 657.83 710.59 18.16
1116 66.9685 653.66 677.91 18.13
1117 67.0184 603.15 653.33 17.42
1118 67.0684 597.53 634.69 17.31
1119 67.1184 612.82 620.42 17.56
1120 67.1684 594.41 609.28 17.32
1121 67.2184 608.31 600.39 17.47
1122 67.2684 629.84 593.11 17.78
1123 67.3184 578.41 587.02 17.08
1124 67.3684 615.41 581.83 17.63
1125 67.4184 625.14 577.35 17.74
1126 67.4684 596.61 573.44 17.34
1127 67.5184 591.02 570.00 17.24
1128 67.5684 573.71 566.95 16.97
1129 67.6184 565.18 564.25 16.86
1130 67.6553 635.77 562.44 25.97
1131 67.7090 626.34 560.06 18.60
1132 67.7591 578.65 558.08 17.84
1133 67.8091 583.70 556.31 17.92
1134 67.8591 622.99 554.71 18.51
1135 67.9090 609.27 553.28 18.32
1136 67.9590 603.30 551.98 18.25
1137 68.0090 588.28 550.81 18.02
1138 68.0590 550.47 549.75 17.41
1139 68.1090 559.42 548.80 17.52
1140 68.1590 556.87 547.93 17.50
1141 68.2090 578.69 547.16 17.86
1142 68.2589 558.38 546.46 17.57
1143 68.3089 555.60 545.83 17.50
1144 68.3589 553.69 545.26 17.50
1145 68.4089 553.36 544.76 17.45
1146 68.4590 543.76 544.31 17.30
1147 68.5089 498.87 543.92 16.56
1148 68.5589 505.50 543.59 16.64
1149 68.6089 542.05 543.30 17.27
1150 68.6589 511.78 543.06 16.79
1151 68.7089 547.79 542.87 17.40
1152 68.7589 542.68 542.73 17.31
1153 68.8089 572.20 542.65 17.76
1154 68.8589 509.73 542.62 16.73
1155 68.9089 544.08 542.67 17.37
1156 68.9746 532.08 542.85 17.42
1157 69.0246 545.87 543.12 17.69
1158 69.0746 549.26 543.54 17.72
1159 69.1246 524.42 544.14 17.25
1160 69.1746 546.20 545.00 17.64
1161 69.2245 561.11 546.17 17.87
1162 69.2745 523.24 547.72 17.29
1163 69.3245 546.89 549.74 17.63
1164 69.3745 564.45 552.27 17.91
1165 69.4245 537.77 555.34 17.54
1166 69.4745 567.95 558.92 17.99
1167 69.5245 564.18 562.92 17.92
1168 69.5744 625.96 567.04 18.88
1169 69.6245 625.58 571.08 18.93
1170 69.6745 628.96 574.56 18.96
1171 69.7245 622.45 576.94 18.84
1172 69.7744 637.49 577.77 19.07
1173 69.8244 610.65 576.89 18.68
1174 69.8744 648.64 574.55 19.27
1175 69.9245 647.36 571.26 19.21
1176 69.9744 646.43 567.61 19.18
1177 70.0245 619.08 564.02 18.83
1178 70.0744 636.70 560.84 19.08
1179 70.1244 622.78 558.27 18.84
1180 70.1745 599.78 556.46 18.51
1181 70.2056 609.73 555.77 25.05
1182 70.2460 595.09 555.42 17.97
1183 70.2961 641.47 555.92 18.70
1184 70.3460 605.92 557.55 18.12
1185 70.3960 620.97 560.44 18.34
1186 70.4460 662.69 564.74 18.96
1187 70.4960 599.02 570.55 18.00
1188 70.5459 654.65 577.92 18.85
1189 70.5960 644.89 586.88 18.61
1190 70.6460 613.50 597.16 18.21
1191 70.6960 613.17 608.33 18.20
1192 70.7459 652.89 619.61 18.79
1193 70.7959 636.69 629.83 18.60
1194 70.8459 619.99 637.43 18.28
1195 70.8959 622.36 641.72 18.37
1196 70.9459 637.95 640.21 18.59
1197 70.9959 617.29 634.04 18.27
1198 71.0459 626.65 624.50 18.42
1199 71.0959 590.06 613.19 17.83
1200 71.1459 608.36 601.51 18.11
1201 71.1959 589.09 590.39 17.85
1202 71.2459 586.91 577.57 17.84
1203 71.2959 560.64 569.04 17.38
1204 71.3459 552.09 561.97 17.27
1205 71.3959 545.26 556.30 17.16
1206 71.4441 532.99 552.01 14.85
1207 71.4979 530.51 548.36 18.70
1208 71.5479 556.20 545.83 19.21
1209 71.5979 527.45 543.93 18.59
1210 71.6479 530.94 542.51 18.56
1211 71.6979 527.72 541.42 18.50
1212 71.7478 557.56 540.59 19.17
1213 71.7978 566.20 539.92 19.27
1214 71.8478 544.52 539.39 19.02
1215 71.8978 540.75 538.95 18.79
1216 71.9478 548.28 538.58 19.04
1217 71.9978 547.28 538.28 18.95
1218 72.0478 534.12 538.02 18.76
1219 72.0978 534.01 537.80 18.76
1220 72.1478 539.58 537.61 18.71
1221 72.1978 519.84 537.46 18.48
1222 72.2477 542.80 537.33 18.86
1223 72.2978 548.97 537.23 18.97
1224 72.3477 530.27 537.15 18.60
1225 72.3978 544.76 537.08 18.79
1226 72.4478 568.54 537.04 19.20
1227 72.4978 549.30 537.00 18.83
1228 72.5478 566.38 536.99 19.15
1229 72.5977 552.76 536.98 19.04
1230 72.6478 524.84 536.99 18.49
1231 72.6979 546.18 537.02 19.05
1232 72.7479 558.67 537.05 19.18
1233 72.7979 565.60 537.10 19.32
1234 72.8479 534.13 537.15 18.68
1235 72.8979 525.86 537.22 18.61
1236 72.9479 550.16 537.30 18.88
1237 72.9978 542.54 537.39 18.94
1238 73.0478 567.40 537.49 19.33
1239 73.0978 563.56 537.60 19.25
1240 73.1478 501.16 537.73 18.07
1241 73.1978 547.96 537.87 18.82
1242 73.2478 500.95 538.02 18.05
1243 73.2978 516.36 538.18 18.29
1244 73.3478 490.75 538.36 18.06
1245 73.3978 552.32 538.56 19.17
1246 73.4478 523.19 538.78 18.46
1247 73.4977 548.93 539.01 19.05
1248 73.5478 524.99 539.26 18.55
1249 73.5977 532.84 539.53 18.69
1250 73.6478 539.18 539.83 18.80
1251 73.6978 546.65 540.16 18.97
1252 73.7478 551.76 540.52 19.01
1253 73.7978 535.50 540.91 18.76
1254 73.8477 564.89 541.33 19.30
1255 73.8978 559.49 541.80 19.31
1256 73.9555 521.63 542.40 16.68
1257 74.0055 528.48 542.97 16.80
1258 74.0555 550.49 543.61 17.16
1259 74.1055 577.15 544.32 17.52
1260 74.1555 512.09 545.11 16.55
1261 74.2054 509.73 545.99 16.50
1262 74.2554 535.46 546.99 16.95
1263 74.3054 568.84 549.60 17.44
1264 74.3554 544.32 550.91 17.01
1265 74.4054 543.97 552.41 17.05
1266 74.4554 535.46 554.15 16.92
1267 74.5053 513.39 556.18 16.56
1268 74.5553 538.66 558.54 16.92
1269 74.6054 525.37 561.52 16.76
1270 74.6554 540.22 565.25 17.00
1271 74.7054 555.04 570.03 17.22
1272 74.7553 556.54 576.25 17.24
1273 74.8054 576.99 585.05 17.53
1274 74.8553 537.39 596.46 16.93
1275 74.9054 568.00 611.32 17.42
1276 74.9554 583.47 630.29 17.70
1277 75.0054 662.18 654.08 18.81
1278 75.0553 669.49 682.99 18.93
1279 75.1053 659.51 717.11 18.80
1280 75.1554 749.17 755.69 20.06
1281 75.2055 772.79 796.79 20.46
1282 75.2555 787.39 836.94 20.66
1283 75.3055 864.51 870.98 21.68
1284 75.3555 873.53 892.62 21.70
1285 75.4055 886.38 896.84 21.88
1286 75.4554 884.14 915.04 21.85
1287 75.5054 884.29 887.01 21.84
1288 75.5554 857.35 850.54 21.47
1289 75.6054 764.95 811.44 20.27
1290 75.6554 770.64 773.60 20.40
1291 75.7054 710.01 739.85 19.55
1292 75.7553 712.19 711.15 19.56
1293 75.8053 631.90 687.67 18.38
1294 75.8554 630.27 669.20 18.37
1295 75.9053 614.76 655.25 18.17
1296 75.9554 574.61 644.98 17.54
1297 76.0053 576.44 637.72 17.56
1298 76.0553 580.81 632.74 17.65
1299 76.1053 587.02 629.45 17.76
1300 76.1554 587.94 627.41 17.73
1301 76.2053 579.78 626.29 17.66
1302 76.2554 572.11 625.84 17.56
1303 76.3053 598.10 625.90 17.96
1304 76.3553 577.95 626.36 17.66
1305 76.4119 577.47 627.29 14.58
1306 76.4652 595.25 628.50 18.18
1307 76.5153 556.02 629.89 17.54
1308 76.5652 585.00 631.51 17.95
1309 76.6152 615.89 633.34 18.44
1310 76.6652 565.56 635.38 17.65
1311 76.7152 623.45 637.62 18.55
1312 76.7651 539.52 640.06 17.24
1313 76.8152 573.50 642.70 17.77
1314 76.8652 595.57 645.54 18.13
1315 76.9152 589.93 648.59 18.05
1316 76.9651 608.13 651.84 18.37
1317 77.0151 577.48 655.32 17.80
1318 77.0651 588.47 659.03 18.03
1319 77.1151 624.39 663.00 18.55
1320 77.1651 595.49 667.22 18.16
1321 77.2151 596.23 671.73 18.06
1322 77.2651 587.46 676.54 18.01
1323 77.3151 586.69 681.69 18.02
1324 77.3651 618.13 687.19 18.50
1325 77.4151 610.17 693.08 18.35
1326 77.4651 579.99 699.41 17.90
1327 77.5151 610.94 706.21 18.39
1328 77.5651 630.67 713.55 18.65
1329 77.6151 591.00 721.48 18.06
1330 77.6651 636.38 730.07 18.81
1331 77.7124 623.42 738.90 18.20
1332 77.7624 637.66 749.08 18.42
1333 77.8124 643.97 760.28 18.57
1334 77.8624 674.83 772.71 18.94
1335 77.9124 657.47 786.63 18.70
1336 77.9623 638.07 802.41 18.39
1337 78.0124 651.38 820.69 18.57
1338 78.0623 682.38 842.08 19.05
1339 78.1123 734.39 867.67 19.78
1340 78.1623 759.44 898.64 20.12
1341 78.2123 787.01 936.41 20.47
1342 78.2623 794.24 982.50 20.59
1343 78.3123 887.15 1038.34 21.74
1344 78.3623 1003.99 1105.02 23.12
1345 78.4123 1071.26 1182.90 23.90
1346 78.4623 1192.08 1271.16 25.30
1347 78.5123 1311.11 1367.04 26.54
1348 78.5622 1355.00 1464.64 27.03
1349 78.6123 1421.59 1555.24 27.65
1350 78.6623 1425.72 1626.90 27.65
1351 78.7123 1473.52 1671.34 28.09
1352 78.7623 1457.44 1688.64 27.95
1353 78.8123 1444.60 1688.14 27.87
1354 78.8623 1366.40 1683.40 27.03
1355 78.8996 1324.71 1684.70 35.95
1356 78.9526 1347.59 1702.77 25.65
1357 79.0026 1368.38 1745.40 25.88
1358 79.0526 1341.95 1821.26 25.68
1359 79.1026 1450.33 1940.05 26.67
1360 79.1526 1590.91 2114.49 27.98
1361 79.2026 1804.17 2361.50 29.83
1362 79.2526 2169.47 2702.80 32.87
1363 79.3026 2750.94 3164.31 37.16
1364 79.3525 3412.75 3772.75 41.59
1365 79.4025 4605.49 4557.58 48.64
1366 79.4525 5775.80 5537.46 54.88
1367 79.5025 7310.65 6718.09 62.42
1368 79.5525 9026.43 8079.08 70.25
1369 79.6025 10521.30 9558.29 76.46
1370 79.6525 11971.20 11028.40 82.34
1371 79.7025 12957.20 12279.60 86.34
1372 79.7525 13387.90 13049.60 87.97
1373 79.8025 13570.50 13129.40 88.68
1374 79.8524 13179.30 12496.50 86.93
1375 79.9025 12270.30 11322.40 83.49
1376 79.9525 11247.50 9878.83 79.26
1377 80.0025 9724.49 8384.25 72.89
1378 80.0525 8065.39 6985.90 65.59
1379 80.1025 6492.92 5757.90 58.18
1380 80.1611 4932.36 4570.63 41.75
1381 80.2169 3945.29 3687.80 45.93
1382 80.2669 3110.08 3078.47 40.59
1383 80.3169 2509.03 2611.88 36.23
1384 80.3669 1983.52 2258.78 32.08
1385 80.4168 1769.85 1992.54 30.33
1386 80.4668 1444.02 1789.44 27.26
1387 80.5168 1324.31 1632.41 26.17
1388 80.5668 1231.73 1508.31 25.25
1389 80.6168 1217.56 1407.94 25.15
1390 80.6668 1175.67 1324.95 24.61
1391 80.7168 1111.11 1255.02 23.96
1392 80.7667 1167.03 1195.35 24.55
1393 80.8167 1202.55 1143.65 25.04
1394 80.8668 1140.28 1098.49 24.33
1395 80.9168 1150.51 1058.92 24.43
1396 80.9668 1211.10 1024.00 25.03
1397 81.0167 1193.77 993.10 24.91
1398 81.0667 1185.63 965.51 24.82
1399 81.1167 1217.68 940.87 25.12
1400 81.1668 1189.92 918.71 24.88
1401 81.2168 1223.42 898.82 25.22
1402 81.2668 1237.72 880.88 25.32
1403 81.3167 1243.11 864.68 25.41
1404 81.3667 1251.04 849.95 25.50
1405 81.4219 1234.11 835.24 20.52
1406 81.4802 1283.64 821.27 25.91
1407 81.5302 1261.71 810.41 25.73
1408 81.5802 1225.82 800.49 25.32
1409 81.6301 1253.63 791.42 25.61
1410 81.6801 1198.47 783.09 25.02
1411 81.7301 1160.91 775.45 24.69
1412 81.7801 1152.47 768.43 24.51
1413 81.8301 1081.66 761.99 23.80
1414 81.8801 1109.84 756.08 24.08
1415 81.9301 1093.14 750.65 23.88
1416 81.9800 1069.27 745.68 23.61
1417 82.0300 1025.58 741.12 23.09
1418 82.0800 955.65 736.95 22.37
1419 82.1300 891.34 733.15 21.53
1420 82.1801 864.00 729.68 21.21
1421 82.2300 851.37 726.56 21.04
1422 82.2800 823.06 723.75 20.69
1423 82.3300 762.09 721.24 19.94
1424 82.3801 753.43 719.02 19.76
1425 82.4300 719.73 717.10 19.33
1426 82.4800 707.99 715.47 19.18
1427 82.5300 675.84 714.12 18.71
1428 82.5800 697.05 713.06 19.07
1429 82.6300 690.91 712.30 18.98
1430 82.6928 662.01 711.78 17.82
1431 82.7428 646.06 711.73 17.54
1432 82.7928 643.19 712.03 17.51
1433 82.8428 658.09 712.70 17.69
1434 82.8928 609.92 713.79 17.01
1435 82.9427 612.75 715.32 17.07
1436 82.9927 615.31 717.35 17.11
1437 83.0427 620.59 719.97 17.19
1438 83.0927 616.98 723.23 17.16
1439 83.1427 638.73 725.82 17.43
1440 83.1927 633.82 730.80 17.37
1441 83.2427 600.30 736.89 16.89
1442 83.2926 649.24 744.33 17.55
1443 83.3427 686.23 758.03 18.09
1444 83.3927 662.77 769.73 17.82
1445 83.4427 666.30 784.63 17.83
1446 83.4926 693.17 803.91 18.17
1447 83.5427 699.78 829.42 18.26
1448 83.5926 747.25 863.18 18.90
1449 83.6427 845.80 908.26 20.08
1450 83.6926 906.88 967.44 20.81
1451 83.7427 1054.24 1044.42 22.47
1452 83.7926 1196.75 1141.33 23.91
1453 83.8426 1374.57 1260.11 25.70
1454 83.8927 1532.87 1399.78 27.10
1455 83.9586 1736.25 1603.88 29.42
1456 84.0086 1873.68 1754.19 30.59
1457 84.0586 1970.35 1870.96 31.38
1458 84.1086 1951.01 1923.20 31.09
1459 84.1586 1960.22 1862.18 31.23
1460 84.2085 1935.31 1761.93 31.00
1461 84.2585 1763.68 1618.47 29.56
1462 84.3085 1580.45 1461.83 27.91
1463 84.3585 1412.90 1312.44 26.34
1464 84.4085 1244.79 1180.64 24.71
1465 84.4585 1083.86 1070.24 23.06
1466 84.5085 983.56 981.21 21.93
1467 84.5584 892.45 911.58 20.91
1468 84.6085 822.24 858.00 20.11
1469 84.6584 765.16 817.66 19.42
1470 84.7085 707.61 787.18 18.60
1471 84.7584 688.27 764.22 18.42
1472 84.8084 684.44 746.61 18.27
1473 84.8584 634.17 732.87 17.69
1474 84.9085 607.24 721.92 17.20
1475 84.9584 677.91 713.09 18.32
1476 85.0085 635.11 705.80 17.65
1477 85.0584 603.44 699.77 17.21
1478 85.1084 610.79 694.72 17.41
1479 85.1585 618.47 690.48 17.50
1480 85.2095 601.56 686.87 18.02
1481 85.2595 613.53 683.93 18.18
1482 85.3095 631.87 681.50 18.38
1483 85.3595 634.20 679.11 18.45
1484 85.4095 638.52 677.13 18.46
1485 85.4594 633.06 675.51 18.36
1486 85.5094 606.35 674.21 18.08
1487 85.5594 630.54 673.22 18.28
1488 85.6094 668.94 672.52 19.00
1489 85.6594 640.26 672.11 18.55
1490 85.7094 612.72 671.96 18.11
1491 85.7594 640.14 672.09 18.55
1492 85.8093 620.19 672.48 18.21
1493 85.8594 640.08 673.17 18.59
1494 85.9094 651.91 674.14 18.70
1495 85.9594 636.44 675.43 18.47
1496 86.0093 698.65 677.06 19.43
1497 86.0594 659.81 679.06 18.80
1498 86.1093 648.56 681.47 18.66
1499 86.1594 642.10 684.35 18.55
1500 86.2094 644.51 687.75 18.62
1501 86.2594 610.56 691.75 18.04
1502 86.3093 650.50 696.44 18.65
1503 86.3594 650.33 701.98 18.72
1504 86.4152 675.95 709.31 16.36
1505 86.4660 639.40 717.30 19.99
1506 86.5161 685.31 726.69 20.72
1507 86.5660 682.49 737.96 20.57
1508 86.6160 670.75 751.75 20.33
1509 86.6660 716.24 768.88 21.23
1510 86.7160 737.27 790.60 21.43
1511 86.7660 811.69 818.66 22.62
1512 86.8160 867.44 855.46 23.25
1513 86.8660 950.72 904.07 24.49
1514 86.9160 1019.18 968.24 25.25
1515 86.9659 1156.59 1051.84 26.96
1516 87.0159 1377.50 1159.09 29.47
1517 87.0659 1450.17 1292.74 30.25
1518 87.1159 1710.75 1453.09 32.95
1519 87.1659 1930.42 1635.11 34.97
1520 87.2159 2124.57 1823.76 36.59
1521 87.2659 2220.80 1989.34 37.53
1522 87.3159 2265.01 2090.40 37.84
1523 87.3659 2360.56 2093.11 38.62
1524 87.4159 2224.94 1996.37 37.50
1525 87.4659 2106.94 1832.68 36.39
1526 87.5159 1946.73 1643.79 34.92
1527 87.5659 1771.12 1460.23 33.23
1528 87.6159 1590.45 1297.79 31.48
1529 87.6660 1375.44 1161.67 29.22
1530 87.6949 1230.87 1095.39 34.64
1531 87.7357 1227.99 1015.98 27.00
1532 87.7857 1074.84 938.66 25.29
1533 87.8357 942.63 879.53 23.59
1534 87.8857 843.29 834.62 22.40
1535 87.9357 813.33 800.39 21.98
1536 87.9857 748.22 773.99 21.08
1537 88.0357 777.49 753.24 21.58
1538 88.0856 709.98 736.63 20.57
1539 88.1357 780.68 722.95 21.63
1540 88.1857 695.03 711.56 20.38
1541 88.2356 706.72 701.92 20.51
1542 88.2856 754.03 693.63 21.09
1543 88.3356 666.25 683.01 19.87
1544 88.3856 675.33 676.82 20.10
1545 88.4356 639.34 671.39 19.55
1546 88.4856 688.30 666.59 20.25
1547 88.5356 643.48 662.34 19.62
1548 88.5855 677.98 658.55 20.10
1549 88.6356 696.38 655.14 20.39
1550 88.6856 658.88 652.08 19.75
1551 88.7356 652.93 649.31 19.68
1552 88.7856 629.80 646.81 19.36
1553 88.8356 697.90 644.52 20.45
1554 88.8856 665.34 642.44 19.97
1555 88.9501 687.59 640.13 19.00
1556 89.0001 677.91 638.41 18.88
1557 89.0501 669.47 636.83 18.82
1558 89.1001 625.66 635.37 18.10
1559 89.1501 654.33 634.01 18.50
1560 89.2000 644.27 632.75 18.45
1561 89.2500 661.63 631.57 18.68
1562 89.3000 652.46 630.47 18.51
1563 89.3500 671.40 629.44 18.84
1564 89.4000 636.21 628.47 18.32
1565 89.4500 665.24 627.56 18.70
1566 89.5000 647.89 626.71 18.44
1567 89.5499 646.04 625.90 18.47
1568 89.6000 672.59 625.13 18.84
1569 89.6500 651.51 624.40 18.56
1570 89.7000 650.22 623.71 18.56
1571 89.7499 616.96 623.06 18.05
1572 89.7999 646.98 622.44 18.50
1573 89.8499 614.62 621.84 17.97
1574 89.9000 657.12 621.27 18.58
1575 89.9500 627.04 620.73 18.23
1576 90.0000 656.86 620.21 18.63
1577 90.0499 643.51 619.71 18.40
1578 90.0999 663.15 619.23 18.73
1579 90.1500 625.23 618.77 18.21
1580 90.2054 644.02 618.28 19.09
1581 90.2554 629.69 617.85 18.85
1582 90.3054 639.34 617.44 19.02
1583 90.3554 612.00 617.04 18.63
1584 90.4054 614.01 616.66 18.60
1585 90.4554 614.33 616.29 18.62
1586 90.5053 627.64 615.94 18.85
1587 90.5553 632.84 615.46 18.97
1588 90.6053 607.73 615.00 18.58
1589 90.6553 601.93 614.54 18.45
1590 90.7053 601.00 614.10 18.42
1591 90.7553 629.35 613.67 18.86
1592 90.8053 610.50 613.24 18.58
1593 90.8553 590.23 612.83 18.28
1594 90.9053 581.36 612.42 18.19
1595 90.9553 605.91 612.03 18.52
1596 91.0052 622.31 611.64 18.78
1597 91.0553 612.58 611.26 18.60
1598 91.1052 601.79 610.89 18.44
1599 91.1553 640.88 610.53 19.04
1600 91.2053 611.02 610.18 18.64
1601 91.2553 614.74 609.84 18.65
1602 91.3053 638.32 609.50 19.00
1603 91.3552 641.23 609.18 19.07
1604 91.4053 618.38 604.54 18.72
1605 91.4615 635.01 604.32 18.88
1606 91.5116 610.27 604.14 18.50
1607 91.5616 559.46 603.97 17.75
1608 91.6115 609.64 603.81 18.51
1609 91.6615 599.26 603.67 18.36
1610 91.7115 574.08 603.55 17.94
1611 91.7615 620.94 603.46 18.70
1612 91.8115 617.31 603.39 18.60
1613 91.8615 581.25 603.35 18.07
1614 91.9115 611.41 603.36 18.54
1615 91.9615 580.12 603.42 18.05
1616 92.0114 619.52 603.55 18.68
1617 92.0614 612.99 603.77 18.53
1618 92.1114 603.35 604.11 18.41
1619 92.1614 652.45 604.62 19.15
1620 92.2114 603.12 605.36 18.40
1621 92.2614 604.96 623.33 18.41
1622 92.3114 646.26 625.25 19.06
1623 92.3614 610.78 627.71 18.57
1624 92.4114 653.36 630.84 19.17
1625 92.4614 651.79 634.73 19.13
1626 92.5114 671.39 639.41 19.43
1627 92.5614 669.01 644.67 19.41
1628 92.6114 679.51 649.90 19.54
1629 92.6614 643.80 653.96 19.03
1630 92.7115 651.98 655.55 18.65
1631 92.7615 664.21 654.16 18.83
1632 92.8115 656.76 650.54 18.73
1633 92.8615 647.48 646.04 18.54
1634 92.9115 611.76 641.71 18.05
1635 92.9615 661.53 638.03 18.77
1636 93.0115 642.01 635.17 18.50
1637 93.0615 603.21 633.08 17.92
1638 93.1114 631.11 631.67 18.34
1639 93.1615 587.47 630.80 17.68
1640 93.2115 577.18 630.37 17.54
1641 93.2614 595.70 630.30 17.78
1642 93.3114 583.12 630.50 17.58
1643 93.3614 584.53 630.93 17.66
1644 93.4114 551.20 631.55 17.15
1645 93.4614 593.06 632.34 17.75
1646 93.5114 586.69 633.28 17.66
1647 93.5614 585.30 634.37 17.64
1648 93.6114 605.08 635.60 17.95
1649 93.6614 577.70 636.99 17.53
1650 93.7114 577.48 638.52 17.54
1651 93.7614 619.99 640.22 18.20
1652 93.8114 583.44 642.08 17.62
1653 93.8614 575.40 644.12 17.51
1654 93.9114 582.32 646.35 17.63
1655 93.9554 565.63 648.49 17.22
1656 94.0054 571.27 651.13 17.31
1657 94.0554 546.29 654.02 16.94
1658 94.1054 602.57 657.18 17.76
1659 94.1554 586.49 660.64 17.51
1660 94.2053 598.39 664.42 17.72
1661 94.2553 611.30 668.58 17.91
1662 94.3053 593.11 673.16 17.61
1663 94.3553 593.93 678.19 17.61
1664 94.4053 597.84 683.75 17.69
1665 94.4553 596.02 689.90 17.68
1666 94.5052 623.86 696.70 18.04
1667 94.5552 597.12 704.28 17.68
1668 94.6052 599.28 712.74 17.72
1669 94.6552 600.85 722.21 17.75
1670 94.7053 616.27 732.86 17.97
1671 94.7552 637.02 744.82 18.26
1672 94.8052 617.03 758.39 17.99
1673 94.8552 653.91 773.82 18.54
1674 94.9053 634.60 791.50 18.21
1675 94.9552 640.17 811.73 18.34
1676 95.0053 678.48 835.21 18.87
1677 95.0552 687.06 862.42 18.97
1678 95.1052 731.20 894.37 19.61
1679 95.1553 771.38 932.20 20.16
1680 95.1997 785.12 971.77 20.38
1681 95.2497 870.51 1024.93 21.49
1682 95.2997 874.79 1089.76 21.56
1683 95.3497 1081.19 1169.99 23.96
1684 95.3997 1231.20 1270.80 25.60
1685 95.4496 1406.55 1399.09 27.40
1686 95.4996 1735.38 1565.08 30.46
1687 95.5496 2190.18 1781.09 34.32
1688 95.5996 2662.81 2062.89 38.01
1689 95.6496 3187.79 2428.13 41.68
1690 95.6996 3747.35 2893.08 45.39
1691 95.7495 4321.74 3461.90 48.84
1692 95.7995 4742.58 4109.40 51.33
1693 95.8495 5049.16 4740.40 53.14
1694 95.8995 5153.14 5179.78 53.72
1695 95.9496 5079.66 5248.77 53.26
1696 95.9995 4893.54 4915.34 52.20
1697 96.0495 4497.98 4324.78 49.90
1698 96.0995 3903.80 3667.54 46.42
1699 96.1496 3488.66 3064.85 43.71
1700 96.1995 2869.83 2565.68 39.43
1701 96.2496 2350.74 2168.10 35.54
1702 96.2995 1955.59 1861.15 32.32
1703 96.3495 1621.64 1624.83 29.35
1704 96.3996 1388.35 1443.09 27.12
1705 96.4345 1219.58 1341.68 24.53
1706 96.4845 1079.82 1223.91 23.09
1707 96.5345 938.28 1130.84 21.55
1708 96.5845 919.02 1056.32 21.27
1709 96.6345 868.87 995.68 20.70
1710 96.6845 773.87 945.59 19.51
1711 96.7345 770.62 903.74 19.52
1712 96.7845 726.21 868.40 18.90
1713 96.8345 721.08 838.27 18.86
1714 96.8845 691.62 812.39 18.45
1715 96.9345 695.41 789.99 18.49
1716 96.9844 689.26 770.52 18.37
1717 97.0344 655.21 753.41 17.94
1718 97.0844 655.82 738.34 18.00
1719 97.1344 648.78 724.99 17.86
1720 97.1844 655.40 713.11 17.97
1721 97.2344 652.21 702.48 17.93
1722 97.2844 614.30 692.94 17.38
1723 97.3344 643.52 684.33 17.80
1724 97.3844 657.15 676.55 18.00
1725 97.4344 605.88 669.47 17.26
1726 97.4844 644.07 663.03 17.83
1727 97.5344 621.34 657.14 17.51
1728 97.5844 603.83 652.57 17.24
1729 97.6344 627.88 647.62 17.59
1730 97.6750 638.82 643.89 24.49
1731 97.7214 623.32 639.91 17.14
1732 97.7715 668.13 635.92 17.75
1733 97.8214 647.86 632.24 17.45
1734 97.8714 647.76 628.80 17.46
1735 97.9214 668.90 625.60 17.71
1736 97.9714 658.26 622.61 17.61
1737 98.0214 655.85 619.81 17.55
1738 98.0714 626.97 617.19 17.16
1739 98.1214 663.09 614.73 17.68
1740 98.1714 655.59 612.41 17.57
1741 98.2214 660.97 610.23 17.61
1742 98.2713 670.45 608.17 17.74
1743 98.3213 621.61 606.23 17.07
1744 98.3713 650.82 604.39 17.48
1745 98.4213 629.04 602.64 17.18
1746 98.4713 626.00 600.99 17.15
1747 98.5213 647.75 599.42 17.43
1748 98.5713 616.24 597.92 17.06
1749 98.6213 618.76 596.50 17.10
1750 98.6713 572.41 595.14 16.38
1751 98.7213 613.00 593.85 16.98
1752 98.7713 635.19 592.62 17.28
1753 98.8213 612.42 591.44 16.96
1754 98.8713 611.62 590.32 16.98
1755 98.9176 627.08 589.32 24.37
1756 98.9644 627.03 588.35 17.63
1757 99.0144 605.22 587.37 17.29
1758 99.0644 625.79 586.42 17.61
1759 99.1144 601.66 585.52 17.24
1760 99.1644 604.65 584.65 17.29
1761 99.2143 592.41 583.83 17.08
1762 99.2643 620.23 583.04 17.53
1763 99.3143 609.44 582.29 17.35
1764 99.3643 575.46 581.57 16.87
1765 99.4143 587.86 580.89 17.06
1766 99.4643 567.00 580.25 16.73
1767 99.5143 572.78 579.64 16.81
1768 99.5643 573.01 579.06 16.82
1769 99.6143 577.02 561.68 16.88
1770 99.6643 548.54 561.62 16.47
1771 99.7143 549.05 561.59 16.47
1772 99.7642 596.82 561.57 17.19
1773 99.8143 546.57 561.59 16.42
1774 99.8642 555.60 561.63 16.57
1775 99.9143 560.35 561.71 16.63
1776 99.9642 590.09 561.82 17.06
1777 100.0143 592.11 561.98 17.09
1778 100.0643 566.37 562.19 16.74
1779 100.1142 559.23 562.45 16.63
1780 100.1643 562.48 562.78 16.68
1781 100.2081 547.46 563.14 17.20
1782 100.2582 605.45 563.63 18.07
1783 100.3082 603.88 564.23 18.07
1784 100.3581 548.96 564.95 17.18
1785 100.4081 588.92 565.82 17.84
1786 100.4581 597.53 566.88 17.97
1787 100.5081 598.98 568.15 18.00
1788 100.5581 570.79 575.81 17.56
1789 100.6081 558.92 577.85 17.40
1790 100.6581 555.47 580.31 17.30
1791 100.7081 581.90 583.32 17.74
1792 100.7580 614.77 587.03 18.20
1793 100.8080 572.68 591.67 17.59
1794 100.8580 598.54 597.53 17.98
1795 100.9080 642.69 605.00 18.62
1796 100.9581 614.41 614.62 18.22
1797 101.0080 666.17 627.49 18.97
1798 101.0580 653.69 643.94 18.81
1799 101.1080 712.60 664.71 19.65
1800 101.1580 720.27 690.23 19.71
1801 101.2080 749.06 719.77 20.14
1802 101.2580 754.02 750.06 20.20
1803 101.3080 753.30 774.27 20.18
1804 101.3580 732.05 784.03 19.93
1805 101.4080 748.84 775.29 20.12
1806 101.4537 736.49 754.48 19.47
1807 101.5037 701.17 725.46 18.99
1808 101.5537 696.58 696.90 18.89
1809 101.6037 687.94 672.03 18.77
1810 101.6537 649.10 651.91 18.27
1811 101.7036 642.22 636.20 18.12
1812 101.7536 644.01 624.09 18.24
1813 101.8036 619.92 614.84 17.82
1814 101.8536 638.71 607.79 18.09
1815 101.9036 604.01 602.41 17.61
1816 101.9536 565.98 598.30 17.06
1817 102.0035 586.34 595.17 17.32
1818 102.0535 605.38 592.77 17.66
1819 102.1036 580.50 590.96 17.25
1820 102.1535 566.52 589.62 17.09
1821 102.2036 601.11 588.66 17.52
1822 102.2535 560.64 588.02 16.99
1823 102.3035 539.74 587.65 16.65
1824 102.3535 575.79 587.51 17.15
1825 102.4036 591.63 587.58 17.44
1826 102.4535 613.01 587.83 17.73
1827 102.5036 565.57 588.26 17.06
1828 102.5535 575.78 588.84 17.18
1829 102.6035 569.67 589.58 17.09
1830 102.6536 575.28 590.47 17.18
1831 102.6990 537.47 591.40 17.08
1832 102.7490 582.33 592.58 17.74
1833 102.7990 572.08 593.90 17.67
1834 102.8490 590.20 595.39 17.91
1835 102.8990 567.49 597.05 17.58
1836 102.9489 609.83 598.88 18.29
1837 102.9989 568.99 600.92 17.68
1838 103.0489 599.70 603.16 18.17
1839 103.0989 578.82 605.64 17.72
1840 103.1489 590.25 608.38 17.91
1841 103.1989 608.44 611.41 18.28
1842 103.2488 616.88 614.75 18.35
1843 103.2988 575.99 618.47 17.72
1844 103.3488 618.43 622.60 18.34
1845 103.3988 600.45 627.21 18.05
1846 103.4489 597.40 632.38 17.97
1847 103.4988 592.30 638.16 17.99
1848 103.5488 596.91 644.70 18.13
1849 103.5988 591.49 652.10 17.99
1850 103.6489 628.84 660.54 18.56
1851 103.6988 621.15 670.17 18.39
1852 103.7489 642.05 681.32 18.80
1853 103.7988 611.54 694.19 18.24
1854 103.8488 662.29 709.28 18.99
1855 103.8988 678.20 727.09 19.26
1856 103.9506 684.21 749.21 20.35
1857 104.0006 705.37 775.10 20.62
1858 104.0506 784.88 806.82 21.80
1859 104.1006 810.55 846.16 22.17
1860 104.1506 908.04 895.52 23.31
1861 104.2006 1036.39 957.89 24.99
1862 104.2506 1172.38 1037.02 26.75
1863 104.3006 1302.70 1137.20 28.05
1864 104.3505 1582.34 1262.69 31.01
1865 104.4006 1839.85 1418.12 33.44
1866 104.4506 1960.45 1603.27 34.56
1867 104.5005 2180.37 1810.98 36.54
1868 104.5505 2318.03 2020.32 37.61
1869 104.6005 2317.42 2190.27 37.64
1870 104.6505 2320.81 2271.43 37.79
1871 104.7005 2217.01 2234.79 36.80
1872 104.7505 2017.58 2094.33 35.02
1873 104.8005 1858.55 1895.52 33.57
1874 104.8504 1636.17 1684.86 31.63
1875 104.9005 1477.70 1490.01 29.96
1876 104.9505 1286.44 1324.09 27.92
1877 105.0005 1121.69 1188.33 26.08
1878 105.0505 989.66 1079.84 24.42
1879 105.1005 878.51 994.25 23.05
1880 105.1573 825.22 918.41 17.98
1881 105.2131 716.09 862.48 20.04
1882 105.2632 716.90 823.69 20.07
1883 105.3131 731.85 793.28 20.27
1884 105.3631 711.13 769.29 19.95
1885 105.4131 673.80 750.48 19.45
1886 105.4631 658.22 735.95 19.20
1887 105.5131 683.04 724.99 19.59
1888 105.5631 671.67 717.05 19.42
1889 105.6131 690.51 711.46 19.65
1890 105.6631 661.87 707.33 19.24
1891 105.7130 663.68 703.62 19.31
1892 105.7630 700.80 698.40 19.81
1893 105.8130 688.84 691.09 19.67
1894 105.8630 653.31 681.93 19.15
1895 105.9130 660.34 671.91 19.25
1896 105.9630 681.53 662.09 19.57
1897 106.0130 622.05 653.11 18.69
1898 106.0630 632.51 645.24 18.81
1899 106.1130 659.77 638.50 19.24
1900 106.1630 636.27 632.77 18.93
1901 106.2130 660.97 627.92 19.28
1902 106.2630 676.85 623.48 19.48
1903 106.3130 622.85 619.65 18.68
1904 106.3630 638.32 616.31 18.93
1905 106.4130 659.32 613.37 19.25
1906 106.4691 663.86 610.47 18.55
1907 106.5191 640.13 608.16 18.22
1908 106.5691 629.53 606.09 18.06
1909 106.6191 625.70 604.20 17.98
1910 106.6691 640.75 602.47 18.20
1911 106.7191 614.02 600.89 17.81
1912 106.7691 618.58 599.44 17.88
1913 106.8190 619.34 598.09 17.93
1914 106.8690 637.15 596.85 18.16
1915 106.9191 637.43 595.68 18.16
1916 106.9690 632.43 594.60 18.13
1917 107.0190 587.32 593.59 17.44
1918 107.0690 602.42 592.65 17.63
1919 107.1190 568.48 591.76 17.11
1920 107.1690 602.79 590.92 17.64
1921 107.2190 588.50 590.14 17.44
1922 107.2690 578.41 589.40 17.27
1923 107.3190 583.74 588.70 17.41
1924 107.3690 573.85 588.03 17.28
1925 107.4190 592.59 587.41 17.50
1926 107.4690 585.02 586.81 17.40
1927 107.5190 593.40 586.25 17.49
1928 107.5690 592.53 585.72 17.50
1929 107.6190 578.91 585.21 17.30
1930 107.6819 565.18 584.60 16.80
1931 107.7319 549.49 584.15 16.54
1932 107.7819 552.05 583.71 16.63
1933 107.8319 585.21 583.30 17.11
1934 107.8819 577.78 582.91 16.96
1935 107.9319 566.09 582.53 16.81
1936 107.9819 597.25 582.17 17.24
1937 108.0318 578.85 581.84 17.03
1938 108.0818 582.41 581.51 17.03
1939 108.1318 619.33 581.21 17.58
1940 108.1818 584.92 580.91 17.07
1941 108.2318 592.18 580.64 17.19
1942 108.2817 579.49 580.38 17.00
1943 108.3318 569.70 580.13 16.85
1944 108.3818 618.41 579.90 17.55
1945 108.4318 593.76 579.68 17.24
1946 108.4818 620.30 579.48 17.57
1947 108.5317 607.87 579.29 17.42
1948 108.5817 588.87 579.12 17.14
1949 108.6318 615.27 578.96 17.56
1950 108.6818 589.65 578.83 17.19
1951 108.7318 615.62 578.71 17.53
1952 108.7818 605.26 572.52 17.38
1953 108.8317 607.08 572.58 17.41
1954 108.8818 586.00 572.66 17.17
1955 108.9350 608.24 576.28 14.42
1956 108.9939 598.54 576.52 17.74
1957 109.0439 588.70 576.75 17.61
1958 109.0939 607.30 577.01 17.85
1959 109.1439 580.15 577.31 17.46
1960 109.1938 604.21 577.66 17.82
1961 109.2438 550.63 578.06 17.01
1962 109.2938 558.99 578.51 17.11
1963 109.3438 581.77 579.04 17.53
1964 109.3938 577.80 579.66 17.45
1965 109.4438 578.37 580.38 17.42
1966 109.4937 576.15 581.24 17.35
1967 109.5437 563.21 582.26 17.16
1968 109.5937 568.47 583.50 17.27
1969 109.6438 577.38 585.01 17.43
1970 109.6938 607.13 586.87 17.88
1971 109.7437 590.18 589.18 17.60
1972 109.7937 572.46 592.05 17.34
1973 109.8437 579.93 595.61 17.45
1974 109.8938 603.46 600.03 17.81
1975 109.9437 616.30 605.41 17.96
1976 109.9938 584.71 630.96 17.50
1977 110.0437 609.41 638.88 17.88
1978 110.0937 635.57 647.68 18.29
1979 110.1438 621.75 656.73 18.07
1980 110.1891 598.40 664.16 17.82
1981 110.2391 638.87 670.08 18.38
1982 110.2891 637.37 672.27 18.39
1983 110.3391 619.27 670.24 18.07
1984 110.3891 599.41 664.78 17.79
1985 110.4391 606.51 657.38 17.89
1986 110.4891 604.98 649.50 17.88
1987 110.5390 598.57 642.13 17.80
1988 110.5890 571.30 635.71 17.40
1989 110.6390 578.04 630.40 17.47
1990 110.6890 562.36 626.17 17.24
1991 110.7390 584.92 622.91 17.56
1992 110.7890 584.97 620.48 17.62
1993 110.8390 572.80 618.73 17.39
1994 110.8890 549.24 617.54 17.07
1995 110.9390 548.17 616.81 17.01
1996 110.9890 561.50 616.44 17.20
1997 111.0390 616.22 616.37 18.06
1998 111.0889 580.55 616.54 17.53
1999 111.1390 574.93 616.92 17.42
2000 111.1890 562.41 617.48 17.26
2001 111.2390 590.05 618.20 17.66
2002 111.2890 552.80 619.06 17.05
2003 111.3390 573.28 620.06 17.41
2004 111.3890 573.18 621.19 17.41
2005 111.4369 585.16 622.39 24.55
2006 111.4796 544.03 623.56 16.80
2007 111.5296 553.95 625.28 16.97
2008 111.5796 575.24 627.13 17.28
2009 111.6296 565.90 629.12 17.12
2010 111.6796 549.10 631.24 16.84
2011 111.7295 588.09 633.49 17.50
2012 111.7796 563.19 635.91 17.09
2013 111.8295 560.31 638.48 17.06
2014 111.8795 546.93 641.22 16.84
2015 111.9295 579.07 644.14 17.34
2016 111.9795 592.00 647.26 17.52
2017 112.0295 607.40 650.60 17.72
2018 112.0795 586.83 654.16 17.45
2019 112.1295 582.26 657.97 17.37
2020 112.1795 617.19 662.06 17.92
2021 112.2295 602.66 666.45 17.68
2022 112.2794 585.64 671.17 17.41
2023 112.3294 618.13 676.26 17.93
2024 112.3794 631.79 681.76 18.13
2025 112.4294 587.78 687.72 17.46
2026 112.4795 615.39 694.21 17.88
2027 112.5294 606.82 701.26 17.74
2028 112.5795 615.99 708.98 17.89
2029 112.6295 603.61 717.45 17.69
2030 112.6720 629.65 725.31 25.68
2031 112.7261 613.20 736.35 17.74
2032 112.7762 598.74 747.77 17.52
2033 112.8262 584.56 760.52 17.34
2034 112.8761 622.73 774.85 17.83
2035 112.9261 674.52 791.18 18.64
2036 112.9761 648.87 809.91 18.25
2037 113.0261 670.23 831.60 18.57
2038 113.0761 728.23 857.00 19.35
2039 113.1261 719.86 887.02 19.23
2040 113.1761 807.24 922.80 20.39
2041 113.2261 864.09 965.69 21.11
2042 113.2760 957.72 1017.14 22.25
2043 113.3260 1069.20 1079.06 23.45
2044 113.3760 1227.64 1153.05 25.23
2045 113.4260 1348.42 1240.61 26.43
2046 113.4761 1480.67 1342.61 27.73
2047 113.5260 1568.76 1457.30 28.55
2048 113.5760 1693.84 1580.97 29.69
2049 113.6260 1687.56 1703.84 29.67
2050 113.6760 1763.04 1810.83 30.32
2051 113.7260 1704.67 1884.41 29.81
2052 113.7760 1563.30 1912.24 28.53
2053 113.8260 1513.34 1894.30 28.03
2054 113.8760 1432.96 1843.08 27.29
2055 113.9304 1336.71 1770.78 21.55
2056 113.9846 1279.70 1701.73 25.72
2057 114.0347 1253.76 1652.53 25.48
2058 114.0846 1122.48 1623.65 24.00
2059 114.1346 1232.61 1618.12 25.17
2060 114.1846 1244.20 1638.13 25.34
2061 114.2346 1305.64 1685.87 25.94
2062 114.2845 1403.35 1763.95 26.96
2063 114.3346 1713.00 1876.87 29.83
2064 114.3846 1989.09 2029.18 32.25
2065 114.4345 2449.45 2227.03 35.92
2066 114.4845 3048.12 2478.60 40.34
2067 114.5345 3726.34 2791.29 44.80
2068 114.5845 4473.33 3177.05 49.52
2069 114.6345 5119.67 3630.02 53.35
2070 114.6845 5783.39 4151.44 57.01
2071 114.7345 6236.84 4722.43 59.50
2072 114.7845 6411.47 5300.28 60.48
2073 114.8345 6474.08 5811.95 60.83
2074 114.8845 6341.16 6163.22 60.19
2075 114.9345 5929.11 6272.48 57.88
2076 114.9845 5374.25 6110.87 54.79
2077 115.0345 4812.59 5719.63 51.55
2078 115.0845 4157.29 5185.08 47.67
2079 115.1345 3435.14 4597.42 43.04
2080 115.1925 3021.93 3935.93 32.42
2081 115.2488 2412.68 3364.37 35.25
2082 115.2988 2105.33 2930.05 32.91
2083 115.3487 1819.26 2565.01 30.45
2084 115.3987 1531.28 2261.81 27.87
2085 115.4487 1332.44 2012.97 25.99
2086 115.4987 1199.90 1809.79 24.66
2087 115.5487 1108.36 1644.26 23.64
2088 115.5987 993.48 1509.08 22.38
2089 115.6487 952.86 1398.12 21.91
2090 115.6987 921.66 1306.34 21.56
2091 115.7486 850.34 1229.84 20.67
2092 115.7986 846.08 1165.23 20.64
2093 115.8486 829.59 1110.18 20.44
2094 115.8986 796.48 1062.88 20.01
2095 115.9487 768.51 1021.80 19.66
2096 115.9986 760.30 986.06 19.53
2097 116.0486 717.83 954.61 19.00
2098 116.0986 720.88 926.82 19.06
2099 116.1487 753.86 902.12 19.44
2100 116.1986 724.71 880.20 19.06
2101 116.2486 695.95 860.54 18.72
2102 116.2986 729.45 842.91 19.16
2103 116.3486 728.52 827.04 19.14
2104 116.3986 715.76 812.71 18.96
2105 116.4496 715.09 799.50 18.76
2106 116.4996 729.27 787.76 18.93
2107 116.5496 703.22 777.10 18.60
2108 116.5995 713.12 767.41 18.68
2109 116.6496 716.46 758.53 18.77
2110 116.6995 738.54 750.46 19.06
2111 116.7495 743.16 743.05 19.15
2112 116.7995 700.23 736.26 18.54
2113 116.8495 728.97 730.04 18.99
2114 116.8995 738.94 724.34 19.05
2115 116.9495 715.70 719.11 18.79
2116 116.9994 748.07 714.33 19.17
2117 117.0494 744.73 709.94 19.13
2118 117.0994 776.50 705.92 19.51
2119 117.1494 750.76 702.25 19.23
2120 117.1995 743.58 698.90 19.11
2121 117.2494 754.04 695.86 19.29
2122 117.2994 744.45 693.11 19.14
2123 117.3494 766.71 690.62 19.43
2124 117.3995 765.91 688.39 19.40
2125 117.4494 790.32 686.41 19.73
2126 117.4994 782.55 684.67 19.61
2127 117.5494 754.30 683.16 19.27
2128 117.5994 764.94 681.88 19.41
2129 117.6495 737.06 680.82 19.06
2130 117.6873 771.47 680.17 19.57
2131 117.7373 777.17 679.50 19.65
2132 117.7873 774.61 679.05 19.62
2133 117.8373 791.21 678.83 19.82
2134 117.8873 810.93 678.85 20.05
2135 117.9372 761.96 679.10 19.44
2136 117.9873 755.28 679.60 19.37
2137 118.0372 843.68 680.36 20.46
2138 118.0872 792.16 681.40 19.84
2139 118.1372 802.68 682.74 19.96
2140 118.1872 801.65 684.40 19.95
2141 118.2372 820.76 689.40 20.16
2142 118.2872 859.27 691.84 20.65
2143 118.3372 836.54 694.70 20.39
2144 118.3872 824.61 698.03 20.26
2145 118.4372 898.57 701.87 21.13
2146 118.4872 886.55 706.30 20.97
2147 118.5372 849.93 711.40 20.52
2148 118.5871 867.88 713.74 20.80
2149 118.6372 855.17 720.55 20.61
2150 118.6872 874.29 728.37 20.86
2151 118.7372 825.34 737.38 20.25
2152 118.7872 894.32 747.81 21.07
2153 118.8371 841.72 759.91 20.47
2154 118.8872 874.51 774.14 20.88
2155 118.9356 860.74 790.29 22.71
2156 118.9856 852.17 810.05 22.57
2157 119.0356 881.12 833.66 23.08
2158 119.0856 941.38 862.09 23.79
2159 119.1356 975.77 896.44 24.44
2160 119.1855 1040.50 938.05 25.00
2161 119.2355 1100.36 988.64 25.66
2162 119.2855 1226.46 1049.93 27.04
2163 119.3355 1350.53 1123.78 28.59
2164 119.3855 1506.74 1211.97 30.11
2165 119.4355 1664.99 1315.76 31.78
2166 119.4854 1839.77 1434.77 33.45
2167 119.5354 1962.10 1568.02 34.52
2168 119.5854 1985.28 1706.00 34.75
2169 119.6355 1989.44 1836.97 34.73
2170 119.6855 1959.53 1941.70 34.56
2171 119.7354 1886.62 2000.43 33.76
2172 119.7854 1773.13 2000.42 32.79
2173 119.8354 1653.52 1922.36 31.70
2174 119.8855 1540.10 1818.66 30.45
2175 119.9354 1365.17 1689.58 28.75
2176 119.9855 1246.76 1552.45 27.45
2177 120.0354 1145.06 1421.11 26.20
2178 120.0854 1075.54 1301.90 25.61
2179 120.1355 911.32 1197.71 23.55
2180 120.1878 928.41 1105.49 23.37
2181 120.2378 843.63 1031.88 22.25
2182 120.2878 767.01 970.78 21.34
2183 120.3378 758.22 920.32 21.09
2184 120.3878 725.23 878.74 20.74
2185 120.4378 670.97 844.46 19.90
2186 120.4878 640.34 816.08 19.35
2187 120.5377 679.70 792.54 19.92
2188 120.5877 611.02 772.78 18.90
2189 120.6377 658.78 756.13 19.57
2190 120.6877 644.39 741.98 19.38
2191 120.7377 634.65 729.87 19.29
2192 120.7877 627.09 719.44 19.16
2193 120.8377 633.28 710.41 19.21
2194 120.8877 597.53 702.55 18.72
2195 120.9377 627.25 695.69 19.17
2196 120.9877 621.84 689.69 19.08
2197 121.0377 596.73 684.43 18.66
2198 121.0876 607.24 679.82 18.82
2199 121.1377 629.89 675.77 19.22
2200 121.1877 611.10 672.22 18.86
2201 121.2377 600.33 669.13 18.74
2202 121.2877 554.67 666.44 17.87
2203 121.3377 611.48 664.11 18.85
2204 121.3877 590.38 662.12 18.65
2205 121.4416 589.43 660.32 17.03
2206 121.4917 616.35 658.95 17.43
2207 121.5416 586.57 657.85 17.01
2208 121.5916 591.79 657.00 17.08
2209 121.6416 605.12 656.39 17.25
2210 121.6916 599.51 656.03 17.21
2211 121.7416 583.08 655.89 16.94
2212 121.7916 611.43 655.99 17.35
2213 121.8416 611.05 656.33 17.38
2214 121.8916 611.03 656.90 17.31
2215 121.9416 586.84 657.72 16.96
2216 121.9915 600.10 658.79 17.19
2217 122.0415 583.08 659.77 16.89
2218 122.0915 581.58 661.04 16.92
2219 122.1415 607.33 662.62 17.28
2220 122.1915 606.86 664.55 17.27
2221 122.2415 600.19 666.87 17.17
2222 122.2915 620.96 669.60 17.43
2223 122.3415 621.20 672.82 17.47
2224 122.3915 631.23 676.58 17.63
2225 122.4415 630.72 680.96 17.60
2226 122.4915 676.56 686.06 18.24
2227 122.5415 633.59 692.01 17.62
2228 122.5915 649.95 698.94 17.89
2229 122.6415 681.24 707.06 18.31
2230 122.6963 716.21 717.60 18.92
2231 122.7463 712.94 729.05 18.87
2232 122.7963 730.21 742.64 19.12
2233 122.8463 810.12 758.84 20.09
2234 122.8963 860.72 778.25 20.74
2235 122.9462 949.05 801.51 21.78
2236 122.9962 958.53 829.57 21.90
2237 123.0462 1156.53 863.32 24.03
2238 123.0962 1233.38 903.82 24.88
2239 123.1462 1367.08 952.13 26.20
2240 123.1962 1519.97 1009.11 27.64
2241 123.2462 1635.00 1075.08 28.63
2242 123.2961 1649.29 1148.95 28.76
2243 123.3462 1705.47 1228.08 29.28
2244 123.3961 1723.43 1305.62 29.46
2245 123.4462 1665.72 1372.52 28.96
2246 123.4961 1672.47 1417.03 28.99
2247 123.5461 1590.71 1430.46 28.29
2248 123.5961 1409.98 1410.12 26.64
2249 123.6462 1337.57 1360.87 25.93
2250 123.6961 1248.10 1293.02 25.08
2251 123.7462 1188.70 1216.77 24.47
2252 123.7961 1069.98 1141.27 23.20
2253 123.8461 998.73 1071.45 22.43
2254 123.8962 884.78 1009.93 21.06
2255 123.9393 881.07 964.40 20.39
2256 123.9893 812.78 919.88 19.60
2257 124.0393 785.71 883.58 19.28
2258 124.0893 777.65 854.59 19.13
2259 124.1393 721.86 833.53 18.44
2260 124.1893 680.55 816.73 17.89
2261 124.2393 714.68 805.05 18.34
2262 124.2893 717.47 798.08 18.35
2263 124.3392 722.40 795.57 18.45
2264 124.3892 756.68 797.41 18.87
2265 124.4392 691.13 803.62 18.03
2266 124.4892 716.08 814.19 18.34
2267 124.5392 755.82 829.04 18.85
2268 124.5892 728.28 847.69 18.53
2269 124.6392 765.15 868.96 18.98
2270 124.6892 767.08 890.62 18.99
2271 124.7392 760.71 909.24 18.91
2272 124.7892 727.46 920.81 18.47
2273 124.8391 726.44 922.04 18.51
2274 124.8892 719.96 911.80 18.42
2275 124.9392 683.94 886.70 17.95
2276 124.9892 669.89 860.04 17.76
2277 125.0392 673.02 830.51 17.77
2278 125.0892 658.72 801.09 17.60
2279 125.1392 605.36 773.72 16.86
2280 125.1759 597.30 755.48 17.33
2281 125.2259 613.08 733.41 17.58
2282 125.2759 599.40 714.46 17.39
2283 125.3259 611.46 698.35 17.50
2284 125.3759 593.68 684.70 17.28
2285 125.4259 573.73 673.14 16.91
2286 125.4759 603.16 663.32 17.40
2287 125.5259 597.25 654.95 17.27
2288 125.5758 573.77 647.79 17.01
2289 125.6259 578.02 641.59 17.04
2290 125.6758 553.85 636.22 16.65
2291 125.7258 580.99 631.51 17.12
2292 125.7758 593.87 627.36 17.28
2293 125.8258 587.86 623.69 17.22
2294 125.8758 541.36 620.41 16.54
2295 125.9258 552.68 617.47 16.63
2296 125.9758 602.09 614.82 17.41
2297 126.0258 554.84 612.41 16.70
2298 126.0757 572.76 610.23 16.98
2299 126.1258 547.76 608.23 16.57
2300 126.1758 565.81 606.40 16.86
2301 126.2258 578.50 604.72 17.02
2302 126.2758 539.02 603.16 16.46
2303 126.3258 574.26 601.73 16.97
2304 126.3758 589.44 600.40 17.25
2305 126.4210 580.10 599.27 16.70
2306 126.4711 557.26 598.10 16.48
2307 126.5210 585.34 597.02 16.85
2308 126.5710 577.59 596.01 16.72
2309 126.6210 565.04 595.06 16.50
2310 126.6710 580.79 594.16 16.73
2311 126.7210 569.78 593.33 16.62
2312 126.7710 558.05 592.54 16.45
2313 126.8210 596.19 591.80 17.03
2314 126.8710 593.16 591.11 16.95
2315 126.9210 594.32 590.45 17.02
2316 126.9709 585.39 589.84 16.87
2317 127.0209 612.64 589.26 17.24
2318 127.0709 559.57 588.71 16.41
2319 127.1209 607.89 588.20 17.20
2320 127.1709 593.06 587.72 16.91
2321 127.2209 610.79 587.27 17.18
2322 127.2709 566.79 586.89 16.65
2323 127.3209 567.61 586.54 16.61
2324 127.3709 580.36 586.22 16.74
2325 127.4209 575.43 585.93 16.69
2326 127.4709 567.29 585.66 16.56
2327 127.5209 602.38 585.42 17.01
2328 127.5709 581.82 585.21 16.86
2329 127.6209 549.81 585.03 16.27
2330 127.6711 582.19 584.88 22.19
2331 127.7113 578.98 584.77 16.06
2332 127.7613 590.60 584.67 16.23
2333 127.8113 602.10 584.60 16.38
2334 127.8613 603.58 584.56 16.42
2335 127.9113 596.88 584.55 16.28
2336 127.9613 574.72 584.58 15.99
2337 128.0113 594.09 584.64 16.24
2338 128.0612 589.65 584.74 16.21
2339 128.1112 573.53 584.88 15.98
2340 128.1613 573.44 585.06 15.96
2341 128.2112 584.73 585.29 16.12
2342 128.2612 581.29 585.57 16.09
2343 128.3112 586.20 585.90 16.13
2344 128.3612 618.04 586.29 16.60
2345 128.4112 588.00 586.74 16.17
2346 128.4612 576.63 587.26 16.02
2347 128.5112 581.22 587.85 16.07
2348 128.5612 614.52 588.53 16.55
2349 128.6112 591.87 589.30 16.28
2350 128.6612 591.52 590.17 16.22
2351 128.7112 632.88 591.16 16.77
2352 128.7612 585.38 592.27 16.12
2353 128.8112 605.45 590.47 16.39
2354 128.8612 610.16 591.94 16.48
2355 128.9013 612.31 593.25 24.01
2356 128.9636 583.42 595.54 16.79
2357 129.0136 601.34 597.65 17.06
2358 129.0636 599.43 600.03 17.03
2359 129.1136 587.96 602.73 16.84
2360 129.1636 621.44 605.81 17.34
2361 129.2135 639.08 609.32 17.56
2362 129.2635 596.84 613.36 16.99
2363 129.3135 602.28 618.03 17.02
2364 129.3635 615.66 623.43 17.26
2365 129.4135 658.08 629.73 17.84
2366 129.4635 651.40 637.10 17.74
2367 129.5135 660.51 645.74 17.82
2368 129.5635 680.04 655.92 18.09
2369 129.6135 735.45 667.90 18.85
2370 129.6635 787.03 682.00 19.52
2371 129.7135 831.18 698.57 20.01
2372 129.7634 819.16 717.89 19.88
2373 129.8135 868.01 740.42 20.49
2374 129.8634 881.73 766.18 20.67
2375 129.9135 992.37 795.39 21.89
2376 129.9634 959.91 827.39 21.54
2377 130.0135 1003.15 861.42 22.03
2378 130.0635 982.21 895.32 21.78
2379 130.1134 960.02 925.10 21.57
2380 130.1635 965.24 949.55 21.61
2381 130.2191 893.51 964.73 21.22
2382 130.2692 913.13 965.25 21.47
2383 130.3191 869.49 953.31 20.97
2384 130.3691 845.60 930.89 20.61
2385 130.4191 802.61 901.28 20.12
2386 130.4691 772.36 867.92 19.71
2387 130.5191 696.59 833.79 18.74
2388 130.5691 696.53 800.96 18.68
2389 130.6191 710.80 770.69 18.96
2390 130.6691 691.07 743.57 18.64
2391 130.7191 673.15 719.73 18.41
2392 130.7690 644.90 699.08 18.01
2393 130.8190 605.94 681.27 17.46
2394 130.8690 635.55 666.01 17.87
2395 130.9190 592.66 652.97 17.25
2396 130.9690 583.93 641.81 17.12
2397 131.0190 561.68 632.27 16.80
2398 131.0690 568.47 624.08 16.89
2399 131.1190 566.95 617.03 16.86
2400 131.1690 592.98 610.91 17.27
2401 131.2190 570.03 605.59 16.93
2402 131.2690 596.25 600.92 17.29
2403 131.3190 573.67 596.80 16.97
2404 131.3690 609.02 593.16 17.50
2405 131.4251 568.69 589.53 13.80
2406 131.4748 597.99 586.66 17.38
2407 131.5248 561.28 584.06 16.86
2408 131.5748 525.92 581.70 16.29
2409 131.6248 562.26 579.55 16.84
2410 131.6748 581.05 577.59 17.13
2411 131.7248 549.27 575.79 16.63
2412 131.7747 556.97 574.14 16.79
2413 131.8248 552.30 572.61 16.70
2414 131.8748 574.37 571.20 17.04
2415 131.9247 557.43 569.88 16.77
2416 131.9747 549.21 568.66 16.65
2417 132.0247 547.60 567.52 16.61
2418 132.0747 578.42 566.44 17.11
2419 132.1247 583.29 565.44 17.19
2420 132.1747 558.32 564.49 16.78
2421 132.2247 537.91 563.59 16.46
2422 132.2747 559.93 562.75 16.83
2423 132.3247 562.42 561.95 16.83
2424 132.3747 550.81 561.19 16.67
2425 132.4247 559.56 560.46 16.84
2426 132.4747 529.08 560.29 16.34
2427 132.5247 555.69 559.82 16.75
2428 132.5747 546.97 559.38 16.63
2429 132.6247 593.21 558.97 17.35
2430 132.6747 510.21 558.59 16.06
2431 132.6963 533.54 558.43 23.52
2432 132.7417 555.48 558.10 16.81
2433 132.7917 547.23 557.77 16.71
2434 132.8416 512.35 557.45 16.13
2435 132.8916 560.99 557.15 16.92
2436 132.9416 562.37 556.86 16.94
2437 132.9916 542.22 556.59 16.64
2438 133.0416 539.41 556.34 16.55
2439 133.0916 552.01 556.09 16.81
2440 133.1416 543.57 555.86 16.66
2441 133.1916 543.25 555.64 16.66
2442 133.2415 537.39 555.43 16.56
2443 133.2915 577.51 555.23 17.18
2444 133.3415 527.56 555.04 16.43
2445 133.3915 550.85 554.86 16.76
2446 133.4416 533.49 554.69 16.53
2447 133.4915 547.76 554.53 16.70
2448 133.5415 539.05 554.37 16.60
2449 133.5915 542.99 554.22 16.66
2450 133.6415 548.54 554.07 16.73
2451 133.6915 532.85 553.93 16.50
2452 133.7415 554.53 553.80 16.81
2453 133.7915 551.55 553.68 16.75
2454 133.8415 548.59 553.55 16.77
2455 133.8915 542.53 553.44 16.64
2456 133.9539 573.74 553.30 17.18
2457 134.0039 577.90 553.19 17.16
2458 134.0539 566.00 553.09 17.08
2459 134.1039 516.48 552.99 16.34
2460 134.1539 541.76 552.90 16.69
2461 134.2038 578.63 552.81 17.27
2462 134.2538 544.77 552.72 16.79
2463 134.3038 538.81 552.64 16.61
2464 134.3538 564.16 552.56 17.04
2465 134.4038 532.88 552.48 16.48
2466 134.4538 523.85 552.41 16.40
2467 134.5037 537.03 552.34 16.57
2468 134.5537 579.58 552.27 17.27
2469 134.6038 510.80 552.20 16.25
2470 134.6538 575.63 552.14 17.26
2471 134.7038 556.77 552.07 16.94
2472 134.7537 558.12 552.01 16.97
2473 134.8037 540.87 551.95 16.70
2474 134.8537 522.43 551.90 16.42
2475 134.9038 572.66 551.84 17.14
2476 134.9537 586.53 551.79 17.39
2477 135.0038 554.04 551.74 16.92
2478 135.0537 565.61 551.69 17.07
2479 135.1037 562.00 551.64 17.01
2480 135.1538 519.43 553.32 16.32
2481 135.2038 524.48 553.29 15.86
2482 135.2538 567.67 553.26 16.54
2483 135.3038 552.57 553.23 16.35
2484 135.3538 538.26 553.20 16.06
2485 135.4038 529.49 553.18 15.96
2486 135.4537 565.11 553.15 16.48
2487 135.5037 530.27 553.13 15.98
2488 135.5537 572.77 553.11 16.55
2489 135.6037 540.71 553.09 16.14
2490 135.6537 575.17 553.08 16.61
2491 135.7037 554.97 553.06 16.38
2492 135.7537 531.81 553.04 15.98
2493 135.8036 569.16 553.03 16.59
2494 135.8536 572.33 553.02 16.61
2495 135.9037 563.67 553.01 16.48
2496 135.9537 578.42 553.00 16.73
2497 136.0036 576.69 552.99 16.67
2498 136.0536 578.13 552.99 16.69
2499 136.1036 584.74 552.98 16.84
2500 136.1537 551.24 552.98 16.28
2501 136.2036 573.17 552.98 16.60
2502 136.2537 591.75 552.97 16.85
2503 136.3036 602.39 551.47 17.02
2504 136.3536 569.32 551.49 16.60
2505 136.4037 547.59 551.52 16.27
2506 136.4464 562.67 551.54 16.16
2507 136.4965 552.02 551.57 16.03
2508 136.5464 578.09 551.60 16.39
2509 136.5964 544.58 551.63 15.91
2510 136.6464 613.93 551.66 16.87
2511 136.6964 578.04 551.69 16.37
2512 136.7464 563.67 551.72 16.18
2513 136.7964 567.20 551.75 16.22
2514 136.8464 556.77 551.78 16.11
2515 136.8964 569.73 551.82 16.25
2516 136.9464 574.48 551.85 16.33
2517 136.9963 555.77 551.89 16.06
2518 137.0463 572.05 551.93 16.28
2519 137.0963 556.88 551.96 16.09
2520 137.1463 574.31 552.00 16.32
2521 137.1963 555.84 552.04 16.05
2522 137.2463 572.03 552.08 16.28
2523 137.2963 581.35 552.13 16.43
2524 137.3462 576.08 552.17 16.39
2525 137.3963 556.79 552.21 16.06
2526 137.4463 546.56 552.26 15.94
2527 137.4963 574.42 552.31 16.31
2528 137.5463 556.35 552.35 16.07
2529 137.5963 556.22 552.40 16.07
2530 137.6540 565.56 552.46 13.17
2531 137.7081 596.04 552.52 16.61
2532 137.7581 587.80 552.58 16.50
2533 137.8081 569.88 552.64 16.25
2534 137.8581 536.62 552.70 15.73
2535 137.9081 561.44 552.77 16.13
2536 137.9581 574.96 552.83 16.29
2537 138.0080 591.92 552.90 16.57
2538 138.0581 564.30 552.97 16.14
2539 138.1081 572.40 553.04 16.28
2540 138.1580 602.77 553.12 16.70
2541 138.2080 556.41 553.19 16.04
2542 138.2580 549.20 553.27 15.92
2543 138.3080 531.35 553.35 15.69
2544 138.3580 534.29 553.43 15.75
2545 138.4080 581.85 553.52 16.40
2546 138.4580 569.41 553.61 16.22
2547 138.5080 575.79 553.70 16.35
2548 138.5580 560.20 553.79 16.08
2549 138.6080 562.19 553.89 16.12
2550 138.6580 575.68 553.98 16.37
2551 138.7080 559.33 554.09 16.11
2552 138.7580 570.50 554.19 16.24
2553 138.8080 552.68 554.30 15.98
2554 138.8580 567.36 554.41 16.20
2555 138.9054 531.89 554.52 13.03
2556 138.9598 568.31 554.65 16.57
2557 139.0098 575.40 554.78 16.66
2558 139.0597 565.49 554.91 16.52
2559 139.1097 577.63 555.04 16.66
2560 139.1597 562.01 555.18 16.47
2561 139.2097 550.74 555.32 16.27
2562 139.2597 566.97 555.47 16.52
2563 139.3097 526.81 555.62 15.95
2564 139.3597 565.98 555.78 16.52
2565 139.4097 544.03 555.95 16.17
2566 139.4596 545.85 556.12 16.24
2567 139.5096 580.35 556.30 16.66
2568 139.5596 548.63 556.49 16.27
2569 139.6096 558.93 556.68 16.38
2570 139.6596 562.22 556.89 16.47
2571 139.7096 562.78 557.10 16.48
2572 139.7596 537.74 557.32 16.09
2573 139.8096 566.36 557.55 16.52
2574 139.8596 542.96 557.79 16.15
2575 139.9096 575.28 558.04 16.60
2576 139.9596 539.97 558.30 16.16
2577 140.0096 567.60 558.58 16.56
2578 140.0596 556.25 558.87 16.38
2579 140.1096 572.17 559.17 16.61
2580 140.1500 568.18 559.43 24.19
2581 140.1963 543.61 559.73 19.56
2582 140.2464 554.42 560.08 19.89
2583 140.2963 543.71 560.44 19.43
2584 140.3463 596.43 560.83 20.56
2585 140.3964 535.81 561.23 19.54
2586 140.4463 571.37 561.66 20.13
2587 140.4963 549.66 562.12 19.51
2588 140.5463 589.36 562.60 20.41
2589 140.5963 523.48 563.11 18.99
2590 140.6463 561.52 563.66 20.13
2591 140.6962 563.32 564.24 19.72
2592 140.7462 558.64 564.87 19.79
2593 140.7962 581.43 565.54 20.27
2594 140.8462 542.34 566.27 19.40
2595 140.8962 558.12 567.05 19.71
2596 140.9462 560.23 567.90 19.70
2597 140.9962 550.38 568.82 19.64
2598 141.0462 557.36 569.83 19.82
2599 141.0962 583.01 570.93 20.51
2600 141.1462 535.43 572.15 19.31
2601 141.1962 590.11 573.50 20.46
2602 141.2462 546.06 574.99 19.44
2603 141.2962 554.25 576.65 19.59
2604 141.3462 559.73 578.49 19.69
2605 141.3924 559.26 580.39 31.22
2606 141.4370 570.24 582.41 19.69
2607 141.4871 548.79 584.92 19.68
2608 141.5371 571.80 587.73 19.50
2609 141.5870 598.18 590.85 20.42
2610 141.6370 614.38 594.33 20.64
2611 141.6870 607.49 598.20 20.65
2612 141.7370 594.13 602.49 20.21
2613 141.7870 603.83 607.22 20.60
2614 141.8370 602.79 612.43 20.38
2615 141.8870 647.95 618.14 20.89
2616 141.9370 637.91 624.36 20.86
2617 141.9869 635.56 631.09 20.83
2618 142.0369 697.34 638.36 21.79
2619 142.0869 666.13 646.14 20.92
2620 142.1369 667.19 654.40 21.15
2621 142.1869 691.24 663.09 21.64
2622 142.2369 712.79 672.13 22.14
2623 142.2869 748.04 681.40 22.91
2624 142.3369 714.70 690.75 22.12
2625 142.3869 677.35 699.99 21.37
2626 142.4369 710.55 708.88 22.16
2627 142.4869 694.93 717.14 21.81
2628 142.5369 711.00 724.47 21.99
2629 142.5869 702.75 730.55 21.98
2630 142.6369 671.00 735.11 21.49
2631 142.6869 671.98 737.91 17.84
2632 142.7369 683.86 738.83 18.02
2633 142.7869 672.42 737.81 17.88
2634 142.8369 676.77 734.94 17.93
2635 142.8869 641.14 730.38 17.47
2636 142.9368 640.96 724.39 17.43
2637 142.9868 623.56 717.30 17.24
2638 143.0368 609.68 709.34 17.01
2639 143.0868 565.68 700.80 16.43
2640 143.1368 605.44 691.96 16.95
2641 143.1868 562.13 683.02 16.35
2642 143.2367 588.07 674.19 16.71
2643 143.2867 601.56 665.59 16.89
2644 143.3368 552.62 657.32 16.20
2645 143.3868 549.90 649.49 16.17
2646 143.4368 597.77 642.14 16.87
2647 143.4867 569.12 635.31 16.46
2648 143.5367 539.13 628.99 15.97
2649 143.5867 560.09 623.19 16.33
2650 143.6368 564.06 617.90 16.36
2651 143.6867 555.96 613.12 16.26
2652 143.7368 564.68 608.80 16.37
2653 143.7867 570.91 604.95 16.45
2654 143.8367 527.14 601.51 15.82
2655 143.8868 560.32 598.45 16.29
2656 143.9406 537.96 595.56 15.59
2657 143.9906 538.32 593.21 15.63
2658 144.0406 552.03 591.16 15.80
2659 144.0906 542.68 589.37 15.62
2660 144.1406 555.19 587.82 15.84
2661 144.1906 575.75 586.48 16.12
2662 144.2405 572.09 585.33 16.10
2663 144.2905 550.31 584.34 15.78
2664 144.3405 564.31 583.51 16.00
2665 144.3905 547.09 582.81 15.71
2666 144.4405 513.65 582.22 15.23
2667 144.4905 543.03 581.74 15.66
2668 144.5405 550.13 581.36 15.78
2669 144.5905 564.73 581.06 15.99
2670 144.6405 548.05 580.84 15.73
2671 144.6905 548.26 580.69 15.77
2672 144.7405 560.43 580.61 15.91
2673 144.7905 547.50 580.59 15.78
2674 144.8404 534.73 580.62 15.56
2675 144.8905 561.59 580.71 15.95
2676 144.9405 540.05 580.85 15.68
2677 144.9905 538.36 581.04 15.62
2678 145.0405 549.94 581.28 15.78
2679 145.0904 547.67 581.57 15.77
2680 145.1405 570.31 581.91 16.07
2681 145.2027 543.41 582.39 15.80
2682 145.2528 526.17 582.83 15.50
2683 145.3027 555.89 583.32 15.98
2684 145.3527 519.32 583.86 15.37
2685 145.4027 541.23 584.45 15.74
2686 145.4527 535.74 585.09 15.64
2687 145.5027 547.38 585.78 15.84
2688 145.5527 544.06 586.53 15.76
2689 145.6027 542.02 587.33 15.76
2690 145.6527 536.22 588.20 15.68
2691 145.7026 535.60 589.13 15.65
2692 145.7526 536.74 590.12 15.65
2693 145.8026 554.52 591.20 15.94
2694 145.8526 559.56 592.35 16.01
2695 145.9026 557.01 593.59 15.99
2696 145.9526 549.45 594.92 15.86
2697 146.0026 555.23 596.35 15.93
2698 146.0526 542.83 597.90 15.76
2699 146.1025 543.70 599.57 15.76
2700 146.1526 557.19 601.38 15.96
2701 146.2026 570.69 603.34 16.15
2702 146.2526 589.73 605.47 16.44
2703 146.3026 573.90 607.78 16.21
2704 146.3526 557.26 610.30 15.98
2705 146.4026 593.95 613.05 16.53
2706 146.4347 589.00 614.96 22.33
2707 146.4756 567.12 617.54 15.90
2708 146.5256 580.63 620.98 16.15
2709 146.5756 575.36 624.75 16.03
2710 146.6256 594.20 628.89 16.25
2711 146.6755 631.46 633.42 16.82
2712 146.7255 632.81 638.41 16.78
2713 146.7755 621.16 643.88 16.65
2714 146.8255 649.11 649.88 17.02
2715 146.8755 635.27 656.45 16.84
2716 146.9255 668.06 663.66 17.26
2717 146.9755 690.45 671.53 17.52
2718 147.0254 699.29 680.10 17.63
2719 147.0754 759.19 689.45 18.38
2720 147.1254 774.87 699.61 18.59
2721 147.1755 813.08 710.64 19.01
2722 147.2255 826.49 722.53 19.17
2723 147.2754 865.69 735.32 19.64
2724 147.3254 920.37 749.08 20.24
2725 147.3754 944.87 763.81 20.55
2726 147.4255 1035.70 779.53 21.52
2727 147.4755 1079.83 796.21 21.96
2728 147.5255 1123.47 813.83 22.41
2729 147.5754 1114.03 832.34 22.31
2730 147.6254 1181.51 851.76 23.01
2731 147.6755 1259.23 872.01 23.74
2732 147.6980 1200.61 881.34 32.55
2733 147.7413 1296.02 899.65 23.72
2734 147.7913 1324.17 921.27 24.01
2735 147.8413 1380.07 943.24 24.47
2736 147.8913 1328.86 965.32 24.03
2737 147.9412 1397.44 987.22 24.66
2738 147.9912 1352.75 1008.71 24.28
2739 148.0412 1350.35 1029.41 24.21
2740 148.0912 1331.01 1048.92 24.14
2741 148.1412 1278.95 1066.84 23.59
2742 148.1912 1289.05 1082.79 23.70
2743 148.2412 1276.62 1096.31 23.57
2744 148.2911 1210.22 1107.00 22.93
2745 148.3411 1223.32 1114.60 23.12
2746 148.3912 1130.04 1118.85 22.23
2747 148.4412 1101.36 1119.61 21.94
2748 148.4911 1089.16 1116.89 21.81
2749 148.5411 1039.32 1110.79 21.31
2750 148.5911 1015.12 1101.51 21.10
2751 148.6412 962.07 1089.32 20.52
2752 148.6911 915.87 1074.64 20.05
2753 148.7412 946.98 1057.75 20.36
2754 148.7911 831.99 1039.19 19.09
2755 148.8411 779.73 1019.27 18.46
2756 148.8912 814.42 998.35 18.89
2757 148.9411 793.62 976.93 19.33
2758 148.9912 769.15 955.13 19.06
2759 149.0411 755.59 933.42 18.91
2760 149.0911 700.10 911.89 18.14
2761 149.1411 730.73 890.79 18.50
2762 149.1911 688.88 870.27 17.95
2763 149.2411 701.53 850.44 18.16
2764 149.2911 721.82 831.41 18.44
2765 149.3411 661.60 813.25 17.64
2766 149.3911 652.02 796.02 17.46
2767 149.4411 661.54 779.74 17.56
2768 149.4910 655.11 764.44 17.50
2769 149.5410 625.72 750.07 17.07
2770 149.5910 634.73 736.67 17.22
2771 149.6410 609.38 724.20 16.86
2772 149.6910 624.09 712.63 17.03
2773 149.7410 610.35 701.94 16.87
2774 149.7910 597.51 692.09 16.68
2775 149.8410 612.01 683.03 16.89
2776 149.8910 596.69 674.72 16.69
2777 149.9410 596.16 667.11 16.71
2778 149.9910 592.71 660.16 16.67
2779 150.0410 601.78 653.82 16.82
2780 150.0910 579.08 648.05 16.47
2781 150.1410 584.60 642.79 16.55
2782 150.1776 603.90 639.24 16.55
2783 150.2276 566.88 634.78 16.02
2784 150.2776 616.17 630.72 16.77
2785 150.3276 553.33 627.02 15.86
2786 150.3776 585.69 623.66 16.35
2787 150.4276 587.67 620.59 16.31
2788 150.4775 549.41 617.80 15.83
2789 150.5275 565.69 615.24 16.00
2790 150.5775 581.50 612.91 16.29
2791 150.6275 577.23 610.76 16.18
2792 150.6775 591.18 608.79 16.37
2793 150.7275 590.82 606.97 16.44
2794 150.7775 598.61 605.30 16.54
2795 150.8275 577.59 603.75 16.20
2796 150.8775 578.14 602.32 16.19
2797 150.9275 579.40 600.98 16.24
2798 150.9775 584.01 599.74 16.26
2799 151.0275 575.88 598.58 16.18
2800 151.0774 580.60 597.50 16.25
2801 151.1275 552.40 596.48 15.84
2802 151.1775 565.72 595.53 16.05
2803 151.2275 606.14 594.64 16.69
2804 151.2775 588.81 593.80 16.39
2805 151.3274 555.36 593.01 15.89
2806 151.3775 582.62 592.27 16.26
2807 151.4304 568.73 591.53 15.88
2808 151.4804 569.72 590.86 15.91
2809 151.5304 590.15 590.24 16.25
2810 151.5804 607.81 589.65 16.48
2811 151.6304 585.40 589.10 16.16
2812 151.6804 578.49 588.57 16.08
2813 151.7304 568.35 588.08 15.97
2814 151.7804 585.16 587.60 16.13
2815 151.8303 580.32 587.16 16.14
2816 151.8803 566.08 586.74 15.88
2817 151.9304 562.88 586.34 15.80
2818 151.9803 609.31 585.97 16.46
2819 152.0303 563.60 585.61 15.79
2820 152.0803 595.41 585.28 16.24
2821 152.1303 546.82 584.96 15.65
2822 152.1803 612.72 584.66 16.54
2823 152.2303 569.25 584.38 15.94
2824 152.2803 584.89 584.12 16.11
2825 152.3303 560.48 583.87 15.83
2826 152.3803 564.00 583.63 15.80
2827 152.4303 579.16 583.41 16.15
2828 152.4803 578.03 583.21 16.06
2829 152.5303 554.11 583.01 15.75
2830 152.5803 581.09 582.83 16.15
2831 152.6303 588.29 582.66 16.18
2832 152.6845 600.64 582.49 16.75
2833 152.7346 572.55 582.34 16.34
2834 152.7846 546.75 582.20 16.00
2835 152.8345 614.73 582.08 16.95
2836 152.8845 564.74 581.96 16.21
2837 152.9345 565.41 581.33 16.21
2838 152.9845 557.73 581.24 16.11
2839 153.0345 592.64 581.15 16.60
2840 153.0845 578.46 581.08 16.46
2841 153.1345 568.54 581.01 16.27
2842 153.1845 596.33 580.95 16.70
2843 153.2344 539.09 580.89 15.85
2844 153.2844 598.73 580.85 16.72
2845 153.3344 614.69 580.81 16.97
2846 153.3844 563.83 580.78 16.20
2847 153.4345 582.99 580.74 16.43
2848 153.4844 593.50 580.72 16.65
2849 153.5344 567.20 580.69 16.27
2850 153.5844 560.87 580.68 16.15
2851 153.6344 594.26 580.67 16.66
2852 153.6844 576.25 580.67 16.42
2853 153.7344 564.56 580.67 16.22
2854 153.7844 576.90 580.68 16.38
2855 153.8344 574.17 580.69 16.37
2856 153.8844 595.64 580.71 16.70
2857 153.9316 595.52 580.73 16.64
2858 153.9816 602.54 580.76 16.73
2859 154.0316 575.70 580.79 16.37
2860 154.0816 564.41 580.83 16.16
2861 154.1316 551.44 580.87 15.99
2862 154.1816 544.97 580.91 15.87
2863 154.2315 584.37 580.96 16.44
2864 154.2815 596.57 581.02 16.62
2865 154.3315 588.90 581.08 16.52
2866 154.3815 575.93 581.14 16.36
2867 154.4315 575.13 581.21 16.31
2868 154.4815 558.72 581.28 16.04
2869 154.5315 592.46 581.35 16.59
2870 154.5815 580.87 581.43 16.39
2871 154.6315 558.18 581.52 16.12
2872 154.6815 579.57 581.60 16.40
2873 154.7315 594.21 581.70 16.60
2874 154.7815 564.88 581.79 16.14
2875 154.8314 570.90 581.89 16.34
2876 154.8815 587.78 581.99 16.48
2877 154.9315 563.64 582.10 16.16
2878 154.9815 570.36 582.21 16.21
2879 155.0315 588.22 582.33 16.50
2880 155.0814 557.96 582.45 16.07
2881 155.1315 584.31 582.57 16.46
2882 155.1868 588.28 582.71 16.39
2883 155.2369 555.57 582.84 15.95
2884 155.2869 580.05 582.97 16.31
2885 155.3368 590.77 583.11 16.42
2886 155.3868 590.89 583.26 16.52
2887 155.4368 585.40 583.41 16.37
2888 155.4868 602.25 583.56 16.58
2889 155.5368 582.46 583.71 16.31
2890 155.5868 585.46 583.87 16.44
2891 155.6368 597.06 584.04 16.58
2892 155.6868 561.22 584.21 16.03
2893 155.7367 601.29 584.38 16.55
2894 155.7867 570.95 584.56 16.16
2895 155.8367 578.98 584.75 16.27
2896 155.8867 599.15 584.94 16.57
2897 155.9367 569.61 585.14 16.14
2898 155.9867 532.04 585.34 15.54
2899 156.0367 570.42 585.55 16.17
2900 156.0867 563.54 585.76 16.01
2901 156.1367 569.77 585.98 16.16
2902 156.1867 604.39 586.21 16.67
2903 156.2367 578.77 586.45 16.30
2904 156.2867 562.18 586.69 16.08
2905 156.3367 547.82 586.94 15.84
2906 156.3867 576.46 587.20 16.27
2907 156.4386 592.23 587.47 16.38
2908 156.4886 593.13 587.75 16.37
2909 156.5386 593.68 588.04 16.39
2910 156.5886 588.48 588.34 16.31
2911 156.6386 570.32 588.64 16.03
2912 156.6885 591.85 588.96 16.32
2913 156.7385 607.21 589.29 16.58
2914 156.7885 565.40 589.64 15.96
2915 156.8385 569.92 590.00 16.05
2916 156.8885 587.93 590.37 16.27
2917 156.9385 608.42 590.76 16.58
2918 156.9885 598.53 591.16 16.43
2919 157.0384 592.01 591.58 16.36
2920 157.0885 581.55 592.02 16.21
2921 157.1385 589.25 592.48 16.30
2922 157.1885 572.51 592.96 16.07
2923 157.2384 574.96 593.46 16.12
2924 157.2884 541.79 593.98 15.65
2925 157.3384 556.88 594.53 15.85
2926 157.3885 592.43 595.10 16.34
2927 157.4385 569.16 595.70 16.06
2928 157.4885 584.79 596.32 16.23
2929 157.5384 567.08 596.98 16.01
2930 157.5884 594.92 597.66 16.42
2931 157.6385 583.08 598.38 16.24
2932 157.6795 583.25 599.00 17.16
2933 157.7296 574.03 599.78 17.05
2934 157.7796 576.47 600.59 17.05
2935 157.8296 573.95 601.45 17.04
2936 157.8796 589.03 602.34 17.26
2937 157.9295 590.43 603.28 17.30
2938 157.9795 595.77 604.26 17.36
2939 158.0295 593.46 605.28 17.35
2940 158.0795 590.97 606.35 17.29
2941 158.1295 604.58 607.47 17.44
2942 158.1795 570.68 608.64 16.94
2943 158.2294 621.64 609.86 17.76
2944 158.2794 624.37 611.14 17.77
2945 158.3294 604.55 612.46 17.44
2946 158.3794 607.74 613.85 17.48
2947 158.4295 608.23 615.29 17.54
2948 158.4794 644.42 616.79 18.00
2949 158.5294 593.06 618.35 17.28
2950 158.5794 636.21 619.97 17.92
2951 158.6295 622.94 621.66 17.75
2952 158.6794 632.06 623.38 17.80
2953 158.7295 617.81 625.18 17.68
2954 158.7794 650.54 627.03 18.20
2955 158.8294 653.30 628.95 18.16
2956 158.8794 679.70 630.93 18.56
2957 158.9297 661.82 632.99 18.58
2958 158.9797 662.64 635.11 18.51
2959 159.0297 671.24 637.29 18.68
2960 159.0797 698.08 639.53 19.05
2961 159.1297 693.17 641.84 19.02
2962 159.1797 710.12 644.20 19.16
2963 159.2297 694.21 646.63 18.92
2964 159.2797 713.93 649.11 19.22
2965 159.3297 714.49 651.65 19.30
2966 159.3797 732.46 654.25 19.50
2967 159.4296 723.09 656.89 19.38
2968 159.4796 720.90 659.58 19.32
2969 159.5296 720.05 662.32 19.38
2970 159.5796 765.83 665.10 19.93
2971 159.6296 759.11 667.91 19.85
2972 159.6796 716.38 670.75 19.18
2973 159.7296 715.77 673.62 19.32
2974 159.7796 731.71 676.51 19.43
2975 159.8296 742.51 679.41 19.66
2976 159.8796 766.02 682.31 20.03
2977 159.9296 769.13 685.21 20.00
2978 159.9796 758.42 688.09 19.90
2979 160.0296 759.96 690.96 19.87
2980 160.0796 782.66 693.79 20.12
2981 160.1296 746.76 696.58 19.74
2982 160.2018 776.31 700.52 19.38
2983 160.2518 767.27 703.16 19.30
2984 160.3018 781.60 705.72 19.47
2985 160.3518 783.92 708.18 19.46
2986 160.4018 802.70 710.54 19.73
2987 160.4518 768.87 712.78 19.26
2988 160.5018 737.73 714.89 18.91
2989 160.5518 724.09 716.84 18.71
2990 160.6018 742.12 718.65 18.98
2991 160.6518 684.47 720.28 18.24
2992 160.7017 728.15 721.73 18.76
2993 160.7517 733.09 722.99 18.86
2994 160.8017 734.29 724.05 18.87
2995 160.8517 748.32 724.91 19.07
2996 160.9017 739.38 725.56 18.95
2997 160.9517 713.29 725.99 18.61
2998 161.0017 718.08 726.20 18.64
2999 161.0517 706.14 726.19 18.51
3000 161.1016 703.44 725.97 18.51
3001 161.1517 673.99 725.53 18.11
3002 161.2017 716.56 724.88 18.66
3003 161.2517 697.02 724.02 18.41
3004 161.3017 661.06 722.97 17.92
3005 161.3517 684.74 721.72 18.27
3006 161.4017 689.45 720.30 18.35
3007 161.4603 680.99 718.42 18.44
3008 161.5104 651.54 716.64 18.04
3009 161.5604 652.94 714.72 18.07
3010 161.6103 714.72 711.22 18.88
3011 161.6603 687.33 709.07 18.52
3012 161.7103 640.84 706.80 17.89
3013 161.7603 676.98 704.44 18.43
3014 161.8103 646.67 702.00 17.97
3015 161.8603 655.31 699.49 18.12
3016 161.9103 659.75 696.93 18.19
3017 161.9603 635.32 694.31 17.85
3018 162.0102 630.58 691.66 17.74
3019 162.0602 618.00 688.98 17.61
3020 162.1102 631.60 686.29 17.78
3021 162.1602 627.91 683.58 17.72
3022 162.2103 657.48 680.87 18.07
3023 162.2602 615.39 678.18 17.57
3024 162.3102 607.33 675.49 17.41
3025 162.3602 656.08 672.83 18.18
3026 162.4103 611.56 670.19 17.52
3027 162.4602 619.35 667.59 17.57
3028 162.5102 639.20 665.02 17.90
3029 162.5602 616.41 662.49 17.55
3030 162.6102 634.50 660.00 17.84
3031 162.6602 603.55 657.57 17.37
3032 162.7049 576.55 655.44 24.34
3033 162.7549 582.39 653.10 24.46
3034 162.8049 633.47 650.82 25.48
3035 162.8549 601.84 648.60 24.82
3036 162.9049 587.16 646.44 24.51
3037 162.9549 623.06 644.34 25.17
3038 163.0049 583.76 642.30 24.45
3039 163.0549 614.10 640.33 25.00
3040 163.1049 629.78 638.42 25.36
3041 163.1549 610.98 636.57 24.98
3042 163.2049 625.35 634.79 25.37
3043 163.2548 631.90 633.08 25.42
3044 163.3049 634.65 631.42 25.46
3045 163.3549 593.20 629.83 24.66
3046 163.4049 584.74 628.30 24.43
3047 163.4549 545.87 626.84 23.57
3048 163.5048 578.67 625.43 24.35
3049 163.5549 600.59 624.09 24.73
3050 163.6049 626.06 622.80 25.32
3051 163.6549 616.01 621.58 25.17
3052 163.7049 596.56 620.40 24.70
3053 163.7549 650.61 619.29 25.80
3054 163.8048 667.63 618.22 26.14
3055 163.8549 653.24 617.21 25.83
3056 163.9049 654.32 616.25 25.85
loop_
_pd_proc_info_excluded_regions
'from 1.5 to 11.826'
loop_
_refln_index_h
_refln_index_k
_refln_index_l
_refln_F_squared_calc
_refln_F_squared_meas
_refln_observed_status
_refln_d_spacing
1 1 1 82.01 98.36 o 4.842399
2 0 2 207.13 302.68 o 2.965352
1 1 3 2155.94 1885.28 o 2.528860
2 2 2 48691.46 50222.52 o 2.421199
0 0 4 17418.82 18280.00 o 2.096820
3 1 3 1982.00 2121.49 o 1.924174
2 2 4 501.59 569.37 o 1.712046
1 1 5 45.84 50.27 o 1.614133
3 3 3 8836.37 9690.55 o 1.614133
4 0 4 6172.24 6269.93 o 1.482676
3 1 5 42.26 73.77 o 1.417709
4 2 4 240.34 233.18 o 1.397880
2 0 6 855.72 750.67 o 1.326146
3 3 5 1489.27 1117.21 o 1.279048
2 2 6 31794.85 33252.49 o 1.264430
4 4 4 9912.29 10450.49 o 1.210600
5 1 5 2339.56 2860.75 o 1.174454
1 1 7 1585.64 1938.88 o 1.174454
4 2 6 50.31 40.53 o 1.120798
3 1 7 6397.74 6814.30 o 1.091931
5 3 5 2.44 2.60 o 1.091931
0 0 8 2602.15 2500.57 o 1.048410
3 3 7 5378.06 5516.73 o 1.024669
4 4 6 145.56 104.39 o 1.017107
2 2 8 194.18 87.76 o 0.988451
6 0 6 146.87 66.38 o 0.988451
5 5 5 1363.35 1145.41 o 0.968480
5 1 7 1633.18 1372.10 o 0.968480
6 2 6 20948.63 17567.28 o 0.962087
4 0 8 5395.89 4651.31 o 0.937726
1 1 9 1670.25 1710.51 o 0.920624
5 3 7 770.81 789.40 o 0.920624
4 2 8 563.48 291.11 o 0.915127
6 4 6 1730.83 1497.97 o 0.894087
3 1 9 0.03 0.02 < 0.879226
4 4 8 1000.39 573.77 o 0.856023
3 3 9 103.75 88.13 o 0.842953
7 1 7 3278.65 2785.12 o 0.842953
5 5 7 15.55 13.21 o 0.842953
2 0 10 5.17 4.37 o 0.822441
6 2 8 508.54 429.25 o 0.822441
1 1 1 15968.34 14426.36 o 4.842399
2 0 2 3458.61 3843.14 o 2.965352
1 1 3 21482.53 22250.89 o 2.528860
2 2 2 4935.08 3747.89 o 2.421199
0 0 4 95799.62 93907.60 o 2.096820
3 1 3 2001.66 1638.85 o 1.924174
2 2 4 1501.52 1935.97 o 1.712046
3 3 3 6481.30 6754.55 o 1.614133
1 1 5 22293.19 23233.06 o 1.614133
4 0 4 88700.84 93511.73 o 1.482676
3 1 5 4411.75 4611.74 o 1.417709
4 2 4 82.85 168.03 o 1.397880
2 0 6 780.46 1072.06 o 1.326146
3 3 5 9193.06 10000.22 o 1.279048
2 2 6 5909.24 6142.21 o 1.264430
4 4 4 29566.87 31701.39 o 1.210600
1 1 7 1004.56 1015.19 o 1.174454
5 1 5 5513.08 5571.43 o 1.174454
4 2 6 1144.42 1140.70 o 1.120798
5 3 5 9361.46 9849.07 o 1.091931
3 1 7 3834.55 4034.28 o 1.091931
0 0 8 37218.37 36121.41 o 1.048410
3 3 7 154.78 80.73 o 1.024669
4 4 6 24.52 19.73 < 1.017107
6 0 6 1366.09 1249.29 o 0.988451
2 2 8 707.31 646.84 o 0.988451
5 5 5 9668.81 10410.09 o 0.968480
5 1 7 4655.35 5012.27 o 0.968480
6 2 6 4425.85 4703.37 o 0.962087
4 0 8 13401.61 13333.48 o 0.937726
5 3 7 705.94 730.50 o 0.920624
1 1 9 2694.15 2787.89 o 0.920624
4 2 8 75.86 82.83 o 0.915127
6 4 6 184.63 364.44 o 0.894087
3 1 9 5450.45 5628.97 o 0.879226
4 4 8 20213.02 20158.62 o 0.856023
3 3 9 1275.53 1607.73 o 0.842953
5 5 7 956.44 1205.53 o 0.842953
7 1 7 165.32 208.38 o 0.842953
6 2 8 332.39 299.86 o 0.822441
2 0 10 622.58 561.63 o 0.822441
5 1 9 5555.03 5209.03 o 0.810829
7 3 7 1241.27 1163.95 o 0.810829
2 2 10 3364.72 3355.03 o 0.807067
6 6 6 3283.03 3273.57 o 0.807067
5 3 9 1412.48 1696.21 o 0.782118
6 4 8 34.11 36.18 o 0.778739
4 2 10 226.80 271.06 o 0.765650
7 5 7 1900.37 1801.62 o 0.756256
1 1 11 1582.19 1499.97 o 0.756256
8 0 8 12490.48 12145.44 o 0.741338
5 5 9 1779.10 1884.53 o 0.732800
3 1 11 111.00 117.57 o 0.732800
7 1 9 693.84 734.95 o 0.732800
4 4 10 4.55 3.44 o 0.730019
8 2 8 119.09 89.87 o 0.730019
6 0 10 53.17 46.16 o 0.719203
6 6 8 502.17 435.96 o 0.719203
3 3 11 946.69 878.08 o 0.711400
7 3 9 2275.46 2110.56 o 0.711400
6 2 10 2564.62 2541.40 o 0.708855
0 0 12 4419.18 4547.71 o 0.698940
8 4 8 4561.59 4694.26 o 0.698940
5 1 11 231.43 276.78 o 0.691771
7 7 7 10.98 13.13 o 0.691771
2 2 12 243.71 140.27 o 0.680298
6 4 10 599.07 344.79 o 0.680298
5 3 11 1284.59 1354.79 o 0.673683
7 5 9 2119.75 2235.59 o 0.673683
4 0 12 8203.99 7168.13 o 0.663073
9 1 9 1073.22 1073.11 o 0.656942
8 6 8 62.01 55.72 o 0.654937
4 2 12 40.13 36.05 o 0.654937
8 2 10 293.13 186.41 o 0.647093
5 5 11 1268.85 1192.41 o 0.641391
9 3 9 2300.41 2161.81 o 0.641391
1 1 13 2556.29 2402.28 o 0.641391
7 1 11 814.05 765.01 o 0.641391
6 6 10 2001.66 1678.74 o 0.639524
4 4 12 2907.84 2768.50 o 0.632215
