#------------------------------------------------------------------------------
#$Date: 2018-07-22 07:57:33 +0300 (Sun, 22 Jul 2018) $
#$Revision: 209186 $
#$URL: file:///home/coder/svn-repositories/cod/cif/4/34/42/4344203.cif $
#------------------------------------------------------------------------------
#
# This file is available in the Crystallography Open Database (COD),
# http://www.crystallography.net/
#
# All data on this site have been placed in the public domain by the
# contributors.
#
data_4344203
loop_
_publ_author_name
'Abakumov, Artem M.'
'Morozov, Vladimir A.'
'Tsirlin, Alexander A.'
'Verbeeck, Johan'
'Hadermann, Joke'
_publ_section_title
;
 Cation Ordering and Flexibility of the BO4(2-) Tetrahedra in
 Incommensurately Modulated CaEu2(BO4)4 (B = Mo, W) Scheelites.
;
_journal_name_full               'Inorganic chemistry'
_journal_page_first              140821103327002
_journal_paper_doi               10.1021/ic5015412
_journal_year                    2014
_chemical_formula_sum            'Ca Eu2 O16 W4'
_chemical_formula_weight         1335.4
_space_group_crystal_system      monoclinic
_space_group_IT_number           15
_space_group_name_Hall           '-I 2b'
_space_group_name_H-M_alt        'I 1 1 2/b'
_space_group_ssg_name            I2/b(\a\b0)00
_cell_angle_alpha                90
_cell_angle_beta                 90
_cell_angle_gamma                91.15110(10)
_cell_formula_units_Z            1
_cell_length_a                   5.238740(10)
_cell_length_b                   5.266350(10)
_cell_length_c                   11.46319(2)
_cell_measurement_temperature    293
_cell_modulation_dimension       1
_cell_volume                     316.1946(10)
_diffrn_ambient_temperature      293
_diffrn_measurement_device_type  synchrotron
_diffrn_radiation_probe          x-ray
_diffrn_radiation_wavelength     0.39996
_exptl_absorpt_coefficient_mu    10.346
_exptl_crystal_density_diffrn    7.0107
_exptl_crystal_F_000             570
_pd_char_colour                  white
_pd_instr_location               ' ?'
_pd_meas_2theta_range_inc        0.002
_pd_meas_2theta_range_max        40.000
_pd_meas_2theta_range_min        1.002
_pd_meas_number_of_points        19500
_pd_proc_2theta_range_inc        0.002
_pd_proc_2theta_range_max        35.106
_pd_proc_2theta_range_min        2.328
_pd_proc_ls_background_function  '18 Legendre polynoms'
_pd_proc_ls_pref_orient_corr     none
_pd_proc_ls_profile_function     Pseudo-Voigt
_pd_proc_ls_prof_R_factor        0.0689
_pd_proc_ls_prof_wR_expected     0.0502
_pd_proc_ls_prof_wR_factor       0.0893
_refine_ls_goodness_of_fit_all   1.78
_refine_ls_number_constraints    1
_refine_ls_number_parameters     58
_refine_ls_number_restraints     0
_refine_ls_R_factor_all          0.0504
_refine_ls_R_factor_gt           0.0504
_refine_ls_shift/su_max          0.0632
_refine_ls_shift/su_mean         0.0136
_refine_ls_weighting_scheme      sigma
_refine_ls_wR_factor_all         0.0500
_refine_ls_wR_factor_gt          0.0500
_cod_data_source_file            ic5015412_si_002.cif
_cod_data_source_block           I
_cod_depositor_comments
;
 Updating space group information.

 Antanas Vaitkus,
 2018-07-23

The following automatic conversions were performed:

'_diffrn_radiation_probe' value 'X-ray' changed to 'x-ray' according
to /home/saulius/struct/CIF-dictionaries/IUCr/cif_core.dic dictionary
named 'cif_core.dic' version 2.4.5 from 2014-11-21.

Automatic conversion script
Id: cif_fix_values 3866 2015-08-17 15:13:47Z robertas 
;
_cod_original_cell_volume        316.1945(10)
_cod_original_formula_sum        'Ca1 Eu2 O16 W4'
_cod_database_code               4344203
loop_
_space_group_symop_id
_space_group_symop_operation_xyz
1 x,y,z
2 -x,-y+0.5,z
3 x+0.5,y+0.5,z+0.5
4 -x+0.5,-y,z+0.5
5 -x,-y,-z
6 x,y+0.5,-z
7 -x+0.5,-y+0.5,-z+0.5
8 x+0.5,y,-z+0.5
loop_
_space_group_symop_ssg_id
_space_group_symop_ssg_operation_algebraic
1 x1,x2,x3,x4
2 -x1,-x2+1/2,x3,-x4
3 -x1,-x2,-x3,-x4
4 x1,x2+1/2,-x3,x4
5 x1+1/2,x2+1/2,x3+1/2,x4
6 -x1+1/2,-x2,x3+1/2,-x4
7 -x1+1/2,-x2+1/2,-x3+1/2,-x4
8 x1+1/2,x2,-x3+1/2,x4
loop_
_atom_site_label
_atom_site_type_symbol
_atom_site_fract_x
_atom_site_fract_y
_atom_site_fract_z
_atom_site_adp_type
_atom_site_U_iso_or_equiv
_atom_site_site_symmetry_mutiplicity
_atom_site_occupancy
_atom_site_calc_flag
Eu Eu 0.5 0.25 0.87438(10) Uiso 0.0068(2) 4 0.5 d
Ca Ca 0.5 0.25 0.87438(10) Uiso 0.0068(2) 4 0.25 d
W W 0.5 0.25 0.37109(5) Uiso 0.01349(13) 4 1 d
O1 O 0.7370(8) 0.4025(9) 0.4600(4) Uiso 0.0185(11) 8 1 d
O2 O 0.3385(8) 0.4912(8) 0.2890(4) Uiso 0.0185(11) 8 1 d
loop_
_atom_site_displace_Fourier_atom_site_label
_atom_site_displace_Fourier_axis
_atom_site_displace_Fourier_wave_vector_seq_id
_atom_site_displace_Fourier_param_cos
_atom_site_displace_Fourier_param_sin
Eu x 1 0 0.0121(4)
Eu y 1 0 0.0176(5)
Eu z 1 0 0
Ca x 1 0 0.0121(4)
Ca y 1 0 0.0176(5)
Ca z 1 0 0
W x 1 0 -0.0175(2)
W y 1 0 -0.0170(2)
W z 1 -0.00270(14) 0
O1 x 1 0.008(2) -0.011(2)
O1 y 1 -0.020(2) -0.0104(19)
O1 z 1 0.0089(8) 0.0079(9)
O2 x 1 0.014(2) -0.0219(19)
O2 y 1 0.034(2) 0
O2 z 1 0.0059(8) 0.0052(9)
loop_
_atom_site_Fourier_wave_vector_seq_id
_jana_atom_site_fourier_wave_vector_q1_coeff
1 1
loop_
_atom_site_occ_Fourier_atom_site_label
_atom_site_occ_Fourier_wave_vector_seq_id
_atom_site_occ_Fourier_param_cos
_atom_site_occ_Fourier_param_sin
Eu 1 0.4433 0
Ca 1 -0.25 0
loop_
_atom_type_symbol
_atom_type_scat_dispersion_real
_atom_type_scat_dispersion_imag
_atom_type_scat_source
Ca 0.0900 0.0992 'International Tables Vol C tables 4.2.6.8 and 6.1.1.1'
Eu -0.8763 1.3592 'International Tables Vol C tables 4.2.6.8 and 6.1.1.1'
O 0.0016 0.0017 'International Tables Vol C tables 4.2.6.8 and 6.1.1.1'
W -0.5428 2.6512 'International Tables Vol C tables 4.2.6.8 and 6.1.1.1'
loop_
_cell_wave_vector_seq_id
_cell_wave_vector_x
_cell_wave_vector_y
_cell_wave_vector_z
1 0.561530 0.770862 0.000000
loop_
_geom_angle_atom_site_label_1
_geom_angle_atom_site_label_2
_geom_angle_atom_site_label_3
_geom_angle_site_ssg_symmetry_1
_geom_angle_site_ssg_symmetry_3
_geom_angle_av
_geom_angle_min
_geom_angle_max
Ca Eu O1 . 5_4455 0 0 0
Ca Eu O1 . 6_6655 0 0 0
Ca Eu O1 . 7_6565 0 0 0
Ca Eu O1 . 8_4565 0 0 0
Ca Eu O2 . 5_5455 0 0 0
Ca Eu O2 . 6_5655 0 0 0
Ca Eu O2 . 3_6665 0 0 0
Ca Eu O2 . 4_5465 0 0 0
O1 Eu O1 5_4455 6_6655 132.9(4) 129.4(4) 137.4(4)
O1 Eu O1 5_4455 7_6565 76.0(4) 70.4(4) 82.7(4)
O1 Eu O1 5_4455 8_4565 68.4(4) 65.7(4) 70.6(4)
O1 Eu O2 5_4455 5_5455 97.9(3) 91.1(3) 105.8(4)
O1 Eu O2 5_4455 6_5655 100.3(4) 92.4(4) 106.9(4)
O1 Eu O2 5_4455 3_6665 153.3(3) 151.0(4) 155.2(3)
O1 Eu O2 5_4455 4_5465 73.5(3) 70.5(4) 76.0(3)
O1 Eu O1 6_6655 7_6565 68.5(4) 65.9(4) 70.5(4)
O1 Eu O1 6_6655 8_4565 76.2(4) 70.4(4) 82.6(4)
O1 Eu O2 6_6655 5_5455 100.4(4) 92.4(4) 106.8(4)
O1 Eu O2 6_6655 6_5655 98.1(3) 91.1(3) 105.5(3)
O1 Eu O2 6_6655 3_6665 73.5(3) 70.5(4) 76.1(3)
O1 Eu O2 6_6655 4_5465 153.3(3) 150.9(4) 155.1(3)
O1 Eu O1 7_6565 8_4565 80.5(4) 79.8(4) 81.3(4)
O1 Eu O2 7_6565 5_5455 73.4(4) 71.8(4) 74.4(4)
O1 Eu O2 7_6565 6_5655 152.5(4) 151.1(4) 154.0(4)
O1 Eu O2 7_6565 3_6665 124.9(4) 121.6(4) 128.3(4)
O1 Eu O2 7_6565 4_5465 126.3(3) 124.5(3) 127.7(3)
O1 Eu O2 8_4565 5_5455 152.4(4) 151.0(4) 154.1(4)
O1 Eu O2 8_4565 6_5655 73.3(4) 71.8(4) 74.4(4)
O1 Eu O2 8_4565 3_6665 126.3(3) 124.5(3) 127.7(3)
O1 Eu O2 8_4565 4_5465 124.8(4) 121.5(4) 128.4(4)
O2 Eu O2 5_5455 6_5655 132.8(4) 131.4(4) 135.2(4)
O2 Eu O2 5_5455 3_6665 76.3(3) 72.4(3) 80.3(3)
O2 Eu O2 5_5455 4_5465 68.4(3) 65.8(3) 71.6(3)
O2 Eu O2 6_5655 3_6665 68.5(3) 65.7(3) 71.6(3)
O2 Eu O2 6_5655 4_5465 76.2(3) 72.3(3) 80.4(3)
O2 Eu O2 3_6665 4_5465 80.5(3) 78.9(3) 82.7(3)
Eu Ca O1 . 5_4455 0 0 0
Eu Ca O1 . 6_6655 0 0 0
Eu Ca O1 . 7_6565 0 0 0
Eu Ca O1 . 8_4565 0 0 0
Eu Ca O2 . 5_5455 0 0 0
Eu Ca O2 . 6_5655 0 0 0
Eu Ca O2 . 3_6665 0 0 0
Eu Ca O2 . 4_5465 0 0 0
O1 Ca O1 5_4455 6_6655 132.9(4) 129.4(4) 137.4(4)
O1 Ca O1 5_4455 7_6565 76.0(4) 70.4(4) 82.7(4)
O1 Ca O1 5_4455 8_4565 68.4(4) 65.7(4) 70.6(4)
O1 Ca O2 5_4455 5_5455 97.9(3) 91.1(3) 105.8(4)
O1 Ca O2 5_4455 6_5655 100.3(4) 92.4(4) 106.9(4)
O1 Ca O2 5_4455 3_6665 153.3(3) 151.0(4) 155.2(3)
O1 Ca O2 5_4455 4_5465 73.5(3) 70.5(4) 76.0(3)
O1 Ca O1 6_6655 7_6565 68.5(4) 65.9(4) 70.5(4)
O1 Ca O1 6_6655 8_4565 76.2(4) 70.4(4) 82.6(4)
O1 Ca O2 6_6655 5_5455 100.4(4) 92.4(4) 106.8(4)
O1 Ca O2 6_6655 6_5655 98.1(3) 91.1(3) 105.5(3)
O1 Ca O2 6_6655 3_6665 73.5(3) 70.5(4) 76.1(3)
O1 Ca O2 6_6655 4_5465 153.3(3) 150.9(4) 155.1(3)
O1 Ca O1 7_6565 8_4565 80.5(4) 79.8(4) 81.3(4)
O1 Ca O2 7_6565 5_5455 73.4(4) 71.8(4) 74.4(4)
O1 Ca O2 7_6565 6_5655 152.5(4) 151.1(4) 154.0(4)
O1 Ca O2 7_6565 3_6665 124.9(4) 121.6(4) 128.3(4)
O1 Ca O2 7_6565 4_5465 126.3(3) 124.5(3) 127.7(3)
O1 Ca O2 8_4565 5_5455 152.4(4) 151.0(4) 154.1(4)
O1 Ca O2 8_4565 6_5655 73.3(4) 71.8(4) 74.4(4)
O1 Ca O2 8_4565 3_6665 126.3(3) 124.5(3) 127.7(3)
O1 Ca O2 8_4565 4_5465 124.8(4) 121.5(4) 128.4(4)
O2 Ca O2 5_5455 6_5655 132.8(4) 131.4(4) 135.2(4)
O2 Ca O2 5_5455 3_6665 76.3(3) 72.4(3) 80.3(3)
O2 Ca O2 5_5455 4_5465 68.4(3) 65.8(3) 71.6(3)
O2 Ca O2 6_5655 3_6665 68.5(3) 65.7(3) 71.6(3)
O2 Ca O2 6_5655 4_5465 76.2(3) 72.3(3) 80.4(3)
O2 Ca O2 3_6665 4_5465 80.5(3) 78.9(3) 82.7(3)
O1 W O1 . 2_6555 110.8(5) 101.4(5) 119.4(5)
O1 W O1 . 3_6665 69.5(5) 66.4(5) 72.5(5)
O1 W O1 . 4_5465 67.2(4) 59.1(5) 74.1(4)
O1 W O2 . . 108.4(5) 102.5(5) 114.3(5)
O1 W O2 . 2_6555 106.0(5) 103.4(5) 109.6(5)
O1 W O2 . 7_5555 172.1(4) 166.5(4) 177.2(4)
O1 W O2 . 8_5555 74.8(4) 65.4(4) 85.7(4)
O1 W O1 2_6555 3_6665 67.0(4) 58.8(5) 74.4(4)
O1 W O1 2_6555 4_5465 69.6(5) 66.4(4) 72.5(5)
O1 W O2 2_6555 . 105.9(5) 103.3(6) 109.4(5)
O1 W O2 2_6555 2_6555 108.5(5) 102.7(5) 114.1(5)
O1 W O2 2_6555 7_5555 75.0(4) 65.6(4) 85.7(4)
O1 W O2 2_6555 8_5555 172.3(4) 166.5(4) 176.9(4)
O1 W O1 3_6665 4_5465 98.1(3) 97.4(3) 98.8(3)
O1 W O2 3_6665 . 73.0(4) 66.6(4) 78.5(4)
O1 W O2 3_6665 2_6555 170.6(4) 164.7(4) 175.2(4)
O1 W O2 3_6665 7_5555 115.9(3) 110.3(3) 121.2(3)
O1 W O2 3_6665 8_5555 114.2(3) 112.3(3) 116.7(3)
O1 W O2 4_5465 . 170.6(4) 164.9(4) 175.2(4)
O1 W O2 4_5465 2_6555 72.9(4) 66.5(4) 78.7(4)
O1 W O2 4_5465 7_5555 114.1(3) 112.3(3) 116.6(3)
O1 W O2 4_5465 8_5555 115.7(3) 110.4(3) 121.2(3)
O2 W O2 . 2_6555 116.1(5) 106.5(5) 127.5(5)
O2 W O2 . 7_5555 71.0(3) 67.3(4) 75.1(4)
O2 W O2 . 8_5555 69.4(4) 65.1(4) 73.4(4)
O2 W O2 2_6555 7_5555 69.2(4) 64.8(4) 73.6(4)
O2 W O2 2_6555 8_5555 71.0(3) 67.4(3) 75.2(3)
O2 W O2 7_5555 8_5555 99.5(3) 95.5(3) 102.7(3)
Eu O1 Eu 5_5545 7_6565 103.9(5) 100.4(4) 106.8(5)
Eu O1 Ca 5_5545 5_5545 0.0(5) 0.0(5) 0.0(5)
Eu O1 Ca 5_5545 7_6565 103.9(5) 100.4(4) 106.8(5)
Eu O1 W 5_5545 . 119.2(5) 108.2(5) 128.9(6)
Eu O1 W 5_5545 3_6665 91.9(4) 90.8(3) 93.4(4)
Eu O1 O1 5_5545 2_6555 149.5(5) 143.7(5) 155.0(6)
Eu O1 O1 5_5545 2_7555 84.2(4) 82.7(4) 85.6(4)
Eu O1 O1 5_5545 3_6665 109.9(5) 102.3(5) 117.0(5)
Eu O1 O1 5_5545 3_7665 52.2(3) 48.9(3) 55.3(3)
Eu O1 O1 5_5545 4_5465 145.1(6) 140.4(6) 149.5(6)
Eu O1 O1 5_5545 4_5565 56.1(3) 54.7(3) 57.5(4)
Eu O1 O2 5_5545 . 90.9(4) 82.0(4) 99.0(4)
Eu O1 O2 5_5545 2_6555 109.4(4) 104.3(4) 113.9(4)
Eu O1 O2 5_5545 2_6655 40.5(2) 35.9(2) 44.7(3)
Eu O1 O2 5_5545 3_6665 108.5(4) 105.7(4) 111.5(4)
Eu O1 O2 5_5545 8_5555 53.2(3) 50.4(2) 56.2(3)
Eu O1 Ca 7_6565 5_5545 103.9(5) 100.4(4) 106.8(4)
Eu O1 Ca 7_6565 7_6565 0.0(5) 0.0(5) 0.0(5)
Eu O1 W 7_6565 . 131.7(6) 121.3(6) 143.8(7)
Eu O1 W 7_6565 3_6665 86.5(3) 84.0(3) 89.5(3)
Eu O1 O1 7_6565 2_6555 106.6(5) 100.1(4) 114.4(5)
Eu O1 O1 7_6565 2_7555 49.6(3) 47.8(3) 51.9(3)
Eu O1 O1 7_6565 3_6665 110.6(5) 103.6(4) 118.2(5)
Eu O1 O1 7_6565 3_7665 51.7(3) 48.4(3) 54.4(3)
Eu O1 O1 7_6565 4_5465 55.2(3) 52.2(3) 58.9(4)
Eu O1 O1 7_6565 4_5565 93.8(4) 90.3(4) 97.1(5)
Eu O1 O2 7_6565 . 164.9(5) 155.6(5) 175.3(6)
Eu O1 O2 7_6565 2_6555 110.8(5) 106.8(5) 114.9(5)
Eu O1 O2 7_6565 2_6655 137.9(5) 130.7(4) 143.8(4)
Eu O1 O2 7_6565 3_6665 52.7(3) 49.7(3) 56.7(3)
Eu O1 O2 7_6565 8_5555 133.7(5) 130.5(6) 136.7(6)
Ca O1 Ca 5_5545 7_6565 103.9(5) 100.4(4) 106.8(5)
Ca O1 W 5_5545 . 119.2(5) 108.2(5) 128.9(6)
Ca O1 W 5_5545 3_6665 91.9(4) 90.8(3) 93.4(4)
Ca O1 O1 5_5545 2_6555 149.5(5) 143.7(5) 155.0(6)
Ca O1 O1 5_5545 2_7555 84.2(4) 82.7(4) 85.6(4)
Ca O1 O1 5_5545 3_6665 109.9(5) 102.3(5) 117.0(5)
Ca O1 O1 5_5545 3_7665 52.2(3) 48.9(3) 55.3(3)
Ca O1 O1 5_5545 4_5465 145.1(6) 140.4(6) 149.5(6)
Ca O1 O1 5_5545 4_5565 56.1(3) 54.7(3) 57.5(4)
Ca O1 O2 5_5545 . 90.9(4) 82.0(4) 99.0(4)
Ca O1 O2 5_5545 2_6555 109.4(4) 104.3(4) 113.9(4)
Ca O1 O2 5_5545 2_6655 40.5(2) 35.9(2) 44.7(3)
Ca O1 O2 5_5545 3_6665 108.5(4) 105.7(4) 111.5(4)
Ca O1 O2 5_5545 8_5555 53.2(3) 50.4(2) 56.2(3)
Ca O1 W 7_6565 . 131.7(6) 121.3(6) 143.8(7)
Ca O1 W 7_6565 3_6665 86.5(3) 84.0(3) 89.5(3)
Ca O1 O1 7_6565 2_6555 106.6(5) 100.1(4) 114.4(5)
Ca O1 O1 7_6565 2_7555 49.6(3) 47.8(3) 51.9(3)
Ca O1 O1 7_6565 3_6665 110.6(5) 103.6(4) 118.2(5)
Ca O1 O1 7_6565 3_7665 51.7(3) 48.4(3) 54.4(3)
Ca O1 O1 7_6565 4_5465 55.2(3) 52.2(3) 58.9(4)
Ca O1 O1 7_6565 4_5565 93.8(4) 90.3(4) 97.1(5)
Ca O1 O2 7_6565 . 164.9(5) 155.6(5) 175.3(6)
Ca O1 O2 7_6565 2_6555 110.8(5) 106.8(5) 114.9(5)
Ca O1 O2 7_6565 2_6655 137.9(5) 130.7(4) 143.8(4)
Ca O1 O2 7_6565 3_6665 52.7(3) 49.7(3) 56.7(3)
Ca O1 O2 7_6565 8_5555 133.7(5) 130.5(6) 136.7(6)
W O1 W . 3_6665 110.5(5) 107.7(6) 113.7(6)
W O1 O1 . 2_6555 34.6(3) 30.1(3) 39.5(3)
W O1 O1 . 2_7555 111.7(5) 107.0(5) 116.8(6)
W O1 O1 . 3_6665 74.6(5) 72.6(5) 77.4(5)
W O1 O1 . 3_7665 159.0(6) 152.5(6) 164.2(6)
W O1 O1 . 4_5465 76.7(5) 69.2(4) 85.6(6)
W O1 O1 . 4_5565 126.6(6) 118.9(6) 133.9(7)
W O1 O2 . . 36.0(3) 33.4(3) 38.6(3)
W O1 O2 . 2_6555 37.2(3) 34.8(3) 39.3(3)
W O1 O2 . 2_6655 90.0(4) 82.8(4) 96.7(5)
W O1 O2 . 3_6665 122.5(6) 118.5(6) 127.3(6)
W O1 O2 . 8_5555 69.4(4) 60.2(4) 77.2(4)
W O1 O1 3_6665 2_6555 88.7(4) 87.2(4) 90.0(4)
W O1 O1 3_6665 2_7555 132.6(4) 127.8(4) 138.4(5)
W O1 O1 3_6665 3_6665 35.9(3) 34.6(3) 37.2(3)
W O1 O1 3_6665 3_7665 88.7(4) 85.8(4) 92.1(4)
W O1 O1 3_6665 4_5465 111.8(4) 108.2(4) 116.0(5)
W O1 O1 3_6665 4_5565 36.0(3) 35.3(3) 36.7(3)
W O1 O2 3_6665 . 92.1(4) 87.0(4) 96.3(4)
W O1 O2 3_6665 2_6555 146.9(5) 146.5(5) 147.7(5)
W O1 O2 3_6665 2_6655 76.4(3) 75.0(3) 77.7(3)
W O1 O2 3_6665 3_6665 35.6(2) 34.24(19) 36.8(2)
W O1 O2 3_6665 8_5555 128.2(4) 121.9(4) 134.5(5)
O1 O1 O1 2_6555 2_7555 116.7(5) 114.8(5) 118.6(5)
O1 O1 O1 2_6555 3_6665 57.4(4) 53.3(4) 61.5(4)
O1 O1 O1 2_6555 3_7665 158.1(5) 154.3(5) 162.8(5)
O1 O1 O1 2_6555 4_5465 59.8(4) 57.1(4) 62.9(4)
O1 O1 O1 2_6555 4_5565 119.8(6) 119.0(5) 120.9(5)
O1 O1 O2 2_6555 . 58.7(4) 55.5(4) 62.3(4)
O1 O1 O2 2_6555 2_6555 60.1(4) 59.1(4) 61.2(4)
O1 O1 O2 2_6555 2_6655 110.9(5) 108.0(4) 114.5(5)
O1 O1 O2 2_6555 3_6665 89.2(4) 88.3(4) 90.2(4)
O1 O1 O2 2_6555 8_5555 103.9(5) 99.3(4) 107.9(5)
O1 O1 O1 2_7555 3_6665 159.0(5) 150.3(5) 169.3(5)
O1 O1 O1 2_7555 3_7665 52.5(4) 50.6(4) 54.5(4)
O1 O1 O1 2_7555 4_5465 61.0(4) 57.4(4) 64.6(5)
O1 O1 O1 2_7555 4_5565 119.0(5) 117.6(5) 120.1(5)
O1 O1 O2 2_7555 . 134.7(5) 132.4(5) 136.6(5)
O1 O1 O2 2_7555 2_6555 75.8(4) 70.9(4) 80.1(4)
O1 O1 O2 2_7555 2_6655 122.4(4) 116.8(4) 127.2(4)
O1 O1 O2 2_7555 3_6665 101.9(4) 96.5(4) 108.4(5)
O1 O1 O2 2_7555 8_5555 85.7(4) 81.8(4) 89.5(4)
O1 O1 O1 3_6665 3_7665 124.1(5) 122.3(5) 126.1(5)
O1 O1 O1 3_6665 4_5465 103.9(5) 97.9(5) 111.1(6)
O1 O1 O1 3_6665 4_5565 62.5(4) 58.4(4) 66.5(5)
O1 O1 O2 3_6665 . 61.9(4) 57.5(4) 65.6(4)
O1 O1 O2 3_6665 2_6555 111.3(5) 109.7(5) 113.1(5)
O1 O1 O2 3_6665 2_6655 75.9(4) 70.0(4) 81.8(4)
O1 O1 O2 3_6665 3_6665 59.9(4) 58.0(4) 62.1(4)
O1 O1 O2 3_6665 8_5555 114.8(5) 104.4(5) 124.5(6)
O1 O1 O1 3_7665 4_5465 101.5(5) 101.0(5) 102.1(5)
O1 O1 O1 3_7665 4_5565 66.6(4) 63.8(4) 69.4(4)
O1 O1 O2 3_7665 . 143.1(5) 134.9(5) 150.0(5)
O1 O1 O2 3_7665 2_6555 124.1(5) 120.5(5) 127.2(5)
O1 O1 O2 3_7665 2_6655 89.4(4) 84.1(4) 94.0(4)
O1 O1 O2 3_7665 3_6665 76.3(4) 72.4(4) 80.8(4)
O1 O1 O2 3_7665 8_5555 94.6(5) 93.1(5) 96.1(5)
O1 O1 O1 4_5465 4_5565 141.2(5) 139.6(6) 143.3(5)
O1 O1 O2 4_5465 . 112.3(5) 105.4(5) 120.2(5)
O1 O1 O2 4_5465 2_6555 63.3(4) 56.8(4) 69.9(4)
O1 O1 O2 4_5465 2_6655 165.6(5) 163.9(5) 168.0(5)
O1 O1 O2 4_5465 3_6665 81.7(4) 77.2(4) 86.7(4)
O1 O1 O2 4_5465 8_5555 117.9(5) 110.4(5) 124.9(5)
O1 O1 O2 4_5565 . 93.6(5) 86.5(4) 100.3(5)
O1 O1 O2 4_5565 2_6555 154.4(5) 147.6(5) 161.2(5)
O1 O1 O2 4_5565 2_6655 51.1(3) 48.5(3) 53.8(4)
O1 O1 O2 4_5565 3_6665 60.0(3) 56.4(3) 63.4(3)
O1 O1 O2 4_5565 8_5555 100.1(4) 94.2(4) 106.0(5)
O2 O1 O2 . 2_6555 63.8(4) 59.2(4) 69.5(4)
O2 O1 O2 . 2_6655 55.2(3) 50.1(3) 60.0(3)
O2 O1 O2 . 3_6665 121.7(5) 119.1(5) 123.7(5)
O2 O1 O2 . 8_5555 57.0(4) 50.7(3) 62.6(4)
O2 O1 O2 2_6555 2_6655 103.7(4) 99.1(4) 108.5(4)
O2 O1 O2 2_6555 3_6665 141.4(5) 138.8(5) 144.1(5)
O2 O1 O2 2_6555 8_5555 58.3(3) 56.6(3) 60.1(3)
O2 O1 O2 2_6655 3_6665 109.3(4) 107.4(4) 110.8(4)
O2 O1 O2 2_6655 8_5555 52.2(3) 47.6(2) 56.9(3)
O2 O1 O2 3_6665 8_5555 159.5(5) 156.9(5) 161.9(5)
Eu O2 Eu 5_4545 3_6665 103.4(3) 100.0(4) 107.5(5)
Eu O2 Ca 5_4545 5_4545 0.0(5) 0.0(5) 0.0(5)
Eu O2 Ca 5_4545 3_6665 103.4(3) 100.0(4) 107.5(5)
Eu O2 W 5_4545 . 121.7(5) 116.8(5) 127.9(6)
Eu O2 W 5_4545 7_5555 93.0(4) 87.9(3) 98.5(4)
Eu O2 O1 5_4545 . 109.8(4) 106.4(4) 113.5(5)
Eu O2 O1 5_4545 2_6555 91.9(4) 89.3(4) 95.0(4)
Eu O2 O1 5_4545 2_6655 40.0(2) 37.3(2) 43.0(3)
Eu O2 O1 5_4545 3_6665 53.7(3) 51.5(3) 56.2(3)
Eu O2 O1 5_4545 8_4555 109.6(5) 106.2(4) 113.5(4)
Eu O2 O2 5_4545 2_6555 150.5(5) 146.1(4) 154.3(5)
Eu O2 O2 5_4545 2_6655 83.9(3) 78.7(4) 90.3(4)
Eu O2 O2 5_4545 7_5555 113.3(5) 104.1(4) 122.8(5)
Eu O2 O2 5_4545 7_5655 51.7(3) 51.4(2) 52.1(3)
Eu O2 O2 5_4545 8_4555 55.5(3) 52.8(3) 58.4(3)
Eu O2 O2 5_4545 8_5555 144.5(4) 136.1(5) 154.6(6)
Eu O2 Ca 3_6665 5_4545 103.4(3) 100.0(4) 107.5(5)
Eu O2 Ca 3_6665 3_6665 0.0(5) 0.0(5) 0.0(5)
Eu O2 W 3_6665 . 128.8(6) 124.3(5) 133.0(6)
Eu O2 W 3_6665 7_5555 87.9(3) 84.6(3) 90.6(4)
Eu O2 O1 3_6665 . 110.8(5) 104.5(4) 117.9(5)
Eu O2 O1 3_6665 2_6555 163.8(5) 159.4(5) 168.1(6)
Eu O2 O1 3_6665 2_6655 87.8(3) 85.4(3) 90.9(4)
Eu O2 O1 3_6665 3_6665 132.5(4) 127.9(5) 138.3(5)
Eu O2 O1 3_6665 8_4555 53.5(3) 52.8(3) 54.4(3)
Eu O2 O2 3_6665 2_6555 105.5(4) 104.1(4) 107.1(4)
Eu O2 O2 3_6665 2_6655 49.6(3) 48.5(2) 50.7(2)
Eu O2 O2 3_6665 7_5555 111.4(4) 105.9(4) 116.0(5)
Eu O2 O2 3_6665 7_5655 51.8(3) 48.1(3) 55.9(3)
Eu O2 O2 3_6665 8_4555 93.7(4) 90.1(4) 97.3(4)
Eu O2 O2 3_6665 8_5555 55.8(3) 54.9(3) 56.7(3)
Ca O2 Ca 5_4545 3_6665 103.4(3) 100.0(4) 107.5(5)
Ca O2 W 5_4545 . 121.7(5) 116.8(5) 127.9(6)
Ca O2 W 5_4545 7_5555 93.0(4) 87.9(3) 98.5(4)
Ca O2 O1 5_4545 . 109.8(4) 106.4(4) 113.5(5)
Ca O2 O1 5_4545 2_6555 91.9(4) 89.3(4) 95.0(4)
Ca O2 O1 5_4545 2_6655 40.0(2) 37.3(2) 43.0(3)
Ca O2 O1 5_4545 3_6665 53.7(3) 51.5(3) 56.2(3)
Ca O2 O1 5_4545 8_4555 109.6(5) 106.2(4) 113.5(4)
Ca O2 O2 5_4545 2_6555 150.5(5) 146.1(4) 154.3(5)
Ca O2 O2 5_4545 2_6655 83.9(3) 78.7(4) 90.3(4)
Ca O2 O2 5_4545 7_5555 113.3(5) 104.1(4) 122.8(5)
Ca O2 O2 5_4545 7_5655 51.7(3) 51.4(2) 52.1(3)
Ca O2 O2 5_4545 8_4555 55.5(3) 52.8(3) 58.4(3)
Ca O2 O2 5_4545 8_5555 144.5(4) 136.1(5) 154.6(6)
Ca O2 W 3_6665 . 128.8(6) 124.3(5) 133.0(6)
Ca O2 W 3_6665 7_5555 87.9(3) 84.6(3) 90.6(4)
Ca O2 O1 3_6665 . 110.8(5) 104.5(4) 117.9(5)
Ca O2 O1 3_6665 2_6555 163.8(5) 159.4(5) 168.1(6)
Ca O2 O1 3_6665 2_6655 87.8(3) 85.4(3) 90.9(4)
Ca O2 O1 3_6665 3_6665 132.5(4) 127.9(5) 138.3(5)
Ca O2 O1 3_6665 8_4555 53.5(3) 52.8(3) 54.4(3)
Ca O2 O2 3_6665 2_6555 105.5(4) 104.1(4) 107.1(4)
Ca O2 O2 3_6665 2_6655 49.6(3) 48.5(2) 50.7(2)
Ca O2 O2 3_6665 7_5555 111.4(4) 105.9(4) 116.0(5)
Ca O2 O2 3_6665 7_5655 51.8(3) 48.1(3) 55.9(3)
Ca O2 O2 3_6665 8_4555 93.7(4) 90.1(4) 97.3(4)
Ca O2 O2 3_6665 8_5555 55.8(3) 54.9(3) 56.7(3)
W O2 W . 7_5555 109.2(4) 102.2(4) 115.1(5)
W O2 O1 . . 35.7(3) 32.3(3) 38.9(3)
W O2 O1 . 2_6555 36.8(3) 35.4(3) 37.8(3)
W O2 O1 . 2_6655 111.9(5) 106.2(4) 118.7(5)
W O2 O1 . 3_6665 71.6(4) 67.1(4) 76.6(4)
W O2 O1 . 8_4555 119.8(5) 109.0(5) 129.2(6)
W O2 O2 . 2_6555 32.0(3) 26.3(3) 36.7(3)
W O2 O2 . 2_6655 110.3(5) 106.3(5) 115.1(5)
W O2 O2 . 7_5555 72.0(3) 65.7(4) 77.4(4)
W O2 O2 . 7_5655 159.5(5) 153.0(6) 167.6(6)
W O2 O2 . 8_4555 128.9(5) 120.9(4) 136.9(5)
W O2 O2 . 8_5555 73.3(4) 68.2(4) 78.2(4)
W O2 O1 7_5555 . 144.4(4) 137.1(5) 151.0(5)
W O2 O1 7_5555 2_6555 92.6(4) 86.6(3) 98.8(4)
W O2 O1 7_5555 2_6655 129.5(4) 125.8(4) 133.6(4)
W O2 O1 7_5555 3_6665 129.0(5) 124.7(4) 133.3(5)
W O2 O1 7_5555 8_4555 36.2(3) 33.2(2) 39.0(3)
W O2 O2 7_5555 2_6555 89.4(3) 84.8(3) 93.4(4)
W O2 O2 7_5555 2_6655 134.3(4) 133.8(4) 135.0(5)
W O2 O2 7_5555 7_5555 37.2(2) 35.2(2) 39.3(2)
W O2 O2 7_5555 7_5655 90.5(4) 86.6(3) 94.1(4)
W O2 O2 7_5555 8_4555 37.6(2) 35.0(2) 40.6(2)
W O2 O2 7_5555 8_5555 112.5(4) 104.0(4) 119.5(4)
O1 O2 O1 . 2_6555 61.2(4) 56.5(4) 65.2(4)
O1 O2 O1 . 2_6655 82.4(4) 77.3(4) 88.2(4)
O1 O2 O1 . 3_6665 58.2(4) 56.3(4) 60.5(4)
O1 O2 O1 . 8_4555 139.2(5) 134.2(5) 144.5(5)
O1 O2 O2 . 2_6555 57.4(4) 54.4(4) 60.1(4)
O1 O2 O2 . 2_6655 76.1(4) 68.6(4) 84.2(4)
O1 O2 O2 . 7_5555 107.4(4) 101.5(5) 112.4(5)
O1 O2 O2 . 7_5655 124.6(4) 115.7(4) 134.2(4)
O1 O2 O2 . 8_4555 153.7(5) 144.8(5) 161.7(6)
O1 O2 O2 . 8_5555 62.0(4) 56.2(4) 68.6(4)
O1 O2 O1 2_6555 2_6655 103.6(4) 100.1(4) 107.3(4)
O1 O2 O1 2_6555 3_6665 57.0(4) 52.5(4) 61.3(4)
O1 O2 O1 2_6555 8_4555 122.3(4) 114.7(5) 129.1(5)
O1 O2 O2 2_6555 2_6555 58.9(4) 54.6(4) 62.4(4)
O1 O2 O2 2_6555 2_6655 132.6(5) 126.4(5) 139.3(5)
O1 O2 O2 2_6555 7_5555 62.1(4) 56.2(3) 68.2(4)
O1 O2 O2 2_6555 7_5655 143.3(5) 140.6(5) 146.2(5)
O1 O2 O2 2_6555 8_4555 96.0(4) 87.8(4) 104.5(5)
O1 O2 O2 2_6555 8_5555 109.8(5) 104.6(4) 114.8(4)
O1 O2 O1 2_6655 3_6665 46.9(3) 44.5(3) 49.7(3)
O1 O2 O1 2_6655 8_4555 127.4(4) 123.7(4) 131.8(4)
O1 O2 O2 2_6655 2_6555 139.8(4) 137.4(4) 142.6(4)
O1 O2 O2 2_6655 2_6655 48.3(3) 45.7(3) 51.6(3)
O1 O2 O2 2_6655 7_5555 152.0(5) 144.4(5) 160.0(5)
O1 O2 O2 2_6655 7_5655 49.7(3) 48.9(3) 50.5(3)
O1 O2 O2 2_6655 8_4555 92.7(4) 90.5(4) 95.7(4)
O1 O2 O2 2_6655 8_5555 106.0(4) 100.0(4) 113.7(5)
O1 O2 O1 3_6665 8_4555 161.1(6) 156.7(6) 166.3(5)
O1 O2 O2 3_6665 2_6555 103.5(4) 101.6(4) 105.5(5)
O1 O2 O2 3_6665 2_6655 84.4(4) 80.4(4) 89.3(4)
O1 O2 O2 3_6665 7_5555 115.6(5) 112.2(5) 118.8(4)
O1 O2 O2 3_6665 7_5655 93.9(4) 91.8(4) 96.2(4)
O1 O2 O2 3_6665 8_4555 100.6(5) 96.0(5) 105.4(5)
O1 O2 O2 3_6665 8_5555 115.8(5) 109.2(5) 124.2(6)
O1 O2 O2 8_4555 2_6555 88.9(4) 83.6(4) 93.6(4)
O1 O2 O2 8_4555 2_6655 102.8(4) 101.1(5) 104.5(4)
O1 O2 O2 8_4555 7_5555 60.2(4) 55.1(4) 64.6(4)
O1 O2 O2 8_4555 7_5655 77.8(4) 73.4(4) 82.6(4)
O1 O2 O2 8_4555 8_4555 61.0(4) 60.6(4) 61.3(4)
O1 O2 O2 8_4555 8_5555 81.9(5) 76.3(4) 86.2(5)
O2 O2 O2 2_6555 2_6655 114.4(4) 112.1(4) 117.0(4)
O2 O2 O2 2_6555 7_5555 56.2(3) 50.2(3) 61.8(3)
O2 O2 O2 2_6555 7_5655 157.0(5) 152.7(5) 161.5(5)
O2 O2 O2 2_6555 8_4555 123.0(4) 115.8(4) 129.0(5)
O2 O2 O2 2_6555 8_5555 57.6(3) 54.8(3) 60.0(3)
O2 O2 O2 2_6655 7_5555 158.3(5) 151.2(5) 164.1(5)
O2 O2 O2 2_6655 7_5655 52.7(3) 49.1(3) 57.0(4)
O2 O2 O2 2_6655 8_4555 118.6(4) 114.5(5) 123.7(5)
O2 O2 O2 2_6655 8_5555 60.6(3) 57.6(3) 64.4(3)
O2 O2 O2 7_5555 7_5655 127.5(5) 121.4(5) 132.9(5)
O2 O2 O2 7_5555 8_4555 66.8(3) 59.4(3) 74.2(4)
O2 O2 O2 7_5555 8_5555 101.7(4) 91.0(4) 110.9(4)
O2 O2 O2 7_5655 8_4555 66.0(3) 65.3(3) 67.4(3)
O2 O2 O2 7_5655 8_5555 101.8(4) 96.3(4) 108.1(5)
O2 O2 O2 8_4555 8_5555 142.0(5) 136.8(5) 146.2(5)
loop_
_geom_bond_atom_site_label_1
_geom_bond_atom_site_label_2
_geom_bond_site_ssg_symmetry_2
_geom_bond_distance_av
_geom_bond_distance_min
_geom_bond_distance_max
Eu Ca . 0 0 0
Eu O1 5_4455 2.487(12) 2.331(13) 2.618(12)
Eu O1 6_6655 2.485(12) 2.327(13) 2.622(13)
Eu O1 7_6565 2.505(12) 2.356(12) 2.635(12)
Eu O1 8_4565 2.503(12) 2.349(12) 2.636(12)
Eu O2 5_5455 2.473(11) 2.337(10) 2.587(10)
Eu O2 6_5655 2.475(11) 2.339(10) 2.584(10)
Eu O2 3_6665 2.465(10) 2.393(10) 2.524(10)
Eu O2 4_5465 2.464(10) 2.393(10) 2.523(10)
Ca O1 5_4455 2.487(12) 2.331(13) 2.618(12)
Ca O1 6_6655 2.485(12) 2.327(13) 2.622(13)
Ca O1 7_6565 2.505(12) 2.356(12) 2.635(12)
Ca O1 8_4565 2.503(12) 2.349(12) 2.636(12)
Ca O2 5_5455 2.473(11) 2.337(10) 2.587(10)
Ca O2 6_5655 2.475(11) 2.339(10) 2.584(10)
Ca O2 3_6665 2.465(10) 2.393(10) 2.524(10)
Ca O2 4_5465 2.464(10) 2.393(10) 2.523(10)
W O1 . 1.794(12) 1.732(12) 1.859(13)
W O1 2_6555 1.792(12) 1.734(12) 1.857(13)
W O1 3_6665 2.951(12) 2.878(12) 3.032(12)
W O1 4_5465 2.950(12) 2.882(12) 3.030(12)
W O2 . 1.807(10) 1.770(9) 1.856(11)
W O2 2_6555 1.806(10) 1.770(10) 1.859(9)
W O2 7_5555 2.852(11) 2.676(11) 2.996(11)
W O2 8_5555 2.852(11) 2.677(10) 2.997(10)
O1 O1 2_6555 2.947(18) 2.781(17) 3.080(17)
O1 O1 2_7555 3.222(18) 3.044(19) 3.396(19)
O1 O1 3_6665 2.865(18) 2.840(18) 2.914(19)
O1 O1 3_7665 3.057(18) 2.981(17) 3.153(17)
O1 O1 4_5465 2.799(17) 2.587(17) 2.993(17)
O1 O1 4_5565 2.774(17) 2.590(17) 2.990(17)
O1 O2 . 2.917(16) 2.872(17) 2.963(16)
O1 O2 2_6555 2.876(15) 2.768(16) 2.998(16)
O1 O2 2_6655 3.761(15) 3.432(17) 4.116(17)
O1 O2 3_6665 2.963(16) 2.824(15) 3.103(15)
O1 O2 8_5555 2.937(16) 2.731(15) 3.164(15)
O2 O2 2_6555 3.061(14) 2.837(14) 3.332(14)
O2 O2 2_6655 3.182(13) 3.167(9) 3.204(10)
O2 O2 7_5555 2.837(13) 2.832(17) 2.847(9)
O2 O2 7_5655 3.042(13) 2.942(11) 3.155(10)
O2 O2 8_4555 2.785(16) 2.621(16) 2.935(16)
O2 O2 8_5555 2.788(16) 2.621(16) 2.938(16)
loop_
_pd_proc_point_id
_pd_proc_2theta_corrected
_pd_proc_intensity_net
_pd_calc_intensity_net
_pd_proc_ls_weight
1 2.3220 248.22 277.62 18.09
2 2.3240 259.40 277.27 18.33
3 2.3260 263.78 276.92 18.43
4 2.3280 259.66 276.58 18.50
5 2.3300 264.54 276.24 18.83
6 2.3320 296.05 275.90 19.82
7 2.3340 266.69 275.57 18.59
8 2.3360 255.68 275.24 18.22
9 2.3380 232.99 274.91 17.47
10 2.3400 253.66 274.58 18.46
11 2.3420 237.95 274.26 17.73
12 2.3440 298.07 273.94 19.71
13 2.3460 254.04 273.62 18.14
14 2.3480 270.98 273.31 18.87
15 2.3500 244.19 273.00 18.21
16 2.3520 295.52 272.69 19.68
17 2.3540 287.13 272.38 19.32
18 2.3560 256.67 272.08 18.19
19 2.3580 261.87 271.77 18.56
20 2.3600 255.85 271.48 18.52
21 2.3620 242.34 271.18 17.90
22 2.3640 261.30 270.89 18.39
23 2.3660 244.13 270.60 17.74
24 2.3680 282.84 270.31 19.25
25 2.3700 266.13 270.02 18.92
26 2.3720 242.50 269.74 17.87
27 2.3740 254.79 269.46 18.16
28 2.3760 276.68 269.18 18.90
29 2.3780 259.47 268.90 18.47
30 2.3800 259.44 268.63 18.60
31 2.3820 266.14 268.36 18.75
32 2.3840 240.47 268.09 17.65
33 2.3860 258.14 267.83 18.25
34 2.3880 265.32 267.56 18.64
35 2.3900 265.82 267.30 18.87
36 2.3920 264.29 267.04 18.61
37 2.3940 266.85 266.79 18.52
38 2.3960 236.72 266.53 17.55
39 2.3980 238.81 266.28 17.68
40 2.4000 282.59 266.03 19.52
41 2.4020 282.25 265.79 19.28
42 2.4040 269.14 265.54 18.61
43 2.4060 253.59 265.30 18.08
44 2.4080 238.89 265.06 17.69
45 2.4100 231.82 264.82 17.69
46 2.4120 263.88 264.59 18.57
47 2.4140 259.89 264.35 18.24
48 2.4160 252.91 264.12 18.05
49 2.4180 267.00 263.89 18.67
50 2.4200 254.59 263.67 18.40
51 2.4220 242.96 263.44 17.87
52 2.4240 276.78 263.22 18.84
53 2.4260 257.39 263.00 18.23
54 2.4280 240.82 262.78 17.75
55 2.4300 279.18 262.56 19.44
56 2.4320 264.00 262.35 18.53
57 2.4340 299.85 262.14 19.60
58 2.4360 261.04 261.93 18.34
59 2.4380 242.29 261.72 17.85
60 2.4400 238.65 261.51 17.92
61 2.4420 269.91 261.31 18.77
62 2.4440 242.17 261.11 17.60
63 2.4460 267.48 260.91 18.68
64 2.4480 220.44 260.71 17.04
65 2.4500 242.67 260.51 18.08
66 2.4520 271.58 260.32 18.79
67 2.4540 223.50 260.13 17.01
68 2.4560 261.78 259.94 18.44
69 2.4580 276.13 259.75 19.04
70 2.4600 249.33 259.56 18.42
71 2.4620 248.88 259.38 18.01
72 2.4640 260.59 259.20 18.29
73 2.4660 244.12 259.02 17.82
74 2.4680 275.79 258.84 19.19
75 2.4700 237.35 258.66 17.84
76 2.4720 247.83 258.48 17.92
77 2.4740 265.68 258.31 18.52
78 2.4760 281.02 258.14 19.16
79 2.4780 241.92 257.97 17.96
80 2.4800 201.66 257.80 16.44
81 2.4820 239.41 257.64 17.68
82 2.4840 247.07 257.47 17.78
83 2.4860 265.30 257.31 18.76
84 2.4880 259.40 257.15 18.62
85 2.4900 273.63 256.99 19.21
86 2.4920 259.21 256.83 18.32
87 2.4940 237.04 256.67 17.53
88 2.4960 268.20 256.52 18.74
89 2.4980 236.14 256.37 17.87
90 2.5000 240.26 256.21 17.92
91 2.5020 267.15 256.07 18.66
92 2.5040 290.34 255.92 19.31
93 2.5060 274.36 255.77 19.01
94 2.5080 273.59 255.63 19.22
95 2.5100 266.77 255.48 18.83
96 2.5120 299.73 255.34 19.84
97 2.5140 275.15 255.20 18.73
98 2.5160 250.01 255.07 18.19
99 2.5180 274.57 254.93 19.25
100 2.5200 255.67 254.79 18.46
101 2.5220 251.85 254.66 18.10
102 2.5240 229.82 254.53 17.23
103 2.5260 213.03 254.40 16.62
104 2.5280 284.16 254.27 19.69
105 2.5300 252.47 254.14 18.41
106 2.5320 261.00 254.01 18.51
107 2.5340 224.79 253.89 17.00
108 2.5360 253.49 253.76 18.31
109 2.5380 239.52 253.64 18.10
110 2.5400 269.63 253.52 18.92
111 2.5420 237.41 253.40 17.68
112 2.5440 258.15 253.29 18.29
113 2.5460 238.74 253.17 17.73
114 2.5480 253.52 253.05 18.72
115 2.5500 276.67 252.94 19.28
116 2.5520 285.64 252.83 19.47
117 2.5540 263.49 252.72 18.45
118 2.5560 257.48 252.61 18.46
119 2.5580 252.82 252.50 18.68
120 2.5600 275.29 252.39 19.23
121 2.5620 247.66 252.29 18.11
122 2.5640 266.13 252.18 18.63
123 2.5660 257.66 252.08 18.33
124 2.5680 254.58 251.98 18.67
125 2.5700 236.91 251.88 17.89
126 2.5720 237.32 251.78 17.67
127 2.5740 279.58 251.68 19.10
128 2.5760 250.48 251.58 18.14
129 2.5780 284.87 251.49 19.71
130 2.5800 244.45 251.39 18.04
131 2.5820 265.91 251.30 18.75
132 2.5840 243.53 251.21 17.85
133 2.5860 239.35 251.12 17.63
134 2.5880 262.65 251.03 18.90
135 2.5900 241.42 250.94 18.05
136 2.5920 254.76 250.85 18.38
137 2.5940 253.04 250.77 18.10
138 2.5960 255.31 250.68 18.36
139 2.5980 264.89 250.60 18.98
140 2.6000 268.64 250.51 18.98
141 2.6020 231.87 250.43 17.44
142 2.6040 245.52 250.35 17.96
143 2.6060 263.30 250.27 18.48
144 2.6080 261.82 250.20 18.79
145 2.6100 226.73 250.12 17.51
146 2.6120 269.17 250.04 18.85
147 2.6140 249.38 249.97 18.00
148 2.6160 248.13 249.89 17.95
149 2.6180 272.40 249.82 19.20
150 2.6200 237.52 249.75 17.87
151 2.6220 240.59 249.68 17.77
152 2.6240 266.53 249.61 18.71
153 2.6260 247.40 249.54 17.95
154 2.6280 262.83 249.47 18.72
155 2.6300 250.45 249.40 18.38
156 2.6320 251.58 249.34 18.23
157 2.6340 281.52 249.27 19.13
158 2.6360 245.73 249.21 17.87
159 2.6380 256.01 249.14 18.53
160 2.6400 259.14 249.08 18.73
161 2.6420 251.25 249.02 18.26
162 2.6440 255.07 248.96 18.19
163 2.6460 235.05 248.90 17.47
164 2.6480 277.88 248.84 19.20
165 2.6500 243.67 248.78 18.08
166 2.6520 259.22 248.73 18.50
167 2.6540 269.34 248.67 18.69
168 2.6560 281.54 248.62 19.15
169 2.6580 238.17 248.56 17.73
170 2.6600 228.55 248.51 17.56
171 2.6620 271.62 248.46 18.98
172 2.6640 276.03 248.40 18.90
173 2.6660 258.57 248.35 18.29
174 2.6680 247.13 248.30 18.13
175 2.6700 267.38 248.25 18.90
176 2.6720 247.79 248.21 18.09
177 2.6740 244.09 248.16 17.74
178 2.6760 297.68 248.11 19.65
179 2.6780 257.46 248.06 18.40
180 2.6800 267.47 248.02 18.95
181 2.6820 261.81 247.98 18.59
182 2.6840 284.85 247.93 19.31
183 2.6860 238.26 247.89 17.58
184 2.6880 243.12 247.85 17.93
185 2.6900 272.74 247.80 19.23
186 2.6920 238.01 247.76 17.68
187 2.6940 250.51 247.72 17.97
188 2.6960 259.68 247.68 18.39
189 2.6980 265.34 247.65 18.77
190 2.7000 252.60 247.61 18.39
191 2.7020 249.76 247.57 18.17
192 2.7040 208.29 247.54 16.51
193 2.7060 238.58 247.50 17.57
194 2.7080 218.80 247.46 17.02
195 2.7100 230.67 247.43 17.74
196 2.7120 262.40 247.40 18.67
197 2.7140 290.82 247.36 19.36
198 2.7160 268.02 247.33 18.66
199 2.7180 274.63 247.30 19.13
200 2.7200 283.51 247.27 19.52
201 2.7220 233.61 247.24 17.48
202 2.7240 247.26 247.21 17.96
203 2.7260 256.47 247.18 18.18
204 2.7280 242.21 247.15 17.94
205 2.7300 257.70 247.12 18.51
206 2.7320 273.31 247.09 19.04
207 2.7340 222.49 247.07 16.94
208 2.7360 248.55 247.04 18.00
209 2.7380 221.61 247.01 17.18
210 2.7400 262.88 246.99 18.72
211 2.7420 249.24 246.96 18.17
212 2.7440 262.16 246.94 18.40
213 2.7460 272.78 246.92 18.86
214 2.7480 261.82 246.89 18.75
215 2.7500 217.81 246.87 17.02
216 2.7520 243.00 246.85 17.94
217 2.7540 241.31 246.83 17.64
218 2.7560 250.11 246.81 18.01
219 2.7580 240.17 246.79 17.84
220 2.7600 259.28 246.77 18.68
221 2.7620 272.33 246.75 18.95
222 2.7640 239.16 246.73 17.68
223 2.7660 257.84 246.71 18.27
224 2.7680 226.07 246.69 17.40
225 2.7700 251.52 246.68 18.33
226 2.7720 300.26 246.66 19.92
227 2.7740 251.18 246.64 18.01
228 2.7760 257.11 246.63 18.27
229 2.7780 274.40 246.61 19.11
230 2.7800 266.41 246.60 18.89
231 2.7820 280.95 246.58 19.26
232 2.7840 229.35 246.57 17.22
233 2.7860 271.18 246.55 18.81
234 2.7880 254.35 246.54 18.46
235 2.7900 222.55 246.53 17.33
236 2.7920 232.66 246.52 17.42
237 2.7940 288.87 246.50 19.38
238 2.7960 271.08 246.49 18.80
239 2.7980 242.64 246.48 18.04
240 2.8000 285.63 246.47 19.53
241 2.8020 243.37 246.46 17.93
242 2.8040 252.17 246.45 18.09
243 2.8060 275.53 246.44 18.92
244 2.8080 264.35 246.43 18.74
245 2.8100 249.47 246.42 18.29
246 2.8120 258.44 246.41 18.48
247 2.8140 266.39 246.40 18.53
248 2.8160 240.38 246.40 17.65
249 2.8180 264.56 246.39 18.75
250 2.8200 242.50 246.38 18.02
251 2.8220 273.78 246.38 19.02
252 2.8240 253.18 246.37 18.12
253 2.8260 264.75 246.36 18.48
254 2.8280 256.61 246.36 18.44
255 2.8300 288.03 246.35 19.64
256 2.8320 296.38 246.35 19.77
257 2.8340 260.03 246.34 18.29
258 2.8360 232.58 246.34 17.39
259 2.8380 263.70 246.33 18.68
260 2.8400 273.10 246.33 19.15
261 2.8420 246.07 246.32 17.99
262 2.8440 274.91 246.32 18.91
263 2.8460 265.32 246.32 18.60
264 2.8480 238.51 246.32 17.80
265 2.8500 249.06 246.31 18.25
266 2.8520 266.73 246.31 18.70
267 2.8540 269.63 246.31 18.70
268 2.8560 282.06 246.31 19.15
269 2.8580 276.63 246.30 19.07
270 2.8600 271.98 246.30 19.10
271 2.8620 279.95 246.30 19.23
272 2.8640 282.53 246.30 19.03
273 2.8660 247.69 246.30 17.99
274 2.8680 282.55 246.30 19.33
275 2.8700 319.97 246.30 20.76
276 2.8720 259.81 246.30 18.48
277 2.8740 277.15 246.30 18.93
278 2.8760 249.46 246.30 18.05
279 2.8780 285.61 246.30 19.45
280 2.8800 263.49 246.30 18.79
281 2.8820 265.64 246.30 18.71
282 2.8840 287.17 246.31 19.30
283 2.8860 268.22 246.31 18.74
284 2.8880 326.93 246.31 20.85
285 2.8900 300.91 246.31 20.06
286 2.8920 271.06 246.31 18.89
287 2.8940 258.61 246.32 18.28
288 2.8960 271.00 246.32 18.78
289 2.8980 284.21 246.32 19.42
290 2.9000 258.83 246.32 18.67
291 2.9020 242.13 246.33 17.83
292 2.9040 276.29 246.33 18.88
293 2.9060 245.34 246.33 17.85
294 2.9080 234.78 246.34 17.73
295 2.9100 251.73 246.34 18.39
296 2.9120 281.45 246.34 19.21
297 2.9140 259.42 246.35 18.25
298 2.9160 264.70 246.35 18.66
299 2.9180 262.48 246.35 18.67
300 2.9200 246.53 246.36 18.16
301 2.9220 257.80 246.36 18.40
302 2.9240 255.27 246.37 18.17
303 2.9260 270.03 246.37 18.75
304 2.9280 296.58 246.38 19.96
305 2.9300 258.61 246.38 18.68
306 2.9320 296.00 246.39 19.68
307 2.9340 245.94 246.39 17.82
308 2.9360 251.46 246.40 18.21
309 2.9380 248.01 246.40 18.24
310 2.9400 273.83 246.41 19.10
311 2.9420 243.40 246.41 17.92
312 2.9440 236.56 246.42 17.47
313 2.9460 248.35 246.42 18.00
314 2.9480 243.71 246.43 18.03
315 2.9500 242.28 246.43 18.06
316 2.9520 260.13 246.44 18.49
317 2.9540 268.15 246.45 18.56
318 2.9560 236.00 246.45 17.56
319 2.9580 226.20 246.46 17.48
320 2.9600 214.94 246.46 16.92
321 2.9620 268.36 246.47 18.77
322 2.9640 236.59 246.48 17.53
323 2.9660 245.78 246.48 17.89
324 2.9680 241.03 246.49 18.01
325 2.9700 270.60 246.50 19.11
326 2.9720 252.32 246.50 18.25
327 2.9740 247.06 246.51 17.82
328 2.9760 256.51 246.51 18.34
329 2.9780 237.61 246.52 17.87
330 2.9800 254.07 246.53 18.46
331 2.9820 279.08 246.54 19.18
332 2.9840 241.38 246.54 17.71
333 2.9860 291.79 246.55 19.55
334 2.9880 254.46 246.55 18.48
335 2.9900 237.45 246.56 17.90
336 2.9920 238.15 246.57 17.69
337 2.9940 256.48 246.57 18.26
338 2.9960 254.72 246.58 18.26
339 2.9980 241.26 246.59 17.96
340 3.0000 295.12 246.82 19.94
341 3.0020 246.41 246.83 18.00
342 3.0040 250.59 246.84 18.07
343 3.0060 246.19 246.85 17.96
344 3.0080 223.93 246.86 17.42
345 3.0100 226.92 246.87 17.49
346 3.0120 258.08 246.88 18.37
347 3.0140 270.54 246.89 18.77
348 3.0160 264.72 246.90 18.59
349 3.0180 258.01 246.91 18.62
350 3.0200 255.61 246.92 18.50
351 3.0220 304.11 246.93 20.06
352 3.0240 246.67 246.95 17.79
353 3.0260 257.30 246.96 18.37
354 3.0280 255.52 246.97 18.57
355 3.0300 244.20 246.98 18.12
356 3.0320 245.37 246.99 17.97
357 3.0340 250.54 247.00 18.02
358 3.0360 229.53 247.01 17.29
359 3.0380 234.67 247.02 17.70
360 3.0400 251.53 247.03 18.35
361 3.0420 242.36 247.04 17.82
362 3.0440 253.73 247.05 18.14
363 3.0460 234.48 247.06 17.49
364 3.0480 256.46 247.07 18.58
365 3.0500 251.44 247.09 18.41
366 3.0520 243.75 247.10 17.92
367 3.0540 244.48 247.11 17.71
368 3.0560 251.85 247.12 18.19
369 3.0580 276.22 247.13 19.33
370 3.0600 235.76 247.14 17.73
371 3.0620 252.98 247.15 18.21
372 3.0640 227.38 247.16 17.12
373 3.0660 258.18 247.18 18.32
374 3.0680 284.51 247.19 19.43
375 3.0700 314.08 247.20 20.48
376 3.0720 265.18 247.21 18.60
377 3.0740 276.55 247.22 18.93
378 3.0760 269.32 247.24 18.68
379 3.0780 272.21 247.25 19.07
380 3.0800 241.43 247.26 17.97
381 3.0820 236.74 247.27 17.53
382 3.0840 260.25 247.29 18.34
383 3.0860 259.50 247.30 18.36
384 3.0880 244.63 247.31 18.08
385 3.0900 236.95 247.32 17.73
386 3.0920 258.04 247.34 18.34
387 3.0940 241.37 247.35 17.57
388 3.0960 257.49 247.36 18.23
389 3.0980 267.68 247.38 18.89
390 3.1000 236.14 247.39 17.74
391 3.1020 233.33 247.40 17.37
392 3.1040 238.19 247.42 17.47
393 3.1060 242.75 247.43 17.76
394 3.1080 234.56 247.45 17.68
395 3.1100 242.18 247.46 17.90
396 3.1120 249.27 247.48 18.00
397 3.1140 237.53 247.49 17.46
398 3.1160 285.69 247.51 19.34
399 3.1180 254.59 247.52 18.40
400 3.1200 257.16 247.54 18.48
401 3.1220 288.92 247.56 19.41
402 3.1240 278.51 247.57 18.96
403 3.1260 284.12 247.59 19.17
404 3.1280 252.62 247.61 18.37
405 3.1300 252.87 247.63 18.36
406 3.1320 247.72 247.65 17.91
407 3.1340 270.03 247.66 18.74
408 3.1360 240.57 247.68 17.68
409 3.1380 272.95 247.70 19.02
410 3.1400 278.76 247.72 19.22
411 3.1420 253.54 247.74 18.18
412 3.1440 256.16 247.77 18.17
413 3.1460 260.58 247.79 18.38
414 3.1480 246.73 247.81 18.12
415 3.1500 266.13 247.83 18.88
416 3.1520 253.38 247.86 18.08
417 3.1540 268.13 247.88 18.66
418 3.1560 263.58 247.91 18.54
419 3.1580 258.47 247.94 18.52
420 3.1600 268.74 247.96 18.91
421 3.1620 230.61 247.99 17.23
422 3.1640 245.37 248.02 17.84
423 3.1660 263.03 248.05 18.59
424 3.1680 270.90 248.09 18.95
425 3.1700 262.19 248.12 18.66
426 3.1720 267.33 248.16 18.60
427 3.1740 283.60 248.19 19.12
428 3.1760 231.05 248.23 17.46
429 3.1780 236.32 248.27 17.83
430 3.1800 265.25 248.31 18.79
431 3.1820 235.52 248.36 17.46
432 3.1840 248.54 248.40 17.92
433 3.1860 251.20 248.45 18.13
434 3.1880 280.77 248.50 19.45
435 3.1900 243.01 248.56 17.91
436 3.1920 275.21 248.61 18.79
437 3.1940 245.14 248.67 17.80
438 3.1960 226.69 248.73 17.20
439 3.1980 262.08 248.80 18.73
440 3.2000 295.55 248.87 19.87
441 3.2020 247.65 248.94 17.89
442 3.2040 259.11 249.02 18.13
443 3.2060 237.69 249.11 17.71
444 3.2080 283.71 249.20 19.54
445 3.2100 264.26 249.29 18.61
446 3.2120 266.54 249.39 18.48
447 3.2140 249.23 249.50 17.85
448 3.2160 270.42 249.61 19.04
449 3.2180 276.43 249.74 19.23
450 3.2200 277.24 249.87 19.17
451 3.2220 267.83 250.01 18.49
452 3.2240 275.29 250.17 18.76
453 3.2260 249.90 250.33 18.22
454 3.2280 251.74 250.51 18.52
455 3.2300 266.75 250.71 18.83
456 3.2320 267.90 250.92 18.52
457 3.2340 271.12 251.15 18.63
458 3.2360 244.78 251.40 18.07
459 3.2380 264.99 251.67 18.91
460 3.2400 274.24 251.97 19.02
461 3.2420 246.94 252.30 17.87
462 3.2440 259.38 252.66 18.24
463 3.2460 263.87 253.06 18.80
464 3.2480 242.47 253.51 18.13
465 3.2500 260.27 254.00 18.57
466 3.2520 256.99 254.56 18.19
467 3.2540 262.01 255.18 18.36
468 3.2560 258.58 255.88 18.68
469 3.2580 275.73 256.67 19.35
470 3.2600 246.45 257.58 18.13
471 3.2620 243.21 258.61 17.83
472 3.2640 289.70 259.81 19.36
473 3.2660 234.36 261.19 17.74
474 3.2680 289.49 262.80 19.94
475 3.2700 291.54 264.71 19.65
476 3.2720 257.46 266.97 18.28
477 3.2740 300.85 269.69 19.65
478 3.2760 299.40 273.01 20.09
479 3.2780 297.52 277.15 20.08
480 3.2800 283.66 282.50 19.40
481 3.2820 281.08 289.78 19.10
482 3.2840 328.78 300.40 20.61
483 3.2860 356.55 317.04 21.85
484 3.2880 357.04 344.36 22.08
485 3.2900 463.24 389.73 24.85
486 3.2920 558.76 463.21 26.92
487 3.2940 689.13 575.41 29.73
488 3.2960 798.19 732.55 32.76
489 3.2980 980.62 928.94 36.64
490 3.3000 1128.79 1140.41 38.94
491 3.3020 1266.75 1321.75 40.68
492 3.3040 1390.08 1413.90 42.69
493 3.3060 1247.74 1369.67 40.97
494 3.3080 1096.61 1198.66 38.75
495 3.3100 848.16 969.05 33.54
496 3.3120 614.90 749.21 28.18
497 3.3140 490.97 575.11 25.16
498 3.3160 428.26 454.75 23.89
499 3.3180 363.59 379.94 22.29
500 3.3200 319.69 336.68 20.61
501 3.3220 316.51 312.19 20.20
502 3.3240 273.68 297.72 18.84
503 3.3260 270.36 288.36 19.06
504 3.3280 245.80 281.68 18.28
505 3.3300 260.79 276.58 18.52
506 3.3320 274.46 272.53 18.87
507 3.3340 233.93 269.23 17.29
508 3.3360 278.94 266.51 19.31
509 3.3380 235.69 264.24 17.94
510 3.3400 229.71 262.32 17.42
511 3.3420 224.60 260.68 17.01
512 3.3440 287.37 259.28 19.29
513 3.3460 256.11 258.06 18.48
514 3.3480 253.86 257.00 18.55
515 3.3500 234.08 256.07 17.56
516 3.3520 234.29 255.25 17.43
517 3.3540 259.25 254.53 18.15
518 3.3560 240.20 253.88 18.01
519 3.3580 213.23 253.30 17.04
520 3.3600 259.25 252.78 18.42
521 3.3620 249.05 252.30 18.08
522 3.3640 265.68 251.88 18.42
523 3.3660 233.08 251.49 17.67
524 3.3680 229.97 251.13 17.76
525 3.3700 221.16 250.81 17.15
526 3.3720 248.07 250.51 17.91
527 3.3740 206.47 250.23 16.30
528 3.3760 270.87 249.97 19.08
529 3.3780 219.12 249.74 17.37
530 3.3800 226.60 249.51 17.25
531 3.3820 222.92 249.31 17.07
532 3.3840 225.63 249.12 17.06
533 3.3860 231.02 248.94 17.60
534 3.3880 222.10 248.77 17.48
535 3.3900 257.26 248.61 18.53
536 3.3920 246.59 248.46 17.94
537 3.3940 209.33 248.32 16.41
538 3.3960 249.79 248.18 18.35
539 3.3980 247.08 248.05 18.38
540 3.4000 229.36 247.93 17.38
541 3.4020 267.45 247.81 18.71
542 3.4040 250.04 247.70 18.00
543 3.4060 220.48 247.60 17.17
544 3.4080 262.54 247.50 18.97
545 3.4100 256.54 247.40 18.51
546 3.4120 235.49 247.31 17.49
547 3.4140 246.91 247.22 17.84
548 3.4160 212.69 247.13 16.84
549 3.4180 243.90 247.05 18.35
550 3.4200 281.13 246.97 19.37
551 3.4220 222.38 246.89 16.97
552 3.4240 223.31 246.81 17.04
553 3.4260 249.41 246.74 18.26
554 3.4280 221.91 246.67 17.46
555 3.4300 240.80 246.60 17.93
556 3.4320 234.52 246.53 17.53
557 3.4340 239.40 246.46 17.58
558 3.4360 240.02 246.40 17.88
559 3.4380 253.00 246.34 18.60
560 3.4400 254.30 246.27 18.51
561 3.4420 262.32 246.21 18.42
562 3.4440 249.90 246.16 18.04
563 3.4460 259.50 246.10 18.52
564 3.4480 218.40 246.04 17.29
565 3.4500 226.87 245.99 17.32
566 3.4520 231.34 245.93 17.49
567 3.4540 272.58 245.88 18.70
568 3.4560 212.06 245.82 16.72
569 3.4580 265.93 245.77 19.11
570 3.4600 215.74 245.72 16.96
571 3.4620 215.02 245.67 16.74
572 3.4640 277.73 245.62 19.07
573 3.4660 223.39 245.57 17.17
574 3.4680 204.07 245.52 16.71
575 3.4700 242.88 245.47 17.99
576 3.4720 223.40 245.42 17.15
577 3.4740 214.82 245.37 16.70
578 3.4760 247.78 245.32 18.12
579 3.4780 240.55 245.28 18.21
580 3.4800 206.19 245.23 16.61
581 3.4820 216.06 245.18 16.83
582 3.4840 241.98 245.14 17.73
583 3.4860 212.37 245.09 16.69
584 3.4880 256.30 245.04 18.71
585 3.4900 227.57 245.00 17.39
586 3.4920 246.20 244.95 17.98
587 3.4940 229.78 244.91 17.24
588 3.4960 241.43 244.86 17.78
589 3.4980 239.79 244.82 18.12
590 3.5000 216.44 244.77 16.97
591 3.5020 236.33 244.73 17.59
592 3.5040 217.12 244.69 16.75
593 3.5060 225.09 244.64 17.13
594 3.5080 215.42 244.60 17.17
595 3.5100 241.07 244.55 18.00
596 3.5120 244.26 244.51 17.88
597 3.5140 239.04 244.47 17.57
598 3.5160 225.98 244.42 17.20
599 3.5180 259.02 244.38 18.77
600 3.5200 218.34 244.34 17.04
601 3.5220 234.75 244.29 17.57
602 3.5240 181.43 244.25 15.38
603 3.5260 199.24 244.21 16.12
604 3.5280 231.49 244.16 17.75
605 3.5300 233.98 244.12 17.75
606 3.5320 229.20 244.08 17.36
607 3.5340 232.02 244.03 17.36
608 3.5360 211.53 243.99 16.69
609 3.5380 203.64 243.95 16.63
610 3.5400 252.39 243.90 18.40
611 3.5420 202.09 243.86 16.26
612 3.5440 241.20 243.82 17.69
613 3.5460 226.06 243.77 17.18
614 3.5480 227.81 243.73 17.63
615 3.5500 221.49 243.68 17.19
616 3.5520 218.50 243.64 16.90
617 3.5540 235.87 243.60 17.46
618 3.5560 189.25 243.55 15.73
619 3.5580 223.41 243.51 17.41
620 3.5600 217.35 243.47 17.06
621 3.5620 221.59 243.42 17.05
622 3.5640 237.37 243.38 17.59
623 3.5660 243.41 243.33 17.86
624 3.5680 208.55 243.29 16.79
625 3.5700 232.50 243.24 17.67
626 3.5720 248.07 243.20 18.05
627 3.5740 210.93 243.16 16.60
628 3.5760 199.18 243.11 16.09
629 3.5780 228.32 243.07 17.66
630 3.5800 230.58 243.02 17.58
631 3.5820 232.37 242.98 17.50
632 3.5840 251.64 242.93 18.08
633 3.5860 217.16 242.89 16.86
634 3.5880 253.07 242.84 18.51
635 3.5900 223.22 242.80 17.26
636 3.5920 209.02 242.75 16.60
637 3.5940 230.08 242.71 17.26
638 3.5960 228.86 242.66 17.25
639 3.5980 198.53 242.62 16.39
640 3.6000 212.62 242.57 16.96
641 3.6020 218.97 242.53 16.91
642 3.6040 245.11 242.48 17.82
643 3.6060 241.53 242.43 17.67
644 3.6080 230.65 242.39 17.69
645 3.6100 218.42 242.34 17.13
646 3.6120 253.33 242.30 18.19
647 3.6140 207.76 242.25 16.45
648 3.6160 204.32 241.99 16.32
649 3.6180 214.28 241.94 17.08
650 3.6200 249.66 241.90 18.33
651 3.6220 220.07 241.85 16.99
652 3.6240 237.27 241.81 17.58
653 3.6260 214.35 241.76 16.67
654 3.6280 192.97 241.72 16.17
655 3.6300 205.04 241.68 16.58
656 3.6320 228.73 241.63 17.31
657 3.6340 199.75 241.59 16.06
658 3.6360 191.60 241.54 15.76
659 3.6380 214.16 241.49 17.02
660 3.6400 235.29 241.45 17.69
661 3.6420 222.44 241.40 17.11
662 3.6440 245.46 241.36 17.89
663 3.6460 224.51 241.31 17.07
664 3.6480 207.61 241.26 16.75
665 3.6500 212.46 241.22 16.90
666 3.6520 226.83 241.17 17.27
667 3.6540 223.29 241.12 17.03
668 3.6560 208.56 241.08 16.48
669 3.6580 226.84 241.03 17.48
670 3.6600 190.02 240.98 15.96
671 3.6620 219.49 240.94 16.95
672 3.6640 220.68 240.89 16.96
673 3.6660 214.75 240.84 16.67
674 3.6680 220.53 240.79 17.29
675 3.6700 239.72 240.75 17.99
676 3.6720 202.73 240.70 16.29
677 3.6740 209.45 240.65 16.46
678 3.6760 186.84 240.60 15.58
679 3.6780 201.42 240.55 16.54
680 3.6800 232.06 240.51 17.55
681 3.6820 239.35 240.46 17.68
682 3.6840 241.91 240.41 17.72
683 3.6860 202.96 240.36 16.22
684 3.6880 202.50 240.31 16.50
685 3.6900 222.92 240.26 17.30
686 3.6920 207.44 240.21 16.54
687 3.6940 232.94 240.16 17.31
688 3.6960 240.54 240.11 17.72
689 3.6980 201.83 240.06 16.46
690 3.7000 222.08 240.01 17.33
691 3.7020 249.55 239.96 18.02
692 3.7040 225.93 239.91 17.11
693 3.7060 222.48 239.86 17.02
694 3.7080 251.45 239.81 18.37
695 3.7100 215.50 239.76 17.04
696 3.7120 219.03 239.71 16.95
697 3.7140 234.97 239.66 17.46
698 3.7160 205.76 239.61 16.34
699 3.7180 232.93 239.55 17.75
700 3.7200 266.46 239.50 18.91
701 3.7220 236.91 239.45 17.66
702 3.7240 222.95 239.40 17.06
703 3.7260 225.83 239.35 17.07
704 3.7280 216.25 239.30 17.07
705 3.7300 218.20 239.24 17.13
706 3.7320 209.42 239.19 16.54
707 3.7340 215.22 239.14 16.67
708 3.7360 227.54 239.09 17.22
709 3.7380 248.00 239.04 18.27
710 3.7400 209.14 238.98 16.69
711 3.7420 225.38 238.93 17.18
712 3.7440 233.09 238.88 17.36
713 3.7460 224.96 238.82 17.05
714 3.7480 194.81 238.77 16.17
715 3.7500 210.72 238.72 16.82
716 3.7520 262.10 238.66 18.50
717 3.7540 255.42 238.61 18.24
718 3.7560 228.23 238.56 17.23
719 3.7580 216.28 238.50 17.11
720 3.7600 231.17 238.45 17.59
721 3.7620 237.78 238.40 17.69
722 3.7640 195.06 238.34 15.88
723 3.7660 219.97 238.29 16.94
724 3.7680 221.28 238.23 17.33
725 3.7700 190.03 238.18 16.03
726 3.7720 231.52 238.12 17.40
727 3.7740 218.84 238.07 16.84
728 3.7760 206.25 238.01 16.39
729 3.7780 227.83 237.96 17.62
730 3.7800 236.51 237.90 17.76
731 3.7820 232.13 237.85 17.48
732 3.7840 219.37 237.79 16.87
733 3.7860 187.61 237.74 15.65
734 3.7880 200.16 237.68 16.50
735 3.7900 217.26 237.63 17.11
736 3.7920 231.96 237.57 17.46
737 3.7940 235.19 237.52 17.45
738 3.7960 207.91 237.46 16.43
739 3.7980 208.88 237.41 16.81
740 3.8000 236.45 237.35 17.81
741 3.8020 202.60 237.29 16.33
742 3.8040 225.19 237.24 17.12
743 3.8060 256.97 237.18 18.27
744 3.8080 245.98 237.12 18.25
745 3.8100 201.50 237.07 16.46
746 3.8120 222.69 237.01 17.13
747 3.8140 236.30 236.96 17.48
748 3.8160 221.31 236.90 17.00
749 3.8180 224.66 236.84 17.41
750 3.8200 250.67 236.79 18.42
751 3.8220 210.69 236.73 16.60
752 3.8240 245.98 236.67 17.86
753 3.8260 236.99 236.61 17.55
754 3.8280 207.28 236.56 16.73
755 3.8300 223.79 236.50 17.37
756 3.8320 205.24 236.44 16.41
757 3.8340 244.99 236.38 17.82
758 3.8360 195.35 236.33 15.96
759 3.8380 215.48 236.27 17.07
760 3.8400 225.47 236.21 17.44
761 3.8420 214.67 236.15 16.82
762 3.8440 253.58 236.10 18.13
763 3.8460 252.60 236.04 18.14
764 3.8480 224.13 235.98 17.33
765 3.8500 202.41 235.92 16.56
766 3.8520 225.29 235.86 17.22
767 3.8540 251.84 235.80 18.06
768 3.8560 221.00 235.74 17.02
769 3.8580 240.47 235.69 18.01
770 3.8600 212.46 235.63 16.90
771 3.8620 204.89 235.57 16.40
772 3.8640 221.95 235.51 17.01
773 3.8660 208.83 235.45 16.41
774 3.8680 191.31 235.39 16.04
775 3.8700 218.97 235.33 17.14
776 3.8720 231.09 235.27 17.47
777 3.8740 227.65 235.21 17.14
778 3.8760 227.05 235.16 17.20
779 3.8780 224.00 235.10 17.32
780 3.8800 252.69 235.04 18.43
781 3.8820 227.34 234.98 17.27
782 3.8840 241.93 234.92 17.76
783 3.8860 228.59 234.86 17.10
784 3.8880 213.51 234.80 16.94
785 3.8900 200.11 234.74 16.46
786 3.8920 212.90 234.68 16.77
787 3.8940 204.84 234.62 16.33
788 3.8960 215.04 234.56 16.65
789 3.8980 220.74 234.50 17.19
790 3.9000 207.36 235.82 16.66
791 3.9020 207.93 235.78 16.50
792 3.9040 221.15 235.74 16.95
793 3.9060 228.06 235.70 17.15
794 3.9080 227.55 235.66 17.48
795 3.9100 205.39 235.62 16.60
796 3.9120 207.59 235.59 16.55
797 3.9140 241.81 235.55 17.67
798 3.9160 243.83 235.52 17.78
799 3.9180 234.56 235.48 17.72
800 3.9200 217.80 235.45 17.13
801 3.9220 218.92 235.41 16.97
802 3.9240 233.20 235.38 17.43
803 3.9260 220.46 235.35 16.98
804 3.9280 212.27 235.32 16.84
805 3.9300 221.02 235.29 17.29
806 3.9320 208.66 235.27 16.55
807 3.9340 233.21 235.24 17.43
808 3.9360 223.58 235.22 17.04
809 3.9380 201.26 235.20 16.39
810 3.9400 228.77 235.18 17.61
811 3.9420 248.92 235.16 18.11
812 3.9440 209.55 235.15 16.50
813 3.9460 241.80 235.14 17.73
814 3.9480 227.72 235.13 17.39
815 3.9500 226.08 235.13 17.44
816 3.9520 214.75 235.13 16.77
817 3.9540 230.87 235.13 17.31
818 3.9560 208.76 235.15 16.46
819 3.9580 254.75 235.17 18.45
820 3.9600 250.55 235.20 18.36
821 3.9620 246.09 235.24 17.96
822 3.9640 251.72 235.30 18.09
823 3.9660 227.92 235.37 17.26
824 3.9680 224.04 235.47 14.59
825 3.9700 230.77 235.60 14.00
826 3.9720 240.33 235.77 15.35
827 3.9740 230.49 235.99 15.20
828 3.9760 238.42 236.29 15.96
829 3.9780 245.60 236.71 16.64
830 3.9800 228.38 237.29 16.15
831 3.9820 239.82 238.16 16.37
832 3.9840 246.92 239.51 16.51
833 3.9860 259.88 241.99 17.14
834 3.9880 226.41 248.54 16.42
835 3.9900 271.26 266.31 17.95
836 3.9920 319.00 300.53 19.28
837 3.9940 373.40 364.98 20.70
838 3.9960 502.31 477.02 24.20
839 3.9980 599.98 567.26 27.15
840 4.0000 423.05 433.40 22.52
841 4.0020 300.94 292.60 18.92
842 4.0040 270.79 254.19 17.73
843 4.0060 249.18 245.33 17.20
844 4.0080 214.43 241.50 16.24
845 4.0100 222.22 239.35 16.54
846 4.0120 247.98 238.02 17.21
847 4.0140 277.03 237.15 18.10
848 4.0160 234.74 236.54 16.69
849 4.0180 219.62 236.11 16.47
850 4.0200 213.90 235.79 16.17
851 4.0220 250.45 235.54 17.29
852 4.0240 240.66 235.36 16.76
853 4.0260 227.42 235.22 16.43
854 4.0280 241.27 235.11 17.30
855 4.0300 248.16 235.02 17.40
856 4.0320 224.35 234.96 14.99
857 4.0340 253.92 234.91 15.19
858 4.0360 229.96 234.88 15.27
859 4.0380 218.84 234.86 15.30
860 4.0400 235.85 234.85 16.10
861 4.0420 247.24 234.85 16.39
862 4.0440 247.67 234.86 16.37
863 4.0460 240.38 234.88 16.16
864 4.0480 259.18 234.91 17.16
865 4.0500 240.17 234.94 16.54
866 4.0520 236.44 234.98 16.25
867 4.0540 273.00 235.03 17.37
868 4.0560 216.38 235.08 15.45
869 4.0580 223.73 235.14 16.11
870 4.0600 245.27 235.21 16.84
871 4.0620 254.65 235.29 17.06
872 4.0640 244.87 235.37 16.57
873 4.0660 243.60 235.47 16.60
874 4.0680 226.80 235.57 16.30
875 4.0700 230.42 235.68 16.42
876 4.0720 252.96 235.79 16.99
877 4.0740 204.31 235.92 15.16
878 4.0760 241.93 236.06 16.49
879 4.0780 271.64 236.21 17.77
880 4.0800 240.96 236.37 16.77
881 4.0820 224.73 236.54 16.06
882 4.0840 240.14 236.72 16.40
883 4.0860 201.32 236.91 15.11
884 4.0880 235.85 237.12 16.55
885 4.0900 253.23 237.35 17.19
886 4.0920 230.68 237.59 16.21
887 4.0940 213.71 237.85 15.50
888 4.0960 239.07 238.12 16.45
889 4.0980 260.28 238.42 17.39
890 4.1000 273.08 238.65 17.88
891 4.1020 250.83 238.99 16.91
892 4.1040 255.41 239.36 16.96
893 4.1060 252.46 239.76 16.90
894 4.1080 239.48 240.18 16.66
895 4.1100 260.85 240.63 17.44
896 4.1120 299.67 241.12 18.54
897 4.1140 249.31 241.64 16.73
898 4.1160 257.56 242.20 17.04
899 4.1180 252.16 242.81 17.07
900 4.1200 243.81 243.47 16.81
901 4.1220 247.34 244.19 16.81
902 4.1240 269.63 244.97 17.36
903 4.1260 246.12 245.82 16.73
904 4.1280 260.71 246.76 17.32
905 4.1300 255.45 247.81 17.25
906 4.1320 243.04 248.97 16.70
907 4.1340 257.88 250.29 17.00
908 4.1360 251.99 251.79 16.86
909 4.1380 268.33 253.52 17.66
910 4.1400 259.47 255.54 17.36
911 4.1420 292.91 257.92 18.32
912 4.1440 288.55 260.77 17.99
913 4.1460 301.09 264.19 18.50
914 4.1480 300.45 268.33 18.62
915 4.1500 275.45 273.37 17.93
916 4.1520 301.43 279.50 18.53
917 4.1540 313.93 287.17 18.73
918 4.1560 295.02 296.22 18.31
919 4.1580 328.29 307.14 19.55
920 4.1600 307.20 320.22 18.87
921 4.1620 332.69 335.75 19.48
922 4.1640 393.29 354.02 20.87
923 4.1660 371.16 375.27 20.62
924 4.1680 390.71 399.68 21.33
925 4.1700 377.86 427.38 21.01
926 4.1720 408.70 458.35 21.53
927 4.1740 484.03 492.49 23.28
928 4.1760 507.56 529.54 24.00
929 4.1780 552.62 569.03 25.49
930 4.1800 603.46 610.34 26.54
931 4.1820 732.84 652.66 28.94
932 4.1840 714.71 694.90 28.41
933 4.1860 823.45 735.80 30.72
934 4.1880 915.20 773.87 32.79
935 4.1900 949.95 807.49 33.34
936 4.1920 988.37 834.96 33.71
937 4.1940 980.99 854.68 33.19
938 4.1960 998.69 865.41 33.81
939 4.1980 975.71 866.38 33.98
940 4.2000 957.04 857.53 33.47
941 4.2020 889.05 839.43 31.88
942 4.2040 923.88 813.28 32.32
943 4.2060 771.28 780.64 29.71
944 4.2080 706.15 743.19 28.80
945 4.2100 635.20 702.63 27.32
946 4.2120 620.51 660.48 26.63
947 4.2140 596.25 618.09 25.84
948 4.2160 559.31 576.53 25.30
949 4.2180 517.71 536.69 24.66
950 4.2200 485.63 499.22 23.71
951 4.2220 466.76 464.60 23.10
952 4.2240 439.16 433.13 22.27
953 4.2260 422.25 404.96 21.92
954 4.2280 391.35 380.09 21.48
955 4.2300 371.01 358.43 20.78
956 4.2320 340.22 339.80 19.71
957 4.2340 365.08 323.98 20.24
958 4.2360 311.90 310.67 18.92
959 4.2380 292.60 299.59 18.57
960 4.2400 301.18 290.45 18.70
961 4.2420 308.70 282.96 18.81
962 4.2440 316.39 276.87 18.93
963 4.2740 272.47 256.26 17.51
964 4.2760 267.71 257.61 17.48
965 4.2780 289.14 259.52 18.44
966 4.2800 282.21 262.13 18.13
967 4.2820 326.96 265.61 19.35
968 4.2840 261.40 270.17 17.17
969 4.2860 302.38 276.04 18.60
970 4.2880 281.10 283.47 18.08
971 4.2900 296.71 292.73 18.61
972 4.2920 334.74 304.07 19.51
973 4.2940 327.53 317.71 19.15
974 4.2960 351.95 333.83 20.09
975 4.2980 353.90 352.52 20.35
976 4.3000 365.87 373.74 20.64
977 4.3020 395.14 397.34 21.24
978 4.3040 411.31 422.97 21.49
979 4.3060 449.11 450.09 22.61
980 4.3080 464.90 477.98 23.34
981 4.3100 544.11 505.63 25.25
982 4.3120 554.88 531.84 25.16
983 4.3140 610.99 555.21 26.21
984 4.3160 585.66 574.19 25.90
985 4.3180 616.14 587.34 26.89
986 4.3200 606.17 593.51 26.56
987 4.3220 618.46 592.08 26.57
988 4.3240 573.34 583.13 25.38
989 4.3260 536.86 567.46 24.78
990 4.3280 499.35 546.34 24.08
991 4.3300 471.87 521.30 23.48
992 4.3320 438.75 493.88 22.40
993 4.3340 448.38 465.44 22.51
994 4.3360 400.69 437.13 21.38
995 4.3380 405.76 409.86 21.82
996 4.3400 356.74 384.29 20.30
997 4.3420 354.06 360.90 20.13
998 4.3440 400.34 339.94 21.13
999 4.3460 319.75 321.54 19.10
1000 4.3480 328.47 305.68 19.47
1001 4.3500 297.05 292.25 18.58
1002 4.3520 313.94 281.03 18.85
1003 4.3540 307.46 271.79 18.61
1004 4.3840 265.31 233.05 17.18
1005 4.3860 250.01 232.43 16.86
1006 4.3880 253.66 231.85 17.06
1007 4.3900 268.48 231.32 17.61
1008 4.3920 277.21 230.84 17.69
1009 4.3940 265.26 230.38 17.23
1010 4.3960 267.18 229.95 17.39
1011 4.3980 250.94 229.56 16.99
1012 4.4000 243.21 229.19 16.66
1013 4.4020 261.29 228.84 17.21
1014 4.4040 259.35 228.52 16.99
1015 4.4060 255.14 228.21 17.01
1016 4.4080 277.37 227.93 17.89
1017 4.4100 262.26 227.66 17.41
1018 4.4120 256.34 227.41 16.94
1019 4.4140 268.32 227.17 17.36
1020 4.4160 220.40 226.95 15.83
1021 4.4180 238.83 226.74 16.58
1022 4.4200 249.15 226.55 16.86
1023 4.4220 255.32 226.37 17.03
1024 4.4240 255.64 226.20 16.97
1025 4.4260 246.18 226.04 16.70
1026 4.4280 252.95 225.89 17.07
1027 4.4300 244.18 225.75 16.84
1028 4.4320 230.80 225.63 16.09
1029 4.4340 260.34 225.51 17.09
1030 4.4360 249.45 225.40 16.83
1031 4.4380 262.71 225.31 17.40
1032 4.4400 251.01 225.22 17.00
1033 4.4420 264.43 225.14 17.25
1034 4.4440 260.54 225.08 17.12
1035 4.4460 222.22 225.02 15.87
1036 4.4480 250.00 224.97 16.98
1037 4.4500 233.08 224.93 16.40
1038 4.4520 242.91 224.91 16.55
1039 4.4540 231.54 224.89 16.09
1040 4.4560 263.92 224.89 17.40
1041 4.4580 231.82 224.89 16.42
1042 4.4600 256.30 224.91 17.12
1043 4.4620 229.46 224.94 16.04
1044 4.4640 215.68 224.99 15.58
1045 4.4660 225.65 225.05 16.11
1046 4.4680 216.55 225.12 15.87
1047 4.4700 239.21 225.22 16.60
1048 4.4720 234.79 225.33 16.29
1049 4.4740 258.85 225.46 17.02
1050 4.4760 224.21 225.60 16.05
1051 4.4780 261.64 225.78 17.40
1052 4.4800 238.30 225.97 16.59
1053 4.4820 218.99 226.20 15.67
1054 4.4840 252.07 226.45 16.85
1055 4.4860 264.97 226.74 17.46
1056 4.4880 225.15 227.06 16.24
1057 4.4900 251.49 227.43 17.01
1058 4.4920 241.40 227.84 16.57
1059 4.4940 254.95 228.31 16.89
1060 4.4960 243.20 228.83 16.83
1061 4.4980 247.51 229.43 17.01
1062 4.5000 231.48 230.10 16.35
1063 4.5020 242.85 230.85 16.57
1064 4.5040 235.61 231.72 16.20
1065 4.5060 232.11 232.70 16.35
1066 4.5080 253.54 233.82 17.24
1067 4.5100 254.66 235.11 17.11
1068 4.5120 260.22 236.59 17.15
1069 4.5140 268.51 238.30 17.39
1070 4.5400 453.79 464.64 22.83
1071 4.5420 520.28 564.08 24.38
1072 4.5440 586.52 691.81 25.82
1073 4.5460 798.51 842.44 30.60
1074 4.5480 951.58 1001.74 33.78
1075 4.5500 1129.03 1145.47 36.29
1076 4.5520 1310.50 1242.09 38.94
1077 4.5540 1243.63 1262.78 37.76
1078 4.5560 1231.92 1198.47 38.09
1079 4.5580 1094.46 1068.75 36.24
1080 4.5600 812.71 908.70 30.75
1081 4.5620 617.59 749.02 26.52
1082 4.5640 470.19 608.85 23.07
1083 4.5660 414.27 496.78 21.96
1084 4.5680 376.67 413.73 21.11
1085 4.5700 336.82 355.90 19.81
1086 4.5720 328.93 317.52 19.38
1087 4.5740 291.06 292.69 18.14
1088 4.5760 281.49 276.60 18.12
1089 4.5780 289.79 265.83 18.60
1090 4.5800 267.84 258.23 17.58
1091 4.5820 252.91 252.53 17.04
1092 4.5840 287.78 248.04 18.12
1093 4.5860 256.00 244.36 17.20
1094 4.5880 298.89 241.28 18.80
1095 4.5900 266.17 238.66 17.56
1096 4.5920 266.49 236.42 17.42
1097 4.5940 245.01 234.47 16.62
1098 4.5960 234.79 232.77 16.48
1099 4.5980 244.06 231.28 16.97
1100 4.6000 248.14 229.96 16.96
1101 4.6020 260.30 228.79 17.19
1102 4.6040 251.07 227.75 16.89
1103 4.6060 262.34 226.81 17.39
1104 4.6080 227.76 225.96 16.38
1105 4.6100 242.22 225.20 16.75
1106 4.6120 211.66 224.51 15.52
1107 4.6140 213.12 223.88 15.51
1108 4.6160 230.77 223.30 16.32
1109 4.6180 254.90 222.76 17.35
1110 4.6200 232.50 222.28 16.40
1111 4.6220 228.73 221.82 16.20
1112 4.6240 238.58 221.41 16.41
1113 4.6260 235.18 221.02 16.52
1114 4.6280 246.13 220.65 16.97
1115 4.6300 256.77 220.32 17.24
1116 4.6320 255.88 220.00 17.08
1117 4.6340 229.97 219.70 16.12
1118 4.6360 281.65 219.43 18.00
1119 4.6380 230.68 219.16 16.44
1120 4.6400 247.28 218.91 16.93
1121 4.6420 253.10 218.68 17.00
1122 4.6440 238.82 218.46 16.43
1123 4.6460 255.45 218.25 17.15
1124 4.6480 229.57 218.05 16.41
1125 4.6500 233.28 217.85 16.45
1126 4.6520 267.27 217.67 17.43
1127 4.6540 207.98 217.50 15.32
1128 4.6560 245.61 217.33 16.84
1129 4.6580 261.26 217.17 17.42
1130 4.6600 248.71 217.02 16.91
1131 4.6620 252.84 216.87 16.99
1132 4.6640 252.56 216.73 16.89
1133 4.6660 251.29 216.60 16.89
1134 4.6680 256.20 216.46 17.25
1135 4.6700 216.51 216.34 15.83
1136 4.6720 276.95 216.22 17.76
1137 4.6740 261.84 216.10 17.22
1138 4.6760 235.87 215.98 16.47
1139 4.6780 245.58 215.87 16.91
1140 4.6800 266.19 215.77 17.50
1141 4.6820 247.10 215.66 16.80
1142 4.6840 261.18 215.56 17.18
1143 4.6860 244.86 215.46 16.72
1144 4.6880 273.49 223.34 17.84
1145 4.6900 245.35 223.57 16.87
1146 4.6920 259.49 223.82 17.22
1147 4.6940 274.52 224.10 17.58
1148 4.6960 240.90 224.41 16.64
1149 4.6980 240.44 231.19 16.70
1150 4.7000 260.64 231.79 17.33
1151 4.7020 264.41 232.44 17.37
1152 4.7040 239.60 233.13 16.49
1153 4.7060 246.19 233.88 16.75
1154 4.7080 249.98 234.69 17.07
1155 4.7100 280.00 235.56 18.01
1156 4.7120 252.73 236.51 17.01
1157 4.7140 227.54 237.53 15.98
1158 4.7160 237.68 238.63 16.51
1159 4.7180 249.65 239.84 17.03
1160 4.7200 296.75 241.14 18.55
1161 4.7220 262.62 242.56 17.29
1162 4.7240 262.73 244.12 17.23
1163 4.7260 263.31 245.81 17.38
1164 4.7280 260.45 247.67 17.42
1165 4.7300 256.61 249.71 17.19
1166 4.7320 244.47 251.97 16.72
1167 4.7340 276.80 254.46 17.67
1168 4.7360 279.49 257.21 17.90
1169 4.7380 291.06 260.28 18.41
1170 4.7400 282.70 263.71 18.08
1171 4.7420 284.61 267.56 17.98
1172 4.7440 323.09 271.89 19.08
1173 4.7460 295.31 276.80 18.36
1174 4.7480 303.71 282.39 18.79
1175 4.7500 318.47 288.80 19.17
1176 4.7520 308.22 296.19 18.70
1177 4.7540 324.75 304.79 19.18
1178 4.7560 322.59 314.88 19.21
1179 4.7580 370.06 326.82 20.82
1180 4.7600 400.12 341.13 21.44
1181 4.7620 403.02 358.50 21.44
1182 4.7640 366.22 379.89 20.35
1183 4.7660 410.18 406.70 21.61
1184 4.7680 511.77 441.04 24.52
1185 4.7700 533.81 486.12 24.84
1186 4.7720 542.19 547.20 24.86
1187 4.7740 647.32 633.37 27.06
1188 4.7760 803.58 761.43 30.40
1189 4.7780 1007.48 968.06 34.38
1190 4.7800 1461.04 1373.93 41.32
1191 4.7820 2366.05 2434.08 52.60
1192 4.7840 5114.52 5075.15 78.11
1193 4.7860 11422.90 10510.40 121.51
1194 4.7880 21812.80 19878.00 177.94
1195 4.7900 26513.80 26599.00 199.87
1196 4.7920 13655.20 15711.50 133.56
1197 4.7940 5336.42 5460.08 79.92
1198 4.7960 2955.76 2532.13 58.87
1199 4.7980 2317.64 1865.42 52.58
1200 4.8000 2161.43 1772.48 50.39
1201 4.8020 2588.40 2197.61 54.92
1202 4.8040 3816.30 3653.72 66.97
1203 4.8060 7293.76 6941.28 94.86
1204 4.8080 13892.70 13027.50 136.71
1205 4.8100 21083.80 20030.60 173.91
1206 4.8120 16611.00 17718.90 149.97
1207 4.8140 6511.25 7983.32 88.62
1208 4.8160 2631.41 3095.99 55.56
1209 4.8180 1595.60 1651.53 43.39
1210 4.8200 1013.34 1137.47 34.26
1211 4.8220 789.19 868.61 29.96
1212 4.8240 664.45 704.65 27.51
1213 4.8260 584.95 596.85 25.76
1214 4.8280 469.05 521.95 23.38
1215 4.8300 467.41 467.66 23.19
1216 4.8320 445.11 426.92 22.55
1217 4.8340 418.78 395.49 21.75
1218 4.8360 370.42 370.70 20.63
1219 4.8380 357.44 350.76 20.32
1220 4.8400 343.78 334.44 19.94
1221 4.8420 372.55 320.92 20.58
1222 4.8440 324.40 309.56 19.11
1223 4.8460 315.11 299.92 18.95
1224 4.8480 282.87 291.67 18.22
1225 4.8500 291.84 284.54 18.36
1226 4.8520 306.05 278.33 18.64
1227 4.8540 308.13 272.89 18.69
1228 4.8560 266.25 268.09 17.41
1229 4.8580 287.79 263.84 18.25
1230 4.8600 269.94 260.05 17.58
1231 4.8620 282.98 256.65 17.98
1232 4.8640 246.84 253.60 16.69
1233 4.8660 241.67 250.84 16.57
1234 4.8680 256.37 248.34 17.28
1235 4.8700 259.39 246.07 17.30
1236 4.8720 246.29 243.99 16.72
1237 4.8740 251.54 242.10 16.81
1238 4.8760 252.17 240.35 16.98
1239 4.8780 252.51 238.75 17.08
1240 4.8800 234.03 237.27 16.44
1241 4.8820 265.56 235.90 17.40
1242 4.8840 239.46 234.64 16.46
1243 4.8860 239.21 233.46 16.45
1244 4.8880 254.81 232.36 17.31
1245 4.8900 237.77 231.34 16.56
1246 4.8920 253.66 230.39 16.94
1247 4.8940 268.82 229.50 17.38
1248 4.8960 246.42 221.48 16.84
1249 4.8980 231.92 220.96 16.41
1250 4.9000 243.47 220.47 16.72
1251 4.9020 251.74 220.01 16.87
1252 4.9040 244.58 219.57 16.66
1253 4.9060 224.85 219.17 16.01
1254 4.9080 229.26 218.78 16.40
1255 4.9100 219.55 218.42 15.89
1256 4.9120 224.96 218.08 15.91
1257 4.9140 254.53 217.75 16.92
1258 4.9160 227.64 217.45 16.17
1259 4.9180 217.80 217.15 15.91
1260 4.9200 215.87 216.88 15.71
1261 4.9220 244.28 216.61 16.63
1262 4.9240 244.73 216.36 16.63
1263 4.9260 225.40 216.12 16.03
1264 4.9280 234.22 210.05 16.58
1265 4.9300 253.59 210.02 17.10
1266 4.9320 204.43 210.00 15.20
1267 4.9340 225.15 209.97 15.88
1268 4.9360 223.56 209.95 15.99
1269 4.9380 236.42 209.93 16.66
1270 4.9400 230.35 209.90 16.27
1271 4.9420 239.96 209.88 16.45
1272 4.9440 255.27 209.86 17.02
1273 4.9460 241.36 209.83 16.58
1274 4.9480 237.74 209.81 16.74
1275 4.9500 214.29 209.79 15.75
1276 4.9520 231.33 209.77 16.20
1277 4.9540 225.24 209.74 15.90
1278 4.9560 206.13 209.72 15.38
1279 4.9580 225.75 209.51 16.32
1280 4.9600 213.22 209.49 15.66
1281 4.9620 233.63 209.47 16.30
1282 4.9640 214.46 209.45 15.57
1283 4.9660 237.33 209.43 16.57
1284 4.9680 229.87 209.41 16.49
1285 4.9700 213.34 209.39 15.69
1286 4.9720 206.82 209.37 15.30
1287 4.9740 222.54 209.35 15.89
1288 4.9760 185.43 209.33 14.62
1289 4.9780 215.27 209.31 15.89
1290 4.9800 239.27 209.30 16.58
1291 4.9820 222.61 209.28 15.87
1292 4.9840 205.63 209.26 15.27
1293 4.9860 187.44 209.24 14.65
1294 4.9880 203.65 209.22 15.54
1295 4.9900 227.51 209.21 16.23
1296 4.9920 251.15 209.19 16.92
1297 4.9940 245.37 209.17 16.64
1298 4.9960 234.47 209.15 16.42
1299 4.9980 226.13 209.14 16.30
1300 5.0000 209.15 209.12 15.50
1301 5.0020 207.52 209.10 15.39
1302 5.0040 204.76 209.09 15.18
1303 5.0060 220.23 209.07 15.87
1304 5.0080 214.78 209.05 15.92
1305 5.0100 210.31 209.04 15.58
1306 5.0120 206.61 209.02 15.25
1307 5.0140 201.97 209.00 15.03
1308 5.0160 200.49 208.99 15.19
1309 5.0180 244.73 208.97 16.92
1310 5.0200 182.51 208.96 14.44
1311 5.0220 197.15 208.94 14.96
1312 5.0240 211.62 208.93 15.43
1313 5.0260 219.72 208.91 15.83
1314 5.0280 228.58 208.89 16.40
1315 5.0300 199.00 208.88 15.17
1316 5.0320 192.60 208.86 14.78
1317 5.0340 221.07 208.85 15.75
1318 5.0360 209.45 208.84 15.52
1319 5.0380 229.03 208.82 16.34
1320 5.0400 219.41 208.81 15.89
1321 5.0420 212.25 208.79 15.49
1322 5.0440 227.14 208.78 16.02
1323 5.0460 215.51 208.76 15.71
1324 5.0480 232.89 208.75 16.55
1325 5.0500 248.99 208.74 16.95
1326 5.0520 195.27 208.72 14.91
1327 5.0540 192.95 208.71 14.77
1328 5.0560 180.27 208.70 14.37
1329 5.0580 243.01 208.68 16.83
1330 5.0600 211.31 208.67 15.62
1331 5.0620 188.81 208.66 14.57
1332 5.0640 216.74 208.64 15.59
1333 5.0660 236.77 208.63 16.47
1334 5.0680 207.02 208.62 15.55
1335 5.0700 208.42 208.60 15.47
1336 5.0720 197.95 208.59 14.99
1337 5.0740 191.04 208.58 14.65
1338 5.0760 211.44 208.57 15.51
1339 5.0780 215.96 208.56 15.84
1340 5.0800 197.49 208.54 15.07
1341 5.0820 179.57 208.53 14.22
1342 5.0840 213.03 208.52 15.50
1343 5.0860 235.53 208.51 16.41
1344 5.0880 214.45 208.62 15.77
1345 5.0900 213.99 208.61 15.65
1346 5.0920 239.45 208.60 16.41
1347 5.0940 184.53 208.59 14.41
1348 5.0960 214.99 208.58 15.65
1349 5.0980 208.15 208.57 15.56
1350 5.1000 208.91 208.56 15.42
1351 5.1020 213.75 208.55 15.59
1352 5.1040 210.36 208.54 15.33
1353 5.1060 214.16 208.53 15.67
1354 5.1080 185.67 208.52 14.73
1355 5.1100 215.77 208.51 15.73
1356 5.1120 238.64 208.50 16.38
1357 5.1140 192.67 208.49 14.72
1358 5.1160 186.83 208.48 14.65
1359 5.1180 260.47 208.47 17.37
1360 5.1200 207.42 208.46 15.40
1361 5.1220 193.43 208.46 14.79
1362 5.1240 213.69 208.45 15.48
1363 5.1260 201.91 208.44 15.19
1364 5.1280 203.01 208.43 15.34
1365 5.1300 223.88 208.42 16.05
1366 5.1320 206.01 208.41 15.25
1367 5.1340 211.21 208.41 15.41
1368 5.1360 196.88 208.40 14.98
1369 5.1380 242.06 208.39 16.80
1370 5.1400 220.58 208.38 15.88
1371 5.1420 207.76 208.38 15.30
1372 5.1440 201.36 208.37 15.03
1373 5.1460 202.24 208.36 15.17
1374 5.1480 210.99 208.35 15.70
1375 5.1500 202.35 208.29 15.22
1376 5.1520 192.49 208.28 14.71
1377 5.1540 222.63 208.27 15.83
1378 5.1560 221.86 208.27 15.91
1379 5.1580 191.51 208.26 14.85
1380 5.1600 194.35 208.26 14.84
1381 5.1620 207.49 208.25 15.28
1382 5.1640 198.32 208.14 14.92
1383 5.1660 212.74 208.14 15.61
1384 5.1680 189.98 208.13 14.89
1385 5.1700 207.79 208.13 15.37
1386 5.1720 181.81 208.12 14.28
1387 5.1740 200.39 208.12 15.04
1388 5.1760 219.76 208.11 15.90
1389 5.1780 216.39 208.11 15.81
1390 5.1800 206.72 208.10 15.40
1391 5.1820 220.58 208.10 15.76
1392 5.1840 218.26 208.09 15.65
1393 5.1860 172.99 208.09 14.12
1394 5.1880 219.29 208.08 15.97
1395 5.1900 221.21 208.08 15.90
1396 5.1920 226.44 208.08 15.96
1397 5.1940 221.69 208.07 15.81
1398 5.1960 213.15 208.07 15.69
1399 5.1980 193.35 208.06 15.07
1400 5.2000 194.71 208.06 14.89
1401 5.2020 182.10 208.06 14.34
1402 5.2040 211.38 208.05 15.39
1403 5.2060 220.76 208.05 15.97
1404 5.2080 237.74 208.05 16.69
1405 5.2100 211.05 208.04 15.47
1406 5.2120 197.41 208.04 14.85
1407 5.2140 200.26 208.04 14.96
1408 5.2160 198.62 208.04 15.14
1409 5.2180 208.44 208.03 15.56
1410 5.2200 206.37 208.03 15.29
1411 5.2220 208.60 208.03 15.30
1412 5.2240 201.65 208.03 15.04
1413 5.2260 207.97 208.02 15.58
1414 5.2280 207.18 208.02 15.55
1415 5.2300 182.16 208.02 14.38
1416 5.2320 217.97 208.02 15.64
1417 5.2340 203.40 208.02 15.13
1418 5.2360 211.09 208.01 15.71
1419 5.2380 188.78 208.01 14.82
1420 5.2400 213.30 208.01 15.58
1421 5.2420 200.91 208.01 15.05
1422 5.2440 231.69 208.01 16.13
1423 5.2460 223.16 208.01 16.19
1424 5.2480 200.66 208.01 15.29
1425 5.2500 188.11 208.01 14.65
1426 5.2520 202.77 208.00 15.09
1427 5.2540 207.98 208.00 15.34
1428 5.2560 207.01 208.00 15.61
1429 5.2580 220.14 208.00 16.03
1430 5.2600 249.49 208.00 16.86
1431 5.2620 207.71 208.00 15.36
1432 5.2640 202.40 208.00 15.11
1433 5.2660 195.61 208.00 15.20
1434 5.2680 182.67 208.00 14.71
1435 5.2700 202.36 208.00 15.21
1436 5.2720 226.83 208.00 15.97
1437 5.2740 204.48 208.00 15.21
1438 5.2760 238.29 208.00 16.75
1439 5.2780 221.14 208.00 16.06
1440 5.2800 232.97 208.00 16.31
1441 5.2820 200.96 208.00 15.05
1442 5.2840 202.32 208.00 15.12
1443 5.2860 222.29 208.01 16.14
1444 5.2880 209.80 208.01 15.73
1445 5.2900 199.22 208.01 15.07
1446 5.2920 223.91 208.01 15.89
1447 5.2940 187.63 208.01 14.60
1448 5.2960 223.64 208.01 16.14
1449 5.2980 233.15 208.01 16.57
1450 5.3000 225.40 208.01 16.10
1451 5.3020 189.94 208.01 14.64
1452 5.3040 208.33 208.02 15.38
1453 5.3060 230.00 208.02 16.44
1454 5.3080 216.44 208.02 15.97
1455 5.3100 225.40 208.02 16.07
1456 5.3120 232.68 208.02 16.23
1457 5.3140 202.89 208.03 15.13
1458 5.3160 209.97 208.03 15.66
1459 5.3180 210.01 208.03 15.72
1460 5.3200 228.15 208.03 16.10
1461 5.3220 191.10 208.04 14.68
1462 5.3240 220.19 208.04 15.78
1463 5.3260 228.74 208.04 16.38
1464 5.3280 229.09 208.04 16.42
1465 5.3300 224.09 208.05 16.00
1466 5.3320 214.75 208.05 15.58
1467 5.3340 212.52 208.05 15.45
1468 5.3360 242.11 208.06 16.89
1469 5.3380 232.14 208.06 16.53
1470 5.3400 216.25 208.06 15.70
1471 5.3420 189.84 208.07 14.68
1472 5.3440 205.34 208.07 15.17
1473 5.3460 201.75 208.07 15.37
1474 5.3480 223.84 208.08 16.24
1475 5.3500 218.34 208.08 15.79
1476 5.3520 204.40 208.09 15.18
1477 5.3540 227.41 208.09 16.06
1478 5.3560 215.74 208.10 15.96
1479 5.3580 223.94 208.10 16.23
1480 5.3600 229.46 208.10 16.21
1481 5.3620 203.14 208.11 15.13
1482 5.3640 244.60 208.11 16.64
1483 5.3660 221.12 208.12 16.06
1484 5.3680 203.63 208.12 15.55
1485 5.3700 198.60 208.13 15.11
1486 5.3720 205.37 208.13 15.22
1487 5.3740 202.93 208.14 15.16
1488 5.3760 204.25 208.14 15.52
1489 5.3780 207.42 208.15 15.61
1490 5.3800 219.25 208.15 15.81
1491 5.3820 238.07 208.16 16.48
1492 5.3840 189.75 208.16 14.64
1493 5.3860 198.53 208.17 15.28
1494 5.3880 188.08 208.18 14.96
1495 5.3900 223.92 208.18 16.07
1496 5.3920 207.43 208.19 15.31
1497 5.3940 216.37 208.19 15.69
1498 5.3960 211.45 208.20 15.77
1499 5.3980 216.86 208.21 16.00
1500 5.4000 197.11 208.21 15.07
1501 5.4020 208.24 208.22 15.37
1502 5.4040 217.38 208.22 15.70
1503 5.4060 219.11 208.23 16.04
1504 5.4080 192.03 208.24 15.12
1505 5.4100 210.59 208.24 15.61
1506 5.4120 189.87 208.25 14.65
1507 5.4140 182.66 208.26 14.40
1508 5.4160 207.12 208.26 15.60
1509 5.4180 199.93 208.27 15.37
1510 5.4200 236.84 208.28 16.57
1511 5.4220 199.78 208.29 15.05
1512 5.4240 234.38 208.29 16.33
1513 5.4260 219.39 208.30 16.08
1514 5.4280 215.80 208.31 15.98
1515 5.4300 204.29 208.32 15.33
1516 5.4320 200.28 208.32 15.08
1517 5.4340 201.60 208.33 15.08
1518 5.4360 223.89 208.34 16.13
1519 5.4380 201.27 208.35 15.45
1520 5.4400 195.56 208.35 15.04
1521 5.4420 200.83 208.36 15.13
1522 5.4440 219.72 208.37 15.76
1523 5.4460 187.74 208.38 14.83
1524 5.4480 213.38 208.39 15.93
1525 5.4500 186.89 208.40 14.64
1526 5.4520 240.89 208.40 16.58
1527 5.4540 219.07 208.41 15.75
1528 5.4560 227.98 208.42 16.31
1529 5.4580 197.24 208.43 15.31
1530 5.4600 218.94 208.44 15.97
1531 5.4620 203.37 208.45 15.14
1532 5.4640 200.12 208.46 15.06
1533 5.4660 227.36 208.47 16.28
1534 5.4680 190.02 208.48 14.96
1535 5.4700 190.99 208.49 14.84
1536 5.4720 219.63 208.50 15.77
1537 5.4740 219.47 208.51 15.75
1538 5.4760 208.86 208.52 15.58
1539 5.4780 200.02 208.53 15.38
1540 5.4800 213.02 208.54 15.63
1541 5.4820 212.84 208.55 15.59
1542 5.4840 193.70 208.56 14.76
1543 5.4860 179.51 208.57 14.42
1544 5.4880 196.96 208.58 15.30
1545 5.4900 207.41 208.59 15.53
1546 5.4920 198.25 208.60 14.99
1547 5.4940 202.69 208.61 15.15
1548 5.4960 211.22 208.62 15.67
1549 5.4980 204.25 208.63 15.51
1550 5.5000 216.38 208.64 15.76
1551 5.5020 192.66 208.65 14.79
1552 5.5040 201.02 208.66 15.11
1553 5.5060 217.02 208.68 15.80
1554 5.5080 204.17 208.69 15.55
1555 5.5100 188.86 208.70 14.81
1556 5.5120 210.20 208.71 15.50
1557 5.5140 193.16 208.72 14.73
1558 5.5160 187.57 208.73 14.82
1559 5.5180 206.87 208.75 15.59
1560 5.5200 170.87 208.76 14.11
1561 5.5220 194.24 208.77 14.88
1562 5.5240 198.85 208.78 15.00
1563 5.5260 226.09 208.79 16.16
1564 5.5280 196.55 208.81 15.22
1565 5.5300 199.56 208.82 15.23
1566 5.5320 229.76 208.83 16.18
1567 5.5340 198.84 208.85 14.97
1568 5.5360 217.63 208.86 15.86
1569 5.5380 185.58 208.87 14.80
1570 5.5400 195.17 208.89 15.01
1571 5.5420 179.39 208.90 14.28
1572 5.5440 185.08 208.91 14.42
1573 5.5460 201.36 208.93 15.31
1574 5.5480 240.17 208.94 16.83
1575 5.5500 189.54 208.96 14.83
1576 5.5520 179.17 208.97 14.31
1577 5.5540 202.93 208.98 15.14
1578 5.5560 214.26 209.00 15.72
1579 5.5580 176.73 209.01 14.43
1580 5.5600 206.14 209.03 15.40
1581 5.5620 195.67 209.04 14.94
1582 5.5640 196.81 209.06 14.89
1583 5.5660 194.77 209.07 15.01
1584 5.5680 191.67 209.09 15.01
1585 5.5700 178.61 209.10 14.38
1586 5.5720 202.27 209.12 15.16
1587 5.5740 196.48 209.13 14.87
1588 5.5760 203.30 209.15 15.27
1589 5.5780 232.23 209.17 16.54
1590 5.5800 180.21 209.18 14.44
1591 5.5820 188.87 209.20 14.67
1592 5.5840 196.80 209.22 14.89
1593 5.5860 187.85 209.23 14.75
1594 5.5880 202.06 209.25 15.42
1595 5.5900 185.63 209.27 14.64
1596 5.5920 202.76 209.28 15.15
1597 5.5940 216.03 209.30 15.65
1598 5.5960 180.51 209.32 14.44
1599 5.5980 191.22 209.34 14.98
1600 5.6000 186.07 209.36 14.64
1601 5.6020 198.96 209.38 15.02
1602 5.6040 183.14 209.39 14.37
1603 5.6060 211.67 209.41 15.57
1604 5.6080 201.24 209.43 15.45
1605 5.6100 210.62 209.45 15.60
1606 5.6120 203.45 209.47 15.21
1607 5.6140 181.25 209.49 14.29
1608 5.6160 193.59 209.51 14.92
1609 5.6180 195.79 209.53 15.18
1610 5.6200 200.52 209.55 15.18
1611 5.6220 204.36 209.57 15.27
1612 5.6240 208.32 209.59 15.38
1613 5.6260 186.47 209.62 14.59
1614 5.6280 220.99 209.64 16.10
1615 5.6300 205.29 209.66 15.40
1616 5.6320 190.92 209.68 14.73
1617 5.6340 232.53 209.71 16.19
1618 5.6360 178.60 209.73 14.34
1619 5.6380 198.77 209.75 15.31
1620 5.6400 197.20 209.78 15.02
1621 5.6420 195.42 209.80 14.94
1622 5.6440 236.21 209.82 16.40
1623 5.6460 190.51 209.85 14.77
1624 5.6480 218.06 209.88 16.01
1625 5.6500 212.25 209.90 15.65
1626 5.6520 195.06 209.93 14.89
1627 5.6540 185.86 209.96 14.42
1628 5.6560 206.60 209.98 15.44
1629 5.6580 196.62 210.01 15.20
1630 5.6600 177.53 210.04 14.30
1631 5.6620 201.00 210.07 15.11
1632 5.6640 203.09 210.10 15.17
1633 5.6660 192.01 210.13 14.88
1634 5.6680 180.27 210.16 14.54
1635 5.6700 213.04 210.19 15.69
1636 5.6720 175.06 210.22 14.14
1637 5.6740 214.74 210.26 15.58
1638 5.6760 225.90 210.29 16.05
1639 5.6780 198.79 210.32 15.28
1640 5.6800 182.01 210.36 14.52
1641 5.6820 210.77 210.39 15.46
1642 5.6840 194.73 210.43 14.81
1643 5.6860 193.75 210.47 14.90
1644 5.6880 199.74 210.51 15.34
1645 5.6900 188.83 210.55 14.74
1646 5.6920 205.97 210.59 15.35
1647 5.6940 199.54 210.63 15.00
1648 5.6960 179.98 210.67 14.36
1649 5.6980 207.24 210.71 15.59
1650 5.7000 205.44 210.76 15.39
1651 5.7020 187.69 210.81 14.66
1652 5.7040 206.57 210.85 15.30
1653 5.7060 208.78 210.90 15.42
1654 5.7080 208.68 210.96 15.70
1655 5.7100 180.04 211.01 14.42
1656 5.7120 192.47 211.06 14.83
1657 5.7140 191.05 211.12 14.63
1658 5.7160 178.29 211.18 14.29
1659 5.7180 199.39 211.24 15.28
1660 5.7200 183.68 211.30 14.54
1661 5.7220 222.04 211.36 15.91
1662 5.7240 228.82 211.43 16.12
1663 5.7260 197.15 211.50 14.97
1664 5.7280 216.77 211.57 15.97
1665 5.7300 201.87 211.65 15.31
1666 5.7320 199.86 211.73 15.05
1667 5.7340 205.28 211.81 15.24
1668 5.7360 204.24 211.90 15.26
1669 5.7380 212.91 211.99 15.79
1670 5.7400 201.54 212.08 15.27
1671 5.7420 166.51 212.18 13.75
1672 5.7440 208.37 212.28 15.33
1673 5.7460 193.03 212.39 14.83
1674 5.7480 197.48 212.51 15.23
1675 5.7500 180.17 212.63 14.41
1676 5.7520 207.04 212.76 15.33
1677 5.7540 196.73 212.90 14.86
1678 5.7560 207.84 213.04 15.47
1679 5.7580 213.39 213.20 15.85
1680 5.7600 177.61 213.37 14.32
1681 5.7620 209.05 213.55 15.38
1682 5.7640 233.88 213.75 16.26
1683 5.7660 207.45 213.97 15.40
1684 5.7680 230.81 214.21 16.49
1685 5.7700 210.77 214.49 15.59
1686 5.7720 212.62 214.79 15.53
1687 5.7740 216.17 215.12 15.64
1688 5.7760 213.60 215.50 15.65
1689 5.7780 206.91 215.92 15.59
1690 5.7800 203.45 216.39 15.34
1691 5.7820 233.81 216.91 16.31
1692 5.7840 249.79 217.49 16.78
1693 5.7860 297.15 218.13 18.45
1694 5.7880 236.54 218.84 16.68
1695 5.7900 262.94 219.61 17.54
1696 5.7920 235.58 220.45 16.35
1697 5.7940 229.09 221.38 16.08
1698 5.7960 259.31 222.42 17.22
1699 5.7980 242.01 223.59 16.91
1700 5.8000 228.82 224.95 16.27
1701 5.8020 210.93 226.57 15.47
1702 5.8040 228.74 228.54 16.07
1703 5.8060 219.47 230.97 15.93
1704 5.8080 215.97 233.98 15.98
1705 5.8100 238.42 237.70 16.62
1706 5.8120 251.34 242.25 16.90
1707 5.8140 227.08 247.75 15.99
1708 5.8160 256.29 254.29 17.14
1709 5.8180 282.61 261.95 18.22
1710 5.8200 251.78 270.76 17.07
1711 5.8220 266.24 280.68 17.42
1712 5.8240 293.33 291.64 18.20
1713 5.8260 319.52 303.49 19.09
1714 5.8280 328.65 315.98 19.67
1715 5.8300 327.92 328.79 19.58
1716 5.8320 314.88 341.48 18.87
1717 5.8340 385.01 353.53 20.87
1718 5.8360 332.64 364.31 19.61
1719 5.8380 407.86 373.16 21.93
1720 5.8400 411.98 379.43 21.77
1721 5.8420 404.86 382.58 21.60
1722 5.8440 430.60 382.34 22.07
1723 5.8460 401.89 378.73 21.41
1724 5.8480 370.16 372.06 20.93
1725 5.8500 365.87 362.90 20.51
1726 5.8520 379.19 351.89 20.80
1727 5.8540 368.18 339.73 20.40
1728 5.8560 346.24 327.00 19.94
1729 5.8580 311.11 314.23 19.18
1730 5.8600 298.40 301.83 18.54
1731 5.8620 301.47 290.11 18.52
1732 5.8640 293.91 279.29 18.26
1733 5.8660 253.63 269.49 17.03
1734 5.8680 236.79 260.82 16.69
1735 5.8700 258.84 253.26 17.32
1736 5.8720 264.17 246.79 17.36
1737 5.8740 237.68 241.34 16.34
1738 5.8760 231.79 236.81 16.25
1739 5.8780 240.60 233.09 16.83
1740 5.8800 248.82 230.07 16.95
1741 5.8820 234.73 227.64 16.33
1742 5.8840 226.70 225.70 16.02
1743 5.8860 222.12 224.15 15.93
1744 5.8880 249.58 222.92 17.08
1745 5.8900 246.47 221.93 16.87
1746 5.8920 231.74 221.14 16.28
1747 5.8940 228.04 220.50 16.00
1748 5.8960 247.68 219.98 16.79
1749 5.8980 250.65 219.55 17.15
1750 5.9000 219.16 219.19 15.93
1751 5.9020 221.02 218.89 15.86
1752 5.9040 203.16 218.63 15.11
1753 5.9060 224.84 218.41 16.06
1754 5.9080 208.73 218.23 15.65
1755 5.9100 214.03 218.07 15.67
1756 5.9120 213.25 217.94 15.62
1757 5.9140 244.83 217.84 16.58
1758 5.9160 225.30 217.75 16.04
1759 5.9180 231.91 217.68 16.48
1760 5.9200 229.77 217.63 16.32
1761 5.9220 239.84 217.60 16.47
1762 5.9240 223.75 217.58 15.88
1763 5.9260 223.83 217.57 16.05
1764 5.9280 227.90 217.59 16.32
1765 5.9300 239.87 217.61 16.68
1766 5.9320 219.90 217.65 15.77
1767 5.9340 237.77 217.71 16.39
1768 5.9360 230.67 217.77 16.21
1769 5.9380 267.70 217.85 17.67
1770 5.9400 203.58 217.95 15.29
1771 5.9420 202.25 218.06 15.20
1772 5.9440 241.44 218.18 16.44
1773 5.9460 205.31 218.31 15.31
1774 5.9480 212.81 218.46 15.78
1775 5.9500 237.04 218.63 16.67
1776 5.9520 234.11 218.81 16.33
1777 5.9540 224.60 219.00 15.93
1778 5.9560 191.60 219.22 14.84
1779 5.9580 220.75 219.45 16.07
1780 5.9600 229.24 219.69 16.29
1781 5.9620 193.90 219.96 14.87
1782 5.9640 208.42 220.25 15.32
1783 5.9660 214.62 220.56 15.70
1784 5.9680 222.07 220.89 14.83
1785 5.9700 211.78 221.25 13.87
1786 5.9720 235.12 221.64 15.18
1787 5.9740 234.51 222.05 15.26
1788 5.9760 246.21 222.50 16.01
1789 5.9780 247.42 222.98 16.25
1790 5.9800 227.65 223.50 15.55
1791 6.0100 235.38 244.83 15.28
1792 6.0120 240.54 248.91 15.33
1793 6.0140 262.54 253.83 15.93
1794 6.0160 285.44 259.76 16.79
1795 6.0180 265.15 266.88 16.30
1796 6.0200 259.85 275.38 16.19
1797 6.0220 263.24 285.48 16.17
1798 6.0240 278.73 297.38 16.63
1799 6.0260 313.77 311.26 17.70
1800 6.0280 321.83 327.30 18.21
1801 6.0300 297.59 345.61 17.44
1802 6.0320 333.67 366.30 18.35
1803 6.0340 368.40 389.35 19.13
1804 6.0360 357.86 414.69 19.04
1805 6.0380 392.86 442.16 20.14
1806 6.0400 451.86 471.44 21.54
1807 6.0420 456.87 502.14 21.53
1808 6.0440 436.08 533.72 20.84
1809 6.0460 504.64 565.45 22.64
1810 6.0480 570.79 596.48 24.30
1811 6.0500 605.84 625.82 25.02
1812 6.0520 589.46 652.31 24.43
1813 6.0540 652.32 674.73 25.58
1814 6.0560 719.45 691.90 26.96
1815 6.0580 708.50 702.79 27.05
1816 6.0600 737.60 706.69 27.53
1817 6.0620 741.51 703.33 27.41
1818 6.0640 754.00 692.92 27.59
1819 6.0660 750.77 676.16 27.63
1820 6.0680 676.91 654.06 26.44
1821 6.0700 637.02 627.79 25.56
1822 6.0720 657.75 598.59 25.85
1823 6.0740 579.20 567.60 24.05
1824 6.0760 532.12 535.87 23.28
1825 6.0780 511.47 504.24 22.84
1826 6.0800 452.71 473.44 21.54
1827 6.0820 403.79 444.02 20.25
1828 6.0840 405.15 416.41 20.16
1829 6.0860 394.72 390.91 19.90
1830 6.0880 371.47 367.68 19.55
1831 6.0900 345.65 346.83 18.82
1832 6.0920 290.61 328.34 17.15
1833 6.0940 278.76 312.15 16.68
1834 6.0960 276.56 298.12 16.74
1835 6.0980 303.53 286.09 17.59
1836 6.1000 282.87 275.88 16.93
1837 6.1020 284.27 267.27 16.98
1838 6.1040 269.01 260.06 16.33
1839 6.1060 285.70 254.05 16.92
1840 6.1080 242.76 249.07 15.72
1841 6.1100 238.33 244.93 15.60
1842 6.1120 230.28 241.50 15.24
1843 6.1140 231.59 238.64 15.17
1844 6.1160 231.29 236.24 15.25
1845 6.1180 223.24 234.22 15.07
1846 6.1200 226.70 232.49 15.20
1847 6.1220 232.92 231.01 15.33
1848 6.1240 245.34 229.72 15.62
1849 6.1260 243.10 228.58 15.62
1850 6.1280 210.83 227.57 14.65
1851 6.1300 241.27 226.67 15.67
1852 6.1320 240.51 225.85 15.57
1853 6.1340 211.36 225.10 14.49
1854 6.1360 227.77 224.41 15.15
1855 6.1380 206.29 223.78 14.43
1856 6.1400 211.66 223.19 14.70
1857 6.1420 220.01 222.65 14.87
1858 6.1440 210.22 222.14 14.48
1859 6.1460 221.85 221.67 14.94
1860 6.1480 177.80 221.22 13.47
1861 6.1500 208.84 220.81 14.62
1862 6.1520 219.81 220.42 14.80
1863 6.1540 215.38 220.05 14.66
1864 6.1560 206.32 219.70 14.37
1865 6.1580 187.54 219.38 13.85
1866 6.1600 203.20 219.07 14.40
1867 6.1620 217.64 218.78 14.81
1868 6.1640 202.71 218.51 14.17
1869 6.1660 208.38 218.24 14.54
1870 6.1680 212.42 218.00 14.75
1871 6.1700 223.01 217.76 15.10
1872 6.1720 217.33 217.54 14.80
1873 6.1740 180.17 217.33 13.37
1874 6.1760 197.26 217.13 14.14
1875 6.1780 212.34 216.94 14.76
1876 6.1800 197.69 216.76 14.22
1877 6.1820 180.68 216.59 13.50
1878 6.1840 199.07 216.42 14.13
1879 6.1860 206.75 216.26 14.40
1880 6.1880 226.58 216.11 15.31
1881 6.1900 218.60 215.97 14.97
1882 6.1920 197.38 215.83 14.13
1883 6.1940 221.80 215.70 14.81
1884 6.1960 195.08 215.57 14.09
1885 6.1980 217.83 215.45 14.95
1886 6.2000 239.17 215.34 15.60
1887 6.2020 221.63 215.23 15.00
1888 6.2040 190.87 215.12 13.79
1889 6.2060 196.07 215.02 14.05
1890 6.2080 201.43 214.92 14.42
1891 6.2100 184.64 214.82 13.75
1892 6.2120 210.52 214.73 14.57
1893 6.2140 181.23 214.65 13.44
1894 6.2160 215.16 214.56 14.71
1895 6.2180 228.00 214.48 15.40
1896 6.2200 224.46 214.40 15.13
1897 6.2220 200.62 214.33 14.24
1898 6.2240 206.86 214.25 14.37
1899 6.2260 211.48 214.18 14.64
1900 6.2280 213.54 214.12 14.82
1901 6.2300 199.11 214.05 14.34
1902 6.2320 203.60 213.99 14.37
1903 6.2340 210.45 213.92 14.48
1904 6.2360 204.90 213.87 14.43
1905 6.2380 173.72 213.81 13.36
1906 6.2400 186.79 213.75 13.82
1907 6.2420 220.97 213.70 14.93
1908 6.2440 211.30 213.64 14.63
1909 6.2460 193.48 213.59 13.98
1910 6.2480 208.91 213.54 14.71
1911 6.2500 193.19 213.50 14.08
1912 6.2520 197.49 213.45 14.12
1913 6.2540 179.56 213.40 13.41
1914 6.2560 219.09 213.36 14.92
1915 6.2580 194.33 213.32 14.14
1916 6.2600 219.35 213.28 14.97
1917 6.2620 219.01 213.24 14.90
1918 6.2640 201.15 213.20 14.21
1919 6.2660 200.44 213.16 14.28
1920 6.2680 200.40 213.12 14.39
1921 6.2700 184.64 213.08 13.77
1922 6.2720 197.39 213.05 14.16
1923 6.2740 195.69 213.01 14.02
1924 6.2760 180.70 212.98 13.56
1925 6.2780 217.48 212.95 14.95
1926 6.2800 220.50 212.91 15.01
1927 6.2820 191.08 212.88 13.91
1928 6.2840 208.58 212.85 14.44
1929 6.2860 179.58 212.82 13.42
1930 6.2880 195.34 212.79 14.18
1931 6.2900 181.10 212.76 13.62
1932 6.2920 177.86 212.74 13.40
1933 6.2940 192.43 212.71 13.88
1934 6.2960 197.95 212.68 14.14
1935 6.2980 189.09 212.65 13.90
1936 6.3000 219.44 212.63 14.99
1937 6.3020 220.80 212.60 14.89
1938 6.3040 198.19 212.58 14.10
1939 6.3060 195.54 212.55 14.01
1940 6.3080 187.78 212.53 13.87
1941 6.3100 189.02 212.51 13.92
1942 6.3120 195.80 212.48 14.07
1943 6.3140 216.58 212.46 14.74
1944 6.3160 221.64 212.44 14.95
1945 6.3180 174.07 212.41 13.34
1946 6.3200 212.72 212.39 14.74
1947 6.3220 212.46 212.37 14.64
1948 6.3240 193.81 212.35 13.90
1949 6.3260 211.39 212.33 14.58
1950 6.3280 180.17 212.31 13.61
1951 6.3300 218.24 212.29 14.96
1952 6.3320 175.85 212.27 13.27
1953 6.3340 188.25 212.25 13.77
1954 6.3360 226.28 212.23 15.10
1955 6.3380 180.64 212.21 13.62
1956 6.3400 207.78 212.19 14.57
1957 6.3420 210.60 212.18 14.53
1958 6.3440 205.33 212.16 14.39
1959 6.3460 183.52 212.14 13.58
1960 6.3480 199.05 212.12 14.30
1961 6.3500 211.27 212.10 14.63
1962 6.3520 215.10 212.09 14.77
1963 6.3540 211.47 212.07 14.50
1964 6.3560 198.88 212.47 14.16
1965 6.3580 204.50 212.46 14.46
1966 6.3600 215.34 212.45 14.81
1967 6.3620 191.21 212.44 13.87
1968 6.3640 205.78 212.43 14.40
1969 6.3660 206.54 212.42 14.39
1970 6.3680 211.63 212.41 14.74
1971 6.3700 215.06 212.41 14.81
1972 6.3720 181.75 212.40 13.51
1973 6.3740 203.77 212.39 14.23
1974 6.3760 188.93 212.38 13.79
1975 6.3780 223.13 212.38 14.99
1976 6.3800 201.40 212.37 14.34
1977 6.3820 182.61 212.36 13.54
1978 6.3840 203.03 212.36 14.20
1979 6.3860 189.03 212.35 13.76
1980 6.3880 187.77 212.34 13.84
1981 6.3900 196.44 212.34 14.08
1982 6.3920 202.45 212.33 14.28
1983 6.3940 220.06 212.33 14.81
1984 6.3960 196.94 212.33 14.03
1985 6.3980 199.28 212.32 14.21
1986 6.4000 192.93 212.32 13.99
1987 6.4020 186.41 212.32 13.72
1988 6.4040 184.30 212.31 13.56
1989 6.4060 188.84 212.31 13.72
1990 6.4080 200.17 212.31 14.26
1991 6.4100 190.37 212.31 13.85
1992 6.4120 187.32 212.31 13.71
1993 6.4140 196.04 212.31 13.95
1994 6.4160 189.68 212.31 13.79
1995 6.4180 183.02 212.31 13.61
1996 6.4200 213.04 212.31 14.63
1997 6.4220 207.02 212.32 14.43
1998 6.4240 219.63 212.32 14.75
1999 6.4260 184.91 212.32 13.63
2000 6.4280 209.39 212.33 14.55
2001 6.4300 206.15 212.33 14.45
2002 6.4320 177.39 212.34 13.35
2003 6.4340 198.50 212.35 14.03
2004 6.4360 201.53 212.35 14.16
2005 6.4380 218.49 212.37 14.92
2006 6.4400 192.25 212.38 13.89
2007 6.4420 223.10 212.39 14.97
2008 6.4440 206.87 212.40 14.31
2009 6.4460 205.98 212.41 14.39
2010 6.4480 186.98 212.43 13.75
2011 6.4500 216.39 212.45 14.79
2012 6.4520 222.01 212.46 14.94
2013 6.4540 221.88 212.48 14.84
2014 6.4560 216.40 212.51 14.72
2015 6.4580 221.23 212.53 15.00
2016 6.4600 214.61 212.55 14.71
2017 6.4620 199.41 212.58 14.18
2018 6.4640 214.57 212.61 14.56
2019 6.4660 226.87 212.65 15.16
2020 6.4680 192.75 212.68 14.08
2021 6.4700 204.69 212.72 14.41
2022 6.4720 193.32 212.77 13.98
2023 6.4740 216.75 212.82 14.70
2024 6.4760 220.42 212.87 14.92
2025 6.4780 177.49 212.92 13.45
2026 6.4800 197.16 212.99 14.14
2027 6.4820 211.13 213.05 14.55
2028 6.4840 196.29 213.13 13.92
2029 6.4860 210.38 213.21 14.58
2030 6.4880 198.39 213.30 14.30
2031 6.4900 203.01 213.40 14.33
2032 6.4920 213.26 213.51 14.60
2033 6.4940 188.62 213.63 13.74
2034 6.4960 194.59 213.77 14.09
2035 6.4980 181.40 213.92 13.65
2036 6.5000 197.42 214.09 14.07
2037 6.5020 216.83 214.28 14.79
2038 6.5040 214.89 214.49 14.64
2039 6.5060 200.41 214.76 14.31
2040 6.5080 208.64 215.04 14.70
2041 6.5100 189.06 215.36 13.77
2042 6.5120 218.49 215.73 14.82
2043 6.5140 221.49 216.15 14.85
2044 6.5160 211.85 216.65 14.72
2045 6.5180 199.51 217.24 14.35
2046 6.5200 215.28 217.94 14.74
2047 6.5220 188.43 218.77 13.79
2048 6.5240 218.32 219.80 14.81
2049 6.5260 198.57 221.05 14.28
2050 6.5280 210.46 222.63 14.84
2051 6.5300 213.84 224.63 14.72
2052 6.5320 206.44 227.24 14.46
2053 6.5340 202.37 230.72 14.27
2054 6.5360 223.19 235.52 15.20
2055 6.5380 232.75 242.54 15.57
2056 6.5400 247.07 253.88 15.78
2057 6.5420 292.60 274.95 17.21
2058 6.5440 403.59 317.81 20.21
2059 6.5460 476.78 401.84 22.16
2060 6.5480 620.11 540.51 25.48
2061 6.5500 751.54 707.49 27.79
2062 6.5520 812.38 808.00 28.74
2063 6.5540 716.54 736.13 26.96
2064 6.5560 548.59 559.60 23.82
2065 6.5580 454.79 409.08 21.85
2066 6.5600 348.06 319.53 18.78
2067 6.5620 267.21 275.30 16.46
2068 6.5640 252.99 254.32 16.02
2069 6.5660 218.71 243.13 14.94
2070 6.5680 215.38 236.15 14.97
2071 6.5700 241.92 231.34 15.72
2072 6.5720 232.04 227.86 15.36
2073 6.5740 216.64 225.27 14.78
2074 6.5760 230.92 223.29 15.39
2075 6.5780 231.43 221.75 15.53
2076 6.5800 221.38 220.55 15.02
2077 6.5820 232.00 219.58 15.31
2078 6.5840 228.28 218.79 15.28
2079 6.5860 226.27 218.16 15.15
2080 6.5880 195.38 217.63 14.29
2081 6.5900 233.62 217.21 15.41
2082 6.5920 211.83 216.85 14.67
2083 6.5940 198.20 216.57 14.12
2084 6.5960 211.21 216.33 14.66
2085 6.5980 209.00 216.15 14.74
2086 6.6000 192.73 216.00 14.03
2087 6.6020 196.82 215.89 14.17
2088 6.6040 226.06 215.81 15.12
2089 6.6060 209.14 215.76 14.58
2090 6.6080 207.12 215.74 14.71
2091 6.6100 236.99 215.74 15.51
2092 6.6120 226.14 215.77 15.17
2093 6.6140 245.21 215.82 15.72
2094 6.6160 207.37 215.89 14.49
2095 6.6180 197.49 215.99 14.34
2096 6.6200 220.50 216.11 14.99
2097 6.6220 229.77 216.26 15.25
2098 6.6240 230.01 216.43 15.30
2099 6.6260 217.20 216.62 14.78
2100 6.6280 219.87 216.85 15.14
2101 6.6300 211.23 217.10 14.71
2102 6.6320 211.81 217.39 14.66
2103 6.6340 203.31 217.72 14.28
2104 6.6360 217.32 218.08 14.91
2105 6.6380 235.15 218.49 15.57
2106 6.6400 209.11 218.95 14.54
2107 6.6420 236.21 219.46 15.49
2108 6.6440 219.01 220.04 14.87
2109 6.6460 217.19 220.68 14.71
2110 6.6480 228.66 221.41 15.35
2111 6.6500 245.10 222.22 15.86
2112 6.6520 234.35 223.15 15.33
2113 6.6540 219.47 224.20 14.85
2114 6.6560 242.35 225.40 15.62
2115 6.6580 223.20 226.76 15.14
2116 6.6600 215.09 228.34 14.71
2117 6.6620 208.23 230.16 14.59
2118 6.6640 237.24 232.29 15.47
2119 6.6660 239.12 234.83 15.50
2120 6.6680 257.79 237.90 16.23
2121 6.6700 250.92 241.75 16.00
2122 6.6720 285.31 246.76 16.99
2123 6.6740 313.07 253.54 17.71
2124 6.6760 399.29 263.09 20.07
2125 6.6780 392.42 276.83 20.08
2126 6.6800 406.37 296.73 20.30
2127 6.6820 410.64 325.21 20.35
2128 6.6840 440.23 364.84 21.08
2129 6.6860 425.49 417.88 20.66
2130 6.6880 471.07 485.53 22.02
2131 6.6900 549.65 567.01 23.72
2132 6.6920 652.19 658.64 25.68
2133 6.6940 746.59 752.81 27.41
2134 6.6960 832.61 837.36 28.98
2135 6.6980 976.38 896.46 31.72
2136 6.7000 991.06 915.53 31.81
2137 6.7020 967.07 888.80 31.39
2138 6.7040 857.90 823.57 29.50
2139 6.7060 746.27 735.51 27.46
2140 6.7080 603.67 640.46 24.96
2141 6.7100 515.89 549.90 22.90
2142 6.7120 439.12 470.61 21.07
2143 6.7140 354.59 405.61 18.86
2144 6.7160 290.63 355.18 17.07
2145 6.7180 293.10 317.88 17.38
2146 6.7200 272.40 291.27 16.58
2147 6.7220 267.77 272.75 16.49
2148 6.7240 245.61 259.98 15.73
2149 6.7260 256.15 251.07 16.04
2150 6.7280 236.47 244.68 15.61
2151 6.7300 254.87 239.91 16.04
2152 6.7320 245.91 236.19 15.76
2153 6.7340 234.88 233.18 15.34
2154 6.7360 212.40 230.68 14.65
2155 6.7380 226.77 228.55 15.23
2156 6.7400 220.33 226.71 15.00
2157 6.7420 227.76 225.11 15.18
2158 6.7440 201.41 223.71 14.24
2159 6.7460 223.11 222.48 14.96
2160 6.7480 217.35 221.38 14.98
2161 6.7500 235.73 220.40 15.54
2162 6.7520 199.85 219.53 14.21
2163 6.7540 193.59 218.59 13.93
2164 6.7560 192.14 217.88 13.95
2165 6.7580 212.26 217.24 14.73
2166 6.7600 216.88 216.66 14.86
2167 6.7620 189.91 216.13 13.88
2168 6.7640 188.55 215.64 13.75
2169 6.7660 216.67 215.20 14.78
2170 6.7680 205.88 214.79 14.60
2171 6.7700 211.19 214.41 14.66
2172 6.7720 215.58 214.06 14.75
2173 6.7740 184.98 213.74 13.65
2174 6.7760 197.93 213.43 14.12
2175 6.7780 206.32 213.15 14.58
2176 6.7800 203.21 212.89 14.32
2177 6.7820 206.49 212.64 14.47
2178 6.7840 204.48 212.41 14.34
2179 6.7860 206.20 212.19 14.42
2180 6.7880 211.60 211.99 14.77
2181 6.7900 211.79 211.79 14.67
2182 6.7920 206.06 211.61 14.45
2183 6.7940 186.90 211.44 13.75
2184 6.7960 199.28 211.27 14.15
2185 6.7980 200.79 211.12 14.32
2186 6.8000 204.72 210.97 14.39
2187 6.8020 206.76 210.83 14.44
2188 6.8040 210.75 210.69 14.55
2189 6.8060 221.94 210.57 14.96
2190 6.8080 223.35 210.44 15.16
2191 6.8100 191.17 210.32 13.91
2192 6.8120 174.94 210.21 13.31
2193 6.8140 190.14 210.10 13.82
2194 6.8160 187.33 210.00 13.75
2195 6.8180 192.63 209.90 14.03
2196 6.8200 182.09 209.80 13.61
2197 6.8220 180.38 209.70 13.49
2198 6.8240 220.59 209.61 14.89
2199 6.8260 183.22 209.52 13.56
2200 6.8280 203.15 209.44 14.43
2201 6.8300 200.82 209.36 14.27
2202 6.8320 173.00 209.28 13.20
2203 6.8340 185.99 209.20 13.71
2204 6.8360 194.97 209.12 14.01
2205 6.8380 224.91 209.05 15.13
2206 6.8400 173.56 208.98 13.25
2207 6.8420 202.57 208.91 14.32
2208 6.8440 198.80 208.84 14.11
2209 6.8460 211.12 208.77 14.59
2210 6.8480 193.90 208.71 14.12
2211 6.8500 182.56 208.65 13.61
2212 6.8520 202.78 208.58 14.32
2213 6.8540 175.88 208.52 13.27
2214 6.8560 217.34 208.46 14.78
2215 6.8580 188.35 208.41 13.80
2216 6.8600 207.20 208.35 14.49
2217 6.8620 198.58 208.29 14.20
2218 6.8640 199.01 208.24 14.11
2219 6.8660 208.89 208.18 14.48
2220 6.8680 192.32 208.13 14.07
2221 6.8700 200.84 208.08 14.27
2222 6.8720 220.00 208.03 14.86
2223 6.8740 187.31 207.98 13.66
2224 6.8760 192.22 207.93 13.92
2225 6.8780 186.10 207.88 13.78
2226 6.8800 186.45 207.83 13.75
2227 6.8820 184.94 207.79 13.71
2228 6.8840 187.69 207.74 13.67
2229 6.8860 211.82 207.69 14.64
2230 6.8880 198.57 207.65 14.27
2231 6.8900 203.06 207.60 14.38
2232 6.8920 216.23 207.56 14.73
2233 6.8940 180.44 207.52 13.44
2234 6.8960 196.68 207.48 14.11
2235 6.8980 174.93 207.43 13.37
2236 6.9000 176.64 207.39 13.38
2237 6.9020 207.76 207.35 14.47
2238 6.9040 183.45 207.31 13.52
2239 6.9060 188.16 207.27 13.77
2240 6.9080 181.36 207.23 13.64
2241 6.9100 190.79 207.19 13.90
2242 6.9120 206.13 207.16 14.45
2243 6.9140 182.50 207.12 13.49
2244 6.9160 185.51 207.08 13.72
2245 6.9180 189.58 207.05 13.91
2246 6.9200 175.24 207.01 13.31
2247 6.9220 190.32 206.98 13.84
2248 6.9240 228.35 206.94 15.13
2249 6.9260 207.78 206.91 14.52
2250 6.9280 212.61 206.88 14.74
2251 6.9300 179.66 206.84 13.50
2252 6.9320 190.57 206.81 13.87
2253 6.9340 160.04 206.78 12.68
2254 6.9360 214.31 206.75 14.74
2255 6.9380 221.69 206.72 15.07
2256 6.9400 202.52 206.69 14.34
2257 6.9420 206.94 206.66 14.44
2258 6.9440 191.67 206.63 13.87
2259 6.9460 182.83 206.61 13.61
2260 6.9480 178.57 206.58 13.60
2261 6.9500 193.48 206.56 13.93
2262 6.9520 177.75 206.53 13.39
2263 6.9540 194.77 206.51 14.03
2264 6.9560 200.26 206.49 14.24
2265 6.9580 186.33 206.47 13.82
2266 6.9600 182.65 206.45 13.61
2267 6.9620 219.15 206.43 14.89
2268 6.9640 200.49 206.41 14.20
2269 6.9660 201.21 206.40 14.31
2270 6.9680 213.83 206.38 14.87
2271 6.9700 197.61 206.37 14.17
2272 6.9720 221.81 206.36 14.99
2273 6.9740 192.68 206.35 14.00
2274 6.9760 202.00 206.34 14.34
2275 6.9780 212.42 206.33 14.81
2276 6.9800 201.60 206.33 14.32
2277 6.9820 206.56 206.33 14.47
2278 6.9840 191.43 206.33 13.86
2279 6.9860 219.71 206.34 14.94
2280 6.9880 192.11 206.34 14.07
2281 6.9900 194.67 206.35 14.09
2282 6.9920 206.32 206.37 14.43
2283 6.9940 194.16 206.39 13.97
2284 6.9960 191.58 206.41 13.92
2285 6.9980 204.42 206.44 14.51
2286 7.0000 225.40 206.47 15.09
2287 7.0020 210.44 206.51 14.55
2288 7.0040 201.14 206.55 14.22
2289 7.0060 219.60 206.60 14.85
2290 7.0080 199.99 206.66 14.38
2291 7.0100 209.05 206.73 14.64
2292 7.0120 209.84 206.80 14.59
2293 7.0140 198.88 206.89 14.10
2294 7.0160 235.26 206.99 15.42
2295 7.0180 196.83 207.10 14.22
2296 7.0200 227.43 207.23 15.18
2297 7.0220 230.11 207.38 15.23
2298 7.0240 193.00 207.54 13.90
2299 7.0260 214.25 207.73 14.71
2300 7.0280 212.12 207.94 14.72
2301 7.0300 225.60 208.19 15.14
2302 7.0320 213.16 208.47 14.73
2303 7.0340 202.38 208.80 14.26
2304 7.0360 228.33 209.18 15.18
2305 7.0380 219.54 209.65 15.07
2306 7.0400 231.60 210.21 15.31
2307 7.0420 217.16 210.92 14.87
2308 7.0440 205.14 211.85 14.31
2309 7.0460 235.11 213.07 15.51
2310 7.0480 210.79 214.72 14.71
2311 7.0500 228.22 216.97 15.20
2312 7.0520 231.58 220.03 15.35
2313 7.0540 238.34 224.13 15.39
2314 7.0560 224.53 229.52 15.04
2315 7.0580 271.25 236.44 16.63
2316 7.0600 261.45 245.02 16.27
2317 7.0620 244.96 255.21 15.70
2318 7.0640 268.45 267.01 16.39
2319 7.0660 275.17 279.92 16.73
2320 7.0680 309.19 293.22 17.80
2321 7.0700 319.31 305.82 17.91
2322 7.0720 307.81 316.32 17.66
2323 7.0740 368.34 323.14 19.16
2324 7.0760 291.39 325.08 17.13
2325 7.0780 305.40 321.77 17.66
2326 7.0800 265.33 313.90 16.41
2327 7.0820 296.47 302.93 17.31
2328 7.0840 274.12 290.43 16.52
2329 7.0860 265.27 277.75 16.44
2330 7.0880 295.35 265.89 17.43
2331 7.0900 269.24 255.51 16.47
2332 7.0920 258.71 247.03 16.13
2333 7.0940 271.26 240.68 16.48
2334 7.0960 270.55 236.56 16.53
2335 7.0980 243.94 234.72 15.74
2336 7.1000 247.02 235.17 15.78
2337 7.1020 270.56 237.93 16.58
2338 7.1040 250.08 242.96 15.83
2339 7.1060 277.41 250.18 16.72
2340 7.1080 288.29 259.40 17.14
2341 7.1100 269.48 270.19 16.54
2342 7.1120 242.41 281.88 15.60
2343 7.1140 270.64 293.44 16.40
2344 7.1160 297.36 303.45 17.35
2345 7.1180 296.32 310.27 17.37
2346 7.1200 328.66 312.47 18.21
2347 7.1220 287.76 309.45 17.00
2348 7.1240 278.59 301.78 16.70
2349 7.1260 318.16 290.90 17.86
2350 7.1280 301.99 278.45 17.57
2351 7.1300 255.66 265.81 16.05
2352 7.1320 264.24 253.95 16.33
2353 7.1340 280.41 243.43 16.66
2354 7.1360 261.84 234.56 16.23
2355 7.1380 238.73 227.37 15.54
2356 7.1400 249.66 221.75 15.85
2357 7.1420 232.29 217.48 15.27
2358 7.1440 271.57 214.31 16.40
2359 7.1460 291.84 211.97 17.16
2360 7.1480 296.06 210.25 17.32
2361 7.1500 266.07 208.97 16.38
2362 7.1520 263.80 207.99 16.26
2363 7.1540 253.70 237.40 15.84
2364 7.1560 267.76 237.58 16.44
2365 7.1580 257.47 237.90 16.20
2366 7.1600 274.74 238.33 16.60
2367 7.1620 286.34 238.85 16.98
2368 7.1640 283.03 239.45 16.78
2369 7.1660 267.33 240.13 16.45
2370 7.1680 257.46 240.88 16.17
2371 7.1700 276.07 241.57 16.73
2372 7.1720 255.98 242.47 16.07
2373 7.1740 278.34 243.44 16.67
2374 7.1760 258.77 244.49 16.24
2375 7.1780 265.62 245.60 16.36
2376 7.1800 277.06 246.80 16.70
2377 7.1820 310.33 248.07 17.67
2378 7.1840 290.69 249.43 16.94
2379 7.1860 307.01 250.87 17.70
2380 7.1880 318.18 252.40 17.99
2381 7.1900 308.79 254.03 17.60
2382 7.1920 297.47 255.76 17.26
2383 7.1940 302.77 257.59 17.33
2384 7.1960 304.26 259.54 17.57
2385 7.1980 319.08 261.61 17.99
2386 7.2000 300.76 263.82 17.35
2387 7.2020 306.38 266.16 17.56
2388 7.2040 300.50 268.65 17.22
2389 7.2060 325.67 271.31 18.28
2390 7.2080 302.03 274.14 17.55
2391 7.2100 371.09 277.16 19.27
2392 7.2120 327.61 280.39 18.10
2393 7.2140 319.72 283.84 17.86
2394 7.2160 313.55 287.53 17.97
2395 7.2180 364.44 291.49 19.18
2396 7.2200 341.15 295.74 18.43
2397 7.2220 354.80 300.31 18.97
2398 7.2240 344.55 326.93 18.53
2399 7.2260 379.11 332.71 19.77
2400 7.2280 378.93 338.94 19.68
2401 7.2300 341.23 345.65 18.51
2402 7.2320 368.98 352.91 19.25
2403 7.2340 387.26 360.77 19.70
2404 7.2360 380.19 369.30 19.84
2405 7.2380 401.33 378.58 20.25
2406 7.2400 426.43 388.71 20.65
2407 7.2420 427.24 399.79 20.79
2408 7.2440 415.30 411.94 20.41
2409 7.2460 436.33 425.31 21.25
2410 7.2480 440.39 440.08 21.24
2411 7.2500 474.25 456.45 21.84
2412 7.2520 516.99 474.64 22.80
2413 7.2540 463.77 494.98 21.64
2414 7.2560 522.96 517.79 23.31
2415 7.2580 550.00 543.52 23.82
2416 7.2600 565.05 572.66 23.93
2417 7.2620 589.45 605.90 24.40
2418 7.2640 578.15 644.00 24.29
2419 7.2660 631.92 688.02 25.52
2420 7.2680 672.78 739.25 26.32
2421 7.2700 710.16 799.33 26.88
2422 7.2720 779.19 870.47 28.09
2423 7.2740 832.82 955.65 29.07
2424 7.2760 879.84 1058.77 30.19
2425 7.2780 1040.15 1185.25 32.84
2426 7.2800 1134.90 1342.86 34.03
2427 7.2820 1302.99 1542.59 36.39
2428 7.2840 1498.31 1801.14 39.02
2429 7.2860 1773.75 2143.74 43.29
2430 7.2880 2162.73 2611.49 47.48
2431 7.2900 2580.73 3272.63 51.77
2432 7.2920 3450.29 4252.57 60.10
2433 7.2940 4957.77 5817.32 72.69
2434 7.2960 7560.91 8678.62 91.78
2435 7.2980 13616.00 14865.50 126.64
2436 7.3000 28341.40 28819.30 195.08
2437 7.3020 57833.50 54483.80 312.31
2438 7.3040 88064.00 83392.40 424.10
2439 7.3060 80456.20 83929.60 400.40
2440 7.3080 49103.90 51909.80 280.61
2441 7.3100 26943.60 25795.90 188.41
2442 7.3120 15621.00 13217.50 135.94
2443 7.3140 9744.89 7981.51 104.47
2444 7.3160 6921.47 5519.75 87.48
2445 7.3180 4948.86 4111.62 72.99
2446 7.3200 3864.67 3204.03 63.77
2447 7.3220 3026.68 2586.30 56.04
2448 7.3240 2518.35 2147.99 50.93
2449 7.3260 2097.57 1827.10 47.09
2450 7.3280 1910.92 1585.79 44.69
2451 7.3300 1651.66 1400.66 41.03
2452 7.3320 1344.81 1256.08 36.99
2453 7.3340 1253.36 1141.74 35.74
2454 7.3360 1149.03 1050.45 34.62
2455 7.3380 1072.84 977.04 33.22
2456 7.3400 988.65 917.79 31.59
2457 7.3420 918.83 870.04 30.58
2458 7.3440 906.97 831.80 30.32
2459 7.3460 881.16 801.53 30.28
2460 7.3480 822.31 778.16 29.23
2461 7.3500 798.58 760.83 28.51
2462 7.3520 806.55 748.97 28.49
2463 7.3540 778.72 742.17 28.09
2464 7.3560 776.42 740.20 28.35
2465 7.3580 781.50 742.95 28.41
2466 7.3600 773.29 750.47 27.90
2467 7.3620 813.19 762.94 28.86
2468 7.3640 849.90 780.67 29.32
2469 7.3660 857.51 804.19 29.89
2470 7.3680 881.12 834.19 30.09
2471 7.3700 930.12 871.59 30.94
2472 7.3720 983.30 917.67 31.50
2473 7.3740 1046.52 974.13 32.59
2474 7.3760 1122.58 1043.17 34.30
2475 7.3780 1205.29 1127.75 35.39
2476 7.3800 1296.34 1231.97 36.28
2477 7.3820 1519.61 1361.33 39.54
2478 7.3840 1731.63 1523.74 42.27
2479 7.3860 1959.29 1730.38 45.40
2480 7.3880 2217.27 1997.63 48.34
2481 7.3900 2759.15 2350.58 53.52
2482 7.3920 3271.32 2828.99 58.51
2483 7.3940 4160.75 3499.50 66.28
2484 7.3960 5300.67 4490.89 76.08
2485 7.3980 7197.85 6109.69 89.58
2486 7.4000 10532.40 9157.44 108.97
2487 7.4020 16130.60 15463.70 138.87
2488 7.4040 27026.50 27888.80 189.37
2489 7.4060 44985.70 47687.80 265.78
2490 7.4080 65590.20 68357.30 344.58
2491 7.4100 72380.30 72888.80 366.58
2492 7.4120 57791.90 56214.90 312.37
2493 7.4140 37616.00 37502.40 233.64
2494 7.4160 21068.60 22051.00 164.08
2495 7.4180 10894.00 12057.40 112.02
2496 7.4200 6822.32 7907.44 86.09
2497 7.4220 5849.48 6600.84 79.66
2498 7.4240 6780.76 7441.28 85.69
2499 7.4260 10251.70 10604.00 108.55
2500 7.4280 12608.50 13230.20 122.10
2501 7.4300 8653.34 8767.37 97.65
2502 7.4320 4285.75 4435.62 67.33
2503 7.4340 2533.21 2736.37 51.14
2504 7.4360 1735.43 2035.89 42.63
2505 7.4380 1400.08 1644.64 38.08
2506 7.4400 1188.55 1387.05 34.86
2507 7.4420 1042.23 1203.08 32.62
2508 7.4440 994.03 1064.54 31.79
2509 7.4460 830.15 956.09 29.32
2510 7.4480 791.11 868.90 28.72
2511 7.4500 755.64 797.22 27.64
2512 7.4520 720.89 737.34 27.10
2513 7.4540 665.52 686.63 25.94
2514 7.4560 655.17 643.18 26.06
2515 7.4580 614.83 605.59 25.25
2516 7.4600 569.63 544.26 24.03
2517 7.4620 581.76 516.17 24.32
2518 7.4640 589.89 491.40 24.39
2519 7.4660 547.25 469.40 23.74
2520 7.4680 488.12 449.78 22.46
2521 7.4700 507.48 432.21 22.75
2522 7.4720 478.19 416.38 22.00
2523 7.4740 414.57 402.09 20.44
2524 7.4760 432.50 389.13 21.05
2525 7.4780 439.16 377.33 21.33
2526 7.4800 434.67 366.57 20.99
2527 7.4820 415.66 356.72 20.52
2528 7.4840 431.76 347.67 20.92
2529 7.4860 452.31 339.35 21.57
2530 7.4880 428.22 331.68 21.06
2531 7.4900 443.08 324.58 21.23
2532 7.4920 395.11 318.01 20.07
2533 7.4940 380.30 311.90 19.50
2534 7.4960 376.63 306.23 19.70
2535 7.4980 410.68 300.93 20.65
2536 7.5000 366.13 296.00 19.30
2537 7.5020 383.44 291.38 19.75
2538 7.5040 399.52 287.05 20.12
2539 7.5060 344.29 283.00 18.78
2540 7.5080 359.26 279.19 19.24
2541 7.5100 345.65 275.60 18.75
2542 7.5120 365.63 272.23 19.24
2543 7.5140 328.20 269.04 18.18
2544 7.5160 325.96 266.04 18.24
2545 7.5180 364.77 263.20 19.48
2546 7.5200 325.13 260.50 18.13
2547 7.5220 306.09 257.96 17.65
2548 7.5240 341.90 252.82 18.49
2549 7.5260 335.47 250.62 18.59
2550 7.5280 341.32 248.53 18.74
2551 7.5300 341.27 246.54 18.67
2552 7.5320 309.88 244.65 17.68
2553 7.5340 301.32 242.85 17.39
2554 7.5360 308.19 241.12 17.70
2555 7.5380 320.36 239.48 18.18
2556 7.5400 283.84 237.91 16.92
2557 7.5420 290.56 232.45 17.20
2558 7.5440 288.70 231.15 17.03
2559 7.5460 281.96 229.90 17.01
2560 7.5480 309.36 228.70 17.88
2561 7.5500 307.33 227.55 17.69
2562 7.5520 281.43 226.44 16.86
2563 7.5540 276.95 225.38 16.67
2564 7.5560 281.92 224.36 16.99
2565 7.5580 289.73 223.37 17.27
2566 7.5600 289.63 222.42 17.14
2567 7.5620 293.68 221.51 17.25
2568 7.5640 248.05 220.63 15.80
2569 7.5660 257.87 219.78 16.23
2570 7.5680 289.73 218.96 17.28
2571 7.5700 268.29 218.16 16.55
2572 7.5720 264.15 217.40 16.29
2573 7.5740 268.41 216.65 16.46
2574 7.5760 259.47 215.94 16.27
2575 7.5780 242.19 215.24 15.81
2576 7.5800 234.28 214.57 15.41
2577 7.5820 298.01 213.92 17.41
2578 7.5840 238.58 213.29 15.46
2579 7.5860 280.45 212.68 16.96
2580 7.5880 283.90 212.08 17.11
2581 7.5900 265.61 211.51 16.43
2582 7.5920 270.84 210.94 16.58
2583 7.5940 271.53 210.40 16.50
2584 7.5960 254.27 209.87 16.11
2585 7.5980 247.80 188.50 16.05
2586 7.6000 237.63 188.43 15.53
2587 7.6020 257.57 188.37 16.15
2588 7.6040 226.35 188.30 15.12
2589 7.6060 248.51 188.24 15.91
2590 7.6080 210.49 188.17 14.75
2591 7.6100 237.04 188.10 15.55
2592 7.6120 235.42 188.04 15.49
2593 7.6140 265.16 187.97 16.29
2594 7.6160 218.62 187.90 14.93
2595 7.6180 255.99 187.84 16.29
2596 7.6200 256.77 187.77 16.13
2597 7.6220 255.22 187.71 16.11
2598 7.6240 242.04 187.64 15.57
2599 7.6260 251.00 187.57 15.96
2600 7.6280 225.07 187.51 15.23
2601 7.6300 208.04 187.44 14.54
2602 7.6320 248.67 187.37 15.88
2603 7.6340 234.95 187.30 15.37
2604 7.6360 215.81 187.24 14.79
2605 7.6380 235.80 187.17 15.61
2606 7.6400 240.90 187.10 15.65
2607 7.6420 225.16 187.04 15.10
2608 7.6440 214.21 186.97 14.66
2609 7.6460 221.94 186.90 15.01
2610 7.6480 215.35 186.81 14.86
2611 7.6500 237.09 186.75 15.52
2612 7.6520 188.35 186.68 13.83
2613 7.6540 198.19 186.61 14.06
2614 7.6560 220.61 186.54 14.98
2615 7.6580 188.69 186.48 13.92
2616 7.6600 220.26 186.41 14.95
2617 7.6620 220.20 186.34 14.90
2618 7.6640 221.74 186.27 14.95
2619 7.6660 208.52 186.19 14.55
2620 7.6680 178.83 186.12 13.58
2621 7.6700 207.89 186.05 14.52
2622 7.6720 249.21 185.98 15.89
2623 7.6740 212.37 185.92 14.60
2624 7.6760 200.74 185.85 14.24
2625 7.6780 214.87 185.78 14.89
2626 7.6800 188.90 185.71 13.82
2627 7.6820 216.45 185.83 14.82
2628 7.6840 182.32 185.77 13.49
2629 7.6860 191.74 185.70 13.95
2630 7.6880 203.53 185.64 14.50
2631 7.6900 201.46 185.57 14.30
2632 7.6920 196.48 185.51 14.09
2633 7.6940 204.63 185.44 14.34
2634 7.6960 189.11 185.38 13.89
2635 7.6980 176.15 185.31 13.42
2636 7.7000 178.25 185.25 13.46
2637 7.7020 190.48 185.18 13.90
2638 7.7040 174.78 185.12 13.23
2639 7.7060 194.60 185.05 14.04
2640 7.7080 179.86 184.99 13.64
2641 7.7100 174.78 184.92 13.28
2642 7.7120 180.26 184.86 13.52
2643 7.7140 174.30 184.79 13.16
2644 7.7160 169.55 184.73 13.20
2645 7.7180 174.65 184.66 13.38
2646 7.7200 182.61 184.60 13.59
2647 7.7220 164.50 184.53 12.90
2648 7.7240 178.42 184.47 13.41
2649 7.7260 175.05 184.40 13.32
2650 7.7280 160.66 184.34 12.85
2651 7.7300 167.88 184.27 13.05
2652 7.7320 198.07 184.21 14.14
2653 7.7340 174.15 184.15 13.18
2654 7.7360 192.49 184.08 14.02
2655 7.7380 161.41 184.02 12.92
2656 7.7400 202.85 183.95 14.29
2657 7.7420 191.63 183.89 13.91
2658 7.7440 173.59 183.83 13.21
2659 7.7460 167.99 183.76 13.07
2660 7.7480 197.65 183.70 14.28
2661 7.7500 159.92 183.64 12.76
2662 7.7520 174.82 183.57 13.28
2663 7.7540 197.88 183.51 14.07
2664 7.7560 176.95 183.45 13.38
2665 7.7580 181.60 183.38 13.74
2666 7.7600 145.16 183.32 12.12
2667 7.7620 168.26 183.26 13.05
2668 7.7640 172.75 183.20 13.16
2669 7.7660 154.26 183.13 12.52
2670 7.7680 156.53 183.07 12.74
2671 7.7700 159.56 183.01 12.74
2672 7.7720 160.48 182.95 12.76
2673 7.7740 182.74 182.89 13.54
2674 7.7760 171.22 182.83 13.24
2675 7.7780 188.27 182.76 13.99
2676 7.7800 170.86 182.70 13.12
2677 7.7820 162.31 182.64 12.83
2678 7.7840 166.73 182.58 12.91
2679 7.7860 152.41 182.52 12.47
2680 7.7880 169.73 182.46 13.27
2681 7.7900 177.93 182.41 13.49
2682 7.7920 185.31 182.35 13.64
2683 7.7940 159.29 182.29 12.65
2684 7.7960 167.18 182.23 13.09
2685 7.7980 170.56 182.17 13.24
2686 7.8000 171.49 182.12 13.17
2687 7.8020 176.35 182.06 13.37
2688 7.8040 178.84 182.00 13.40
2689 7.8060 153.05 181.95 12.47
2690 7.8080 127.23 181.89 11.49
2691 7.8100 139.51 181.84 11.93
2692 7.8120 171.44 181.78 13.13
2693 7.8140 157.60 181.73 12.58
2694 7.8160 174.89 181.68 13.37
2695 7.8180 162.34 181.63 12.98
2696 7.8200 162.91 181.57 12.86
2697 7.8220 150.19 181.52 12.35
2698 7.8240 155.01 181.48 12.50
2699 7.8260 163.26 181.43 12.90
2700 7.8280 161.51 181.38 12.94
2701 7.8300 150.85 181.33 12.42
2702 7.8320 173.87 181.29 13.23
2703 7.8340 166.02 181.24 12.93
2704 7.8360 192.90 181.20 14.00
2705 7.8380 175.47 181.16 13.50
2706 7.8400 161.92 181.12 12.81
2707 7.8420 156.93 181.08 12.60
2708 7.8440 176.90 181.04 13.36
2709 7.8460 168.17 181.00 13.09
2710 7.8480 160.03 180.97 12.86
2711 7.8500 154.20 180.94 12.52
2712 7.8520 177.23 180.91 13.41
2713 7.8540 156.70 180.88 12.51
2714 7.8560 183.48 180.85 13.62
2715 7.8580 177.06 180.83 13.53
2716 7.8600 189.63 180.81 13.89
2717 7.8620 180.31 180.79 13.46
2718 7.8640 190.06 180.78 13.83
2719 7.8660 165.72 180.77 12.97
2720 7.8680 146.85 180.76 12.35
2721 7.8700 175.39 180.76 13.33
2722 7.8720 150.11 180.76 12.34
2723 7.8740 148.34 180.77 12.16
2724 7.8760 182.57 180.78 13.58
2725 7.8780 158.59 180.80 12.82
2726 7.8800 154.55 180.83 12.48
2727 7.8820 149.86 180.86 12.30
2728 7.8840 165.98 180.90 12.91
2729 7.8860 175.58 180.95 13.37
2730 7.8880 174.51 181.01 13.43
2731 7.8900 189.58 181.08 13.87
2732 7.8920 170.96 194.78 13.16
2733 7.8940 170.13 195.38 13.06
2734 7.8960 138.59 196.03 11.84
2735 7.8980 209.31 196.74 14.75
2736 7.9000 180.15 197.50 13.53
2737 7.9020 191.76 198.33 13.90
2738 7.9040 170.57 199.24 13.07
2739 7.9060 206.53 200.24 14.44
2740 7.9080 224.76 201.33 15.23
2741 7.9100 193.50 202.53 14.02
2742 7.9120 193.16 203.85 13.97
2743 7.9140 188.67 205.31 13.70
2744 7.9160 179.00 206.91 13.45
2745 7.9180 169.36 208.67 13.22
2746 7.9200 194.99 210.60 14.03
2747 7.9220 194.79 212.71 13.98
2748 7.9240 194.05 215.00 13.98
2749 7.9260 171.04 217.48 13.16
2750 7.9280 226.36 220.17 15.27
2751 7.9300 208.21 223.07 14.54
2752 7.9320 207.84 226.21 14.49
2753 7.9340 216.52 229.63 14.71
2754 7.9360 210.94 233.42 14.61
2755 7.9380 224.49 237.69 15.22
2756 7.9400 212.44 242.59 14.64
2757 7.9420 244.36 248.34 15.70
2758 7.9440 239.54 255.22 15.49
2759 7.9460 204.23 263.65 14.35
2760 7.9480 234.36 274.35 15.53
2761 7.9500 273.64 288.72 16.66
2762 7.9520 291.74 309.60 17.12
2763 7.9540 317.32 342.29 17.80
2764 7.9560 351.82 395.30 18.89
2765 7.9580 454.42 479.16 21.68
2766 7.9600 548.57 601.78 23.49
2767 7.9620 730.90 759.76 27.27
2768 7.9640 840.04 925.69 29.04
2769 7.9660 960.67 1039.92 31.38
2770 7.9680 1071.33 1040.57 33.46
2771 7.9700 971.71 935.85 31.46
2772 7.9720 855.71 797.35 29.56
2773 7.9740 646.19 681.73 25.42
2774 7.9760 574.01 610.41 24.20
2775 7.9780 558.24 584.59 24.12
2776 7.9800 556.24 598.17 23.77
2777 7.9820 576.38 645.85 24.08
2778 7.9840 716.89 727.95 26.94
2779 7.9860 820.44 853.35 29.06
2780 7.9880 992.21 1043.05 32.24
2781 7.9900 1357.59 1340.36 37.39
2782 7.9920 1789.83 1837.13 38.30
2783 7.9940 2686.68 2766.28 48.02
2784 7.9960 4817.40 4895.15 67.49
2785 7.9980 10366.00 10606.80 104.29
2786 8.0000 22183.60 22621.70 161.85
2787 8.0020 30975.60 33769.90 199.54
2788 8.0040 22839.00 21774.30 165.21
2789 8.0060 10128.90 8910.14 103.71
2790 8.0080 4116.13 4200.81 64.58
2791 8.0100 2180.98 2509.20 46.16
2792 8.0120 1297.29 1706.97 35.33
2793 8.0140 932.80 1255.37 29.84
2794 8.0160 734.23 977.05 26.66
2795 8.0180 623.75 793.60 24.82
2796 8.0200 561.55 666.53 23.31
2797 8.0220 473.30 574.89 21.38
2798 8.0240 421.49 506.62 20.15
2799 8.0260 375.62 454.44 19.16
2800 8.0280 363.43 413.62 19.06
2801 8.0300 369.55 381.12 18.95
2802 8.0320 331.91 354.81 18.00
2803 8.0340 316.51 333.19 17.48
2804 8.0360 306.66 315.22 17.30
2805 8.0380 290.48 300.11 16.98
2806 8.0400 286.08 287.30 16.72
2807 8.0420 281.03 276.32 16.45
2808 8.0440 271.86 266.84 16.22
2809 8.0460 254.62 258.61 15.73
2810 8.0480 219.41 251.41 14.81
2811 8.0500 234.00 245.07 15.15
2812 8.0520 260.30 239.46 15.87
2813 8.0540 238.91 234.47 15.18
2814 8.0560 247.67 230.01 15.57
2815 8.0580 232.22 226.02 15.16
2816 8.0600 254.68 222.41 15.76
2817 8.0620 232.56 219.16 15.06
2818 8.0640 232.92 216.20 15.00
2819 8.0660 192.49 213.51 13.68
2820 8.0680 232.82 211.05 15.19
2821 8.0700 181.11 208.80 13.30
2822 8.0720 197.14 206.74 13.84
2823 8.0740 198.60 204.84 13.86
2824 8.0760 208.67 203.09 14.26
2825 8.0780 221.44 201.46 14.81
2826 8.0800 200.25 199.96 13.96
2827 8.0820 196.22 198.57 13.80
2828 8.0840 207.02 197.27 14.18
2829 8.0860 195.99 196.07 13.76
2830 8.0880 194.99 194.95 13.88
2831 8.0900 188.64 193.90 13.53
2832 8.0920 167.63 192.92 12.76
2833 8.0940 205.50 192.01 14.09
2834 8.0960 190.04 191.16 13.57
2835 8.0980 188.79 190.37 13.66
2836 8.1000 196.45 189.64 13.81
2837 8.1020 185.57 188.97 13.42
2838 8.1040 197.04 188.38 13.75
2839 8.1060 160.61 187.86 12.49
2840 8.1080 177.43 187.43 13.20
2841 8.1100 185.12 187.12 13.40
2842 8.1120 177.56 186.94 13.09
2843 8.1140 176.70 174.03 13.05
2844 8.1160 208.66 174.60 14.18
2845 8.1180 180.38 175.30 13.32
2846 8.1200 187.54 176.12 13.49
2847 8.1220 187.50 177.02 13.48
2848 8.1240 169.09 177.91 12.74
2849 8.1260 175.82 178.70 13.05
2850 8.1280 204.56 179.23 14.22
2851 8.1300 218.73 179.39 14.53
2852 8.1320 184.26 179.12 13.39
2853 8.1340 181.80 178.48 13.22
2854 8.1360 196.16 177.57 13.78
2855 8.1380 177.63 176.56 13.17
2856 8.1400 195.81 175.54 13.77
2857 8.1420 198.23 174.60 13.82
2858 8.1440 199.92 173.77 13.83
2859 8.1460 187.06 173.08 13.46
2860 8.1480 183.66 172.52 13.49
2861 8.1500 202.08 172.09 14.01
2862 8.1520 219.42 171.76 14.55
2863 8.1540 182.59 171.51 13.22
2864 8.1560 197.90 171.32 13.88
2865 8.1580 167.42 171.17 12.80
2866 8.1600 160.18 171.06 12.44
2867 8.1620 200.25 170.96 13.90
2868 8.1640 178.29 170.89 13.07
2869 8.1660 170.89 170.82 12.86
2870 8.1680 175.05 170.77 13.17
2871 8.1700 185.18 170.72 13.40
2872 8.1720 177.31 170.68 13.08
2873 8.1740 183.61 170.65 13.25
2874 8.1760 153.01 170.62 12.23
2875 8.1780 181.01 170.60 13.38
2876 8.1800 189.75 170.59 13.56
2877 8.1820 163.63 170.57 12.61
2878 8.1840 185.38 170.57 13.38
2879 8.1860 179.78 170.57 13.23
2880 8.1880 182.91 170.58 13.47
2881 8.1900 174.25 170.59 13.05
2882 8.1920 165.71 170.61 12.65
2883 8.1940 175.65 170.64 12.98
2884 8.1960 182.25 170.68 13.35
2885 8.1980 186.04 170.72 13.61
2886 8.2000 166.56 170.77 12.67
2887 8.2020 160.83 170.83 12.48
2888 8.2040 161.27 170.90 12.52
2889 8.2060 167.43 170.98 12.81
2890 8.2080 167.27 171.08 12.94
2891 8.2100 176.94 171.18 13.13
2892 8.2120 184.96 171.30 13.35
2893 8.2140 162.47 171.43 12.56
2894 8.2160 175.85 171.58 13.12
2895 8.2180 162.49 171.75 12.69
2896 8.2200 170.44 171.93 12.87
2897 8.2220 169.27 172.14 12.74
2898 8.2240 162.36 172.37 12.53
2899 8.2260 167.31 172.63 12.79
2900 8.2280 165.80 172.92 12.87
2901 8.2300 176.27 173.24 13.09
2902 8.2320 155.18 173.60 12.23
2903 8.2560 184.03 187.13 13.45
2904 8.2580 181.79 190.65 13.45
2905 8.2600 179.92 195.10 13.22
2906 8.2620 171.89 200.68 12.92
2907 8.2640 192.18 207.61 13.61
2908 8.2660 200.99 216.12 14.01
2909 8.2680 212.70 226.41 14.61
2910 8.2700 196.95 238.65 13.83
2911 8.2720 240.34 252.95 15.28
2912 8.2740 238.78 269.30 15.18
2913 8.2760 258.38 287.64 15.93
2914 8.2780 263.48 307.74 16.21
2915 8.2800 309.91 329.23 17.38
2916 8.2820 321.60 351.57 17.60
2917 8.2840 338.18 374.06 18.13
2918 8.2860 334.90 395.70 18.02
2919 8.2880 340.75 415.20 18.45
2920 8.2900 390.66 430.96 19.49
2921 8.2920 392.44 441.10 19.53
2922 8.2940 435.78 443.83 20.59
2923 8.2960 421.77 438.23 20.27
2924 8.2980 431.91 425.17 20.72
2925 8.3000 375.20 406.75 19.07
2926 8.3020 355.01 385.19 18.57
2927 8.3040 298.03 362.20 16.95
2928 8.3060 319.67 339.05 17.69
2929 8.3080 277.42 316.64 16.59
2930 8.3100 268.58 295.54 16.18
2931 8.3120 262.99 276.14 15.93
2932 8.3140 238.55 258.71 15.19
2933 8.3160 214.70 243.35 14.43
2934 8.3180 212.68 230.08 14.50
2935 8.3200 198.51 218.83 13.86
2936 8.3220 214.20 209.46 14.43
2937 8.3240 183.53 201.77 13.31
2938 8.3260 200.75 195.54 13.97
2939 8.3280 181.23 190.54 13.42
2940 8.3300 182.92 186.57 13.27
2941 8.3320 173.64 183.41 12.99
2942 8.3340 148.10 180.91 11.95
2943 8.3360 185.99 178.91 13.48
2944 8.3380 179.94 177.29 13.33
2945 8.3400 178.65 175.96 13.19
2946 8.3420 166.78 174.84 12.71
2947 8.3440 174.03 173.88 12.96
2948 8.3460 163.59 173.03 12.61
2949 8.3480 195.90 172.27 13.88
2950 8.3500 177.74 171.57 13.11
2951 8.3520 180.78 170.91 13.22
2952 8.3540 157.23 170.29 12.34
2953 8.3560 152.05 169.71 12.13
2954 8.3580 145.86 169.15 12.00
2955 8.3600 161.36 168.63 12.47
2956 8.3620 148.82 168.13 12.01
2957 8.3640 165.08 167.66 12.61
2958 8.3660 156.24 167.22 12.34
2959 8.3680 156.45 166.81 12.37
2960 8.3700 175.01 166.42 13.01
2961 8.3720 176.26 166.06 13.07
2962 8.3740 143.90 165.71 11.77
2963 8.3760 173.04 165.40 12.98
2964 8.3780 152.20 165.10 12.27
2965 8.3800 155.28 164.81 12.19
2966 8.3820 163.86 164.55 12.57
2967 8.3840 164.58 164.30 12.62
2968 8.3860 159.03 164.06 12.39
2969 8.3880 163.00 163.83 12.63
2970 8.3900 141.13 163.62 11.62
2971 8.3920 148.58 163.41 11.98
2972 8.3940 152.27 163.21 12.08
2973 8.3960 158.16 163.02 12.41
2974 8.3980 156.32 162.83 12.37
2975 8.4000 147.15 162.66 11.87
2976 8.4020 164.01 162.49 12.61
2977 8.4040 158.73 162.32 12.39
2978 8.4060 169.21 162.16 12.85
2979 8.4080 183.93 162.00 13.41
2980 8.4100 161.52 161.85 12.50
2981 8.4120 156.38 161.71 12.29
2982 8.4140 153.50 161.56 12.14
2983 8.4160 143.59 161.42 11.81
2984 8.4180 163.24 161.29 12.62
2985 8.4200 153.53 161.15 12.13
2986 8.4220 162.32 161.03 12.48
2987 8.4240 159.09 160.90 12.40
2988 8.4260 141.16 160.78 11.71
2989 8.4280 158.15 160.66 12.41
2990 8.4300 156.71 160.54 12.27
2991 8.4320 154.64 160.42 12.23
2992 8.4340 151.22 160.31 12.02
2993 8.4360 140.91 160.20 11.74
2994 8.4380 126.98 160.09 11.10
2995 8.4400 161.23 159.98 12.44
2996 8.4420 144.59 159.87 11.81
2997 8.4440 154.86 159.77 12.15
2998 8.4460 157.91 159.67 12.41
2999 8.4480 167.42 159.57 12.80
3000 8.4500 149.49 159.46 11.97
3001 8.4520 154.50 159.37 12.23
3002 8.4540 173.57 159.27 12.88
3003 8.4560 147.29 159.17 12.00
3004 8.4580 162.03 159.08 12.52
3005 8.4600 133.93 158.98 11.34
3006 8.4620 167.09 158.89 12.72
3007 8.4640 154.44 158.79 12.19
3008 8.4660 163.95 158.70 12.69
3009 8.4680 176.66 158.61 13.10
3010 8.4700 163.64 158.52 12.61
3011 8.4720 147.70 158.43 11.94
3012 8.4740 157.36 158.35 12.28
3013 8.4760 154.67 158.26 12.35
3014 8.4780 144.57 158.17 11.88
3015 8.4800 170.50 158.08 12.76
3016 8.4820 154.62 158.00 12.23
3017 8.4840 161.74 157.91 12.48
3018 8.4860 155.28 157.83 12.34
3019 8.4880 156.31 157.74 12.37
3020 8.4900 134.71 157.66 11.43
3021 8.4920 172.59 157.58 12.91
3022 8.4940 162.50 157.50 12.53
3023 8.4960 139.89 157.41 11.78
3024 8.4980 160.66 157.33 12.53
3025 8.5000 143.04 157.25 11.74
3026 8.5020 148.09 157.17 11.95
3027 8.5040 140.64 157.09 11.68
3028 8.5060 174.18 157.01 13.12
3029 8.5080 169.47 156.93 12.93
3030 8.5100 151.24 156.86 12.07
3031 8.5120 142.36 156.78 11.70
3032 8.5140 151.24 156.70 12.08
3033 8.5160 147.35 156.62 12.10
3034 8.5180 181.80 156.54 13.41
3035 8.5200 143.75 156.47 11.75
3036 8.5220 163.74 156.39 12.61
3037 8.5240 153.33 156.32 12.22
3038 8.5260 175.47 156.24 13.23
3039 8.5280 181.72 156.16 13.43
3040 8.5300 153.29 156.09 12.18
3041 8.5320 161.71 156.01 12.48
3042 8.5340 179.93 155.94 13.27
3043 8.5360 161.22 155.86 12.66
3044 8.5380 162.73 155.79 12.72
3045 8.5400 172.07 155.72 12.89
3046 8.5420 155.18 155.64 12.28
3047 8.5440 179.50 155.57 13.29
3048 8.5460 174.92 155.50 13.17
3049 8.5480 165.85 155.42 12.89
3050 8.5500 180.58 155.35 13.22
3051 8.5520 157.92 155.28 12.35
3052 8.5540 169.05 155.21 12.85
3053 8.5560 161.56 155.13 12.70
3054 8.5580 163.79 155.06 12.78
3055 8.5600 158.16 154.99 12.38
3056 8.5620 171.42 154.92 12.89
3057 8.5640 170.91 154.85 12.93
3058 8.5660 182.56 154.78 13.49
3059 8.5680 188.63 154.71 13.71
3060 8.5700 178.31 154.64 13.14
3061 8.5720 184.55 154.57 13.39
3062 8.5740 180.55 154.49 13.30
3063 8.5760 169.65 154.43 12.98
3064 8.5780 165.03 154.35 12.84
3065 8.5800 183.65 154.29 13.36
3066 8.5820 150.38 154.22 12.07
3067 8.5840 178.45 154.15 13.21
3068 8.5860 166.29 154.08 12.82
3069 8.5880 182.36 163.37 13.48
3070 8.5900 183.45 163.61 13.35
3071 8.5920 158.46 163.87 12.43
3072 8.5940 158.58 164.14 12.48
3073 8.5960 205.13 164.43 14.24
3074 8.5980 166.81 164.74 12.91
3075 8.6000 177.23 165.08 13.17
3076 8.6020 156.44 172.94 12.29
3077 8.6040 191.99 173.50 13.74
3078 8.6060 185.43 174.10 13.53
3079 8.6080 173.14 174.74 13.12
3080 8.6100 193.19 175.41 13.76
3081 8.6120 208.84 176.12 14.20
3082 8.6140 174.44 176.88 13.06
3083 8.6160 198.89 177.69 14.00
3084 8.6180 202.52 178.54 14.16
3085 8.6200 209.07 179.45 14.26
3086 8.6220 195.23 180.42 13.78
3087 8.6240 193.76 181.45 13.78
3088 8.6260 192.01 182.56 13.68
3089 8.6280 184.23 183.74 13.57
3090 8.6300 190.36 185.01 13.62
3091 8.6320 202.09 186.37 13.93
3092 8.6340 216.47 187.83 14.52
3093 8.6360 246.49 189.40 15.61
3094 8.6380 217.56 191.09 14.65
3095 8.6400 212.91 192.91 14.38
3096 8.6420 258.38 194.89 15.82
3097 8.6440 206.64 197.03 14.22
3098 8.6460 217.91 199.36 14.53
3099 8.6480 227.88 201.90 15.04
3100 8.6500 220.70 204.67 14.64
3101 8.6520 239.39 207.71 15.22
3102 8.6540 222.36 211.04 14.68
3103 8.6560 252.56 214.71 15.75
3104 8.6580 255.87 218.77 15.90
3105 8.6600 271.10 223.28 16.19
3106 8.6620 223.46 228.30 14.69
3107 8.6640 264.54 233.92 16.03
3108 8.6660 286.46 240.24 16.73
3109 8.6680 293.05 247.39 16.94
3110 8.6700 293.66 255.52 16.93
3111 8.6720 307.86 264.83 17.22
3112 8.6740 281.92 275.55 16.48
3113 8.6760 311.97 288.00 17.50
3114 8.6780 342.29 302.59 18.32
3115 8.6800 329.72 319.84 17.85
3116 8.6820 344.94 340.48 18.25
3117 8.6840 376.74 365.46 19.15
3118 8.6860 415.57 396.18 20.16
3119 8.6880 432.44 434.50 20.66
3120 8.6900 471.78 483.27 21.39
3121 8.6920 519.38 546.78 22.52
3122 8.6940 600.45 631.68 24.10
3123 8.6960 704.24 749.03 26.32
3124 8.6980 845.09 917.90 28.86
3125 8.7000 1040.97 1173.54 31.85
3126 8.7020 1404.34 1588.56 37.09
3127 8.7040 2001.12 2338.65 44.32
3128 8.7060 3739.47 3947.06 61.68
3129 8.7080 7451.56 7845.21 88.99
3130 8.7100 15779.10 15612.00 134.43
3131 8.7120 22666.60 22681.50 167.02
3132 8.7140 15746.30 16367.10 134.02
3133 8.7160 7686.46 7731.69 90.37
3134 8.7180 4095.43 3877.40 64.75
3135 8.7200 2646.54 2358.67 51.39
3136 8.7220 1853.91 1650.17 42.69
3137 8.7240 1504.19 1260.96 38.33
3138 8.7260 1228.28 1028.95 34.98
3139 8.7280 1061.74 885.95 32.41
3140 8.7300 936.13 798.26 30.25
3141 8.7320 892.65 748.61 29.50
3142 8.7340 866.04 728.28 28.96
3143 8.7360 888.90 733.68 29.61
3144 8.7380 970.91 765.17 31.02
3145 8.7400 1010.26 827.01 31.38
3146 8.7420 1043.11 928.90 31.89
3147 8.7440 1269.21 1089.16 35.35
3148 8.7460 1591.16 1343.63 39.65
3149 8.7480 1978.31 1772.19 44.62
3150 8.7500 2821.34 2586.57 53.07
3151 8.7520 4456.53 4345.94 67.40
3152 8.7540 7722.37 8072.87 89.96
3153 8.7560 13780.10 14068.80 125.17
3154 8.7580 18754.70 18419.10 149.72
3155 8.7600 15579.10 14661.30 133.66
3156 8.7620 8808.46 8245.50 96.79
3157 8.7640 4616.14 4438.64 68.77
3158 8.7660 2731.65 2724.10 52.46
3159 8.7680 1805.69 1960.95 42.56
3160 8.7700 1411.73 1563.28 37.35
3161 8.7720 1170.91 1313.22 33.78
3162 8.7740 1016.02 1127.25 31.59
3163 8.7760 925.17 971.58 30.17
3164 8.7780 736.48 835.55 26.95
3165 8.7800 606.31 718.03 24.24
3166 8.7820 514.58 618.97 22.37
3167 8.7840 478.70 537.69 21.56
3168 8.7860 432.95 472.72 20.65
3169 8.7880 385.14 421.81 19.45
3170 8.7900 365.92 382.42 18.89
3171 8.7920 358.47 352.06 18.64
3172 8.7940 316.67 328.48 17.50
3173 8.7960 331.02 309.90 18.01
3174 8.7980 290.85 294.99 16.88
3175 8.8000 320.44 282.83 17.66
3176 8.8020 331.06 272.86 17.87
3177 8.8040 309.16 264.74 17.34
3178 8.8060 279.25 258.32 16.49
3179 8.8080 276.85 253.58 16.43
3180 8.8100 269.74 250.58 16.21
3181 8.8120 266.15 249.49 16.02
3182 8.8140 226.43 250.44 14.81
3183 8.8160 274.23 253.54 16.37
3184 8.8180 279.01 258.78 16.53
3185 8.8200 252.20 265.92 15.60
3186 8.8220 280.85 274.45 16.46
3187 8.8240 294.83 283.43 16.91
3188 8.8260 289.97 291.49 16.82
3189 8.8280 312.07 296.96 17.48
3190 8.8300 304.19 298.45 17.16
3191 8.8320 288.50 295.64 16.72
3192 8.8340 280.90 289.48 16.48
3193 8.8360 291.40 281.65 16.92
3194 8.8380 242.58 273.75 15.39
3195 8.8400 264.06 258.14 15.95
3196 8.8420 267.80 253.35 16.10
3197 8.8440 234.41 250.61 15.05
3198 8.8460 242.79 249.92 15.37
3199 8.8480 256.59 251.08 15.86
3200 8.8500 277.88 253.78 16.44
3201 8.8520 252.92 257.59 15.64
3202 8.8540 256.89 262.08 15.71
3203 8.8560 295.08 266.81 17.00
3204 8.8580 310.33 271.35 17.38
3205 8.8600 292.72 275.29 16.78
3206 8.8620 341.08 278.28 18.18
3207 8.8640 309.73 280.01 17.25
3208 8.8660 289.04 280.24 16.78
3209 8.8680 306.79 278.89 17.37
3210 8.8700 286.11 275.94 16.64
3211 8.8720 319.20 271.55 17.54
3212 8.8740 244.70 265.93 15.34
3213 8.8760 287.49 259.35 16.87
3214 8.8780 250.87 252.08 15.64
3215 8.8800 277.53 244.40 16.41
3216 8.8820 235.30 236.53 15.10
3217 8.8840 228.60 228.69 14.87
3218 8.8860 234.01 221.04 15.11
3219 8.8880 229.04 213.72 15.01
3220 8.8900 226.19 206.81 14.81
3221 8.8920 198.08 200.40 13.86
3222 8.8940 210.33 194.51 14.25
3223 8.8960 204.99 189.18 14.18
3224 8.8980 188.20 184.41 13.59
3225 8.9000 200.85 180.18 13.91
3226 8.9020 180.91 176.47 13.25
3227 8.9040 188.71 173.24 13.48
3228 8.9060 184.56 170.45 13.47
3229 8.9080 166.15 168.05 12.75
3230 8.9100 199.60 165.99 13.93
3231 8.9120 192.29 164.24 13.66
3232 8.9140 192.89 162.74 13.67
3233 8.9160 195.36 161.46 13.92
3234 8.9180 176.23 154.12 13.14
3235 8.9200 225.35 153.33 14.78
3236 8.9220 220.26 152.65 14.56
3237 8.9240 230.05 152.08 14.92
3238 8.9260 199.08 151.59 13.97
3239 8.9280 203.94 151.16 14.16
3240 8.9300 176.30 150.79 13.08
3241 8.9320 168.33 150.45 12.70
3242 8.9340 184.41 150.16 13.39
3243 8.9360 160.14 149.89 12.58
3244 8.9380 173.20 149.66 13.05
3245 8.9400 187.53 149.44 13.46
3246 8.9420 169.60 149.25 12.81
3247 8.9440 183.27 149.07 13.30
3248 8.9460 169.57 148.91 12.96
3249 8.9480 162.02 148.77 12.63
3250 8.9500 145.96 148.65 11.91
3251 8.9520 178.68 148.53 13.10
3252 8.9540 153.96 148.43 12.26
3253 8.9560 164.22 148.35 12.72
3254 8.9580 153.37 148.28 12.31
3255 8.9600 170.91 148.22 12.82
3256 8.9620 167.29 148.18 12.74
3257 8.9640 159.79 148.15 12.49
3258 8.9660 182.04 148.13 13.37
3259 8.9680 158.14 148.14 12.52
3260 8.9700 187.41 148.16 13.50
3261 8.9720 186.40 148.19 13.43
3262 8.9740 149.41 148.25 12.05
3263 8.9760 172.18 148.32 13.01
3264 8.9780 151.57 148.42 12.20
3265 8.9800 164.73 148.54 12.59
3266 8.9820 170.21 148.69 12.84
3267 8.9840 144.72 148.87 11.86
3268 8.9860 157.89 149.09 12.46
3269 8.9880 154.05 149.34 12.32
3270 8.9900 152.35 149.63 12.17
3271 8.9920 169.63 149.98 12.81
3272 8.9940 169.20 150.38 12.80
3273 8.9960 164.61 150.86 12.70
3274 8.9980 166.30 151.41 12.80
3275 9.0000 157.89 152.06 12.32
3276 9.0020 154.59 152.82 12.24
3277 9.0040 163.17 153.72 12.59
3278 9.0060 172.51 154.81 13.02
3279 9.0080 172.34 156.14 13.00
3280 9.0100 176.73 157.82 13.07
3281 9.0120 143.80 160.02 11.77
3282 9.0140 190.79 162.99 13.62
3283 9.0160 156.96 167.12 12.41
3284 9.0180 207.03 173.00 14.23
3285 9.0200 166.25 181.37 12.69
3286 9.0220 178.28 193.14 13.12
3287 9.0240 189.57 209.26 13.60
3288 9.0260 198.90 230.54 14.02
3289 9.0280 232.58 257.40 15.17
3290 9.0300 262.42 289.52 15.99
3291 9.0320 329.89 325.50 17.88
3292 9.0340 362.77 362.49 18.78
3293 9.0360 374.07 395.78 19.20
3294 9.0380 413.56 419.05 20.17
3295 9.0400 409.53 426.42 19.91
3296 9.0420 425.97 415.64 20.25
3297 9.0440 358.39 389.80 18.69
3298 9.0460 309.38 355.12 17.43
3299 9.0480 289.61 317.80 16.83
3300 9.0500 251.58 282.22 15.59
3301 9.0520 228.69 250.89 14.85
3302 9.0540 191.42 224.98 13.60
3303 9.0560 204.53 204.61 14.16
3304 9.0580 196.63 189.28 13.90
3305 9.0600 172.34 178.13 12.88
3306 9.0620 186.34 170.19 13.41
3307 9.0640 194.15 164.58 13.73
3308 9.0660 203.66 160.59 14.15
3309 9.0680 199.93 157.67 14.00
3310 9.0700 214.79 155.46 14.40
3311 9.0720 162.17 153.73 12.48
3312 9.0740 155.75 152.31 12.26
3313 9.0760 169.08 151.13 12.84
3314 9.0780 167.87 150.07 12.85
3315 9.0800 139.26 149.19 11.58
3316 9.0820 122.90 148.42 10.92
3317 9.0840 145.40 147.74 11.88
3318 9.0860 133.90 147.14 11.50
3319 9.0880 131.11 146.60 11.34
3320 9.0900 143.69 146.12 11.76
3321 9.0920 152.35 145.68 12.13
3322 9.0940 135.80 145.28 11.49
3323 9.0960 136.25 144.92 11.58
3324 9.0980 130.35 144.59 11.31
3325 9.1000 150.89 144.28 12.05
3326 9.1020 153.42 144.00 12.16
3327 9.1040 149.14 143.74 11.98
3328 9.1060 145.35 143.50 11.98
3329 9.1080 152.24 143.28 12.19
3330 9.1100 153.92 143.07 12.14
3331 9.1120 142.63 142.87 11.75
3332 9.1140 131.28 142.68 11.22
3333 9.1160 139.76 142.51 11.71
3334 9.1180 141.69 142.35 11.77
3335 9.1200 132.88 142.19 11.25
3336 9.1220 140.29 142.04 11.66
3337 9.1240 158.30 141.90 12.37
3338 9.1260 140.59 141.77 11.75
3339 9.1280 154.79 141.64 12.26
3340 9.1300 158.43 141.52 12.38
3341 9.1320 127.94 141.40 11.13
3342 9.1340 154.34 141.29 12.21
3343 9.1360 133.52 141.18 11.46
3344 9.1380 116.02 141.08 10.58
3345 9.1400 131.48 140.98 11.21
3346 9.1420 139.93 140.88 11.63
3347 9.1440 122.61 140.79 10.91
3348 9.1460 133.39 140.69 11.42
3349 9.1480 111.05 140.61 10.39
3350 9.1500 134.89 140.52 11.39
3351 9.1520 107.69 140.44 10.21
3352 9.1540 136.87 140.36 11.46
3353 9.1560 115.89 140.28 10.68
3354 9.1580 139.98 140.20 11.60
3355 9.1600 134.26 140.13 11.33
3356 9.1620 139.62 140.06 11.56
3357 9.1640 126.07 139.99 11.06
3358 9.1660 127.84 139.92 11.20
3359 9.1680 124.05 139.85 10.96
3360 9.1700 136.23 139.78 11.43
3361 9.1720 128.26 139.72 11.09
3362 9.1740 140.57 139.65 11.65
3363 9.1760 125.38 139.59 11.10
3364 9.1780 111.96 139.53 10.43
3365 9.1800 152.40 139.47 12.07
3366 9.1820 129.35 139.41 11.16
3367 9.1840 131.94 139.35 11.29
3368 9.1860 120.58 139.30 10.93
3369 9.1880 112.93 139.24 10.44
3370 9.1900 131.50 139.19 11.25
3371 9.1920 105.05 139.13 9.96
3372 9.1940 120.98 139.08 10.88
3373 9.1960 138.21 139.03 11.68
3374 9.1980 127.88 138.98 11.10
3375 9.2000 126.84 138.93 11.00
3376 9.2020 122.49 138.88 10.83
3377 9.2040 122.86 138.83 10.96
3378 9.2060 126.63 138.78 11.16
3379 9.2080 122.70 138.73 10.93
3380 9.2100 128.42 138.62 11.10
3381 9.2120 118.04 138.57 10.61
3382 9.2140 131.51 138.53 11.34
3383 9.2160 122.22 138.49 11.04
3384 9.2180 119.02 138.45 10.74
3385 9.2200 138.88 138.42 11.50
3386 9.2220 140.25 138.38 11.60
3387 9.2240 126.62 138.36 11.17
3388 9.2260 134.39 138.33 11.56
3389 9.2280 128.40 138.31 11.19
3390 9.2300 124.98 138.30 10.96
3391 9.2320 144.60 138.29 11.77
3392 9.2340 135.72 138.29 11.55
3393 9.2360 147.17 138.29 12.12
3394 9.2380 128.48 138.30 11.20
3395 9.2400 112.69 138.32 10.39
3396 9.2420 144.20 138.34 11.78
3397 9.2440 119.36 138.37 10.84
3398 9.2460 124.59 138.40 11.17
3399 9.2480 123.90 138.43 10.99
3400 9.2500 123.57 138.46 10.92
3401 9.2520 126.57 138.49 11.09
3402 9.2540 111.11 138.51 10.44
3403 9.2560 131.79 138.51 11.51
3404 9.2580 126.68 138.49 11.14
3405 9.2600 132.55 138.46 11.31
3406 9.2620 120.26 138.40 10.77
3407 9.2640 125.50 138.33 11.17
3408 9.2660 127.36 138.24 11.25
3409 9.2680 126.96 138.14 11.19
3410 9.2700 136.27 138.03 11.42
3411 9.2720 140.28 137.93 11.67
3412 9.2740 138.98 137.82 11.69
3413 9.2760 128.33 137.71 11.30
3414 9.2780 125.27 137.60 11.07
3415 9.2800 110.36 137.51 10.34
3416 9.2820 123.40 137.42 10.94
3417 9.2840 102.55 137.33 10.02
3418 9.2860 119.62 137.25 10.91
3419 9.2880 136.81 137.18 11.59
3420 9.2900 102.82 137.12 9.93
3421 9.2920 118.75 137.06 10.69
3422 9.2940 126.25 137.00 11.16
3423 9.2960 142.36 136.95 11.90
3424 9.2980 133.75 136.90 11.39
3425 9.3000 121.57 136.86 10.85
3426 9.3020 120.12 136.81 10.75
3427 9.3040 130.75 136.77 11.35
3428 9.3060 125.65 136.73 11.20
3429 9.3080 133.79 136.70 11.51
3430 9.3100 116.34 136.66 10.55
3431 9.3120 134.25 136.62 11.40
3432 9.3140 120.36 136.59 10.84
3433 9.3160 148.67 136.55 12.19
3434 9.3180 118.20 136.52 10.74
3435 9.3200 132.66 136.49 11.32
3436 9.3220 136.60 136.45 11.47
3437 9.3240 117.61 136.42 10.79
3438 9.3260 115.69 136.39 10.72
3439 9.3280 114.99 136.35 10.65
3440 9.3300 115.56 136.32 10.53
3441 9.3320 123.74 136.29 10.88
3442 9.3340 146.90 136.26 11.98
3443 9.3360 123.44 136.21 11.11
3444 9.3380 120.87 136.18 10.90
3445 9.3400 126.83 136.15 10.99
3446 9.3420 132.89 136.12 11.35
3447 9.3440 129.01 136.09 11.25
3448 9.3460 141.12 136.06 11.87
3449 9.3480 127.00 136.03 11.16
3450 9.3500 132.34 136.00 11.29
3451 9.3520 137.50 135.97 11.52
3452 9.3540 129.47 135.94 11.29
3453 9.3560 117.75 135.91 10.87
3454 9.3580 121.54 135.88 10.96
3455 9.3600 124.58 135.85 10.95
3456 9.3620 111.22 135.82 10.36
3457 9.3640 119.12 135.80 10.82
3458 9.3660 121.60 135.77 11.01
3459 9.3680 97.40 135.74 9.83
3460 9.3700 107.37 135.71 10.17
3461 9.3720 125.44 135.68 11.02
3462 9.3740 116.64 135.66 10.71
3463 9.3760 129.83 135.63 11.42
3464 9.3780 147.98 135.60 12.09
3465 9.3800 108.61 135.58 10.28
3466 9.3820 113.35 135.55 10.48
3467 9.3840 109.83 135.52 10.39
3468 9.3860 129.25 135.50 11.42
3469 9.3880 118.03 135.47 10.77
3470 9.3900 104.59 135.45 10.04
3471 9.3920 145.66 135.42 11.85
3472 9.3940 132.02 135.39 11.41
3473 9.3960 116.86 135.37 10.79
3474 9.3980 145.94 135.34 12.03
3475 9.4000 136.09 135.32 11.45
3476 9.4020 129.81 135.29 11.22
3477 9.4040 140.53 135.27 11.74
3478 9.4060 138.44 135.24 11.80
3479 9.4080 132.46 135.22 11.46
3480 9.4100 142.14 135.20 11.70
3481 9.4120 125.34 135.17 10.99
3482 9.4140 128.75 135.15 11.28
3483 9.4160 120.55 135.12 10.96
3484 9.4180 156.74 135.10 12.42
3485 9.4200 120.55 135.07 10.83
3486 9.4220 126.88 135.05 11.06
3487 9.4240 115.34 135.03 10.66
3488 9.4260 129.22 135.01 11.35
3489 9.4280 129.58 134.98 11.36
3490 9.4300 117.55 134.96 10.66
3491 9.4320 117.64 134.94 10.64
3492 9.4340 121.60 134.91 10.93
3493 9.4360 115.46 134.89 10.78
3494 9.4380 113.54 134.87 10.62
3495 9.4400 127.61 134.85 11.09
3496 9.4420 139.50 134.82 11.63
3497 9.4440 112.85 134.80 10.53
3498 9.4460 132.73 134.78 11.49
3499 9.4480 117.22 134.76 10.79
3500 9.4500 125.50 134.74 11.04
3501 9.4520 138.19 134.72 11.53
3502 9.4540 121.24 134.70 10.90
3503 9.4560 110.36 134.68 10.49
3504 9.4580 114.12 134.65 10.65
3505 9.4600 123.60 134.63 10.94
3506 9.4620 122.79 134.61 10.91
3507 9.4640 124.76 134.59 11.07
3508 9.4660 113.97 134.59 10.70
3509 9.4680 115.75 134.57 10.72
3510 9.4700 106.84 134.71 10.17
3511 9.4720 117.60 134.69 10.67
3512 9.4740 115.40 134.68 10.60
3513 9.4760 133.52 134.66 11.56
3514 9.4780 156.63 134.65 12.46
3515 9.4800 130.90 134.63 11.30
3516 9.4820 137.59 134.62 11.51
3517 9.4840 132.98 134.61 11.43
3518 9.4860 127.38 134.60 11.28
3519 9.4880 114.58 134.58 10.67
3520 9.4900 130.45 134.57 11.24
3521 9.4920 122.40 134.56 10.91
3522 9.4940 165.77 134.55 12.71
3523 9.4960 115.89 134.54 10.74
3524 9.4980 129.29 134.52 11.32
3525 9.5000 146.12 134.51 11.88
3526 9.5020 125.54 134.51 11.03
3527 9.5040 127.65 134.50 11.13
3528 9.5060 140.41 134.49 11.81
3529 9.5080 105.83 134.48 10.29
3530 9.5100 118.47 134.47 10.72
3531 9.5120 128.57 134.47 11.12
3532 9.5140 132.48 134.46 11.38
3533 9.5160 148.60 134.46 12.15
3534 9.5180 154.84 134.45 12.35
3535 9.5200 144.92 134.45 11.86
3536 9.5220 145.02 134.39 11.84
3537 9.5240 138.05 134.39 11.59
3538 9.5260 151.65 134.39 12.27
3539 9.5280 137.70 134.39 11.68
3540 9.5300 132.91 134.40 11.37
3541 9.5320 125.59 134.40 10.98
3542 9.5340 134.89 134.41 11.46
3543 9.5360 123.27 134.42 11.07
3544 9.5380 127.22 134.43 11.22
3545 9.5400 130.35 134.44 11.24
3546 9.5420 150.81 134.46 12.09
3547 9.5440 155.50 134.47 12.31
3548 9.5460 132.68 134.50 11.48
3549 9.5480 143.50 134.52 11.90
3550 9.5500 132.11 134.55 11.34
3551 9.5520 133.72 134.59 11.38
3552 9.5540 122.67 134.63 10.94
3553 9.5560 140.11 134.68 11.84
3554 9.5580 146.26 134.73 12.04
3555 9.5600 156.90 134.80 12.30
3556 9.5620 157.30 134.88 12.31
3557 9.5640 156.37 134.98 12.38
3558 9.5660 146.08 135.10 12.06
3559 9.5680 125.50 135.26 11.15
3560 9.5700 135.42 135.45 11.50
3561 9.5720 136.58 135.70 11.44
3562 9.5740 151.62 136.04 12.16
3563 9.5760 149.86 136.53 12.17
3564 9.5780 159.36 137.25 12.56
3565 9.5800 145.25 138.43 11.87
3566 9.5820 146.41 140.60 11.89
3567 9.5840 160.17 145.27 12.44
3568 9.5860 188.92 156.25 13.72
3569 9.5880 205.68 175.01 14.27
3570 9.5900 184.74 180.38 13.39
3571 9.5920 188.38 160.26 13.48
3572 9.5940 169.64 147.40 12.83
3573 9.5960 144.66 142.37 11.99
3574 9.5980 186.48 140.38 13.59
3575 9.6000 162.03 139.56 12.54
3576 9.6020 152.63 139.32 12.09
3577 9.6040 141.76 139.45 11.73
3578 9.6060 156.05 139.87 12.45
3579 9.6080 169.36 140.58 12.92
3580 9.6100 151.32 141.62 12.12
3581 9.6120 168.52 143.09 12.72
3582 9.6140 157.39 145.15 12.37
3583 9.6160 194.96 148.09 13.94
3584 9.6180 177.83 152.46 13.25
3585 9.6200 181.88 159.28 13.28
3586 9.6220 213.12 170.99 14.34
3587 9.6240 201.32 193.99 13.97
3588 9.6260 234.99 242.66 15.30
3589 9.6280 349.74 334.96 18.50
3590 9.6300 458.59 448.78 21.15
3591 9.6320 467.38 460.80 21.27
3592 9.6340 380.11 344.88 19.20
3593 9.6360 268.10 247.19 16.28
3594 9.6380 236.09 196.15 15.28
3595 9.6400 170.73 172.38 12.87
3596 9.6420 177.62 160.36 13.09
3597 9.6440 129.72 153.35 11.22
3598 9.6460 152.75 148.84 12.37
3599 9.6480 184.56 145.76 13.50
3600 9.6500 168.76 143.58 12.80
3601 9.6520 159.86 141.98 12.45
3602 9.6540 144.16 140.77 11.82
3603 9.6560 168.49 139.84 12.90
3604 9.6580 147.24 139.11 12.04
3605 9.6600 179.24 138.53 13.19
3606 9.6620 138.14 138.06 11.55
3607 9.6640 155.96 137.68 12.29
3608 9.6660 154.84 137.37 12.38
3609 9.6680 153.81 137.11 12.31
3610 9.6700 150.81 136.90 12.09
3611 9.6720 177.32 136.72 13.04
3612 9.6740 198.60 136.57 13.89
3613 9.6760 183.56 136.45 13.48
3614 9.6780 185.28 136.35 13.47
3615 9.6800 194.67 136.27 13.73
3616 9.6820 164.31 136.21 12.64
3617 9.6840 168.74 136.16 12.74
3618 9.6860 153.79 136.13 12.31
3619 9.6880 151.34 136.11 12.21
3620 9.6900 146.51 136.10 11.93
3621 9.6920 165.40 136.10 12.58
3622 9.6940 160.71 136.12 12.45
3623 9.6960 170.63 136.14 13.01
3624 9.6980 152.30 136.18 12.25
3625 9.7000 166.19 136.23 12.68
3626 9.7020 160.55 136.29 12.46
3627 9.7040 160.62 136.36 12.47
3628 9.7060 171.50 136.45 13.06
3629 9.7080 165.81 136.56 12.78
3630 9.7100 171.97 136.69 12.91
3631 9.7120 170.26 136.85 12.83
3632 9.7140 154.93 137.04 12.22
3633 9.7160 164.38 137.26 12.79
3634 9.7180 156.59 137.58 12.38
3635 9.7200 165.91 137.99 12.67
3636 9.7220 153.74 138.53 12.14
3637 9.7240 139.36 139.26 11.60
3638 9.7260 146.58 140.23 12.07
3639 9.7280 160.97 141.49 12.55
3640 9.7300 169.30 143.12 12.86
3641 9.7320 158.63 145.15 12.34
3642 9.7340 169.61 147.62 12.80
3643 9.7360 140.56 150.94 11.77
3644 9.7380 174.83 154.17 13.14
3645 9.7400 172.70 157.61 12.94
3646 9.7420 172.56 161.02 12.89
3647 9.7440 161.86 164.09 12.52
3648 9.7460 169.47 166.38 12.95
3649 9.7480 153.95 167.52 12.30
3650 9.7500 199.86 167.28 13.93
3651 9.7520 179.59 165.74 13.14
3652 9.7540 188.55 163.21 13.55
3653 9.7560 163.39 160.12 12.74
3654 9.7580 138.22 156.85 11.63
3655 9.7600 164.73 153.67 12.67
3656 9.7620 159.73 150.79 12.42
3657 9.7640 152.32 148.29 12.13
3658 9.7660 129.51 146.23 11.37
3659 9.7680 157.50 144.59 12.50
3660 9.7700 194.06 143.35 13.73
3661 9.7720 148.01 142.44 11.93
3662 9.7740 140.89 141.82 11.72
3663 9.7760 155.02 141.41 12.43
3664 9.7780 134.08 141.16 11.50
3665 9.7800 148.88 141.05 12.01
3666 9.7820 150.75 141.02 12.07
3667 9.7840 168.38 141.07 12.78
3668 9.7860 146.79 141.17 12.11
3669 9.7880 129.24 141.32 11.31
3670 9.7900 141.09 141.50 11.72
3671 9.7920 154.04 141.73 12.15
3672 9.7940 140.51 141.99 11.69
3673 9.7960 158.58 142.15 12.55
3674 9.7980 145.69 142.49 11.99
3675 9.8000 152.01 142.85 12.17
3676 9.8020 145.32 143.26 11.82
3677 9.8040 152.45 143.70 12.19
3678 9.8060 136.89 144.20 11.67
3679 9.8080 143.21 144.73 11.93
3680 9.8100 159.07 145.32 12.48
3681 9.8120 164.92 145.97 12.61
3682 9.8140 133.39 146.69 11.34
3683 9.8160 137.68 147.47 11.69
3684 9.8180 161.31 148.33 12.63
3685 9.8200 169.60 149.29 12.80
3686 9.8220 146.19 150.34 11.87
3687 9.8240 133.19 152.61 11.36
3688 9.8260 142.87 153.93 11.96
3689 9.8280 161.54 155.41 12.61
3690 9.8300 169.47 157.06 12.86
3691 9.8320 169.58 158.92 12.77
3692 9.8340 180.19 161.02 13.21
3693 9.8360 162.57 163.41 12.68
3694 9.8380 172.57 166.13 13.07
3695 9.8400 166.63 169.27 12.70
3696 9.8420 161.72 172.89 12.51
3697 9.8440 165.28 177.12 12.67
3698 9.8460 178.86 182.09 13.37
3699 9.8480 180.81 187.99 13.37
3700 9.8500 187.74 195.07 13.54
3701 9.8520 200.79 203.65 13.91
3702 9.8540 226.77 214.21 14.76
3703 9.8560 197.51 227.39 14.03
3704 9.8580 229.43 244.14 15.03
3705 9.8600 226.98 265.88 14.89
3706 9.8620 258.02 294.97 15.73
3707 9.8640 293.55 335.82 16.88
3708 9.8660 329.17 397.86 18.14
3709 9.8680 464.46 501.45 21.47
3710 9.8700 665.96 685.00 25.47
3711 9.8720 1018.08 1004.97 31.41
3712 9.8740 1685.26 1512.52 40.85
3713 9.8760 2662.99 2189.05 52.06
3714 9.8780 3199.00 2823.08 57.15
3715 9.8800 3080.76 2983.05 55.54
3716 9.8820 2460.22 2508.34 49.47
3717 9.8840 1765.42 1800.53 41.58
3718 9.8860 1237.89 1209.22 35.26
3719 9.8880 896.17 816.64 29.74
3720 9.8900 683.77 588.58 25.88
3721 9.8920 534.63 465.22 22.66
3722 9.8940 468.83 399.60 21.39
3723 9.8960 389.63 365.48 19.68
3724 9.8980 433.81 351.77 20.71
3725 9.9000 356.25 356.80 18.54
3726 9.9020 388.15 388.03 19.38
3727 9.9040 479.97 467.17 21.56
3728 9.9060 681.20 627.53 25.97
3729 9.9080 973.92 864.76 31.08
3730 9.9100 1002.45 1011.59 31.25
3731 9.9120 846.02 860.04 28.69
3732 9.9140 631.79 613.58 24.84
3733 9.9160 480.94 450.17 21.91
3734 9.9180 397.08 361.57 19.72
3735 9.9200 367.88 311.68 18.92
3736 9.9220 304.16 278.70 17.13
3737 9.9240 257.53 253.84 15.79
3738 9.9260 283.90 233.98 16.83
3739 9.9280 233.93 217.84 15.13
3740 9.9300 214.64 204.70 14.42
3741 9.9320 184.84 194.07 13.37
3742 9.9340 181.06 185.56 13.24
3743 9.9360 174.80 178.80 13.09
3744 9.9380 186.42 173.47 13.54
3745 9.9400 184.20 169.26 13.34
3746 9.9420 152.81 165.93 12.16
3747 9.9440 165.14 163.26 12.62
3748 9.9460 152.56 161.11 12.33
3749 9.9480 165.74 159.34 12.76
3750 9.9500 144.33 157.87 11.85
3751 9.9520 153.89 156.63 12.19
3752 9.9540 141.82 155.58 11.66
3753 9.9560 153.62 154.87 12.36
3754 9.9580 169.75 154.12 12.89
3755 9.9600 161.85 153.48 12.48
3756 9.9620 142.95 152.94 11.72
3757 9.9640 144.44 152.49 11.86
3758 9.9660 164.09 152.13 12.70
3759 9.9680 164.77 151.85 12.72
3760 9.9700 158.70 152.57 12.43
3761 9.9720 151.43 152.46 12.08
3762 9.9740 170.44 152.41 12.86
3763 9.9760 148.22 152.43 12.12
3764 9.9780 145.13 152.51 11.97
3765 9.9800 163.91 152.67 12.59
3766 9.9820 146.08 152.90 11.90
3767 9.9840 157.08 153.19 12.32
3768 9.9860 161.85 153.57 12.76
3769 9.9880 158.28 154.02 12.45
3770 9.9900 170.46 154.57 12.90
3771 9.9920 168.82 155.21 12.76
3772 9.9940 157.92 155.96 12.40
3773 9.9960 161.77 156.83 12.68
3774 9.9980 175.11 157.84 13.08
3775 10.0000 171.83 159.01 12.95
3776 10.0020 170.22 160.38 12.81
3777 10.0040 157.12 161.96 12.33
3778 10.0060 181.44 163.81 13.45
3779 10.0080 181.87 166.00 13.40
3780 10.0100 166.95 168.61 12.73
3781 10.0120 169.31 171.76 12.84
3782 10.0140 184.14 175.61 13.34
3783 10.0160 181.22 180.43 13.43
3784 10.0180 184.21 186.63 13.48
3785 10.0200 176.70 194.94 13.14
3786 10.0220 215.11 206.91 14.37
3787 10.0240 225.79 226.07 14.83
3788 10.0260 258.02 259.58 16.01
3789 10.0280 309.26 318.46 17.43
3790 10.0300 352.45 410.85 18.52
3791 10.0320 439.26 521.08 20.62
3792 10.0340 539.33 580.53 22.90
3793 10.0360 493.73 530.16 22.16
3794 10.0380 412.91 434.07 20.21
3795 10.0400 353.70 362.67 18.54
3796 10.0420 371.09 328.08 18.97
3797 10.0440 313.76 322.10 17.48
3798 10.0460 358.09 336.49 18.86
3799 10.0480 401.92 369.71 19.88
3800 10.0500 479.93 428.96 21.67
3801 10.0520 587.64 531.87 23.92
3802 10.0540 721.78 706.97 26.55
3803 10.0560 954.28 987.18 30.84
3804 10.0580 1222.00 1393.41 34.80
3805 10.0600 1654.49 1899.29 40.50
3806 10.0620 2214.63 2377.66 46.74
3807 10.0640 2510.70 2586.22 50.19
3808 10.0660 2441.59 2373.26 49.85
3809 10.0680 2023.11 1901.01 45.10
3810 10.0700 1487.72 1432.12 38.33
3811 10.0720 1179.62 1118.97 34.08
3812 10.0740 1038.36 993.69 31.87
3813 10.0760 914.56 843.80 30.20
3814 10.0780 664.08 577.71 25.61
3815 10.0800 433.01 424.00 20.43
3816 10.0820 300.14 347.35 17.02
3817 10.0840 288.15 302.84 16.72
3818 10.0860 227.99 273.27 15.03
3819 10.0880 243.72 251.74 15.43
3820 10.0900 201.71 235.75 14.00
3821 10.0920 185.57 223.37 13.44
3822 10.0940 205.37 213.62 14.10
3823 10.0960 188.35 205.85 13.64
3824 10.0980 207.83 199.62 14.26
3825 10.1000 176.19 194.63 13.00
3826 10.1020 183.55 190.63 13.39
3827 10.1040 196.55 187.47 13.77
3828 10.1060 198.34 185.02 14.02
3829 10.1080 204.59 183.19 14.08
3830 10.1100 201.84 181.92 14.00
3831 10.1120 200.95 181.15 13.88
3832 10.1140 185.84 180.87 13.36
3833 10.1160 196.82 181.08 13.88
3834 10.1180 202.80 181.79 14.04
3835 10.1200 193.45 183.06 13.66
3836 10.1220 197.57 184.99 13.78
3837 10.1240 211.71 187.71 14.22
3838 10.1260 186.77 190.62 13.62
3839 10.1280 200.61 195.69 13.98
3840 10.1300 203.92 202.53 14.04
3841 10.1320 211.73 211.83 14.28
3842 10.1340 223.04 224.62 14.70
3843 10.1360 263.41 242.60 16.07
3844 10.1380 274.29 268.75 16.30
3845 10.1400 320.03 309.20 17.61
3846 10.1420 448.37 378.52 20.83
3847 10.1440 538.04 511.09 22.81
3848 10.1460 810.64 769.96 28.46
3849 10.1480 1238.52 1209.30 34.86
3850 10.1500 1826.61 1700.65 42.61
3851 10.1520 1806.29 1757.31 42.07
3852 10.1540 1436.55 1285.76 37.48
3853 10.1560 921.25 828.45 30.32
3854 10.1580 671.46 561.93 25.66
3855 10.1600 425.96 430.02 20.25
3856 10.1620 328.93 365.54 17.85
3857 10.1640 311.91 330.63 17.34
3858 10.1660 317.31 309.31 17.75
3859 10.1680 293.56 294.89 16.90
3860 10.1700 281.73 284.03 16.60
3861 10.1720 289.80 274.85 16.73
3862 10.1740 265.67 266.30 15.98
3863 10.1760 274.84 257.82 16.54
3864 10.1780 254.47 249.22 15.75
3865 10.1800 252.14 240.48 15.64
3866 10.1820 250.48 231.70 15.55
3867 10.1840 251.53 223.04 15.66
3868 10.1860 214.10 214.62 14.55
3869 10.1880 224.14 206.57 14.78
3870 10.1900 203.20 199.01 14.06
3871 10.1920 195.23 192.04 13.73
3872 10.1940 207.63 185.61 14.20
3873 10.1960 200.21 179.81 14.10
3874 10.1980 171.26 174.47 12.94
3875 10.2000 186.52 169.91 13.46
3876 10.2020 176.20 165.93 13.06
3877 10.2040 176.72 162.49 13.13
3878 10.2060 167.70 159.54 12.97
3879 10.2080 172.70 157.03 13.01
3880 10.2100 161.46 154.90 12.53
3881 10.2120 176.50 153.11 13.06
3882 10.2140 187.16 151.59 13.48
3883 10.2160 176.54 150.32 13.22
3884 10.2180 182.62 149.23 13.37
3885 10.2200 175.47 148.31 13.05
3886 10.2220 141.45 147.52 11.70
3887 10.2240 161.64 146.84 12.51
3888 10.2260 173.06 146.24 13.12
3889 10.2280 151.38 145.71 12.18
3890 10.2300 159.99 145.25 12.52
3891 10.2320 147.93 144.83 11.97
3892 10.2340 150.14 144.45 12.13
3893 10.2360 165.93 144.10 12.83
3894 10.2380 140.83 143.79 11.79
3895 10.2400 159.47 143.50 12.49
3896 10.2420 148.14 143.23 11.98
3897 10.2440 143.94 142.98 11.81
3898 10.2460 161.37 142.75 12.71
3899 10.2480 142.81 142.42 11.85
3900 10.2500 150.94 142.22 12.12
3901 10.2520 144.26 142.04 11.83
3902 10.2540 153.74 141.87 12.24
3903 10.2560 166.43 141.71 12.87
3904 10.2580 135.09 141.57 11.57
3905 10.2600 158.22 141.43 12.42
3906 10.2620 161.11 141.30 12.49
3907 10.2640 145.14 141.18 11.89
3908 10.2660 173.57 141.07 13.16
3909 10.2680 151.27 140.96 12.17
3910 10.2700 153.73 140.87 12.27
3911 10.2720 163.48 140.78 12.58
3912 10.2740 123.81 140.69 10.96
3913 10.2760 149.50 140.61 12.19
3914 10.2780 142.41 140.54 11.83
3915 10.2800 163.15 140.47 12.62
3916 10.2820 145.39 140.41 11.87
3917 10.2840 136.00 140.35 11.51
3918 10.2860 160.70 140.30 12.62
3919 10.2880 141.70 140.25 11.78
3920 10.2900 134.04 140.21 11.44
3921 10.2920 143.99 140.16 11.85
3922 10.2940 168.24 140.13 12.75
3923 10.2960 140.39 140.10 11.80
3924 10.2980 149.26 140.07 12.11
3925 10.3000 144.50 140.04 11.86
3926 10.3020 157.15 140.03 12.32
3927 10.3040 156.83 140.01 12.34
3928 10.3060 160.22 140.00 12.57
3929 10.3080 157.45 139.99 12.42
3930 10.3100 147.03 139.99 11.96
3931 10.3120 152.47 140.00 12.18
3932 10.3140 141.41 140.01 11.71
3933 10.3160 141.29 140.03 11.80
3934 10.3180 135.70 140.06 11.53
3935 10.3200 149.98 140.10 12.06
3936 10.3220 146.20 140.16 11.91
3937 10.3240 146.79 140.23 11.91
3938 10.3260 136.13 140.32 11.64
3939 10.3280 151.36 140.45 12.12
3940 10.3300 139.10 140.62 11.66
3941 10.3320 166.03 140.85 12.70
3942 10.3340 154.78 141.17 12.25
3943 10.3360 130.89 141.08 11.38
3944 10.3380 143.71 141.80 11.86
3945 10.3400 139.84 142.98 11.65
3946 10.3420 135.05 145.13 11.43
3947 10.3440 131.70 149.53 11.28
3948 10.3460 155.02 158.45 12.38
3949 10.3480 175.60 172.23 13.05
3950 10.3500 171.20 178.82 12.91
3951 10.3520 174.35 167.53 13.00
3952 10.3540 149.80 154.37 11.98
3953 10.3560 145.84 147.16 11.98
3954 10.3580 144.28 143.77 11.83
3955 10.3600 126.46 142.09 11.09
3956 10.3620 135.91 141.14 11.44
3957 10.3640 134.25 140.55 11.40
3958 10.3660 136.05 140.17 11.59
3959 10.3680 137.39 139.91 11.56
3960 10.3700 154.35 139.73 12.23
3961 10.3720 145.08 139.71 11.84
3962 10.3740 138.30 139.62 11.53
3963 10.3760 119.64 139.56 10.85
3964 10.3780 135.90 139.52 11.44
3965 10.3800 140.31 139.50 11.64
3966 10.3820 109.14 139.49 10.25
3967 10.3840 129.52 139.48 11.20
3968 10.3860 138.16 139.49 11.66
3969 10.3880 138.90 139.50 11.59
3970 10.3900 134.93 139.51 11.43
3971 10.3920 138.63 139.54 11.58
3972 10.3940 148.11 139.56 11.95
3973 10.3960 124.11 139.59 11.08
3974 10.3980 140.53 139.62 11.66
3975 10.4000 144.09 139.66 11.82
3976 10.4020 138.59 139.70 11.57
3977 10.4040 129.04 139.74 11.15
3978 10.4060 155.68 139.78 12.37
3979 10.4080 134.66 139.83 11.41
3980 10.4100 131.11 139.88 11.23
3981 10.4120 128.98 139.93 11.16
3982 10.4140 135.26 139.98 11.39
3983 10.4160 137.96 140.04 11.64
3984 10.4180 152.48 140.10 12.09
3985 10.4200 118.77 140.17 10.70
3986 10.4220 149.54 140.24 12.04
3987 10.4240 139.97 140.31 11.63
3988 10.4260 136.15 140.38 11.58
3989 10.4280 147.37 140.47 11.90
3990 10.4300 138.20 140.55 11.56
3991 10.4320 140.02 140.65 11.60
3992 10.4340 150.22 140.75 12.05
3993 10.4360 129.56 140.85 11.28
3994 10.4380 127.10 140.97 11.06
3995 10.4400 126.04 141.09 11.02
3996 10.4420 145.53 141.23 11.81
3997 10.4440 125.92 141.38 11.01
3998 10.4460 128.89 141.55 11.25
3999 10.4480 109.33 141.73 10.24
4000 10.4500 133.60 141.93 11.35
4001 10.4520 147.29 142.16 11.95
4002 10.4540 157.34 142.41 12.30
4003 10.4560 118.22 142.71 10.81
4004 10.4580 123.88 143.04 10.87
4005 10.4600 135.01 143.43 11.43
4006 10.4620 157.15 143.90 12.31
4007 10.4640 125.16 144.47 11.07
4008 10.4660 146.13 145.19 12.01
4009 10.4680 146.09 146.14 11.82
4010 10.4700 127.39 147.45 11.11
4011 10.4720 137.26 149.31 11.51
4012 10.4740 145.64 151.97 11.89
4013 10.4760 154.15 155.77 12.34
4014 10.4780 143.40 161.03 11.74
4015 10.4800 136.97 168.05 11.50
4016 10.4820 153.28 176.93 12.14
4017 10.4840 167.70 187.49 12.80
4018 10.4860 174.79 199.04 13.15
4019 10.4880 152.82 210.17 12.18
4020 10.4900 159.25 218.70 12.45
4021 10.4920 172.04 222.19 12.84
4022 10.4940 174.98 219.42 13.09
4023 10.4960 174.59 211.38 13.22
4024 10.4980 159.12 200.46 12.42
4025 10.5000 151.86 188.94 12.15
4026 10.5020 180.15 178.31 13.14
4027 10.5040 156.33 169.32 12.41
4028 10.5060 138.71 162.20 11.73
4029 10.5080 128.62 156.86 11.16
4030 10.5100 121.11 153.02 10.90
4031 10.5120 124.60 150.34 10.96
4032 10.5140 128.45 148.50 11.26
4033 10.5160 116.02 147.24 10.72
4034 10.5180 114.12 146.35 10.58
4035 10.5200 136.54 145.71 11.54
4036 10.5220 130.81 145.22 11.22
4037 10.5240 126.05 144.84 11.17
4038 10.5260 164.48 144.53 12.78
4039 10.5280 140.34 144.29 11.75
4040 10.5300 141.43 144.09 11.79
4041 10.5320 128.61 143.93 11.13
4042 10.5340 135.09 143.80 11.54
4043 10.5360 136.44 143.71 11.70
4044 10.5380 143.74 143.64 11.87
4045 10.5400 134.19 143.60 11.46
4046 10.5420 120.90 143.58 10.84
4047 10.5440 137.02 143.59 11.65
4048 10.5460 145.71 143.62 12.06
4049 10.5480 118.82 143.70 10.86
4050 10.5500 128.02 143.82 11.26
4051 10.5520 147.50 144.02 11.91
4052 10.5540 138.59 144.34 11.71
4053 10.5560 134.28 144.87 11.59
4054 10.5580 129.71 145.88 11.29
4055 10.5600 132.88 147.80 11.42
4056 10.5620 142.78 151.16 11.77
4057 10.5640 146.59 155.61 12.00
4058 10.5660 160.73 158.12 12.67
4059 10.5680 139.80 155.52 11.78
4060 10.5700 132.76 151.02 11.44
4061 10.5720 137.69 147.76 11.55
4062 10.5740 124.03 145.95 11.06
4063 10.5760 145.94 145.03 12.11
4064 10.5780 143.66 144.55 11.91
4065 10.5800 129.07 144.28 11.33
4066 10.5820 129.65 144.12 11.25
4067 10.5840 156.18 144.02 12.39
4068 10.5860 119.41 143.96 10.93
4069 10.5880 126.43 143.93 11.15
4070 10.5900 130.07 143.92 11.33
4071 10.5920 136.42 143.93 11.53
4072 10.5940 151.17 143.95 12.23
4073 10.5960 125.59 143.99 11.21
4074 10.5980 130.98 144.02 11.36
4075 10.6000 122.63 144.07 10.99
4076 10.6020 123.70 144.12 10.96
4077 10.6040 133.29 144.18 11.41
4078 10.6060 131.27 144.25 11.43
4079 10.6080 135.89 144.32 11.55
4080 10.6100 135.12 144.39 11.52
4081 10.6120 156.52 144.47 12.31
4082 10.6140 157.15 144.56 12.37
4083 10.6160 129.74 144.65 11.36
4084 10.6180 127.28 144.75 11.16
4085 10.6200 152.31 144.85 12.17
4086 10.6220 147.89 144.96 12.03
4087 10.6240 137.10 145.08 11.58
4088 10.6260 141.26 145.21 11.84
4089 10.6280 148.74 145.34 12.05
4090 10.6300 131.40 145.48 11.37
4091 10.6320 126.31 145.63 11.09
4092 10.6340 127.81 145.80 11.10
4093 10.6360 133.29 145.98 11.55
4094 10.6380 142.31 146.17 11.75
4095 10.6400 134.06 146.37 11.45
4096 10.6420 141.97 146.60 11.71
4097 10.6440 136.64 146.85 11.54
4098 10.6460 127.31 147.12 11.25
4099 10.6480 141.31 147.42 11.75
4100 10.6500 157.23 147.76 12.40
4101 10.6520 153.44 148.14 12.17
4102 10.6540 122.43 148.56 10.88
4103 10.6560 118.78 149.05 10.82
4104 10.6580 129.25 149.62 11.23
4105 10.6600 141.90 150.29 11.76
4106 10.6620 131.05 151.10 11.28
4107 10.6640 152.15 152.13 12.14
4108 10.6660 147.35 153.46 12.11
4109 10.6680 155.07 155.25 12.29
4110 10.6700 139.18 157.71 11.66
4111 10.6720 159.46 161.12 12.43
4112 10.6740 166.68 165.77 12.65
4113 10.6760 138.09 171.98 11.70
4114 10.6780 158.87 179.96 12.42
4115 10.6800 181.71 189.74 13.29
4116 10.6820 220.51 201.03 14.59
4117 10.6840 211.02 213.10 14.31
4118 10.6860 225.89 224.55 15.01
4119 10.6880 244.37 233.35 15.40
4120 10.6900 228.26 237.43 14.90
4121 10.6920 231.37 235.95 15.01
4122 10.6940 248.41 229.97 15.48
4123 10.6960 218.18 221.73 14.69
4124 10.6980 210.12 213.38 14.31
4125 10.7000 184.79 206.53 13.39
4126 10.7020 167.19 202.22 12.74
4127 10.7040 191.53 201.15 13.60
4128 10.7060 200.81 203.79 14.10
4129 10.7080 208.48 210.35 14.23
4130 10.7100 226.39 220.71 14.89
4131 10.7120 227.24 234.23 14.86
4132 10.7140 256.24 249.47 15.76
4133 10.7160 257.48 263.81 15.99
4134 10.7180 326.45 273.38 17.80
4135 10.7200 307.43 274.50 17.29
4136 10.7220 282.23 266.29 16.56
4137 10.7240 234.35 251.54 15.05
4138 10.7260 231.92 234.24 15.16
4139 10.7280 182.58 217.45 13.30
4140 10.7300 194.30 202.76 13.78
4141 10.7320 177.54 190.80 13.08
4142 10.7340 171.41 181.54 12.87
4143 10.7360 172.46 174.60 13.08
4144 10.7380 178.57 169.47 13.19
4145 10.7400 179.02 165.66 13.23
4146 10.7420 160.92 162.75 12.49
4147 10.7440 168.05 160.47 12.74
4148 10.7460 172.58 158.62 13.09
4149 10.7480 138.82 157.08 11.59
4150 10.7500 147.27 155.78 12.02
4151 10.7520 142.91 154.68 11.73
4152 10.7540 133.83 153.74 11.40
4153 10.7560 140.33 152.95 11.77
4154 10.7580 126.44 152.27 11.10
4155 10.7600 137.04 151.70 11.57
4156 10.7620 149.34 151.21 12.00
4157 10.7640 149.98 150.80 12.05
4158 10.7660 150.16 150.45 12.24
4159 10.7680 164.80 150.15 12.62
4160 10.7700 143.67 149.90 11.85
4161 10.7720 145.51 149.69 11.88
4162 10.7740 142.08 149.51 11.72
4163 10.7760 141.52 149.36 11.85
4164 10.7780 136.14 149.22 11.50
4165 10.7800 143.86 149.11 11.82
4166 10.7820 131.68 149.01 11.26
4167 10.7840 158.22 148.93 12.37
4168 10.7860 141.83 148.86 11.86
4169 10.7880 144.44 148.79 11.86
4170 10.7900 133.02 148.74 11.41
4171 10.7920 119.31 149.59 10.74
4172 10.7940 141.18 149.58 11.69
4173 10.7960 148.01 149.58 12.11
4174 10.7980 117.94 149.58 10.67
4175 10.8000 130.19 149.60 11.25
4176 10.8020 140.44 150.13 11.61
4177 10.8040 140.53 150.17 11.66
4178 10.8060 124.71 150.21 11.11
4179 10.8080 139.62 150.26 11.61
4180 10.8100 131.26 150.32 11.33
4181 10.8120 151.35 150.38 12.11
4182 10.8140 147.75 150.45 11.93
4183 10.8160 128.46 150.52 11.25
4184 10.8180 138.74 150.60 11.61
4185 10.8200 135.65 150.69 11.45
4186 10.8220 134.08 150.79 11.36
4187 10.8240 143.29 150.89 11.78
4188 10.8260 159.02 150.99 12.53
4189 10.8280 146.12 151.11 11.87
4190 10.8300 146.78 151.23 11.96
4191 10.8320 143.22 151.36 11.78
4192 10.8340 140.23 151.51 11.64
4193 10.8360 131.25 151.65 11.39
4194 10.8380 124.72 151.85 10.96
4195 10.8400 136.92 152.02 11.53
4196 10.8420 144.46 152.21 11.83
4197 10.8440 152.83 152.41 12.17
4198 10.8460 147.76 152.62 12.09
4199 10.8480 137.57 152.85 11.57
4200 10.8500 147.40 153.10 11.98
4201 10.8520 144.81 153.36 11.86
4202 10.8540 143.21 153.65 11.74
4203 10.8560 145.97 153.97 12.04
4204 10.8580 144.98 154.31 11.82
4205 10.8600 146.24 154.69 11.91
4206 10.8620 135.69 155.10 11.48
4207 10.8640 120.99 155.55 10.83
4208 10.8660 131.57 156.05 11.42
4209 10.8680 142.97 156.61 11.79
4210 10.8700 139.06 157.23 11.65
4211 10.8720 162.51 157.93 12.55
4212 10.8740 158.25 158.72 12.35
4213 10.8760 138.91 159.61 11.77
4214 10.8780 141.97 160.64 11.68
4215 10.8800 136.32 161.81 11.51
4216 10.8820 136.42 163.18 11.50
4217 10.8840 139.78 164.78 11.66
4218 10.8860 147.60 166.67 12.11
4219 10.8880 167.43 168.94 12.72
4220 10.8900 142.85 171.68 11.81
4221 10.8920 164.31 175.05 12.59
4222 10.8940 168.72 179.25 12.78
4223 10.8960 182.21 184.61 13.46
4224 10.8980 184.50 191.58 13.37
4225 10.9000 181.79 200.90 13.31
4226 10.9020 199.05 213.76 13.83
4227 10.9040 246.23 232.25 15.49
4228 10.9060 226.15 260.23 14.95
4229 10.9080 278.11 305.48 16.35
4230 10.9100 393.39 385.75 19.62
4231 10.9120 550.19 546.86 23.05
4232 10.9140 915.96 911.69 29.74
4233 10.9160 1535.34 1641.05 39.32
4234 10.9180 1820.25 2145.44 42.30
4235 10.9200 1479.16 1435.89 38.20
4236 10.9220 971.37 878.64 30.61
4237 10.9240 730.26 767.64 26.83
4238 10.9260 756.19 897.87 27.37
4239 10.9280 646.39 829.11 25.13
4240 10.9300 463.42 525.41 21.31
4241 10.9320 349.49 358.61 18.34
4242 10.9340 246.13 282.52 15.49
4243 10.9360 209.64 243.02 14.42
4244 10.9380 188.88 219.70 13.53
4245 10.9400 192.19 204.62 13.66
4246 10.9420 164.12 194.23 12.63
4247 10.9440 165.14 186.74 12.68
4248 10.9460 192.83 181.15 13.85
4249 10.9480 152.91 176.84 12.20
4250 10.9500 166.17 173.46 12.80
4251 10.9520 169.89 170.76 12.76
4252 10.9540 170.14 168.56 12.87
4253 10.9560 162.77 166.75 12.68
4254 10.9580 169.67 165.24 12.89
4255 10.9600 168.16 163.98 12.82
4256 10.9620 173.09 162.90 12.99
4257 10.9640 163.54 161.99 12.62
4258 10.9660 169.07 161.20 12.95
4259 10.9680 162.60 160.52 12.60
4260 10.9700 145.28 159.94 11.96
4261 10.9720 172.31 159.43 12.88
4262 10.9740 136.68 158.98 11.57
4263 10.9760 152.49 158.59 12.33
4264 10.9780 158.87 158.25 12.40
4265 10.9800 127.70 157.95 11.11
4266 10.9820 159.10 157.69 12.42
4267 10.9840 160.94 157.46 12.54
4268 10.9860 150.44 157.26 12.20
4269 10.9880 147.64 157.08 12.03
4270 10.9900 142.60 156.92 11.78
4271 10.9920 141.38 156.79 11.70
4272 10.9940 142.28 156.67 11.80
4273 10.9960 158.04 156.57 12.54
4274 10.9980 128.15 156.48 11.15
4275 11.0000 149.19 156.41 12.07
4276 11.0020 148.73 156.35 12.04
4277 11.0040 146.57 156.30 11.95
4278 11.0060 143.54 156.26 11.94
4279 11.0080 151.59 156.23 12.15
4280 11.0100 141.18 156.21 11.73
4281 11.0120 171.78 156.20 12.90
4282 11.0140 133.83 156.19 11.39
4283 11.0160 134.35 156.19 11.52
4284 11.0180 141.58 156.20 11.70
4285 11.0200 142.80 156.22 11.79
4286 11.0220 147.45 156.24 11.96
4287 11.0240 144.05 156.27 11.86
4288 11.0260 140.12 156.30 11.80
4289 11.0280 149.93 156.35 12.04
4290 11.0300 135.81 156.39 11.51
4291 11.0320 153.18 156.44 12.19
4292 11.0340 137.56 156.50 11.55
4293 11.0360 142.01 156.56 11.88
4294 11.0380 161.10 156.63 12.50
4295 11.0400 159.46 156.70 12.44
4296 11.0420 131.91 156.78 11.30
4297 11.0440 161.06 156.86 12.54
4298 11.0460 144.99 156.09 11.94
4299 11.0480 139.80 156.21 11.66
4300 11.0500 168.12 156.34 12.82
4301 11.0520 163.43 156.47 12.58
4302 11.0540 154.67 156.60 12.27
4303 11.0560 160.57 156.48 12.61
4304 11.0580 149.28 156.63 12.02
4305 11.0600 145.09 156.79 11.82
4306 11.0620 184.32 156.96 13.32
4307 11.0640 154.36 157.13 12.21
4308 11.0660 160.52 157.31 12.61
4309 11.0680 151.39 157.50 12.14
4310 11.0700 146.05 157.70 11.89
4311 11.0720 154.40 157.91 12.25
4312 11.0740 148.74 158.12 12.01
4313 11.0760 146.86 158.35 12.06
4314 11.0780 156.65 158.59 12.32
4315 11.0800 154.66 158.85 12.27
4316 11.0820 156.77 159.11 12.33
4317 11.0840 158.79 159.40 12.40
4318 11.0860 140.84 159.70 11.84
4319 11.0880 147.18 160.00 11.94
4320 11.0900 158.70 160.34 12.40
4321 11.0920 159.42 160.71 12.36
4322 11.0940 152.63 161.11 12.16
4323 11.0960 169.01 161.54 12.87
4324 11.0980 168.25 162.01 12.78
4325 11.1000 190.84 162.54 13.53
4326 11.1020 155.65 163.12 12.31
4327 11.1040 160.04 163.77 12.43
4328 11.1060 148.57 164.52 12.11
4329 11.1080 173.13 165.38 12.90
4330 11.1100 163.98 166.39 12.59
4331 11.1120 165.55 167.59 12.61
4332 11.1140 173.38 169.01 12.97
4333 11.1160 169.99 170.72 12.96
4334 11.1180 178.21 172.79 13.04
4335 11.1200 188.30 175.28 13.49
4336 11.1220 183.53 178.28 13.39
4337 11.1240 172.08 181.89 12.88
4338 11.1260 157.11 186.20 12.41
4339 11.1280 164.25 191.29 12.59
4340 11.1300 188.80 197.28 13.54
4341 11.1320 178.97 204.19 13.12
4342 11.1340 189.34 212.15 13.54
4343 11.1360 185.32 221.13 13.50
4344 11.1380 197.78 231.14 13.76
4345 11.1400 198.91 242.11 13.84
4346 11.1420 233.29 253.94 15.07
4347 11.1440 205.23 266.43 14.10
4348 11.1460 233.53 279.35 15.12
4349 11.1480 259.25 292.35 15.80
4350 11.1500 274.12 305.02 16.29
4351 11.1520 280.02 316.82 16.44
4352 11.1540 327.39 327.19 17.84
4353 11.1560 300.90 335.50 17.19
4354 11.1580 296.44 341.16 16.87
4355 11.1600 317.35 343.72 17.49
4356 11.1620 305.90 342.98 17.22
4357 11.1640 314.38 339.00 17.46
4358 11.1660 300.56 332.12 17.16
4359 11.1680 312.64 322.85 17.31
4360 11.1700 280.54 312.02 16.47
4361 11.1720 282.48 299.85 16.47
4362 11.1740 249.88 287.09 15.63
4363 11.1760 240.77 274.22 15.42
4364 11.1780 224.13 261.61 14.63
4365 11.1800 197.97 249.55 13.79
4366 11.1820 229.13 238.26 14.89
4367 11.1840 201.41 227.88 14.00
4368 11.1860 209.61 218.50 14.37
4369 11.1880 200.28 210.16 13.90
4370 11.1900 174.55 202.85 13.02
4371 11.1920 178.30 196.53 13.08
4372 11.1940 182.85 191.13 13.33
4373 11.1960 186.84 186.57 13.57
4374 11.1980 156.53 182.76 12.29
4375 11.2000 168.19 179.61 12.71
4376 11.2020 169.73 177.02 12.77
4377 11.2040 184.42 174.90 13.49
4378 11.2060 178.61 173.17 13.28
4379 11.2080 185.44 171.76 13.34
4380 11.2100 186.96 170.62 13.43
4381 11.2120 213.03 169.68 14.33
4382 11.2140 227.10 168.92 14.92
4383 11.2160 217.44 168.29 14.61
4384 11.2180 183.65 167.77 13.37
4385 11.2200 181.09 167.35 13.24
4386 11.2220 167.38 167.00 12.70
4387 11.2240 195.22 166.72 13.86
4388 11.2260 166.17 166.50 12.86
4389 11.2280 160.73 166.34 12.48
4390 11.2300 153.98 166.23 12.23
4391 11.2320 160.06 166.18 12.47
4392 11.2340 159.10 166.18 12.49
4393 11.2360 167.15 166.23 12.88
4394 11.2380 151.34 166.34 12.11
4395 11.2400 161.47 166.50 12.53
4396 11.2420 158.60 166.72 12.39
4397 11.2440 174.74 166.98 13.09
4398 11.2460 162.29 167.29 12.68
4399 11.2480 155.17 167.63 12.25
4400 11.2500 163.19 168.00 12.55
4401 11.2520 181.65 168.38 13.26
4402 11.2540 167.36 168.76 12.93
4403 11.2560 143.41 169.82 11.90
4404 11.2580 170.99 170.14 12.86
4405 11.2600 163.25 170.41 12.63
4406 11.2620 162.57 170.60 12.56
4407 11.2640 163.11 170.72 12.72
4408 11.2660 166.95 170.77 12.86
4409 11.2680 156.32 170.79 12.34
4410 11.2700 162.73 170.79 12.58
4411 11.2720 170.50 170.80 12.84
4412 11.2740 155.87 170.84 12.42
4413 11.2760 175.99 170.94 13.22
4414 11.2780 168.64 171.13 12.73
4415 11.2800 164.72 171.43 12.70
4416 11.2820 189.63 171.86 13.55
4417 11.2840 155.57 172.47 12.41
4418 11.2860 146.81 173.32 12.03
4419 11.2880 169.11 174.50 12.86
4420 11.2900 185.20 176.14 13.40
4421 11.2920 171.32 178.47 12.87
4422 11.2940 160.89 181.77 12.61
4423 11.2960 179.76 186.45 13.35
4424 11.2980 161.71 192.97 12.50
4425 11.3000 179.99 201.80 13.21
4426 11.3020 188.68 213.34 13.53
4427 11.3040 225.31 227.77 14.91
4428 11.3060 231.39 244.89 15.17
4429 11.3080 243.61 263.91 15.37
4430 11.3100 301.08 284.53 17.09
4431 11.3120 283.54 301.43 16.56
4432 11.3140 309.21 312.39 17.48
4433 11.3160 316.56 314.42 17.73
4434 11.3180 282.87 306.94 16.53
4435 11.3200 272.55 292.20 16.23
4436 11.3220 243.00 273.77 15.29
4437 11.3240 255.64 254.74 15.88
4438 11.3260 234.26 237.14 15.22
4439 11.3280 215.68 222.02 14.49
4440 11.3300 242.02 209.78 15.31
4441 11.3320 186.71 200.35 13.46
4442 11.3340 205.36 193.43 14.25
4443 11.3360 190.12 188.52 13.74
4444 11.3380 172.27 185.16 12.93
4445 11.3400 185.04 182.93 13.41
4446 11.3420 184.50 181.49 13.33
4447 11.3440 175.06 180.61 13.14
4448 11.3460 193.53 180.12 13.87
4449 11.3480 215.93 179.94 14.41
4450 11.3500 196.97 179.99 13.85
4451 11.3520 173.41 180.26 12.93
4452 11.3540 202.01 180.74 14.10
4453 11.3560 184.71 181.42 13.51
4454 11.3580 205.94 182.34 14.15
4455 11.3600 185.63 183.51 13.44
4456 11.3620 188.19 184.99 13.54
4457 11.3640 178.73 186.83 13.26
4458 11.3660 207.67 189.14 14.46
4459 11.3680 175.21 192.03 13.04
4460 11.3700 170.52 195.71 12.93
4461 11.3720 197.28 200.47 13.78
4462 11.3740 182.13 206.75 13.45
4463 11.3760 217.94 215.32 14.70
4464 11.3780 229.67 227.69 14.93
4465 11.3800 220.92 247.06 14.68
4466 11.3820 253.82 280.17 15.70
4467 11.3840 337.56 338.78 18.23
4468 11.3860 437.28 436.99 20.93
4469 11.3880 675.48 577.94 25.72
4470 11.3900 837.11 715.78 28.57
4471 11.3920 748.12 738.63 26.99
4472 11.3940 645.92 622.36 25.30
4473 11.3960 468.54 482.41 21.63
4474 11.3980 389.21 384.25 19.43
4475 11.4000 349.19 330.93 18.49
4476 11.4020 305.39 309.82 17.21
4477 11.4040 296.28 310.52 17.13
4478 11.4060 325.32 329.57 18.04
4479 11.4080 350.42 371.94 18.48
4480 11.4100 385.47 456.32 19.46
4481 11.4120 611.93 629.44 24.38
4482 11.4140 1034.49 978.26 32.18
4483 11.4160 1679.56 1526.13 41.34
4484 11.4180 1814.36 1819.23 42.39
4485 11.4200 1443.14 1369.75 37.73
4486 11.4220 907.30 844.72 29.85
4487 11.4240 625.21 552.18 24.89
4488 11.4260 448.73 407.95 21.12
4489 11.4280 347.01 332.76 18.49
4490 11.4300 301.67 288.94 17.16
4491 11.4320 263.85 261.05 16.01
4492 11.4340 236.77 242.22 15.22
4493 11.4360 202.70 228.97 14.24
4494 11.4380 194.35 219.37 13.74
4495 11.4400 224.65 212.24 14.79
4496 11.4420 195.54 206.84 13.77
4497 11.4440 189.45 202.72 13.72
4498 11.4460 211.19 199.55 14.52
4499 11.4480 191.12 197.13 13.61
4500 11.4500 212.99 195.33 14.40
4501 11.4520 200.43 194.07 13.99
4502 11.4540 207.43 193.32 14.23
4503 11.4560 167.69 193.06 12.95
4504 11.4580 201.33 193.34 14.02
4505 11.4600 188.93 194.16 13.55
4506 11.4620 199.16 195.57 13.92
4507 11.4640 216.03 197.52 14.59
4508 11.4660 177.57 199.96 13.37
4509 11.4680 186.89 202.70 13.46
4510 11.4700 205.76 205.44 14.17
4511 11.4720 195.63 207.73 13.80
4512 11.4740 199.17 209.12 13.96
4513 11.4760 198.83 209.37 14.07
4514 11.4780 221.55 208.70 14.68
4515 11.4800 205.20 207.58 14.10
4516 11.4820 200.91 206.50 13.97
4517 11.4840 198.67 205.82 13.95
4518 11.4860 215.89 205.75 14.64
4519 11.4880 201.63 206.43 14.02
4520 11.4900 200.72 207.93 13.97
4521 11.4920 211.37 210.32 14.34
4522 11.4940 228.89 213.65 14.95
4523 11.4960 243.45 218.05 15.58
4524 11.4980 253.89 223.68 15.69
4525 11.5000 256.52 230.86 15.83
4526 11.5020 267.73 240.01 16.13
4527 11.5040 299.77 251.79 17.15
4528 11.5060 252.28 267.18 15.85
4529 11.5080 275.04 287.67 16.38
4530 11.5100 309.11 315.66 17.29
4531 11.5120 335.78 355.48 18.09
4532 11.5140 379.25 416.00 19.24
4533 11.5160 545.13 516.33 23.31
4534 11.5180 624.53 692.92 24.73
4535 11.5200 931.40 998.26 30.04
4536 11.5220 1283.63 1467.22 35.56
4537 11.5240 1799.13 1998.07 42.28
4538 11.5260 2188.40 2207.76 47.08
4539 11.5280 1960.13 1861.84 44.09
4540 11.5300 1348.30 1343.89 36.46
4541 11.5320 928.74 954.80 30.11
4542 11.5340 649.77 721.52 25.33
4543 11.5360 518.21 592.86 22.78
4544 11.5380 469.19 520.68 21.33
4545 11.5400 414.77 477.18 20.08
4546 11.5420 417.66 450.68 20.15
4547 11.5440 376.96 437.76 19.20
4548 11.5460 409.70 437.39 20.28
4549 11.5480 369.36 447.11 19.05
4550 11.5500 419.37 458.65 20.23
4551 11.5520 404.63 456.25 19.94
4552 11.5540 373.41 430.53 19.10
4553 11.5560 351.84 392.11 18.74
4554 11.5580 310.64 355.51 17.37
4555 11.5600 278.24 326.79 16.44
4556 11.5620 275.65 306.25 16.37
4557 11.5640 256.81 292.12 15.81
4558 11.5660 235.42 282.29 15.33
4559 11.5680 239.73 274.95 15.30
4560 11.5700 231.74 268.92 14.97
4561 11.5720 217.35 263.39 14.57
4562 11.5740 220.88 257.89 14.70
4563 11.5760 243.24 252.18 15.57
4564 11.5780 210.83 246.19 14.33
4565 11.5800 236.17 240.03 15.12
4566 11.5820 241.50 233.89 15.31
4567 11.5840 272.03 227.28 16.37
4568 11.5860 231.75 221.70 15.20
4569 11.5880 260.41 216.58 15.93
4570 11.5900 247.62 212.00 15.54
4571 11.5920 254.60 208.01 15.76
4572 11.5940 225.91 204.61 14.82
4573 11.5960 238.03 201.82 15.40
4574 11.5980 203.71 199.61 14.13
4575 11.6000 221.76 197.97 14.66
4576 11.6020 221.67 196.88 14.74
4577 11.6040 213.16 196.35 14.39
4578 11.6060 198.07 196.37 14.07
4579 11.6080 209.15 196.97 14.30
4580 11.6100 189.15 198.18 13.57
4581 11.6120 224.16 200.05 14.74
4582 11.6140 218.03 202.65 14.58
4583 11.6160 223.81 205.87 14.91
4584 11.6180 230.46 210.15 15.06
4585 11.6200 240.08 215.38 15.25
4586 11.6220 231.74 221.59 15.07
4587 11.6240 268.66 228.80 16.19
4588 11.6260 245.50 236.99 15.65
4589 11.6280 275.22 246.08 16.36
4590 11.6300 281.01 255.93 16.53
4591 11.6320 261.22 266.32 15.96
4592 11.6340 311.03 276.93 17.46
4593 11.6360 317.73 287.37 17.82
4594 11.6380 319.94 297.10 17.67
4595 11.6400 311.65 305.50 17.40
4596 11.6420 357.32 311.93 18.71
4597 11.6440 298.11 315.78 17.03
4598 11.6460 361.01 316.66 19.01
4599 11.6480 367.45 314.44 18.98
4600 11.6500 347.81 309.36 18.34
4601 11.6520 366.74 301.89 18.95
4602 11.6540 336.76 292.67 18.18
4603 11.6560 358.97 282.35 18.90
4604 11.6580 296.49 271.51 16.98
4605 11.6600 293.01 260.63 16.93
4606 11.6620 306.06 250.09 17.22
4607 11.6640 291.76 240.15 16.82
4608 11.6660 254.38 231.01 15.98
4609 11.6680 251.39 222.79 15.67
4610 11.6700 240.97 215.52 15.23
4611 11.6720 249.95 209.20 15.63
4612 11.6740 241.95 203.82 15.33
4613 11.6760 245.24 199.29 15.61
4614 11.6780 216.71 195.52 14.54
4615 11.6800 260.65 192.44 15.86
4616 11.6820 246.65 189.92 15.52
4617 11.6840 212.29 187.89 14.38
4618 11.6860 253.79 186.26 15.88
4619 11.6880 213.50 184.95 14.40
4620 11.6900 247.90 183.89 15.53
4621 11.6920 228.10 183.03 14.91
4622 11.6940 240.70 182.33 15.29
4623 11.6960 237.65 181.75 15.41
4624 11.6980 229.61 181.28 14.97
4625 11.7000 253.22 180.88 15.63
4626 11.7020 242.34 180.54 15.39
4627 11.7040 210.71 180.26 14.38
4628 11.7060 236.40 205.52 15.32
4629 11.7080 253.51 206.03 15.72
4630 11.7100 241.36 206.60 15.29
4631 11.7120 235.30 207.23 15.16
4632 11.7140 253.08 207.93 15.67
4633 11.7160 257.14 208.69 16.06
4634 11.7180 243.89 209.51 15.40
4635 11.7200 247.96 210.40 15.56
4636 11.7220 244.32 211.36 15.44
4637 11.7240 277.78 212.40 16.52
4638 11.7260 252.25 213.50 15.85
4639 11.7280 236.85 214.70 15.19
4640 11.7300 269.45 215.97 16.16
4641 11.7320 267.90 217.34 16.15
4642 11.7340 273.58 218.81 16.34
4643 11.7360 271.46 220.40 16.45
4644 11.7380 268.39 222.10 16.12
4645 11.7400 265.58 223.95 16.03
4646 11.7420 280.72 225.96 16.53
4647 11.7440 290.96 227.51 16.85
4648 11.7460 280.65 229.97 16.74
4649 11.7480 268.43 232.72 16.18
4650 11.7500 268.05 235.84 16.16
4651 11.7520 267.82 239.42 16.12
4652 11.7540 298.18 243.58 17.04
4653 11.7560 307.11 248.45 17.48
4654 11.7580 281.66 254.20 16.52
4655 11.7600 313.74 260.98 17.46
4656 11.7620 310.53 268.94 17.40
4657 11.7640 284.94 278.22 16.71
4658 11.7660 343.87 288.89 18.54
4659 11.7680 317.72 300.95 17.58
4660 11.7700 355.23 314.32 18.56
4661 11.7720 375.82 328.76 19.16
4662 11.7740 336.26 343.89 18.15
4663 11.7760 342.65 359.12 18.53
4664 11.7780 411.70 373.66 20.03
4665 11.7800 406.66 386.53 19.90
4666 11.7820 364.49 396.84 18.84
4667 11.7840 427.93 404.03 20.48
4668 11.7860 466.56 408.14 21.59
4669 11.7880 453.99 409.85 20.98
4670 11.7900 476.06 410.24 21.64
4671 11.7920 477.33 410.48 21.59
4672 11.7940 498.29 411.61 22.04
4673 11.7960 516.68 414.48 22.79
4674 11.7980 493.34 419.86 21.92
4675 11.8000 519.00 428.34 22.43
4676 11.8020 519.82 440.46 22.53
4677 11.8040 493.28 456.82 21.99
4678 11.8060 558.23 478.02 23.67
4679 11.8080 560.46 504.88 23.34
4680 11.8100 556.09 538.46 23.37
4681 11.8120 595.93 580.20 24.17
4682 11.8140 681.95 632.16 25.79
4683 11.8160 722.02 697.35 26.97
4684 11.8180 809.63 780.09 28.07
4685 11.8200 900.79 886.94 29.68
4686 11.8220 1042.10 1028.04 32.00
4687 11.8240 1227.16 1219.88 34.86
4688 11.8260 1456.80 1490.62 38.40
4689 11.8280 1892.13 1890.64 43.35
4690 11.8300 2433.30 2519.40 49.36
4691 11.8320 3386.63 3587.68 58.44
4692 11.8340 5481.35 5604.70 75.14
4693 11.8360 9622.82 9879.78 103.26
4694 11.8380 18184.20 18852.80 146.01
4695 11.8400 26516.30 29135.50 183.66
4696 11.8420 22301.60 23210.50 165.26
4697 11.8440 12985.40 12201.70 120.71
4698 11.8460 7226.75 6810.79 88.11
4699 11.8480 4647.92 4404.03 69.00
4700 11.8500 3438.72 3228.96 58.89
4701 11.8520 2815.55 2615.94 53.09
4702 11.8540 2488.45 2301.06 49.90
4703 11.8560 2356.88 2172.33 49.15
4704 11.8580 2311.19 2186.62 48.00
4705 11.8600 2469.32 2341.11 49.57
4706 11.8620 2828.11 2671.80 53.22
4707 11.8640 3258.49 3275.64 57.25
4708 11.8660 4268.75 4388.90 66.58
4709 11.8680 6066.81 6565.49 79.26
4710 11.8700 9931.29 10886.90 103.43
4711 11.8720 17637.20 18257.80 144.22
4712 11.8740 24438.20 24765.10 175.13
4713 11.8760 21270.70 21185.10 162.73
4714 11.8780 14236.10 12932.40 126.61
4715 11.8800 8180.53 7542.18 93.22
4716 11.8820 4797.76 4762.74 70.07
4717 11.8840 3100.99 3323.45 55.79
4718 11.8860 2219.23 2497.19 47.66
4719 11.8880 1765.06 1965.28 41.94
4720 11.8900 1383.48 1594.20 36.84
4721 11.8920 1172.46 1322.61 33.99
4722 11.8940 938.00 1118.18 30.32
4723 11.8960 905.13 961.24 30.15
4724 11.8980 750.28 839.22 26.99
4725 11.9000 723.50 743.38 26.52
4726 11.9020 647.04 667.24 25.16
4727 11.9040 617.15 606.43 24.50
4728 11.9060 569.19 556.66 23.82
4729 11.9080 556.48 515.56 23.27
4730 11.9100 513.28 481.20 22.29
4731 11.9120 504.75 452.11 22.19
4732 11.9140 494.88 427.24 21.87
4733 11.9160 449.05 405.77 21.19
4734 11.9180 460.16 387.09 21.14
4735 11.9200 399.56 370.74 19.67
4736 11.9220 399.80 356.31 19.75
4737 11.9240 387.17 343.54 19.37
4738 11.9260 359.82 332.15 18.99
4739 11.9280 376.40 321.96 19.14
4740 11.9300 389.07 312.80 19.45
4741 11.9320 365.45 304.53 18.87
4742 11.9340 383.11 299.14 19.31
4743 11.9360 354.92 292.35 18.80
4744 11.9380 366.37 286.16 18.87
4745 11.9400 340.45 280.50 18.12
4746 11.9420 349.38 275.31 18.48
4747 11.9440 334.07 270.55 18.00
4748 11.9460 318.41 266.15 17.85
4749 11.9480 329.94 262.09 17.87
4750 11.9500 341.91 258.34 18.23
4751 11.9520 324.87 254.87 17.78
4752 11.9540 310.36 251.64 17.32
4753 11.9560 324.18 248.64 17.95
4754 11.9580 301.13 245.85 17.06
4755 11.9600 288.49 243.25 16.74
4756 11.9620 265.50 240.82 16.03
4757 11.9640 289.08 238.56 16.75
4758 11.9660 294.73 236.44 17.22
4759 11.9680 259.27 234.46 15.88
4760 11.9700 273.55 232.60 16.27
4761 11.9720 292.40 230.87 16.93
4762 11.9740 287.27 229.25 16.73
4763 11.9760 285.52 227.74 16.89
4764 11.9780 276.73 213.63 16.43
4765 11.9800 282.62 212.67 16.62
4766 11.9820 272.19 211.80 16.25
4767 11.9840 285.99 211.00 16.68
4768 11.9860 306.12 210.28 17.55
4769 11.9880 284.54 209.65 16.62
4770 11.9900 238.45 209.27 15.25
4771 11.9920 248.20 208.83 15.54
4772 11.9940 257.52 208.51 15.83
4773 11.9960 277.80 208.35 16.67
4774 11.9980 241.18 208.38 15.27
4775 12.0000 233.66 208.70 15.08
4776 12.0020 252.96 209.44 15.71
4777 12.0040 265.50 210.87 16.08
4778 12.0060 254.90 213.50 15.97
4779 12.0080 265.43 218.49 16.08
4780 12.0100 280.87 228.66 16.51
4781 12.0120 300.98 251.06 17.16
4782 12.0140 331.63 295.47 17.90
4783 12.0160 334.23 330.62 18.38
4784 12.0180 302.64 290.09 17.16
4785 12.0200 296.72 245.88 16.97
4786 12.0220 259.07 224.87 15.84
4787 12.0240 274.07 214.94 16.40
4788 12.0260 240.78 209.65 15.48
4789 12.0280 255.92 206.51 15.79
4790 12.0300 239.29 204.47 15.26
4791 12.0320 244.31 203.06 15.47
4792 12.0340 245.62 202.03 15.45
4793 12.0360 245.72 201.25 15.64
4794 12.0380 239.28 200.65 15.29
4795 12.0400 252.20 200.16 15.64
4796 12.0420 228.65 199.77 14.97
4797 12.0440 238.43 199.45 15.19
4798 12.0460 262.70 189.39 16.28
4799 12.0480 268.92 189.39 16.15
4800 12.0500 246.33 189.43 15.48
4801 12.0520 249.35 189.48 15.60
4802 12.0540 246.75 189.56 15.51
4803 12.0560 225.01 189.65 14.95
4804 12.0580 233.18 189.76 15.01
4805 12.0600 243.46 189.89 15.39
4806 12.0620 230.19 190.03 14.94
4807 12.0640 255.78 190.18 15.81
4808 12.0660 245.99 190.35 15.72
4809 12.0680 247.09 190.52 15.52
4810 12.0700 255.73 190.71 15.70
4811 12.0720 255.16 190.91 15.85
4812 12.0740 244.82 191.12 15.46
4813 12.0760 258.94 191.34 16.03
4814 12.0780 241.23 191.57 15.30
4815 12.0800 260.02 191.81 15.85
4816 12.0820 264.86 192.03 16.14
4817 12.0840 240.73 192.29 15.26
4818 12.0860 223.06 192.57 14.98
4819 12.0880 258.27 192.86 15.83
4820 12.0900 244.89 193.16 15.40
4821 12.0920 233.35 193.48 15.08
4822 12.0940 244.11 193.81 15.45
4823 12.0960 218.12 194.15 14.69
4824 12.0980 256.67 194.51 15.76
4825 12.1000 265.71 194.89 15.99
4826 12.1020 253.18 195.28 15.71
4827 12.1040 246.76 195.69 15.43
4828 12.1060 237.32 196.12 15.39
4829 12.1080 248.56 196.57 15.51
4830 12.1100 238.48 197.05 15.11
4831 12.1120 213.21 197.54 14.42
4832 12.1140 237.22 198.06 15.07
4833 12.1160 204.57 198.60 14.31
4834 12.1180 224.41 199.17 14.65
4835 12.1200 241.02 199.77 15.29
4836 12.1220 226.00 200.40 14.82
4837 12.1240 223.41 201.07 14.74
4838 12.1260 242.28 201.76 15.47
4839 12.1280 255.03 202.50 15.71
4840 12.1300 243.87 203.28 15.27
4841 12.1320 241.34 204.10 15.34
4842 12.1340 226.19 204.97 14.79
4843 12.1360 242.91 207.36 15.54
4844 12.1380 231.97 208.35 14.91
4845 12.1400 234.66 209.41 15.01
4846 12.1420 231.08 210.53 15.05
4847 12.1440 252.24 211.72 15.56
4848 12.1460 240.79 212.99 15.53
4849 12.1480 258.14 214.35 15.75
4850 12.1500 301.56 215.80 17.02
4851 12.1520 265.36 217.35 16.06
4852 12.1540 269.79 219.02 16.14
4853 12.1560 233.65 220.75 15.23
4854 12.1580 250.44 222.69 15.50
4855 12.1600 282.96 224.78 16.51
4856 12.1620 246.43 227.05 15.41
4857 12.1640 243.55 229.52 15.37
4858 12.1660 277.80 232.22 16.65
4859 12.1680 274.21 235.19 16.22
4860 12.1700 272.19 238.46 16.22
4861 12.1720 296.34 242.14 17.11
4862 12.1740 335.25 246.27 17.96
4863 12.1760 325.20 250.97 18.13
4864 12.1780 325.38 256.34 17.68
4865 12.1800 302.76 262.56 17.19
4866 12.1820 295.86 269.79 16.93
4867 12.1840 311.53 278.26 17.47
4868 12.1860 310.08 288.24 17.66
4869 12.1880 304.51 300.01 17.15
4870 12.1900 317.09 313.85 17.56
4871 12.1920 324.13 330.10 17.78
4872 12.1940 343.10 349.15 18.23
4873 12.1960 347.58 371.40 18.67
4874 12.1980 360.62 397.38 18.68
4875 12.2000 417.98 427.75 20.12
4876 12.2020 404.26 463.40 19.89
4877 12.2040 464.25 505.31 21.18
4878 12.2060 531.19 554.30 23.10
4879 12.2080 535.73 610.27 22.70
4880 12.2100 577.46 671.14 23.74
4881 12.2120 647.66 731.27 25.11
4882 12.2140 723.11 782.51 26.54
4883 12.2160 781.46 823.04 28.04
4884 12.2180 822.47 861.28 28.19
4885 12.2200 856.14 908.92 28.99
4886 12.2220 876.48 978.03 29.20
4887 12.2240 968.60 1085.62 30.85
4888 12.2260 1176.08 1261.19 34.42
4889 12.2280 1488.22 1552.76 38.29
4890 12.2300 1969.84 2029.20 44.15
4891 12.2320 2857.67 2767.91 53.77
4892 12.2340 4544.13 3820.21 67.93
4893 12.2360 6428.43 5148.34 83.09
4894 12.2380 7751.11 6501.90 90.45
4895 12.2400 7797.21 7321.44 90.91
4896 12.2420 7038.56 7073.62 85.80
4897 12.2440 5545.94 5917.97 75.60
4898 12.2460 4356.03 4491.55 67.60
4899 12.2480 3410.92 3235.34 58.65
4900 12.2500 2570.04 2289.99 50.85
4901 12.2520 1943.47 1643.37 43.84
4902 12.2540 1552.10 1227.89 39.13
4903 12.2560 1242.70 966.39 35.40
4904 12.2580 1016.33 798.40 31.49
4905 12.2600 944.86 684.46 30.47
4906 12.2620 779.59 602.22 27.77
4907 12.2640 689.60 539.84 25.97
4908 12.2660 605.09 490.93 24.70
4909 12.2680 556.52 451.68 23.36
4910 12.2700 469.89 419.71 21.38
4911 12.2720 479.09 393.32 21.77
4912 12.2740 438.45 371.30 20.57
4913 12.2760 399.83 352.76 20.04
4914 12.2780 393.46 337.00 19.50
4915 12.2800 386.96 323.52 19.40
4916 12.2820 351.46 311.89 18.49
4917 12.2840 347.19 301.82 18.38
4918 12.2860 336.33 293.03 18.33
4919 12.2880 320.64 285.34 17.67
4920 12.2900 312.73 278.58 17.39
4921 12.2920 319.35 272.61 17.75
4922 12.2940 276.92 267.33 16.33
4923 12.2960 271.56 262.65 16.45
4924 12.2980 300.83 258.51 17.07
4925 12.3000 291.89 254.82 16.77
4926 12.3020 281.86 251.56 16.65
4927 12.3040 247.73 248.68 15.47
4928 12.3060 284.33 246.10 16.89
4929 12.3080 257.82 243.90 15.79
4930 12.3100 243.74 241.99 15.41
4931 12.3120 241.65 240.38 15.36
4932 12.3140 248.46 239.07 15.53
4933 12.3160 274.18 238.06 16.53
4934 12.3180 247.62 237.38 15.48
4935 12.3200 252.86 237.04 15.68
4936 12.3220 258.36 237.13 15.88
4937 12.3240 295.84 237.77 16.94
4938 12.3260 263.68 239.18 16.23
4939 12.3280 264.17 241.74 15.99
4940 12.3300 289.57 246.03 16.72
4941 12.3320 276.70 252.79 16.55
4942 12.3340 333.15 262.85 17.96
4943 12.3360 327.71 276.78 18.09
4944 12.3380 328.21 294.49 17.85
4945 12.3400 402.60 314.47 19.82
4946 12.3420 351.37 332.70 18.56
4947 12.3440 427.09 342.83 20.37
4948 12.3460 369.12 340.20 19.15
4949 12.3480 365.14 327.07 18.73
4950 12.3500 327.38 309.91 17.81
4951 12.3520 316.16 293.85 17.62
4952 12.3540 317.39 281.19 17.47
4953 12.3560 288.37 272.43 16.94
4954 12.3580 298.93 267.14 16.99
4955 12.3600 260.55 264.51 15.85
4956 12.3620 272.74 263.71 16.36
4957 12.3640 279.19 264.03 16.47
4958 12.3660 288.77 264.98 16.93
4959 12.3680 275.03 266.22 16.23
4960 12.3700 277.48 267.52 16.39
4961 12.3720 293.50 268.73 16.97
4962 12.3740 284.75 269.71 16.54
4963 12.3760 315.87 270.38 17.70
4964 12.3780 271.55 270.66 16.12
4965 12.3800 279.39 270.52 16.39
4966 12.3820 285.13 269.96 16.64
4967 12.3840 284.82 268.99 16.61
4968 12.3860 272.79 267.68 16.40
4969 12.3880 262.86 266.08 15.86
4970 12.3900 279.42 264.29 16.43
4971 12.3920 255.66 262.37 15.77
4972 12.3940 272.96 260.42 16.25
4973 12.3960 255.11 258.52 15.91
4974 12.3980 297.43 256.73 16.86
4975 12.4000 273.06 255.14 16.25
4976 12.4020 266.71 253.84 16.13
4977 12.4040 258.98 252.88 15.77
4978 12.4060 280.03 252.37 16.69
4979 12.4080 280.54 252.38 16.39
4980 12.4100 257.54 253.03 15.77
4981 12.4120 290.85 254.42 16.84
4982 12.4140 286.70 256.66 16.61
4983 12.4160 265.81 259.86 16.24
4984 12.4180 273.90 264.11 16.19
4985 12.4200 286.90 269.48 16.58
4986 12.4220 295.47 276.01 16.96
4987 12.4240 308.14 283.66 17.29
4988 12.4260 340.05 292.36 18.31
4989 12.4280 325.24 301.90 17.58
4990 12.4300 314.78 311.98 17.42
4991 12.4320 360.33 322.17 18.76
4992 12.4340 344.08 331.91 18.27
4993 12.4360 385.33 340.56 19.58
4994 12.4380 389.39 347.56 19.16
4995 12.4400 379.28 352.66 19.07
4996 12.4420 395.30 355.99 19.60
4997 12.4440 406.60 358.02 19.89
4998 12.4460 406.04 359.40 19.99
4999 12.4480 379.85 360.92 19.02
5000 12.4500 389.67 363.24 19.40
5001 12.4520 421.89 367.07 20.27
5002 12.4540 415.88 373.07 20.14
5003 12.4560 420.53 381.93 20.38
5004 12.4580 435.33 394.37 20.35
5005 12.4600 441.51 411.16 20.67
5006 12.4620 486.90 433.34 21.76
5007 12.4640 515.44 462.24 22.49
5008 12.4660 591.12 500.04 24.24
5009 12.4680 640.62 550.41 24.75
5010 12.4700 712.83 619.84 26.38
5011 12.4720 814.35 719.92 28.29
5012 12.4740 1020.69 870.02 31.70
5013 12.4760 1164.16 1098.94 34.17
5014 12.4780 1440.15 1443.86 37.30
5015 12.4800 1863.44 1942.72 42.87
5016 12.4820 2330.00 2620.33 48.03
5017 12.4840 3154.01 3464.40 56.58
5018 12.4860 4036.08 4384.42 64.55
5019 12.4880 4982.31 5163.79 70.94
5020 12.4900 5339.06 5485.04 74.28
5021 12.4920 5295.57 5173.78 73.79
5022 12.4940 4776.73 4396.43 70.27
5023 12.4960 3701.83 3473.52 61.81
5024 12.4980 2646.10 2625.92 51.02
5025 12.5000 1965.46 1945.04 44.10
5026 12.5020 1310.29 1443.18 35.87
5027 12.5040 996.97 1095.99 31.50
5028 12.5060 711.20 865.19 26.63
5029 12.5080 620.30 713.27 24.43
5030 12.5100 484.48 611.28 21.84
5031 12.5120 463.69 539.66 21.19
5032 12.5140 381.40 486.63 19.34
5033 12.5160 385.84 445.64 19.59
5034 12.5180 349.11 412.85 18.33
5035 12.5200 324.25 386.08 17.82
5036 12.5220 305.41 363.86 17.24
5037 12.5240 311.01 345.22 17.58
5038 12.5260 260.12 329.44 16.06
5039 12.5280 261.84 315.92 15.92
5040 12.5300 255.63 304.32 15.81
5041 12.5320 243.28 294.27 15.41
5042 12.5340 236.41 285.50 15.32
5043 12.5360 279.14 277.82 16.65
5044 12.5380 242.25 271.04 15.32
5045 12.5400 229.43 265.04 15.01
5046 12.5420 215.20 259.70 14.51
5047 12.5440 217.44 254.92 14.64
5048 12.5460 248.34 250.64 15.73
5049 12.5480 217.27 246.79 14.54
5050 12.5500 226.74 241.25 14.97
5051 12.5520 218.63 238.12 14.55
5052 12.5540 196.07 235.28 13.96
5053 12.5560 184.70 232.69 13.60
5054 12.5580 213.27 230.33 14.44
5055 12.5600 221.99 228.18 14.77
5056 12.5620 213.81 226.20 14.48
5057 12.5640 230.55 224.38 15.14
5058 12.5660 232.26 222.71 15.24
5059 12.5680 222.17 221.17 14.76
5060 12.5700 217.77 219.75 14.67
5061 12.5720 216.62 218.44 14.56
5062 12.5740 218.74 217.23 14.70
5063 12.5760 211.47 216.10 14.60
5064 12.5780 197.17 215.07 13.82
5065 12.5800 212.27 214.11 14.51
5066 12.5820 224.74 213.22 14.86
5067 12.5840 184.30 212.40 13.53
5068 12.5860 206.33 211.64 14.39
5069 12.5880 194.47 210.95 13.72
5070 12.5900 200.27 210.30 14.09
5071 12.5920 190.76 209.72 13.65
5072 12.5940 203.88 209.19 14.22
5073 12.5960 211.78 208.71 14.55
5074 12.5980 197.58 208.29 13.87
5075 12.6000 184.27 207.94 13.40
5076 12.6020 213.70 207.66 14.52
5077 12.6040 201.91 207.46 14.09
5078 12.6060 214.47 207.38 14.68
5079 12.6080 188.95 207.44 13.54
5080 12.6100 231.99 207.67 15.10
5081 12.6120 200.36 208.10 14.02
5082 12.6140 169.74 208.76 12.87
5083 12.6160 205.60 209.63 14.41
5084 12.6180 233.16 210.69 14.99
5085 12.6200 260.49 211.83 15.98
5086 12.6220 226.21 212.88 14.83
5087 12.6240 204.39 213.62 14.20
5088 12.6260 231.51 213.87 15.17
5089 12.6280 233.06 213.67 15.01
5090 12.6300 217.26 213.23 14.56
5091 12.6320 206.17 212.88 14.21
5092 12.6340 225.96 212.90 14.87
5093 12.6360 230.08 213.57 15.14
5094 12.6380 186.84 215.14 13.46
5095 12.6400 234.99 217.93 15.04
5096 12.6420 223.16 222.28 14.78
5097 12.6440 215.84 228.50 14.50
5098 12.6460 208.53 236.85 14.45
5099 12.6480 235.82 247.42 15.10
5100 12.6500 238.91 259.96 15.21
5101 12.6520 270.56 273.79 16.28
5102 12.6540 320.62 287.48 17.67
5103 12.6560 352.80 298.73 18.76
5104 12.6580 313.97 304.79 17.42
5105 12.6600 325.34 303.71 17.75
5106 12.6620 319.43 295.79 17.61
5107 12.6640 304.49 283.34 17.25
5108 12.6660 286.02 269.09 16.91
5109 12.6680 258.33 255.11 15.79
5110 12.6700 222.01 242.62 14.65
5111 12.6720 208.53 232.15 14.32
5112 12.6740 221.93 223.82 14.72
5113 12.6760 236.77 217.47 15.36
5114 12.6780 231.80 212.78 14.96
5115 12.6800 182.98 209.39 13.28
5116 12.6820 177.31 206.96 13.19
5117 12.6840 209.66 205.20 14.28
5118 12.6860 204.12 203.91 14.32
5119 12.6880 189.80 202.93 13.52
5120 12.6900 185.10 202.17 13.39
5121 12.6920 169.95 201.57 12.85
5122 12.6940 183.81 201.08 13.40
5123 12.6960 177.00 200.69 13.21
5124 12.6980 198.56 200.38 13.82
5125 12.7000 180.94 200.15 13.23
5126 12.7020 168.71 199.95 12.84
5127 12.7040 170.10 199.86 12.86
5128 12.7060 188.38 199.84 13.70
5129 12.7080 200.21 199.91 13.89
5130 12.7100 190.43 200.08 13.57
5131 12.7120 179.63 200.40 13.25
5132 12.7140 183.28 200.93 13.36
5133 12.7160 197.52 201.80 14.07
5134 12.7180 173.52 203.19 12.94
5135 12.7200 188.29 205.38 13.51
5136 12.7220 187.10 208.67 13.45
5137 12.7240 189.22 213.37 13.57
5138 12.7260 197.39 219.58 14.07
5139 12.7280 193.47 227.03 13.62
5140 12.7300 224.18 234.71 14.72
5141 12.7320 231.29 240.51 15.07
5142 12.7340 257.88 241.88 15.82
5143 12.7360 226.72 238.04 15.05
5144 12.7380 236.64 230.88 15.10
5145 12.7400 240.35 222.98 15.24
5146 12.7420 172.83 215.92 12.94
5147 12.7440 196.47 210.31 13.85
5148 12.7460 183.71 206.20 13.53
5149 12.7480 191.87 203.37 13.60
5150 12.7500 188.70 201.49 13.54
5151 12.7520 198.98 200.27 13.97
5152 12.7540 199.50 199.48 13.92
5153 12.7560 195.21 198.95 13.93
5154 12.7580 180.81 198.58 13.21
5155 12.7600 223.10 198.32 14.72
5156 12.7620 182.95 198.12 13.35
5157 12.7640 192.85 197.97 13.66
5158 12.7660 180.99 197.85 13.48
5159 12.7680 205.57 197.97 14.09
5160 12.7700 206.94 197.87 14.17
5161 12.7720 177.35 197.76 13.18
5162 12.7740 184.66 197.63 13.39
5163 12.7760 202.40 197.48 14.19
5164 12.7780 181.03 197.31 13.20
5165 12.7800 179.43 197.12 13.20
5166 12.7820 180.40 196.93 13.29
5167 12.7840 169.05 196.73 12.82
5168 12.7860 188.36 196.52 13.77
5169 12.7880 195.02 196.33 13.74
5170 12.7900 191.99 196.14 13.66
5171 12.7920 188.32 195.96 13.59
5172 12.7940 180.27 195.80 13.27
5173 12.7960 165.95 195.65 12.84
5174 12.7980 181.73 195.51 13.22
5175 12.8000 171.61 195.38 12.90
5176 12.8020 168.16 195.28 12.84
5177 12.8040 165.70 195.18 12.69
5178 12.8060 195.09 195.10 14.00
5179 12.8080 179.57 195.02 13.19
5180 12.8100 169.89 194.96 12.81
5181 12.8120 161.45 194.91 12.59
5182 12.8140 157.49 194.86 12.38
5183 12.8160 186.55 194.82 13.65
5184 12.8180 165.31 194.79 12.60
5185 12.8200 180.77 194.76 13.26
5186 12.8220 162.89 194.73 12.61
5187 12.8240 156.91 194.71 12.33
5188 12.8260 157.46 194.69 12.50
5189 12.8280 170.66 194.67 12.82
5190 12.8300 160.06 194.66 12.44
5191 12.8320 156.10 194.65 12.34
5192 12.8340 165.13 194.64 12.68
5193 12.8360 175.56 194.63 13.23
5194 12.8380 170.87 194.63 12.82
5195 12.8400 163.05 194.65 12.52
5196 12.8420 166.72 194.65 12.74
5197 12.8440 167.61 194.65 12.73
5198 12.8460 175.50 193.21 13.25
5199 12.8480 167.21 193.24 12.66
5200 12.8500 161.73 193.27 12.49
5201 12.8520 186.46 193.30 13.49
5202 12.8540 162.99 193.34 12.59
5203 12.8560 154.92 193.38 12.43
5204 12.8580 172.24 193.43 12.86
5205 12.8600 155.23 193.50 12.23
5206 12.8620 159.27 193.57 12.45
5207 12.8640 160.49 193.67 12.49
5208 12.8660 174.69 193.81 13.20
5209 12.8680 177.06 194.00 13.00
5210 12.8700 160.03 194.30 12.39
5211 12.8720 161.38 194.76 12.56
5212 12.8740 161.67 195.46 12.57
5213 12.8760 157.13 196.43 12.52
5214 12.8780 165.84 197.62 12.61
5215 12.8800 194.53 198.76 13.72
5216 12.8820 188.76 199.31 13.54
5217 12.8840 167.40 198.89 12.77
5218 12.8860 184.48 197.86 13.59
5219 12.8880 171.22 196.79 12.80
5220 12.8900 160.74 195.96 12.48
5221 12.8920 171.15 195.41 12.91
5222 12.8940 148.90 195.12 12.08
5223 12.8960 166.87 195.00 12.88
5224 12.8980 177.21 195.01 13.05
5225 12.9000 179.11 195.10 13.12
5226 12.9020 179.06 195.24 13.20
5227 12.9040 164.61 195.40 12.66
5228 12.9060 179.64 195.58 13.38
5229 12.9080 174.07 195.76 12.92
5230 12.9100 181.00 195.91 13.23
5231 12.9120 154.54 196.00 12.26
5232 12.9140 174.88 196.06 13.04
5233 12.9160 165.52 196.07 12.83
5234 12.9180 185.15 196.02 13.29
5235 12.9200 165.41 195.91 12.65
5236 12.9220 170.63 195.76 12.86
5237 12.9240 160.55 195.58 12.53
5238 12.9260 168.32 195.40 12.95
5239 12.9280 157.36 195.22 12.28
5240 12.9300 161.50 195.04 12.51
5241 12.9320 168.85 194.89 12.84
5242 12.9340 176.34 194.75 13.12
5243 12.9360 178.90 194.64 13.37
5244 12.9380 162.25 194.54 12.44
5245 12.9400 166.59 194.48 12.73
5246 12.9420 192.47 194.43 13.69
5247 12.9440 173.55 194.40 13.04
5248 12.9460 173.71 194.39 13.15
5249 12.9480 183.74 194.40 13.32
5250 12.9500 154.15 194.42 12.25
5251 12.9520 178.09 194.45 13.18
5252 12.9540 191.71 194.51 13.73
5253 12.9560 145.95 194.57 12.07
5254 12.9580 145.85 194.66 11.85
5255 12.9600 161.22 194.78 12.47
5256 12.9620 172.71 194.94 12.97
5257 12.9640 188.12 195.16 13.59
5258 12.9660 161.94 195.49 12.71
5259 12.9680 143.48 195.99 11.76
5260 12.9700 185.91 196.73 13.44
5261 12.9720 178.49 197.78 13.21
5262 12.9740 176.78 199.18 13.13
5263 12.9760 190.81 200.86 13.88
5264 12.9780 177.60 202.51 13.04
5265 12.9800 181.84 203.56 13.24
5266 12.9820 189.87 203.45 13.61
5267 12.9840 194.23 202.26 13.83
5268 12.9860 179.29 200.62 13.40
5269 12.9880 197.56 199.07 13.76
5270 12.9900 201.15 197.82 14.02
5271 12.9920 151.53 196.92 12.17
5272 12.9940 177.61 196.32 13.18
5273 12.9960 155.12 195.94 12.40
5274 12.9980 169.27 195.71 12.76
5275 13.0000 169.31 195.58 12.78
5276 13.0020 156.28 195.50 12.36
5277 13.0040 159.80 195.46 12.54
5278 13.0060 152.23 195.39 12.38
5279 13.0080 161.56 195.39 12.40
5280 13.0100 173.87 195.40 12.98
5281 13.0120 188.42 195.41 13.57
5282 13.0140 159.67 195.44 12.52
5283 13.0160 164.29 195.47 12.79
5284 13.0180 162.14 195.51 12.48
5285 13.0200 163.01 195.55 12.52
5286 13.0220 170.11 195.60 12.86
5287 13.0240 174.00 195.65 13.10
5288 13.0260 152.42 195.70 12.30
5289 13.0280 154.67 195.76 12.21
5290 13.0300 165.09 195.83 12.59
5291 13.0320 164.86 195.90 12.71
5292 13.0340 155.94 195.97 12.39
5293 13.0360 151.16 196.05 12.26
5294 13.0380 180.28 196.14 13.13
5295 13.0400 149.56 196.23 12.03
5296 13.0420 159.46 196.32 12.44
5297 13.0440 152.67 196.43 12.22
5298 13.0460 146.63 196.54 12.10
5299 13.0480 168.44 196.66 12.69
5300 13.0500 175.48 196.79 13.03
5301 13.0520 164.83 196.92 12.64
5302 13.0540 183.48 197.07 13.44
5303 13.0560 169.32 197.22 12.97
5304 13.0580 172.22 197.39 12.85
5305 13.0600 161.63 197.57 12.42
5306 13.0620 172.94 197.76 12.99
5307 13.0640 158.01 197.96 12.44
5308 13.0660 187.52 198.18 13.66
5309 13.0680 174.21 198.41 12.91
5310 13.0700 181.80 198.67 13.26
5311 13.0720 193.54 199.27 13.72
5312 13.0740 178.24 199.57 13.24
5313 13.0760 204.91 199.91 14.29
5314 13.0780 180.17 200.27 13.09
5315 13.0800 202.53 200.67 13.95
5316 13.0820 210.21 201.11 14.28
5317 13.0840 183.00 201.61 13.43
5318 13.0860 236.89 202.46 15.34
5319 13.0880 213.82 203.09 14.32
5320 13.0900 226.36 203.82 14.76
5321 13.0920 220.80 204.65 14.70
5322 13.0940 230.42 205.64 14.99
5323 13.0960 208.62 206.80 14.44
5324 13.0980 189.76 208.20 13.44
5325 13.1000 187.89 209.93 13.41
5326 13.1020 160.98 212.12 12.53
5327 13.1040 173.50 214.94 13.07
5328 13.1060 211.67 218.66 14.50
5329 13.1080 184.62 223.58 13.19
5330 13.1100 219.08 230.01 14.53
5331 13.1120 179.30 238.14 13.19
5332 13.1140 223.45 247.87 14.79
5333 13.1160 244.39 258.51 15.48
5334 13.1180 207.03 268.44 14.03
5335 13.1200 230.09 275.65 14.78
5336 13.1220 270.12 279.64 16.25
5337 13.1240 273.27 282.02 16.35
5338 13.1260 281.16 284.79 16.73
5339 13.1280 259.97 289.06 15.72
5340 13.1300 261.02 295.11 15.83
5341 13.1320 284.98 302.74 16.71
5342 13.1340 265.60 311.61 16.15
5343 13.1360 311.90 321.17 17.58
5344 13.1380 292.30 330.88 16.61
5345 13.1400 346.32 340.18 18.23
5346 13.1420 352.07 348.52 18.49
5347 13.1440 350.82 355.38 18.63
5348 13.1460 353.07 360.26 18.62
5349 13.1480 368.74 362.79 18.68
5350 13.1500 349.77 362.76 18.27
5351 13.1520 365.06 360.16 18.81
5352 13.1540 352.74 355.19 18.67
5353 13.1560 338.44 348.20 18.27
5354 13.1580 357.48 339.63 18.34
5355 13.1600 306.29 329.96 17.10
5356 13.1620 319.23 319.62 17.65
5357 13.1640 307.65 309.02 17.44
5358 13.1660 281.57 298.48 16.65
5359 13.1680 291.00 288.25 16.61
5360 13.1700 264.12 278.55 15.94
5361 13.1720 225.33 269.50 14.79
5362 13.1740 236.97 261.24 15.36
5363 13.1760 248.11 253.82 15.60
5364 13.1780 227.18 247.29 14.66
5365 13.1800 237.45 241.64 15.07
5366 13.1820 225.31 236.87 14.85
5367 13.1840 228.22 232.97 15.00
5368 13.1860 233.80 229.94 15.13
5369 13.1880 223.64 227.80 14.55
5370 13.1900 225.93 226.62 14.78
5371 13.1920 223.09 226.58 14.72
5372 13.1940 229.64 228.00 15.03
5373 13.1960 259.78 231.29 15.93
5374 13.1980 249.65 236.98 15.40
5375 13.2000 270.91 245.50 16.13
5376 13.2020 280.19 256.98 16.47
5377 13.2040 286.51 270.82 16.89
5378 13.2060 331.44 285.13 18.03
5379 13.2080 316.70 296.12 17.27
5380 13.2100 322.21 299.43 17.60
5381 13.2120 340.49 293.87 18.22
5382 13.2140 328.50 282.89 18.05
5383 13.2160 274.00 271.15 16.37
5384 13.2180 271.82 261.72 16.00
5385 13.2200 255.54 256.13 15.67
5386 13.2220 206.13 255.17 14.24
5387 13.2240 271.52 259.57 16.43
5388 13.2260 274.96 270.81 16.41
5389 13.2280 290.80 292.20 16.62
5390 13.2300 237.82 331.42 15.25
5391 13.2320 372.88 406.08 19.10
5392 13.2340 515.45 551.82 22.68
5393 13.2360 780.60 791.00 27.71
5394 13.2380 896.11 933.51 29.25
5395 13.2400 698.98 740.86 26.12
5396 13.2420 459.46 510.77 21.26
5397 13.2440 372.20 381.95 19.26
5398 13.2460 282.31 315.44 16.69
5399 13.2480 267.71 278.84 15.94
5400 13.2500 233.69 257.02 15.03
5401 13.2520 230.52 243.09 15.01
5402 13.2540 231.20 233.72 15.20
5403 13.2560 186.61 227.16 13.55
5404 13.2580 208.82 222.43 14.04
5405 13.2600 216.31 218.94 14.47
5406 13.2620 208.56 216.34 14.31
5407 13.2640 215.69 214.39 14.66
5408 13.2660 212.47 212.94 14.51
5409 13.2680 200.43 211.89 13.85
5410 13.2700 164.04 211.18 12.65
5411 13.2720 180.11 210.78 13.31
5412 13.2740 221.88 210.66 14.89
5413 13.2760 205.65 210.82 14.28
5414 13.2780 193.61 211.29 13.52
5415 13.2800 203.89 212.12 14.10
5416 13.2820 209.96 213.35 14.35
5417 13.2840 198.55 215.12 14.07
5418 13.2860 190.13 217.58 13.69
5419 13.2880 233.05 221.01 14.88
5420 13.2900 199.57 225.83 13.95
5421 13.2920 236.48 232.80 15.22
5422 13.2940 237.75 243.37 15.45
5423 13.2960 232.55 260.54 15.16
5424 13.2980 250.39 290.19 15.36
5425 13.3000 332.30 341.87 17.92
5426 13.3020 372.04 425.72 19.10
5427 13.3040 549.89 536.04 23.47
5428 13.3060 670.20 610.28 25.78
5429 13.3080 601.49 566.79 24.02
5430 13.3100 481.00 455.77 21.69
5431 13.3120 335.08 361.36 18.08
5432 13.3140 272.07 301.01 16.50
5433 13.3160 273.34 265.91 16.46
5434 13.3180 240.49 245.67 15.12
5435 13.3200 224.18 233.33 14.71
5436 13.3220 223.57 225.20 14.76
5437 13.3240 192.56 219.51 13.90
5438 13.3260 207.56 215.34 14.27
5439 13.3280 221.08 212.21 14.52
5440 13.3300 187.16 209.79 13.50
5441 13.3320 206.05 207.90 14.18
5442 13.3340 211.30 213.21 14.52
5443 13.3360 210.74 212.16 14.46
5444 13.3380 182.32 211.35 13.13
5445 13.3400 192.61 210.73 13.65
5446 13.3420 203.38 210.26 14.14
5447 13.3440 189.94 209.91 13.74
5448 13.3460 154.52 209.69 12.42
5449 13.3480 202.03 209.58 13.86
5450 13.3500 191.70 209.59 13.66
5451 13.3520 198.38 209.71 13.93
5452 13.3540 196.06 209.98 13.96
5453 13.3560 199.97 210.39 14.06
5454 13.3580 201.47 210.98 13.89
5455 13.3600 194.86 211.74 13.72
5456 13.3620 220.09 212.66 14.69
5457 13.3640 217.09 213.71 14.72
5458 13.3660 229.00 214.81 15.10
5459 13.3680 178.69 215.83 13.08
5460 13.3700 218.34 216.59 14.54
5461 13.3720 200.04 222.70 14.03
5462 13.3740 197.28 222.78 14.04
5463 13.3760 176.88 222.59 13.23
5464 13.3780 196.34 222.29 13.67
5465 13.3800 225.32 222.02 14.86
5466 13.3820 178.96 221.89 13.24
5467 13.3840 218.96 221.92 14.78
5468 13.3860 219.04 222.13 14.82
5469 13.3880 207.37 222.54 14.09
5470 13.3900 202.31 223.11 14.05
5471 13.3920 212.13 223.84 14.47
5472 13.3940 199.59 224.71 14.13
5473 13.3960 205.13 225.73 14.30
5474 13.3980 194.24 226.88 13.62
5475 13.4000 231.44 228.18 15.02
5476 13.4020 220.91 229.65 14.76
5477 13.4040 234.66 231.27 15.27
5478 13.4060 237.11 232.76 15.41
5479 13.4080 265.36 234.74 15.98
5480 13.4100 255.20 236.86 15.81
5481 13.4120 242.64 239.10 15.44
5482 13.4140 268.47 241.38 16.35
5483 13.4160 242.08 243.62 15.53
5484 13.4180 260.95 245.82 15.82
5485 13.4200 244.14 248.02 15.37
5486 13.4220 252.87 250.32 15.77
5487 13.4240 260.92 252.86 16.17
5488 13.4260 275.15 255.72 16.57
5489 13.4280 260.73 259.00 15.79
5490 13.4300 297.97 262.76 17.05
5491 13.4320 315.00 267.10 17.60
5492 13.4340 314.62 272.11 17.65
5493 13.4360 305.41 277.90 17.48
5494 13.4380 335.36 284.63 17.89
5495 13.4400 326.83 292.46 17.85
5496 13.4420 323.96 301.60 17.80
5497 13.4440 324.61 312.30 17.98
5498 13.4460 318.07 324.82 17.88
5499 13.4480 314.98 339.46 17.36
5500 13.4500 344.05 356.53 18.34
5501 13.4520 361.50 376.34 18.84
5502 13.4540 390.81 399.24 19.75
5503 13.4560 418.78 425.55 20.41
5504 13.4580 440.41 455.63 20.63
5505 13.4600 471.53 489.89 21.37
5506 13.4620 482.19 528.79 21.70
5507 13.4640 538.38 572.95 23.22
5508 13.4660 602.66 623.26 24.61
5509 13.4680 597.13 681.20 23.98
5510 13.4700 702.66 749.34 26.11
5511 13.4720 786.95 832.17 27.89
5512 13.4740 936.52 937.78 30.58
5513 13.4760 1014.16 1080.57 32.11
5514 13.4780 1197.21 1285.58 33.89
5515 13.4800 1443.62 1599.90 37.73
5516 13.4820 1876.51 2117.65 43.11
5517 13.4840 2771.89 3050.61 53.22
5518 13.4860 4621.47 4889.18 69.67
5519 13.4880 8799.80 8542.93 96.78
5520 13.4900 14208.20 13884.70 126.23
5521 13.4920 14413.90 14834.80 128.61
5522 13.4940 10358.20 9554.94 107.12
5523 13.4960 5820.98 5383.84 78.60
5524 13.4980 3326.71 3264.44 57.63
5525 13.5000 2065.66 2198.99 45.12
5526 13.5020 1515.92 1616.01 38.85
5527 13.5040 1240.58 1267.60 35.29
5528 13.5060 971.76 1045.61 31.25
5529 13.5080 888.63 898.33 29.27
5530 13.5100 768.58 798.11 27.34
5531 13.5120 675.62 729.50 25.80
5532 13.5140 648.35 683.31 25.38
5533 13.5160 615.86 654.09 24.90
5534 13.5180 602.50 638.66 24.03
5535 13.5200 611.79 635.38 24.30
5536 13.5220 629.16 643.86 24.89
5537 13.5240 603.58 664.86 24.47
5538 13.5260 692.93 700.47 26.51
5539 13.5280 743.14 754.46 26.80
5540 13.5300 813.30 833.06 28.14
5541 13.5320 948.42 947.24 30.55
5542 13.5340 1066.01 1114.84 32.58
5543 13.5360 1404.62 1368.25 37.77
5544 13.5380 1812.47 1768.98 41.93
5545 13.5400 2606.79 2445.14 50.77
5546 13.5420 3905.12 3671.41 63.08
5547 13.5440 6287.69 5966.02 81.64
5548 13.5460 9404.63 9784.77 101.98
5549 13.5480 11761.70 13076.50 113.48
5550 13.5500 10440.00 11197.20 106.39
5551 13.5520 7448.86 7000.09 88.79
5552 13.5540 5193.82 4211.19 73.55
5553 13.5560 2959.45 2711.19 55.05
5554 13.5580 1820.08 1894.24 42.31
5555 13.5600 1224.00 1416.07 34.48
5556 13.5620 892.91 1114.24 29.69
5557 13.5640 723.03 912.20 26.79
5558 13.5660 610.12 770.57 24.80
5559 13.5680 544.94 667.52 22.90
5560 13.5700 492.85 590.39 21.85
5561 13.5720 459.38 531.11 21.27
5562 13.5740 415.90 484.60 20.22
5563 13.5760 377.78 447.43 19.44
5564 13.5780 385.48 417.23 19.28
5565 13.5800 340.72 392.38 18.18
5566 13.5820 343.87 371.67 18.32
5567 13.5840 345.49 354.22 18.51
5568 13.5860 327.75 339.40 18.10
5569 13.5880 307.27 326.69 17.18
5570 13.5900 299.71 315.70 16.93
5571 13.5920 291.40 306.14 16.94
5572 13.5940 268.76 297.73 16.30
5573 13.5960 279.01 290.32 16.69
5574 13.5980 270.42 283.72 16.15
5575 13.6000 264.92 277.83 15.94
5576 13.6020 287.87 272.52 16.79
5577 13.6040 263.80 267.71 16.06
5578 13.6060 280.02 263.35 16.82
5579 13.6080 264.95 259.36 16.01
5580 13.6100 244.33 255.72 15.34
5581 13.6120 273.35 252.37 16.32
5582 13.6140 269.41 249.30 16.33
5583 13.6160 255.11 246.49 15.92
5584 13.6180 254.13 243.90 15.66
5585 13.6200 221.57 241.53 14.55
5586 13.6220 240.46 239.37 15.35
5587 13.6240 258.22 237.41 15.89
5588 13.6260 241.56 235.65 15.60
5589 13.6280 238.35 234.08 15.17
5590 13.6300 245.67 232.73 15.38
5591 13.6320 265.48 231.59 16.07
5592 13.6340 246.73 230.68 15.67
5593 13.6360 250.10 230.01 15.78
5594 13.6380 217.18 229.61 14.44
5595 13.6400 256.75 229.49 15.72
5596 13.6420 210.47 229.67 14.34
5597 13.6440 242.37 230.16 15.39
5598 13.6460 263.59 230.96 16.26
5599 13.6480 230.78 232.05 14.93
5600 13.6500 242.40 233.42 15.19
5601 13.6520 231.19 228.65 15.04
5602 13.6540 236.65 230.59 15.26
5603 13.6560 230.71 232.60 15.19
5604 13.6580 247.43 234.56 15.40
5605 13.6600 230.95 236.34 14.83
5606 13.6620 250.78 237.73 15.73
5607 13.6640 255.07 238.58 15.81
5608 13.6660 272.49 238.73 16.52
5609 13.6680 260.43 238.10 15.85
5610 13.6700 245.27 236.71 15.33
5611 13.6720 227.82 234.67 14.91
5612 13.6740 212.67 232.14 14.47
5613 13.6760 197.94 229.30 14.03
5614 13.6780 218.34 226.31 14.48
5615 13.6800 234.02 223.32 14.93
5616 13.6820 236.41 220.41 15.24
5617 13.6840 226.17 217.67 14.94
5618 13.6860 209.42 215.14 14.49
5619 13.6880 219.95 212.86 14.49
5620 13.6900 217.88 210.83 14.49
5621 13.6920 216.74 209.06 14.60
5622 13.6940 208.06 207.52 14.28
5623 13.6960 193.88 206.20 13.94
5624 13.6980 221.18 205.08 14.57
5625 13.7000 207.65 204.39 14.13
5626 13.7020 220.15 203.59 14.70
5627 13.7040 203.02 202.91 14.18
5628 13.7060 224.87 202.33 15.02
5629 13.7080 215.17 201.83 14.36
5630 13.7100 205.57 201.39 14.03
5631 13.7120 223.08 201.00 14.81
5632 13.7140 218.66 200.65 14.61
5633 13.7160 196.84 200.34 14.05
5634 13.7180 183.86 200.05 13.29
5635 13.7200 181.28 199.78 13.20
5636 13.7220 218.39 199.53 14.62
5637 13.7240 201.84 199.30 14.06
5638 13.7260 199.27 199.08 14.16
5639 13.7280 194.43 193.40 13.70
5640 13.7300 205.01 193.33 14.01
5641 13.7320 195.45 193.26 13.83
5642 13.7340 235.68 193.19 15.20
5643 13.7360 208.92 193.13 14.47
5644 13.7380 199.32 193.07 13.79
5645 13.7400 196.73 193.01 13.76
5646 13.7420 186.50 192.96 13.49
5647 13.7440 186.37 192.92 13.54
5648 13.7460 216.07 193.11 14.73
5649 13.7480 202.85 193.07 13.95
5650 13.7500 186.67 193.04 13.38
5651 13.7520 204.61 193.01 14.16
5652 13.7540 216.15 192.98 14.60
5653 13.7560 177.26 192.96 13.32
5654 13.7580 206.94 192.94 14.07
5655 13.7600 189.06 192.92 13.45
5656 13.7620 176.18 192.90 13.09
5657 13.7640 210.89 192.89 14.42
5658 13.7660 193.76 192.88 13.91
5659 13.7680 190.49 192.87 13.54
5660 13.7700 194.67 192.86 13.69
5661 13.7720 189.39 192.86 13.61
5662 13.7740 188.73 192.85 13.67
5663 13.7760 223.20 192.85 14.93
5664 13.7780 176.17 192.86 13.02
5665 13.7800 188.69 192.87 13.48
5666 13.7820 201.49 192.88 14.05
5667 13.7840 198.31 192.89 14.02
5668 13.7860 219.89 192.90 14.81
5669 13.7880 218.75 192.93 14.53
5670 13.7900 221.36 192.95 14.60
5671 13.7920 183.93 192.98 13.47
5672 13.7940 212.26 193.79 14.45
5673 13.7960 174.15 193.84 13.25
5674 13.7980 204.38 193.91 14.03
5675 13.8000 221.28 193.98 14.63
5676 13.8020 219.71 194.05 14.71
5677 13.8040 213.39 194.14 14.56
5678 13.8060 185.77 194.24 13.63
5679 13.8080 193.87 194.34 13.72
5680 13.8100 192.07 194.46 13.62
5681 13.8120 208.39 194.59 14.30
5682 13.8140 190.74 194.73 13.77
5683 13.8160 203.57 194.90 14.22
5684 13.8180 205.02 195.08 14.10
5685 13.8200 205.24 195.28 14.04
5686 13.8220 205.99 195.51 14.23
5687 13.8240 191.02 196.60 13.72
5688 13.8260 203.79 196.91 14.31
5689 13.8280 198.75 197.27 13.86
5690 13.8300 176.72 197.69 13.09
5691 13.8320 188.43 198.17 13.62
5692 13.8340 175.97 198.75 13.14
5693 13.8360 188.80 199.43 13.77
5694 13.8380 170.96 200.26 12.84
5695 13.8400 158.27 201.29 12.36
5696 13.8420 180.61 202.58 13.27
5697 13.8440 192.22 204.25 13.75
5698 13.8460 216.75 206.46 14.66
5699 13.8480 211.68 209.49 14.34
5700 13.8500 180.75 213.84 13.18
5701 13.8520 214.88 220.40 14.54
5702 13.8540 207.40 231.00 14.28
5703 13.8560 259.39 249.79 16.10
5704 13.8580 288.12 285.98 16.68
5705 13.8600 317.66 355.61 17.50
5706 13.8620 333.54 452.12 18.12
5707 13.8640 355.54 464.85 18.71
5708 13.8660 363.55 370.32 19.18
5709 13.8680 304.66 295.49 17.15
5710 13.8700 239.67 257.00 15.24
5711 13.8720 249.53 237.93 15.60
5712 13.8740 212.07 227.99 14.41
5713 13.8760 229.71 222.60 15.14
5714 13.8780 219.60 219.79 14.55
5715 13.8800 204.47 218.59 13.99
5716 13.8820 197.53 218.49 13.94
5717 13.8840 202.82 219.20 14.15
5718 13.8860 212.60 220.54 14.58
5719 13.8880 185.95 222.40 13.38
5720 13.8900 188.56 224.68 13.49
5721 13.8920 220.42 227.29 14.70
5722 13.8940 199.68 230.14 13.98
5723 13.8960 195.83 233.15 13.99
5724 13.8980 185.70 236.20 13.39
5725 13.9000 212.52 239.19 14.29
5726 13.9020 219.49 241.98 14.66
5727 13.9040 220.85 244.47 14.78
5728 13.9060 204.64 246.59 14.29
5729 13.9080 203.00 248.31 14.01
5730 13.9100 236.37 249.72 15.08
5731 13.9120 233.84 250.99 15.13
5732 13.9140 207.87 252.37 14.31
5733 13.9160 240.02 254.22 15.48
5734 13.9180 232.73 257.01 15.00
5735 13.9200 255.15 261.36 15.62
5736 13.9220 242.73 268.19 15.44
5737 13.9240 258.34 279.00 15.92
5738 13.9260 264.12 296.51 16.23
5739 13.9280 281.02 326.18 16.44
5740 13.9300 350.84 379.02 18.37
5741 13.9320 491.73 474.38 21.98
5742 13.9340 669.34 628.83 25.64
5743 13.9360 823.42 780.54 28.59
5744 13.9380 744.19 752.33 26.80
5745 13.9400 623.27 594.46 24.64
5746 13.9420 501.03 475.67 22.06
5747 13.9440 425.08 419.52 20.45
5748 13.9460 388.08 407.83 19.64
5749 13.9480 440.61 431.67 20.66
5750 13.9500 479.10 498.17 21.50
5751 13.9520 623.26 639.23 24.73
5752 13.9540 914.46 929.00 30.01
5753 13.9560 1610.10 1460.23 40.35
5754 13.9580 2054.58 1985.92 44.93
5755 13.9600 1801.77 1727.47 42.11
5756 13.9620 1188.60 1103.22 34.22
5757 13.9640 758.38 712.09 27.38
5758 13.9660 524.90 512.68 22.98
5759 13.9680 420.24 407.79 20.10
5760 13.9700 348.29 347.47 18.37
5761 13.9720 338.13 309.73 18.18
5762 13.9740 303.28 284.61 17.35
5763 13.9760 266.02 267.12 16.30
5764 13.9780 272.22 254.49 16.25
5765 13.9800 238.12 245.11 15.17
5766 13.9820 246.32 237.98 15.55
5767 13.9840 240.70 232.46 15.44
5768 13.9860 241.24 228.13 15.49
5769 13.9880 212.16 224.70 14.36
5770 13.9900 232.43 221.98 15.03
5771 13.9920 245.52 219.82 15.48
5772 13.9940 213.43 218.12 14.48
5773 13.9960 231.69 216.79 15.26
5774 13.9980 221.50 215.79 14.56
5775 14.0000 204.67 215.08 14.10
5776 14.0020 230.86 214.64 15.04
5777 14.0040 232.62 214.44 15.17
5778 14.0060 229.83 214.48 15.14
5779 14.0080 225.74 214.76 14.83
5780 14.0100 229.62 215.30 14.92
5781 14.0120 226.77 216.10 14.95
5782 14.0140 220.99 217.22 14.75
5783 14.0160 238.88 218.68 15.40
5784 14.0180 242.19 220.56 15.31
5785 14.0200 229.31 222.94 14.89
5786 14.0220 211.66 225.96 14.41
5787 14.0240 233.36 229.80 15.18
5788 14.0260 243.46 234.71 15.61
5789 14.0280 234.20 241.10 15.06
5790 14.0300 275.67 249.44 16.40
5791 14.0320 261.85 260.96 16.05
5792 14.0340 289.54 277.35 16.90
5793 14.0360 317.37 302.09 17.79
5794 14.0380 364.37 342.11 18.78
5795 14.0400 416.47 409.42 20.08
5796 14.0420 540.85 520.11 23.03
5797 14.0440 715.45 681.24 26.55
5798 14.0460 821.43 841.41 28.76
5799 14.0480 823.95 862.76 28.35
5800 14.0500 741.23 728.13 26.81
5801 14.0520 645.80 580.89 25.35
5802 14.0540 514.99 488.71 22.55
5803 14.0560 448.31 452.17 21.23
5804 14.0580 455.53 462.99 20.95
5805 14.0600 509.01 519.95 22.24
5806 14.0620 592.39 627.96 24.05
5807 14.0640 771.97 788.51 27.58
5808 14.0660 952.29 976.89 31.07
5809 14.0680 1079.82 1108.15 32.54
5810 14.0700 1080.82 1077.61 32.35
5811 14.0720 915.63 907.16 30.07
5812 14.0740 779.20 710.01 27.81
5813 14.0760 566.55 550.51 23.71
5814 14.0780 457.59 439.47 21.05
5815 14.0800 349.30 367.78 18.30
5816 14.0820 301.99 322.91 17.18
5817 14.0840 310.12 294.30 17.42
5818 14.0860 300.62 275.09 17.30
5819 14.0880 291.71 261.41 16.78
5820 14.0900 287.68 251.20 16.66
5821 14.0920 239.17 243.36 15.30
5822 14.0940 237.39 237.23 15.28
5823 14.0960 238.01 232.36 15.36
5824 14.0980 219.01 228.48 14.48
5825 14.1000 266.86 225.35 15.98
5826 14.1020 261.63 222.85 16.04
5827 14.1040 267.60 220.85 16.14
5828 14.1060 258.48 219.29 16.01
5829 14.1080 256.52 224.82 15.73
5830 14.1100 262.11 224.20 15.80
5831 14.1120 248.83 224.00 15.59
5832 14.1140 257.01 224.24 15.85
5833 14.1160 231.41 224.98 15.14
5834 14.1180 242.34 226.29 15.29
5835 14.1200 254.34 228.24 15.62
5836 14.1220 235.77 230.91 15.11
5837 14.1240 222.62 234.36 14.77
5838 14.1260 241.10 237.88 15.47
5839 14.1280 236.50 243.00 15.04
5840 14.1300 282.43 248.69 16.44
5841 14.1320 272.06 255.30 16.34
5842 14.1340 251.74 262.48 15.68
5843 14.1360 253.03 269.93 15.83
5844 14.1380 294.89 277.30 16.86
5845 14.1400 279.43 284.09 16.31
5846 14.1420 301.85 289.71 17.13
5847 14.1440 297.88 293.55 17.11
5848 14.1460 283.44 295.13 16.74
5849 14.1480 327.39 294.25 17.68
5850 14.1500 313.96 291.06 17.35
5851 14.1520 283.56 286.00 16.65
5852 14.1540 286.86 279.65 16.72
5853 14.1560 341.93 272.59 18.48
5854 14.1580 296.79 265.31 16.85
5855 14.1600 251.90 258.17 15.56
5856 14.1620 280.14 251.46 16.49
5857 14.1640 292.43 245.33 16.95
5858 14.1660 258.83 239.89 15.97
5859 14.1680 270.31 235.19 16.14
5860 14.1700 259.27 231.23 15.77
5861 14.1720 251.31 227.96 15.68
5862 14.1740 271.05 225.33 16.36
5863 14.1760 241.86 228.51 15.49
5864 14.1780 281.19 227.06 16.40
5865 14.1800 262.06 226.04 15.89
5866 14.1820 280.84 225.36 16.56
5867 14.1840 264.69 224.99 16.11
5868 14.1860 257.00 224.87 16.05
5869 14.1880 276.76 224.96 16.29
5870 14.1900 266.24 225.24 16.06
5871 14.1920 269.24 225.69 16.26
5872 14.1940 285.84 226.29 16.79
5873 14.1960 248.71 227.03 15.71
5874 14.1980 276.79 227.92 16.36
5875 14.2000 274.67 228.95 16.27
5876 14.2020 292.62 230.12 16.88
5877 14.2040 291.52 231.44 17.02
5878 14.2060 265.56 232.91 16.23
5879 14.2080 245.09 234.54 15.40
5880 14.2100 293.28 236.35 16.85
5881 14.2120 292.70 238.36 16.95
5882 14.2140 287.04 240.57 16.83
5883 14.2160 286.99 243.01 16.90
5884 14.2180 309.34 245.71 17.31
5885 14.2200 295.26 248.70 16.89
5886 14.2220 278.20 252.03 16.56
5887 14.2240 323.99 255.75 17.87
5888 14.2260 312.58 259.94 17.62
5889 14.2280 281.44 264.69 16.52
5890 14.2300 296.15 273.18 16.99
5891 14.2320 327.58 279.58 17.85
5892 14.2340 310.37 287.10 17.55
5893 14.2360 323.35 296.05 17.91
5894 14.2380 315.00 306.79 17.44
5895 14.2400 322.75 323.04 17.66
5896 14.2420 357.30 338.61 18.71
5897 14.2440 376.02 357.14 19.24
5898 14.2460 398.85 378.88 19.96
5899 14.2480 417.86 403.86 20.07
5900 14.2500 428.14 431.86 20.40
5901 14.2520 466.08 462.23 21.47
5902 14.2540 476.17 493.77 21.62
5903 14.2560 532.04 524.74 23.12
5904 14.2580 528.77 552.92 22.68
5905 14.2600 546.07 576.66 22.97
5906 14.2620 558.13 596.06 23.38
5907 14.2640 622.49 613.63 24.90
5908 14.2660 649.01 633.97 25.51
5909 14.2680 668.59 663.33 25.53
5910 14.2700 700.42 710.56 26.09
5911 14.2720 746.65 788.37 27.26
5912 14.2740 872.06 902.40 29.43
5913 14.2760 912.26 1008.13 30.22
5914 14.2780 1085.35 1081.01 32.56
5915 14.2800 1146.26 1214.34 33.33
5916 14.2820 1372.44 1470.57 36.90
5917 14.2840 1716.85 1904.04 41.35
5918 14.2860 2364.19 2591.72 49.20
5919 14.2880 3664.54 3611.97 60.66
5920 14.2900 5472.79 4991.59 74.79
5921 14.2920 7766.76 6584.54 91.06
5922 14.2940 8670.64 7869.65 96.79
5923 14.2960 8341.80 8074.71 95.06
5924 14.2980 6727.97 7038.44 83.47
5925 14.3000 5202.15 5459.97 72.85
5926 14.3020 3791.71 3987.93 61.96
5927 14.3040 2816.74 2859.16 53.31
5928 14.3060 2232.43 2078.42 47.63
5929 14.3080 1800.57 1571.29 42.04
5930 14.3100 1439.23 1250.63 37.51
5931 14.3120 1195.21 1045.94 34.47
5932 14.3140 1065.87 910.68 32.52
5933 14.3160 963.06 817.66 31.13
5934 14.3180 869.56 752.30 29.08
5935 14.3200 837.07 706.89 28.47
5936 14.3220 803.19 677.24 28.09
5937 14.3240 792.51 661.09 27.94
5938 14.3260 745.35 657.55 27.33
5939 14.3280 710.55 666.86 26.26
5940 14.3300 818.93 690.60 28.13
5941 14.3320 762.55 731.86 27.38
5942 14.3340 806.23 796.23 28.29
5943 14.3360 874.59 893.37 29.62
5944 14.3380 997.24 1039.72 31.22
5945 14.3400 1269.72 1265.37 35.09
5946 14.3420 1531.77 1627.72 39.05
5947 14.3440 2260.07 2244.27 47.56
5948 14.3460 3429.19 3359.17 59.51
5949 14.3480 6361.53 5426.51 80.93
5950 14.3500 9705.52 8633.37 101.93
5951 14.3520 10150.70 10428.00 105.19
5952 14.3540 7941.55 7969.29 92.22
5953 14.3560 5574.47 4877.28 76.34
5954 14.3580 3755.26 3044.14 61.43
5955 14.3600 2529.05 2059.64 49.87
5956 14.3620 1701.50 1505.93 41.08
5957 14.3640 1322.61 1172.77 36.24
5958 14.3660 1035.77 959.93 32.02
5959 14.3680 889.75 820.23 29.41
5960 14.3700 753.50 721.99 26.86
5961 14.3720 721.30 652.50 26.66
5962 14.3740 641.02 602.84 24.97
5963 14.3760 622.84 567.36 24.81
5964 14.3780 600.69 542.41 24.02
5965 14.3800 539.73 525.58 22.75
5966 14.3820 607.25 515.16 24.37
5967 14.3840 571.92 509.97 23.62
5968 14.3860 565.18 509.12 23.61
5969 14.3880 562.23 511.91 23.31
5970 14.3900 586.43 517.87 23.76
5971 14.3920 594.50 526.72 24.16
5972 14.3940 592.34 538.59 24.12
5973 14.3960 639.70 554.44 25.15
5974 14.3980 631.91 577.21 24.68
5975 14.4000 697.03 614.19 25.92
5976 14.4020 760.34 679.02 27.35
5977 14.4040 811.12 773.74 28.26
5978 14.4060 841.19 814.29 28.92
5979 14.4080 782.06 726.75 27.44
5980 14.4100 707.30 626.54 26.06
5981 14.4120 595.21 564.40 24.17
5982 14.4140 569.85 528.08 23.64
5983 14.4160 586.50 505.86 24.04
5984 14.4180 552.98 491.99 23.05
5985 14.4200 554.16 484.12 22.95
5986 14.4220 566.38 481.33 23.59
5987 14.4240 559.36 483.44 23.36
5988 14.4260 569.44 490.66 23.74
5989 14.4280 547.73 503.55 22.88
5990 14.4300 593.43 523.06 23.77
5991 14.4320 621.15 550.59 24.66
5992 14.4340 675.90 588.31 25.77
5993 14.4360 699.53 639.35 26.35
5994 14.4380 801.42 708.72 27.69
5995 14.4400 860.39 804.13 28.69
5996 14.4420 1008.66 939.00 31.51
5997 14.4440 1185.67 1138.32 34.04
5998 14.4460 1448.78 1451.42 38.08
5999 14.4480 1879.66 1972.07 42.70
6000 14.4500 2969.58 2850.60 53.92
6001 14.4520 4288.64 4262.51 66.18
6002 14.4540 6117.65 6185.20 79.98
6003 14.4560 8029.52 7735.06 92.72
6004 14.4580 8198.95 7381.33 92.68
6005 14.4600 6487.94 5556.65 81.52
6006 14.4620 4084.32 3835.89 64.63
6007 14.4640 2478.56 2728.36 49.94
6008 14.4660 1948.37 2128.85 44.33
6009 14.4680 1641.45 1807.41 39.77
6010 14.4700 1397.41 1537.23 36.87
6011 14.4720 1214.58 1263.43 34.68
6012 14.4740 1030.66 1045.69 31.90
6013 14.4760 910.96 898.35 30.01
6014 14.4780 816.03 805.67 28.00
6015 14.4800 811.72 750.42 28.04
6016 14.4820 842.84 720.88 28.74
6017 14.4840 820.49 710.49 28.61
6018 14.4860 836.24 716.42 28.79
6019 14.4880 834.09 738.47 28.30
6020 14.4900 931.68 779.02 30.22
6021 14.4920 986.40 843.77 31.20
6022 14.4940 1112.21 943.73 33.45
6023 14.4960 1259.42 1097.54 35.59
6024 14.4980 1483.74 1333.23 37.91
6025 14.5000 1806.64 1687.87 42.28
6026 14.5020 2087.22 2200.51 45.67
6027 14.5040 2724.74 2902.24 52.81
6028 14.5060 3382.20 3791.01 58.93
6029 14.5080 4418.30 4797.14 66.57
6030 14.5100 5557.45 5722.14 75.76
6031 14.5120 6151.13 6230.94 80.00
6032 14.5140 6346.52 6059.44 82.20
6033 14.5160 5668.00 5299.04 77.02
6034 14.5180 4712.50 4290.61 68.98
6035 14.5200 3694.98 3314.83 61.09
6036 14.5220 2507.80 2503.03 50.14
6037 14.5240 1811.03 1884.62 42.78
6038 14.5260 1385.34 1441.78 37.20
6039 14.5280 1074.85 1139.73 32.27
6040 14.5300 902.24 934.33 29.91
6041 14.5320 837.61 789.97 28.70
6042 14.5340 651.86 691.52 25.43
6043 14.5360 616.18 619.07 24.74
6044 14.5380 541.51 563.56 22.87
6045 14.5400 537.12 519.58 22.93
6046 14.5420 484.36 483.89 21.75
6047 14.5440 431.33 454.52 20.80
6048 14.5460 471.01 429.96 21.66
6049 14.5480 422.19 409.13 20.23
6050 14.5500 423.75 391.27 20.44
6051 14.5520 405.31 375.92 19.98
6052 14.5540 428.46 362.74 20.79
6053 14.5560 373.23 351.42 19.24
6054 14.5580 405.81 341.71 19.85
6055 14.5600 339.74 333.38 18.35
6056 14.5620 370.42 326.24 19.10
6057 14.5640 378.38 320.15 19.45
6058 14.5660 395.54 314.97 19.83
6059 14.5680 357.71 310.61 18.60
6060 14.5700 327.59 306.99 17.95
6061 14.5720 357.67 304.05 18.84
6062 14.5740 320.96 301.75 17.91
6063 14.5760 341.80 300.06 18.43
6064 14.5780 355.96 298.95 18.54
6065 14.5800 359.08 298.43 18.78
6066 14.5820 314.54 298.49 17.61
6067 14.5840 338.03 299.01 18.35
6068 14.5860 331.40 300.28 18.17
6069 14.5880 362.92 302.21 18.81
6070 14.5900 316.18 304.83 17.58
6071 14.5920 345.72 308.24 18.44
6072 14.5940 381.47 312.50 19.50
6073 14.5960 346.64 317.73 18.58
6074 14.5980 376.79 324.07 19.10
6075 14.6000 327.21 329.19 17.90
6076 14.6020 338.20 338.37 18.24
6077 14.6040 362.34 349.35 19.04
6078 14.6060 345.56 362.50 18.55
6079 14.6080 369.50 378.33 18.90
6080 14.6100 407.87 397.45 19.95
6081 14.6120 419.00 420.73 20.34
6082 14.6140 445.23 449.30 21.01
6083 14.6160 471.79 484.77 21.69
6084 14.6180 502.79 529.40 22.06
6085 14.6200 555.45 586.36 23.13
6086 14.6220 625.62 660.76 24.92
6087 14.6240 666.59 760.80 25.74
6088 14.6260 793.98 901.68 28.24
6089 14.6280 1036.28 1111.82 31.72
6090 14.6300 1308.83 1441.92 35.90
6091 14.6320 1866.58 1970.97 43.36
6092 14.6340 2853.16 2798.60 53.77
6093 14.6360 4544.07 4000.43 68.75
6094 14.6380 6546.88 5510.38 82.62
6095 14.6400 7715.15 6842.53 89.72
6096 14.6420 7383.73 7095.87 88.16
6097 14.6440 6046.90 6036.08 80.00
6098 14.6460 4656.22 4496.06 69.70
6099 14.6480 3306.15 3164.81 57.29
6100 14.6500 2504.81 2214.13 49.85
6101 14.6520 1748.59 1594.35 41.85
6102 14.6540 1507.68 1206.17 38.78
6103 14.6560 1185.33 962.10 34.49
6104 14.6580 968.49 801.55 30.65
6105 14.6600 772.37 689.49 27.27
6106 14.6620 756.72 607.38 27.23
6107 14.6640 640.23 545.07 25.20
6108 14.6660 561.96 496.72 23.62
6109 14.6680 543.61 458.65 22.98
6110 14.6700 527.70 428.38 22.57
6111 14.6720 447.28 404.26 20.89
6112 14.6740 448.11 385.09 21.07
6113 14.6760 466.74 370.12 21.50
6114 14.6780 410.09 358.89 19.89
6115 14.6800 406.84 351.24 19.74
6116 14.6820 379.54 347.42 19.24
6117 14.6840 402.47 348.23 19.93
6118 14.6860 437.99 355.65 20.86
6119 14.6880 405.16 370.85 19.84
6120 14.6900 438.27 407.88 20.54
6121 14.6920 511.55 475.44 22.38
6122 14.6940 583.18 565.94 23.99
6123 14.6960 640.55 642.68 25.25
6124 14.6980 807.23 768.13 27.92
6125 14.7000 948.52 985.24 30.31
6126 14.7020 957.09 1045.76 30.74
6127 14.7040 812.06 806.39 28.36
6128 14.7060 687.64 575.47 26.23
6129 14.7080 486.82 444.94 21.74
6130 14.7100 373.89 376.62 18.99
6131 14.7120 389.61 339.80 19.55
6132 14.7140 368.92 319.69 19.00
6133 14.7160 352.20 310.15 18.69
6134 14.7180 356.15 309.23 18.54
6135 14.7200 358.16 317.05 18.53
6136 14.7220 338.72 334.33 18.21
6137 14.7240 410.86 360.69 20.15
6138 14.7260 428.07 390.83 20.59
6139 14.7280 455.54 409.93 20.95
6140 14.7300 429.02 402.86 20.43
6141 14.7320 392.22 375.10 19.57
6142 14.7340 389.08 344.18 19.57
6143 14.7360 385.83 319.72 19.53
6144 14.7380 362.27 303.43 18.72
6145 14.7400 339.47 293.93 18.04
6146 14.7420 287.89 289.19 16.75
6147 14.7440 354.89 287.44 18.74
6148 14.7460 328.50 287.40 18.03
6149 14.7480 337.43 288.23 18.06
6150 14.7500 343.00 289.41 18.26
6151 14.7520 316.93 290.56 17.60
6152 14.7540 338.18 291.40 18.23
6153 14.7560 339.33 291.72 18.36
6154 14.7580 348.50 291.39 18.37
6155 14.7600 329.00 290.33 17.80
6156 14.7620 320.06 288.59 17.68
6157 14.7640 333.87 286.23 18.18
6158 14.7660 277.21 283.41 16.58
6159 14.7680 300.83 280.27 17.06
6160 14.7700 311.08 276.97 17.36
6161 14.7720 287.08 273.65 16.75
6162 14.7740 321.50 270.46 17.83
6163 14.7760 311.26 267.48 17.55
6164 14.7780 316.18 264.82 17.45
6165 14.7800 293.60 262.55 16.85
6166 14.7820 294.53 260.73 17.01
6167 14.7840 269.42 259.40 16.25
6168 14.7860 273.28 258.61 16.49
6169 14.7880 286.00 258.37 16.64
6170 14.7900 335.96 258.73 18.08
6171 14.7920 288.84 259.70 16.83
6172 14.7940 304.21 261.31 17.40
6173 14.7960 270.63 263.57 16.36
6174 14.7980 291.58 266.53 16.75
6175 14.8000 286.85 270.24 16.62
6176 14.8020 322.29 274.73 17.80
6177 14.8040 331.16 280.10 18.02
6178 14.8060 346.48 286.43 18.55
6179 14.8080 352.41 293.86 18.43
6180 14.8100 360.69 302.54 18.66
6181 14.8120 409.20 312.70 20.04
6182 14.8140 361.06 324.60 18.81
6183 14.8160 393.73 338.59 19.74
6184 14.8180 431.45 355.22 20.39
6185 14.8200 412.86 375.06 19.92
6186 14.8220 502.95 399.05 22.13
6187 14.8240 481.70 428.14 21.70
6188 14.8260 527.65 464.06 22.88
6189 14.8280 578.45 509.35 23.59
6190 14.8300 641.83 568.30 24.86
6191 14.8320 776.06 648.08 27.66
6192 14.8340 860.43 761.19 29.16
6193 14.8360 977.06 927.67 31.19
6194 14.8380 1208.31 1176.52 34.33
6195 14.8400 1455.50 1544.12 37.48
6196 14.8420 1905.80 2065.36 43.54
6197 14.8440 2573.72 2760.75 50.86
6198 14.8460 3313.05 3604.19 58.41
6199 14.8480 4176.24 4473.73 64.69
6200 14.8500 4867.33 5098.38 70.29
6201 14.8520 5204.99 5166.90 73.13
6202 14.8540 4864.91 4641.46 71.02
6203 14.8560 4080.17 3812.46 64.83
6204 14.8580 3111.29 2985.08 55.63
6205 14.8600 2248.63 2304.43 46.87
6206 14.8620 1702.02 1762.22 41.05
6207 14.8640 1145.11 1326.25 33.64
6208 14.8660 825.61 1018.81 28.62
6209 14.8680 640.17 817.46 24.94
6210 14.8700 595.86 684.81 23.99
6211 14.8720 489.87 594.09 21.94
6212 14.8740 427.78 529.09 20.45
6213 14.8760 420.57 480.82 20.45
6214 14.8780 375.09 442.46 18.97
6215 14.8800 349.92 416.05 18.37
6216 14.8820 335.14 399.66 18.02
6217 14.8840 346.76 395.94 18.52
6218 14.8860 371.41 407.89 19.26
6219 14.8880 381.62 421.32 19.18
6220 14.8900 394.17 397.36 19.49
6221 14.8920 317.73 351.84 17.59
6222 14.8940 333.84 317.54 18.16
6223 14.8960 294.06 295.42 17.00
6224 14.8980 272.52 280.46 16.16
6225 14.9000 269.42 269.46 16.06
6226 14.9020 283.94 260.82 16.61
6227 14.9040 243.93 253.72 15.46
6228 14.9060 202.06 247.72 14.14
6229 14.9080 249.67 242.55 15.47
6230 14.9100 226.86 238.02 14.80
6231 14.9120 251.42 234.03 15.61
6232 14.9140 253.06 230.47 15.80
6233 14.9160 236.68 227.28 15.22
6234 14.9180 238.67 222.04 15.07
6235 14.9200 232.81 219.46 14.96
6236 14.9220 221.03 217.18 14.71
6237 14.9240 230.99 215.06 15.13
6238 14.9260 206.57 213.12 14.30
6239 14.9280 216.62 211.34 14.41
6240 14.9300 211.65 209.72 14.33
6241 14.9320 210.69 208.23 14.32
6242 14.9340 213.93 206.86 14.57
6243 14.9360 190.99 205.61 13.72
6244 14.9380 195.21 204.46 13.70
6245 14.9400 216.76 203.41 14.45
6246 14.9420 235.15 202.45 15.14
6247 14.9440 241.36 201.57 15.48
6248 14.9460 214.88 200.78 14.59
6249 14.9480 227.48 200.08 14.80
6250 14.9500 219.98 199.45 14.62
6251 14.9520 214.15 198.90 14.48
6252 14.9540 195.34 198.44 13.88
6253 14.9560 203.58 198.07 14.22
6254 14.9580 200.62 197.79 13.89
6255 14.9600 208.63 197.61 14.19
6256 14.9620 207.28 197.56 14.22
6257 14.9640 201.00 197.65 14.17
6258 14.9660 207.48 197.94 14.31
6259 14.9680 211.74 198.50 14.30
6260 14.9700 226.16 199.43 14.79
6261 14.9720 200.63 200.90 14.06
6262 14.9740 210.60 203.14 14.44
6263 14.9760 222.55 206.43 14.77
6264 14.9780 199.79 211.09 13.86
6265 14.9800 228.22 217.43 14.84
6266 14.9820 212.62 225.69 14.38
6267 14.9840 230.38 235.90 15.08
6268 14.9860 236.94 247.77 15.35
6269 14.9880 225.15 260.48 14.72
6270 14.9900 249.04 272.36 15.52
6271 14.9920 279.08 280.93 16.59
6272 14.9940 236.79 283.65 15.25
6273 14.9960 252.99 279.50 15.84
6274 14.9980 261.07 269.84 15.86
6275 15.0000 239.77 257.30 15.16
6276 15.0020 234.62 244.25 15.14
6277 15.0040 222.03 232.24 14.81
6278 15.0060 209.10 221.97 14.41
6279 15.0080 210.19 213.80 14.25
6280 15.0100 202.77 207.39 13.95
6281 15.0120 209.13 202.61 14.33
6282 15.0140 217.13 199.13 14.63
6283 15.0160 203.05 196.63 14.20
6284 15.0180 187.74 194.80 13.39
6285 15.0200 186.71 193.38 13.36
6286 15.0220 201.34 192.28 14.01
6287 15.0240 179.38 191.34 13.28
6288 15.0260 173.21 190.50 13.09
6289 15.0280 226.43 189.71 14.72
6290 15.0300 168.66 188.95 12.78
6291 15.0320 202.27 188.23 14.05
6292 15.0340 189.42 187.53 13.69
6293 15.0360 175.95 186.88 13.19
6294 15.0380 198.37 186.26 13.81
6295 15.0400 214.78 185.63 14.37
6296 15.0420 172.21 185.11 12.98
6297 15.0440 187.68 184.62 13.60
6298 15.0460 193.93 184.19 13.85
6299 15.0480 174.20 183.80 12.95
6300 15.0500 184.91 183.45 13.30
6301 15.0520 208.64 183.14 14.28
6302 15.0540 194.53 182.87 13.81
6303 15.0560 181.50 182.64 13.39
6304 15.0580 211.43 182.44 14.22
6305 15.0600 187.69 182.29 13.44
6306 15.0620 186.42 182.18 13.46
6307 15.0640 203.65 182.13 14.22
6308 15.0660 182.44 182.15 13.46
6309 15.0680 189.91 182.31 13.49
6310 15.0700 180.44 182.68 13.18
6311 15.0720 188.77 183.34 13.61
6312 15.0740 198.52 184.30 14.00
6313 15.0760 193.52 185.48 13.80
6314 15.0780 193.30 186.08 13.60
6315 15.0800 229.73 185.46 14.87
6316 15.0820 201.90 184.10 13.98
6317 15.0840 192.11 182.85 13.77
6318 15.0860 197.13 181.95 13.98
6319 15.0880 208.63 181.36 14.05
6320 15.0900 177.99 180.98 13.10
6321 15.0920 163.49 180.73 12.69
6322 15.0940 181.14 180.56 13.36
6323 15.0960 169.13 180.45 12.90
6324 15.0980 178.43 180.36 13.08
6325 15.1000 184.35 180.31 13.30
6326 15.1020 194.82 180.27 13.80
6327 15.1040 167.59 180.26 12.84
6328 15.1060 197.93 180.27 13.97
6329 15.1080 186.85 180.29 13.37
6330 15.1100 184.51 180.34 13.35
6331 15.1120 200.97 180.40 14.03
6332 15.1140 187.04 180.49 13.56
6333 15.1160 189.34 180.61 13.63
6334 15.1180 194.30 180.75 13.59
6335 15.1200 220.07 180.93 14.53
6336 15.1220 204.55 181.14 14.11
6337 15.1240 191.56 181.41 13.74
6338 15.1260 210.11 181.75 14.37
6339 15.1280 194.96 182.16 13.67
6340 15.1300 194.12 182.70 13.59
6341 15.1320 224.35 183.41 14.83
6342 15.1340 202.35 184.34 14.02
6343 15.1360 220.78 185.58 14.75
6344 15.1380 196.28 187.25 13.63
6345 15.1400 170.37 189.46 12.77
6346 15.1420 192.69 192.35 13.74
6347 15.1440 204.89 196.04 14.21
6348 15.1460 203.57 200.62 14.09
6349 15.1480 203.35 206.13 13.94
6350 15.1500 222.14 212.49 14.62
6351 15.1520 230.82 219.50 14.95
6352 15.1540 222.92 226.76 14.82
6353 15.1560 218.67 233.58 14.57
6354 15.1580 242.14 239.03 15.16
6355 15.1600 251.38 242.05 15.48
6356 15.1620 212.14 241.96 14.34
6357 15.1640 237.36 238.76 15.29
6358 15.1660 237.97 233.19 15.24
6359 15.1680 210.98 226.28 14.19
6360 15.1700 228.94 218.98 14.87
6361 15.1720 194.45 211.95 13.78
6362 15.1740 203.87 205.59 14.15
6363 15.1760 216.32 200.10 14.52
6364 15.1780 186.25 195.54 13.32
6365 15.1800 198.48 191.88 13.76
6366 15.1820 184.96 189.02 13.44
6367 15.1840 203.01 186.83 14.16
6368 15.1860 188.62 185.20 13.56
6369 15.1880 192.04 183.98 13.53
6370 15.1900 187.82 183.08 13.40
6371 15.1920 191.02 182.41 13.60
6372 15.1940 181.34 181.92 13.37
6373 15.1960 171.01 181.55 12.89
6374 15.1980 190.51 181.28 13.43
6375 15.2000 198.25 181.09 13.81
6376 15.2020 195.41 179.45 13.76
6377 15.2040 157.24 179.40 12.48
6378 15.2060 191.39 179.41 13.63
6379 15.2080 180.51 179.48 13.12
6380 15.2100 184.04 179.60 13.33
6381 15.2120 184.29 179.79 13.45
6382 15.2140 168.12 180.04 12.87
6383 15.2160 200.59 180.36 13.92
6384 15.2180 201.42 180.76 13.87
6385 15.2200 183.88 181.25 13.32
6386 15.2220 169.11 181.82 12.86
6387 15.2240 165.56 182.50 12.82
6388 15.2260 191.39 183.27 13.71
6389 15.2280 193.69 184.16 13.60
6390 15.2300 190.64 185.16 13.68
6391 15.2320 187.42 186.28 13.56
6392 15.2340 196.52 187.52 13.94
6393 15.2360 192.65 188.89 13.68
6394 15.2380 181.64 190.39 13.19
6395 15.2400 188.32 192.03 13.54
6396 15.2420 213.49 193.82 14.45
6397 15.2440 202.94 195.80 14.17
6398 15.2460 198.34 198.01 13.96
6399 15.2480 214.10 200.56 14.35
6400 15.2500 225.24 203.59 14.87
6401 15.2520 226.70 207.31 14.92
6402 15.2540 225.60 212.00 14.99
6403 15.2560 242.21 218.00 15.47
6404 15.2580 220.73 225.66 14.50
6405 15.2600 270.30 235.29 16.26
6406 15.2620 240.09 247.03 15.35
6407 15.2640 287.92 260.77 16.95
6408 15.2660 286.18 275.96 16.73
6409 15.2680 300.88 291.32 17.04
6410 15.2700 323.85 304.70 17.74
6411 15.2720 333.29 313.19 18.07
6412 15.2740 349.63 314.25 18.70
6413 15.2760 360.16 307.25 18.74
6414 15.2780 300.86 294.01 16.97
6415 15.2800 269.31 277.48 16.22
6416 15.2820 251.98 260.34 15.72
6417 15.2840 241.94 244.29 15.51
6418 15.2860 229.47 230.26 15.05
6419 15.2880 216.27 218.58 14.36
6420 15.2900 210.32 209.24 14.33
6421 15.2920 218.31 202.00 14.64
6422 15.2940 169.24 196.54 12.95
6423 15.2960 179.96 192.47 13.25
6424 15.2980 208.31 189.46 14.15
6425 15.3000 162.97 187.21 12.55
6426 15.3020 185.27 185.50 13.48
6427 15.3040 181.26 184.18 13.48
6428 15.3060 195.76 183.13 13.78
6429 15.3080 185.98 182.29 13.39
6430 15.3100 168.12 181.60 12.80
6431 15.3120 198.04 181.03 13.96
6432 15.3140 182.79 180.57 13.47
6433 15.3160 169.67 180.19 12.89
6434 15.3180 192.64 179.88 13.55
6435 15.3200 193.60 179.64 13.75
6436 15.3220 182.71 179.45 13.37
6437 15.3240 188.93 179.31 13.66
6438 15.3260 199.32 179.22 13.96
6439 15.3280 162.23 179.16 12.50
6440 15.3300 178.05 179.13 13.18
6441 15.3320 184.80 179.12 13.43
6442 15.3340 194.66 179.12 13.95
6443 15.3360 157.11 179.12 12.37
6444 15.3380 167.96 179.13 12.65
6445 15.3400 192.79 179.13 13.71
6446 15.3420 183.94 179.13 13.39
6447 15.3440 183.09 179.29 13.48
6448 15.3460 183.22 179.31 13.39
6449 15.3480 189.76 179.35 13.53
6450 15.3500 184.01 179.42 13.41
6451 15.3520 200.21 179.52 14.03
6452 15.3540 198.74 179.67 14.02
6453 15.3560 193.07 179.87 13.78
6454 15.3580 199.66 180.13 13.81
6455 15.3600 211.91 180.46 14.44
6456 15.3620 186.30 180.88 13.51
6457 15.3640 195.17 181.40 13.96
6458 15.3660 191.06 182.04 13.71
6459 15.3680 200.01 182.84 13.84
6460 15.3700 193.52 183.82 13.82
6461 15.3720 177.38 185.02 13.17
6462 15.3740 186.40 186.49 13.65
6463 15.3760 205.89 188.29 14.20
6464 15.3780 188.83 190.46 13.47
6465 15.3800 215.14 193.07 14.49
6466 15.3820 189.07 196.14 13.67
6467 15.3840 190.84 199.73 13.75
6468 15.3860 201.44 203.85 14.10
6469 15.3880 212.50 208.46 14.31
6470 15.3900 206.68 213.52 14.27
6471 15.3920 224.28 218.92 14.83
6472 15.3940 244.64 224.52 15.62
6473 15.3960 235.75 230.24 15.22
6474 15.3980 262.28 236.04 15.88
6475 15.4000 255.45 241.86 15.82
6476 15.4020 265.67 247.59 16.21
6477 15.4040 303.98 253.09 17.42
6478 15.4060 294.73 258.16 17.08
6479 15.4080 284.08 262.66 16.52
6480 15.4100 300.36 266.54 17.12
6481 15.4120 328.02 269.93 18.02
6482 15.4140 336.02 273.21 18.29
6483 15.4160 337.59 276.98 18.22
6484 15.4180 360.57 281.94 18.60
6485 15.4200 332.64 288.75 18.05
6486 15.4220 323.09 297.79 17.82
6487 15.4240 319.00 308.75 17.79
6488 15.4260 362.25 320.20 18.94
6489 15.4280 382.89 329.10 19.17
6490 15.4300 353.80 331.24 18.61
6491 15.4320 365.19 323.89 18.92
6492 15.4340 333.06 308.33 18.22
6493 15.4360 321.40 288.72 17.81
6494 15.4380 277.91 269.04 16.30
6495 15.4400 220.05 251.60 14.66
6496 15.4420 225.01 237.37 14.85
6497 15.4440 208.71 226.50 14.38
6498 15.4460 183.83 218.69 13.49
6499 15.4480 223.59 213.49 14.61
6500 15.4500 196.29 210.34 13.83
6501 15.4520 218.77 208.85 14.69
6502 15.4540 222.36 208.50 14.82
6503 15.4560 227.14 209.07 14.96
6504 15.4580 233.04 210.37 14.92
6505 15.4600 194.90 212.23 13.80
6506 15.4620 216.56 214.57 14.58
6507 15.4640 209.09 217.25 14.38
6508 15.4660 199.68 220.21 14.08
6509 15.4680 238.12 223.32 15.07
6510 15.4700 236.43 226.44 15.24
6511 15.4720 218.86 229.45 14.65
6512 15.4740 254.15 232.17 15.85
6513 15.4760 258.13 234.45 15.98
6514 15.4780 247.70 236.12 15.43
6515 15.4800 254.53 237.04 15.71
6516 15.4820 273.48 237.12 16.43
6517 15.4840 252.21 236.32 15.82
6518 15.4860 281.52 234.67 16.70
6519 15.4880 270.27 232.28 16.07
6520 15.4900 251.74 229.28 15.71
6521 15.4920 229.32 225.81 15.02
6522 15.4940 243.03 222.05 15.52
6523 15.4960 249.25 218.12 15.72
6524 15.4980 236.93 214.14 15.06
6525 15.5000 246.80 210.23 15.50
6526 15.5020 203.95 206.44 14.09
6527 15.5040 226.98 202.85 15.03
6528 15.5060 207.60 199.50 14.31
6529 15.5080 216.30 196.41 14.44
6530 15.5100 186.25 193.60 13.47
6531 15.5120 179.99 191.07 13.30
6532 15.5140 200.04 188.83 14.05
6533 15.5160 192.47 186.86 13.81
6534 15.5180 173.76 185.15 12.92
6535 15.5200 188.18 183.68 13.50
6536 15.5220 183.84 182.43 13.44
6537 15.5240 156.56 181.37 12.41
6538 15.5260 170.62 180.48 12.99
6539 15.5280 197.41 179.74 13.79
6540 15.5300 166.72 179.12 12.73
6541 15.5320 181.57 178.62 13.31
6542 15.5340 168.34 178.21 12.93
6543 15.5360 189.36 177.88 13.66
6544 15.5380 190.05 177.61 13.51
6545 15.5400 169.28 177.40 12.82
6546 15.5420 182.27 177.23 13.40
6547 15.5440 177.04 177.10 13.20
6548 15.5460 170.89 176.99 13.06
6549 15.5480 173.18 176.91 12.91
6550 15.5500 189.44 176.85 13.59
6551 15.5520 168.93 176.80 12.92
6552 15.5540 162.33 176.75 12.67
6553 15.5560 197.66 176.71 14.00
6554 15.5580 198.62 176.66 13.75
6555 15.5600 147.95 176.62 12.03
6556 15.5620 174.88 176.56 13.03
6557 15.5640 167.52 176.50 12.93
6558 15.5660 175.64 176.43 13.19
6559 15.5680 177.87 176.36 13.07
6560 15.5700 171.81 176.29 12.95
6561 15.5720 168.90 176.22 12.94
6562 15.5740 163.97 176.16 12.73
6563 15.5760 182.80 176.11 13.44
6564 15.5780 163.61 176.07 12.51
6565 15.5800 190.06 176.06 13.57
6566 15.5820 162.25 176.07 12.61
6567 15.5840 168.78 176.11 12.88
6568 15.5860 158.84 176.18 12.57
6569 15.5880 157.88 176.29 12.30
6570 15.5900 168.28 176.46 12.76
6571 15.5920 172.54 176.67 13.02
6572 15.5940 161.68 176.93 12.60
6573 15.5960 171.89 177.25 13.04
6574 15.5980 196.04 177.63 13.73
6575 15.6000 201.66 178.07 14.02
6576 15.6020 200.51 178.56 14.06
6577 15.6040 189.05 179.09 13.64
6578 15.6060 181.22 179.66 13.45
6579 15.6080 185.64 180.24 13.37
6580 15.6100 187.61 180.82 13.51
6581 15.6120 186.83 181.37 13.53
6582 15.6140 169.20 181.85 12.87
6583 15.6160 194.98 182.23 13.90
6584 15.6180 189.32 182.64 13.49
6585 15.6200 172.60 182.79 12.98
6586 15.6220 178.97 182.84 13.29
6587 15.6240 174.19 182.81 13.11
6588 15.6260 184.06 182.74 13.56
6589 15.6280 181.93 182.66 13.23
6590 15.6300 187.41 182.60 13.50
6591 15.6320 178.51 182.61 13.22
6592 15.6340 191.05 182.70 13.71
6593 15.6360 175.26 182.89 13.22
6594 15.6380 206.98 183.22 14.09
6595 15.6400 192.12 183.70 13.62
6596 15.6420 194.99 184.37 13.88
6597 15.6440 188.87 185.26 13.62
6598 15.6460 193.54 186.41 13.83
6599 15.6480 185.51 187.87 13.37
6600 15.6500 206.18 189.69 14.14
6601 15.6520 203.66 191.96 14.14
6602 15.6540 222.28 194.73 14.77
6603 15.6560 212.39 198.12 14.55
6604 15.6580 225.93 202.21 14.73
6605 15.6600 204.34 207.10 14.08
6606 15.6620 209.56 212.90 14.34
6607 15.6640 222.37 219.69 14.73
6608 15.6660 259.98 227.52 16.11
6609 15.6680 227.23 236.41 14.75
6610 15.6700 250.45 246.30 15.59
6611 15.6720 264.47 257.07 16.16
6612 15.6740 282.81 268.45 16.65
6613 15.6760 274.71 280.13 16.46
6614 15.6780 243.29 291.67 15.28
6615 15.6800 264.28 302.56 16.04
6616 15.6820 298.31 312.26 17.00
6617 15.6840 308.41 320.12 17.43
6618 15.6860 293.82 325.50 17.06
6619 15.6880 266.50 327.78 16.00
6620 15.6900 274.92 326.58 16.28
6621 15.6920 275.98 321.96 16.51
6622 15.6940 311.26 314.44 17.45
6623 15.6960 297.38 304.87 17.16
6624 15.6980 299.76 294.18 17.00
6625 15.7000 261.38 283.27 15.93
6626 15.7020 242.68 272.80 15.42
6627 15.7040 208.59 263.28 14.29
6628 15.7060 263.93 255.02 16.16
6629 15.7080 232.31 248.22 14.96
6630 15.7100 226.68 242.96 14.82
6631 15.7120 219.13 239.25 14.64
6632 15.7140 216.31 237.07 14.63
6633 15.7160 229.36 236.35 15.03
6634 15.7180 190.98 237.03 13.54
6635 15.7200 229.15 239.07 14.85
6636 15.7220 219.46 242.52 14.68
6637 15.7240 242.44 247.59 15.41
6638 15.7260 252.92 254.72 15.87
6639 15.7280 242.18 264.72 15.26
6640 15.7300 261.68 278.97 15.98
6641 15.7320 276.31 299.40 16.49
6642 15.7340 358.29 328.52 18.76
6643 15.7360 400.19 368.89 19.87
6644 15.7380 479.85 422.68 21.43
6645 15.7400 588.45 490.26 23.91
6646 15.7420 690.25 568.71 26.07
6647 15.7440 792.67 648.72 27.92
6648 15.7460 825.69 711.92 28.71
6649 15.7480 804.17 735.30 27.87
6650 15.7500 735.69 707.73 26.79
6651 15.7520 667.93 641.24 25.57
6652 15.7540 560.52 559.05 23.43
6653 15.7560 462.10 479.51 21.43
6654 15.7580 423.18 411.67 20.07
6655 15.7600 388.74 358.49 19.41
6656 15.7620 364.14 319.86 18.93
6657 15.7640 322.34 293.84 17.79
6658 15.7660 302.27 278.81 17.34
6659 15.7680 308.23 273.42 17.20
6660 15.7700 306.96 277.18 17.34
6661 15.7720 360.04 290.11 18.86
6662 15.7740 375.69 311.88 19.20
6663 15.7760 460.65 340.11 21.40
6664 15.7780 463.10 366.90 21.13
6665 15.7800 459.57 377.97 21.19
6666 15.7820 413.82 363.91 20.23
6667 15.7840 380.89 332.15 19.45
6668 15.7860 365.49 297.04 19.08
6669 15.7880 312.61 266.89 17.40
6670 15.7900 311.87 243.92 17.47
6671 15.7920 259.37 227.53 15.98
6672 15.7940 230.58 216.29 15.05
6673 15.7960 248.11 208.60 15.74
6674 15.7980 244.90 203.20 15.37
6675 15.8000 217.68 199.22 14.55
6676 15.8020 204.04 196.12 14.25
6677 15.8040 207.78 193.59 14.31
6678 15.8060 187.16 191.46 13.63
6679 15.8080 212.71 189.62 14.30
6680 15.8100 194.70 188.01 13.74
6681 15.8120 202.69 186.58 14.15
6682 15.8140 192.23 185.31 13.73
6683 15.8160 188.42 184.17 13.69
6684 15.8180 190.78 183.15 13.58
6685 15.8200 172.49 182.24 12.99
6686 15.8220 191.86 181.41 13.73
6687 15.8240 179.50 180.68 13.27
6688 15.8260 187.58 180.02 13.63
6689 15.8280 193.64 179.44 13.65
6690 15.8300 175.84 178.92 13.10
6691 15.8320 191.96 178.46 13.81
6692 15.8340 180.45 178.06 13.31
6693 15.8360 161.76 177.71 12.69
6694 15.8380 180.79 177.41 13.18
6695 15.8400 180.24 177.15 13.27
6696 15.8420 179.88 176.94 13.29
6697 15.8440 174.97 176.76 13.08
6698 15.8460 203.67 176.63 14.19
6699 15.8480 189.64 176.52 13.55
6700 15.8500 191.04 176.46 13.68
6701 15.8520 180.71 176.43 13.33
6702 15.8540 184.90 178.33 13.51
6703 15.8560 187.47 178.38 13.59
6704 15.8580 176.44 178.50 13.05
6705 15.8600 160.74 178.65 12.53
6706 15.8620 185.30 178.86 13.53
6707 15.8640 176.52 179.12 13.16
6708 15.8660 196.85 179.43 13.97
6709 15.8680 152.32 179.81 12.11
6710 15.8700 172.20 180.28 12.97
6711 15.8720 182.13 180.84 13.39
6712 15.8740 185.33 181.53 13.46
6713 15.8760 193.50 182.38 13.86
6714 15.8780 147.73 183.52 11.95
6715 15.8800 185.49 184.87 13.35
6716 15.8820 177.62 186.62 13.23
6717 15.8840 163.55 188.93 12.68
6718 15.8860 175.51 192.03 13.18
6719 15.8880 225.95 196.27 14.74
6720 15.8900 201.87 202.18 13.98
6721 15.8920 222.77 210.51 14.78
6722 15.8940 232.97 222.14 15.08
6723 15.8960 228.96 237.84 15.05
6724 15.8980 300.49 257.27 17.06
6725 15.9000 272.50 276.94 16.18
6726 15.9020 278.82 288.46 16.55
6727 15.9040 258.51 285.82 15.86
6728 15.9060 261.81 274.28 16.06
6729 15.9080 245.71 262.08 15.38
6730 15.9100 243.07 253.02 15.31
6731 15.9120 241.60 247.85 15.37
6732 15.9140 201.25 246.11 14.04
6733 15.9160 206.15 247.06 14.24
6734 15.9180 209.22 249.88 14.21
6735 15.9200 211.47 253.74 14.27
6736 15.9220 212.31 257.81 14.44
6737 15.9240 215.07 261.18 14.52
6738 15.9260 255.18 263.01 15.89
6739 15.9280 261.53 262.74 15.79
6740 15.9300 242.70 260.23 15.34
6741 15.9320 245.11 255.82 15.48
6742 15.9340 239.32 250.16 15.29
6743 15.9360 217.08 244.04 14.65
6744 15.9380 225.10 238.20 14.71
6745 15.9400 230.03 233.35 14.90
6746 15.9420 188.70 230.34 13.59
6747 15.9440 223.20 230.39 14.81
6748 15.9460 202.99 235.83 14.11
6749 15.9480 215.25 250.77 14.47
6750 15.9500 264.29 279.71 15.99
6751 15.9520 323.65 312.74 17.81
6752 15.9540 281.52 308.79 16.63
6753 15.9560 240.51 269.85 15.42
6754 15.9580 220.89 236.92 14.57
6755 15.9600 216.44 217.56 14.49
6756 15.9620 212.91 206.77 14.44
6757 15.9640 210.39 200.57 14.40
6758 15.9660 199.10 196.79 13.99
6759 15.9680 176.51 194.41 13.05
6760 15.9700 162.72 192.89 12.55
6761 15.9720 169.56 191.95 12.90
6762 15.9740 180.00 191.42 13.32
6763 15.9760 198.37 191.20 13.98
6764 15.9780 213.31 191.24 14.33
6765 15.9800 194.25 191.50 13.68
6766 15.9820 178.54 191.94 13.28
6767 15.9840 206.64 192.57 14.28
6768 15.9860 208.70 193.37 14.38
6769 15.9880 181.42 194.36 13.21
6770 15.9900 194.07 195.54 13.79
6771 15.9920 206.71 196.92 14.29
6772 15.9940 191.04 198.53 13.66
6773 15.9960 187.54 200.41 13.64
6774 15.9980 210.17 202.58 14.24
6775 16.0000 198.32 205.09 13.81
6776 16.0020 193.62 208.01 13.82
6777 16.0040 195.57 211.41 13.90
6778 16.0060 213.40 215.36 14.52
6779 16.0080 218.77 219.96 14.56
6780 16.0100 219.16 225.32 14.65
6781 16.0120 254.62 231.61 15.84
6782 16.0140 253.81 239.13 15.79
6783 16.0160 238.51 248.28 15.39
6784 16.0180 246.13 259.61 15.38
6785 16.0200 284.92 273.92 16.61
6786 16.0220 294.46 292.39 17.01
6787 16.0240 316.72 316.70 17.67
6788 16.0260 341.38 349.36 18.44
6789 16.0280 360.31 394.07 18.58
6790 16.0300 407.38 456.10 19.95
6791 16.0320 467.61 544.14 21.44
6792 16.0340 571.92 672.90 23.88
6793 16.0360 739.83 871.01 27.02
6794 16.0380 1060.87 1196.34 32.13
6795 16.0400 1673.59 1752.00 40.60
6796 16.0420 2606.46 2629.90 51.29
6797 16.0440 3406.85 3457.39 58.86
6798 16.0460 2991.19 3200.41 55.32
6799 16.0480 2135.91 2206.89 45.96
6800 16.0500 1553.72 1437.07 39.09
6801 16.0520 927.65 993.53 30.38
6802 16.0540 643.71 751.87 25.31
6803 16.0560 496.40 619.51 22.16
6804 16.0580 464.94 548.53 21.11
6805 16.0600 417.44 515.30 20.15
6806 16.0620 423.40 507.85 20.47
6807 16.0640 406.82 518.51 20.00
6808 16.0660 436.51 540.70 20.69
6809 16.0680 461.70 566.52 21.20
6810 16.0700 521.41 585.85 22.48
6811 16.0720 522.39 588.25 22.78
6812 16.0740 533.70 568.29 23.04
6813 16.0760 483.14 529.30 21.91
6814 16.0780 468.52 480.25 21.25
6815 16.0800 386.03 429.56 19.35
6816 16.0820 327.22 382.83 18.01
6817 16.0840 299.72 342.71 17.13
6818 16.0860 295.43 309.99 17.10
6819 16.0880 256.28 284.37 15.72
6820 16.0900 233.82 265.02 15.08
6821 16.0920 227.93 250.74 14.96
6822 16.0940 203.17 240.33 14.13
6823 16.0960 193.38 232.68 13.77
6824 16.0980 223.89 226.82 14.73
6825 16.1000 220.93 222.08 14.60
6826 16.1020 179.71 218.12 13.27
6827 16.1040 198.34 214.83 13.96
6828 16.1060 193.05 212.12 13.78
6829 16.1080 211.12 209.90 14.28
6830 16.1100 205.60 208.03 14.10
6831 16.1120 194.81 206.54 13.82
6832 16.1140 171.35 205.30 12.96
6833 16.1160 222.56 204.26 14.78
6834 16.1180 197.84 203.38 13.79
6835 16.1200 185.71 202.65 13.39
6836 16.1220 212.46 202.07 14.38
6837 16.1240 179.33 201.69 13.26
6838 16.1260 186.20 201.58 13.48
6839 16.1280 196.18 201.86 13.75
6840 16.1300 174.37 202.72 12.96
6841 16.1320 201.90 204.43 14.04
6842 16.1340 196.29 207.37 13.89
6843 16.1360 193.66 212.01 13.72
6844 16.1380 208.15 218.87 14.16
6845 16.1400 224.65 228.43 14.69
6846 16.1420 240.27 240.92 15.34
6847 16.1440 230.72 256.19 15.00
6848 16.1460 259.69 273.18 15.92
6849 16.1480 288.31 289.58 16.69
6850 16.1500 329.83 301.37 17.84
6851 16.1520 271.42 304.24 16.31
6852 16.1540 308.80 296.79 17.39
6853 16.1560 265.42 281.68 16.13
6854 16.1580 283.88 263.76 16.51
6855 16.1600 251.51 246.35 15.59
6856 16.1620 234.70 231.31 15.15
6857 16.1640 224.92 219.25 14.85
6858 16.1660 205.77 210.16 14.19
6859 16.1680 222.16 203.69 14.59
6860 16.1700 198.35 199.32 13.85
6861 16.1720 189.60 196.51 13.63
6862 16.1740 182.15 194.83 13.37
6863 16.1760 176.77 193.88 13.18
6864 16.1780 191.04 193.41 13.56
6865 16.1800 178.47 193.22 13.14
6866 16.1820 163.00 193.22 12.66
6867 16.1840 194.58 193.41 13.85
6868 16.1860 180.26 193.90 13.34
6869 16.1880 177.02 194.77 13.06
6870 16.1900 182.33 195.95 13.31
6871 16.1920 174.55 196.94 13.06
6872 16.1940 187.91 196.61 13.63
6873 16.1960 184.75 194.28 13.43
6874 16.1980 153.15 190.72 12.16
6875 16.2000 187.93 187.14 13.47
6876 16.2020 165.10 184.13 12.73
6877 16.2040 181.84 181.82 13.34
6878 16.2060 205.70 180.12 14.26
6879 16.2080 183.63 178.89 13.34
6880 16.2100 182.70 178.00 13.30
6881 16.2120 159.25 177.36 12.52
6882 16.2140 159.95 176.88 12.60
6883 16.2160 169.21 176.54 12.92
6884 16.2180 189.95 176.29 13.55
6885 16.2200 193.53 176.14 13.69
6886 16.2220 197.71 176.06 13.91
6887 16.2240 183.50 176.05 13.46
6888 16.2260 208.56 176.10 14.36
6889 16.2280 189.67 176.22 13.53
6890 16.2300 188.68 176.39 13.56
6891 16.2320 192.82 176.60 13.75
6892 16.2340 221.02 176.84 14.80
6893 16.2360 191.10 177.08 13.68
6894 16.2380 182.89 176.00 13.31
6895 16.2400 215.67 176.20 14.47
6896 16.2420 193.05 176.35 13.78
6897 16.2440 214.50 176.43 14.57
6898 16.2460 172.95 176.48 13.05
6899 16.2480 199.90 176.53 13.91
6900 16.2500 154.31 176.60 12.25
6901 16.2520 174.20 176.72 13.17
6902 16.2540 172.86 176.91 13.05
6903 16.2560 194.10 177.19 13.89
6904 16.2580 185.42 177.57 13.39
6905 16.2600 187.01 178.07 13.52
6906 16.2620 209.27 178.72 14.38
6907 16.2640 178.52 179.52 13.27
6908 16.2660 149.26 180.53 12.13
6909 16.2680 196.51 181.80 13.81
6910 16.2700 198.06 183.42 13.88
6911 16.2720 191.81 185.54 13.80
6912 16.2740 191.80 188.34 13.72
6913 16.2760 194.73 192.12 13.87
6914 16.2780 199.05 197.25 13.89
6915 16.2800 215.21 204.14 14.43
6916 16.2820 179.08 213.29 13.30
6917 16.2840 214.40 225.13 14.57
6918 16.2860 199.65 239.96 14.04
6919 16.2880 247.92 257.87 15.47
6920 16.2900 233.02 278.48 15.04
6921 16.2920 271.00 300.76 16.32
6922 16.2940 304.75 322.65 17.33
6923 16.2960 298.13 340.98 17.17
6924 16.2980 327.69 351.76 17.77
6925 16.3000 332.01 352.05 17.99
6926 16.3020 331.57 341.74 18.02
6927 16.3040 314.68 324.09 17.63
6928 16.3060 245.23 302.27 15.51
6929 16.3080 253.43 279.96 15.68
6930 16.3100 221.75 259.20 14.63
6931 16.3120 227.91 241.15 14.97
6932 16.3140 189.97 226.42 13.68
6933 16.3160 187.95 214.45 13.62
6934 16.3180 191.78 205.20 13.59
6935 16.3200 188.49 198.22 13.48
6936 16.3220 159.91 193.05 12.53
6937 16.3240 171.95 189.25 12.96
6938 16.3260 174.04 186.45 13.13
6939 16.3280 188.49 184.37 13.49
6940 16.3300 185.94 182.80 13.42
6941 16.3320 184.80 181.60 13.45
6942 16.3340 181.14 180.70 13.39
6943 16.3360 166.24 180.01 12.74
6944 16.3380 152.28 179.51 12.13
6945 16.3400 177.05 179.18 13.07
6946 16.3420 173.36 179.00 13.05
6947 16.3440 173.06 178.95 13.08
6948 16.3460 151.80 179.02 12.21
6949 16.3480 159.94 179.21 12.38
6950 16.3500 170.73 179.49 12.82
6951 16.3520 208.58 179.86 14.37
6952 16.3540 174.41 180.30 13.01
6953 16.3560 171.07 180.83 12.99
6954 16.3580 155.86 181.32 12.26
6955 16.3600 158.90 181.79 12.39
6956 16.3620 165.30 182.20 12.71
6957 16.3640 168.53 182.49 12.88
6958 16.3660 171.29 182.64 12.96
6959 16.3680 158.61 182.62 12.33
6960 16.3700 165.86 182.40 12.67
6961 16.3720 170.96 182.01 12.94
6962 16.3740 174.84 181.46 13.05
6963 16.3760 190.22 180.81 13.65
6964 16.3780 152.84 180.08 12.14
6965 16.3800 138.78 179.31 11.52
6966 16.3820 171.92 178.54 12.95
6967 16.3840 160.05 177.79 12.48
6968 16.3860 168.06 177.09 12.83
6969 16.3880 158.45 176.43 12.32
6970 16.3900 176.00 175.83 13.01
6971 16.3920 165.58 175.30 12.71
6972 16.3940 181.77 174.84 13.35
6973 16.3960 181.18 174.45 13.25
6974 16.3980 164.46 174.11 12.58
6975 16.4000 168.60 173.84 12.71
6976 16.4020 147.02 173.62 11.96
6977 16.4040 161.57 173.45 12.59
6978 16.4060 161.10 173.32 12.55
6979 16.4080 162.19 173.23 12.49
6980 16.4100 164.67 173.15 12.57
6981 16.4120 177.24 173.12 13.19
6982 16.4140 144.97 173.12 11.88
6983 16.4160 158.16 173.14 12.40
6984 16.4180 180.55 173.19 13.14
6985 16.4200 189.73 173.25 13.51
6986 16.4220 163.41 173.33 12.63
6987 16.4240 169.59 173.42 12.85
6988 16.4260 183.04 173.54 13.36
6989 16.4280 175.57 173.67 13.01
6990 16.4300 174.01 173.82 12.94
6991 16.4320 163.94 173.94 12.63
6992 16.4340 154.43 174.13 12.33
6993 16.4360 172.40 174.35 12.91
6994 16.4380 163.61 174.59 12.52
6995 16.4400 156.73 174.87 12.22
6996 16.4420 160.16 175.17 12.52
6997 16.4440 162.88 175.51 12.57
6998 16.4460 173.47 175.89 13.01
6999 16.4480 169.42 176.32 12.72
7000 16.4500 167.14 176.81 12.68
7001 16.4520 188.10 177.36 13.50
7002 16.4540 186.19 177.98 13.52
7003 16.4560 189.22 178.70 13.57
7004 16.4580 169.53 179.80 12.70
7005 16.4600 162.99 180.76 12.53
7006 16.4620 189.48 181.90 13.61
7007 16.4640 173.81 183.26 13.02
7008 16.4660 179.29 184.90 13.22
7009 16.4680 205.42 186.92 14.08
7010 16.4700 165.51 189.41 12.59
7011 16.4720 168.89 192.47 12.88
7012 16.4740 159.24 196.16 12.51
7013 16.4760 210.81 200.43 14.35
7014 16.4780 197.26 205.23 13.74
7015 16.4800 187.52 210.92 13.52
7016 16.4820 198.25 218.39 13.91
7017 16.4840 220.17 228.85 14.71
7018 16.4860 262.18 244.04 16.03
7019 16.4880 262.27 266.82 15.96
7020 16.4900 285.19 302.76 16.69
7021 16.4920 339.12 363.17 18.21
7022 16.4940 422.05 470.01 20.41
7023 16.4960 653.64 656.48 25.40
7024 16.4980 931.73 926.77 30.06
7025 16.5000 1166.35 1097.48 33.74
7026 16.5020 1021.41 935.46 31.92
7027 16.5040 655.33 662.36 25.46
7028 16.5060 504.83 473.86 22.17
7029 16.5080 364.09 366.18 18.73
7030 16.5100 289.96 305.51 16.83
7031 16.5120 263.37 269.57 16.05
7032 16.5140 249.23 246.85 15.67
7033 16.5160 221.95 231.74 14.81
7034 16.5180 190.21 221.30 13.52
7035 16.5200 206.18 213.96 14.27
7036 16.5220 217.44 208.76 14.60
7037 16.5240 214.76 205.12 14.59
7038 16.5260 190.83 202.70 13.70
7039 16.5280 194.89 201.28 13.72
7040 16.5300 194.20 200.77 13.86
7041 16.5320 164.13 201.16 12.70
7042 16.5340 188.75 202.50 13.65
7043 16.5360 222.20 204.98 14.80
7044 16.5380 213.61 208.95 14.33
7045 16.5400 223.03 214.97 14.82
7046 16.5420 220.48 224.05 14.74
7047 16.5440 244.50 238.37 15.53
7048 16.5460 256.68 261.49 15.92
7049 16.5480 291.07 299.25 16.78
7050 16.5500 371.58 359.25 19.26
7051 16.5520 458.34 444.59 21.31
7052 16.5540 551.47 529.46 23.45
7053 16.5560 588.76 544.45 24.18
7054 16.5580 494.64 471.82 21.79
7055 16.5600 382.39 380.93 19.50
7056 16.5620 283.15 312.91 16.72
7057 16.5640 248.87 269.27 15.76
7058 16.5660 217.38 242.45 14.65
7059 16.5680 210.38 225.92 14.32
7060 16.5700 223.16 215.40 14.85
7061 16.5720 213.15 208.55 14.55
7062 16.5740 177.74 204.14 13.31
7063 16.5760 176.12 201.60 13.17
7064 16.5780 174.76 200.77 12.98
7065 16.5800 175.39 201.85 13.17
7066 16.5820 184.96 205.35 13.56
7067 16.5840 195.49 212.14 13.87
7068 16.5860 200.75 222.94 14.15
7069 16.5880 189.44 237.51 13.55
7070 16.5900 195.94 252.28 13.92
7071 16.5920 235.31 258.62 15.23
7072 16.5940 226.24 250.71 15.03
7073 16.5960 237.64 234.46 15.31
7074 16.5980 209.16 218.43 14.25
7075 16.6000 181.14 206.07 13.32
7076 16.6020 185.90 197.49 13.52
7077 16.6040 179.22 191.79 13.35
7078 16.6060 169.19 188.08 12.97
7079 16.6080 172.92 185.60 12.91
7080 16.6100 204.46 183.89 14.16
7081 16.6120 181.20 182.64 13.38
7082 16.6140 185.66 181.71 13.58
7083 16.6160 177.67 181.01 13.19
7084 16.6180 187.66 180.47 13.53
7085 16.6200 175.66 180.06 13.04
7086 16.6220 184.43 179.76 13.50
7087 16.6240 160.01 179.55 12.60
7088 16.6260 190.64 179.43 13.76
7089 16.6280 176.93 179.39 13.06
7090 16.6300 195.19 179.67 13.81
7091 16.6320 193.83 179.79 13.80
7092 16.6340 168.08 180.01 12.88
7093 16.6360 183.30 180.32 13.43
7094 16.6380 188.88 180.74 13.52
7095 16.6400 163.03 181.28 12.57
7096 16.6420 183.66 181.98 13.46
7097 16.6440 193.63 182.86 13.78
7098 16.6460 154.53 183.95 12.40
7099 16.6480 197.17 185.29 13.86
7100 16.6500 197.60 186.92 13.86
7101 16.6520 174.10 188.88 13.06
7102 16.6540 190.89 191.23 13.73
7103 16.6560 191.91 193.99 13.74
7104 16.6580 167.95 197.20 12.73
7105 16.6600 205.58 200.88 14.14
7106 16.6620 185.63 205.02 13.47
7107 16.6640 216.15 209.62 14.55
7108 16.6660 194.58 214.60 13.84
7109 16.6680 199.18 219.88 13.92
7110 16.6700 177.81 225.32 13.08
7111 16.6720 193.87 230.72 13.79
7112 16.6740 200.27 235.83 14.03
7113 16.6760 225.64 240.32 14.94
7114 16.6780 232.49 243.86 15.00
7115 16.6800 190.84 246.14 13.61
7116 16.6820 218.78 246.98 14.65
7117 16.6840 239.64 246.34 15.37
7118 16.6860 224.99 244.36 14.87
7119 16.6880 197.98 241.29 13.82
7120 16.6900 214.93 237.44 14.45
7121 16.6920 229.92 233.12 15.00
7122 16.6940 207.52 228.56 14.26
7123 16.6960 206.45 224.00 14.26
7124 16.6980 195.30 219.60 13.75
7125 16.7000 194.98 215.10 13.72
7126 16.7020 188.52 211.36 13.60
7127 16.7040 202.30 208.05 14.07
7128 16.7060 189.96 205.20 13.69
7129 16.7080 190.29 202.82 13.55
7130 16.7100 183.78 200.93 13.40
7131 16.7120 197.54 199.51 13.90
7132 16.7140 188.55 198.56 13.64
7133 16.7160 184.81 198.10 13.48
7134 16.7180 209.72 198.12 14.24
7135 16.7200 197.94 198.69 13.85
7136 16.7220 170.48 199.89 12.90
7137 16.7240 185.68 201.89 13.48
7138 16.7260 185.02 204.98 13.50
7139 16.7280 214.17 209.62 14.41
7140 16.7300 181.10 216.46 13.22
7141 16.7320 175.26 226.29 13.16
7142 16.7340 240.22 239.99 15.34
7143 16.7360 233.81 258.23 15.14
7144 16.7380 263.62 281.07 15.93
7145 16.7400 336.55 307.37 18.11
7146 16.7420 350.61 333.33 18.53
7147 16.7440 351.11 352.04 18.54
7148 16.7460 364.74 356.38 19.01
7149 16.7480 352.98 345.52 18.49
7150 16.7500 332.46 326.03 17.95
7151 16.7520 279.75 305.72 16.60
7152 16.7540 271.15 289.34 16.28
7153 16.7560 272.26 279.19 16.34
7154 16.7580 260.73 276.39 15.81
7155 16.7600 274.93 282.08 16.32
7156 16.7620 279.53 298.31 16.56
7157 16.7640 328.30 328.50 17.92
7158 16.7660 383.22 377.39 19.45
7159 16.7680 504.22 449.94 22.11
7160 16.7700 667.95 547.67 25.50
7161 16.7720 768.60 661.59 27.59
7162 16.7740 887.71 757.36 29.70
7163 16.7760 894.76 780.85 29.83
7164 16.7780 733.77 714.30 26.57
7165 16.7800 626.39 601.81 24.79
7166 16.7820 516.78 491.61 22.49
7167 16.7840 432.90 404.02 20.61
7168 16.7860 359.70 340.98 18.82
7169 16.7880 351.29 298.12 18.48
7170 16.7900 274.51 269.85 16.33
7171 16.7920 269.48 251.14 16.27
7172 16.7940 243.04 238.46 15.45
7173 16.7960 244.11 229.54 15.48
7174 16.7980 253.90 223.06 15.66
7175 16.8000 227.56 218.07 14.84
7176 16.8020 199.28 214.42 13.93
7177 16.8040 188.37 211.65 13.58
7178 16.8060 199.15 209.54 13.98
7179 16.8080 230.22 207.92 14.92
7180 16.8100 194.52 206.69 13.75
7181 16.8120 214.50 205.68 14.53
7182 16.8140 206.98 204.91 14.24
7183 16.8160 189.31 204.27 13.62
7184 16.8180 175.58 203.69 12.98
7185 16.8200 202.23 203.12 13.95
7186 16.8220 204.70 202.54 14.15
7187 16.8240 172.40 201.94 13.00
7188 16.8260 190.78 201.29 13.72
7189 16.8280 199.04 200.63 13.86
7190 16.8300 179.39 199.98 13.20
7191 16.8320 178.94 199.38 13.22
7192 16.8340 212.28 198.87 14.42
7193 16.8360 183.15 198.52 13.40
7194 16.8380 179.33 198.35 13.11
7195 16.8400 188.80 198.42 13.50
7196 16.8420 176.29 198.75 13.11
7197 16.8440 187.48 199.32 13.56
7198 16.8460 154.43 200.08 12.32
7199 16.8480 198.43 200.92 13.89
7200 16.8500 194.60 201.64 13.69
7201 16.8520 199.96 202.02 13.97
7202 16.8540 205.10 201.83 14.22
7203 16.8560 215.47 200.99 14.50
7204 16.8580 193.47 199.53 13.63
7205 16.8600 216.74 197.56 14.50
7206 16.8620 201.80 195.23 14.02
7207 16.8640 177.31 193.03 13.18
7208 16.8660 194.23 190.59 13.87
7209 16.8680 186.49 188.35 13.42
7210 16.8700 212.43 186.40 14.32
7211 16.8720 195.72 184.76 13.85
7212 16.8740 171.64 183.45 13.01
7213 16.8760 190.50 182.40 13.64
7214 16.8780 188.90 181.60 13.49
7215 16.8800 177.29 180.99 13.10
7216 16.8820 174.52 180.70 13.06
7217 16.8840 162.71 180.33 12.63
7218 16.8860 173.65 180.09 13.05
7219 16.8880 155.95 179.91 12.27
7220 16.8900 183.42 179.79 13.29
7221 16.8920 170.13 179.73 12.93
7222 16.8940 197.33 179.70 13.89
7223 16.8960 171.29 179.72 12.94
7224 16.8980 160.56 179.78 12.37
7225 16.9000 177.06 179.88 13.08
7226 16.9020 173.70 180.02 12.99
7227 16.9040 170.41 180.22 12.95
7228 16.9060 173.40 180.49 13.04
7229 16.9080 181.78 180.83 13.23
7230 16.9100 191.73 181.26 13.58
7231 16.9120 160.75 181.82 12.53
7232 16.9140 170.63 182.52 12.91
7233 16.9160 154.94 183.39 12.32
7234 16.9180 156.05 184.47 12.24
7235 16.9200 174.84 185.79 12.97
7236 16.9220 159.41 187.38 12.42
7237 16.9240 164.40 189.26 12.75
7238 16.9260 164.57 191.45 12.71
7239 16.9280 186.28 194.31 13.42
7240 16.9300 205.82 197.10 14.09
7241 16.9320 220.36 200.13 14.74
7242 16.9340 201.68 203.33 14.07
7243 16.9360 199.97 206.55 14.04
7244 16.9380 199.60 209.63 13.87
7245 16.9400 192.32 212.36 13.68
7246 16.9420 192.82 214.47 13.74
7247 16.9440 208.92 215.74 14.39
7248 16.9460 175.04 216.04 13.10
7249 16.9480 192.23 215.35 13.59
7250 16.9500 198.43 213.82 13.91
7251 16.9520 198.89 211.68 14.01
7252 16.9540 195.64 209.19 13.90
7253 16.9560 191.90 206.57 13.72
7254 16.9580 197.71 204.01 13.77
7255 16.9600 198.04 201.65 13.90
7256 16.9620 194.96 199.56 13.81
7257 16.9640 190.76 197.82 13.74
7258 16.9660 210.77 196.44 14.42
7259 16.9680 197.41 195.45 13.80
7260 16.9700 181.64 194.85 13.32
7261 16.9720 175.09 194.61 13.12
7262 16.9740 189.90 194.74 13.73
7263 16.9760 190.80 195.21 13.67
7264 16.9780 161.08 196.19 12.43
7265 16.9800 191.51 197.32 13.63
7266 16.9820 187.11 198.76 13.55
7267 16.9840 197.63 200.52 13.97
7268 16.9860 168.81 202.63 12.87
7269 16.9880 200.89 205.09 13.92
7270 16.9900 223.09 207.96 14.67
7271 16.9920 184.91 211.27 13.51
7272 16.9940 208.24 215.12 14.37
7273 16.9960 203.35 219.62 14.09
7274 16.9980 205.40 224.98 14.06
7275 17.0000 199.63 231.50 13.89
7276 17.0020 250.15 239.73 15.62
7277 17.0040 238.89 250.45 15.42
7278 17.0060 259.91 264.74 15.92
7279 17.0080 264.57 284.00 15.98
7280 17.0100 313.58 309.61 17.41
7281 17.0120 323.42 342.61 17.85
7282 17.0140 391.19 383.02 19.62
7283 17.0160 405.91 428.55 19.86
7284 17.0180 499.95 472.58 21.99
7285 17.0200 502.68 503.02 22.01
7286 17.0220 515.26 508.22 22.46
7287 17.0240 488.17 487.63 22.05
7288 17.0260 446.36 452.36 20.93
7289 17.0280 380.78 415.10 19.12
7290 17.0300 373.27 383.45 19.03
7291 17.0320 258.75 360.39 15.93
7292 17.0340 290.58 346.57 16.93
7293 17.0360 282.41 341.53 16.61
7294 17.0380 284.25 344.33 16.52
7295 17.0400 315.73 353.86 17.42
7296 17.0420 309.47 368.93 17.40
7297 17.0440 312.83 387.93 17.55
7298 17.0460 356.49 408.66 18.68
7299 17.0480 350.91 427.33 18.36
7300 17.0500 337.93 439.57 18.10
7301 17.0520 378.60 442.44 19.26
7302 17.0540 381.60 437.36 19.40
7303 17.0560 351.19 430.37 18.54
7304 17.0580 336.13 430.10 17.97
7305 17.0600 407.41 447.52 19.82
7306 17.0620 465.56 498.75 21.39
7307 17.0640 560.92 607.11 23.55
7308 17.0660 767.77 786.36 27.36
7309 17.0680 962.52 947.71 30.48
7310 17.0700 817.33 888.52 28.13
7311 17.0720 663.49 682.79 25.54
7312 17.0740 480.02 518.81 21.67
7313 17.0760 368.44 426.14 19.00
7314 17.0780 346.15 383.88 18.16
7315 17.0800 322.06 377.36 17.59
7316 17.0820 351.27 403.28 18.60
7317 17.0840 482.53 459.13 21.84
7318 17.0860 546.26 506.66 23.10
7319 17.0880 507.85 476.86 22.04
7320 17.0900 387.49 401.11 19.46
7321 17.0920 344.06 339.12 18.38
7322 17.0940 313.22 298.09 17.57
7323 17.0960 247.33 270.98 15.52
7324 17.0980 217.86 252.56 14.42
7325 17.1000 230.74 239.41 14.88
7326 17.1020 214.75 229.77 14.49
7327 17.1040 204.49 222.63 14.13
7328 17.1060 184.08 217.33 13.34
7329 17.1080 216.24 213.38 14.42
7330 17.1100 182.93 210.44 13.28
7331 17.1120 203.46 208.27 14.14
7332 17.1140 206.86 206.69 14.25
7333 17.1160 204.27 205.60 14.07
7334 17.1180 182.29 204.93 13.18
7335 17.1200 196.02 204.63 13.72
7336 17.1220 216.10 204.71 14.53
7337 17.1240 186.97 205.15 13.60
7338 17.1260 202.44 206.00 13.98
7339 17.1280 203.95 207.29 13.94
7340 17.1300 197.17 209.11 13.79
7341 17.1320 176.29 211.56 13.17
7342 17.1340 200.17 214.77 14.04
7343 17.1360 221.21 218.94 14.58
7344 17.1380 221.66 224.31 14.53
7345 17.1400 236.86 231.38 15.08
7346 17.1420 240.01 240.71 15.35
7347 17.1440 226.32 253.24 14.94
7348 17.1460 243.10 270.62 15.34
7349 17.1480 266.72 295.69 15.96
7350 17.1500 287.10 333.71 16.67
7351 17.1520 362.18 393.77 18.87
7352 17.1540 426.58 489.79 20.44
7353 17.1560 569.93 632.64 23.48
7354 17.1580 743.09 785.69 26.73
7355 17.1600 811.08 821.50 27.90
7356 17.1620 718.10 701.54 26.68
7357 17.1640 502.14 558.22 22.28
7358 17.1660 470.58 462.83 21.30
7359 17.1680 377.75 414.97 19.12
7360 17.1700 362.95 402.81 18.68
7361 17.1720 358.06 418.80 18.70
7362 17.1740 419.32 457.41 20.29
7363 17.1760 417.56 507.30 20.15
7364 17.1780 486.72 554.46 21.54
7365 17.1800 590.24 609.16 23.83
7366 17.1820 713.40 684.71 26.46
7367 17.1840 698.92 706.14 26.33
7368 17.1860 567.75 604.79 23.51
7369 17.1880 404.27 473.16 19.70
7370 17.1900 342.97 377.44 18.17
7371 17.1920 287.72 317.62 16.85
7372 17.1940 243.06 280.94 15.45
7373 17.1960 224.37 257.65 14.68
7374 17.1980 231.10 242.02 14.84
7375 17.2000 207.25 231.08 14.12
7376 17.2020 219.15 223.15 14.67
7377 17.2040 219.17 217.31 14.63
7378 17.2060 195.51 212.97 13.73
7379 17.2080 200.68 209.79 13.84
7380 17.2100 205.86 207.54 14.09
7381 17.2120 181.69 206.11 13.35
7382 17.2140 193.06 205.43 13.80
7383 17.2160 202.79 205.48 13.93
7384 17.2180 211.51 206.28 14.27
7385 17.2200 190.44 207.90 13.57
7386 17.2220 189.11 210.42 13.69
7387 17.2240 204.65 213.95 14.16
7388 17.2260 176.21 218.59 13.07
7389 17.2280 209.87 223.86 14.21
7390 17.2300 195.40 228.54 13.80
7391 17.2320 226.59 232.58 15.01
7392 17.2340 211.55 236.74 14.45
7393 17.2360 224.67 240.79 14.77
7394 17.2380 218.92 244.08 14.44
7395 17.2400 242.51 245.96 15.43
7396 17.2420 206.63 246.03 14.32
7397 17.2440 216.72 244.25 14.66
7398 17.2460 231.30 240.93 14.97
7399 17.2480 225.16 236.57 14.71
7400 17.2500 251.54 231.69 15.76
7401 17.2520 225.67 226.77 14.91
7402 17.2540 205.61 222.22 14.31
7403 17.2560 202.44 218.44 14.00
7404 17.2580 192.72 216.53 13.59
7405 17.2600 206.73 213.51 14.19
7406 17.2620 219.48 209.05 14.80
7407 17.2640 203.84 204.27 14.23
7408 17.2660 236.62 200.39 15.19
7409 17.2680 185.00 197.43 13.32
7410 17.2700 208.71 195.17 14.33
7411 17.2720 186.44 193.36 13.66
7412 17.2740 195.75 191.92 13.91
7413 17.2760 196.03 190.45 13.79
7414 17.2780 187.33 190.19 13.40
7415 17.2800 179.10 189.38 13.24
7416 17.2820 186.32 188.71 13.57
7417 17.2840 197.36 188.12 14.00
7418 17.2860 190.03 187.60 13.56
7419 17.2880 177.00 187.14 13.06
7420 17.2900 189.96 186.73 13.64
7421 17.2920 190.88 186.35 13.80
7422 17.2940 160.57 185.92 12.57
7423 17.2960 181.51 185.62 13.29
7424 17.2980 182.70 185.35 13.25
7425 17.3000 171.82 185.11 12.94
7426 17.3020 183.22 184.91 13.49
7427 17.3040 188.61 184.73 13.68
7428 17.3060 154.97 184.58 12.31
7429 17.3080 192.96 184.46 13.61
7430 17.3100 179.92 184.36 13.30
7431 17.3120 168.66 184.29 12.92
7432 17.3140 177.96 184.25 13.30
7433 17.3160 163.51 184.22 12.60
7434 17.3180 174.74 184.22 12.95
7435 17.3200 164.22 184.24 12.65
7436 17.3220 163.01 184.28 12.74
7437 17.3240 164.15 184.35 12.73
7438 17.3260 184.77 184.43 13.38
7439 17.3280 156.58 184.54 12.33
7440 17.3300 166.40 184.68 12.71
7441 17.3320 174.13 184.84 13.19
7442 17.3340 181.15 185.03 13.35
7443 17.3360 165.46 185.26 12.70
7444 17.3380 174.54 185.53 12.91
7445 17.3400 174.19 185.85 13.09
7446 17.3420 164.25 186.24 12.77
7447 17.3440 180.20 186.73 13.33
7448 17.3460 171.46 187.34 12.97
7449 17.3480 177.26 188.15 13.04
7450 17.3500 167.84 189.27 12.81
7451 17.3520 190.36 190.85 13.76
7452 17.3540 188.09 193.07 13.66
7453 17.3560 173.00 196.16 12.96
7454 17.3580 179.88 200.27 13.17
7455 17.3600 189.27 205.31 13.56
7456 17.3620 153.06 210.72 12.40
7457 17.3640 180.88 214.97 13.33
7458 17.3660 194.85 216.14 13.80
7459 17.3680 190.62 213.81 13.56
7460 17.3700 197.67 209.53 13.94
7461 17.3720 190.51 205.04 13.76
7462 17.3740 186.13 201.20 13.56
7463 17.3760 209.76 198.23 14.31
7464 17.3780 178.79 196.07 13.15
7465 17.3800 186.16 194.61 13.50
7466 17.3820 201.49 193.68 14.17
7467 17.3840 190.38 193.14 13.77
7468 17.3860 216.31 192.88 14.50
7469 17.3880 195.98 192.84 13.75
7470 17.3900 223.07 192.97 14.78
7471 17.3920 194.12 192.84 13.92
7472 17.3940 211.49 193.25 14.49
7473 17.3960 187.77 193.79 13.51
7474 17.3980 199.48 194.44 13.86
7475 17.4000 218.75 195.22 14.63
7476 17.4020 215.61 196.14 14.64
7477 17.4040 197.37 197.22 14.01
7478 17.4060 206.93 198.48 14.28
7479 17.4080 228.33 199.95 14.85
7480 17.4100 201.23 201.65 14.02
7481 17.4120 220.04 203.63 14.82
7482 17.4140 209.50 205.85 14.43
7483 17.4160 165.80 208.51 12.70
7484 17.4180 209.20 211.58 14.20
7485 17.4200 206.15 215.09 14.21
7486 17.4220 205.80 219.10 14.30
7487 17.4240 237.99 223.63 15.38
7488 17.4260 240.70 228.70 15.34
7489 17.4280 216.21 234.36 14.47
7490 17.4300 243.19 240.60 15.40
7491 17.4320 258.90 247.40 16.10
7492 17.4340 260.82 254.75 16.09
7493 17.4360 241.56 262.63 15.36
7494 17.4380 263.06 270.99 15.88
7495 17.4400 273.08 279.72 16.33
7496 17.4420 273.06 288.78 16.56
7497 17.4440 271.26 298.06 16.38
7498 17.4460 320.39 307.52 17.74
7499 17.4480 297.22 317.22 16.91
7500 17.4500 276.76 327.35 16.44
7501 17.4520 319.78 338.37 17.85
7502 17.4540 333.93 351.07 18.17
7503 17.4560 335.21 366.75 18.05
7504 17.4580 367.88 387.25 18.86
7505 17.4600 378.40 415.61 19.17
7506 17.4620 407.73 456.50 20.11
7507 17.4640 465.23 517.51 21.55
7508 17.4660 543.97 612.01 23.12
7509 17.4680 707.54 764.44 26.16
7510 17.4700 969.64 1018.38 30.81
7511 17.4720 1405.11 1440.17 37.66
7512 17.4740 2117.45 2042.45 46.38
7513 17.4760 2716.16 2488.98 52.38
7514 17.4780 2380.13 2246.19 48.32
7515 17.4800 1602.31 1624.96 39.83
7516 17.4820 1142.25 1125.43 33.75
7517 17.4840 832.58 814.66 28.83
7518 17.4860 613.35 626.59 24.48
7519 17.4880 562.85 509.40 23.35
7520 17.4900 464.36 432.94 21.33
7521 17.4920 412.70 381.09 20.24
7522 17.4940 369.59 344.62 19.11
7523 17.4960 347.49 318.45 18.41
7524 17.4980 326.00 299.50 17.64
7525 17.5000 301.78 285.78 17.11
7526 17.5020 314.59 275.84 17.71
7527 17.5040 296.20 267.89 17.11
7528 17.5060 321.04 260.26 17.79
7529 17.5080 299.08 252.88 16.96
7530 17.5100 277.50 246.64 16.51
7531 17.5120 256.88 241.84 15.95
7532 17.5140 264.25 238.31 16.22
7533 17.5160 252.54 235.83 15.72
7534 17.5180 257.99 234.15 15.72
7535 17.5200 235.51 233.23 15.11
7536 17.5220 267.33 232.95 16.27
7537 17.5240 244.58 233.27 15.57
7538 17.5260 231.85 234.19 15.13
7539 17.5280 253.12 235.74 15.60
7540 17.5300 236.21 237.96 15.10
7541 17.5320 262.92 240.95 16.15
7542 17.5340 240.93 244.84 15.43
7543 17.5360 254.58 249.81 15.77
7544 17.5380 286.09 256.11 16.56
7545 17.5400 259.45 264.08 15.90
7546 17.5420 304.00 274.19 17.26
7547 17.5440 264.89 286.98 16.25
7548 17.5460 357.60 303.28 18.71
7549 17.5480 354.08 324.09 18.43
7550 17.5500 424.32 350.82 20.33
7551 17.5520 400.05 385.80 19.94
7552 17.5540 469.64 432.91 21.61
7553 17.5560 475.50 499.77 21.55
7554 17.5580 586.11 599.46 23.71
7555 17.5600 695.48 752.11 26.07
7556 17.5620 849.33 980.90 29.06
7557 17.5640 1200.54 1301.16 34.65
7558 17.5660 1572.10 1688.41 39.62
7559 17.5680 2056.66 2006.46 44.93
7560 17.5700 2155.50 2036.66 46.17
7561 17.5720 1817.46 1750.76 42.76
7562 17.5740 1367.85 1357.93 37.01
7563 17.5760 957.21 1018.64 30.67
7564 17.5780 726.24 771.51 26.38
7565 17.5800 578.48 604.27 23.79
7566 17.5820 449.91 494.70 21.09
7567 17.5840 354.19 422.40 18.78
7568 17.5860 339.41 373.34 18.25
7569 17.5880 290.77 338.50 16.72
7570 17.5900 312.67 312.74 17.43
7571 17.5920 300.80 292.99 17.21
7572 17.5940 273.70 277.36 16.47
7573 17.5960 253.31 264.73 15.73
7574 17.5980 267.56 254.32 15.98
7575 17.6000 261.48 245.70 15.94
7576 17.6020 240.99 238.51 15.40
7577 17.6040 242.79 232.46 15.55
7578 17.6060 242.63 227.35 15.45
7579 17.6080 220.01 222.99 14.53
7580 17.6100 203.97 219.24 14.07
7581 17.6120 216.37 216.00 14.60
7582 17.6140 189.22 213.18 13.69
7583 17.6160 211.25 210.71 14.38
7584 17.6180 203.17 208.52 14.00
7585 17.6200 201.53 206.59 13.94
7586 17.6220 196.76 204.87 13.96
7587 17.6240 198.13 203.32 14.04
7588 17.6260 213.67 201.93 14.44
7589 17.6280 198.17 200.68 13.79
7590 17.6300 186.23 199.55 13.43
7591 17.6320 200.49 198.53 14.06
7592 17.6340 191.23 197.59 13.79
7593 17.6360 181.49 196.74 13.32
7594 17.6380 189.38 195.96 13.44
7595 17.6400 245.24 195.24 15.45
7596 17.6420 207.34 194.58 14.29
7597 17.6440 194.40 193.97 13.89
7598 17.6460 189.49 193.41 13.61
7599 17.6480 191.44 192.89 13.56
7600 17.6500 177.87 192.41 13.11
7601 17.6520 191.02 191.96 13.71
7602 17.6540 203.66 191.55 14.22
7603 17.6560 188.44 191.16 13.54
7604 17.6580 153.05 190.80 12.10
7605 17.6600 198.99 190.47 13.89
7606 17.6620 196.44 190.16 13.90
7607 17.6640 196.52 189.86 13.94
7608 17.6660 170.07 189.59 12.92
7609 17.6680 177.44 189.33 13.04
7610 17.6700 196.50 189.09 13.82
7611 17.6720 175.67 188.87 13.15
7612 17.6740 179.78 188.66 13.34
7613 17.6760 187.57 188.46 13.56
7614 17.6780 170.05 188.28 12.75
7615 17.6800 192.63 188.10 13.67
7616 17.6820 189.61 187.93 13.61
7617 17.6840 183.00 187.78 13.46
7618 17.6860 182.88 187.64 13.40
7619 17.6880 196.56 187.50 13.76
7620 17.6900 177.61 187.37 13.06
7621 17.6920 184.65 187.25 13.45
7622 17.6940 175.90 187.15 13.23
7623 17.6960 192.35 187.04 13.72
7624 17.6980 211.08 185.98 14.15
7625 17.7000 192.99 185.91 13.69
7626 17.7020 179.50 185.85 13.26
7627 17.7040 157.12 185.80 12.48
7628 17.7060 168.56 185.75 12.92
7629 17.7080 175.45 185.71 12.94
7630 17.7100 194.31 185.68 13.72
7631 17.7120 166.67 185.98 12.80
7632 17.7140 180.72 185.96 13.38
7633 17.7160 199.96 185.96 14.00
7634 17.7180 174.82 185.96 12.95
7635 17.7200 167.78 185.98 12.79
7636 17.7220 170.12 186.00 12.93
7637 17.7240 167.79 186.04 12.94
7638 17.7260 163.67 186.09 12.68
7639 17.7280 182.29 186.14 13.25
7640 17.7300 172.82 186.21 12.96
7641 17.7320 200.81 186.29 14.05
7642 17.7340 185.54 186.38 13.57
7643 17.7360 202.57 186.48 14.12
7644 17.7380 182.39 186.59 13.20
7645 17.7400 171.92 186.70 12.93
7646 17.7420 172.79 186.83 13.00
7647 17.7440 180.26 186.97 13.38
7648 17.7460 207.28 187.11 14.20
7649 17.7480 187.67 187.27 13.45
7650 17.7500 169.20 187.43 12.81
7651 17.7520 180.54 187.60 13.28
7652 17.7540 192.05 187.79 13.83
7653 17.7560 206.12 187.99 14.20
7654 17.7580 186.03 188.21 13.37
7655 17.7600 192.35 188.45 13.63
7656 17.7620 201.76 188.71 14.05
7657 17.7640 167.87 189.02 12.93
7658 17.7660 206.58 189.36 14.26
7659 17.7680 188.64 189.75 13.49
7660 17.7700 169.68 190.19 12.86
7661 17.7720 194.78 190.67 13.84
7662 17.7740 183.69 191.18 13.50
7663 17.7760 187.49 191.70 13.55
7664 17.7780 184.10 192.21 13.29
7665 17.7800 183.16 192.66 13.34
7666 17.7820 164.26 192.99 12.66
7667 17.7840 193.12 193.15 13.90
7668 17.7860 170.97 193.10 12.98
7669 17.7880 186.81 192.86 13.45
7670 17.7900 188.21 192.44 13.52
7671 17.7920 192.41 191.91 13.80
7672 17.7940 161.30 191.33 12.64
7673 17.7960 175.58 190.75 13.19
7674 17.7980 182.94 190.20 13.27
7675 17.8000 172.57 189.71 12.99
7676 17.8020 170.83 189.60 12.95
7677 17.8040 197.93 189.29 14.04
7678 17.8060 180.43 189.08 13.34
7679 17.8080 193.64 188.98 13.65
7680 17.8100 177.88 189.01 13.15
7681 17.8120 176.90 189.19 13.16
7682 17.8140 200.83 189.51 14.15
7683 17.8160 173.60 190.00 13.04
7684 17.8180 181.89 190.65 13.22
7685 17.8200 201.82 191.43 14.04
7686 17.8220 194.05 192.29 13.81
7687 17.8240 186.32 193.08 13.58
7688 17.8260 183.94 193.64 13.47
7689 17.8280 194.49 193.81 13.68
7690 17.8300 197.70 193.56 13.83
7691 17.8320 182.96 193.05 13.42
7692 17.8340 206.61 192.47 14.32
7693 17.8360 167.39 191.95 12.81
7694 17.8380 170.10 191.59 12.76
7695 17.8400 191.17 191.42 13.62
7696 17.8420 192.31 191.45 13.74
7697 17.8440 182.22 191.71 13.47
7698 17.8460 196.47 192.20 13.90
7699 17.8480 201.07 192.93 13.95
7700 17.8500 187.62 193.92 13.51
7701 17.8520 173.30 195.19 13.07
7702 17.8540 204.18 196.74 14.25
7703 17.8560 217.40 198.60 14.72
7704 17.8580 196.44 200.75 13.76
7705 17.8600 192.05 203.18 13.63
7706 17.8620 203.00 205.16 14.14
7707 17.8640 203.17 207.96 14.21
7708 17.8660 196.98 210.76 13.94
7709 17.8680 216.82 213.40 14.46
7710 17.8700 221.71 215.65 14.68
7711 17.8720 239.77 217.33 15.38
7712 17.8740 234.66 218.30 15.25
7713 17.8760 251.05 218.49 15.75
7714 17.8780 218.77 217.89 14.50
7715 17.8800 244.77 216.60 15.44
7716 17.8820 229.67 214.77 15.00
7717 17.8840 212.79 212.62 14.53
7718 17.8860 222.68 210.33 14.83
7719 17.8880 233.82 208.10 15.03
7720 17.8900 213.37 206.07 14.39
7721 17.8920 228.12 204.32 14.97
7722 17.8940 222.78 202.93 14.92
7723 17.8960 211.41 201.90 14.44
7724 17.8980 193.70 201.29 13.64
7725 17.9000 205.32 201.06 14.14
7726 17.9020 188.65 201.19 13.57
7727 17.9040 216.68 201.63 14.65
7728 17.9060 220.69 202.30 14.75
7729 17.9080 210.21 203.11 14.21
7730 17.9100 205.99 203.94 14.07
7731 17.9120 227.87 204.69 14.96
7732 17.9140 216.04 205.35 14.64
7733 17.9160 235.84 206.02 15.22
7734 17.9180 216.21 207.15 14.40
7735 17.9200 199.27 208.51 13.90
7736 17.9220 209.05 210.75 14.31
7737 17.9240 205.87 214.42 14.31
7738 17.9260 230.82 220.43 15.06
7739 17.9280 250.76 230.34 15.55
7740 17.9300 260.71 246.48 15.92
7741 17.9320 282.35 270.64 16.64
7742 17.9340 312.81 296.01 17.58
7743 17.9360 296.05 301.86 17.09
7744 17.9380 310.67 287.55 17.28
7745 17.9400 326.75 273.79 17.82
7746 17.9420 282.92 267.13 16.66
7747 17.9440 303.99 264.65 17.41
7748 17.9460 272.87 262.59 16.45
7749 17.9480 280.06 258.64 16.45
7750 17.9500 281.82 252.48 16.52
7751 17.9520 278.98 245.09 16.52
7752 17.9540 247.54 237.74 15.62
7753 17.9560 250.13 231.26 15.68
7754 17.9580 216.60 226.07 14.48
7755 17.9600 234.43 222.29 15.03
7756 17.9620 214.46 219.88 14.50
7757 17.9640 226.18 218.70 14.97
7758 17.9660 206.65 218.58 14.26
7759 17.9680 186.39 219.35 13.44
7760 17.9700 214.63 220.84 14.44
7761 17.9720 215.62 222.94 14.55
7762 17.9740 248.76 225.52 15.70
7763 17.9760 251.50 228.51 15.74
7764 17.9780 240.03 231.84 15.26
7765 17.9800 232.23 235.43 15.03
7766 17.9820 234.05 239.63 15.12
7767 17.9840 245.28 243.55 15.68
7768 17.9860 234.35 247.52 15.24
7769 17.9880 227.70 251.42 14.83
7770 17.9900 287.72 255.14 16.68
7771 17.9920 270.08 258.55 16.34
7772 17.9940 260.20 261.53 16.03
7773 17.9960 302.72 263.96 17.25
7774 17.9980 289.82 265.73 16.71
7775 18.0000 272.96 266.80 16.29
7776 18.0020 270.99 267.15 16.29
7777 18.0040 282.95 266.85 16.70
7778 18.0060 275.57 266.01 16.54
7779 18.0080 282.80 264.80 16.52
7780 18.0100 298.21 263.43 17.03
7781 18.0120 293.74 262.17 16.99
7782 18.0140 296.37 261.32 17.18
7783 18.0160 319.62 261.15 17.71
7784 18.0180 290.55 261.78 16.80
7785 18.0200 301.98 263.46 17.12
7786 18.0220 299.95 266.39 17.24
7787 18.0240 303.75 269.87 17.30
7788 18.0260 283.69 272.18 16.78
7789 18.0280 271.41 272.68 16.23
7790 18.0300 277.16 272.91 16.41
7791 18.0320 272.09 274.53 16.42
7792 18.0340 278.81 278.24 16.66
7793 18.0360 257.86 284.24 15.99
7794 18.0380 282.47 292.74 16.49
7795 18.0400 274.84 303.92 16.31
7796 18.0420 282.98 319.43 16.68
7797 18.0440 314.20 335.95 17.65
7798 18.0460 379.10 353.72 19.40
7799 18.0480 408.07 369.28 19.85
7800 18.0500 389.50 376.64 19.43
7801 18.0520 385.02 370.81 19.47
7802 18.0540 337.50 353.32 18.31
7803 18.0560 310.36 330.56 17.53
7804 18.0580 312.78 308.03 17.38
7805 18.0600 264.43 288.24 15.97
7806 18.0620 260.89 271.88 16.01
7807 18.0640 253.51 258.74 15.85
7808 18.0660 232.30 250.35 15.21
7809 18.0680 228.62 242.06 14.83
7810 18.0700 224.29 235.38 14.75
7811 18.0720 241.21 229.95 15.34
7812 18.0740 225.66 225.49 14.94
7813 18.0760 206.30 221.84 14.27
7814 18.0780 236.41 218.85 15.08
7815 18.0800 215.23 216.45 14.39
7816 18.0820 231.13 214.53 15.02
7817 18.0840 239.54 213.05 15.39
7818 18.0860 224.51 211.93 14.89
7819 18.0880 215.07 212.97 14.46
7820 18.0900 226.24 212.51 14.78
7821 18.0920 230.19 212.30 14.97
7822 18.0940 249.53 212.34 15.70
7823 18.0960 247.34 212.62 15.66
7824 18.0980 206.63 213.11 14.08
7825 18.1000 214.63 213.84 14.44
7826 18.1020 217.84 216.80 14.56
7827 18.1040 261.42 218.05 16.06
7828 18.1060 237.63 219.57 15.32
7829 18.1080 255.29 221.40 15.69
7830 18.1100 233.95 223.59 15.01
7831 18.1120 248.00 226.23 15.53
7832 18.1140 245.38 229.45 15.55
7833 18.1160 287.80 233.50 16.79
7834 18.1180 253.70 238.77 15.57
7835 18.1200 272.01 245.87 16.20
7836 18.1220 273.41 255.90 16.26
7837 18.1240 268.88 270.81 16.26
7838 18.1260 318.71 294.39 17.78
7839 18.1280 380.84 333.65 19.12
7840 18.1300 433.94 399.40 20.43
7841 18.1320 572.12 500.02 23.61
7842 18.1340 663.42 602.94 25.56
7843 18.1360 626.15 606.20 24.81
7844 18.1380 533.33 505.02 22.64
7845 18.1400 410.49 403.50 19.89
7846 18.1420 394.69 337.06 19.55
7847 18.1440 330.49 300.55 18.08
7848 18.1460 297.20 277.46 17.04
7849 18.1480 279.06 263.41 16.39
7850 18.1500 299.01 254.68 16.97
7851 18.1520 306.85 249.01 17.27
7852 18.1540 299.48 245.52 17.29
7853 18.1560 289.86 243.65 16.87
7854 18.1580 249.57 243.12 15.46
7855 18.1600 273.84 243.83 16.27
7856 18.1620 297.70 245.74 17.05
7857 18.1640 303.83 249.01 17.37
7858 18.1660 284.02 253.68 16.73
7859 18.1680 306.24 259.84 17.13
7860 18.1700 310.89 267.49 17.34
7861 18.1720 347.98 276.48 18.40
7862 18.1740 351.28 286.50 18.71
7863 18.1760 324.17 296.82 17.86
7864 18.1780 346.09 306.28 18.19
7865 18.1800 383.05 313.34 19.21
7866 18.1820 383.71 316.58 19.42
7867 18.1840 383.80 315.46 19.44
7868 18.1860 382.76 310.74 19.38
7869 18.1880 353.67 303.91 18.50
7870 18.1900 372.87 296.52 19.00
7871 18.1920 369.75 289.68 19.12
7872 18.1940 341.45 284.07 18.35
7873 18.1960 339.37 280.06 18.27
7874 18.1980 342.02 277.80 18.13
7875 18.2000 293.65 277.37 16.82
7876 18.2020 320.46 278.81 17.64
7877 18.2040 319.38 282.20 17.81
7878 18.2060 358.73 287.77 18.76
7879 18.2080 355.66 296.00 18.54
7880 18.2100 369.54 307.81 18.96
7881 18.2120 369.01 324.96 19.07
7882 18.2140 401.05 350.53 19.86
7883 18.2160 432.22 389.58 20.58
7884 18.2180 500.22 447.78 21.94
7885 18.2200 581.57 521.23 23.72
7886 18.2220 678.62 571.59 25.77
7887 18.2240 635.01 552.91 25.14
7888 18.2260 567.93 496.32 23.65
7889 18.2280 479.37 450.06 21.54
7890 18.2300 469.07 424.10 21.44
7891 18.2320 452.01 413.49 21.15
7892 18.2340 466.82 412.81 21.53
7893 18.2360 457.29 418.58 21.28
7894 18.2380 443.76 428.76 20.66
7895 18.2400 471.90 442.29 21.45
7896 18.2420 487.56 458.53 21.94
7897 18.2440 535.24 477.21 22.97
7898 18.2460 572.21 498.35 23.82
7899 18.2480 567.48 522.16 23.48
7900 18.2500 556.82 549.28 23.25
7901 18.2520 621.74 580.77 24.84
7902 18.2540 675.41 618.54 25.90
7903 18.2560 707.94 665.28 26.48
7904 18.2580 770.25 724.99 27.22
7905 18.2600 808.35 803.26 28.13
7906 18.2620 894.74 909.15 29.81
7907 18.2640 1071.29 1060.69 32.66
7908 18.2660 1246.66 1287.38 35.29
7909 18.2680 1604.85 1633.58 39.70
7910 18.2700 2032.60 2154.91 44.89
7911 18.2720 3074.54 2889.53 55.81
7912 18.2740 3797.86 3721.08 62.48
7913 18.2760 4355.79 4246.58 67.08
7914 18.2780 4110.91 4265.53 64.26
7915 18.2800 4090.64 4273.80 64.51
7916 18.2820 4819.36 4758.03 70.85
7917 18.2840 5805.73 5521.35 78.14
7918 18.2860 5802.21 5470.32 78.13
7919 18.2880 4410.44 4325.01 66.67
7920 18.2900 3181.63 3156.22 56.56
7921 18.2920 2465.52 2410.53 49.63
7922 18.2940 1952.00 2024.41 44.52
7923 18.2960 1795.69 1888.67 42.49
7924 18.2980 1810.35 1955.23 42.12
7925 18.3000 2155.05 2243.53 46.14
7926 18.3020 2680.19 2838.00 52.10
7927 18.3040 3905.87 3834.53 63.24
7928 18.3060 5330.96 5041.68 74.82
7929 18.3080 5357.96 5479.70 73.94
7930 18.3100 4492.07 4713.43 67.59
7931 18.3120 3787.21 3846.53 62.05
7932 18.3140 3362.65 3560.78 58.82
7933 18.3160 3743.56 3956.17 61.89
7934 18.3180 5342.18 4906.65 73.80
7935 18.3200 5891.91 5608.01 78.06
7936 18.3220 5014.38 4950.05 71.95
7937 18.3240 3628.33 3565.53 61.04
7938 18.3260 2279.88 2453.34 48.01
7939 18.3280 1658.07 1749.92 40.29
7940 18.3300 1211.24 1322.33 34.41
7941 18.3320 942.10 1055.39 30.46
7942 18.3340 819.51 879.65 28.54
7943 18.3360 748.86 757.90 27.22
7944 18.3380 685.92 669.58 25.79
7945 18.3400 606.80 603.59 24.31
7946 18.3420 571.19 553.17 23.60
7947 18.3440 529.96 513.79 23.00
7948 18.3460 564.98 482.70 23.61
7949 18.3480 473.12 457.89 21.33
7950 18.3500 505.15 438.02 22.13
7951 18.3520 478.90 422.12 21.66
7952 18.3540 491.74 409.31 22.05
7953 18.3560 477.98 399.46 21.63
7954 18.3580 443.56 392.02 20.73
7955 18.3600 439.82 386.77 20.61
7956 18.3620 456.42 383.58 21.06
7957 18.3640 471.79 382.38 21.68
7958 18.3660 430.09 383.19 20.58
7959 18.3680 445.41 386.13 20.61
7960 18.3700 423.53 391.58 20.22
7961 18.3720 390.93 399.46 19.52
7962 18.3740 480.94 410.41 21.87
7963 18.3760 479.65 425.31 21.63
7964 18.3780 502.45 444.67 21.91
7965 18.3800 501.29 470.00 21.97
7966 18.3820 578.81 503.28 23.75
7967 18.3840 584.28 547.41 24.06
7968 18.3860 612.99 606.99 24.45
7969 18.3880 731.29 689.28 26.52
7970 18.3900 819.14 807.37 28.18
7971 18.3920 1040.65 983.48 32.01
7972 18.3940 1302.49 1254.59 36.04
7973 18.3960 1747.63 1676.53 41.64
7974 18.3980 2330.79 2313.13 47.75
7975 18.4000 3176.97 3161.37 56.31
7976 18.4020 4061.94 3920.56 64.21
7977 18.4040 4135.65 3974.28 65.40
7978 18.4060 3475.38 3267.33 59.27
7979 18.4080 2513.44 2415.52 49.73
7980 18.4100 1755.38 1763.26 41.58
7981 18.4120 1296.82 1332.54 35.64
7982 18.4140 981.90 1059.83 31.35
7983 18.4160 895.81 888.23 29.54
7984 18.4180 723.93 778.78 26.36
7985 18.4200 683.99 708.41 25.65
7986 18.4220 680.63 664.57 25.84
7987 18.4240 660.84 640.40 25.48
7988 18.4260 694.87 633.19 26.04
7989 18.4280 666.97 643.11 25.27
7990 18.4300 676.15 673.34 25.54
7991 18.4320 703.75 730.30 26.19
7992 18.4340 792.92 823.86 28.08
7993 18.4360 923.80 966.39 29.99
7994 18.4380 1160.20 1171.46 33.37
7995 18.4400 1327.28 1443.95 35.94
7996 18.4420 1745.98 1777.02 41.35
7997 18.4440 2104.78 2123.80 45.95
7998 18.4460 2435.31 2378.06 49.12
7999 18.4480 2437.71 2413.86 48.90
8000 18.4500 2295.67 2206.01 47.37
8001 18.4520 1919.88 1860.95 43.62
8002 18.4540 1484.82 1501.98 38.35
8003 18.4560 1141.08 1192.45 33.36
8004 18.4580 856.15 950.75 28.66
8005 18.4600 735.10 773.05 26.73
8006 18.4620 584.35 646.86 23.82
8007 18.4640 490.77 559.35 22.07
8008 18.4660 473.09 498.74 21.41
8009 18.4680 464.10 456.73 21.12
8010 18.4700 408.17 427.11 19.87
8011 18.4720 458.57 405.37 21.22
8012 18.4740 415.34 387.42 20.24
8013 18.4760 391.41 369.85 19.56
8014 18.4780 397.75 352.14 19.61
8015 18.4800 378.46 335.80 19.09
8016 18.4820 331.77 321.88 17.98
8017 18.4840 333.86 310.55 18.13
8018 18.4860 312.47 301.48 17.44
8019 18.4880 335.72 294.32 17.95
8020 18.4900 313.67 288.70 17.48
8021 18.4920 295.11 284.39 17.00
8022 18.4940 314.31 281.20 17.58
8023 18.4960 325.78 279.03 17.89
8024 18.4980 304.91 277.85 17.09
8025 18.5000 298.68 277.64 17.10
8026 18.5020 296.13 278.40 16.98
8027 18.5040 308.41 280.18 17.39
8028 18.5060 316.99 281.18 17.59
8029 18.5080 326.10 285.07 17.72
8030 18.5100 300.96 290.00 17.11
8031 18.5120 294.00 295.93 17.05
8032 18.5140 302.74 302.76 17.21
8033 18.5160 294.00 310.36 17.01
8034 18.5180 345.44 318.46 18.19
8035 18.5200 329.20 326.70 17.95
8036 18.5220 346.52 334.63 18.52
8037 18.5240 331.97 341.70 18.07
8038 18.5260 352.95 347.34 18.69
8039 18.5280 360.01 351.09 18.59
8040 18.5300 369.96 350.82 19.18
8041 18.5320 380.30 349.88 19.42
8042 18.5340 411.45 346.46 20.15
8043 18.5360 379.34 340.74 19.33
8044 18.5380 394.62 333.11 19.55
8045 18.5400 345.84 322.99 18.44
8046 18.5420 356.13 311.45 18.83
8047 18.5440 319.84 301.78 17.77
8048 18.5460 336.54 292.45 18.26
8049 18.5480 339.58 283.79 18.12
8050 18.5500 284.51 276.02 16.89
8051 18.5520 308.21 269.27 17.49
8052 18.5540 296.54 263.61 17.21
8053 18.5560 302.54 259.09 17.32
8054 18.5580 272.82 255.72 16.20
8055 18.5600 273.83 253.52 16.47
8056 18.5620 275.21 252.56 16.55
8057 18.5640 240.67 252.94 15.48
8058 18.5660 274.05 254.90 16.48
8059 18.5680 285.95 258.81 16.69
8060 18.5700 278.84 265.43 16.61
8061 18.5720 346.34 275.31 18.58
8062 18.5740 327.86 289.69 18.02
8063 18.5760 368.29 309.75 19.15
8064 18.5780 400.65 336.61 19.73
8065 18.5800 444.22 371.12 20.93
8066 18.5820 468.04 413.09 21.57
8067 18.5840 510.02 463.31 22.55
8068 18.5860 581.83 529.39 24.06
8069 18.5880 694.15 628.35 25.91
8070 18.5900 819.95 755.09 28.48
8071 18.5920 851.68 817.73 29.21
8072 18.5940 797.12 741.98 28.17
8073 18.5960 631.83 624.91 24.99
8074 18.5980 538.73 524.50 22.88
8075 18.6000 435.83 437.38 20.69
8076 18.6020 350.09 374.83 18.61
8077 18.6040 353.88 337.89 18.74
8078 18.6060 347.97 319.50 18.60
8079 18.6080 327.66 312.78 17.80
8080 18.6100 358.73 310.64 18.74
8081 18.6120 322.02 304.61 17.87
8082 18.6140 311.41 291.01 17.58
8083 18.6160 297.53 274.37 17.15
8084 18.6180 324.14 259.61 17.66
8085 18.6200 263.15 248.26 16.07
8086 18.6220 254.81 239.99 15.91
8087 18.6240 242.85 234.08 15.47
8088 18.6260 266.54 229.78 16.24
8089 18.6280 241.83 226.57 15.29
8090 18.6300 243.62 224.09 15.44
8091 18.6320 234.44 222.11 15.15
8092 18.6340 232.18 220.48 15.18
8093 18.6360 232.25 219.12 15.14
8094 18.6380 255.73 217.99 15.67
8095 18.6400 261.44 217.03 15.94
8096 18.6420 221.53 216.22 14.75
8097 18.6440 281.53 215.55 16.69
8098 18.6460 250.48 215.00 15.70
8099 18.6480 231.48 214.56 14.97
8100 18.6500 246.93 214.22 15.52
8101 18.6520 246.22 213.98 15.55
8102 18.6540 247.04 213.84 15.58
8103 18.6560 237.08 213.80 15.31
8104 18.6580 265.92 213.86 15.95
8105 18.6600 228.50 214.04 14.89
8106 18.6620 238.86 214.34 15.22
8107 18.6640 228.96 214.78 15.03
8108 18.6660 247.76 213.86 15.58
8109 18.6680 210.15 214.65 14.25
8110 18.6700 224.78 215.64 14.80
8111 18.6720 256.42 216.86 15.85
8112 18.6740 227.36 218.34 14.90
8113 18.6760 241.41 220.11 15.45
8114 18.6780 274.89 222.22 16.24
8115 18.6800 240.40 224.71 15.24
8116 18.6820 255.21 227.62 15.79
8117 18.6840 282.52 231.01 16.66
8118 18.6860 232.76 234.96 15.18
8119 18.6880 248.31 239.59 15.41
8120 18.6900 303.38 245.04 17.23
8121 18.6920 289.61 251.55 16.84
8122 18.6940 289.09 259.36 16.85
8123 18.6960 266.65 268.71 16.16
8124 18.6980 291.62 279.77 16.73
8125 18.7000 315.27 292.37 17.45
8126 18.7020 342.95 305.71 18.30
8127 18.7040 337.75 317.71 18.20
8128 18.7060 336.12 325.14 18.21
8129 18.7080 347.56 325.51 18.33
8130 18.7100 349.32 319.59 18.42
8131 18.7120 320.33 310.38 17.74
8132 18.7140 311.98 300.44 17.56
8133 18.7160 330.17 290.97 18.02
8134 18.7180 297.48 282.43 16.90
8135 18.7200 271.45 274.84 16.20
8136 18.7220 283.54 268.10 16.65
8137 18.7240 258.55 262.07 15.92
8138 18.7260 280.73 256.61 16.67
8139 18.7280 275.81 251.66 16.29
8140 18.7300 264.87 247.16 16.03
8141 18.7320 279.62 243.09 16.56
8142 18.7340 238.21 239.44 15.37
8143 18.7360 245.06 236.21 15.46
8144 18.7380 274.29 233.40 16.23
8145 18.7400 228.22 230.98 14.84
8146 18.7420 234.10 228.96 15.11
8147 18.7440 240.70 227.29 15.39
8148 18.7460 263.19 225.97 16.14
8149 18.7480 242.63 224.96 15.28
8150 18.7500 240.57 224.23 15.33
8151 18.7520 218.25 223.74 14.64
8152 18.7540 218.14 223.50 14.67
8153 18.7560 262.84 223.48 16.11
8154 18.7580 236.75 223.64 15.08
8155 18.7600 242.67 223.98 15.32
8156 18.7620 242.61 224.48 15.46
8157 18.7640 202.46 225.13 14.11
8158 18.7660 235.61 225.93 15.24
8159 18.7680 247.49 226.88 15.45
8160 18.7700 223.77 227.97 14.71
8161 18.7720 243.64 229.21 15.48
8162 18.7740 248.89 230.61 15.67
8163 18.7760 251.30 232.18 15.73
8164 18.7780 258.35 233.93 15.71
8165 18.7800 220.88 235.89 14.63
8166 18.7820 240.83 238.06 15.33
8167 18.7840 229.77 240.54 15.07
8168 18.7860 216.56 243.24 14.64
8169 18.7880 239.79 246.26 15.15
8170 18.7900 239.23 249.65 15.29
8171 18.7920 266.26 253.45 16.17
8172 18.7940 249.55 257.72 15.67
8173 18.7960 266.27 262.56 16.14
8174 18.7980 274.81 268.05 16.25
8175 18.8000 276.56 274.30 16.38
8176 18.8020 299.10 281.46 17.17
8177 18.8040 304.78 289.72 17.33
8178 18.8060 295.36 299.32 17.12
8179 18.8080 301.86 310.55 17.02
8180 18.8100 272.73 323.89 16.22
8181 18.8120 314.49 339.96 17.61
8182 18.8140 363.35 359.68 18.89
8183 18.8160 369.22 383.69 19.04
8184 18.8180 386.89 415.99 19.18
8185 18.8200 462.95 458.97 21.14
8186 18.8220 488.34 516.96 21.82
8187 18.8240 557.37 596.05 23.47
8188 18.8260 670.29 702.84 25.63
8189 18.8280 803.33 843.71 27.92
8190 18.8300 1028.21 1023.83 31.53
8191 18.8320 1251.06 1242.76 35.07
8192 18.8340 1706.63 1493.96 41.37
8193 18.8360 2067.38 1763.49 45.40
8194 18.8380 2380.81 2025.90 48.18
8195 18.8400 2421.96 2235.34 49.02
8196 18.8420 2556.27 2328.89 50.67
8197 18.8440 2247.37 2269.33 47.39
8198 18.8460 2027.60 2075.81 45.13
8199 18.8480 1780.36 1808.22 41.68
8200 18.8500 1580.40 1526.66 39.39
8201 18.8520 1307.36 1268.58 35.89
8202 18.8540 1096.92 1050.31 33.18
8203 18.8560 962.23 875.72 30.84
8204 18.8580 816.36 741.65 28.06
8205 18.8600 740.10 641.98 26.84
8206 18.8620 671.30 568.85 25.61
8207 18.8640 579.21 515.54 23.98
8208 18.8660 547.83 476.58 23.23
8209 18.8680 502.31 447.72 22.03
8210 18.8700 502.32 426.06 22.04
8211 18.8720 461.62 409.42 21.28
8212 18.8740 440.71 396.33 20.90
8213 18.8760 387.55 385.67 19.50
8214 18.8780 365.09 376.66 18.74
8215 18.8800 389.49 368.72 19.43
8216 18.8820 390.50 361.38 19.52
8217 18.8840 379.81 354.36 19.37
8218 18.8860 376.65 347.46 19.26
8219 18.8880 381.00 340.60 19.18
8220 18.8900 368.96 333.78 18.96
8221 18.8920 373.40 327.04 19.08
8222 18.8940 380.06 320.47 19.41
8223 18.8960 324.48 314.14 17.87
8224 18.8980 340.27 308.14 18.02
8225 18.9000 305.07 302.59 17.15
8226 18.9020 326.65 297.57 17.87
8227 18.9040 286.78 293.21 16.78
8228 18.9060 309.57 289.69 17.47
8229 18.9080 313.26 287.21 17.33
8230 18.9100 294.54 286.08 16.90
8231 18.9120 316.62 286.80 17.62
8232 18.9140 318.57 290.14 17.73
8233 18.9160 331.39 297.21 18.02
8234 18.9180 336.54 309.55 17.99
8235 18.9200 341.69 328.86 18.16
8236 18.9220 421.23 356.69 20.34
8237 18.9240 403.96 393.56 20.05
8238 18.9260 522.93 436.73 22.68
8239 18.9280 597.76 477.04 24.03
8240 18.9300 560.82 497.68 23.34
8241 18.9320 505.34 486.17 22.27
8242 18.9340 471.95 448.70 21.60
8243 18.9360 424.39 402.66 20.43
8244 18.9380 359.15 360.51 18.51
8245 18.9400 357.48 327.07 18.64
8246 18.9420 326.75 302.64 17.97
8247 18.9440 298.64 286.07 17.19
8248 18.9460 310.76 275.77 17.46
8249 18.9480 298.92 270.18 16.95
8250 18.9500 289.43 268.17 16.78
8251 18.9520 263.80 268.84 16.06
8252 18.9540 292.45 271.64 17.05
8253 18.9560 288.97 275.99 16.79
8254 18.9580 294.73 281.29 16.81
8255 18.9600 290.09 286.68 16.85
8256 18.9620 286.04 290.99 16.74
8257 18.9640 324.05 292.81 17.85
8258 18.9660 276.76 291.09 16.51
8259 18.9680 307.88 285.81 17.19
8260 18.9700 298.48 277.96 17.00
8261 18.9720 292.34 268.94 17.01
8262 18.9740 249.40 259.89 15.74
8263 18.9760 246.49 251.56 15.50
8264 18.9780 253.31 244.32 15.58
8265 18.9800 242.45 238.29 15.33
8266 18.9820 254.47 233.47 15.77
8267 18.9840 223.62 229.77 14.90
8268 18.9860 262.43 227.04 16.05
8269 18.9880 227.86 225.15 14.77
8270 18.9900 229.19 223.99 14.91
8271 18.9920 237.20 223.51 15.30
8272 18.9940 231.32 223.70 15.11
8273 18.9960 227.57 224.67 14.95
8274 18.9980 235.82 226.66 15.00
8275 19.0000 233.51 230.28 15.10
8276 19.0020 245.30 236.43 15.49
8277 19.0040 265.61 247.01 16.22
8278 19.0060 292.75 264.70 16.98
8279 19.0080 324.60 291.01 17.61
8280 19.0100 359.62 317.79 18.75
8281 19.0120 347.52 317.51 18.45
8282 19.0140 315.76 291.26 17.61
8283 19.0160 286.96 264.34 16.76
8284 19.0180 239.98 246.07 15.12
8285 19.0200 251.30 234.88 15.59
8286 19.0220 260.42 228.03 15.95
8287 19.0240 278.69 223.71 16.58
8288 19.0260 238.70 220.84 15.32
8289 19.0280 228.41 218.85 14.84
8290 19.0300 228.30 217.44 14.90
8291 19.0320 247.27 216.42 15.58
8292 19.0340 251.27 215.67 15.73
8293 19.0360 225.68 215.13 14.88
8294 19.0380 214.00 214.76 14.32
8295 19.0400 245.23 214.51 15.39
8296 19.0420 239.89 214.37 15.30
8297 19.0440 251.25 215.96 15.76
8298 19.0460 232.92 216.01 15.18
8299 19.0480 232.47 216.14 14.90
8300 19.0500 239.92 216.35 15.30
8301 19.0520 245.60 216.62 15.53
8302 19.0540 200.27 216.98 14.05
8303 19.0560 247.62 217.41 15.52
8304 19.0580 253.11 217.94 15.57
8305 19.0600 238.13 218.57 15.16
8306 19.0620 240.64 219.33 15.31
8307 19.0640 234.57 220.23 15.14
8308 19.0660 237.26 221.31 15.27
8309 19.0680 228.01 222.61 14.73
8310 19.0700 250.07 224.21 15.59
8311 19.0720 258.55 226.17 15.89
8312 19.0740 250.47 228.63 15.71
8313 19.0760 228.36 231.78 14.91
8314 19.0780 279.28 235.89 16.27
8315 19.0800 267.92 241.41 16.10
8316 19.0820 271.15 249.08 16.27
8317 19.0840 277.28 260.20 16.49
8318 19.0860 309.56 276.86 17.40
8319 19.0880 333.09 302.24 17.90
8320 19.0900 348.80 339.48 18.36
8321 19.0920 381.21 385.36 19.37
8322 19.0940 451.01 416.32 21.05
8323 19.0960 439.29 404.13 20.67
8324 19.0980 399.83 364.83 19.47
8325 19.1000 319.27 329.02 17.67
8326 19.1020 305.82 305.47 17.24
8327 19.1040 302.33 291.82 17.31
8328 19.1060 293.48 284.66 16.90
8329 19.1080 296.85 281.46 16.80
8330 19.1100 286.61 280.65 16.66
8331 19.1120 313.67 281.20 17.49
8332 19.1140 301.26 282.48 17.27
8333 19.1160 316.33 284.01 17.45
8334 19.1180 292.86 285.41 16.72
8335 19.1200 292.98 286.43 16.74
8336 19.1220 306.64 286.86 17.25
8337 19.1240 317.99 286.62 17.72
8338 19.1260 319.60 285.74 17.55
8339 19.1280 289.84 284.30 16.65
8340 19.1300 282.52 282.42 16.56
8341 19.1320 320.92 280.32 17.63
8342 19.1340 297.53 278.14 17.12
8343 19.1360 309.28 276.05 17.31
8344 19.1380 300.52 274.20 16.94
8345 19.1400 316.83 272.70 17.51
8346 19.1420 300.08 271.67 17.12
8347 19.1440 320.77 271.72 17.78
8348 19.1460 310.65 271.96 17.34
8349 19.1480 331.19 273.01 17.79
8350 19.1500 306.82 275.02 17.22
8351 19.1520 339.88 278.20 18.24
8352 19.1540 344.52 282.83 18.39
8353 19.1560 310.91 289.29 17.36
8354 19.1580 328.71 298.03 17.74
8355 19.1600 360.22 309.58 18.64
8356 19.1620 368.83 324.41 18.88
8357 19.1640 433.19 342.95 20.70
8358 19.1660 371.39 365.23 18.99
8359 19.1680 467.98 390.62 21.20
8360 19.1700 477.05 417.47 21.47
8361 19.1720 537.57 442.26 22.97
8362 19.1740 497.45 460.58 22.08
8363 19.1760 540.08 469.84 22.87
8364 19.1780 548.06 471.59 23.06
8365 19.1800 517.61 469.96 22.38
8366 19.1820 499.38 468.64 22.00
8367 19.1840 519.82 470.32 22.70
8368 19.1860 538.46 477.90 22.91
8369 19.1880 513.76 494.91 22.13
8370 19.1900 549.05 524.96 23.17
8371 19.1920 648.41 571.37 25.12
8372 19.1940 600.15 637.02 24.29
8373 19.1960 705.06 724.34 26.19
8374 19.1980 795.14 834.86 27.71
8375 19.2000 877.30 967.97 29.18
8376 19.2020 1021.69 1120.94 31.71
8377 19.2040 1171.09 1285.56 34.11
8378 19.2060 1316.98 1447.26 35.92
8379 19.2080 1435.94 1582.74 37.29
8380 19.2100 1576.91 1664.80 39.44
8381 19.2120 1627.47 1673.42 40.19
8382 19.2140 1620.74 1608.61 40.11
8383 19.2160 1515.95 1490.49 38.55
8384 19.2180 1399.10 1347.86 36.89
8385 19.2200 1169.56 1206.48 33.89
8386 19.2220 994.96 1084.39 31.37
8387 19.2240 912.93 994.54 30.03
8388 19.2260 796.28 942.19 27.95
8389 19.2280 828.14 912.59 28.23
8390 19.2300 772.11 871.65 27.70
8391 19.2320 695.06 827.98 26.22
8392 19.2340 701.68 820.68 26.45
8393 19.2360 747.74 869.99 26.93
8394 19.2380 868.04 993.31 29.04
8395 19.2400 1113.22 1224.14 33.13
8396 19.2420 1478.60 1619.02 38.50
8397 19.2440 2196.39 2232.02 47.20
8398 19.2460 3142.37 2949.57 56.24
8399 19.2480 3464.24 3234.26 58.90
8400 19.2500 2738.31 2743.02 52.74
8401 19.2520 1924.20 2002.90 44.05
8402 19.2540 1332.25 1434.86 36.43
8403 19.2560 1049.12 1071.41 32.17
8404 19.2580 837.19 847.11 28.48
8405 19.2600 729.98 707.97 26.84
8406 19.2620 584.61 620.70 24.10
8407 19.2640 600.17 567.54 24.46
8408 19.2660 564.87 540.45 23.49
8409 19.2680 560.87 537.55 23.29
8410 19.2700 624.90 561.85 24.88
8411 19.2720 632.97 617.80 25.01
8412 19.2740 783.63 697.36 27.92
8413 19.2760 806.29 749.83 28.18
8414 19.2780 699.86 710.75 26.12
8415 19.2800 611.52 610.04 24.50
8416 19.2820 545.75 515.66 23.23
8417 19.2840 443.80 449.10 21.06
8418 19.2860 409.52 405.79 19.95
8419 19.2880 398.44 377.91 19.62
8420 19.2900 387.41 359.98 19.53
8421 19.2920 374.54 348.56 19.18
8422 19.2940 367.66 341.60 19.07
8423 19.2960 394.37 338.20 19.68
8424 19.2980 380.88 337.68 19.14
8425 19.3000 388.39 339.19 19.56
8426 19.3020 386.91 343.95 19.50
8427 19.3040 368.62 351.54 19.19
8428 19.3060 404.76 362.38 19.88
8429 19.3080 418.97 377.15 20.13
8430 19.3100 447.11 396.95 20.97
8431 19.3120 431.39 423.40 20.58
8432 19.3140 494.14 459.24 22.16
8433 19.3160 528.78 509.01 22.66
8434 19.3180 541.34 580.14 22.85
8435 19.3200 654.07 685.05 25.41
8436 19.3220 791.65 841.41 27.98
8437 19.3240 1005.52 1072.26 31.62
8438 19.3260 1323.21 1399.07 36.16
8439 19.3280 1788.07 1821.81 41.88
8440 19.3300 2456.41 2262.58 49.71
8441 19.3320 2695.80 2510.63 52.10
8442 19.3340 2640.04 2380.80 51.87
8443 19.3360 2085.12 1975.37 45.47
8444 19.3380 1566.85 1530.51 39.16
8445 19.3400 1124.75 1168.00 33.38
8446 19.3420 833.45 906.33 28.73
8447 19.3440 631.70 726.77 25.06
8448 19.3460 574.97 606.11 23.72
8449 19.3480 486.80 524.10 21.71
8450 19.3500 430.05 466.87 20.53
8451 19.3520 420.96 425.39 20.34
8452 19.3540 414.67 394.24 20.30
8453 19.3560 349.99 370.19 18.49
8454 19.3580 360.52 351.23 18.69
8455 19.3600 322.09 336.09 17.83
8456 19.3620 316.95 323.88 17.65
8457 19.3640 298.77 314.03 17.22
8458 19.3660 298.95 306.07 17.12
8459 19.3680 275.58 299.68 16.34
8460 19.3700 298.29 294.65 17.13
8461 19.3720 300.56 290.77 17.25
8462 19.3740 272.63 287.95 16.35
8463 19.3760 289.67 286.09 16.88
8464 19.3780 267.71 285.15 16.09
8465 19.3800 301.66 285.12 17.21
8466 19.3820 311.67 286.01 17.60
8467 19.3840 285.96 288.25 16.81
8468 19.3860 312.56 291.24 17.51
8469 19.3880 296.58 295.55 16.98
8470 19.3900 305.65 301.49 17.40
8471 19.3920 308.65 309.59 17.51
8472 19.3940 347.92 320.61 18.61
8473 19.3960 345.04 335.70 18.37
8474 19.3980 328.48 356.38 17.87
8475 19.4000 403.84 384.70 19.94
8476 19.4020 418.12 422.98 20.36
8477 19.4040 450.65 473.58 21.17
8478 19.4060 543.39 538.84 23.13
8479 19.4080 661.79 619.91 25.37
8480 19.4100 729.23 716.36 26.80
8481 19.4120 973.61 824.56 31.26
8482 19.4140 1108.97 935.70 33.14
8483 19.4160 1121.12 1033.35 33.41
8484 19.4180 1226.62 1095.16 34.59
8485 19.4200 1136.64 1102.57 33.53
8486 19.4220 1056.40 1052.98 32.51
8487 19.4240 946.14 962.25 30.66
8488 19.4260 822.32 852.97 28.67
8489 19.4280 737.56 743.22 26.84
8490 19.4300 684.86 643.80 26.01
8491 19.4320 570.61 559.32 23.80
8492 19.4340 483.39 490.81 21.90
8493 19.4360 482.72 437.52 21.76
8494 19.4380 393.58 397.25 19.47
8495 19.4400 386.15 367.73 19.44
8496 19.4420 389.15 346.56 19.63
8497 19.4440 353.82 331.74 18.69
8498 19.4460 345.22 322.29 18.48
8499 19.4480 302.56 315.79 17.12
8500 19.4500 337.83 312.15 18.21
8501 19.4520 309.21 310.96 17.51
8502 19.4540 313.53 312.05 17.62
8503 19.4560 296.27 315.49 17.16
8504 19.4580 332.08 321.58 17.91
8505 19.4600 333.60 330.89 18.11
8506 19.4620 333.78 344.36 18.14
8507 19.4640 340.56 363.82 18.41
8508 19.4660 375.77 392.13 19.22
8509 19.4680 416.20 433.82 20.13
8510 19.4700 425.84 495.29 20.47
8511 19.4720 613.86 585.04 24.57
8512 19.4740 817.61 711.46 28.43
8513 19.4760 1021.26 879.50 31.91
8514 19.4780 1260.92 1080.04 34.98
8515 19.4800 1542.87 1269.55 39.09
8516 19.4820 1450.50 1362.56 38.09
8517 19.4840 1279.08 1298.87 35.73
8518 19.4860 1194.84 1120.18 34.40
8519 19.4880 978.24 914.38 30.89
8520 19.4900 838.67 736.64 28.71
8521 19.4920 743.64 600.42 27.08
8522 19.4940 596.58 502.28 24.25
8523 19.4960 507.82 434.00 22.39
8524 19.4980 477.45 386.92 21.53
8525 19.5000 445.90 354.06 20.84
8526 19.5020 372.66 330.48 19.14
8527 19.5040 337.85 312.86 18.28
8528 19.5060 358.30 299.25 18.78
8529 19.5080 306.44 288.40 17.20
8530 19.5100 321.39 279.56 17.72
8531 19.5120 292.14 272.23 16.91
8532 19.5140 286.90 266.07 16.79
8533 19.5160 295.51 260.85 17.08
8534 19.5180 245.56 256.40 15.42
8535 19.5200 248.37 252.61 15.54
8536 19.5220 252.42 249.40 15.70
8537 19.5240 244.64 246.70 15.56
8538 19.5260 258.03 244.49 15.96
8539 19.5280 264.51 242.73 15.99
8540 19.5300 256.06 241.41 15.79
8541 19.5320 254.06 240.51 15.85
8542 19.5340 251.53 239.85 15.74
8543 19.5360 269.72 239.75 16.29
8544 19.5380 245.24 240.05 15.34
8545 19.5400 232.84 240.70 15.07
8546 19.5420 255.69 241.69 15.80
8547 19.5440 287.25 242.97 16.79
8548 19.5460 246.87 244.51 15.60
8549 19.5480 283.52 246.24 16.53
8550 19.5500 238.97 248.07 15.24
8551 19.5520 233.99 249.91 15.14
8552 19.5540 240.79 251.65 15.45
8553 19.5560 273.11 253.14 16.32
8554 19.5580 306.82 254.26 17.20
8555 19.5600 263.99 254.92 16.06
8556 19.5620 240.38 254.95 15.40
8557 19.5640 257.30 254.37 15.87
8558 19.5660 269.26 253.19 16.28
8559 19.5680 263.13 251.49 15.93
8560 19.5700 290.05 249.38 16.80
8561 19.5720 279.61 246.96 16.58
8562 19.5740 236.87 244.34 15.25
8563 19.5760 246.51 241.64 15.64
8564 19.5780 255.07 238.98 15.63
8565 19.5800 271.67 236.51 16.28
8566 19.5820 230.99 234.31 15.04
8567 19.5840 243.25 232.49 15.50
8568 19.5860 247.21 231.11 15.61
8569 19.5880 235.01 230.24 15.06
8570 19.5900 250.69 229.91 15.62
8571 19.5920 228.79 230.15 15.00
8572 19.5940 231.63 230.96 15.04
8573 19.5960 244.47 232.31 15.56
8574 19.5980 270.53 234.15 16.13
8575 19.6000 234.10 236.34 15.03
8576 19.6020 246.70 238.71 15.60
8577 19.6040 242.12 240.99 15.43
8578 19.6060 259.29 242.89 15.98
8579 19.6080 266.11 244.09 15.98
8580 19.6100 252.29 244.41 15.71
8581 19.6120 238.96 243.79 15.32
8582 19.6140 235.77 242.28 15.20
8583 19.6160 268.31 240.06 16.28
8584 19.6180 258.27 237.35 15.74
8585 19.6200 221.29 234.31 14.66
8586 19.6220 242.47 231.27 15.42
8587 19.6240 234.52 228.35 15.18
8588 19.6260 245.53 225.67 15.55
8589 19.6280 240.46 223.29 15.21
8590 19.6300 224.99 221.24 14.77
8591 19.6320 217.21 219.53 14.63
8592 19.6340 209.63 218.16 14.30
8593 19.6360 230.44 217.09 15.08
8594 19.6380 249.14 216.32 15.45
8595 19.6400 237.06 215.83 15.21
8596 19.6420 182.28 214.76 13.37
8597 19.6440 228.85 214.88 15.00
8598 19.6460 226.32 215.37 14.95
8599 19.6480 197.63 216.36 13.80
8600 19.6500 228.66 217.97 14.92
8601 19.6520 237.60 220.13 15.24
8602 19.6540 273.21 222.00 16.40
8603 19.6560 232.73 222.16 15.07
8604 19.6580 225.45 220.60 14.75
8605 19.6600 259.73 218.79 15.84
8606 19.6620 219.54 217.51 14.68
8607 19.6640 238.60 216.81 15.25
8608 19.6660 220.45 216.57 14.78
8609 19.6680 242.05 216.63 15.26
8610 19.6700 239.81 216.93 15.29
8611 19.6720 187.07 217.39 13.53
8612 19.6740 248.14 217.99 15.64
8613 19.6760 210.84 218.74 14.40
8614 19.6780 230.49 219.61 14.92
8615 19.6800 260.62 220.61 15.90
8616 19.6820 224.71 221.74 14.77
8617 19.6840 223.21 223.01 14.81
8618 19.6860 221.91 224.44 14.78
8619 19.6880 237.39 226.04 15.13
8620 19.6900 234.24 227.81 15.10
8621 19.6920 242.54 229.79 15.40
8622 19.6940 280.88 231.99 16.60
8623 19.6960 252.42 234.45 15.81
8624 19.6980 271.11 237.21 16.14
8625 19.7000 258.82 240.31 15.86
8626 19.7020 228.55 243.83 14.96
8627 19.7040 265.83 247.86 16.21
8628 19.7060 258.65 252.55 15.97
8629 19.7080 252.96 258.06 15.54
8630 19.7100 260.05 264.65 15.94
8631 19.7120 304.36 272.71 17.20
8632 19.7140 287.36 282.80 16.78
8633 19.7160 284.51 295.84 16.73
8634 19.7180 307.73 313.16 17.20
8635 19.7200 315.38 336.76 17.48
8636 19.7220 367.02 369.36 18.97
8637 19.7240 433.98 414.16 20.68
8638 19.7260 477.93 474.84 21.76
8639 19.7280 558.58 554.28 23.24
8640 19.7300 678.30 653.75 25.70
8641 19.7320 760.07 769.70 27.33
8642 19.7340 881.75 889.71 29.56
8643 19.7360 979.69 987.61 31.18
8644 19.7380 1044.64 1029.02 31.82
8645 19.7400 1074.67 996.30 32.49
8646 19.7420 997.51 905.86 31.22
8647 19.7440 845.85 791.90 28.92
8648 19.7460 681.30 680.90 26.00
8649 19.7480 564.49 586.91 23.42
8650 19.7500 437.05 513.09 20.66
8651 19.7520 385.98 458.72 19.47
8652 19.7540 345.02 420.84 18.44
8653 19.7560 333.88 396.29 18.08
8654 19.7580 343.14 382.16 18.20
8655 19.7600 356.19 376.36 18.58
8656 19.7620 350.54 377.66 18.54
8657 19.7640 348.33 385.51 18.49
8658 19.7660 357.40 399.34 18.87
8659 19.7680 397.34 417.07 19.62
8660 19.7700 401.36 432.92 19.91
8661 19.7720 454.43 438.81 21.15
8662 19.7740 416.32 434.11 20.32
8663 19.7760 411.93 427.02 20.15
8664 19.7780 437.30 425.26 20.61
8665 19.7800 425.63 432.38 20.42
8666 19.7820 453.60 449.55 21.09
8667 19.7840 429.99 477.07 20.61
8668 19.7860 507.35 514.84 22.37
8669 19.7880 514.22 562.35 22.43
8670 19.7900 567.00 618.08 23.58
8671 19.7920 661.85 679.47 25.53
8672 19.7940 642.59 741.49 25.17
8673 19.7960 671.42 796.54 25.80
8674 19.7980 761.44 834.80 27.18
8675 19.8000 785.17 847.08 27.71
8676 19.8020 815.58 829.46 28.39
8677 19.8040 783.56 785.69 27.77
8678 19.8060 701.15 724.63 26.42
8679 19.8080 640.14 656.25 24.95
8680 19.8100 527.99 588.13 22.74
8681 19.8120 453.18 525.07 21.10
8682 19.8140 430.62 469.72 20.64
8683 19.8160 404.54 423.08 19.98
8684 19.8180 373.19 385.23 19.03
8685 19.8200 329.94 355.65 17.90
8686 19.8220 306.21 333.58 17.37
8687 19.8240 300.83 317.60 17.21
8688 19.8260 291.70 307.63 16.96
8689 19.8280 272.24 302.41 16.26
8690 19.8300 270.66 301.13 16.24
8691 19.8320 270.30 303.00 16.32
8692 19.8340 283.85 307.04 16.69
8693 19.8360 300.70 311.93 17.33
8694 19.8380 307.10 315.83 17.19
8695 19.8400 295.50 316.70 17.01
8696 19.8420 283.56 313.23 16.70
8697 19.8440 313.22 305.60 17.59
8698 19.8460 300.82 295.30 17.20
8699 19.8480 252.77 284.05 15.61
8700 19.8500 257.68 273.19 15.84
8701 19.8520 220.84 263.52 14.73
8702 19.8540 234.60 255.49 15.20
8703 19.8560 240.64 248.98 15.44
8704 19.8580 237.75 243.98 15.15
8705 19.8600 199.71 240.34 13.94
8706 19.8620 213.89 237.82 14.53
8707 19.8640 215.28 236.21 14.49
8708 19.8660 220.31 235.31 14.80
8709 19.8680 217.56 234.92 14.51
8710 19.8700 215.44 234.90 14.49
8711 19.8720 242.52 235.09 15.44
8712 19.8740 243.21 235.37 15.54
8713 19.8760 222.87 235.65 14.80
8714 19.8780 221.73 235.85 14.66
8715 19.8800 220.20 235.98 14.63
8716 19.8820 198.26 236.14 13.91
8717 19.8840 235.48 236.49 15.21
8718 19.8860 219.76 237.32 14.71
8719 19.8880 229.05 238.88 14.88
8720 19.8900 222.62 241.41 14.65
8721 19.8920 211.35 244.76 14.39
8722 19.8940 226.42 247.94 14.86
8723 19.8960 233.65 248.88 15.21
8724 19.8980 237.44 246.01 15.14
8725 19.9000 208.39 240.34 14.23
8726 19.9020 212.15 234.10 14.41
8727 19.9040 215.82 228.63 14.53
8728 19.9060 201.42 224.26 14.09
8729 19.9080 198.45 220.92 13.85
8730 19.9100 201.11 218.13 13.98
8731 19.9120 205.69 216.19 14.15
8732 19.9140 224.14 214.68 14.90
8733 19.9160 192.53 213.48 13.77
8734 19.9180 207.49 212.51 14.13
8735 19.9200 210.86 211.72 14.30
8736 19.9220 190.27 211.11 13.70
8737 19.9240 197.51 210.65 13.88
8738 19.9260 194.59 210.37 13.90
8739 19.9280 209.45 210.26 14.24
8740 19.9300 215.86 210.38 14.47
8741 19.9320 214.59 210.78 14.49
8742 19.9340 207.50 211.53 14.24
8743 19.9360 199.40 212.76 14.01
8744 19.9380 205.49 214.63 14.06
8745 19.9400 206.68 217.31 14.15
8746 19.9420 204.02 221.00 14.07
8747 19.9440 179.55 225.80 13.34
8748 19.9460 206.88 231.68 14.27
8749 19.9480 219.45 238.25 14.55
8750 19.9500 197.95 244.48 13.84
8751 19.9520 216.40 248.49 14.57
8752 19.9540 232.05 248.37 15.07
8753 19.9560 228.10 243.99 15.02
8754 19.9580 239.22 237.23 15.21
8755 19.9600 232.04 230.19 14.96
8756 19.9620 229.95 224.08 15.03
8757 19.9640 203.42 219.33 14.11
8758 19.9660 213.70 215.90 14.51
8759 19.9680 222.13 213.48 14.62
8760 19.9700 195.56 211.62 13.83
8761 19.9720 231.98 209.93 15.07
8762 19.9740 188.99 208.34 13.64
8763 19.9760 226.76 206.96 14.98
8764 19.9780 185.95 205.85 13.44
8765 19.9800 190.77 205.01 13.59
8766 19.9820 188.78 204.41 13.68
8767 19.9840 170.76 204.01 12.89
8768 19.9860 182.87 203.76 13.44
8769 19.9880 200.94 203.65 13.95
8770 19.9900 203.95 204.71 14.08
8771 19.9920 176.95 204.81 13.21
8772 19.9940 195.11 204.99 13.83
8773 19.9960 197.49 205.25 14.00
8774 19.9980 216.46 205.56 14.46
8775 20.0000 209.58 205.93 14.31
8776 20.0020 186.91 206.34 13.58
8777 20.0040 210.41 206.78 14.34
8778 20.0060 184.75 207.24 13.52
8779 20.0080 199.24 207.71 13.91
8780 20.0100 193.02 208.19 13.70
8781 20.0120 176.21 208.69 13.16
8782 20.0140 193.75 209.22 13.79
8783 20.0160 190.28 209.83 13.74
8784 20.0180 186.44 210.56 13.43
8785 20.0200 206.21 211.47 14.15
8786 20.0220 183.71 212.63 13.45
8787 20.0240 208.12 214.12 14.33
8788 20.0260 223.88 216.03 14.87
8789 20.0280 233.89 218.50 15.05
8790 20.0300 223.26 221.71 14.73
8791 20.0320 238.76 225.93 15.35
8792 20.0340 234.69 231.49 15.15
8793 20.0360 255.99 238.51 15.96
8794 20.0380 252.57 246.06 15.60
8795 20.0400 263.07 251.16 16.02
8796 20.0420 260.69 251.93 16.04
8797 20.0440 223.94 250.68 14.82
8798 20.0460 224.33 249.90 14.86
8799 20.0480 243.75 250.00 15.35
8800 20.0500 238.50 250.56 15.22
8801 20.0520 242.60 251.90 15.44
8802 20.0540 226.13 252.02 14.90
8803 20.0560 225.61 251.50 14.94
8804 20.0580 266.31 250.31 16.02
8805 20.0600 248.58 248.52 15.55
8806 20.0620 234.76 246.26 15.18
8807 20.0640 224.34 243.75 14.84
8808 20.0660 219.41 241.15 14.79
8809 20.0680 231.97 238.63 14.93
8810 20.0700 227.24 236.32 14.88
8811 20.0720 242.90 234.34 15.45
8812 20.0740 228.98 232.79 14.97
8813 20.0760 196.05 231.74 13.93
8814 20.0780 190.03 231.32 13.55
8815 20.0800 204.67 231.64 14.09
8816 20.0820 218.68 232.94 14.60
8817 20.0840 204.88 235.58 14.16
8818 20.0860 222.91 240.16 14.87
8819 20.0880 201.59 247.55 13.93
8820 20.0900 208.48 258.23 14.26
8821 20.0920 242.40 269.51 15.41
8822 20.0940 267.93 273.03 16.14
8823 20.0960 213.89 265.89 14.56
8824 20.0980 237.45 255.78 15.11
8825 20.1000 204.09 247.26 14.11
8826 20.1020 182.98 240.56 13.38
8827 20.1040 217.13 235.18 14.57
8828 20.1060 189.65 230.76 13.68
8829 20.1080 209.21 227.07 14.23
8830 20.1100 191.46 223.96 13.61
8831 20.1120 178.02 221.31 13.15
8832 20.1140 204.04 219.07 14.07
8833 20.1160 194.72 217.16 13.88
8834 20.1180 199.96 215.54 13.82
8835 20.1200 201.51 214.15 13.96
8836 20.1220 182.72 212.98 13.31
8837 20.1240 181.38 212.00 13.29
8838 20.1260 194.40 211.20 13.86
8839 20.1280 194.43 210.58 13.73
8840 20.1300 172.24 210.13 12.91
8841 20.1320 189.37 209.88 13.56
8842 20.1340 198.18 209.82 13.89
8843 20.1360 201.89 209.98 14.05
8844 20.1380 204.61 210.35 14.01
8845 20.1400 233.11 210.95 15.03
8846 20.1420 207.53 211.73 14.18
8847 20.1440 216.10 212.61 14.57
8848 20.1460 214.38 213.44 14.54
8849 20.1480 205.41 214.08 14.06
8850 20.1500 182.13 214.54 13.32
8851 20.1520 223.24 215.01 14.76
8852 20.1540 191.72 215.41 13.65
8853 20.1560 204.35 216.34 14.18
8854 20.1580 194.89 217.57 13.66
8855 20.1600 202.37 219.02 14.04
8856 20.1620 201.19 220.54 13.95
8857 20.1640 215.93 221.90 14.52
8858 20.1660 198.42 222.84 13.98
8859 20.1680 195.24 223.27 13.73
8860 20.1700 212.30 223.30 14.35
8861 20.1720 212.26 223.16 14.42
8862 20.1740 190.10 223.10 13.63
8863 20.1760 220.45 223.27 14.70
8864 20.1780 208.12 223.79 14.20
8865 20.1800 211.16 224.70 14.35
8866 20.1820 216.20 226.04 14.55
8867 20.1840 246.84 227.83 15.51
8868 20.1860 187.43 230.10 13.63
8869 20.1880 232.03 232.91 15.00
8870 20.1900 222.98 236.30 14.73
8871 20.1920 213.80 240.35 14.49
8872 20.1940 237.56 245.18 15.20
8873 20.1960 243.93 250.92 15.52
8874 20.1980 219.26 257.80 14.56
8875 20.2000 245.01 266.05 15.47
8876 20.2020 240.75 276.05 15.35
8877 20.2040 272.24 288.25 16.35
8878 20.2060 255.18 303.33 15.85
8879 20.2080 278.96 322.20 16.40
8880 20.2100 313.79 346.02 17.50
8881 20.2120 352.70 376.51 18.60
8882 20.2140 345.09 416.07 18.44
8883 20.2160 432.77 469.73 20.61
8884 20.2180 506.43 547.40 22.16
8885 20.2200 610.59 666.19 24.45
8886 20.2220 781.95 855.11 27.88
8887 20.2240 1091.19 1159.10 32.77
8888 20.2260 1675.55 1629.07 41.05
8889 20.2280 2313.09 2232.07 47.81
8890 20.2300 2564.85 2635.19 50.67
8891 20.2320 2299.51 2410.04 48.22
8892 20.2340 1710.76 1813.56 41.25
8893 20.2360 1168.12 1287.77 34.24
8894 20.2380 853.22 935.39 28.66
8895 20.2400 724.40 714.72 26.69
8896 20.2420 546.97 576.57 23.20
8897 20.2440 455.35 486.87 21.14
8898 20.2460 412.35 426.12 20.19
8899 20.2480 373.08 383.30 19.03
8900 20.2500 326.31 351.98 17.81
8901 20.2520 323.93 328.51 17.90
8902 20.2540 282.73 310.51 16.60
8903 20.2560 277.84 296.45 16.57
8904 20.2580 284.99 285.25 16.59
8905 20.2600 250.77 276.19 15.63
8906 20.2620 251.22 268.76 15.79
8907 20.2640 248.69 262.56 15.59
8908 20.2660 248.70 257.35 15.70
8909 20.2680 226.22 252.93 14.77
8910 20.2700 263.18 249.17 16.05
8911 20.2720 228.21 246.00 14.97
8912 20.2740 238.44 243.37 15.32
8913 20.2760 220.09 241.30 14.77
8914 20.2780 231.82 239.80 15.00
8915 20.2800 226.32 239.00 14.84
8916 20.2820 248.03 239.10 15.65
8917 20.2840 216.33 240.47 14.56
8918 20.2860 234.57 243.78 15.25
8919 20.2880 233.72 250.08 15.07
8920 20.2900 231.69 260.42 15.07
8921 20.2920 246.24 273.94 15.57
8922 20.2940 253.82 281.95 15.78
8923 20.2960 269.80 276.08 16.36
8924 20.2980 254.41 263.32 15.68
8925 20.3000 245.45 252.89 15.46
8926 20.3020 210.18 246.84 14.37
8927 20.3040 231.17 243.49 15.08
8928 20.3060 250.64 242.01 15.70
8929 20.3080 245.89 241.60 15.42
8930 20.3100 228.11 241.70 14.96
8931 20.3120 222.01 241.98 14.76
8932 20.3140 238.54 242.16 15.26
8933 20.3160 236.36 242.12 15.22
8934 20.3180 249.52 241.76 15.53
8935 20.3200 228.02 241.13 14.89
8936 20.3220 240.28 240.31 15.34
8937 20.3240 237.99 239.41 15.21
8938 20.3260 237.18 238.57 15.33
8939 20.3280 224.52 237.89 14.71
8940 20.3300 228.51 237.46 14.91
8941 20.3320 220.53 237.36 14.70
8942 20.3340 218.52 237.64 14.60
8943 20.3360 234.31 238.34 15.19
8944 20.3380 229.94 239.54 14.93
8945 20.3400 239.69 241.26 15.31
8946 20.3420 233.19 243.59 15.15
8947 20.3440 275.75 246.58 16.38
8948 20.3460 245.29 250.31 15.64
8949 20.3480 249.92 254.90 15.52
8950 20.3500 266.39 260.50 16.08
8951 20.3520 282.58 267.28 16.66
8952 20.3540 279.74 275.53 16.53
8953 20.3560 288.79 285.59 16.86
8954 20.3580 326.86 297.98 17.68
8955 20.3600 285.25 313.37 16.65
8956 20.3620 332.20 333.06 18.02
8957 20.3640 360.21 358.46 18.71
8958 20.3660 378.12 392.42 19.38
8959 20.3680 435.96 439.27 20.44
8960 20.3700 502.13 505.75 22.06
8961 20.3720 590.29 600.71 24.02
8962 20.3740 715.65 734.52 26.42
8963 20.3760 911.79 917.93 30.03
8964 20.3780 1136.68 1155.16 33.17
8965 20.3800 1485.43 1430.43 38.07
8966 20.3820 1842.14 1685.09 42.71
8967 20.3840 1890.03 1810.25 43.30
8968 20.3860 1844.81 1731.18 42.89
8969 20.3880 1501.00 1497.52 38.15
8970 20.3900 1107.29 1220.61 32.95
8971 20.3920 901.63 973.56 29.70
8972 20.3940 647.62 779.77 25.19
8973 20.3960 502.35 637.02 22.23
8974 20.3980 501.64 536.14 21.94
8975 20.4000 364.12 466.10 18.73
8976 20.4020 359.55 417.44 18.70
8977 20.4040 335.17 383.05 18.05
8978 20.4060 295.31 357.94 17.05
8979 20.4080 294.91 338.84 16.79
8980 20.4100 291.38 323.81 16.82
8981 20.4120 295.46 311.23 16.94
8982 20.4140 257.94 300.40 15.90
8983 20.4160 268.53 290.93 16.15
8984 20.4180 276.50 282.64 16.26
8985 20.4200 259.47 275.42 15.79
8986 20.4220 272.98 269.30 16.25
8987 20.4240 265.47 264.27 16.11
8988 20.4260 230.39 260.36 14.96
8989 20.4280 239.25 257.55 15.11
8990 20.4300 262.58 255.83 15.93
8991 20.4320 246.80 255.20 15.46
8992 20.4340 245.73 255.58 15.52
8993 20.4360 215.71 256.92 14.44
8994 20.4380 240.36 259.08 15.19
8995 20.4400 251.28 261.91 15.58
8996 20.4420 271.73 265.17 16.17
8997 20.4440 274.95 268.55 16.39
8998 20.4460 265.82 271.67 16.07
8999 20.4480 267.22 274.14 16.05
9000 20.4500 245.52 275.58 15.36
9001 20.4520 265.33 275.66 16.02
9002 20.4540 248.43 274.25 15.57
9003 20.4560 265.80 271.41 16.02
9004 20.4580 291.06 267.62 16.77
9005 20.4600 258.39 262.85 15.79
9006 20.4620 271.22 257.67 16.22
9007 20.4640 252.90 252.44 15.77
9008 20.4660 223.78 247.39 14.77
9009 20.4680 244.96 242.72 15.40
9010 20.4700 255.67 238.53 15.80
9011 20.4720 254.74 234.89 15.76
9012 20.4740 225.87 230.81 14.86
9013 20.4760 238.35 228.32 15.22
9014 20.4780 223.14 226.38 14.67
9015 20.4800 228.08 224.93 14.88
9016 20.4820 221.71 223.93 14.72
9017 20.4840 236.67 223.33 15.21
9018 20.4860 213.36 223.06 14.49
9019 20.4880 207.91 223.07 14.20
9020 20.4900 226.07 223.31 14.83
9021 20.4920 225.51 223.75 14.88
9022 20.4940 224.45 224.34 14.79
9023 20.4960 222.28 225.09 14.75
9024 20.4980 243.35 225.98 15.29
9025 20.5000 220.31 227.03 14.72
9026 20.5020 255.90 228.26 15.81
9027 20.5040 238.61 229.72 15.25
9028 20.5060 230.96 231.43 15.04
9029 20.5080 231.10 233.45 14.94
9030 20.5100 262.43 235.80 16.04
9031 20.5120 223.22 238.51 14.81
9032 20.5140 257.95 241.64 15.84
9033 20.5160 222.26 245.20 14.75
9034 20.5180 250.25 249.24 15.54
9035 20.5200 226.48 253.82 14.87
9036 20.5220 276.01 259.04 16.49
9037 20.5240 222.30 265.08 14.78
9038 20.5260 258.93 272.21 15.93
9039 20.5280 244.21 280.80 15.38
9040 20.5300 293.87 290.89 17.09
9041 20.5320 283.03 301.46 16.67
9042 20.5340 263.44 311.76 16.03
9043 20.5360 287.59 323.73 16.86
9044 20.5380 319.62 340.60 17.53
9045 20.5400 326.16 367.72 17.95
9046 20.5420 396.19 411.90 19.83
9047 20.5440 531.66 474.43 22.89
9048 20.5460 543.92 531.20 23.16
9049 20.5480 544.32 528.56 23.11
9050 20.5500 459.46 467.36 21.41
9051 20.5520 386.10 401.19 19.67
9052 20.5540 331.17 353.76 18.01
9053 20.5560 307.40 323.45 17.50
9054 20.5580 279.73 304.60 16.48
9055 20.5600 312.95 292.84 17.61
9056 20.5620 285.74 285.57 16.84
9057 20.5640 255.81 281.28 15.87
9058 20.5660 254.82 279.18 15.88
9059 20.5680 279.96 278.89 16.52
9060 20.5700 271.85 280.28 16.45
9061 20.5720 262.60 283.33 16.17
9062 20.5740 277.08 288.05 16.56
9063 20.5760 295.70 294.22 17.19
9064 20.5780 323.98 300.84 17.71
9065 20.5800 320.38 305.48 17.78
9066 20.5820 325.37 305.05 17.98
9067 20.5840 276.49 299.05 16.47
9068 20.5860 279.38 290.19 16.67
9069 20.5880 289.48 281.29 16.80
9070 20.5900 271.51 273.68 16.37
9071 20.5920 270.43 267.68 16.40
9072 20.5940 235.15 263.30 15.20
9073 20.5960 262.70 260.57 16.20
9074 20.5980 265.73 259.69 16.06
9075 20.6000 258.66 261.20 15.96
9076 20.6020 265.90 266.03 16.23
9077 20.6040 268.47 275.16 16.23
9078 20.6060 290.67 287.40 17.01
9079 20.6080 299.69 295.15 17.05
9080 20.6100 306.98 291.44 17.36
9081 20.6120 313.32 283.85 17.62
9082 20.6140 301.40 281.87 17.14
9083 20.6160 314.25 288.68 17.61
9084 20.6180 272.60 304.94 16.29
9085 20.6200 309.91 328.21 17.44
9086 20.6220 315.24 347.39 17.63
9087 20.6240 357.46 345.52 18.77
9088 20.6260 325.20 323.18 17.96
9089 20.6280 277.12 297.32 16.41
9090 20.6300 269.41 277.89 16.26
9091 20.6320 244.70 266.09 15.55
9092 20.6340 257.21 260.50 15.90
9093 20.6360 229.41 259.58 15.07
9094 20.6380 254.04 262.22 15.70
9095 20.6400 296.04 267.60 16.97
9096 20.6420 298.93 275.04 17.15
9097 20.6440 317.64 283.95 17.61
9098 20.6460 318.55 294.17 17.78
9099 20.6480 326.04 306.75 17.80
9100 20.6500 324.78 324.64 17.80
9101 20.6520 358.60 351.01 18.79
9102 20.6540 373.92 380.72 19.15
9103 20.6560 385.94 389.74 19.46
9104 20.6580 370.67 363.99 18.95
9105 20.6600 326.70 328.21 17.82
9106 20.6620 295.04 302.78 16.98
9107 20.6640 304.03 290.07 17.23
9108 20.6660 313.65 286.71 17.59
9109 20.6680 271.95 287.45 16.23
9110 20.6700 312.10 286.02 17.40
9111 20.6720 256.65 279.26 15.92
9112 20.6740 297.15 269.66 17.00
9113 20.6760 273.56 260.69 16.42
9114 20.6780 263.24 253.71 15.96
9115 20.6800 252.95 248.83 15.71
9116 20.6820 236.70 245.83 15.18
9117 20.6840 240.45 244.52 15.31
9118 20.6860 253.07 244.69 15.84
9119 20.6880 263.67 246.10 16.00
9120 20.6900 238.51 248.37 15.21
9121 20.6920 221.71 250.94 14.77
9122 20.6940 225.61 253.01 14.81
9123 20.6960 222.28 253.69 14.79
9124 20.6980 264.81 252.34 16.05
9125 20.7000 236.06 248.91 15.18
9126 20.7020 219.60 243.95 14.68
9127 20.7040 221.70 238.28 14.61
9128 20.7060 235.67 232.60 15.33
9129 20.7080 247.33 227.43 15.44
9130 20.7100 234.11 223.02 15.15
9131 20.7120 219.10 219.52 14.67
9132 20.7140 253.24 217.00 15.72
9133 20.7160 219.67 215.49 14.72
9134 20.7180 217.48 215.04 14.47
9135 20.7200 234.34 215.74 15.11
9136 20.7220 220.75 217.82 14.65
9137 20.7240 224.93 221.65 14.75
9138 20.7260 253.91 227.82 15.82
9139 20.7280 237.14 236.86 15.16
9140 20.7300 273.12 248.11 16.33
9141 20.7320 271.48 257.15 16.28
9142 20.7340 268.56 257.84 16.14
9143 20.7360 253.35 251.68 15.80
9144 20.7380 234.55 245.15 15.05
9145 20.7400 267.23 241.16 16.16
9146 20.7420 250.37 239.12 15.63
9147 20.7440 256.98 239.39 15.82
9148 20.7460 253.22 240.72 15.84
9149 20.7480 263.44 242.60 15.98
9150 20.7500 243.51 244.63 15.38
9151 20.7520 249.96 246.50 15.68
9152 20.7540 267.03 247.97 16.10
9153 20.7560 268.81 248.80 16.31
9154 20.7580 264.29 248.85 15.95
9155 20.7600 246.20 248.05 15.53
9156 20.7620 276.37 246.43 16.45
9157 20.7640 259.19 244.09 15.86
9158 20.7660 270.88 241.20 16.35
9159 20.7680 221.66 237.94 14.69
9160 20.7700 261.36 236.65 15.92
9161 20.7720 241.20 233.20 15.43
9162 20.7740 240.40 229.87 15.21
9163 20.7760 227.85 226.76 15.01
9164 20.7780 198.70 223.96 13.84
9165 20.7800 221.67 221.59 14.74
9166 20.7820 227.04 219.71 14.86
9167 20.7840 274.61 218.43 16.40
9168 20.7860 232.01 217.89 15.15
9169 20.7880 211.91 218.24 14.29
9170 20.7900 241.48 219.71 15.35
9171 20.7920 217.90 222.50 14.65
9172 20.7940 206.17 226.74 14.16
9173 20.7960 237.06 232.81 15.35
9174 20.7980 247.65 240.61 15.46
9175 20.8000 236.11 249.79 15.20
9176 20.8020 262.96 259.44 16.00
9177 20.8040 261.44 267.66 15.96
9178 20.8060 287.67 271.93 16.88
9179 20.8080 258.05 272.39 15.75
9180 20.8100 252.76 265.74 15.71
9181 20.8120 260.76 256.11 15.94
9182 20.8140 246.33 245.80 15.50
9183 20.8160 247.76 236.25 15.63
9184 20.8180 212.07 228.09 14.32
9185 20.8200 212.65 221.43 14.37
9186 20.8220 208.52 216.19 14.28
9187 20.8240 207.23 212.14 14.19
9188 20.8260 206.02 209.05 14.27
9189 20.8280 237.81 206.69 15.13
9190 20.8300 214.70 204.87 14.46
9191 20.8320 200.67 203.44 14.01
9192 20.8340 217.53 202.29 14.55
9193 20.8360 220.95 201.37 14.83
9194 20.8380 212.25 200.62 14.25
9195 20.8400 215.52 200.01 14.47
9196 20.8420 180.17 199.54 13.24
9197 20.8440 233.78 199.17 15.12
9198 20.8460 196.93 198.91 13.95
9199 20.8480 195.35 198.74 13.75
9200 20.8500 208.23 198.67 14.20
9201 20.8520 202.30 198.69 14.02
9202 20.8540 200.07 198.80 14.01
9203 20.8560 195.06 198.98 13.84
9204 20.8580 199.44 199.28 13.88
9205 20.8600 222.69 199.68 14.71
9206 20.8620 213.88 200.17 14.47
9207 20.8640 193.47 200.77 13.69
9208 20.8660 210.68 201.47 14.36
9209 20.8680 212.71 202.28 14.35
9210 20.8700 202.20 203.19 14.03
9211 20.8720 241.66 204.19 15.36
9212 20.8740 193.98 205.29 13.76
9213 20.8760 214.41 206.46 14.58
9214 20.8780 203.11 207.69 14.04
9215 20.8800 182.25 208.96 13.29
9216 20.8820 203.45 210.24 14.08
9217 20.8840 212.75 211.49 14.36
9218 20.8860 215.59 212.67 14.54
9219 20.8880 213.30 213.73 14.42
9220 20.8900 218.98 214.62 14.63
9221 20.8920 208.44 215.29 14.25
9222 20.8940 243.92 215.72 15.41
9223 20.8960 233.77 215.89 15.18
9224 20.8980 244.01 215.82 15.30
9225 20.9000 227.11 215.52 14.88
9226 20.9020 226.78 215.05 14.87
9227 20.9040 210.05 214.39 14.26
9228 20.9060 219.34 213.72 14.67
9229 20.9080 215.22 212.96 14.39
9230 20.9100 225.74 212.27 14.83
9231 20.9120 201.94 211.62 14.07
9232 20.9140 226.39 211.05 14.81
9233 20.9160 219.77 210.56 14.68
9234 20.9180 203.14 210.20 13.98
9235 20.9200 214.56 209.95 14.46
9236 20.9220 216.63 209.84 14.51
9237 20.9240 234.51 209.89 15.08
9238 20.9260 204.23 210.11 14.19
9239 20.9280 215.10 210.52 14.44
9240 20.9300 227.32 211.15 14.91
9241 20.9320 257.67 212.02 15.87
9242 20.9340 234.62 213.17 15.14
9243 20.9360 242.75 214.58 15.42
9244 20.9380 241.00 216.22 15.29
9245 20.9400 243.27 217.95 15.45
9246 20.9420 248.27 219.51 15.67
9247 20.9440 221.81 220.68 14.68
9248 20.9460 232.23 221.46 15.14
9249 20.9480 248.12 222.11 15.51
9250 20.9500 239.26 222.90 15.26
9251 20.9520 222.89 223.97 14.82
9252 20.9540 227.42 225.37 14.83
9253 20.9560 214.59 227.19 14.52
9254 20.9580 208.50 229.15 14.15
9255 20.9600 246.65 231.28 15.58
9256 20.9620 256.83 233.56 15.84
9257 20.9640 252.36 236.03 15.75
9258 20.9660 238.12 238.81 15.42
9259 20.9680 250.58 242.00 15.60
9260 20.9700 248.23 245.72 15.59
9261 20.9720 232.88 250.07 15.14
9262 20.9740 257.59 255.13 15.86
9263 20.9760 252.05 260.96 15.78
9264 20.9780 265.51 267.63 15.96
9265 20.9800 294.84 275.14 16.98
9266 20.9820 286.68 283.44 16.78
9267 20.9840 309.25 292.46 17.36
9268 20.9860 302.92 302.15 17.24
9269 20.9880 312.66 312.59 17.37
9270 20.9900 346.59 324.17 18.34
9271 20.9920 292.12 337.39 16.91
9272 20.9940 327.68 352.93 17.85
9273 20.9960 326.48 371.51 17.93
9274 20.9980 377.38 394.02 19.03
9275 21.0000 381.64 421.72 19.29
9276 21.0020 397.78 456.41 19.75
9277 21.0040 412.93 501.22 20.00
9278 21.0060 505.88 560.95 22.32
9279 21.0080 572.32 643.89 23.53
9280 21.0100 637.71 764.24 24.96
9281 21.0120 784.72 946.21 27.81
9282 21.0140 1063.66 1225.06 32.35
9283 21.0160 1623.35 1645.07 40.26
9284 21.0180 2344.12 2209.66 48.07
9285 21.0200 2945.00 2718.85 54.26
9286 21.0220 2869.06 2791.69 53.67
9287 21.0240 2447.64 2472.96 49.45
9288 21.0260 2061.56 2149.39 45.41
9289 21.0280 1956.16 1971.36 43.96
9290 21.0300 1926.44 1903.22 43.80
9291 21.0320 1835.40 1868.89 42.90
9292 21.0340 1699.88 1805.54 40.93
9293 21.0360 1594.60 1689.41 39.88
9294 21.0380 1412.77 1535.89 37.15
9295 21.0400 1249.75 1377.08 35.05
9296 21.0420 1131.96 1239.68 33.39
9297 21.0440 1034.24 1141.15 31.80
9298 21.0460 1034.01 1094.38 32.04
9299 21.0480 1108.52 1114.39 32.93
9300 21.0500 1194.18 1223.91 34.30
9301 21.0520 1512.52 1456.75 38.79
9302 21.0540 1955.08 1841.77 43.96
9303 21.0560 2282.22 2317.73 47.80
9304 21.0580 2487.85 2567.67 49.36
9305 21.0600 2093.42 2304.26 45.73
9306 21.0620 1741.99 1790.90 41.42
9307 21.0640 1271.79 1356.58 35.22
9308 21.0660 961.51 1068.74 30.78
9309 21.0680 788.19 895.62 27.69
9310 21.0700 704.50 800.01 26.21
9311 21.0720 698.59 758.68 26.16
9312 21.0740 738.35 757.87 26.88
9313 21.0760 742.57 784.75 27.07
9314 21.0780 808.36 824.40 28.00
9315 21.0800 802.01 876.73 28.02
9316 21.0820 949.71 969.23 30.46
9317 21.0840 1212.56 1126.64 34.51
9318 21.0860 1525.63 1356.99 38.92
9319 21.0880 1984.97 1638.79 44.08
9320 21.0900 2067.26 1883.89 45.34
9321 21.0920 2049.51 1948.12 45.19
9322 21.0940 1714.94 1774.57 41.11
9323 21.0960 1442.27 1471.74 37.74
9324 21.0980 1281.22 1169.95 35.25
9325 21.1000 1043.74 926.28 31.99
9326 21.1020 831.60 746.12 28.51
9327 21.1040 711.30 617.97 26.46
9328 21.1060 633.41 528.15 24.87
9329 21.1080 495.48 464.46 21.83
9330 21.1100 432.62 418.32 20.52
9331 21.1120 428.99 383.75 20.45
9332 21.1140 394.55 357.08 19.61
9333 21.1160 386.22 335.92 19.44
9334 21.1180 361.14 318.80 18.63
9335 21.1200 343.06 304.77 18.19
9336 21.1220 288.43 293.10 16.76
9337 21.1240 314.69 283.33 17.52
9338 21.1260 314.20 275.10 17.51
9339 21.1280 307.25 268.13 17.20
9340 21.1300 307.47 262.23 17.25
9341 21.1320 271.94 257.23 16.25
9342 21.1340 288.92 253.02 16.77
9343 21.1360 304.48 249.51 17.23
9344 21.1380 319.88 246.61 17.50
9345 21.1400 294.37 244.28 16.92
9346 21.1420 246.87 242.46 15.41
9347 21.1440 277.18 241.11 16.42
9348 21.1460 288.85 240.20 16.80
9349 21.1480 292.66 239.69 16.79
9350 21.1500 299.62 239.55 17.03
9351 21.1520 279.84 239.74 16.52
9352 21.1540 259.40 240.26 15.84
9353 21.1560 275.14 241.08 16.35
9354 21.1580 265.59 242.24 16.02
9355 21.1600 299.52 243.84 17.00
9356 21.1620 294.28 246.15 16.88
9357 21.1640 304.85 249.56 17.22
9358 21.1660 290.25 254.36 16.83
9359 21.1680 323.11 259.33 17.71
9360 21.1700 313.50 260.10 17.40
9361 21.1720 301.01 254.20 17.15
9362 21.1740 317.12 245.80 17.61
9363 21.1760 265.33 238.54 16.05
9364 21.1780 257.03 233.00 15.81
9365 21.1800 269.54 228.75 16.15
9366 21.1820 249.27 225.40 15.62
9367 21.1840 250.04 222.69 15.50
9368 21.1860 275.35 220.47 16.37
9369 21.1880 228.21 218.66 14.89
9370 21.1900 244.29 217.24 15.40
9371 21.1920 249.24 216.20 15.58
9372 21.1940 242.53 215.58 15.36
9373 21.1960 232.27 215.45 14.97
9374 21.1980 248.58 215.95 15.50
9375 21.2000 261.54 217.30 15.96
9376 21.2020 275.99 219.87 16.42
9377 21.2040 242.76 224.03 15.32
9378 21.2060 267.65 229.49 16.17
9379 21.2080 283.62 233.71 16.56
9380 21.2100 236.36 233.55 15.18
9381 21.2120 236.51 230.78 15.24
9382 21.2140 256.75 228.81 15.78
9383 21.2160 267.51 228.66 16.11
9384 21.2180 267.62 230.08 16.05
9385 21.2200 253.62 232.68 15.78
9386 21.2220 228.62 236.14 14.98
9387 21.2240 272.89 240.21 16.35
9388 21.2260 275.75 244.67 16.42
9389 21.2280 267.57 249.26 16.12
9390 21.2300 279.16 253.67 16.58
9391 21.2320 267.52 257.55 16.21
9392 21.2340 288.17 260.54 16.74
9393 21.2360 296.72 262.32 17.05
9394 21.2380 283.24 262.76 16.56
9395 21.2400 320.14 261.91 17.73
9396 21.2420 309.73 260.07 17.46
9397 21.2440 300.33 257.63 17.11
9398 21.2460 297.48 255.05 17.08
9399 21.2480 277.80 252.76 16.35
9400 21.2500 263.45 251.24 16.10
9401 21.2520 293.52 250.99 17.04
9402 21.2540 258.93 252.67 15.87
9403 21.2560 284.29 257.19 16.69
9404 21.2580 307.80 265.68 17.29
9405 21.2600 276.39 278.96 16.50
9406 21.2620 325.43 294.94 17.86
9407 21.2640 334.24 306.62 18.15
9408 21.2660 308.03 308.06 17.40
9409 21.2680 328.51 303.69 17.88
9410 21.2700 330.69 301.02 18.08
9411 21.2720 301.69 301.82 17.25
9412 21.2740 355.21 304.27 18.67
9413 21.2760 328.90 309.59 18.00
9414 21.2780 325.45 315.97 17.79
9415 21.2800 297.98 318.66 17.16
9416 21.2820 304.68 312.35 17.29
9417 21.2840 305.12 301.21 17.33
9418 21.2860 285.71 292.79 16.76
9419 21.2880 279.66 289.80 16.55
9420 21.2900 287.73 291.91 16.79
9421 21.2920 260.44 298.07 16.01
9422 21.2940 279.95 307.06 16.56
9423 21.2960 326.00 317.33 17.85
9424 21.2980 331.55 327.09 17.94
9425 21.3000 327.87 335.01 17.91
9426 21.3020 315.64 341.43 17.65
9427 21.3040 339.99 348.45 18.27
9428 21.3060 339.48 358.96 18.29
9429 21.3080 389.78 375.88 19.52
9430 21.3100 449.39 402.25 21.02
9431 21.3120 452.79 440.58 21.13
9432 21.3140 506.15 496.09 22.24
9433 21.3160 548.08 570.99 23.24
9434 21.3180 662.08 666.92 25.47
9435 21.3200 750.90 784.26 27.17
9436 21.3220 879.26 921.40 29.52
9437 21.3240 1090.86 1070.89 32.77
9438 21.3260 1252.12 1208.76 35.22
9439 21.3280 1319.46 1294.07 36.08
9440 21.3300 1412.77 1290.87 37.43
9441 21.3320 1348.15 1200.09 36.72
9442 21.3340 1102.52 1058.68 32.88
9443 21.3360 920.91 908.17 30.30
9444 21.3380 696.54 772.20 26.09
9445 21.3400 569.66 658.84 23.71
9446 21.3420 453.47 568.59 21.10
9447 21.3440 439.55 499.83 20.79
9448 21.3460 384.44 450.17 19.42
9449 21.3480 356.36 415.79 18.63
9450 21.3500 358.20 392.98 18.79
9451 21.3520 332.31 378.58 18.11
9452 21.3540 325.81 370.33 17.79
9453 21.3560 356.55 366.86 18.74
9454 21.3580 352.35 367.53 18.53
9455 21.3600 358.93 372.37 18.77
9456 21.3620 403.54 382.14 20.03
9457 21.3640 403.98 397.92 19.88
9458 21.3660 408.24 421.16 20.08
9459 21.3680 416.77 453.44 20.18
9460 21.3700 437.76 496.27 20.80
9461 21.3720 511.67 550.81 22.53
9462 21.3740 569.84 617.33 23.58
9463 21.3760 602.66 695.24 24.35
9464 21.3780 679.32 781.68 25.72
9465 21.3800 788.80 870.82 27.86
9466 21.3820 883.94 953.01 29.69
9467 21.3840 957.09 1014.85 30.70
9468 21.3860 1041.31 1042.69 32.28
9469 21.3880 1061.58 1028.90 32.34
9470 21.3900 1032.84 976.40 32.00
9471 21.3920 846.50 896.91 29.14
9472 21.3940 823.39 804.75 28.44
9473 21.3960 687.48 711.09 26.14
9474 21.3980 574.28 623.53 23.63
9475 21.4000 493.90 545.77 22.10
9476 21.4020 419.54 479.49 20.35
9477 21.4040 348.28 424.64 18.47
9478 21.4060 330.71 380.33 18.11
9479 21.4080 331.36 345.32 18.04
9480 21.4100 294.71 318.17 17.02
9481 21.4120 290.99 296.94 17.02
9482 21.4140 229.50 280.45 14.95
9483 21.4160 213.64 267.52 14.51
9484 21.4180 248.70 257.24 15.58
9485 21.4200 252.98 248.92 15.71
9486 21.4220 231.72 242.05 15.14
9487 21.4240 218.78 236.24 14.59
9488 21.4260 224.05 230.67 14.88
9489 21.4280 232.40 226.39 15.07
9490 21.4300 211.30 222.64 14.39
9491 21.4320 211.40 219.33 14.45
9492 21.4340 207.93 216.39 14.27
9493 21.4360 201.80 213.77 14.10
9494 21.4380 206.79 211.42 14.21
9495 21.4400 207.23 209.31 14.22
9496 21.4420 203.73 207.40 14.20
9497 21.4440 193.12 205.66 13.76
9498 21.4460 188.75 204.09 13.62
9499 21.4480 187.22 202.65 13.48
9500 21.4500 195.48 201.33 13.81
9501 21.4520 178.33 200.12 13.31
9502 21.4540 180.54 199.00 13.24
9503 21.4560 216.15 197.96 14.58
9504 21.4580 187.64 197.00 13.53
9505 21.4600 209.76 196.10 14.31
9506 21.4620 199.64 195.26 14.07
9507 21.4640 214.69 194.45 14.50
9508 21.4660 186.33 193.71 13.55
9509 21.4680 175.59 193.00 13.06
9510 21.4700 191.10 192.34 13.73
9511 21.4720 182.67 191.71 13.43
9512 21.4740 190.50 191.11 13.62
9513 21.4760 191.45 190.55 13.72
9514 21.4780 217.79 190.02 14.59
9515 21.4800 185.99 189.52 13.45
9516 21.4820 183.22 189.05 13.44
9517 21.4840 182.00 188.62 13.35
9518 21.4860 208.21 188.20 14.34
9519 21.4880 201.52 187.82 13.97
9520 21.4900 188.99 187.46 13.61
9521 21.4920 193.62 187.13 13.79
9522 21.4940 201.01 186.83 14.03
9523 21.4960 200.99 186.56 14.06
9524 21.4980 174.10 186.31 13.05
9525 21.5000 196.88 186.09 13.89
9526 21.5020 168.95 185.90 12.88
9527 21.5040 178.69 185.37 13.23
9528 21.5060 177.33 185.25 13.22
9529 21.5080 180.03 185.15 13.29
9530 21.5100 188.67 185.09 13.63
9531 21.5120 177.20 185.05 13.25
9532 21.5140 174.23 185.03 13.04
9533 21.5160 187.99 185.04 13.54
9534 21.5180 172.95 185.07 13.01
9535 21.5200 200.22 185.10 13.98
9536 21.5220 194.35 185.15 13.81
9537 21.5240 192.77 185.21 13.72
9538 21.5260 204.59 185.27 14.20
9539 21.5280 174.77 185.35 13.06
9540 21.5300 204.92 185.45 14.19
9541 21.5320 196.08 185.60 13.91
9542 21.5340 193.45 185.81 13.75
9543 21.5360 193.51 186.11 13.73
9544 21.5380 203.17 186.53 14.05
9545 21.5400 201.46 187.10 14.05
9546 21.5420 172.61 187.87 13.10
9547 21.5440 212.31 188.85 14.34
9548 21.5460 202.94 190.09 14.07
9549 21.5480 182.46 191.62 13.43
9550 21.5500 204.30 193.48 14.12
9551 21.5520 199.38 195.69 14.03
9552 21.5540 181.07 198.25 13.24
9553 21.5560 195.80 201.18 13.88
9554 21.5580 200.08 204.42 13.89
9555 21.5600 193.10 207.97 13.77
9556 21.5620 214.37 211.72 14.48
9557 21.5640 199.32 215.51 14.02
9558 21.5660 206.02 219.18 14.20
9559 21.5680 214.35 222.47 14.47
9560 21.5700 201.69 225.13 14.07
9561 21.5720 211.45 226.90 14.43
9562 21.5740 210.08 227.61 14.26
9563 21.5760 203.83 227.19 14.14
9564 21.5780 207.52 225.71 14.24
9565 21.5800 202.68 223.33 14.09
9566 21.5820 225.92 220.32 14.93
9567 21.5840 197.68 216.92 13.89
9568 21.5860 221.04 213.36 14.71
9569 21.5880 212.01 209.79 14.39
9570 21.5900 197.28 206.31 13.89
9571 21.5920 190.80 203.03 13.72
9572 21.5940 172.08 199.99 12.95
9573 21.5960 181.44 197.27 13.35
9574 21.5980 199.10 194.95 13.95
9575 21.6000 188.42 193.05 13.60
9576 21.6020 195.94 191.62 13.85
9577 21.6040 177.83 190.65 13.21
9578 21.6060 175.43 190.18 13.14
9579 21.6080 192.41 190.21 13.67
9580 21.6100 174.30 190.75 13.05
9581 21.6120 173.94 191.80 13.07
9582 21.6140 204.17 193.35 14.09
9583 21.6160 205.75 195.35 14.14
9584 21.6180 187.23 197.62 13.52
9585 21.6200 178.73 199.92 13.21
9586 21.6220 197.00 201.85 13.92
9587 21.6240 183.90 202.91 13.43
9588 21.6260 188.86 202.77 13.62
9589 21.6280 196.38 201.44 13.84
9590 21.6300 193.12 199.30 13.73
9591 21.6320 163.09 196.83 12.68
9592 21.6340 178.25 194.41 13.20
9593 21.6360 178.83 192.28 13.20
9594 21.6380 191.30 190.55 13.63
9595 21.6400 164.30 189.26 12.68
9596 21.6420 179.02 188.40 13.28
9597 21.6440 193.01 187.93 13.69
9598 21.6460 187.88 187.83 13.57
9599 21.6480 182.83 188.04 13.36
9600 21.6500 181.59 188.52 13.31
9601 21.6520 161.34 189.24 12.60
9602 21.6540 176.56 190.17 13.19
9603 21.6560 190.06 191.27 13.60
9604 21.6580 168.61 192.51 12.77
9605 21.6600 183.80 193.89 13.43
9606 21.6620 167.49 195.35 12.85
9607 21.6640 194.14 196.88 13.74
9608 21.6660 180.70 198.42 13.28
9609 21.6680 203.49 199.94 14.08
9610 21.6700 201.41 201.36 13.99
9611 21.6720 200.45 202.64 14.02
9612 21.6740 196.59 203.69 13.87
9613 21.6760 220.98 204.56 14.70
9614 21.6780 206.05 205.02 14.10
9615 21.6800 160.69 205.12 12.54
9616 21.6820 192.28 204.89 13.76
9617 21.6840 176.35 204.34 13.11
9618 21.6860 173.61 203.51 13.04
9619 21.6880 196.21 202.48 13.83
9620 21.6900 188.49 201.29 13.62
9621 21.6920 175.45 200.00 13.15
9622 21.6940 189.94 198.64 13.63
9623 21.6960 206.05 197.34 14.21
9624 21.6980 177.90 196.01 13.13
9625 21.7000 162.29 194.71 12.58
9626 21.7020 171.77 193.49 13.05
9627 21.7040 162.13 192.33 12.55
9628 21.7060 194.78 191.26 13.79
9629 21.7080 182.89 190.27 13.32
9630 21.7100 159.33 190.05 12.49
9631 21.7120 171.01 189.26 12.96
9632 21.7140 176.28 188.57 13.10
9633 21.7160 179.86 187.98 13.25
9634 21.7180 166.55 187.50 12.68
9635 21.7200 186.65 187.13 13.51
9636 21.7220 178.10 186.89 13.22
9637 21.7240 179.00 186.77 13.22
9638 21.7260 185.24 186.80 13.47
9639 21.7280 184.01 186.98 13.36
9640 21.7300 185.43 187.33 13.45
9641 21.7320 180.82 187.88 13.31
9642 21.7340 171.26 188.78 12.89
9643 21.7360 184.53 189.80 13.38
9644 21.7380 178.02 191.10 13.12
9645 21.7400 174.43 192.71 13.05
9646 21.7420 201.76 194.65 14.06
9647 21.7440 193.09 196.90 13.70
9648 21.7460 190.62 199.46 13.65
9649 21.7480 213.18 202.23 14.39
9650 21.7500 175.53 205.10 13.10
9651 21.7520 183.69 207.94 13.47
9652 21.7540 182.21 210.68 13.32
9653 21.7560 180.84 213.04 13.26
9654 21.7580 185.43 215.77 13.42
9655 21.7600 196.06 218.60 13.80
9656 21.7620 175.31 221.49 13.09
9657 21.7640 190.30 224.43 13.59
9658 21.7660 199.14 227.28 13.92
9659 21.7680 213.24 229.82 14.43
9660 21.7700 204.37 231.78 14.12
9661 21.7720 169.87 232.82 12.95
9662 21.7740 212.16 232.70 14.38
9663 21.7760 208.75 231.33 14.29
9664 21.7780 207.84 228.87 14.21
9665 21.7800 199.68 225.65 14.01
9666 21.7820 221.99 222.09 14.76
9667 21.7840 182.61 218.52 13.34
9668 21.7860 194.18 215.26 13.79
9669 21.7880 221.06 212.51 14.66
9670 21.7900 163.35 210.41 12.64
9671 21.7920 173.59 209.09 13.13
9672 21.7940 198.80 208.67 13.95
9673 21.7960 195.01 209.23 13.84
9674 21.7980 186.41 210.89 13.50
9675 21.8000 206.13 213.70 14.19
9676 21.8020 223.61 217.68 14.90
9677 21.8040 232.30 222.73 15.03
9678 21.8060 197.39 228.64 13.89
9679 21.8080 255.78 234.95 15.79
9680 21.8100 259.89 240.96 15.97
9681 21.8120 262.69 245.65 16.14
9682 21.8140 246.67 247.96 15.48
9683 21.8160 229.33 247.24 15.01
9684 21.8180 237.37 243.60 15.14
9685 21.8200 259.14 237.89 15.92
9686 21.8220 219.67 231.20 14.74
9687 21.8240 241.56 224.49 15.36
9688 21.8260 223.98 218.41 14.79
9689 21.8280 229.69 213.39 14.99
9690 21.8300 231.77 209.65 15.02
9691 21.8320 218.27 207.31 14.70
9692 21.8340 232.46 206.43 15.12
9693 21.8360 224.22 206.97 14.80
9694 21.8380 194.00 208.84 13.72
9695 21.8400 234.95 211.80 15.16
9696 21.8420 233.57 215.40 15.19
9697 21.8440 237.80 218.89 15.18
9698 21.8460 238.53 221.20 15.30
9699 21.8480 234.35 221.36 15.11
9700 21.8500 235.54 219.04 15.17
9701 21.8520 217.80 214.83 14.67
9702 21.8540 228.29 209.70 14.96
9703 21.8560 222.89 204.52 14.78
9704 21.8580 189.32 199.78 13.62
9705 21.8600 196.79 195.72 13.83
9706 21.8620 180.39 192.38 13.38
9707 21.8640 206.61 189.73 14.25
9708 21.8660 206.00 187.68 14.19
9709 21.8680 186.72 186.12 13.49
9710 21.8700 198.40 184.95 13.89
9711 21.8720 168.26 184.08 12.90
9712 21.8740 177.75 183.44 13.20
9713 21.8760 208.55 182.96 14.30
9714 21.8780 195.28 182.62 13.73
9715 21.8800 165.50 182.38 12.69
9716 21.8820 168.95 182.23 12.94
9717 21.8840 179.77 182.16 13.27
9718 21.8860 184.20 182.16 13.44
9719 21.8880 178.79 182.24 13.17
9720 21.8900 187.37 182.40 13.52
9721 21.8920 172.53 182.63 13.06
9722 21.8940 170.81 182.96 12.93
9723 21.8960 194.11 183.40 13.74
9724 21.8980 175.83 183.98 13.11
9725 21.9000 169.11 184.71 12.80
9726 21.9020 169.23 185.65 12.95
9727 21.9040 173.79 186.87 13.03
9728 21.9060 193.86 188.48 13.82
9729 21.9080 191.07 190.64 13.55
9730 21.9100 205.48 193.64 14.18
9731 21.9120 218.22 197.86 14.70
9732 21.9140 204.54 203.81 14.14
9733 21.9160 230.87 211.96 15.01
9734 21.9180 235.15 222.07 15.11
9735 21.9200 242.53 231.69 15.34
9736 21.9220 234.52 236.06 15.17
9737 21.9240 227.37 233.73 14.95
9738 21.9260 221.17 229.41 14.69
9739 21.9280 216.99 227.74 14.53
9740 21.9300 244.46 231.14 15.40
9741 21.9320 244.83 240.73 15.51
9742 21.9340 267.25 256.33 16.13
9743 21.9360 274.94 272.33 16.37
9744 21.9380 273.51 276.43 16.32
9745 21.9400 252.12 266.32 15.71
9746 21.9420 233.51 253.82 15.11
9747 21.9440 252.62 246.23 15.70
9748 21.9460 225.51 244.22 14.87
9749 21.9480 206.79 246.86 14.16
9750 21.9500 207.69 253.42 14.19
9751 21.9520 230.16 263.08 15.02
9752 21.9540 236.43 274.05 15.22
9753 21.9560 252.07 279.85 15.66
9754 21.9580 250.56 275.82 15.58
9755 21.9600 212.35 266.89 14.32
9756 21.9620 227.91 258.79 14.98
9757 21.9640 236.30 253.01 15.23
9758 21.9660 217.03 249.20 14.60
9759 21.9680 217.75 246.81 14.51
9760 21.9700 236.06 245.43 15.14
9761 21.9720 204.51 244.88 14.16
9762 21.9740 221.63 245.27 14.74
9763 21.9760 201.73 247.14 14.09
9764 21.9780 232.34 251.47 15.06
9765 21.9800 245.50 259.73 15.49
9766 21.9820 269.78 273.64 16.31
9767 21.9840 314.72 293.30 17.54
9768 21.9860 309.31 312.12 17.40
9769 21.9880 332.59 315.16 18.02
9770 21.9900 292.95 298.62 16.92
9771 21.9920 244.39 276.64 15.50
9772 21.9940 273.81 259.40 16.43
9773 21.9960 229.17 248.44 15.01
9774 21.9980 226.42 242.38 14.89
9775 22.0000 198.96 239.80 13.92
9776 22.0020 200.63 239.77 14.10
9777 22.0040 235.46 241.80 15.22
9778 22.0060 207.70 245.65 14.30
9779 22.0080 209.27 251.31 14.27
9780 22.0100 242.78 258.92 15.38
9781 22.0120 224.25 268.89 14.92
9782 22.0140 250.99 281.87 15.66
9783 22.0160 251.47 298.90 15.68
9784 22.0180 308.38 321.73 17.37
9785 22.0200 357.00 352.75 18.62
9786 22.0220 392.93 395.97 19.71
9787 22.0240 396.48 454.47 19.74
9788 22.0260 514.05 533.62 22.48
9789 22.0280 616.70 638.03 24.62
9790 22.0300 820.07 769.96 28.29
9791 22.0320 1021.79 927.20 31.96
9792 22.0340 1286.39 1095.18 35.77
9793 22.0360 1453.73 1239.82 37.99
9794 22.0380 1404.26 1312.36 37.20
9795 22.0400 1284.72 1279.67 35.56
9796 22.0420 1139.15 1157.16 33.64
9797 22.0440 972.49 993.14 31.09
9798 22.0460 863.25 828.89 29.20
9799 22.0480 661.55 685.98 25.45
9800 22.0500 594.37 570.88 24.06
9801 22.0520 512.91 482.13 22.50
9802 22.0540 427.34 415.97 20.48
9803 22.0560 393.50 367.51 19.71
9804 22.0580 357.78 332.20 18.67
9805 22.0600 313.21 306.27 17.39
9806 22.0620 318.39 286.92 17.74
9807 22.0640 296.44 272.18 17.06
9808 22.0660 292.71 260.70 16.96
9809 22.0680 253.29 251.63 15.67
9810 22.0700 243.58 244.42 15.38
9811 22.0720 238.32 238.71 15.30
9812 22.0740 242.50 234.23 15.41
9813 22.0760 249.56 230.83 15.68
9814 22.0780 212.74 228.38 14.37
9815 22.0800 244.09 226.81 15.41
9816 22.0820 224.20 226.10 14.88
9817 22.0840 216.16 226.26 14.60
9818 22.0860 223.46 227.37 14.85
9819 22.0880 247.14 229.58 15.49
9820 22.0900 240.14 233.15 15.26
9821 22.0920 260.83 238.38 16.02
9822 22.0940 241.51 245.65 15.33
9823 22.0960 244.24 255.22 15.45
9824 22.0980 253.53 267.04 15.65
9825 22.1000 263.69 279.92 15.97
9826 22.1020 268.29 290.73 16.22
9827 22.1040 273.90 295.06 16.39
9828 22.1060 307.44 291.09 17.36
9829 22.1080 251.12 281.55 15.53
9830 22.1100 277.17 270.65 16.39
9831 22.1120 275.73 260.72 16.37
9832 22.1140 256.07 252.39 15.80
9833 22.1160 256.01 245.52 15.83
9834 22.1180 233.90 239.76 15.05
9835 22.1200 214.84 234.76 14.38
9836 22.1220 260.39 230.26 15.94
9837 22.1240 230.31 226.08 15.00
9838 22.1260 240.77 222.14 15.32
9839 22.1280 213.74 218.40 14.37
9840 22.1300 224.84 214.86 14.72
9841 22.1320 206.85 211.53 14.22
9842 22.1340 201.54 208.42 14.00
9843 22.1360 220.13 205.55 14.67
9844 22.1380 210.20 202.95 14.20
9845 22.1400 219.10 200.61 14.54
9846 22.1420 221.27 198.55 14.70
9847 22.1440 220.51 196.78 14.64
9848 22.1460 189.49 195.32 13.55
9849 22.1480 201.29 194.18 13.99
9850 22.1500 182.32 193.40 13.27
9851 22.1520 172.09 193.03 12.97
9852 22.1540 196.56 193.11 13.86
9853 22.1560 209.17 193.72 14.28
9854 22.1580 195.17 194.93 13.73
9855 22.1600 215.79 196.80 14.45
9856 22.1620 193.87 199.39 13.81
9857 22.1640 217.42 202.73 14.47
9858 22.1660 206.48 206.74 14.17
9859 22.1680 191.70 211.26 13.62
9860 22.1700 222.78 215.92 14.66
9861 22.1720 202.20 220.11 14.09
9862 22.1740 221.28 223.05 14.68
9863 22.1760 230.20 224.09 15.02
9864 22.1780 222.90 223.16 14.73
9865 22.1800 220.26 220.82 14.61
9866 22.1820 212.02 218.02 14.41
9867 22.1840 198.96 215.69 13.96
9868 22.1860 211.01 214.66 14.36
9869 22.1880 228.09 215.79 14.93
9870 22.1900 221.27 220.02 14.66
9871 22.1920 201.96 228.25 14.16
9872 22.1940 242.29 239.74 15.42
9873 22.1960 260.23 248.66 15.91
9874 22.1980 229.15 246.14 14.89
9875 22.2000 226.39 233.80 14.84
9876 22.2020 230.45 220.72 15.08
9877 22.2040 207.15 211.04 14.21
9878 22.2060 205.83 204.66 14.19
9879 22.2080 212.04 200.61 14.40
9880 22.2100 194.74 198.06 13.71
9881 22.2120 209.57 196.46 14.38
9882 22.2140 202.57 195.57 14.04
9883 22.2160 190.55 195.01 13.64
9884 22.2180 208.97 194.78 14.25
9885 22.2200 168.36 194.79 12.80
9886 22.2220 184.09 195.06 13.47
9887 22.2240 192.82 195.59 13.75
9888 22.2260 207.68 196.37 14.27
9889 22.2280 171.01 197.43 12.92
9890 22.2300 219.46 198.76 14.57
9891 22.2320 187.31 200.38 13.61
9892 22.2340 196.80 202.18 13.90
9893 22.2360 205.45 204.06 14.23
9894 22.2380 188.64 205.78 13.54
9895 22.2400 203.13 207.07 14.04
9896 22.2420 222.96 207.65 14.80
9897 22.2440 221.19 207.41 14.74
9898 22.2460 225.28 206.48 14.89
9899 22.2480 204.99 205.20 14.12
9900 22.2500 182.03 203.99 13.32
9901 22.2520 202.66 203.16 14.12
9902 22.2540 197.18 202.90 13.91
9903 22.2560 188.01 203.34 13.54
9904 22.2580 213.23 204.51 14.47
9905 22.2600 209.54 206.41 14.23
9906 22.2620 211.34 208.99 14.45
9907 22.2640 229.48 212.12 15.03
9908 22.2660 215.35 215.61 14.56
9909 22.2680 214.14 219.13 14.43
9910 22.2700 218.63 222.39 14.66
9911 22.2720 237.44 224.91 15.31
9912 22.2740 215.75 226.35 14.63
9913 22.2760 238.21 226.60 15.26
9914 22.2780 247.63 225.93 15.59
9915 22.2800 226.48 224.88 14.81
9916 22.2820 240.95 224.12 15.48
9917 22.2840 226.74 224.01 14.91
9918 22.2860 229.76 223.60 15.00
9919 22.2880 259.22 220.73 15.87
9920 22.2900 246.09 215.54 15.48
9921 22.2920 219.68 210.46 14.69
9922 22.2940 245.66 206.77 15.53
9923 22.2960 213.95 204.49 14.47
9924 22.2980 209.76 204.10 14.31
9925 22.3000 208.98 203.90 14.23
9926 22.3020 213.03 204.43 14.46
9927 22.3040 192.30 205.53 13.68
9928 22.3060 214.54 207.10 14.52
9929 22.3080 212.67 209.09 14.40
9930 22.3100 213.03 211.47 14.39
9931 22.3120 216.76 214.25 14.56
9932 22.3140 248.66 217.43 15.69
9933 22.3160 261.87 221.02 15.97
9934 22.3180 236.18 225.00 15.17
9935 22.3200 246.86 229.34 15.51
9936 22.3220 239.12 234.07 15.32
9937 22.3240 279.35 239.29 16.49
9938 22.3260 245.31 245.29 15.52
9939 22.3280 263.54 252.51 16.02
9940 22.3300 280.19 261.64 16.46
9941 22.3320 240.14 273.56 15.41
9942 22.3340 283.36 289.46 16.67
9943 22.3360 317.24 310.64 17.66
9944 22.3380 346.63 338.62 18.33
9945 22.3400 384.79 374.96 19.38
9946 22.3420 428.53 420.99 20.49
9947 22.3440 466.20 477.63 21.46
9948 22.3460 555.28 544.88 23.29
9949 22.3480 587.03 621.22 24.00
9950 22.3500 668.43 702.30 25.49
9951 22.3520 737.04 779.71 26.85
9952 22.3540 826.70 841.10 28.49
9953 22.3560 871.34 872.45 29.31
9954 22.3580 905.44 865.80 29.69
9955 22.3600 854.07 824.64 28.87
9956 22.3620 763.01 761.98 27.34
9957 22.3640 666.30 693.45 25.56
9958 22.3660 607.96 631.65 24.47
9959 22.3680 513.28 583.91 22.32
9960 22.3700 472.36 548.16 21.40
9961 22.3720 440.77 507.63 20.72
9962 22.3740 370.23 450.53 19.05
9963 22.3760 308.00 390.48 17.29
9964 22.3780 275.70 341.74 16.37
9965 22.3800 276.93 306.10 16.32
9966 22.3820 246.98 280.63 15.49
9967 22.3840 233.44 262.30 15.08
9968 22.3860 217.52 248.75 14.58
9969 22.3880 227.54 238.51 14.83
9970 22.3900 220.86 230.55 14.62
9971 22.3920 193.51 224.22 13.76
9972 22.3940 204.34 219.10 14.12
9973 22.3960 219.85 214.91 14.66
9974 22.3980 188.85 211.49 13.51
9975 22.4000 202.17 208.70 13.95
9976 22.4020 181.91 206.50 13.28
9977 22.4040 211.67 204.91 14.39
9978 22.4060 191.43 203.99 13.64
9979 22.4080 186.20 203.85 13.44
9980 22.4100 215.58 204.42 14.40
9981 22.4120 234.56 204.84 15.08
9982 22.4140 198.15 203.51 13.92
9983 22.4160 190.94 200.28 13.63
9984 22.4180 181.88 196.71 13.23
9985 22.4200 204.61 193.72 14.04
9986 22.4220 199.71 191.40 13.89
9987 22.4240 171.90 189.60 12.94
9988 22.4260 179.45 188.15 13.22
9989 22.4280 187.68 186.95 13.44
9990 22.4300 157.38 185.94 12.29
9991 22.4320 174.34 185.08 12.99
9992 22.4340 210.26 184.35 14.37
9993 22.4360 164.49 183.73 12.62
9994 22.4380 183.68 183.21 13.31
9995 22.4400 208.18 182.83 14.13
9996 22.4420 200.40 182.52 13.94
9997 22.4440 189.20 182.32 13.53
9998 22.4460 240.67 182.24 15.30
9999 22.4480 172.32 182.30 12.93
10000 22.4500 197.93 182.51 13.77
10001 22.4520 182.12 182.91 13.28
10002 22.4540 191.27 184.32 13.65
10003 22.4560 177.46 185.24 13.11
10004 22.4580 200.20 186.10 13.90
10005 22.4600 207.30 187.68 14.16
10006 22.4620 199.78 189.49 13.91
10007 22.4640 204.53 191.15 14.13
10008 22.4660 199.46 192.19 13.95
10009 22.4680 170.95 192.45 12.94
10010 22.4700 185.12 192.12 13.31
10011 22.4720 202.27 191.57 14.10
10012 22.4740 199.02 191.21 13.87
10013 22.4760 206.87 191.36 14.16
10014 22.4780 197.93 192.16 13.87
10015 22.4800 189.52 192.92 13.51
10016 22.4820 184.35 192.46 13.48
10017 22.4840 188.17 190.94 13.54
10018 22.4860 225.90 189.49 14.90
10019 22.4880 180.05 188.64 13.26
10020 22.4900 236.77 188.32 15.20
10021 22.4920 202.42 188.39 14.12
10022 22.4940 179.60 188.68 13.22
10023 22.4960 176.81 189.08 13.10
10024 22.4980 187.24 189.50 13.54
10025 22.5000 199.18 189.88 13.89
10026 22.5020 208.78 190.18 14.36
10027 22.5040 190.15 190.40 13.59
10028 22.5060 170.16 190.54 12.88
10029 22.5080 217.23 191.32 14.55
10030 22.5100 205.04 191.41 14.15
10031 22.5120 204.34 191.96 14.26
10032 22.5140 203.01 192.18 13.99
10033 22.5160 190.45 192.51 13.67
10034 22.5180 197.08 192.99 13.85
10035 22.5200 191.15 193.66 13.63
10036 22.5220 203.71 194.56 14.22
10037 22.5240 191.67 195.71 13.65
10038 22.5260 194.73 197.17 13.82
10039 22.5280 213.42 198.99 14.47
10040 22.5300 200.57 201.23 14.05
10041 22.5320 205.49 203.96 14.33
10042 22.5340 214.23 207.26 14.47
10043 22.5360 225.63 211.23 14.91
10044 22.5380 227.44 215.94 14.94
10045 22.5400 241.36 221.46 15.36
10046 22.5420 248.75 227.90 15.76
10047 22.5440 252.61 235.25 15.72
10048 22.5460 260.91 243.54 16.00
10049 22.5480 266.42 252.70 16.17
10050 22.5500 273.32 262.63 16.36
10051 22.5520 265.21 273.41 16.33
10052 22.5540 290.55 285.55 16.95
10053 22.5560 274.84 300.66 16.48
10054 22.5580 298.78 321.31 17.11
10055 22.5600 348.38 350.08 18.52
10056 22.5620 375.43 386.98 19.33
10057 22.5640 420.13 425.99 20.37
10058 22.5660 409.11 446.95 20.10
10059 22.5680 392.02 427.95 19.73
10060 22.5700 363.56 384.89 18.87
10061 22.5720 329.21 345.90 18.19
10062 22.5740 294.96 319.83 17.07
10063 22.5760 263.03 304.96 16.13
10064 22.5780 272.27 297.99 16.39
10065 22.5800 303.97 296.16 17.26
10066 22.5820 319.76 297.36 17.89
10067 22.5840 304.76 299.87 17.28
10068 22.5860 300.22 302.49 17.26
10069 22.5880 287.08 305.01 16.80
10070 22.5900 335.99 308.32 18.24
10071 22.5920 303.00 313.97 17.36
10072 22.5940 341.28 323.77 18.34
10073 22.5960 331.99 339.76 18.09
10074 22.5980 340.34 364.35 18.33
10075 22.6000 374.63 400.39 19.10
10076 22.6020 408.25 451.15 20.12
10077 22.6040 467.55 519.91 21.50
10078 22.6060 582.70 608.73 23.99
10079 22.6080 695.33 717.52 26.21
10080 22.6100 894.55 839.38 29.68
10081 22.6120 1057.19 956.17 32.57
10082 22.6140 1177.92 1035.69 34.17
10083 22.6160 1075.91 1046.16 32.65
10084 22.6180 993.25 982.21 31.38
10085 22.6200 853.86 870.68 28.82
10086 22.6220 686.90 745.53 26.17
10087 22.6240 621.31 629.54 24.77
10088 22.6260 482.29 531.98 21.79
10089 22.6280 497.39 454.44 22.09
10090 22.6300 396.56 395.17 19.67
10091 22.6320 368.68 350.94 19.06
10092 22.6340 338.19 318.36 18.24
10093 22.6360 333.69 294.35 18.12
10094 22.6380 324.23 276.52 17.85
10095 22.6400 303.08 263.06 17.16
10096 22.6420 281.18 252.57 16.60
10097 22.6440 275.12 244.28 16.40
10098 22.6460 260.03 237.62 16.00
10099 22.6480 272.24 232.21 16.33
10100 22.6500 269.83 227.80 16.24
10101 22.6520 289.15 224.23 16.85
10102 22.6540 250.32 221.34 15.68
10103 22.6560 221.50 219.07 14.75
10104 22.6580 239.68 217.34 15.28
10105 22.6600 253.62 216.12 15.65
10106 22.6620 247.05 215.41 15.59
10107 22.6640 243.30 215.19 15.42
10108 22.6660 250.39 215.49 15.61
10109 22.6680 266.94 216.34 16.13
10110 22.6700 266.19 217.75 16.10
10111 22.6720 259.38 219.75 15.92
10112 22.6740 242.48 222.31 15.42
10113 22.6760 244.71 225.35 15.49
10114 22.6780 258.05 228.70 15.84
10115 22.6800 276.69 232.06 16.38
10116 22.6820 263.29 235.05 16.07
10117 22.6840 261.05 237.49 15.91
10118 22.6860 251.82 239.52 15.70
10119 22.6880 266.31 241.59 16.13
10120 22.6900 230.80 244.25 14.96
10121 22.6920 266.27 247.97 16.14
10122 22.6940 302.61 253.17 17.20
10123 22.6960 306.14 260.22 17.27
10124 22.6980 284.54 269.83 16.66
10125 22.7000 293.80 282.06 16.85
10126 22.7020 319.46 297.98 17.71
10127 22.7040 361.35 318.71 18.73
10128 22.7060 369.29 346.06 18.98
10129 22.7080 373.19 382.75 19.14
10130 22.7100 431.56 433.20 20.46
10131 22.7120 517.33 504.91 22.53
10132 22.7140 571.05 610.19 23.59
10133 22.7160 726.19 768.15 26.72
10134 22.7180 1030.46 1002.79 31.84
10135 22.7200 1358.86 1327.36 36.47
10136 22.7220 1723.96 1684.02 41.40
10137 22.7240 1715.01 1864.90 41.14
10138 22.7260 1526.77 1697.41 38.77
10139 22.7280 1225.42 1340.88 34.78
10140 22.7300 1020.74 1015.25 31.52
10141 22.7320 775.48 782.66 27.72
10142 22.7340 672.47 627.26 25.68
10143 22.7360 547.37 523.76 23.12
10144 22.7380 458.91 453.35 21.13
10145 22.7400 418.12 403.68 20.14
10146 22.7420 388.79 367.62 19.44
10147 22.7440 361.79 340.80 18.80
10148 22.7460 366.70 320.58 18.98
10149 22.7480 319.84 305.35 17.71
10150 22.7500 332.38 294.01 17.96
10151 22.7520 304.52 285.87 17.29
10152 22.7540 293.30 280.46 16.93
10153 22.7560 296.13 277.52 17.01
10154 22.7580 315.11 276.90 17.57
10155 22.7600 336.49 278.61 18.06
10156 22.7620 338.67 282.80 18.23
10157 22.7640 319.58 289.78 17.65
10158 22.7660 326.48 300.08 17.91
10159 22.7680 292.86 314.56 16.93
10160 22.7700 377.26 334.48 19.08
10161 22.7720 386.43 361.97 19.55
10162 22.7740 401.48 400.33 19.80
10163 22.7760 492.79 454.92 21.98
10164 22.7780 519.87 534.76 22.56
10165 22.7800 671.80 653.47 25.62
10166 22.7820 906.81 830.03 29.82
10167 22.7840 1022.57 1077.85 31.78
10168 22.7860 1326.34 1361.92 36.23
10169 22.7880 1642.74 1531.69 40.53
10170 22.7900 1576.12 1435.38 39.26
10171 22.7920 1250.66 1165.83 35.26
10172 22.7940 899.58 901.82 29.75
10173 22.7960 670.96 707.45 25.56
10174 22.7980 556.36 576.14 23.32
10175 22.8000 504.62 488.67 22.12
10176 22.8020 436.67 429.24 20.67
10177 22.8040 404.98 387.65 19.84
10178 22.8060 384.98 357.38 19.47
10179 22.8080 372.85 334.64 19.10
10180 22.8100 353.20 317.08 18.49
10181 22.8120 334.14 303.25 18.13
10182 22.8140 349.18 292.35 18.52
10183 22.8160 293.81 283.89 16.93
10184 22.8180 336.74 277.68 18.13
10185 22.8200 311.06 273.71 17.37
10186 22.8220 335.17 272.17 18.02
10187 22.8240 299.79 273.35 17.10
10188 22.8260 332.69 277.54 18.04
10189 22.8280 306.93 284.83 17.37
10190 22.8300 334.53 294.55 17.95
10191 22.8320 318.70 304.57 17.67
10192 22.8340 354.57 311.93 18.62
10193 22.8360 356.26 315.77 18.72
10194 22.8380 357.38 319.12 18.64
10195 22.8400 397.76 324.67 19.62
10196 22.8420 410.49 330.36 20.05
10197 22.8440 338.41 329.00 18.15
10198 22.8460 358.42 316.24 18.77
10199 22.8480 331.33 297.08 18.02
10200 22.8500 306.68 278.83 17.22
10201 22.8520 268.03 264.86 16.20
10202 22.8540 269.12 255.44 16.20
10203 22.8560 288.70 249.87 16.83
10204 22.8580 268.02 247.34 16.17
10205 22.8600 278.35 247.26 16.40
10206 22.8620 263.38 249.24 16.01
10207 22.8640 281.89 253.10 16.55
10208 22.8660 293.30 258.79 16.96
10209 22.8680 289.05 266.40 16.85
10210 22.8700 301.24 276.12 17.08
10211 22.8720 344.53 288.33 18.39
10212 22.8740 327.52 303.67 17.86
10213 22.8760 334.08 323.39 18.12
10214 22.8780 354.95 349.06 18.65
10215 22.8800 372.52 382.37 19.03
10216 22.8820 436.63 424.88 20.60
10217 22.8840 504.23 477.60 22.21
10218 22.8860 497.72 540.66 22.09
10219 22.8880 602.35 612.36 24.30
10220 22.8900 642.27 688.47 24.93
10221 22.8920 771.77 760.92 27.66
10222 22.8940 798.38 816.68 27.88
10223 22.8960 880.89 842.18 29.32
10224 22.8980 884.67 829.73 29.41
10225 22.9000 803.59 783.19 27.97
10226 22.9020 725.90 715.39 26.67
10227 22.9040 632.91 640.39 24.84
10228 22.9060 518.71 568.49 22.50
10229 22.9080 458.79 505.40 21.20
10230 22.9100 438.08 451.82 20.56
10231 22.9120 374.13 405.12 19.19
10232 22.9140 319.26 363.85 17.61
10233 22.9160 305.39 329.78 17.19
10234 22.9180 291.73 303.60 16.88
10235 22.9200 274.88 284.09 16.29
10236 22.9220 274.84 269.73 16.40
10237 22.9240 256.11 259.09 15.79
10238 22.9260 243.98 251.18 15.48
10239 22.9280 223.78 245.25 14.76
10240 22.9300 243.66 240.78 15.34
10241 22.9320 258.97 237.43 16.00
10242 22.9340 222.85 234.98 14.71
10243 22.9360 243.73 233.26 15.41
10244 22.9380 268.92 232.21 16.25
10245 22.9400 229.81 231.80 14.92
10246 22.9420 215.02 232.06 14.58
10247 22.9440 238.50 233.07 15.24
10248 22.9460 240.50 234.92 15.37
10249 22.9480 229.31 237.57 15.01
10250 22.9500 231.95 240.52 14.99
10251 22.9520 241.55 242.71 15.42
10252 22.9540 234.07 243.52 15.10
10253 22.9560 219.21 243.74 14.63
10254 22.9580 243.91 244.42 15.47
10255 22.9600 223.33 245.99 14.70
10256 22.9620 251.18 248.33 15.74
10257 22.9640 262.95 251.10 16.04
10258 22.9660 225.59 253.89 14.92
10259 22.9680 230.29 256.52 15.05
10260 22.9700 273.19 259.23 16.27
10261 22.9720 243.27 262.98 15.48
10262 22.9740 232.91 269.21 15.08
10263 22.9760 262.48 279.37 16.05
10264 22.9780 275.06 292.94 16.37
10265 22.9800 275.22 304.08 16.29
10266 22.9820 260.00 303.16 15.90
10267 22.9840 267.70 289.62 16.17
10268 22.9860 237.13 273.01 15.28
10269 22.9880 237.15 259.86 15.25
10270 22.9900 234.09 251.19 15.01
10271 22.9920 227.56 246.07 14.97
10272 22.9940 225.48 243.27 14.85
10273 22.9960 253.73 241.16 15.72
10274 22.9980 216.78 240.34 14.57
10275 23.0000 229.60 239.56 14.91
10276 23.0020 208.76 238.46 14.24
10277 23.0040 220.10 236.79 14.67
10278 23.0060 236.84 234.55 15.16
10279 23.0080 215.52 231.72 14.55
10280 23.0100 243.06 228.43 15.31
10281 23.0120 194.28 224.82 13.83
10282 23.0140 221.97 221.05 14.70
10283 23.0160 186.73 217.27 13.53
10284 23.0180 231.02 213.61 15.03
10285 23.0200 204.23 210.17 14.04
10286 23.0220 219.26 207.02 14.55
10287 23.0240 204.95 204.22 14.13
10288 23.0260 208.73 201.83 14.28
10289 23.0280 208.22 199.89 14.30
10290 23.0300 209.92 198.44 14.22
10291 23.0320 194.05 197.54 13.77
10292 23.0340 198.93 197.26 13.96
10293 23.0360 186.61 197.68 13.48
10294 23.0380 226.68 198.88 14.90
10295 23.0400 210.93 200.96 14.29
10296 23.0420 238.41 203.95 15.20
10297 23.0440 234.47 207.91 15.09
10298 23.0460 245.10 212.14 15.49
10299 23.0480 219.02 216.94 14.64
10300 23.0500 241.73 221.49 15.28
10301 23.0520 226.07 225.09 14.91
10302 23.0540 278.14 226.79 16.49
10303 23.0560 239.14 225.79 15.25
10304 23.0580 222.90 222.21 14.75
10305 23.0600 208.79 217.11 14.19
10306 23.0620 221.01 211.77 14.72
10307 23.0640 199.13 207.04 13.95
10308 23.0660 218.91 203.28 14.64
10309 23.0680 195.67 200.58 13.83
10310 23.0700 186.09 198.32 13.41
10311 23.0720 216.63 197.53 14.58
10312 23.0740 199.97 197.48 13.93
10313 23.0760 201.39 198.04 14.00
10314 23.0780 188.44 199.07 13.51
10315 23.0800 193.86 200.43 13.67
10316 23.0820 205.41 201.99 14.16
10317 23.0840 214.94 203.62 14.52
10318 23.0860 215.67 205.18 14.48
10319 23.0880 218.31 206.55 14.64
10320 23.0900 208.44 207.65 14.20
10321 23.0920 213.48 208.41 14.46
10322 23.0940 208.89 208.88 14.28
10323 23.0960 182.50 209.13 13.36
10324 23.0980 224.54 209.25 14.87
10325 23.1000 196.83 209.34 13.73
10326 23.1020 216.45 209.49 14.61
10327 23.1040 203.98 209.73 14.10
10328 23.1060 210.19 210.10 14.39
10329 23.1080 211.07 210.58 14.32
10330 23.1100 211.42 211.16 14.31
10331 23.1120 202.15 211.76 14.03
10332 23.1140 204.56 212.31 14.12
10333 23.1160 203.30 212.74 14.06
10334 23.1180 195.31 212.96 13.80
10335 23.1200 217.19 212.90 14.44
10336 23.1220 204.08 212.49 14.06
10337 23.1240 202.23 211.73 14.06
10338 23.1260 208.03 210.62 14.28
10339 23.1280 208.04 209.22 14.25
10340 23.1300 212.83 207.58 14.26
10341 23.1320 192.14 205.77 13.71
10342 23.1340 194.46 203.88 13.75
10343 23.1360 172.06 201.96 12.91
10344 23.1380 174.75 200.08 13.10
10345 23.1400 192.55 198.28 13.61
10346 23.1420 191.58 196.59 13.63
10347 23.1440 186.69 195.05 13.50
10348 23.1460 177.40 193.68 13.20
10349 23.1480 169.71 192.49 12.89
10350 23.1500 176.06 191.50 13.01
10351 23.1520 170.03 190.74 12.88
10352 23.1540 165.44 190.21 12.66
10353 23.1560 188.39 189.95 13.58
10354 23.1580 173.23 189.97 12.97
10355 23.1600 183.46 190.30 13.31
10356 23.1620 211.78 190.95 14.30
10357 23.1640 186.11 191.88 13.46
10358 23.1660 161.97 192.98 12.56
10359 23.1680 156.83 194.00 12.35
10360 23.1700 188.56 194.51 13.48
10361 23.1720 182.12 194.15 13.31
10362 23.1740 175.40 192.88 13.03
10363 23.1760 174.77 191.09 13.06
10364 23.1780 202.57 189.11 14.02
10365 23.1800 164.25 187.31 12.57
10366 23.1820 181.18 185.78 13.31
10367 23.1840 180.70 184.54 13.22
10368 23.1860 175.30 183.58 13.07
10369 23.1880 177.64 182.91 13.12
10370 23.1900 172.49 182.49 12.89
10371 23.1920 164.22 182.32 12.70
10372 23.1940 195.79 182.39 13.72
10373 23.1960 198.60 182.75 13.94
10374 23.1980 186.69 183.41 13.47
10375 23.2000 190.24 184.39 13.52
10376 23.2020 183.56 185.71 13.43
10377 23.2040 196.65 187.38 13.79
10378 23.2060 189.54 189.36 13.61
10379 23.2080 193.72 191.56 13.69
10380 23.2100 170.41 193.81 12.86
10381 23.2120 193.35 196.01 13.79
10382 23.2140 195.97 198.07 13.76
10383 23.2160 221.31 200.10 14.68
10384 23.2180 195.62 202.12 13.81
10385 23.2200 193.71 204.07 13.62
10386 23.2220 182.72 205.76 13.48
10387 23.2240 201.40 206.98 13.98
10388 23.2260 185.01 207.49 13.49
10389 23.2280 191.19 207.21 13.65
10390 23.2300 162.37 206.16 12.57
10391 23.2320 185.35 204.46 13.57
10392 23.2340 178.86 202.27 13.14
10393 23.2360 206.49 199.78 14.23
10394 23.2380 175.63 197.15 13.05
10395 23.2400 167.27 194.51 12.75
10396 23.2420 176.21 191.96 13.16
10397 23.2440 174.78 189.57 13.09
10398 23.2460 181.24 187.37 13.33
10399 23.2480 177.67 185.38 13.18
10400 23.2500 195.67 183.60 13.78
10401 23.2520 178.90 182.04 13.33
10402 23.2540 160.93 180.67 12.53
10403 23.2560 162.68 179.48 12.68
10404 23.2580 158.06 178.46 12.40
10405 23.2600 167.95 177.58 12.75
10406 23.2620 174.27 176.83 13.15
10407 23.2640 177.57 176.19 13.22
10408 23.2660 175.48 175.65 13.15
10409 23.2680 163.19 175.19 12.64
10410 23.2700 174.69 174.79 12.99
10411 23.2720 181.73 174.46 13.48
10412 23.2740 165.85 174.17 12.70
10413 23.2760 150.00 173.92 12.19
10414 23.2780 192.14 173.70 13.66
10415 23.2800 178.62 173.52 13.16
10416 23.2820 172.16 173.34 13.06
10417 23.2840 162.01 173.21 12.61
10418 23.2860 189.06 173.12 13.62
10419 23.2880 181.76 173.04 13.34
10420 23.2900 185.28 172.99 13.37
10421 23.2920 164.46 172.96 12.75
10422 23.2940 182.20 172.95 13.34
10423 23.2960 170.20 172.96 12.89
10424 23.2980 186.47 172.99 13.50
10425 23.3000 169.70 173.06 12.82
10426 23.3020 168.07 173.14 12.93
10427 23.3040 184.18 173.26 13.41
10428 23.3060 164.52 173.40 12.74
10429 23.3080 174.68 173.58 13.09
10430 23.3100 177.84 173.80 13.13
10431 23.3120 161.29 174.07 12.63
10432 23.3140 170.07 174.38 12.89
10433 23.3160 173.33 174.82 13.01
10434 23.3180 169.53 175.26 12.87
10435 23.3200 192.81 175.78 13.68
10436 23.3220 187.44 176.38 13.64
10437 23.3240 190.66 177.10 13.62
10438 23.3260 188.17 177.94 13.54
10439 23.3280 174.64 178.94 13.09
10440 23.3300 178.53 180.13 13.15
10441 23.3320 185.21 181.54 13.53
10442 23.3340 162.55 183.24 12.62
10443 23.3360 184.83 185.27 13.45
10444 23.3380 164.99 187.70 12.66
10445 23.3400 185.66 190.57 13.40
10446 23.3420 175.50 193.92 13.25
10447 23.3440 181.76 197.74 13.32
10448 23.3460 177.27 201.96 13.24
10449 23.3480 206.02 206.36 14.21
10450 23.3500 222.86 210.66 14.70
10451 23.3520 211.50 214.52 14.53
10452 23.3540 220.30 217.58 14.69
10453 23.3560 204.70 219.27 14.17
10454 23.3580 226.52 219.35 14.88
10455 23.3600 221.94 218.57 14.69
10456 23.3620 200.75 217.84 14.13
10457 23.3640 206.82 217.48 14.24
10458 23.3660 202.32 217.43 14.12
10459 23.3680 211.86 217.50 14.41
10460 23.3700 175.69 217.61 13.05
10461 23.3720 215.87 217.38 14.70
10462 23.3740 209.49 216.81 14.30
10463 23.3760 203.57 215.78 14.15
10464 23.3780 181.65 214.14 13.32
10465 23.3800 198.23 211.77 13.90
10466 23.3820 192.72 208.73 13.85
10467 23.3840 188.57 205.32 13.63
10468 23.3860 207.45 201.85 14.28
10469 23.3880 179.92 198.49 13.33
10470 23.3900 195.92 195.35 13.79
10471 23.3920 202.42 192.45 14.19
10472 23.3940 177.06 189.81 13.21
10473 23.3960 191.08 187.43 13.74
10474 23.3980 176.42 185.31 13.14
10475 23.4000 178.05 183.43 13.15
10476 23.4020 203.04 181.79 14.20
10477 23.4040 174.96 180.36 13.12
10478 23.4060 176.67 179.12 13.22
10479 23.4080 169.00 178.06 12.87
10480 23.4100 163.03 177.16 12.58
10481 23.4120 183.39 176.40 13.51
10482 23.4140 176.71 175.75 13.22
10483 23.4160 156.84 175.21 12.41
10484 23.4180 172.38 174.75 13.02
10485 23.4200 173.69 174.36 12.96
10486 23.4220 160.99 173.84 12.60
10487 23.4240 183.88 173.57 13.47
10488 23.4260 184.06 173.34 13.47
10489 23.4280 173.30 173.14 13.07
10490 23.4300 187.40 172.98 13.48
10491 23.4320 174.66 172.85 13.14
10492 23.4340 179.21 172.74 13.29
10493 23.4360 175.21 172.67 13.10
10494 23.4380 153.18 172.62 12.26
10495 23.4400 194.29 172.61 13.67
10496 23.4420 176.48 172.64 13.20
10497 23.4440 198.27 172.75 14.02
10498 23.4460 182.95 172.95 13.43
10499 23.4480 189.78 173.27 13.64
10500 23.4500 149.06 173.69 12.00
10501 23.4520 177.06 174.02 13.19
10502 23.4540 161.22 173.96 12.62
10503 23.4560 185.85 173.53 13.46
10504 23.4580 195.69 173.05 13.85
10505 23.4600 163.33 172.67 12.55
10506 23.4620 165.99 172.41 12.75
10507 23.4640 181.49 172.23 13.37
10508 23.4660 177.00 172.12 13.19
10509 23.4680 177.47 172.04 13.19
10510 23.4700 176.05 171.99 13.03
10511 23.4720 165.34 171.96 12.73
10512 23.4740 175.53 171.95 13.17
10513 23.4760 183.63 171.94 13.44
10514 23.4780 161.45 171.95 12.56
10515 23.4800 154.26 171.96 12.25
10516 23.4820 184.27 171.99 13.40
10517 23.4840 172.37 172.02 13.03
10518 23.4860 187.76 172.06 13.60
10519 23.4880 172.59 172.11 13.03
10520 23.4900 174.13 172.17 12.97
10521 23.4920 159.33 172.24 12.50
10522 23.4940 168.47 172.32 12.89
10523 23.4960 166.85 172.41 12.82
10524 23.4980 165.10 172.51 12.69
10525 23.5000 157.71 172.63 12.36
10526 23.5020 173.66 172.77 13.03
10527 23.5040 179.97 172.93 13.34
10528 23.5060 176.07 173.12 13.14
10529 23.5080 156.72 173.34 12.42
10530 23.5100 162.19 173.59 12.55
10531 23.5120 181.52 173.91 13.33
10532 23.5140 166.93 174.32 12.83
10533 23.5160 170.40 174.82 12.94
10534 23.5180 193.88 175.46 13.77
10535 23.5200 191.63 176.27 13.65
10536 23.5220 176.81 177.30 13.12
10537 23.5240 183.33 178.59 13.46
10538 23.5260 168.78 180.19 12.86
10539 23.5280 168.21 182.68 12.86
10540 23.5300 194.42 184.96 13.73
10541 23.5320 191.57 187.56 13.70
10542 23.5340 202.83 190.36 14.14
10543 23.5360 192.89 193.15 13.74
10544 23.5380 214.80 195.62 14.51
10545 23.5400 204.31 197.32 14.05
10546 23.5420 220.72 197.88 14.65
10547 23.5440 208.64 197.19 14.34
10548 23.5460 230.82 195.46 15.04
10549 23.5480 212.95 193.09 14.46
10550 23.5500 188.53 190.53 13.50
10551 23.5520 192.76 188.59 13.69
10552 23.5540 181.18 186.38 13.36
10553 23.5560 185.07 184.51 13.42
10554 23.5580 174.63 183.02 13.04
10555 23.5600 179.39 181.89 13.18
10556 23.5620 175.25 181.10 13.07
10557 23.5640 168.11 180.61 12.89
10558 23.5660 178.79 180.39 13.20
10559 23.5680 169.94 180.42 12.89
10560 23.5700 159.12 180.66 12.43
10561 23.5720 176.80 181.10 13.15
10562 23.5740 161.01 181.77 12.59
10563 23.5760 174.26 182.66 13.05
10564 23.5780 176.38 183.83 13.14
10565 23.5800 169.45 185.36 12.85
10566 23.5820 174.48 187.38 12.99
10567 23.5840 182.06 190.13 13.39
10568 23.5860 193.50 193.98 13.80
10569 23.5880 195.87 199.45 13.83
10570 23.5900 194.55 207.09 13.77
10571 23.5920 232.91 216.58 15.10
10572 23.5940 210.88 224.62 14.40
10573 23.5960 222.21 225.45 14.71
10574 23.5980 225.39 218.96 14.92
10575 23.6000 201.81 210.89 14.02
10576 23.6020 179.50 204.68 13.17
10577 23.6040 204.35 200.66 14.20
10578 23.6060 193.17 198.32 13.75
10579 23.6080 200.29 197.13 14.01
10580 23.6100 190.14 196.68 13.58
10581 23.6120 202.19 196.65 14.01
10582 23.6140 200.93 196.84 14.04
10583 23.6160 185.12 197.27 13.48
10584 23.6180 204.30 198.20 14.15
10585 23.6200 201.34 200.02 13.96
10586 23.6220 214.62 203.20 14.41
10587 23.6240 210.18 208.25 14.43
10588 23.6260 230.38 215.64 15.06
10589 23.6280 242.24 225.50 15.43
10590 23.6300 237.56 236.79 15.22
10591 23.6320 246.97 246.14 15.48
10592 23.6340 284.15 248.80 16.76
10593 23.6360 237.08 243.66 15.19
10594 23.6380 237.18 234.74 15.22
10595 23.6400 232.59 226.44 15.01
10596 23.6420 239.55 220.72 15.21
10597 23.6440 231.54 217.83 15.10
10598 23.6460 222.92 217.37 14.77
10599 23.6480 211.10 218.50 14.38
10600 23.6500 249.78 219.82 15.65
10601 23.6520 255.89 220.00 15.78
10602 23.6540 230.42 218.97 15.08
10603 23.6560 218.00 217.22 14.61
10604 23.6580 236.69 215.07 15.23
10605 23.6600 214.05 212.76 14.42
10606 23.6620 206.58 210.59 14.14
10607 23.6640 207.32 208.63 14.29
10608 23.6660 202.65 207.03 14.07
10609 23.6680 210.37 205.82 14.30
10610 23.6700 166.01 204.99 12.68
10611 23.6720 177.66 204.54 13.10
10612 23.6740 200.47 204.45 14.06
10613 23.6760 199.79 204.61 14.01
10614 23.6780 201.58 204.81 14.06
10615 23.6800 216.90 204.77 14.49
10616 23.6820 197.63 204.33 13.82
10617 23.6840 217.20 203.58 14.63
10618 23.6860 198.51 202.73 13.90
10619 23.6880 194.30 201.92 13.81
10620 23.6900 188.35 201.20 13.51
10621 23.6920 163.55 200.53 12.55
10622 23.6940 193.40 199.88 13.76
10623 23.6960 194.03 199.23 13.85
10624 23.6980 169.01 198.56 12.80
10625 23.7000 184.95 197.87 13.42
10626 23.7020 189.99 197.18 13.52
10627 23.7040 210.96 196.53 14.42
10628 23.7060 177.00 196.10 13.17
10629 23.7080 199.53 195.66 14.03
10630 23.7100 196.86 195.41 13.80
10631 23.7120 183.99 195.45 13.41
10632 23.7140 178.16 195.86 13.19
10633 23.7160 195.64 196.81 13.88
10634 23.7180 185.93 198.46 13.45
10635 23.7200 185.18 200.97 13.40
10636 23.7220 192.49 204.45 13.61
10637 23.7240 197.23 208.66 13.92
10638 23.7260 182.36 212.71 13.38
10639 23.7280 231.38 214.95 15.01
10640 23.7300 212.65 214.36 14.36
10641 23.7320 222.72 211.80 14.68
10642 23.7340 228.60 208.94 14.98
10643 23.7360 208.17 206.80 14.28
10644 23.7380 192.86 205.66 13.77
10645 23.7400 238.77 205.40 15.18
10646 23.7420 226.41 205.80 14.82
10647 23.7440 236.41 206.60 15.23
10648 23.7460 234.99 207.52 15.20
10649 23.7480 200.32 208.32 13.98
10650 23.7500 216.41 208.81 14.47
10651 23.7520 226.17 208.91 14.86
10652 23.7540 223.75 208.67 14.77
10653 23.7560 203.95 208.19 14.15
10654 23.7580 221.93 207.65 14.77
10655 23.7600 238.58 207.20 15.18
10656 23.7620 213.34 206.98 14.37
10657 23.7640 221.43 207.07 14.74
10658 23.7660 197.02 207.56 13.87
10659 23.7680 221.78 208.52 14.76
10660 23.7700 217.75 210.02 14.58
10661 23.7720 226.68 212.16 14.79
10662 23.7740 224.96 215.06 14.93
10663 23.7760 222.88 218.81 14.77
10664 23.7780 216.37 223.48 14.53
10665 23.7800 241.18 228.99 15.29
10666 23.7820 230.12 235.41 14.94
10667 23.7840 239.96 242.61 15.30
10668 23.7860 252.48 250.59 15.80
10669 23.7880 246.09 260.27 15.50
10670 23.7900 264.93 272.92 16.08
10671 23.7920 292.25 289.78 16.86
10672 23.7940 305.82 312.45 17.35
10673 23.7960 330.56 343.51 18.04
10674 23.7980 329.52 387.15 17.96
10675 23.8000 434.00 450.28 20.63
10676 23.8020 538.04 543.67 22.87
10677 23.8040 637.37 681.54 25.10
10678 23.8060 869.97 876.16 29.40
10679 23.8080 1108.14 1106.24 33.21
10680 23.8100 1387.88 1264.34 36.94
10681 23.8120 1228.19 1217.62 34.71
10682 23.8140 909.15 1013.20 30.07
10683 23.8160 685.44 796.42 25.97
10684 23.8180 604.65 632.12 24.41
10685 23.8200 505.04 519.78 22.26
10686 23.8220 450.48 444.85 20.96
10687 23.8240 402.68 394.20 19.99
10688 23.8260 346.12 358.92 18.46
10689 23.8280 343.02 333.51 18.44
10690 23.8300 338.50 314.66 18.20
10691 23.8320 309.34 300.26 17.33
10692 23.8340 273.49 289.12 16.40
10693 23.8360 293.71 280.54 17.06
10694 23.8380 273.67 274.06 16.41
10695 23.8400 290.00 269.40 16.77
10696 23.8420 269.11 266.40 16.18
10697 23.8440 325.12 264.80 17.87
10698 23.8460 264.02 264.23 16.13
10699 23.8480 279.80 264.56 16.52
10700 23.8500 264.65 266.27 16.09
10701 23.8520 312.19 269.86 17.40
10702 23.8540 293.86 275.78 16.96
10703 23.8560 315.23 284.49 17.67
10704 23.8580 304.12 296.69 17.26
10705 23.8600 300.33 313.42 17.11
10706 23.8620 319.07 336.23 17.59
10707 23.8640 339.99 367.39 18.28
10708 23.8660 388.10 410.20 19.57
10709 23.8680 440.14 469.21 20.82
10710 23.8700 517.55 549.72 22.43
10711 23.8720 627.69 657.58 24.79
10712 23.8740 816.78 795.09 28.32
10713 23.8760 1031.32 952.22 32.18
10714 23.8780 1218.23 1086.71 34.79
10715 23.8800 1339.01 1127.32 36.32
10716 23.8820 1134.67 1043.53 33.34
10717 23.8840 808.73 888.72 28.25
10718 23.8860 672.18 731.50 25.79
10719 23.8880 555.03 603.50 23.33
10720 23.8900 472.07 508.07 21.52
10721 23.8920 387.44 439.25 19.38
10722 23.8940 354.42 390.08 18.66
10723 23.8960 320.93 354.63 17.78
10724 23.8980 310.07 328.61 17.39
10725 23.9000 290.42 309.12 16.77
10726 23.9020 328.09 294.29 17.84
10727 23.9040 285.28 282.96 16.66
10728 23.9060 258.78 274.30 15.99
10729 23.9080 227.83 267.78 14.90
10730 23.9100 259.86 262.96 15.86
10731 23.9120 241.97 259.53 15.32
10732 23.9140 282.80 257.03 16.66
10733 23.9160 270.22 255.16 16.35
10734 23.9180 273.67 253.54 16.33
10735 23.9200 287.15 251.79 16.74
10736 23.9220 256.43 249.60 15.73
10737 23.9240 260.31 246.80 15.98
10738 23.9260 237.17 243.57 15.30
10739 23.9280 212.65 239.86 14.47
10740 23.9300 225.99 236.12 14.81
10741 23.9320 204.66 232.60 14.06
10742 23.9340 228.46 229.54 14.93
10743 23.9360 249.95 227.08 15.75
10744 23.9380 202.03 225.31 14.03
10745 23.9400 215.14 224.31 14.42
10746 23.9420 234.23 224.14 15.02
10747 23.9440 251.38 224.84 15.68
10748 23.9460 239.10 226.46 15.39
10749 23.9480 218.32 229.08 14.58
10750 23.9500 202.18 232.81 14.02
10751 23.9520 228.94 237.86 14.87
10752 23.9540 239.36 244.54 15.29
10753 23.9560 259.90 253.34 16.00
10754 23.9580 245.81 264.88 15.52
10755 23.9600 242.03 279.98 15.28
10756 23.9620 333.81 299.52 18.02
10757 23.9640 358.57 323.40 18.70
10758 23.9660 398.25 347.57 19.84
10759 23.9680 376.48 360.75 19.24
10760 23.9700 356.35 353.17 18.59
10761 23.9720 338.09 331.20 18.10
10762 23.9740 298.68 308.09 17.09
10763 23.9760 278.03 289.91 16.59
10764 23.9780 265.12 277.58 16.15
10765 23.9800 299.53 270.81 17.04
10766 23.9820 266.20 269.88 16.06
10767 23.9840 270.93 274.90 16.32
10768 23.9860 301.44 285.62 17.22
10769 23.9880 320.06 299.65 17.74
10770 23.9900 349.06 310.84 18.44
10771 23.9920 315.51 314.29 17.51
10772 23.9940 319.97 312.40 17.74
10773 23.9960 337.13 307.43 18.26
10774 23.9980 322.34 298.71 17.72
10775 24.0000 294.48 286.14 16.94
10776 24.0020 281.58 271.50 16.57
10777 24.0040 283.70 256.86 16.68
10778 24.0060 255.74 243.64 15.88
10779 24.0080 236.43 232.43 15.25
10780 24.0100 214.76 223.28 14.48
10781 24.0120 228.12 216.04 14.87
10782 24.0140 233.84 210.41 15.22
10783 24.0160 207.21 206.09 14.29
10784 24.0180 208.16 202.80 14.33
10785 24.0200 234.22 200.29 15.11
10786 24.0220 219.35 198.36 14.63
10787 24.0240 211.82 196.88 14.42
10788 24.0260 205.92 195.74 14.26
10789 24.0280 218.33 194.85 14.69
10790 24.0300 236.07 194.17 15.10
10791 24.0320 205.70 193.66 14.16
10792 24.0340 189.72 193.26 13.66
10793 24.0360 192.54 192.95 13.78
10794 24.0380 196.12 192.68 13.86
10795 24.0400 190.26 192.41 13.65
10796 24.0420 179.94 192.12 13.25
10797 24.0440 193.33 191.80 13.78
10798 24.0460 195.84 191.48 13.88
10799 24.0480 190.42 191.16 13.69
10800 24.0500 193.51 190.88 13.69
10801 24.0520 225.68 190.66 14.84
10802 24.0540 194.51 190.52 13.82
10803 24.0560 202.72 190.46 14.15
10804 24.0580 203.37 190.51 14.11
10805 24.0600 205.85 190.65 14.16
10806 24.0620 190.79 190.92 13.63
10807 24.0640 227.85 191.33 14.94
10808 24.0660 209.99 191.91 14.39
10809 24.0680 184.12 192.68 13.43
10810 24.0700 203.52 193.71 14.06
10811 24.0720 240.67 195.11 15.27
10812 24.0740 203.45 196.82 14.18
10813 24.0760 209.75 199.00 14.37
10814 24.0780 217.23 201.72 14.60
10815 24.0800 203.57 205.04 14.07
10816 24.0820 194.58 209.01 13.71
10817 24.0840 208.58 213.66 14.27
10818 24.0860 226.29 218.91 14.95
10819 24.0880 247.31 224.62 15.55
10820 24.0900 262.59 230.45 15.95
10821 24.0920 219.51 235.87 14.62
10822 24.0940 255.41 239.79 15.76
10823 24.0960 295.51 242.48 17.09
10824 24.0980 234.44 243.24 15.19
10825 24.1000 238.29 242.26 15.24
10826 24.1020 230.59 240.04 14.88
10827 24.1040 219.08 237.12 14.65
10828 24.1060 254.04 233.94 15.78
10829 24.1080 209.82 230.95 14.30
10830 24.1100 215.09 228.62 14.43
10831 24.1120 218.78 227.49 14.56
10832 24.1140 221.91 228.14 14.71
10833 24.1160 223.46 231.28 14.85
10834 24.1180 263.81 237.76 16.02
10835 24.1200 281.15 248.14 16.47
10836 24.1220 266.02 261.17 16.04
10837 24.1240 287.20 271.20 16.71
10838 24.1260 245.79 269.70 15.62
10839 24.1280 271.10 258.91 16.24
10840 24.1300 254.11 247.06 15.68
10841 24.1320 233.08 238.52 15.01
10842 24.1340 242.31 233.65 15.38
10843 24.1360 245.76 231.76 15.54
10844 24.1380 236.40 232.18 15.16
10845 24.1400 248.73 234.51 15.57
10846 24.1420 242.31 238.65 15.26
10847 24.1440 243.08 244.74 15.33
10848 24.1460 242.27 253.18 15.45
10849 24.1480 260.85 264.69 15.92
10850 24.1500 249.91 280.40 15.54
10851 24.1520 267.63 301.96 16.10
10852 24.1540 326.55 331.87 17.82
10853 24.1560 359.14 374.38 18.75
10854 24.1580 399.43 433.64 19.74
10855 24.1600 519.39 517.19 22.42
10856 24.1620 637.87 631.10 24.87
10857 24.1640 846.27 771.70 28.72
10858 24.1660 981.84 899.19 31.20
10859 24.1680 1070.88 928.84 32.49
10860 24.1700 837.44 828.87 28.57
10861 24.1720 600.53 678.31 24.21
10862 24.1740 490.62 547.75 21.93
10863 24.1760 416.30 454.19 20.24
10864 24.1780 359.22 391.27 18.70
10865 24.1800 284.58 349.89 16.64
10866 24.1820 284.72 323.10 16.60
10867 24.1840 250.30 306.12 15.62
10868 24.1860 279.97 296.13 16.63
10869 24.1880 278.92 291.87 16.55
10870 24.1900 297.28 293.57 17.01
10871 24.1920 317.15 302.49 17.59
10872 24.1940 331.14 319.98 18.01
10873 24.1960 344.91 343.81 18.46
10874 24.1980 370.45 361.65 19.08
10875 24.2000 369.55 356.10 18.93
10876 24.2020 355.77 329.86 18.58
10877 24.2040 264.24 301.03 16.04
10878 24.2060 285.54 279.07 16.77
10879 24.2080 257.26 264.70 15.87
10880 24.2100 259.49 256.08 15.90
10881 24.2120 260.53 251.27 15.94
10882 24.2140 232.23 249.04 15.09
10883 24.2160 240.24 248.85 15.39
10884 24.2180 241.25 250.82 15.41
10885 24.2200 278.84 253.99 16.40
10886 24.2220 255.52 258.15 15.78
10887 24.2240 314.73 263.73 17.59
10888 24.2260 254.22 269.88 15.83
10889 24.2280 312.71 275.73 17.52
10890 24.2300 313.92 280.01 17.49
10891 24.2320 290.06 281.58 16.84
10892 24.2340 260.13 280.26 15.98
10893 24.2360 266.80 277.02 16.18
10894 24.2380 276.17 273.08 16.50
10895 24.2400 267.67 269.24 16.11
10896 24.2420 276.26 265.93 16.41
10897 24.2440 242.45 263.33 15.41
10898 24.2460 267.76 261.55 16.24
10899 24.2480 267.08 260.72 16.24
10900 24.2500 255.43 261.78 15.77
10901 24.2520 277.89 263.57 16.47
10902 24.2540 240.30 267.39 15.31
10903 24.2560 308.90 274.06 17.45
10904 24.2580 298.28 284.63 17.19
10905 24.2600 301.05 299.40 17.12
10906 24.2620 341.65 315.01 18.30
10907 24.2640 313.25 322.03 17.53
10908 24.2660 270.93 314.52 16.39
10909 24.2680 320.06 299.87 17.74
10910 24.2700 255.35 286.92 15.75
10911 24.2720 301.75 278.37 17.15
10912 24.2740 277.18 273.48 16.51
10913 24.2760 296.34 269.75 17.12
10914 24.2780 306.86 264.49 17.38
10915 24.2800 278.99 257.77 16.52
10916 24.2820 259.09 251.45 15.89
10917 24.2840 265.86 246.49 16.14
10918 24.2860 269.71 242.92 16.32
10919 24.2880 255.21 240.53 15.84
10920 24.2900 276.18 239.04 16.38
10921 24.2920 284.23 238.16 16.59
10922 24.2940 279.86 237.53 16.58
10923 24.2960 287.23 236.81 16.85
10924 24.2980 235.66 235.77 15.21
10925 24.3000 279.08 234.43 16.49
10926 24.3020 251.77 233.04 15.63
10927 24.3040 239.03 232.04 15.28
10928 24.3060 262.91 231.84 16.09
10929 24.3080 254.65 232.83 15.79
10930 24.3100 242.08 235.35 15.37
10931 24.3120 257.91 239.71 15.80
10932 24.3140 266.93 245.97 16.15
10933 24.3160 308.77 253.67 17.45
10934 24.3180 294.17 260.91 17.00
10935 24.3200 293.20 264.39 16.90
10936 24.3220 296.60 262.06 16.96
10937 24.3240 296.14 255.44 17.05
10938 24.3260 254.49 247.52 15.80
10939 24.3280 285.41 240.15 16.75
10940 24.3300 217.25 233.97 14.54
10941 24.3320 269.06 229.12 16.15
10942 24.3340 239.19 225.48 15.27
10943 24.3360 233.68 222.94 15.16
10944 24.3380 246.31 221.37 15.51
10945 24.3400 227.97 220.70 14.93
10946 24.3420 222.94 220.84 14.67
10947 24.3440 208.20 221.76 14.24
10948 24.3460 248.16 223.43 15.59
10949 24.3480 251.88 225.81 15.64
10950 24.3500 257.68 228.84 15.85
10951 24.3520 264.49 232.36 16.01
10952 24.3540 278.80 236.15 16.49
10953 24.3560 270.60 239.79 16.25
10954 24.3580 277.30 242.79 16.48
10955 24.3600 292.94 244.68 16.84
10956 24.3620 295.77 245.33 16.86
10957 24.3640 297.76 245.22 17.05
10958 24.3660 283.97 245.11 16.74
10959 24.3680 271.84 245.66 16.27
10960 24.3700 255.24 247.24 15.76
10961 24.3720 259.54 250.04 15.81
10962 24.3740 271.98 254.14 16.22
10963 24.3760 269.07 259.57 16.22
10964 24.3780 291.07 266.28 16.86
10965 24.3800 300.06 274.16 17.00
10966 24.3820 281.26 283.07 16.43
10967 24.3840 278.00 292.80 16.42
10968 24.3860 299.45 303.19 17.11
10969 24.3880 327.77 314.22 17.88
10970 24.3900 368.80 326.36 18.92
10971 24.3920 345.35 340.62 18.18
10972 24.3940 354.03 358.75 18.61
10973 24.3960 398.86 383.56 19.78
10974 24.3980 408.63 419.17 19.96
10975 24.4000 454.29 471.98 20.98
10976 24.4020 521.71 551.31 22.42
10977 24.4040 677.46 670.17 25.78
10978 24.4060 872.37 842.16 29.36
10979 24.4080 1135.99 1061.94 33.36
10980 24.4100 1328.81 1258.34 35.97
10981 24.4120 1227.22 1290.79 34.34
10982 24.4140 1058.78 1130.21 32.33
10983 24.4160 880.58 908.14 29.30
10984 24.4180 667.60 724.06 25.61
10985 24.4200 558.40 596.27 23.28
10986 24.4220 444.04 513.67 20.61
10987 24.4240 426.48 462.98 20.38
10988 24.4260 405.16 434.78 19.92
10989 24.4280 392.36 423.52 19.61
10990 24.4300 409.07 427.09 19.87
10991 24.4320 416.11 446.19 19.99
10992 24.4340 446.61 484.53 20.91
10993 24.4360 498.96 549.30 22.08
10994 24.4380 612.13 651.39 24.42
10995 24.4400 854.21 801.07 28.75
10996 24.4420 1198.99 990.50 34.02
10997 24.4440 1469.67 1148.82 37.98
10998 24.4460 1264.41 1155.83 35.33
10999 24.4480 1001.96 1003.59 31.35
11000 24.4500 737.57 810.04 26.59
11001 24.4520 591.63 652.16 23.92
11002 24.4540 491.59 541.55 21.86
11003 24.4560 432.48 466.84 20.52
11004 24.4580 362.51 416.95 18.81
11005 24.4600 351.60 383.00 18.41
11006 24.4620 300.47 359.21 16.99
11007 24.4640 293.59 342.11 16.86
11008 24.4660 335.18 329.49 18.16
11009 24.4680 308.21 319.95 17.32
11010 24.4700 304.51 312.71 17.14
11011 24.4720 312.76 307.22 17.38
11012 24.4740 302.87 303.20 17.18
11013 24.4760 326.22 300.49 17.83
11014 24.4780 308.50 299.08 17.35
11015 24.4800 302.42 299.05 17.11
11016 24.4820 286.04 300.58 16.59
11017 24.4840 291.22 303.96 16.82
11018 24.4860 307.32 309.61 17.36
11019 24.4880 338.66 318.14 18.26
11020 24.4900 333.82 330.64 18.00
11021 24.4920 339.46 348.52 18.22
11022 24.4940 370.30 374.26 19.00
11023 24.4960 484.28 411.72 21.84
11024 24.4980 507.86 466.94 22.34
11025 24.5000 589.39 548.91 24.05
11026 24.5020 702.39 668.59 26.12
11027 24.5040 845.63 830.58 28.76
11028 24.5060 972.04 1003.21 31.11
11029 24.5080 1117.47 1090.40 33.29
11030 24.5100 1033.00 1018.16 31.76
11031 24.5120 887.09 854.72 29.58
11032 24.5140 675.05 698.09 25.81
11033 24.5160 554.34 583.12 23.38
11034 24.5180 473.68 507.19 21.60
11035 24.5200 426.33 460.72 20.37
11036 24.5220 376.53 435.61 19.30
11037 24.5240 428.28 427.27 20.44
11038 24.5260 382.88 433.90 19.49
11039 24.5280 394.87 456.04 19.74
11040 24.5300 434.26 495.94 20.56
11041 24.5320 600.44 556.90 24.33
11042 24.5340 644.29 641.98 25.18
11043 24.5360 759.63 750.22 27.41
11044 24.5380 972.75 869.32 31.03
11045 24.5400 1067.81 965.76 32.38
11046 24.5420 1063.93 993.69 32.46
11047 24.5440 965.00 936.20 30.99
11048 24.5460 821.14 824.66 28.52
11049 24.5480 603.56 703.30 24.49
11050 24.5500 502.17 597.47 22.15
11051 24.5520 457.72 513.78 21.37
11052 24.5540 409.00 450.25 20.12
11053 24.5560 359.07 402.60 18.84
11054 24.5580 317.82 366.91 17.76
11055 24.5600 314.69 339.95 17.51
11056 24.5620 308.38 319.42 17.50
11057 24.5640 311.37 303.55 17.46
11058 24.5660 282.15 290.95 16.77
11059 24.5680 260.48 280.73 16.04
11060 24.5700 272.94 272.24 16.36
11061 24.5720 251.33 265.08 15.74
11062 24.5740 230.89 258.95 15.13
11063 24.5760 253.29 253.70 15.86
11064 24.5780 229.66 249.22 15.07
11065 24.5800 261.37 245.39 15.96
11066 24.5820 247.98 242.24 15.59
11067 24.5840 226.56 239.70 14.98
11068 24.5860 248.68 237.78 15.73
11069 24.5880 254.38 236.49 15.87
11070 24.5900 235.37 235.88 15.18
11071 24.5920 201.37 236.01 14.08
11072 24.5940 222.48 237.11 14.83
11073 24.5960 224.35 239.12 14.90
11074 24.5980 251.08 242.34 15.74
11075 24.6000 249.71 247.02 15.60
11076 24.6020 265.45 253.45 16.09
11077 24.6040 259.37 261.91 15.95
11078 24.6060 285.76 272.70 16.92
11079 24.6080 278.04 286.08 16.54
11080 24.6100 316.57 302.14 17.65
11081 24.6120 359.94 320.91 18.78
11082 24.6140 352.25 342.06 18.65
11083 24.6160 393.54 364.85 19.74
11084 24.6180 445.30 387.95 21.01
11085 24.6200 426.19 409.25 20.39
11086 24.6220 525.16 426.00 22.67
11087 24.6240 444.17 435.38 20.89
11088 24.6260 465.52 435.74 21.48
11089 24.6280 422.00 427.33 20.40
11090 24.6300 467.02 412.25 21.43
11091 24.6320 378.89 393.27 19.16
11092 24.6340 381.81 372.98 19.37
11093 24.6360 390.00 353.11 19.66
11094 24.6380 351.71 334.56 18.54
11095 24.6400 328.64 317.62 17.93
11096 24.6420 315.87 302.26 17.50
11097 24.6440 295.64 288.34 17.06
11098 24.6460 251.01 275.73 15.71
11099 24.6480 258.30 264.44 15.93
11100 24.6500 282.73 254.47 16.57
11101 24.6520 249.72 245.79 15.57
11102 24.6540 257.01 238.33 15.91
11103 24.6560 254.64 231.96 15.84
11104 24.6580 246.56 226.60 15.52
11105 24.6600 242.93 222.04 15.35
11106 24.6620 230.79 218.20 14.96
11107 24.6640 201.75 214.96 14.01
11108 24.6660 222.72 212.25 14.80
11109 24.6680 205.65 209.97 14.19
11110 24.6700 225.00 208.06 14.80
11111 24.6720 214.32 206.44 14.43
11112 24.6740 234.58 205.10 15.17
11113 24.6760 196.85 203.97 13.93
11114 24.6780 225.16 203.03 14.83
11115 24.6800 237.84 202.24 15.27
11116 24.6820 230.48 201.59 14.90
11117 24.6840 209.94 201.05 14.31
11118 24.6860 189.94 200.61 13.68
11119 24.6880 215.37 200.31 14.52
11120 24.6900 230.51 200.03 15.04
11121 24.6920 220.16 199.79 14.59
11122 24.6940 208.50 199.57 14.25
11123 24.6960 212.31 199.34 14.51
11124 24.6980 218.88 199.06 14.60
11125 24.7000 191.75 198.73 13.70
11126 24.7020 205.11 197.92 14.10
11127 24.7040 210.32 197.55 14.31
11128 24.7060 226.26 197.17 14.96
11129 24.7080 203.15 196.80 14.12
11130 24.7100 193.16 196.46 13.75
11131 24.7120 211.70 196.13 14.29
11132 24.7140 206.95 195.84 14.28
11133 24.7160 204.07 195.57 14.15
11134 24.7180 221.57 195.55 14.72
11135 24.7200 207.91 195.35 14.23
11136 24.7220 206.80 195.18 14.14
11137 24.7240 213.46 195.04 14.43
11138 24.7260 203.50 194.93 14.18
11139 24.7280 192.34 194.85 13.74
11140 24.7300 196.06 194.82 13.83
11141 24.7320 208.03 194.85 14.22
11142 24.7340 187.94 194.95 13.55
11143 24.7360 180.50 194.74 13.32
11144 24.7380 200.13 195.01 13.99
11145 24.7400 214.94 195.40 14.51
11146 24.7420 197.37 195.93 13.83
11147 24.7440 182.36 196.64 13.35
11148 24.7460 218.35 197.56 14.68
11149 24.7480 209.21 198.74 14.35
11150 24.7500 205.54 200.23 14.14
11151 24.7520 205.48 202.07 14.18
11152 24.7540 205.09 204.33 14.13
11153 24.7560 214.86 207.02 14.55
11154 24.7580 242.66 210.17 15.46
11155 24.7600 243.10 213.74 15.40
11156 24.7620 221.35 217.62 14.65
11157 24.7640 237.09 221.66 15.23
11158 24.7660 264.86 225.54 16.12
11159 24.7680 236.95 228.85 15.28
11160 24.7700 215.43 231.22 14.49
11161 24.7720 223.70 232.46 14.73
11162 24.7740 235.09 232.66 15.20
11163 24.7760 247.74 232.22 15.58
11164 24.7780 215.80 231.58 14.57
11165 24.7800 226.50 231.11 14.83
11166 24.7820 230.57 231.06 14.92
11167 24.7840 228.65 231.53 14.92
11168 24.7860 243.27 232.59 15.46
11169 24.7880 247.84 234.23 15.62
11170 24.7900 244.39 236.46 15.41
11171 24.7920 209.99 239.15 14.27
11172 24.7940 230.42 242.06 15.01
11173 24.7960 245.02 244.81 15.56
11174 24.7980 253.91 246.92 15.78
11175 24.8000 268.38 247.66 16.18
11176 24.8020 258.48 247.55 15.79
11177 24.8040 261.60 246.25 15.96
11178 24.8060 247.23 243.88 15.61
11179 24.8080 237.78 240.68 15.31
11180 24.8100 257.94 236.87 15.89
11181 24.8120 249.38 232.76 15.53
11182 24.8140 205.39 228.62 14.22
11183 24.8160 232.28 224.65 15.11
11184 24.8180 205.21 221.01 14.22
11185 24.8200 219.13 217.82 14.58
11186 24.8220 214.06 215.15 14.39
11187 24.8240 225.84 213.02 14.79
11188 24.8260 243.07 211.48 15.49
11189 24.8280 186.94 210.51 13.53
11190 24.8300 190.63 210.08 13.62
11191 24.8320 191.20 210.11 13.58
11192 24.8340 197.27 210.51 13.89
11193 24.8360 238.42 211.16 15.29
11194 24.8380 205.43 212.10 14.18
11195 24.8400 197.11 213.42 13.84
11196 24.8420 217.56 215.25 14.51
11197 24.8440 224.34 217.64 14.73
11198 24.8460 223.13 220.47 14.83
11199 24.8480 227.70 223.48 14.96
11200 24.8500 242.78 226.18 15.37
11201 24.8520 227.97 227.96 14.82
11202 24.8540 238.75 228.28 15.24
11203 24.8560 224.43 226.95 14.87
11204 24.8580 232.86 224.25 15.08
11205 24.8600 233.46 220.77 15.05
11206 24.8620 215.29 217.16 14.43
11207 24.8640 225.04 213.66 14.78
11208 24.8660 207.85 210.86 14.28
11209 24.8680 219.43 208.37 14.64
11210 24.8700 207.09 206.52 14.20
11211 24.8720 192.31 205.33 13.60
11212 24.8740 199.89 204.83 13.99
11213 24.8760 212.93 205.04 14.43
11214 24.8780 219.96 206.05 14.72
11215 24.8800 210.54 207.90 14.32
11216 24.8820 229.78 210.53 14.88
11217 24.8840 252.25 213.54 15.71
11218 24.8860 228.86 215.82 15.00
11219 24.8880 220.29 215.91 14.68
11220 24.8900 239.85 213.88 15.33
11221 24.8920 228.95 211.40 14.91
11222 24.8940 209.63 209.59 14.25
11223 24.8960 220.50 208.62 14.71
11224 24.8980 198.68 208.37 13.91
11225 24.9000 209.87 208.62 14.28
11226 24.9020 197.27 209.20 13.75
11227 24.9040 225.94 209.98 14.85
11228 24.9060 207.08 210.85 14.24
11229 24.9080 208.35 211.78 14.27
11230 24.9100 203.70 212.74 14.08
11231 24.9120 188.47 213.74 13.49
11232 24.9140 208.59 214.82 14.28
11233 24.9160 209.42 216.00 14.28
11234 24.9180 206.92 217.29 14.21
11235 24.9200 214.17 218.72 14.38
11236 24.9220 215.96 220.27 14.42
11237 24.9240 213.42 221.94 14.41
11238 24.9260 203.99 223.42 14.16
11239 24.9280 210.96 225.26 14.38
11240 24.9300 214.62 227.14 14.48
11241 24.9320 224.33 229.04 14.77
11242 24.9340 215.32 230.96 14.55
11243 24.9360 226.26 232.94 14.86
11244 24.9380 226.47 235.05 14.91
11245 24.9400 217.06 237.48 14.54
11246 24.9420 201.42 240.54 13.97
11247 24.9440 236.16 244.67 15.20
11248 24.9460 237.86 250.28 15.30
11249 24.9480 246.32 257.10 15.59
11250 24.9500 248.00 262.48 15.52
11251 24.9520 276.32 261.94 16.41
11252 24.9540 277.92 255.02 16.51
11253 24.9560 242.38 246.10 15.43
11254 24.9580 228.41 238.34 14.92
11255 24.9600 232.69 232.34 15.03
11256 24.9620 242.26 227.79 15.35
11257 24.9640 225.90 224.36 14.84
11258 24.9660 209.97 221.82 14.41
11259 24.9680 232.62 220.10 15.15
11260 24.9700 203.22 219.28 14.05
11261 24.9720 206.94 219.55 14.16
11262 24.9740 210.03 221.31 14.34
11263 24.9760 220.92 225.08 14.70
11264 24.9780 225.72 231.26 14.89
11265 24.9800 206.72 239.09 14.14
11266 24.9820 225.69 244.64 14.76
11267 24.9840 224.87 242.63 14.83
11268 24.9860 209.67 233.90 14.33
11269 24.9880 245.56 224.02 15.55
11270 24.9900 215.77 216.09 14.48
11271 24.9920 226.81 210.43 14.85
11272 24.9940 176.92 206.53 13.14
11273 24.9960 211.09 203.84 14.40
11274 24.9980 200.46 201.98 14.02
11275 25.0000 209.52 200.68 14.29
11276 25.0020 172.37 199.78 12.86
11277 25.0040 197.98 199.19 13.90
11278 25.0060 201.88 198.84 14.11
11279 25.0080 199.13 198.69 13.96
11280 25.0100 228.59 198.70 14.93
11281 25.0120 193.56 198.87 13.68
11282 25.0140 205.51 199.18 14.16
11283 25.0160 219.84 199.61 14.65
11284 25.0180 223.62 200.17 14.85
11285 25.0200 204.71 200.85 14.10
11286 25.0220 216.00 201.64 14.44
11287 25.0240 198.01 202.53 13.85
11288 25.0260 190.11 203.51 13.71
11289 25.0280 184.77 204.57 13.47
11290 25.0300 195.30 206.46 13.77
11291 25.0320 197.86 207.63 13.83
11292 25.0340 215.58 208.79 14.50
11293 25.0360 221.72 209.92 14.76
11294 25.0380 208.77 210.96 14.31
11295 25.0400 222.63 211.87 14.71
11296 25.0420 204.74 212.60 14.02
11297 25.0440 186.09 213.11 13.48
11298 25.0460 218.18 213.38 14.69
11299 25.0480 234.86 213.42 15.15
11300 25.0500 205.81 213.24 14.11
11301 25.0520 231.77 212.89 14.97
11302 25.0540 229.41 212.42 14.93
11303 25.0560 202.78 211.89 14.08
11304 25.0580 207.48 211.36 14.25
11305 25.0600 225.96 210.89 14.83
11306 25.0620 192.62 210.52 13.58
11307 25.0640 234.22 210.31 15.11
11308 25.0660 202.04 210.30 14.07
11309 25.0680 218.34 210.53 14.64
11310 25.0700 218.94 211.03 14.55
11311 25.0720 217.84 211.85 14.48
11312 25.0740 222.72 213.02 14.75
11313 25.0760 224.78 214.56 14.86
11314 25.0780 222.44 216.52 14.77
11315 25.0800 238.41 218.90 15.17
11316 25.0820 236.50 221.70 15.13
11317 25.0840 232.61 224.88 15.03
11318 25.0860 228.79 228.26 15.01
11319 25.0880 262.06 231.54 16.02
11320 25.0900 244.09 234.36 15.37
11321 25.0920 251.58 236.61 15.58
11322 25.0940 239.84 238.45 15.32
11323 25.0960 244.14 240.06 15.46
11324 25.0980 273.97 241.61 16.35
11325 25.1000 245.40 243.29 15.42
11326 25.1020 247.75 245.31 15.36
11327 25.1040 242.03 247.89 15.39
11328 25.1060 246.23 251.26 15.54
11329 25.1080 271.90 255.60 16.34
11330 25.1100 288.47 261.08 16.66
11331 25.1120 279.00 267.84 16.41
11332 25.1140 290.20 275.96 16.87
11333 25.1160 278.77 285.42 16.53
11334 25.1180 293.94 296.20 16.93
11335 25.1200 296.05 308.10 16.92
11336 25.1220 280.46 320.80 16.44
11337 25.1240 312.77 333.79 17.40
11338 25.1260 324.49 346.33 17.87
11339 25.1280 303.41 357.45 17.25
11340 25.1300 354.68 366.04 18.52
11341 25.1320 375.40 371.16 19.03
11342 25.1340 328.18 372.25 17.92
11343 25.1360 352.68 369.40 18.62
11344 25.1380 367.14 363.23 18.95
11345 25.1400 325.88 354.66 17.76
11346 25.1420 333.31 344.59 17.87
11347 25.1440 318.85 333.74 17.64
11348 25.1460 319.79 322.67 17.77
11349 25.1480 306.43 311.86 17.32
11350 25.1500 284.63 301.67 16.57
11351 25.1520 286.86 292.46 16.56
11352 25.1540 277.97 284.50 16.45
11353 25.1560 319.50 277.74 17.67
11354 25.1580 304.45 272.01 17.21
11355 25.1600 279.56 266.00 16.42
11356 25.1620 313.19 259.96 17.27
11357 25.1640 286.48 254.41 16.67
11358 25.1660 271.16 249.59 16.32
11359 25.1680 260.11 245.43 15.93
11360 25.1700 241.13 241.73 15.25
11361 25.1720 256.96 238.37 15.71
11362 25.1740 252.55 235.25 15.68
11363 25.1760 245.12 232.33 15.54
11364 25.1780 254.60 229.58 15.75
11365 25.1800 246.93 227.01 15.40
11366 25.1820 231.97 224.61 14.95
11367 25.1840 228.25 222.38 14.88
11368 25.1860 234.84 220.35 15.16
11369 25.1880 244.80 218.51 15.43
11370 25.1900 216.97 216.87 14.43
11371 25.1920 195.17 215.43 13.72
11372 25.1940 248.11 214.20 15.49
11373 25.1960 236.30 213.18 15.18
11374 25.1980 219.20 212.37 14.62
11375 25.2000 214.39 211.80 14.34
11376 25.2020 203.70 212.08 14.00
11377 25.2040 204.01 212.00 14.07
11378 25.2060 221.01 212.14 14.72
11379 25.2080 213.32 212.47 14.43
11380 25.2100 207.57 212.86 14.12
11381 25.2120 216.55 213.11 14.51
11382 25.2140 245.30 213.08 15.43
11383 25.2160 246.27 212.81 15.52
11384 25.2180 199.81 212.49 14.00
11385 25.2200 234.65 212.26 14.97
11386 25.2220 196.87 212.21 13.85
11387 25.2240 219.15 212.37 14.63
11388 25.2260 220.03 212.74 14.77
11389 25.2280 247.16 213.29 15.52
11390 25.2300 227.90 214.05 14.93
11391 25.2320 208.24 214.99 14.24
11392 25.2340 240.58 216.13 15.28
11393 25.2360 234.44 217.49 15.21
11394 25.2380 224.09 219.09 14.86
11395 25.2400 230.38 220.97 14.88
11396 25.2420 219.09 223.17 14.64
11397 25.2440 238.63 225.73 15.22
11398 25.2460 252.20 228.70 15.83
11399 25.2480 256.18 232.09 15.87
11400 25.2500 230.87 235.98 14.92
11401 25.2520 235.83 240.32 15.19
11402 25.2540 234.70 245.35 15.16
11403 25.2560 239.34 251.09 15.42
11404 25.2580 263.00 257.67 16.05
11405 25.2600 271.14 265.21 16.21
11406 25.2620 296.70 273.80 16.99
11407 25.2640 293.44 284.44 16.97
11408 25.2660 323.55 295.62 18.00
11409 25.2680 329.65 308.60 18.02
11410 25.2700 334.14 324.08 18.05
11411 25.2720 336.85 343.30 18.17
11412 25.2740 356.67 368.10 18.73
11413 25.2760 385.16 400.83 19.50
11414 25.2780 447.72 444.20 21.08
11415 25.2800 505.15 500.82 22.11
11416 25.2820 558.86 572.42 23.41
11417 25.2840 667.59 657.63 25.52
11418 25.2860 755.88 748.18 27.55
11419 25.2880 893.64 825.25 29.75
11420 25.2900 860.11 861.66 29.03
11421 25.2920 854.74 841.04 28.99
11422 25.2940 748.14 773.60 27.04
11423 25.2960 637.09 685.77 25.16
11424 25.2980 565.24 599.79 23.64
11425 25.3000 526.65 526.28 22.56
11426 25.3020 441.93 467.94 20.75
11427 25.3040 424.65 423.97 20.42
11428 25.3060 377.57 392.02 19.29
11429 25.3080 392.20 369.79 19.72
11430 25.3100 374.22 355.12 19.05
11431 25.3120 397.98 346.42 19.68
11432 25.3140 357.66 342.57 18.66
11433 25.3160 348.30 343.03 18.57
11434 25.3180 354.93 347.70 18.70
11435 25.3200 366.73 357.01 18.81
11436 25.3220 349.40 371.90 18.43
11437 25.3240 380.91 394.05 19.31
11438 25.3260 437.18 426.32 20.88
11439 25.3280 478.89 472.86 21.66
11440 25.3300 543.51 540.37 22.99
11441 25.3320 681.48 637.55 25.83
11442 25.3340 914.51 772.83 29.98
11443 25.3360 1061.77 938.79 32.48
11444 25.3380 1206.19 1083.42 34.67
11445 25.3400 1118.11 1117.51 33.00
11446 25.3420 965.04 1023.94 30.75
11447 25.3440 846.32 887.10 28.84
11448 25.3460 741.03 778.53 27.20
11449 25.3480 698.88 718.46 26.25
11450 25.3500 675.36 704.35 25.66
11451 25.3520 708.87 729.39 26.46
11452 25.3540 842.06 786.38 28.75
11453 25.3560 892.42 863.57 29.88
11454 25.3580 1056.50 938.46 32.34
11455 25.3600 1054.24 977.16 32.16
11456 25.3620 1007.96 953.18 31.52
11457 25.3640 877.32 871.85 29.44
11458 25.3660 711.73 763.38 26.59
11459 25.3680 602.87 655.67 24.48
11460 25.3700 521.74 562.93 22.54
11461 25.3720 536.99 488.78 23.04
11462 25.3740 444.90 431.12 20.86
11463 25.3760 417.43 387.45 20.35
11464 25.3780 373.15 354.60 19.18
11465 25.3800 355.98 329.88 18.60
11466 25.3820 341.07 311.00 18.32
11467 25.3840 315.50 296.37 17.55
11468 25.3860 339.41 284.75 18.32
11469 25.3880 301.86 275.37 17.26
11470 25.3900 295.86 267.67 17.02
11471 25.3920 292.54 261.28 16.86
11472 25.3940 319.59 255.95 17.76
11473 25.3960 307.47 251.49 17.43
11474 25.3980 304.15 247.75 17.37
11475 25.4000 262.15 244.63 15.97
11476 25.4020 276.11 242.04 16.43
11477 25.4040 296.40 239.92 17.07
11478 25.4060 276.14 238.21 16.56
11479 25.4080 281.18 236.87 16.65
11480 25.4100 269.77 235.87 16.22
11481 25.4120 302.92 235.18 17.27
11482 25.4140 307.99 234.79 17.32
11483 25.4160 271.67 234.71 16.41
11484 25.4180 246.12 234.95 15.55
11485 25.4200 275.80 235.53 16.38
11486 25.4220 255.06 236.48 15.73
11487 25.4240 274.48 237.85 16.40
11488 25.4260 263.60 239.70 16.17
11489 25.4280 303.22 242.10 17.28
11490 25.4300 294.85 245.17 17.02
11491 25.4320 276.24 249.42 16.38
11492 25.4340 304.01 254.41 17.26
11493 25.4360 324.79 260.79 17.88
11494 25.4380 291.59 269.08 16.98
11495 25.4400 292.39 279.97 16.86
11496 25.4420 347.16 294.59 18.36
11497 25.4440 339.66 314.67 18.20
11498 25.4460 374.57 342.93 19.25
11499 25.4480 401.69 384.29 19.93
11500 25.4500 451.05 443.51 21.02
11501 25.4520 597.53 528.99 24.12
11502 25.4540 730.77 644.33 26.85
11503 25.4560 924.35 771.38 30.35
11504 25.4580 972.75 847.56 31.02
11505 25.4600 868.73 811.62 29.27
11506 25.4620 713.42 695.84 26.27
11507 25.4640 569.95 573.81 23.64
11508 25.4660 452.86 478.86 21.22
11509 25.4680 428.88 412.36 20.60
11510 25.4700 371.77 367.01 19.05
11511 25.4720 341.31 336.01 18.18
11512 25.4740 374.97 314.66 19.10
11513 25.4760 340.10 299.77 18.36
11514 25.4780 314.41 289.41 17.60
11515 25.4800 274.77 282.33 16.34
11516 25.4820 327.62 277.78 17.86
11517 25.4840 324.14 275.27 17.74
11518 25.4860 283.27 274.52 16.78
11519 25.4880 283.56 275.42 16.70
11520 25.4900 299.55 277.92 17.15
11521 25.4920 313.14 282.13 17.38
11522 25.4940 339.32 288.29 18.25
11523 25.4960 317.41 296.83 17.65
11524 25.4980 311.20 308.36 17.50
11525 25.5000 356.85 323.92 18.73
11526 25.5020 357.29 344.99 18.53
11527 25.5040 359.67 373.99 18.75
11528 25.5060 431.37 414.45 20.66
11529 25.5080 465.93 471.49 21.47
11530 25.5100 558.87 550.88 23.40
11531 25.5120 668.63 653.26 25.51
11532 25.5140 724.28 758.78 26.68
11533 25.5160 845.92 815.95 29.00
11534 25.5180 790.20 787.64 27.92
11535 25.5200 700.47 707.41 26.13
11536 25.5220 623.52 629.88 24.66
11537 25.5240 571.54 579.91 23.65
11538 25.5260 540.21 558.71 23.13
11539 25.5280 558.42 562.49 23.46
11540 25.5300 616.50 587.17 24.59
11541 25.5320 617.80 628.69 24.46
11542 25.5340 645.32 680.73 25.13
11543 25.5360 720.80 732.02 26.78
11544 25.5380 805.41 765.72 28.17
11545 25.5400 803.96 766.54 28.10
11546 25.5420 777.53 732.65 27.50
11547 25.5440 686.60 677.11 25.96
11548 25.5460 575.78 616.36 23.78
11549 25.5480 509.58 561.53 22.44
11550 25.5500 538.38 517.13 23.02
11551 25.5520 475.78 483.70 21.49
11552 25.5540 466.70 459.91 21.30
11553 25.5560 440.45 443.74 20.84
11554 25.5580 437.38 433.78 20.78
11555 25.5600 443.50 429.52 20.93
11556 25.5620 459.38 430.71 21.00
11557 25.5640 463.35 435.19 21.36
11558 25.5660 441.09 438.27 20.83
11559 25.5680 466.16 438.42 21.52
11560 25.5700 479.74 440.50 21.68
11561 25.5720 487.27 449.64 21.80
11562 25.5740 444.98 467.70 20.79
11563 25.5760 490.53 494.55 21.96
11564 25.5780 488.06 529.05 21.93
11565 25.5800 546.05 569.25 23.16
11566 25.5820 629.91 611.75 24.69
11567 25.5840 706.38 651.33 26.25
11568 25.5860 676.48 681.30 25.96
11569 25.5880 760.65 696.04 27.46
11570 25.5900 761.48 693.95 27.39
11571 25.5920 699.90 678.97 26.15
11572 25.5940 685.81 658.38 25.98
11573 25.5960 578.26 639.69 23.90
11574 25.5980 637.95 628.49 25.12
11575 25.6000 544.45 628.25 23.08
11576 25.6020 580.76 640.50 23.75
11577 25.6040 617.46 665.01 24.47
11578 25.6060 688.30 699.42 26.16
11579 25.6080 727.78 738.69 26.84
11580 25.6100 839.33 774.21 28.81
11581 25.6120 747.28 795.30 26.93
11582 25.6140 808.66 793.38 28.27
11583 25.6160 757.17 767.18 27.36
11584 25.6180 741.20 723.52 27.04
11585 25.6200 617.02 673.06 24.62
11586 25.6220 583.64 624.63 23.79
11587 25.6240 566.17 582.36 23.47
11588 25.6260 499.26 543.16 22.14
11589 25.6280 480.78 500.71 21.80
11590 25.6300 394.12 456.36 19.69
11591 25.6320 423.77 417.11 20.26
11592 25.6340 372.23 386.50 19.07
11593 25.6360 375.89 364.12 19.19
11594 25.6380 378.44 348.10 19.30
11595 25.6400 332.43 335.82 18.07
11596 25.6420 314.16 324.71 17.44
11597 25.6440 335.44 313.66 18.09
11598 25.6460 356.22 303.27 18.70
11599 25.6480 345.80 294.39 18.51
11600 25.6500 328.02 287.22 17.98
11601 25.6520 278.56 281.27 16.40
11602 25.6540 300.08 276.99 17.04
11603 25.6560 304.79 273.81 17.32
11604 25.6580 290.80 271.58 16.96
11605 25.6600 270.19 270.18 16.23
11606 25.6620 279.07 269.59 16.44
11607 25.6640 291.43 269.80 16.81
11608 25.6660 291.27 270.86 16.90
11609 25.6680 304.45 272.84 17.35
11610 25.6700 270.74 275.87 16.30
11611 25.6720 325.37 280.04 17.65
11612 25.6740 289.42 285.36 16.82
11613 25.6760 330.05 291.55 18.00
11614 25.6780 295.71 297.89 17.03
11615 25.6800 315.20 303.40 17.53
11616 25.6820 323.18 307.84 17.60
11617 25.6840 314.08 312.21 17.45
11618 25.6860 341.30 317.86 18.35
11619 25.6880 330.66 325.54 18.02
11620 25.6900 346.11 335.18 18.38
11621 25.6920 356.47 347.01 18.58
11622 25.6940 379.82 361.99 19.20
11623 25.6960 352.90 381.08 18.56
11624 25.6980 378.03 404.83 19.30
11625 25.7000 453.12 433.46 21.14
11626 25.7020 481.32 467.02 21.52
11627 25.7040 531.67 505.16 22.71
11628 25.7060 560.11 547.36 23.50
11629 25.7080 688.99 592.30 26.10
11630 25.7100 736.54 637.79 26.92
11631 25.7120 781.77 680.89 27.47
11632 25.7140 807.92 717.65 28.06
11633 25.7160 805.18 744.35 28.18
11634 25.7180 819.78 759.72 28.46
11635 25.7200 747.72 765.30 27.14
11636 25.7220 719.99 766.56 26.29
11637 25.7240 747.38 771.85 26.93
11638 25.7260 777.30 791.48 27.57
11639 25.7280 775.83 836.60 27.80
11640 25.7300 988.23 916.16 31.15
11641 25.7320 1100.77 1024.17 32.69
11642 25.7340 1224.32 1114.35 34.59
11643 25.7360 1190.56 1115.21 34.43
11644 25.7380 959.34 1026.43 30.90
11645 25.7400 840.45 923.45 28.78
11646 25.7420 764.40 861.73 27.29
11647 25.7440 817.53 857.25 28.20
11648 25.7460 899.96 909.20 29.89
11649 25.7480 1034.05 1000.83 32.19
11650 25.7500 1163.99 1078.72 34.03
11651 25.7520 1097.46 1064.53 32.57
11652 25.7540 869.84 949.43 29.14
11653 25.7560 689.74 805.39 26.02
11654 25.7580 563.00 685.27 23.67
11655 25.7600 519.55 600.86 22.57
11656 25.7620 452.70 548.05 20.99
11657 25.7640 453.54 519.87 20.93
11658 25.7660 476.84 511.37 21.71
11659 25.7680 517.60 519.42 22.66
11660 25.7700 584.46 541.88 23.88
11661 25.7720 664.67 576.92 25.37
11662 25.7740 682.98 621.67 25.80
11663 25.7760 790.18 670.58 27.94
11664 25.7780 770.82 715.38 27.69
11665 25.7800 835.76 743.68 28.67
11666 25.7820 761.13 745.14 27.14
11667 25.7840 695.79 717.67 26.01
11668 25.7860 671.26 668.89 25.80
11669 25.7880 608.08 610.28 24.57
11670 25.7900 580.82 551.81 23.81
11671 25.7920 535.04 497.10 22.78
11672 25.7940 484.52 449.05 21.69
11673 25.7960 409.38 408.44 20.10
11674 25.7980 383.84 375.09 19.49
11675 25.8000 377.00 348.28 19.22
11676 25.8020 388.89 326.97 19.36
11677 25.8040 346.31 310.16 18.34
11678 25.8060 302.52 296.96 17.27
11679 25.8080 298.91 286.67 17.18
11680 25.8100 309.47 278.74 17.46
11681 25.8120 312.56 272.84 17.37
11682 25.8140 305.42 268.86 17.31
11683 25.8160 283.46 266.86 16.68
11684 25.8180 290.16 267.16 16.98
11685 25.8200 290.20 270.27 16.88
11686 25.8220 316.69 276.68 17.49
11687 25.8240 293.51 285.80 16.91
11688 25.8260 316.08 293.64 17.68
11689 25.8280 300.10 293.31 17.23
11690 25.8300 283.89 283.35 16.70
11691 25.8320 240.94 270.05 15.29
11692 25.8340 286.14 258.24 16.70
11693 25.8360 253.76 249.64 15.79
11694 25.8380 275.44 243.56 16.55
11695 25.8400 268.21 239.38 16.22
11696 25.8420 268.82 236.60 16.14
11697 25.8440 270.09 234.91 16.25
11698 25.8460 261.67 234.12 16.05
11699 25.8480 243.66 234.18 15.53
11700 25.8500 255.88 235.06 15.84
11701 25.8520 260.31 236.78 15.83
11702 25.8540 245.35 239.39 15.47
11703 25.8560 265.14 242.80 16.17
11704 25.8580 267.61 246.97 16.25
11705 25.8600 277.51 251.41 16.47
11706 25.8620 279.21 255.35 16.38
11707 25.8640 270.20 257.79 16.23
11708 25.8660 250.86 258.17 15.79
11709 25.8680 256.88 256.77 15.91
11710 25.8700 283.42 254.49 16.67
11711 25.8720 243.38 252.06 15.32
11712 25.8740 278.97 249.87 16.49
11713 25.8760 239.82 248.04 15.33
11714 25.8780 231.47 246.56 15.08
11715 25.8800 242.29 245.38 15.44
11716 25.8820 230.77 244.51 14.90
11717 25.8840 227.09 243.95 14.80
11718 25.8860 238.25 243.73 15.36
11719 25.8880 295.30 243.90 17.04
11720 25.8900 263.34 244.51 16.05
11721 25.8920 243.02 245.64 15.33
11722 25.8940 268.85 247.38 16.11
11723 25.8960 270.77 249.87 16.32
11724 25.8980 286.44 253.25 16.79
11725 25.9000 270.19 257.76 16.26
11726 25.9020 263.67 263.69 15.90
11727 25.9040 269.14 271.43 16.16
11728 25.9060 315.50 281.46 17.60
11729 25.9080 297.27 294.35 17.10
11730 25.9100 329.88 310.80 17.97
11731 25.9120 300.12 331.44 17.01
11732 25.9140 351.77 356.94 18.47
11733 25.9160 372.01 387.84 19.13
11734 25.9180 430.09 424.32 20.63
11735 25.9200 524.17 466.21 22.66
11736 25.9220 589.37 512.53 23.90
11737 25.9240 608.37 561.22 24.29
11738 25.9260 668.10 608.39 25.74
11739 25.9280 699.92 648.63 26.31
11740 25.9300 759.26 675.35 27.40
11741 25.9320 747.87 683.49 26.80
11742 25.9340 685.28 671.89 25.79
11743 25.9360 687.57 644.06 26.02
11744 25.9380 632.79 606.24 25.08
11745 25.9400 633.64 564.86 24.89
11746 25.9420 574.20 524.41 23.51
11747 25.9440 574.15 487.55 23.58
11748 25.9460 469.13 455.08 21.54
11749 25.9480 471.95 426.30 21.55
11750 25.9500 475.24 400.02 21.56
11751 25.9520 415.14 375.20 20.00
11752 25.9540 392.06 351.78 19.50
11753 25.9560 379.49 330.29 19.37
11754 25.9580 350.80 311.42 18.54
11755 25.9600 353.95 295.52 18.66
11756 25.9620 323.16 282.53 17.62
11757 25.9640 307.26 272.29 17.23
11758 25.9660 271.40 264.59 16.36
11759 25.9680 260.35 259.00 16.07
11760 25.9700 265.44 255.30 16.16
11761 25.9720 293.34 253.13 16.82
11762 25.9740 266.38 251.95 16.09
11763 25.9760 296.31 250.95 17.13
11764 25.9780 271.17 249.18 16.37
11765 25.9800 275.58 246.06 16.45
11766 25.9820 265.36 241.77 16.02
11767 25.9840 249.04 237.04 15.56
11768 25.9860 277.52 232.50 16.56
11769 25.9880 256.13 228.50 15.86
11770 25.9900 226.20 224.98 14.94
11771 25.9920 244.00 222.27 15.30
11772 25.9940 231.62 220.12 15.02
11773 25.9960 234.06 218.47 15.18
11774 25.9980 238.03 217.24 15.36
11775 26.0000 251.71 216.35 15.67
11776 26.0020 227.62 215.77 14.82
11777 26.0040 223.01 215.46 14.78
11778 26.0060 221.39 215.38 14.73
11779 26.0080 244.43 215.67 15.56
11780 26.0100 238.97 216.04 15.39
11781 26.0120 239.71 216.63 15.18
11782 26.0140 234.22 217.43 15.08
11783 26.0160 232.59 218.43 15.16
11784 26.0180 215.98 219.64 14.60
11785 26.0200 214.65 221.04 14.52
11786 26.0220 216.24 222.62 14.42
11787 26.0240 200.27 224.35 13.99
11788 26.0260 216.55 226.21 14.59
11789 26.0280 254.46 228.15 15.83
11790 26.0300 237.43 230.12 15.25
11791 26.0320 236.17 232.07 15.09
11792 26.0340 227.73 233.94 14.97
11793 26.0360 232.42 235.66 15.12
11794 26.0380 270.29 237.18 16.35
11795 26.0400 249.47 238.17 15.65
11796 26.0420 244.17 239.17 15.35
11797 26.0440 234.06 240.36 15.17
11798 26.0460 220.20 240.94 14.76
11799 26.0480 247.08 241.48 15.59
11800 26.0500 233.71 242.15 15.16
11801 26.0520 260.70 243.14 15.87
11802 26.0540 262.17 244.64 16.11
11803 26.0560 272.63 246.50 16.38
11804 26.0580 241.05 249.34 15.43
11805 26.0600 272.11 252.88 16.32
11806 26.0620 259.24 256.94 15.81
11807 26.0640 276.90 261.16 16.49
11808 26.0660 258.09 264.94 15.93
11809 26.0680 294.68 267.50 17.10
11810 26.0700 278.31 268.07 16.53
11811 26.0720 248.74 266.29 15.51
11812 26.0740 258.22 262.35 15.86
11813 26.0760 291.90 256.93 17.03
11814 26.0780 276.20 250.86 16.46
11815 26.0800 268.62 244.78 16.28
11816 26.0820 264.09 239.20 15.93
11817 26.0840 249.00 234.40 15.53
11818 26.0860 229.42 230.57 15.04
11819 26.0880 206.63 227.84 14.30
11820 26.0900 226.02 226.33 14.87
11821 26.0920 256.21 226.10 15.72
11822 26.0940 276.20 226.90 16.37
11823 26.0960 265.57 227.64 16.17
11824 26.0980 247.89 226.65 15.57
11825 26.1000 234.01 223.73 15.16
11826 26.1020 246.54 220.37 15.39
11827 26.1040 214.84 217.64 14.39
11828 26.1060 243.27 215.77 15.46
11829 26.1080 216.88 214.61 14.56
11830 26.1100 223.29 213.98 14.73
11831 26.1120 207.61 213.76 14.18
11832 26.1140 225.94 213.85 14.77
11833 26.1160 270.59 214.19 16.31
11834 26.1180 208.99 214.76 14.32
11835 26.1200 248.88 215.51 15.55
11836 26.1220 263.70 216.46 15.88
11837 26.1240 256.94 217.57 15.77
11838 26.1260 257.17 218.85 15.86
11839 26.1280 236.22 220.30 15.23
11840 26.1300 231.69 221.91 15.02
11841 26.1320 263.97 223.69 15.90
11842 26.1340 241.32 225.62 15.29
11843 26.1360 260.80 227.79 16.04
11844 26.1380 217.26 230.22 14.55
11845 26.1400 244.05 233.01 15.42
11846 26.1420 242.33 236.28 15.21
11847 26.1440 274.07 240.22 16.23
11848 26.1460 271.03 245.06 16.30
11849 26.1480 253.56 251.08 15.78
11850 26.1500 284.66 258.47 16.66
11851 26.1520 291.39 267.92 16.70
11852 26.1540 315.52 279.65 17.52
11853 26.1560 296.75 293.96 17.07
11854 26.1580 308.45 311.43 17.37
11855 26.1600 320.58 332.19 17.68
11856 26.1620 349.96 356.24 18.35
11857 26.1640 387.66 383.36 19.36
11858 26.1660 381.36 412.73 19.40
11859 26.1680 449.32 442.73 20.98
11860 26.1700 455.46 470.79 21.18
11861 26.1720 459.92 493.39 21.06
11862 26.1740 513.13 506.87 22.27
11863 26.1760 515.81 508.89 22.56
11864 26.1780 504.44 499.70 22.26
11865 26.1800 490.82 482.01 21.97
11866 26.1820 447.27 459.66 20.77
11867 26.1840 424.52 436.10 20.36
11868 26.1860 417.27 413.94 20.31
11869 26.1880 405.88 394.73 19.97
11870 26.1900 367.59 379.25 19.02
11871 26.1920 349.37 367.35 18.34
11872 26.1940 317.56 358.06 17.60
11873 26.1960 334.39 349.61 18.17
11874 26.1980 314.77 340.76 17.59
11875 26.2000 335.40 331.90 18.09
11876 26.2020 303.69 324.33 17.16
11877 26.2040 281.04 319.01 16.53
11878 26.2060 321.39 316.28 17.81
11879 26.2080 303.03 316.11 17.28
11880 26.2100 333.98 318.36 18.09
11881 26.2120 316.19 322.92 17.41
11882 26.2140 348.45 329.70 18.47
11883 26.2160 328.11 338.70 18.06
11884 26.2180 370.57 349.85 19.07
11885 26.2200 335.40 363.12 18.09
11886 26.2220 338.45 378.37 18.02
11887 26.2240 366.01 395.32 18.95
11888 26.2260 357.46 413.54 18.73
11889 26.2280 378.57 432.32 19.34
11890 26.2300 423.08 450.72 20.37
11891 26.2320 465.03 467.43 21.29
11892 26.2340 488.78 480.87 21.90
11893 26.2360 473.30 489.52 21.65
11894 26.2380 465.89 492.11 21.47
11895 26.2400 524.50 488.15 22.69
11896 26.2420 429.70 478.12 20.38
11897 26.2440 449.84 463.21 20.94
11898 26.2460 467.87 444.98 21.59
11899 26.2480 415.00 425.06 20.26
11900 26.2500 373.74 404.67 19.17
11901 26.2520 379.31 384.80 19.12
11902 26.2540 358.76 366.08 18.78
11903 26.2560 342.75 348.88 18.44
11904 26.2580 306.70 333.42 17.46
11905 26.2600 333.18 319.83 18.11
11906 26.2620 284.32 308.20 16.56
11907 26.2640 287.44 298.51 16.75
11908 26.2660 298.13 290.86 17.23
11909 26.2680 303.97 285.32 17.33
11910 26.2700 289.42 281.99 16.85
11911 26.2720 296.29 280.60 16.94
11912 26.2740 294.44 279.84 17.01
11913 26.2760 276.94 277.21 16.60
11914 26.2780 283.07 271.56 16.71
11915 26.2800 296.21 264.82 17.07
11916 26.2820 281.59 258.84 16.55
11917 26.2840 250.12 254.18 15.57
11918 26.2860 270.23 250.66 16.35
11919 26.2880 269.69 247.96 16.32
11920 26.2900 258.39 245.90 15.89
11921 26.2920 267.23 244.22 16.05
11922 26.2940 248.73 243.24 15.51
11923 26.2960 237.97 242.83 15.32
11924 26.2980 219.02 243.05 14.65
11925 26.3000 256.29 243.95 15.79
11926 26.3020 240.90 245.56 15.23
11927 26.3040 267.01 247.85 16.11
11928 26.3060 245.75 250.74 15.60
11929 26.3080 240.93 253.99 15.40
11930 26.3100 261.65 257.26 16.01
11931 26.3120 279.88 260.02 16.41
11932 26.3140 277.32 261.78 16.44
11933 26.3160 253.97 262.25 15.87
11934 26.3180 256.55 261.59 15.88
11935 26.3200 259.36 260.44 15.92
11936 26.3220 249.72 259.65 15.51
11937 26.3240 254.84 259.95 15.74
11938 26.3260 240.75 261.94 15.39
11939 26.3280 254.53 266.23 15.80
11940 26.3300 267.27 273.58 16.15
11941 26.3320 318.94 285.02 17.54
11942 26.3340 303.78 302.06 17.17
11943 26.3360 270.50 326.62 16.34
11944 26.3380 374.48 360.81 19.16
11945 26.3400 406.25 404.89 19.92
11946 26.3420 501.26 452.56 21.98
11947 26.3440 527.63 485.24 22.66
11948 26.3460 511.54 481.95 22.42
11949 26.3480 444.12 444.90 20.90
11950 26.3500 357.56 396.38 18.71
11951 26.3520 326.23 353.07 17.69
11952 26.3540 294.40 319.39 16.86
11953 26.3560 282.64 294.58 16.79
11954 26.3580 266.49 276.74 16.09
11955 26.3600 257.16 264.13 15.86
11956 26.3620 271.36 255.28 16.08
11957 26.3640 292.09 249.24 16.87
11958 26.3660 265.64 245.23 16.17
11959 26.3680 265.97 242.83 16.12
11960 26.3700 241.78 241.77 15.38
11961 26.3720 252.91 241.85 15.60
11962 26.3740 263.75 242.89 15.95
11963 26.3760 253.95 244.70 15.85
11964 26.3780 238.50 247.01 15.27
11965 26.3800 256.03 249.49 15.78
11966 26.3820 258.76 252.46 15.70
11967 26.3840 260.41 256.11 15.88
11968 26.3860 257.77 260.88 15.90
11969 26.3880 267.85 267.12 16.20
11970 26.3900 273.21 275.14 16.33
11971 26.3920 294.61 285.13 16.77
11972 26.3940 263.74 297.28 15.95
11973 26.3960 301.70 311.73 17.24
11974 26.3980 292.40 328.51 16.90
11975 26.4000 330.75 347.61 17.93
11976 26.4020 333.17 368.82 17.82
11977 26.4040 357.30 391.71 18.54
11978 26.4060 391.58 415.55 19.63
11979 26.4080 384.44 439.22 19.34
11980 26.4100 411.82 461.09 20.02
11981 26.4120 435.16 479.04 20.43
11982 26.4140 426.49 490.92 20.32
11983 26.4160 453.33 494.97 21.10
11984 26.4180 497.01 490.52 21.99
11985 26.4200 455.05 478.21 21.04
11986 26.4220 463.02 459.81 20.94
11987 26.4240 421.66 437.46 20.20
11988 26.4260 380.00 413.20 19.27
11989 26.4280 366.13 388.67 18.90
11990 26.4300 327.93 365.03 17.85
11991 26.4320 310.52 343.08 17.15
11992 26.4340 295.44 323.17 16.87
11993 26.4360 266.19 305.59 16.21
11994 26.4380 245.38 290.40 15.47
11995 26.4400 251.14 277.42 15.56
11996 26.4420 241.99 266.54 15.19
11997 26.4440 268.72 257.58 16.07
11998 26.4460 244.08 250.32 15.47
11999 26.4480 221.51 244.54 14.66
12000 26.4500 227.64 240.05 14.80
12001 26.4520 212.10 236.68 14.22
12002 26.4540 199.90 234.29 13.88
12003 26.4560 224.25 232.86 14.82
12004 26.4580 230.33 232.23 14.98
12005 26.4600 221.46 232.48 14.67
12006 26.4620 230.94 233.68 14.83
12007 26.4640 242.22 236.03 15.30
12008 26.4660 252.92 239.81 15.79
12009 26.4680 248.50 245.43 15.57
12010 26.4700 248.23 253.41 15.56
12011 26.4720 252.10 264.43 15.56
12012 26.4740 269.75 279.20 16.17
12013 26.4760 284.43 298.32 16.69
12014 26.4780 313.85 321.95 17.49
12015 26.4800 345.81 349.40 18.37
12016 26.4820 419.12 377.74 20.02
12017 26.4840 414.52 400.99 20.12
12018 26.4860 417.15 411.56 20.27
12019 26.4880 392.00 404.97 19.60
12020 26.4900 380.71 384.10 19.31
12021 26.4920 351.12 356.47 18.37
12022 26.4940 289.58 328.75 16.79
12023 26.4960 278.77 304.66 16.59
12024 26.4980 257.60 285.54 15.91
12025 26.5000 269.06 271.34 16.17
12026 26.5020 233.13 261.18 14.99
12027 26.5040 247.94 253.20 15.53
12028 26.5060 231.05 245.53 15.04
12029 26.5080 205.76 238.00 14.22
12030 26.5100 213.15 231.53 14.36
12031 26.5120 212.57 226.47 14.35
12032 26.5140 186.84 222.60 13.54
12033 26.5160 212.97 219.59 14.42
12034 26.5180 220.92 217.16 14.77
12035 26.5200 210.63 215.12 14.29
12036 26.5220 214.02 213.35 14.44
12037 26.5240 198.24 211.78 13.94
12038 26.5260 196.37 210.39 13.94
12039 26.5280 207.46 209.20 14.32
12040 26.5300 193.71 208.10 13.75
12041 26.5320 202.03 207.14 14.06
12042 26.5340 193.43 206.33 13.76
12043 26.5360 189.76 205.70 13.72
12044 26.5380 201.82 205.27 14.10
12045 26.5400 197.33 205.08 13.86
12046 26.5420 198.63 205.09 13.95
12047 26.5440 196.36 205.68 13.85
12048 26.5460 222.72 206.92 14.86
12049 26.5480 190.03 209.05 13.76
12050 26.5500 202.41 212.38 14.11
12051 26.5520 200.51 217.00 14.04
12052 26.5540 233.17 222.02 15.20
12053 26.5560 219.05 224.84 14.79
12054 26.5580 229.45 223.16 15.15
12055 26.5600 205.05 218.37 14.12
12056 26.5620 189.28 213.44 13.65
12057 26.5640 196.38 209.78 13.94
12058 26.5660 188.90 207.54 13.73
12059 26.5680 189.22 206.53 13.71
12060 26.5700 165.62 206.58 12.75
12061 26.5720 202.08 207.60 14.07
12062 26.5740 212.72 209.70 14.48
12063 26.5760 170.36 213.17 13.06
12064 26.5780 176.62 218.50 13.24
12065 26.5800 202.92 226.41 14.19
12066 26.5820 234.13 237.62 15.12
12067 26.5840 257.97 251.97 15.98
12068 26.5860 275.76 265.87 16.54
12069 26.5880 238.12 271.53 15.38
12070 26.5900 248.89 264.70 15.64
12071 26.5920 233.68 250.92 15.17
12072 26.5940 185.32 237.22 13.50
12073 26.5960 208.70 226.42 14.39
12074 26.5980 218.53 218.59 14.76
12075 26.6000 198.30 213.05 13.98
12076 26.6020 179.76 209.07 13.19
12077 26.6040 188.49 206.11 13.60
12078 26.6060 196.96 203.82 13.98
12079 26.6080 174.05 201.97 13.12
12080 26.6100 174.87 200.43 13.20
12081 26.6120 170.93 199.13 12.85
12082 26.6140 192.59 197.99 13.72
12083 26.6160 165.32 196.99 12.84
12084 26.6180 192.17 196.11 13.80
12085 26.6200 175.77 195.35 13.12
12086 26.6220 187.75 194.68 13.46
12087 26.6240 162.25 194.10 12.58
12088 26.6260 178.33 193.60 13.29
12089 26.6280 176.76 193.19 13.21
12090 26.6300 175.75 192.85 13.17
12091 26.6320 170.97 192.58 12.86
12092 26.6340 212.04 192.38 14.40
12093 26.6360 183.36 192.22 13.51
12094 26.6380 182.24 192.11 13.38
12095 26.6400 180.16 192.03 13.32
12096 26.6420 165.31 191.96 12.60
12097 26.6440 200.82 191.90 14.00
12098 26.6460 172.90 191.85 13.05
12099 26.6480 179.54 191.82 13.32
12100 26.6500 189.45 191.82 13.65
12101 26.6520 205.92 191.84 14.09
12102 26.6540 190.14 191.92 13.57
12103 26.6560 186.61 192.03 13.56
12104 26.6580 197.63 192.11 13.93
12105 26.6600 180.44 192.18 13.30
12106 26.6620 183.99 192.29 13.28
12107 26.6640 168.36 192.54 12.80
12108 26.6660 179.90 192.99 13.27
12109 26.6680 187.33 193.72 13.62
12110 26.6700 191.22 194.79 13.72
12111 26.6720 207.90 196.26 14.13
12112 26.6740 167.58 198.03 12.76
12113 26.6760 197.88 199.59 14.00
12114 26.6780 212.51 200.13 14.43
12115 26.6800 210.89 199.68 14.34
12116 26.6820 196.29 198.80 13.76
12117 26.6840 203.70 198.20 14.07
12118 26.6860 212.58 198.02 14.44
12119 26.6880 188.09 198.12 13.65
12120 26.6900 212.22 198.67 14.45
12121 26.6920 196.74 199.52 13.71
12122 26.6940 199.84 200.63 13.96
12123 26.6960 177.98 202.00 13.23
12124 26.6980 169.05 203.59 12.86
12125 26.7000 199.52 205.35 13.95
12126 26.7020 223.13 207.14 14.69
12127 26.7040 202.23 208.68 13.98
12128 26.7060 190.65 209.63 13.74
12129 26.7080 223.88 209.65 14.84
12130 26.7100 185.19 208.71 13.46
12131 26.7120 204.53 207.07 14.03
12132 26.7140 184.49 205.12 13.39
12133 26.7160 184.19 203.14 13.46
12134 26.7180 194.59 201.31 13.83
12135 26.7200 157.82 199.70 12.45
12136 26.7220 170.35 198.32 12.77
12137 26.7240 190.23 197.15 13.57
12138 26.7260 168.86 196.15 12.91
12139 26.7280 173.22 195.29 13.02
12140 26.7300 208.52 194.54 14.30
12141 26.7320 177.87 193.91 13.10
12142 26.7340 175.51 193.39 13.05
12143 26.7360 182.45 193.02 13.43
12144 26.7380 187.74 192.81 13.59
12145 26.7400 197.43 192.80 13.91
12146 26.7420 180.51 193.06 13.15
12147 26.7440 179.14 193.65 13.17
12148 26.7460 176.94 194.62 13.20
12149 26.7480 167.87 195.84 12.87
12150 26.7500 180.83 196.71 13.36
12151 26.7520 185.16 196.55 13.36
12152 26.7540 175.89 195.45 13.11
12153 26.7560 189.54 194.16 13.64
12154 26.7580 180.19 193.19 13.34
12155 26.7600 177.48 192.61 13.20
12156 26.7620 174.84 192.38 12.95
12157 26.7640 177.18 192.44 13.11
12158 26.7660 205.43 192.73 14.27
12159 26.7680 192.30 193.24 13.76
12160 26.7700 173.77 193.95 13.07
12161 26.7720 199.46 194.86 13.81
12162 26.7740 150.29 195.98 12.14
12163 26.7760 204.06 197.32 14.17
12164 26.7780 191.04 198.91 13.71
12165 26.7800 188.67 200.76 13.61
12166 26.7820 181.32 202.91 13.21
12167 26.7840 184.93 205.37 13.40
12168 26.7860 206.15 208.17 14.28
12169 26.7880 186.29 211.26 13.58
12170 26.7900 180.94 214.77 13.31
12171 26.7920 186.24 218.60 13.40
12172 26.7940 187.32 222.62 13.54
12173 26.7960 206.23 226.63 14.26
12174 26.7980 212.11 230.48 14.48
12175 26.8000 202.80 234.16 14.11
12176 26.8020 205.40 237.97 14.07
12177 26.8040 212.02 242.29 14.31
12178 26.8060 223.14 247.40 14.83
12179 26.8080 204.91 253.35 14.21
12180 26.8100 194.32 259.50 13.81
12181 26.8120 247.09 264.03 15.36
12182 26.8140 238.55 265.01 15.23
12183 26.8160 247.88 262.68 15.66
12184 26.8180 217.95 259.14 14.63
12185 26.8200 220.15 256.04 14.63
12186 26.8220 203.34 253.80 13.97
12187 26.8240 215.69 252.18 14.43
12188 26.8260 210.84 250.76 14.39
12189 26.8280 229.56 249.24 15.08
12190 26.8300 254.08 247.54 15.74
12191 26.8320 220.95 245.89 14.50
12192 26.8340 225.98 244.74 14.74
12193 26.8360 235.15 244.66 15.24
12194 26.8380 254.78 246.11 15.77
12195 26.8400 192.75 248.82 13.75
12196 26.8420 238.62 250.77 15.04
12197 26.8440 255.76 249.01 15.76
12198 26.8460 207.63 243.48 14.30
12199 26.8480 229.16 237.12 15.03
12200 26.8500 229.44 231.99 14.98
12201 26.8520 186.23 228.30 13.38
12202 26.8540 208.46 225.47 14.19
12203 26.8560 192.32 223.18 13.75
12204 26.8580 224.34 220.63 14.84
12205 26.8600 194.34 218.20 13.80
12206 26.8620 209.25 216.12 14.09
12207 26.8640 171.73 214.62 12.90
12208 26.8660 219.89 213.80 14.73
12209 26.8680 190.92 213.71 13.70
12210 26.8700 189.93 214.36 13.68
12211 26.8720 201.54 215.77 13.88
12212 26.8740 189.39 217.94 13.54
12213 26.8760 198.45 220.90 14.02
12214 26.8780 186.05 224.66 13.55
12215 26.8800 203.19 229.16 14.07
12216 26.8820 218.68 233.69 14.50
12217 26.8840 229.99 236.27 14.90
12218 26.8860 240.65 234.30 15.40
12219 26.8880 203.56 228.00 14.18
12220 26.8900 200.24 220.39 14.00
12221 26.8920 202.67 213.66 13.90
12222 26.8940 183.27 208.40 13.35
12223 26.8960 174.26 204.46 13.06
12224 26.8980 173.98 201.58 13.07
12225 26.9000 163.00 199.57 12.58
12226 26.9020 180.03 198.19 13.12
12227 26.9040 153.73 197.44 12.15
12228 26.9060 166.33 197.16 12.82
12229 26.9080 176.87 197.30 13.17
12230 26.9100 174.06 197.78 13.06
12231 26.9120 162.97 198.51 12.52
12232 26.9140 172.56 199.35 12.98
12233 26.9160 170.54 200.14 12.97
12234 26.9180 167.75 200.65 12.83
12235 26.9200 188.41 200.68 13.55
12236 26.9220 175.90 200.12 12.94
12237 26.9240 176.03 199.02 13.06
12238 26.9260 173.08 197.55 13.08
12239 26.9280 160.27 195.91 12.59
12240 26.9300 168.36 194.27 12.84
12241 26.9320 180.89 192.74 13.20
12242 26.9340 193.01 191.39 13.74
12243 26.9360 167.59 190.25 12.85
12244 26.9380 167.65 189.25 12.84
12245 26.9400 183.77 188.56 13.42
12246 26.9420 166.87 188.08 12.72
12247 26.9440 186.85 187.83 13.51
12248 26.9460 184.71 187.79 13.52
12249 26.9480 159.41 187.99 12.59
12250 26.9500 175.13 188.46 13.09
12251 26.9520 176.59 189.22 13.04
12252 26.9540 175.62 190.37 13.06
12253 26.9560 166.86 192.02 12.88
12254 26.9580 172.54 194.28 13.02
12255 26.9600 150.38 197.29 12.15
12256 26.9620 157.09 200.92 12.31
12257 26.9640 201.07 204.31 14.02
12258 26.9660 169.37 205.99 12.92
12259 26.9680 178.25 204.34 13.32
12260 26.9700 184.86 200.93 13.41
12261 26.9720 183.28 197.46 13.28
12262 26.9740 172.20 194.62 12.94
12263 26.9760 170.66 192.47 13.03
12264 26.9780 166.31 190.90 12.80
12265 26.9800 178.14 189.76 13.18
12266 26.9820 166.76 188.96 12.62
12267 26.9840 181.14 188.45 13.29
12268 26.9860 195.34 188.16 13.87
12269 26.9880 177.39 188.07 13.23
12270 26.9900 170.75 188.18 12.90
12271 26.9920 174.56 188.47 12.92
12272 26.9940 187.63 188.95 13.51
12273 26.9960 161.34 189.61 12.64
12274 26.9980 194.81 190.48 13.85
12275 27.0000 173.13 191.59 13.01
12276 27.0020 191.42 192.94 13.52
12277 27.0040 191.80 194.56 13.63
12278 27.0060 188.95 196.34 13.65
12279 27.0080 203.05 198.34 14.20
12280 27.0100 190.15 200.31 13.60
12281 27.0120 171.15 202.05 12.79
12282 27.0140 175.92 203.39 13.05
12283 27.0160 230.66 204.25 15.13
12284 27.0180 175.83 204.63 13.12
12285 27.0200 188.92 204.57 13.58
12286 27.0220 186.93 204.12 13.38
12287 27.0240 178.63 203.40 13.14
12288 27.0260 179.11 202.57 13.31
12289 27.0280 198.94 201.79 14.07
12290 27.0300 193.98 201.19 13.78
12291 27.0320 180.08 200.83 13.12
12292 27.0340 211.59 200.75 14.39
12293 27.0360 191.40 201.27 13.76
12294 27.0380 177.09 201.75 13.18
12295 27.0400 203.67 202.45 14.13
12296 27.0420 184.44 203.29 13.27
12297 27.0440 195.90 204.17 13.80
12298 27.0460 211.69 204.99 14.46
12299 27.0480 210.31 205.64 14.38
12300 27.0500 179.50 206.08 13.25
12301 27.0520 218.09 206.34 14.49
12302 27.0540 174.93 206.47 13.03
12303 27.0560 197.27 206.55 14.02
12304 27.0580 184.52 206.66 13.45
12305 27.0600 182.79 206.83 13.31
12306 27.0620 175.88 207.06 12.94
12307 27.0640 200.67 207.34 13.94
12308 27.0660 171.18 207.63 12.98
12309 27.0680 176.53 207.90 13.24
12310 27.0700 198.47 208.12 13.90
12311 27.0720 196.99 208.27 13.72
12312 27.0740 198.28 208.34 13.87
12313 27.0760 202.64 208.33 14.16
12314 27.0780 180.50 208.25 13.27
12315 27.0800 195.56 208.10 13.80
12316 27.0820 198.42 207.88 13.81
12317 27.0840 191.86 207.60 13.61
12318 27.0860 171.16 207.24 13.02
12319 27.0880 176.18 206.81 13.11
12320 27.0900 197.04 206.34 13.78
12321 27.0920 186.88 205.83 13.35
12322 27.0940 198.82 205.35 13.93
12323 27.0960 225.29 204.92 14.86
12324 27.0980 157.62 204.58 12.43
12325 27.1000 165.45 204.35 12.60
12326 27.1020 194.72 204.23 13.61
12327 27.1040 188.57 204.19 13.46
12328 27.1060 175.21 204.22 13.19
12329 27.1080 180.26 204.27 13.27
12330 27.1100 165.36 204.36 12.62
12331 27.1120 184.57 204.51 13.27
12332 27.1140 189.75 204.82 13.58
12333 27.1160 190.21 205.38 13.72
12334 27.1180 186.84 206.31 13.47
12335 27.1200 182.74 207.72 13.28
12336 27.1220 193.40 209.67 13.53
12337 27.1240 196.17 211.85 13.81
12338 27.1260 193.13 213.49 13.83
12339 27.1280 208.49 213.90 14.32
12340 27.1300 212.76 213.47 14.30
12341 27.1320 219.88 213.08 14.47
12342 27.1340 183.00 213.23 13.29
12343 27.1360 176.23 214.00 13.23
12344 27.1380 167.20 215.28 12.76
12345 27.1400 192.59 217.18 13.66
12346 27.1420 207.41 219.66 14.03
12347 27.1440 184.15 222.76 13.34
12348 27.1460 210.26 226.58 14.46
12349 27.1480 214.62 231.29 14.50
12350 27.1500 233.06 237.11 15.00
12351 27.1520 224.34 244.29 14.64
12352 27.1540 226.30 253.25 14.81
12353 27.1560 241.15 264.64 15.44
12354 27.1580 250.10 279.22 15.63
12355 27.1600 254.89 298.55 15.66
12356 27.1620 276.46 324.97 16.16
12357 27.1640 311.66 362.09 17.36
12358 27.1660 364.03 415.12 19.08
12359 27.1680 414.44 490.39 20.17
12360 27.1700 622.36 592.32 24.61
12361 27.1720 787.46 710.74 27.39
12362 27.1740 810.89 802.23 28.07
12363 27.1760 749.15 804.57 27.40
12364 27.1780 604.78 715.90 24.29
12365 27.1800 512.84 597.14 22.25
12366 27.1820 408.22 494.25 19.69
12367 27.1840 330.93 418.19 17.88
12368 27.1860 269.73 365.01 16.29
12369 27.1880 266.93 328.39 16.16
12370 27.1900 261.49 303.33 15.86
12371 27.1920 257.30 286.27 15.68
12372 27.1940 244.49 274.91 15.38
12373 27.1960 223.61 267.52 14.86
12374 27.1980 197.32 262.21 13.83
12375 27.2000 206.33 257.00 14.06
12376 27.2020 228.08 251.29 14.78
12377 27.2040 236.29 246.18 15.11
12378 27.2060 205.33 242.68 14.29
12379 27.2080 222.25 241.32 14.65
12380 27.2100 224.09 242.48 14.69
12381 27.2120 223.91 246.61 14.63
12382 27.2140 251.01 253.76 15.54
12383 27.2160 226.29 262.23 14.99
12384 27.2180 264.78 267.23 16.05
12385 27.2200 257.62 264.48 15.72
12386 27.2220 244.74 255.70 15.37
12387 27.2240 214.99 245.13 14.52
12388 27.2260 229.64 235.10 15.09
12389 27.2280 210.42 227.05 14.35
12390 27.2300 229.55 220.99 14.83
12391 27.2320 199.63 216.79 13.97
12392 27.2340 187.99 213.98 13.54
12393 27.2360 183.27 212.08 13.49
12394 27.2380 201.77 210.76 14.02
12395 27.2400 205.49 209.74 14.07
12396 27.2420 206.31 208.91 14.14
12397 27.2440 181.88 208.19 13.32
12398 27.2460 203.27 207.61 14.26
12399 27.2480 213.85 207.21 14.40
12400 27.2500 222.95 207.08 14.71
12401 27.2520 199.56 207.30 13.91
12402 27.2540 221.84 207.92 14.77
12403 27.2560 216.52 208.99 14.72
12404 27.2580 173.03 210.56 13.05
12405 27.2600 212.92 212.71 14.34
12406 27.2620 199.16 215.54 13.96
12407 27.2640 236.35 219.18 15.18
12408 27.2660 223.72 223.82 15.00
12409 27.2680 212.45 229.74 14.47
12410 27.2700 235.93 237.31 15.14
12411 27.2720 265.28 247.16 16.06
12412 27.2740 241.96 260.13 15.44
12413 27.2760 257.91 277.45 16.08
12414 27.2780 294.69 300.99 17.01
12415 27.2800 339.23 333.04 18.17
12416 27.2820 418.28 376.31 20.08
12417 27.2840 448.89 433.12 20.95
12418 27.2860 504.98 503.68 22.51
12419 27.2880 589.23 582.20 24.08
12420 27.2900 645.01 648.32 24.94
12421 27.2920 714.83 670.35 26.46
12422 27.2940 636.90 633.87 24.99
12423 27.2960 498.12 560.50 22.31
12424 27.2980 401.42 481.72 19.92
12425 27.3000 357.77 414.84 18.66
12426 27.3020 293.61 363.54 16.85
12427 27.3040 282.99 325.97 16.63
12428 27.3060 251.74 299.08 15.87
12429 27.3080 233.08 280.18 15.15
12430 27.3100 240.04 267.08 15.24
12431 27.3120 244.25 258.28 15.35
12432 27.3140 245.79 252.64 15.51
12433 27.3160 249.31 249.69 15.76
12434 27.3180 247.47 247.66 15.57
12435 27.3200 236.64 246.10 15.14
12436 27.3220 240.13 244.12 15.23
12437 27.3240 242.10 241.45 15.38
12438 27.3260 220.74 238.34 14.83
12439 27.3280 216.80 235.33 14.61
12440 27.3300 224.34 232.85 14.70
12441 27.3320 215.80 231.12 14.51
12442 27.3340 200.57 230.15 13.95
12443 27.3360 207.79 229.87 14.40
12444 27.3380 217.17 230.14 14.59
12445 27.3400 211.78 230.80 14.32
12446 27.3420 229.26 231.71 14.89
12447 27.3440 199.03 232.78 13.93
12448 27.3460 214.82 234.02 14.63
12449 27.3480 231.04 235.54 15.12
12450 27.3500 233.23 237.54 15.01
12451 27.3520 230.61 240.23 14.98
12452 27.3540 209.41 243.79 14.35
12453 27.3560 269.24 248.33 16.32
12454 27.3580 253.90 254.19 15.79
12455 27.3600 269.05 262.42 16.17
12456 27.3620 255.64 273.62 15.78
12457 27.3640 279.62 289.38 16.52
12458 27.3660 301.16 311.45 17.30
12459 27.3680 344.53 342.23 18.44
12460 27.3700 365.35 384.87 18.94
12461 27.3720 439.14 442.81 20.63
12462 27.3740 580.42 517.70 23.83
12463 27.3760 605.73 604.55 24.61
12464 27.3780 667.43 682.18 25.74
12465 27.3800 691.84 715.44 25.94
12466 27.3820 671.63 686.18 25.55
12467 27.3840 515.50 616.04 22.56
12468 27.3860 507.54 539.32 22.56
12469 27.3880 401.13 474.69 19.92
12470 27.3900 419.62 424.84 20.25
12471 27.3920 381.30 386.30 19.33
12472 27.3940 354.40 354.91 18.57
12473 27.3960 288.98 327.65 17.01
12474 27.3980 288.90 303.92 16.92
12475 27.4000 264.22 283.69 16.07
12476 27.4020 241.76 266.88 15.28
12477 27.4040 234.75 253.22 15.17
12478 27.4060 251.64 242.28 15.85
12479 27.4080 238.51 233.62 15.35
12480 27.4100 225.02 226.80 14.84
12481 27.4120 217.58 221.51 14.50
12482 27.4140 209.38 217.43 14.39
12483 27.4160 227.49 214.34 15.05
12484 27.4180 216.10 212.06 14.65
12485 27.4200 202.72 210.46 14.05
12486 27.4220 227.45 209.43 14.81
12487 27.4240 216.39 208.89 14.55
12488 27.4260 213.44 208.73 14.55
12489 27.4280 216.18 208.81 14.66
12490 27.4300 215.29 208.93 14.47
12491 27.4320 209.51 208.88 14.30
12492 27.4340 226.43 208.50 14.87
12493 27.4360 221.82 207.83 14.89
12494 27.4380 246.33 207.06 15.63
12495 27.4400 194.63 206.40 13.75
12496 27.4420 230.84 206.07 14.92
12497 27.4440 204.82 206.22 14.15
12498 27.4460 184.82 207.02 13.57
12499 27.4480 221.82 208.62 14.81
12500 27.4500 205.35 211.05 14.18
12501 27.4520 217.41 213.98 14.51
12502 27.4540 224.78 216.33 14.82
12503 27.4560 216.61 216.99 14.65
12504 27.4580 206.40 216.09 14.28
12505 27.4600 205.42 214.44 14.08
12506 27.4620 219.06 212.57 14.57
12507 27.4640 213.75 210.84 14.46
12508 27.4660 212.05 209.58 14.51
12509 27.4680 196.40 208.92 13.96
12510 27.4700 205.82 208.85 14.19
12511 27.4720 226.98 209.31 14.79
12512 27.4740 203.67 210.23 14.09
12513 27.4760 201.05 211.54 14.14
12514 27.4780 207.85 213.19 14.32
12515 27.4800 220.75 215.12 14.63
12516 27.4820 214.45 217.30 14.43
12517 27.4840 226.20 219.74 14.87
12518 27.4860 242.18 222.56 15.49
12519 27.4880 221.11 225.95 14.86
12520 27.4900 229.84 230.12 14.91
12521 27.4920 281.25 234.96 16.45
12522 27.4940 244.70 239.48 15.45
12523 27.4960 239.09 241.55 15.39
12524 27.4980 245.19 241.08 15.61
12525 27.5000 238.40 239.54 15.22
12526 27.5020 233.15 238.91 15.00
12527 27.5040 246.51 240.10 15.54
12528 27.5060 261.10 243.32 16.14
12529 27.5080 266.79 248.22 16.20
12530 27.5100 299.20 253.14 17.15
12531 27.5120 281.54 254.81 16.48
12532 27.5140 275.31 250.89 16.32
12533 27.5160 229.40 242.94 15.11
12534 27.5180 247.75 234.26 15.65
12535 27.5200 244.80 226.77 15.39
12536 27.5220 227.22 220.87 14.76
12537 27.5240 209.33 216.36 14.27
12538 27.5260 225.68 212.96 14.92
12539 27.5280 265.46 210.42 16.20
12540 27.5300 229.44 208.57 14.97
12541 27.5320 218.67 207.32 14.53
12542 27.5340 206.28 206.60 14.14
12543 27.5360 218.37 206.39 14.69
12544 27.5380 210.38 206.71 14.36
12545 27.5400 229.94 207.56 14.99
12546 27.5420 240.71 209.04 15.18
12547 27.5440 242.57 211.20 15.37
12548 27.5460 236.18 214.14 15.23
12549 27.5480 234.18 217.91 15.26
12550 27.5500 243.93 222.46 15.41
12551 27.5520 261.75 227.73 15.90
12552 27.5540 250.70 233.75 15.61
12553 27.5560 218.70 241.05 14.66
12554 27.5580 243.36 250.54 15.53
12555 27.5600 281.28 263.47 16.58
12556 27.5620 295.88 281.34 16.83
12557 27.5640 301.70 306.15 17.16
12558 27.5660 343.39 340.76 18.46
12559 27.5680 374.62 388.45 19.27
12560 27.5700 406.98 451.38 19.97
12561 27.5720 566.34 524.91 23.43
12562 27.5740 610.49 588.71 24.42
12563 27.5760 617.81 608.56 24.69
12564 27.5780 592.04 570.78 24.26
12565 27.5800 459.88 500.62 21.14
12566 27.5820 418.04 430.01 20.06
12567 27.5840 345.79 373.08 18.41
12568 27.5860 348.73 331.05 18.62
12569 27.5880 295.77 300.98 17.12
12570 27.5900 303.21 279.65 17.20
12571 27.5920 300.90 264.51 17.01
12572 27.5940 282.50 253.75 16.61
12573 27.5960 239.32 246.21 15.40
12574 27.5980 268.55 241.01 16.27
12575 27.6000 236.61 237.67 15.20
12576 27.6020 261.10 235.87 15.85
12577 27.6040 244.99 235.41 15.44
12578 27.6060 275.39 236.22 16.49
12579 27.6080 273.30 238.32 16.47
12580 27.6100 268.54 241.82 16.16
12581 27.6120 292.71 246.95 16.84
12582 27.6140 329.11 254.02 17.89
12583 27.6160 278.74 263.45 16.58
12584 27.6180 287.17 275.82 16.83
12585 27.6200 313.68 291.74 17.48
12586 27.6220 333.31 311.94 17.93
12587 27.6240 362.32 337.05 18.71
12588 27.6260 380.87 367.75 19.37
12589 27.6280 418.94 404.36 20.41
12590 27.6300 490.10 446.73 21.91
12591 27.6320 519.37 493.98 22.27
12592 27.6340 588.00 543.32 23.89
12593 27.6360 620.61 589.45 24.81
12594 27.6380 617.92 624.14 24.74
12595 27.6400 693.88 638.80 25.95
12596 27.6420 606.69 629.43 24.26
12597 27.6440 626.67 598.91 24.65
12598 27.6460 553.27 554.76 23.36
12599 27.6480 492.32 505.65 22.08
12600 27.6500 397.72 457.78 19.69
12601 27.6520 410.67 414.54 19.91
12602 27.6540 324.21 377.09 17.69
12603 27.6560 309.29 345.70 17.52
12604 27.6580 306.08 320.00 17.41
12605 27.6600 309.84 299.31 17.35
12606 27.6620 275.92 282.91 16.26
12607 27.6640 272.99 269.78 16.31
12608 27.6660 238.64 259.66 15.38
12609 27.6680 274.23 251.80 16.49
12610 27.6700 236.13 245.76 15.19
12611 27.6720 243.13 241.21 15.30
12612 27.6740 279.50 237.92 16.42
12613 27.6760 249.00 235.79 15.68
12614 27.6780 243.57 234.70 15.49
12615 27.6800 237.57 234.66 15.17
12616 27.6820 254.50 235.70 15.63
12617 27.6840 242.36 237.91 15.31
12618 27.6860 257.44 241.48 15.95
12619 27.6880 256.25 246.88 15.89
12620 27.6900 277.95 254.52 16.43
12621 27.6920 246.86 265.07 15.37
12622 27.6940 254.89 279.07 15.68
12623 27.6960 258.18 296.73 15.98
12624 27.6980 296.65 318.45 17.12
12625 27.7000 323.90 345.36 17.71
12626 27.7020 373.31 378.86 18.93
12627 27.7040 391.32 418.99 19.43
12628 27.7060 452.77 463.11 21.11
12629 27.7080 558.18 504.28 23.54
12630 27.7100 568.31 531.68 23.48
12631 27.7120 600.34 535.40 24.15
12632 27.7140 546.87 514.17 22.93
12633 27.7160 438.98 476.34 20.93
12634 27.7180 424.86 433.03 20.45
12635 27.7200 342.75 391.98 18.33
12636 27.7220 318.94 356.62 17.49
12637 27.7240 291.77 327.75 16.82
12638 27.7260 254.89 304.98 15.87
12639 27.7280 278.50 287.55 16.56
12640 27.7300 261.56 274.42 15.95
12641 27.7320 263.22 264.70 15.85
12642 27.7340 252.75 257.71 15.61
12643 27.7360 249.13 252.81 15.71
12644 27.7380 254.87 249.77 15.81
12645 27.7400 268.88 248.54 16.17
12646 27.7420 262.21 249.26 15.86
12647 27.7440 238.16 252.45 15.18
12648 27.7460 232.29 258.30 15.13
12649 27.7480 300.05 267.51 17.27
12650 27.7500 298.09 281.45 17.02
12651 27.7520 316.20 301.01 17.45
12652 27.7540 379.91 327.30 19.22
12653 27.7560 392.75 359.99 19.72
12654 27.7580 405.16 393.79 20.02
12655 27.7600 427.77 415.38 20.40
12656 27.7620 415.42 411.18 20.01
12657 27.7640 374.59 382.64 19.09
12658 27.7660 324.45 344.52 17.93
12659 27.7680 291.88 309.11 17.02
12660 27.7700 307.80 280.94 17.37
12661 27.7720 281.16 260.02 16.46
12662 27.7740 267.26 245.00 16.18
12663 27.7760 224.59 234.42 14.95
12664 27.7780 256.01 227.12 15.93
12665 27.7800 220.25 222.21 14.61
12666 27.7820 239.51 219.00 15.17
12667 27.7840 223.39 216.98 14.72
12668 27.7860 217.47 215.72 14.66
12669 27.7880 201.76 214.89 14.11
12670 27.7900 210.62 214.31 14.36
12671 27.7920 220.92 213.89 14.55
12672 27.7940 225.38 213.55 14.82
12673 27.7960 213.33 213.15 14.53
12674 27.7980 220.40 212.50 14.71
12675 27.8000 214.30 211.46 14.38
12676 27.8020 206.67 210.19 14.11
12677 27.8040 200.03 208.21 13.95
12678 27.8060 202.61 205.86 14.15
12679 27.8080 220.28 203.24 14.78
12680 27.8100 200.86 200.42 13.99
12681 27.8120 192.48 197.50 13.61
12682 27.8140 205.63 194.61 14.12
12683 27.8160 196.73 191.87 13.98
12684 27.8180 196.52 189.38 13.90
12685 27.8200 214.02 187.19 14.45
12686 27.8220 217.30 185.31 14.47
12687 27.8240 213.28 183.72 14.46
12688 27.8260 193.06 182.39 13.82
12689 27.8280 198.34 181.29 14.02
12690 27.8300 214.09 180.38 14.45
12691 27.8320 200.17 179.62 13.91
12692 27.8340 202.29 178.99 14.04
12693 27.8360 202.29 178.47 14.12
12694 27.8380 179.35 178.03 13.32
12695 27.8400 179.43 177.65 13.18
12696 27.8420 208.41 177.34 14.18
12697 27.8440 207.38 177.08 14.20
12698 27.8460 172.69 176.86 13.05
12699 27.8480 228.94 176.68 15.01
12700 27.8500 167.98 176.54 12.79
12701 27.8520 187.17 176.43 13.45
12702 27.8540 202.50 176.35 14.02
12703 27.8560 200.50 176.31 14.11
12704 27.8580 178.66 176.31 13.31
12705 27.8600 217.75 176.35 14.56
12706 27.8620 183.51 176.41 13.28
12707 27.8640 193.54 176.54 13.71
12708 27.8660 186.43 176.72 13.61
12709 27.8680 178.16 176.96 13.28
12710 27.8700 173.03 177.26 13.00
12711 27.8720 198.04 177.68 13.80
12712 27.8740 175.53 178.21 13.06
12713 27.8760 171.66 178.89 13.05
12714 27.8780 182.60 179.79 13.42
12715 27.8800 197.67 181.31 13.87
12716 27.8820 198.97 182.92 13.92
12717 27.8840 192.07 185.12 13.64
12718 27.8860 215.09 188.11 14.59
12719 27.8880 207.07 192.06 14.30
12720 27.8900 208.75 196.76 14.30
12721 27.8920 189.66 201.03 13.51
12722 27.8940 213.17 202.98 14.44
12723 27.8960 201.25 202.24 14.14
12724 27.8980 197.58 200.53 13.96
12725 27.9000 212.79 199.45 14.38
12726 27.9020 206.92 199.53 14.16
12727 27.9040 193.54 200.68 13.67
12728 27.9060 228.54 202.67 15.08
12729 27.9080 204.96 205.26 14.22
12730 27.9100 204.91 208.22 14.10
12731 27.9120 168.42 211.33 12.70
12732 27.9140 198.87 214.47 13.85
12733 27.9160 187.30 217.68 13.60
12734 27.9180 240.55 221.05 15.37
12735 27.9200 216.97 224.40 14.55
12736 27.9220 244.43 226.53 15.36
12737 27.9240 223.50 225.55 14.70
12738 27.9260 216.51 221.10 14.65
12739 27.9280 197.24 215.46 13.97
12740 27.9300 181.47 210.12 13.28
12741 27.9320 175.85 205.65 13.01
12742 27.9340 202.53 202.03 14.01
12743 27.9360 206.52 199.15 14.31
12744 27.9380 199.32 196.87 14.02
12745 27.9400 227.38 195.06 14.89
12746 27.9420 208.65 193.75 14.20
12747 27.9440 201.03 192.68 13.95
12748 27.9460 221.04 191.93 14.77
12749 27.9480 199.97 191.49 14.06
12750 27.9500 201.21 191.39 14.02
12751 27.9520 186.32 191.64 13.40
12752 27.9540 191.69 192.29 13.67
12753 27.9560 203.50 193.38 14.24
12754 27.9580 195.55 195.00 13.87
12755 27.9600 206.02 197.27 14.16
12756 27.9620 203.86 200.38 14.04
12757 27.9640 237.59 204.57 15.14
12758 27.9660 233.16 210.21 15.13
12759 27.9680 219.83 217.77 14.72
12760 27.9700 245.22 227.78 15.49
12761 27.9720 260.32 240.89 15.83
12762 27.9740 264.49 257.49 16.07
12763 27.9760 266.59 277.26 16.28
12764 27.9780 307.42 298.08 17.41
12765 27.9800 321.64 316.34 17.75
12766 27.9820 341.11 328.57 18.14
12767 27.9840 381.80 332.30 19.34
12768 27.9860 344.45 326.77 18.47
12769 27.9880 331.01 314.36 18.08
12770 27.9900 296.33 299.28 17.03
12771 27.9920 295.01 285.04 16.89
12772 27.9940 278.84 273.46 16.50
12773 27.9960 246.07 265.11 15.59
12774 27.9980 268.72 259.92 16.29
12775 28.0000 266.92 257.56 16.15
12776 28.0020 255.69 257.56 15.71
12777 28.0040 239.65 259.18 15.29
12778 28.0060 245.89 261.54 15.59
12779 28.0080 237.71 264.14 15.30
12780 28.0100 284.58 266.88 16.72
12781 28.0120 284.52 269.77 16.56
12782 28.0140 234.96 271.56 15.15
12783 28.0160 273.22 269.23 16.48
12784 28.0180 274.61 261.79 16.46
12785 28.0200 228.13 252.17 14.89
12786 28.0220 280.21 243.45 16.43
12787 28.0240 239.53 236.63 15.30
12788 28.0260 244.12 231.57 15.50
12789 28.0280 252.81 227.82 15.80
12790 28.0300 247.13 224.99 15.55
12791 28.0320 250.70 222.75 15.58
12792 28.0340 242.66 220.87 15.46
12793 28.0360 237.97 219.26 15.36
12794 28.0380 239.21 217.88 15.35
12795 28.0400 227.21 216.76 14.89
12796 28.0420 242.27 215.97 15.29
12797 28.0440 229.20 215.54 15.01
12798 28.0460 209.62 215.52 14.38
12799 28.0480 235.62 215.91 15.26
12800 28.0500 246.76 216.74 15.52
12801 28.0520 228.71 218.05 14.93
12802 28.0540 242.07 219.86 15.37
12803 28.0560 224.66 222.24 14.88
12804 28.0580 240.51 225.29 15.41
12805 28.0600 241.84 229.20 15.40
12806 28.0620 223.37 234.36 14.62
12807 28.0640 248.22 241.34 15.59
12808 28.0660 257.65 250.82 15.97
12809 28.0680 219.22 262.86 14.72
12810 28.0700 275.12 275.51 16.38
12811 28.0720 272.89 283.52 16.23
12812 28.0740 258.77 282.59 15.86
12813 28.0760 253.87 275.47 15.87
12814 28.0780 267.95 268.21 16.24
12815 28.0800 264.27 264.06 16.05
12816 28.0820 246.93 263.30 15.44
12817 28.0840 276.90 264.86 16.43
12818 28.0860 258.89 267.23 16.01
12819 28.0880 265.09 269.48 16.18
12820 28.0900 299.88 271.78 17.11
12821 28.0920 263.98 274.70 15.95
12822 28.0940 287.20 278.46 16.77
12823 28.0960 298.96 282.76 17.18
12824 28.0980 289.12 287.00 16.87
12825 28.1000 284.34 290.42 16.65
12826 28.1020 295.17 292.28 16.86
12827 28.1040 270.31 292.09 16.17
12828 28.1060 254.10 289.73 15.83
12829 28.1080 263.39 285.39 16.11
12830 28.1100 273.99 279.54 16.25
12831 28.1120 292.55 272.67 16.81
12832 28.1140 259.20 265.33 15.82
12833 28.1160 242.14 257.95 15.43
12834 28.1180 214.18 250.94 14.53
12835 28.1200 254.66 244.61 15.71
12836 28.1220 229.10 239.20 14.75
12837 28.1240 235.35 234.86 15.10
12838 28.1260 235.39 231.62 15.19
12839 28.1280 240.87 229.25 15.32
12840 28.1300 239.23 227.01 15.20
12841 28.1320 239.31 224.47 15.13
12842 28.1340 224.35 221.73 14.73
12843 28.1360 212.39 219.42 14.47
12844 28.1380 221.95 217.88 14.76
12845 28.1400 227.56 217.17 14.84
12846 28.1420 206.21 217.21 14.05
12847 28.1440 224.33 217.98 14.74
12848 28.1460 232.60 219.48 15.10
12849 28.1480 209.06 221.77 14.31
12850 28.1500 232.58 224.98 15.02
12851 28.1520 223.93 229.30 14.72
12852 28.1540 231.41 234.95 14.95
12853 28.1560 227.08 242.23 14.95
12854 28.1580 257.56 251.44 15.90
12855 28.1600 265.45 262.91 16.04
12856 28.1620 266.68 276.93 15.94
12857 28.1640 278.93 293.74 16.38
12858 28.1660 293.55 313.40 16.99
12859 28.1680 343.61 335.73 18.40
12860 28.1700 403.48 360.27 19.79
12861 28.1720 409.84 385.84 19.89
12862 28.1740 432.30 410.54 20.53
12863 28.1760 491.78 431.56 22.05
12864 28.1780 441.04 445.47 20.82
12865 28.1800 464.55 449.77 21.29
12866 28.1820 456.68 443.50 20.94
12867 28.1840 435.21 427.98 20.58
12868 28.1860 445.19 406.48 20.99
12869 28.1880 426.21 382.17 20.49
12870 28.1900 363.40 357.74 18.76
12871 28.1920 324.38 334.92 17.66
12872 28.1940 314.80 314.73 17.59
12873 28.1960 282.66 297.64 16.65
12874 28.1980 258.97 283.66 15.97
12875 28.2000 294.05 272.77 16.86
12876 28.2020 284.52 264.69 16.53
12877 28.2040 281.28 259.17 16.53
12878 28.2060 279.22 255.89 16.60
12879 28.2080 259.17 254.61 15.95
12880 28.2100 290.48 255.12 16.81
12881 28.2120 254.19 257.39 15.66
12882 28.2140 241.16 261.53 15.38
12883 28.2160 254.36 267.84 15.80
12884 28.2180 282.64 276.80 16.70
12885 28.2200 295.61 289.02 17.00
12886 28.2220 294.80 305.33 16.81
12887 28.2240 316.13 326.62 17.60
12888 28.2260 365.49 353.77 18.98
12889 28.2280 397.87 387.46 19.84
12890 28.2300 463.30 427.78 21.24
12891 28.2320 537.96 473.33 22.76
12892 28.2340 566.14 520.12 23.62
12893 28.2360 607.79 560.34 24.53
12894 28.2380 640.96 583.37 25.20
12895 28.2400 580.89 581.25 23.85
12896 28.2420 541.23 554.45 22.90
12897 28.2440 517.78 511.56 22.48
12898 28.2460 449.99 463.13 21.16
12899 28.2480 447.55 416.57 21.01
12900 28.2500 391.95 375.54 19.62
12901 28.2520 375.88 341.24 19.01
12902 28.2540 323.03 313.40 17.80
12903 28.2560 312.49 291.30 17.59
12904 28.2580 276.29 273.99 16.60
12905 28.2600 286.94 260.56 16.69
12906 28.2620 289.17 250.54 16.69
12907 28.2640 229.64 242.85 15.01
12908 28.2660 250.03 237.41 15.69
12909 28.2680 261.07 233.93 16.08
12910 28.2700 237.69 231.91 15.32
12911 28.2720 217.64 230.14 14.48
12912 28.2740 223.10 227.21 14.72
12913 28.2760 255.99 222.85 15.99
12914 28.2780 207.12 218.25 14.29
12915 28.2800 253.95 214.38 15.75
12916 28.2820 225.59 211.41 14.78
12917 28.2840 221.84 209.26 14.72
12918 28.2860 217.43 207.85 14.64
12919 28.2880 224.44 207.08 14.95
12920 28.2900 213.99 206.88 14.44
12921 28.2920 204.36 207.19 14.01
12922 28.2940 225.61 207.99 14.85
12923 28.2960 232.13 209.17 15.13
12924 28.2980 226.36 210.72 14.92
12925 28.3000 194.71 212.87 13.78
12926 28.3020 214.10 215.08 14.35
12927 28.3040 207.21 217.51 14.13
12928 28.3060 233.04 220.04 15.22
12929 28.3080 210.82 222.34 14.41
12930 28.3100 248.45 224.00 15.52
12931 28.3120 222.18 224.48 14.66
12932 28.3140 204.28 223.56 14.10
12933 28.3160 231.41 221.47 15.11
12934 28.3180 202.19 218.72 14.08
12935 28.3200 188.05 215.74 13.57
12936 28.3220 216.01 212.84 14.35
12937 28.3240 214.55 210.12 14.43
12938 28.3260 212.85 207.67 14.45
12939 28.3280 205.30 205.49 14.25
12940 28.3300 205.50 203.59 14.12
12941 28.3320 213.86 201.96 14.38
12942 28.3340 210.92 200.60 14.30
12943 28.3360 226.53 199.51 15.01
12944 28.3380 210.64 198.67 14.38
12945 28.3400 219.10 198.08 14.62
12946 28.3420 204.45 197.72 14.02
12947 28.3440 197.67 197.57 13.86
12948 28.3460 207.54 197.56 14.33
12949 28.3480 205.18 197.66 14.16
12950 28.3500 204.07 197.76 14.14
12951 28.3520 210.72 197.78 14.18
12952 28.3540 218.09 197.64 14.56
12953 28.3560 194.50 197.26 13.86
12954 28.3580 203.79 196.50 14.16
12955 28.3600 221.53 195.10 14.63
12956 28.3620 213.17 192.88 14.34
12957 28.3640 218.78 190.14 14.58
12958 28.3660 191.82 187.37 13.74
12959 28.3680 200.73 184.88 14.04
12960 28.3700 191.40 182.76 13.60
12961 28.3720 195.75 181.00 13.74
12962 28.3740 204.71 179.54 14.00
12963 28.3760 206.55 178.35 14.28
12964 28.3780 183.66 177.39 13.41
12965 28.3800 194.72 176.64 13.71
12966 28.3820 182.52 176.06 13.15
12967 28.3840 181.67 175.64 13.25
12968 28.3860 166.20 175.37 12.75
12969 28.3880 204.42 175.21 14.17
12970 28.3900 187.75 175.16 13.45
12971 28.3920 203.42 175.19 13.96
12972 28.3940 201.02 175.28 13.89
12973 28.3960 188.06 175.43 13.62
12974 28.3980 206.33 175.67 14.22
12975 28.4000 199.68 176.05 13.85
12976 28.4020 210.92 176.63 14.17
12977 28.4040 182.09 177.63 13.23
12978 28.4060 196.02 178.97 13.91
12979 28.4080 199.35 180.83 13.98
12980 28.4100 212.61 183.34 14.32
12981 28.4120 209.29 186.54 14.10
12982 28.4140 210.21 190.34 14.24
12983 28.4160 251.05 194.32 15.73
12984 28.4180 236.04 197.53 15.12
12985 28.4200 211.73 198.74 14.30
12986 28.4220 238.04 197.33 15.05
12987 28.4240 192.70 193.89 13.63
12988 28.4260 183.15 189.65 13.37
12989 28.4280 207.47 185.56 14.26
12990 28.4300 201.05 182.05 13.88
12991 28.4320 201.32 179.24 13.91
12992 28.4340 183.21 177.05 13.24
12993 28.4360 171.32 175.37 13.04
12994 28.4380 185.25 174.10 13.45
12995 28.4400 202.45 173.14 13.96
12996 28.4420 193.58 172.40 13.61
12997 28.4440 210.50 171.83 14.22
12998 28.4460 206.23 171.39 14.24
12999 28.4480 192.19 170.99 13.68
13000 28.4500 196.49 170.74 13.72
13001 28.4520 187.22 170.52 13.35
13002 28.4540 195.42 170.35 13.71
13003 28.4560 201.88 170.22 14.08
13004 28.4580 215.26 170.39 14.48
13005 28.4600 202.89 170.33 13.99
13006 28.4620 184.89 170.29 13.32
13007 28.4640 189.16 170.28 13.48
13008 28.4660 205.07 170.29 14.22
13009 28.4680 188.44 170.33 13.59
13010 28.4700 203.02 170.39 14.02
13011 28.4720 163.05 170.48 12.55
13012 28.4740 207.44 170.59 14.12
13013 28.4760 196.25 170.72 13.95
13014 28.4780 181.89 170.88 13.29
13015 28.4800 186.98 171.07 13.44
13016 28.4820 190.34 171.29 13.51
13017 28.4840 201.82 171.55 14.00
13018 28.4860 193.20 171.86 13.81
13019 28.4880 187.25 172.22 13.54
13020 28.4900 177.72 172.66 13.13
13021 28.4920 180.17 173.19 13.20
13022 28.4940 193.13 173.83 13.66
13023 28.4960 166.46 174.63 12.88
13024 28.4980 198.42 175.61 13.98
13025 28.5000 214.58 176.81 14.35
13026 28.5020 208.64 178.28 14.22
13027 28.5040 179.85 180.04 13.21
13028 28.5060 221.68 182.07 14.75
13029 28.5080 193.04 184.32 13.80
13030 28.5100 210.96 186.58 14.31
13031 28.5120 240.35 188.62 15.21
13032 28.5140 200.61 190.12 14.02
13033 28.5160 236.99 191.18 15.30
13034 28.5180 204.74 192.23 14.19
13035 28.5200 259.20 193.86 15.82
13036 28.5220 219.61 196.67 14.64
13037 28.5240 249.00 201.01 15.62
13038 28.5260 228.07 206.54 14.97
13039 28.5280 232.05 211.38 15.17
13040 28.5300 238.50 212.42 15.21
13041 28.5320 221.53 208.73 14.67
13042 28.5340 250.73 202.91 15.71
13043 28.5360 232.45 197.62 15.16
13044 28.5380 201.92 193.81 14.14
13045 28.5400 209.81 191.44 14.25
13046 28.5420 214.31 190.22 14.41
13047 28.5440 182.61 189.90 13.41
13048 28.5460 216.50 190.30 14.66
13049 28.5480 201.09 191.33 14.14
13050 28.5500 192.44 192.91 13.68
13051 28.5520 233.58 194.99 15.09
13052 28.5540 192.33 197.52 13.80
13053 28.5560 213.90 200.38 14.60
13054 28.5580 212.96 203.38 14.55
13055 28.5600 223.08 206.23 14.79
13056 28.5620 213.32 208.67 14.44
13057 28.5640 238.45 210.66 15.33
13058 28.5660 207.99 212.42 14.40
13059 28.5680 220.33 214.36 14.79
13060 28.5700 231.28 216.88 15.08
13061 28.5720 239.93 220.32 15.33
13062 28.5740 266.98 224.95 16.29
13063 28.5760 290.91 231.03 17.03
13064 28.5780 275.63 238.80 16.50
13065 28.5800 283.30 248.67 16.67
13066 28.5820 282.36 260.49 16.60
13067 28.5840 319.22 274.62 17.75
13068 28.5860 309.98 291.11 17.58
13069 28.5880 322.72 309.98 17.97
13070 28.5900 353.00 330.95 18.60
13071 28.5920 400.49 353.39 19.75
13072 28.5940 364.62 376.13 19.01
13073 28.5960 456.11 397.02 21.37
13074 28.5980 416.55 413.40 20.35
13075 28.6000 448.63 422.81 20.95
13076 28.6020 448.18 423.80 20.90
13077 28.6040 443.48 416.61 20.92
13078 28.6060 417.52 403.18 20.38
13079 28.6080 428.27 386.20 20.66
13080 28.6100 399.27 368.38 19.78
13081 28.6120 351.18 351.73 18.52
13082 28.6140 327.87 337.52 17.93
13083 28.6160 319.27 326.50 17.77
13084 28.6180 324.86 318.39 18.00
13085 28.6200 295.21 313.23 16.98
13086 28.6220 306.72 310.86 17.29
13087 28.6240 343.34 311.16 18.38
13088 28.6260 320.42 313.40 17.82
13089 28.6280 292.65 315.16 17.01
13090 28.6300 330.85 313.41 17.99
13091 28.6320 303.87 308.51 17.15
13092 28.6340 291.64 304.04 16.88
13093 28.6360 293.97 302.73 17.05
13094 28.6380 304.93 304.98 17.33
13095 28.6400 309.33 309.24 17.38
13096 28.6420 307.02 313.36 17.30
13097 28.6440 280.33 316.39 16.52
13098 28.6460 313.80 319.98 17.58
13099 28.6480 330.35 325.34 18.05
13100 28.6500 338.72 332.51 18.24
13101 28.6520 307.92 340.68 17.30
13102 28.6540 339.12 348.67 18.16
13103 28.6560 333.95 355.21 18.18
13104 28.6580 347.45 359.08 18.53
13105 28.6600 347.59 359.45 18.41
13106 28.6620 321.67 356.05 17.63
13107 28.6640 345.73 349.22 18.35
13108 28.6660 332.74 339.68 18.06
13109 28.6680 343.75 328.25 18.44
13110 28.6700 314.92 315.66 17.53
13111 28.6720 300.92 302.62 17.01
13112 28.6740 233.77 289.89 15.11
13113 28.6760 261.11 278.08 16.04
13114 28.6780 269.97 267.56 16.31
13115 28.6800 256.21 258.02 15.81
13116 28.6820 262.79 248.69 15.94
13117 28.6840 234.07 239.10 15.10
13118 28.6860 270.97 229.69 16.34
13119 28.6880 238.78 221.20 15.28
13120 28.6900 226.56 214.14 14.91
13121 28.6920 207.33 208.48 14.15
13122 28.6940 220.07 204.08 14.65
13123 28.6960 215.83 200.61 14.52
13124 28.6980 218.09 197.89 14.67
13125 28.7000 183.10 195.78 13.34
13126 28.7020 192.60 194.14 13.62
13127 28.7040 200.15 192.89 13.96
13128 28.7060 201.08 191.95 14.07
13129 28.7080 187.44 191.29 13.59
13130 28.7100 196.82 190.87 13.89
13131 28.7120 224.56 190.70 14.76
13132 28.7140 229.40 190.76 14.96
13133 28.7160 190.95 191.08 13.67
13134 28.7180 219.90 191.69 14.73
13135 28.7200 235.56 192.62 15.16
13136 28.7220 207.97 193.93 14.15
13137 28.7240 184.73 195.71 13.41
13138 28.7260 196.66 198.08 13.88
13139 28.7280 200.27 201.20 14.08
13140 28.7300 233.41 205.33 15.12
13141 28.7320 219.76 210.81 14.59
13142 28.7340 228.76 217.86 14.92
13143 28.7360 224.81 226.74 14.91
13144 28.7380 225.71 235.84 14.92
13145 28.7400 242.08 241.60 15.36
13146 28.7420 222.06 241.25 14.61
13147 28.7440 238.07 236.49 15.23
13148 28.7460 219.59 231.05 14.65
13149 28.7480 244.05 226.87 15.48
13150 28.7500 231.06 224.13 15.03
13151 28.7520 227.75 222.41 14.82
13152 28.7540 232.75 221.18 15.13
13153 28.7560 236.35 220.05 15.23
13154 28.7580 238.28 218.81 15.29
13155 28.7600 215.52 217.38 14.50
13156 28.7620 225.08 215.84 14.74
13157 28.7640 234.70 214.28 15.12
13158 28.7660 202.56 212.84 14.09
13159 28.7680 209.43 211.63 14.37
13160 28.7700 193.59 210.79 13.71
13161 28.7720 218.71 210.41 14.53
13162 28.7740 248.22 210.57 15.56
13163 28.7760 220.91 211.36 14.72
13164 28.7780 190.67 212.86 13.73
13165 28.7800 231.18 215.09 15.01
13166 28.7820 211.04 217.96 14.32
13167 28.7840 244.75 221.12 15.46
13168 28.7860 241.30 224.14 15.41
13169 28.7880 254.14 227.11 15.82
13170 28.7900 227.72 230.51 14.95
13171 28.7920 232.38 234.77 14.94
13172 28.7940 234.48 240.47 15.11
13173 28.7960 218.28 247.10 14.66
13174 28.7980 270.84 255.30 16.33
13175 28.8000 253.11 265.42 15.69
13176 28.8020 288.98 277.85 16.68
13177 28.8040 286.46 292.76 16.68
13178 28.8060 280.42 310.10 16.58
13179 28.8080 335.68 329.75 18.25
13180 28.8100 354.40 351.25 18.58
13181 28.8120 391.79 373.69 19.46
13182 28.8140 440.11 395.88 20.72
13183 28.8160 437.32 415.36 20.75
13184 28.8180 474.67 429.08 21.61
13185 28.8200 449.37 434.19 21.03
13186 28.8220 440.65 429.29 20.60
13187 28.8240 423.86 415.21 20.25
13188 28.8260 396.88 394.64 19.71
13189 28.8280 361.48 370.80 18.85
13190 28.8300 328.71 346.26 17.86
13191 28.8320 327.21 322.86 17.69
13192 28.8340 299.19 301.45 17.09
13193 28.8360 294.13 282.48 17.02
13194 28.8380 281.45 266.07 16.61
13195 28.8400 243.01 252.10 15.37
13196 28.8420 229.40 240.43 14.83
13197 28.8440 244.56 230.84 15.40
13198 28.8460 259.57 223.03 15.99
13199 28.8480 245.15 216.73 15.58
13200 28.8500 252.15 211.70 15.70
13201 28.8520 238.79 207.71 15.18
13202 28.8540 226.99 204.53 14.84
13203 28.8560 196.39 202.04 13.88
13204 28.8580 220.18 200.13 14.68
13205 28.8600 215.48 198.68 14.54
13206 28.8620 201.47 197.62 13.93
13207 28.8640 216.33 196.90 14.42
13208 28.8660 212.75 196.47 14.49
13209 28.8680 214.66 196.31 14.54
13210 28.8700 211.00 196.38 14.42
13211 28.8720 217.25 196.67 14.47
13212 28.8740 192.77 197.15 13.67
13213 28.8760 201.57 197.81 14.05
13214 28.8780 200.32 198.63 14.06
13215 28.8800 206.02 199.62 14.18
13216 28.8820 212.43 200.75 14.28
13217 28.8840 208.65 202.02 14.22
13218 28.8860 214.90 203.43 14.52
13219 28.8880 230.61 204.97 15.03
13220 28.8900 203.53 206.62 14.11
13221 28.8920 216.24 208.34 14.47
13222 28.8940 228.73 210.06 14.87
13223 28.8960 226.17 211.70 14.88
13224 28.8980 220.79 213.25 14.74
13225 28.9000 220.12 214.87 14.71
13226 28.9020 245.70 216.73 15.36
13227 28.9040 278.29 219.01 16.45
13228 28.9060 241.65 221.87 15.33
13229 28.9080 234.66 225.50 15.20
13230 28.9100 208.45 230.13 14.23
13231 28.9120 248.58 236.07 15.51
13232 28.9140 265.50 243.61 16.07
13233 28.9160 245.82 252.94 15.51
13234 28.9180 284.42 264.15 16.71
13235 28.9200 304.11 277.86 17.23
13236 28.9220 299.76 295.66 16.97
13237 28.9240 302.29 319.90 17.19
13238 28.9260 352.98 353.08 18.57
13239 28.9280 422.91 397.91 20.47
13240 28.9300 539.95 455.85 23.03
13241 28.9320 573.17 523.48 23.50
13242 28.9340 602.65 586.91 24.35
13243 28.9360 604.18 621.86 24.38
13244 28.9380 546.78 615.14 23.25
13245 28.9400 513.09 581.84 22.47
13246 28.9420 541.50 549.01 22.88
13247 28.9440 549.47 534.42 23.21
13248 28.9460 581.21 545.47 23.90
13249 28.9480 618.12 582.75 24.77
13250 28.9500 696.63 636.51 26.16
13251 28.9520 749.85 678.32 27.03
13252 28.9540 654.53 671.28 25.31
13253 28.9560 578.47 612.02 23.92
13254 28.9580 412.26 534.00 20.18
13255 28.9600 383.28 465.82 19.36
13256 28.9620 355.21 416.22 18.49
13257 28.9640 316.83 384.49 17.67
13258 28.9660 364.06 367.72 18.99
13259 28.9680 375.78 364.17 19.28
13260 28.9700 329.47 373.56 17.98
13261 28.9720 381.59 397.26 19.26
13262 28.9740 417.44 437.39 20.16
13263 28.9760 520.54 493.66 22.69
13264 28.9780 561.15 555.89 23.58
13265 28.9800 619.25 595.30 24.58
13266 28.9820 564.45 582.05 23.34
13267 28.9840 484.24 522.53 21.69
13268 28.9860 406.79 449.90 19.97
13269 28.9880 358.82 386.88 18.79
13270 28.9900 303.18 338.75 17.22
13271 28.9920 271.75 303.64 16.17
13272 28.9940 248.82 278.07 15.54
13273 28.9960 241.60 259.26 15.42
13274 28.9980 241.28 245.18 15.41
13275 29.0000 210.03 234.39 14.28
13276 29.0020 242.24 225.97 15.28
13277 29.0040 219.25 219.23 14.52
13278 29.0060 207.37 213.75 14.35
13279 29.0080 218.57 209.22 14.72
13280 29.0100 206.37 205.40 14.18
13281 29.0120 201.72 202.15 13.97
13282 29.0140 224.98 199.36 14.76
13283 29.0160 207.63 196.97 14.27
13284 29.0180 204.07 194.91 14.24
13285 29.0200 211.45 193.15 14.32
13286 29.0220 208.53 191.65 14.13
13287 29.0240 226.22 190.40 14.78
13288 29.0260 215.23 189.38 14.54
13289 29.0280 207.85 188.58 14.30
13290 29.0300 185.85 188.00 13.45
13291 29.0320 207.72 187.65 14.18
13292 29.0340 194.48 187.55 13.74
13293 29.0360 202.83 187.70 14.12
13294 29.0380 185.85 188.13 13.55
13295 29.0400 207.35 188.87 14.19
13296 29.0420 214.26 189.89 14.34
13297 29.0440 201.80 191.07 13.97
13298 29.0460 204.90 192.14 14.18
13299 29.0480 198.52 192.85 13.99
13300 29.0500 223.23 193.27 14.79
13301 29.0520 226.58 193.62 14.79
13302 29.0540 201.52 194.01 14.01
13303 29.0560 203.29 194.43 14.09
13304 29.0580 196.26 194.76 13.94
13305 29.0600 185.92 194.94 13.42
13306 29.0620 199.27 194.97 13.79
13307 29.0640 193.17 194.71 13.65
13308 29.0660 192.72 194.29 13.80
13309 29.0680 199.60 193.77 13.95
13310 29.0700 206.46 193.24 14.11
13311 29.0720 217.58 192.76 14.48
13312 29.0740 198.03 192.38 13.85
13313 29.0760 196.71 192.11 13.87
13314 29.0780 204.47 191.96 14.17
13315 29.0800 222.60 191.91 14.65
13316 29.0820 206.39 191.90 14.08
13317 29.0840 232.38 191.84 15.00
13318 29.0860 200.93 191.67 14.06
13319 29.0880 198.93 191.36 14.02
13320 29.0900 191.12 190.91 13.63
13321 29.0920 202.37 190.39 13.93
13322 29.0940 192.65 190.03 13.70
13323 29.0960 180.87 189.53 13.34
13324 29.0980 210.91 189.12 14.33
13325 29.1000 210.63 188.81 14.31
13326 29.1020 174.68 188.65 12.97
13327 29.1040 217.43 188.63 14.49
13328 29.1060 202.48 188.78 14.09
13329 29.1080 230.53 189.11 15.01
13330 29.1100 185.92 189.66 13.42
13331 29.1120 201.03 190.43 13.84
13332 29.1140 205.25 191.47 14.15
13333 29.1160 178.06 192.82 13.24
13334 29.1180 199.35 194.53 13.96
13335 29.1200 216.47 196.68 14.42
13336 29.1220 190.97 199.38 13.52
13337 29.1240 240.23 202.77 15.18
13338 29.1260 234.58 207.09 15.24
13339 29.1280 240.56 212.58 15.29
13340 29.1300 257.99 219.55 15.81
13341 29.1320 240.26 228.23 15.17
13342 29.1340 243.56 238.69 15.34
13343 29.1360 223.06 251.22 14.84
13344 29.1380 237.43 266.59 15.18
13345 29.1400 311.36 285.71 17.31
13346 29.1420 347.14 309.11 18.24
13347 29.1440 357.11 336.24 18.57
13348 29.1460 376.29 364.88 19.25
13349 29.1480 384.33 390.49 19.45
13350 29.1500 444.05 406.41 20.72
13351 29.1520 451.71 407.37 20.84
13352 29.1540 416.98 393.52 19.98
13353 29.1560 381.30 370.22 19.45
13354 29.1580 293.99 343.90 16.94
13355 29.1600 338.12 318.80 18.03
13356 29.1620 274.94 296.91 16.17
13357 29.1640 278.38 278.59 16.34
13358 29.1660 248.02 263.67 15.67
13359 29.1680 253.52 251.69 15.73
13360 29.1700 237.71 242.08 15.19
13361 29.1720 208.08 234.35 14.16
13362 29.1740 210.15 228.02 14.25
13363 29.1760 186.46 222.67 13.55
13364 29.1780 219.50 218.00 14.64
13365 29.1800 206.42 213.78 14.11
13366 29.1820 202.02 209.88 13.91
13367 29.1840 209.41 206.27 14.21
13368 29.1860 211.69 203.01 14.44
13369 29.1880 224.64 200.18 14.80
13370 29.1900 204.32 197.79 14.00
13371 29.1920 214.19 195.83 14.38
13372 29.1940 207.56 194.26 14.15
13373 29.1960 186.06 193.04 13.56
13374 29.1980 199.01 192.13 13.98
13375 29.2000 180.48 191.50 13.17
13376 29.2020 187.33 191.13 13.43
13377 29.2040 192.18 191.00 13.70
13378 29.2060 187.38 191.08 13.55
13379 29.2080 206.40 191.38 14.15
13380 29.2100 220.83 191.89 14.56
13381 29.2120 213.22 192.61 14.32
13382 29.2140 194.43 193.56 13.79
13383 29.2160 194.57 194.75 13.80
13384 29.2180 206.88 196.22 14.22
13385 29.2200 197.64 198.00 13.77
13386 29.2220 201.27 200.15 13.93
13387 29.2240 219.01 202.71 14.64
13388 29.2260 221.35 205.71 14.80
13389 29.2280 232.96 209.35 15.11
13390 29.2300 215.91 213.66 14.42
13391 29.2320 241.88 218.73 15.40
13392 29.2340 222.44 224.65 14.78
13393 29.2360 228.52 231.51 15.03
13394 29.2380 254.26 239.30 15.77
13395 29.2400 248.55 248.03 15.50
13396 29.2420 250.72 257.55 15.60
13397 29.2440 287.66 267.61 16.75
13398 29.2460 321.34 278.00 17.85
13399 29.2480 293.51 288.56 16.98
13400 29.2500 289.72 299.30 16.73
13401 29.2520 283.40 310.30 16.65
13402 29.2540 289.02 321.65 16.85
13403 29.2560 314.72 333.12 17.71
13404 29.2580 326.57 344.23 17.91
13405 29.2600 374.86 354.12 19.07
13406 29.2620 349.19 361.67 18.43
13407 29.2640 371.19 365.79 19.09
13408 29.2660 370.76 365.64 19.27
13409 29.2680 367.94 361.01 19.11
13410 29.2700 363.76 352.39 18.74
13411 29.2720 337.73 340.72 18.11
13412 29.2740 323.36 327.16 17.85
13413 29.2760 324.29 312.80 17.97
13414 29.2780 274.20 298.43 16.39
13415 29.2800 264.36 284.65 16.00
13416 29.2820 261.89 271.82 15.99
13417 29.2840 231.74 260.14 15.04
13418 29.2860 256.34 249.65 15.97
13419 29.2880 243.53 240.38 15.44
13420 29.2900 241.53 232.30 15.30
13421 29.2920 225.24 225.34 14.74
13422 29.2940 209.04 219.32 14.29
13423 29.2960 223.16 214.54 14.89
13424 29.2980 207.86 210.84 14.25
13425 29.3000 215.54 208.22 14.42
13426 29.3020 200.47 206.58 13.93
13427 29.3040 201.02 205.53 14.03
13428 29.3060 199.46 204.15 14.05
13429 29.3080 196.21 201.66 13.92
13430 29.3100 209.23 197.93 14.25
13431 29.3120 186.88 194.26 13.48
13432 29.3140 176.32 191.10 13.12
13433 29.3160 187.46 188.55 13.62
13434 29.3180 189.31 186.53 13.60
13435 29.3200 181.97 184.92 13.27
13436 29.3220 187.60 183.45 13.49
13437 29.3240 193.69 182.38 13.80
13438 29.3260 177.81 181.49 13.26
13439 29.3280 181.92 180.74 13.37
13440 29.3300 186.40 180.12 13.47
13441 29.3320 182.59 179.59 13.29
13442 29.3340 182.39 179.14 13.41
13443 29.3360 202.91 178.77 14.11
13444 29.3380 171.24 178.47 13.02
13445 29.3400 177.67 178.23 13.05
13446 29.3420 187.96 178.06 13.53
13447 29.3440 196.28 177.95 13.89
13448 29.3460 166.91 177.90 12.84
13449 29.3480 193.20 177.92 13.83
13450 29.3500 200.94 178.02 13.99
13451 29.3520 179.54 178.19 13.21
13452 29.3540 201.46 178.46 14.09
13453 29.3560 202.16 178.82 14.18
13454 29.3580 177.53 179.28 13.20
13455 29.3600 201.08 179.86 14.01
13456 29.3620 185.74 180.55 13.44
13457 29.3640 203.49 181.36 14.17
13458 29.3660 182.21 182.27 13.40
13459 29.3680 176.37 183.29 13.19
13460 29.3700 209.51 184.38 14.25
13461 29.3720 209.52 185.51 14.31
13462 29.3740 205.71 186.64 14.23
13463 29.3760 201.79 187.70 14.11
13464 29.3780 202.85 188.64 14.16
13465 29.3800 215.68 189.42 14.46
13466 29.3820 219.95 190.06 14.62
13467 29.3840 215.08 190.63 14.58
13468 29.3860 227.13 191.24 14.98
13469 29.3880 212.53 192.04 14.49
13470 29.3900 192.23 193.21 13.65
13471 29.3920 211.19 194.92 14.36
13472 29.3940 194.74 197.43 13.88
13473 29.3960 189.73 201.00 13.68
13474 29.3980 200.12 205.95 14.07
13475 29.4000 195.39 212.41 13.78
13476 29.4020 213.36 219.82 14.38
13477 29.4040 203.69 226.12 14.16
13478 29.4060 212.07 228.53 14.48
13479 29.4080 197.12 226.63 13.98
13480 29.4100 204.40 222.93 14.08
13481 29.4120 185.72 219.69 13.49
13482 29.4140 204.94 217.56 14.20
13483 29.4160 193.93 216.17 13.86
13484 29.4180 207.56 214.92 14.33
13485 29.4200 201.38 213.35 13.98
13486 29.4220 215.22 211.41 14.46
13487 29.4240 213.87 209.30 14.55
13488 29.4260 181.40 207.14 13.37
13489 29.4280 224.26 205.14 14.90
13490 29.4300 191.35 203.28 13.69
13491 29.4320 217.46 201.56 14.55
13492 29.4340 191.08 199.96 13.69
13493 29.4360 191.97 198.47 13.80
13494 29.4380 192.83 197.01 13.81
13495 29.4400 186.05 195.55 13.44
13496 29.4420 171.04 194.10 12.87
13497 29.4440 185.89 192.71 13.56
13498 29.4460 197.62 191.37 13.96
13499 29.4480 184.28 190.29 13.51
13500 29.4500 187.34 189.42 13.49
13501 29.4520 182.33 188.78 13.25
13502 29.4540 175.30 188.37 13.14
13503 29.4560 177.77 188.21 13.26
13504 29.4580 190.98 188.28 13.69
13505 29.4600 205.90 188.60 14.16
13506 29.4620 206.62 189.17 14.12
13507 29.4640 205.95 189.99 14.22
13508 29.4660 208.29 191.05 14.31
13509 29.4680 183.70 192.32 13.45
13510 29.4700 186.97 193.71 13.51
13511 29.4720 164.70 195.05 12.56
13512 29.4740 194.11 196.10 13.80
13513 29.4760 191.87 196.66 13.76
13514 29.4780 189.64 196.65 13.70
13515 29.4800 200.95 196.24 13.94
13516 29.4820 178.55 195.69 13.18
13517 29.4840 204.48 195.26 14.17
13518 29.4860 207.14 195.11 14.27
13519 29.4880 184.70 195.36 13.47
13520 29.4900 190.72 196.05 13.65
13521 29.4920 204.06 197.24 14.02
13522 29.4940 174.99 198.95 13.12
13523 29.4960 200.26 201.24 14.07
13524 29.4980 196.70 204.20 13.90
13525 29.5000 183.13 207.93 13.31
13526 29.5020 199.73 212.58 13.88
13527 29.5040 233.09 218.35 15.12
13528 29.5060 193.31 225.47 13.83
13529 29.5080 223.85 234.24 14.92
13530 29.5100 245.19 244.97 15.53
13531 29.5120 263.77 257.97 16.00
13532 29.5140 254.01 273.61 15.75
13533 29.5160 315.90 292.15 17.66
13534 29.5180 278.57 313.70 16.56
13535 29.5200 322.67 337.98 17.68
13536 29.5220 389.87 364.21 19.46
13537 29.5240 452.29 390.37 21.09
13538 29.5260 440.00 413.08 20.81
13539 29.5280 496.30 428.07 22.22
13540 29.5300 438.65 431.48 20.69
13541 29.5320 425.32 422.16 20.27
13542 29.5340 403.85 402.35 19.97
13543 29.5360 347.98 376.38 18.46
13544 29.5380 315.58 348.39 17.67
13545 29.5400 306.75 321.44 17.20
13546 29.5420 304.15 297.05 17.15
13547 29.5440 281.32 275.95 16.55
13548 29.5460 269.78 258.25 16.36
13549 29.5480 254.00 243.70 15.82
13550 29.5500 243.73 231.95 15.38
13551 29.5520 225.73 222.60 14.74
13552 29.5540 223.92 215.18 14.82
13553 29.5560 224.71 209.34 14.87
13554 29.5580 185.17 204.73 13.49
13555 29.5600 218.95 201.05 14.57
13556 29.5620 215.66 198.09 14.41
13557 29.5640 208.92 195.69 14.35
13558 29.5660 193.15 193.70 13.81
13559 29.5680 202.46 192.04 14.17
13560 29.5700 180.80 190.62 13.21
13561 29.5720 187.81 189.40 13.45
13562 29.5740 203.52 188.33 14.09
13563 29.5760 177.20 187.36 13.23
13564 29.5780 187.74 186.49 13.59
13565 29.5800 191.27 185.68 13.63
13566 29.5820 173.27 184.92 12.94
13567 29.5840 174.09 184.41 13.03
13568 29.5860 206.62 183.73 14.31
13569 29.5880 194.47 183.09 13.83
13570 29.5900 173.45 182.48 13.02
13571 29.5920 183.31 181.91 13.28
13572 29.5940 196.49 181.38 13.88
13573 29.5960 208.16 180.89 14.39
13574 29.5980 178.04 180.44 13.25
13575 29.6000 181.09 180.03 13.25
13576 29.6020 162.26 179.67 12.53
13577 29.6040 182.69 179.36 13.35
13578 29.6060 173.29 179.10 13.06
13579 29.6080 192.62 178.88 13.83
13580 29.6100 162.87 178.73 12.59
13581 29.6120 168.27 178.63 12.72
13582 29.6140 185.94 178.60 13.51
13583 29.6160 178.57 178.65 13.29
13584 29.6180 176.02 178.79 13.17
13585 29.6200 210.32 179.05 14.29
13586 29.6220 188.46 179.44 13.48
13587 29.6240 165.42 180.02 12.69
13588 29.6260 161.92 180.85 12.64
13589 29.6280 203.11 182.03 14.12
13590 29.6300 185.10 183.68 13.43
13591 29.6320 201.78 186.05 13.97
13592 29.6340 199.60 188.99 13.95
13593 29.6360 180.49 192.29 13.33
13594 29.6380 172.66 194.98 13.05
13595 29.6400 221.43 196.04 14.64
13596 29.6420 201.38 195.71 13.89
13597 29.6440 201.21 195.39 13.96
13598 29.6460 190.53 196.16 13.74
13599 29.6480 181.59 198.35 13.40
13600 29.6500 192.66 201.35 13.68
13601 29.6520 202.75 203.52 14.04
13602 29.6540 203.67 202.87 14.10
13603 29.6560 216.07 199.34 14.59
13604 29.6580 210.16 194.76 14.43
13605 29.6600 182.07 190.61 13.24
13606 29.6620 195.62 187.37 13.72
13607 29.6640 177.73 184.95 13.14
13608 29.6660 179.90 183.17 13.38
13609 29.6680 177.63 181.87 13.21
13610 29.6700 187.32 180.91 13.50
13611 29.6720 175.87 180.35 13.01
13612 29.6740 196.82 179.85 13.87
13613 29.6760 175.98 179.50 13.18
13614 29.6780 182.65 179.28 13.44
13615 29.6800 215.09 179.16 14.45
13616 29.6820 195.94 179.13 13.79
13617 29.6840 177.07 179.20 13.08
13618 29.6860 179.60 179.34 13.33
13619 29.6880 187.83 179.57 13.65
13620 29.6900 192.57 179.88 13.67
13621 29.6920 189.66 180.34 13.51
13622 29.6940 177.66 180.87 13.12
13623 29.6960 183.84 181.51 13.50
13624 29.6980 201.59 182.30 14.07
13625 29.7000 184.93 183.26 13.43
13626 29.7020 177.13 184.41 13.05
13627 29.7040 190.99 185.78 13.59
13628 29.7060 191.81 187.40 13.78
13629 29.7080 195.69 189.32 13.89
13630 29.7100 200.38 191.55 13.91
13631 29.7120 197.80 194.14 13.80
13632 29.7140 215.33 197.09 14.48
13633 29.7160 211.89 200.38 14.51
13634 29.7180 195.87 203.95 13.87
13635 29.7200 212.92 207.63 14.37
13636 29.7220 212.99 211.16 14.29
13637 29.7240 224.76 214.27 14.73
13638 29.7260 249.27 216.75 15.76
13639 29.7280 237.76 218.58 15.33
13640 29.7300 235.02 219.85 15.06
13641 29.7320 241.30 220.59 15.27
13642 29.7340 229.23 220.86 14.92
13643 29.7360 206.02 220.73 14.24
13644 29.7380 219.37 220.34 14.71
13645 29.7400 234.26 219.83 15.06
13646 29.7420 224.81 219.37 14.72
13647 29.7440 220.88 219.08 14.60
13648 29.7460 214.23 219.06 14.54
13649 29.7480 204.92 219.40 14.22
13650 29.7500 218.24 220.15 14.53
13651 29.7520 223.47 221.37 14.65
13652 29.7540 230.27 223.11 14.95
13653 29.7560 221.69 225.32 14.82
13654 29.7580 218.37 227.86 14.64
13655 29.7600 242.35 230.39 15.31
13656 29.7620 228.47 232.27 14.81
13657 29.7640 276.58 232.79 16.41
13658 29.7660 260.31 231.52 15.96
13659 29.7680 242.74 228.74 15.51
13660 29.7700 200.82 224.83 13.93
13661 29.7720 192.26 220.55 13.63
13662 29.7740 226.19 216.35 14.80
13663 29.7760 215.06 212.49 14.57
13664 29.7780 213.25 209.02 14.48
13665 29.7800 209.08 205.98 14.17
13666 29.7820 210.54 203.34 14.24
13667 29.7840 219.66 201.05 14.65
13668 29.7860 191.85 199.09 13.77
13669 29.7880 211.09 197.40 14.43
13670 29.7900 181.46 195.94 13.28
13671 29.7920 203.29 194.70 13.97
13672 29.7940 193.42 193.66 13.74
13673 29.7960 196.02 192.81 13.96
13674 29.7980 191.76 192.15 13.78
13675 29.8000 182.72 191.69 13.31
13676 29.8020 182.83 191.43 13.29
13677 29.8040 192.19 191.38 13.71
13678 29.8060 173.46 191.55 13.11
13679 29.8080 204.08 191.90 14.19
13680 29.8100 202.46 192.43 14.02
13681 29.8120 180.95 193.06 13.23
13682 29.8140 201.08 193.68 13.98
13683 29.8160 195.41 194.15 13.89
13684 29.8180 212.16 194.31 14.49
13685 29.8200 205.67 194.03 14.11
13686 29.8220 207.40 193.32 14.14
13687 29.8240 209.89 192.26 14.32
13688 29.8260 187.48 191.03 13.57
13689 29.8280 214.70 189.79 14.57
13690 29.8300 190.73 188.67 13.63
13691 29.8320 195.96 187.74 13.74
13692 29.8340 206.42 187.04 14.20
13693 29.8360 174.65 186.49 13.13
13694 29.8380 194.32 185.96 13.84
13695 29.8400 211.98 185.34 14.38
13696 29.8420 179.45 184.72 13.12
13697 29.8440 214.49 184.16 14.47
13698 29.8460 201.93 183.75 14.11
13699 29.8480 186.10 183.49 13.60
13700 29.8500 185.57 183.37 13.41
13701 29.8520 177.72 183.38 13.05
13702 29.8540 197.79 183.48 13.90
13703 29.8560 193.71 183.68 13.84
13704 29.8580 200.09 183.93 14.10
13705 29.8600 192.98 184.23 13.68
13706 29.8620 175.46 184.53 12.99
13707 29.8640 191.92 184.79 13.65
13708 29.8660 179.17 184.97 13.33
13709 29.8680 198.25 185.05 13.98
13710 29.8700 185.58 185.06 13.44
13711 29.8720 175.53 185.01 12.99
13712 29.8740 203.18 184.95 14.11
13713 29.8760 195.62 184.91 13.88
13714 29.8780 212.53 184.91 14.55
13715 29.8800 196.49 184.97 13.83
13716 29.8820 194.11 185.08 13.67
13717 29.8840 219.51 185.25 14.60
13718 29.8860 200.80 185.68 14.07
13719 29.8880 176.23 185.97 13.27
13720 29.8900 193.74 186.32 13.71
13721 29.8920 180.81 186.72 13.20
13722 29.8940 194.09 187.17 13.69
13723 29.8960 197.18 187.68 13.96
13724 29.8980 231.24 188.25 15.11
13725 29.9000 197.83 188.87 13.84
13726 29.9020 229.47 189.57 14.84
13727 29.9040 176.71 190.34 13.08
13728 29.9060 178.04 191.21 13.21
13729 29.9080 209.53 192.18 14.39
13730 29.9100 210.55 193.27 14.30
13731 29.9120 218.24 194.51 14.52
13732 29.9140 217.05 195.92 14.47
13733 29.9160 213.68 197.55 14.54
13734 29.9180 192.23 199.42 13.79
13735 29.9200 202.09 201.60 13.95
13736 29.9220 215.72 204.14 14.44
13737 29.9240 205.05 207.12 14.03
13738 29.9260 224.20 210.61 14.89
13739 29.9280 232.27 214.84 15.16
13740 29.9300 216.02 219.62 14.51
13741 29.9320 246.32 225.10 15.42
13742 29.9340 268.07 231.35 16.07
13743 29.9360 230.93 238.45 15.11
13744 29.9380 267.56 246.55 16.31
13745 29.9400 295.36 255.70 16.84
13746 29.9420 274.45 265.95 16.24
13747 29.9440 314.56 277.26 17.51
13748 29.9460 285.94 289.60 16.79
13749 29.9480 279.95 302.92 16.63
13750 29.9500 307.53 317.00 17.28
13751 29.9520 358.61 331.46 18.63
13752 29.9540 358.28 345.70 18.60
13753 29.9560 339.59 358.80 18.34
13754 29.9580 392.99 369.74 19.73
13755 29.9600 393.04 377.78 19.58
13756 29.9620 380.25 382.73 19.12
13757 29.9640 372.19 385.32 19.04
13758 29.9660 387.20 387.15 19.55
13759 29.9680 355.52 390.51 18.77
13760 29.9700 401.85 398.21 19.78
13761 29.9720 395.13 413.44 19.55
13762 29.9740 431.79 439.29 20.45
13763 29.9760 453.15 477.13 21.10
13764 29.9780 536.35 521.11 23.18
13765 29.9800 563.33 552.36 23.47
13766 29.9820 544.43 547.00 23.01
13767 29.9840 475.63 503.43 21.49
13768 29.9860 385.29 444.80 19.58
13769 29.9880 359.21 391.25 18.87
13770 29.9900 293.46 349.48 16.92
13771 29.9920 297.66 318.86 16.89
13772 29.9940 272.00 296.70 16.30
13773 29.9960 234.29 280.69 15.19
13774 29.9980 249.08 269.09 15.63
13775 30.0000 255.47 260.64 15.78
13776 30.0020 256.32 254.63 15.71
13777 30.0040 259.07 250.53 15.96
13778 30.0060 242.43 248.06 15.45
13779 30.0080 224.61 247.04 14.92
13780 30.0100 258.92 247.42 15.88
13781 30.0120 243.63 249.22 15.34
13782 30.0140 242.84 252.57 15.39
13783 30.0160 276.75 257.66 16.60
13784 30.0180 254.86 264.83 15.85
13785 30.0200 255.30 274.69 15.79
13786 30.0220 277.17 287.95 16.36
13787 30.0240 272.73 305.65 16.30
13788 30.0260 339.61 329.37 18.36
13789 30.0280 346.19 360.74 18.50
13790 30.0300 410.25 401.31 20.02
13791 30.0320 447.90 450.67 20.82
13792 30.0340 553.75 501.58 23.36
13793 30.0360 570.82 535.94 23.77
13794 30.0380 545.08 534.08 23.29
13795 30.0400 495.94 496.58 22.00
13796 30.0420 440.11 443.75 20.62
13797 30.0440 355.86 393.69 18.67
13798 30.0460 320.32 352.99 17.82
13799 30.0480 273.79 321.81 16.50
13800 30.0500 292.17 298.25 16.87
13801 30.0520 275.73 280.24 16.36
13802 30.0540 225.56 266.28 14.81
13803 30.0560 240.02 255.30 15.45
13804 30.0580 248.21 246.50 15.61
13805 30.0600 226.69 239.38 14.86
13806 30.0620 240.20 233.56 15.22
13807 30.0640 222.56 228.80 14.72
13808 30.0660 218.59 224.87 14.63
13809 30.0680 219.84 221.65 14.77
13810 30.0700 221.22 218.98 14.67
13811 30.0720 222.31 216.79 14.63
13812 30.0740 229.29 214.97 14.93
13813 30.0760 231.24 213.42 15.09
13814 30.0780 204.66 212.06 14.23
13815 30.0800 231.40 210.80 14.98
13816 30.0820 215.87 209.58 14.45
13817 30.0840 218.66 208.35 14.60
13818 30.0860 206.41 207.10 14.28
13819 30.0880 214.88 205.85 14.60
13820 30.0900 261.25 204.64 15.97
13821 30.0920 183.28 203.49 13.32
13822 30.0940 197.67 202.44 13.85
13823 30.0960 214.84 201.52 14.55
13824 30.0980 186.41 200.74 13.59
13825 30.1000 196.11 200.09 13.78
13826 30.1020 212.34 199.48 14.30
13827 30.1040 239.54 199.08 15.25
13828 30.1060 225.21 198.78 14.86
13829 30.1080 222.99 198.58 14.83
13830 30.1100 193.72 198.54 13.69
13831 30.1120 210.08 198.59 14.24
13832 30.1140 208.28 198.80 14.17
13833 30.1160 211.78 199.21 14.39
13834 30.1180 201.93 199.84 14.12
13835 30.1200 207.11 200.72 14.14
13836 30.1220 199.26 201.90 13.84
13837 30.1240 210.87 203.42 14.24
13838 30.1260 206.22 205.35 14.20
13839 30.1280 208.85 207.79 14.29
13840 30.1300 231.28 210.86 14.98
13841 30.1320 210.18 214.75 14.27
13842 30.1340 240.27 219.70 15.20
13843 30.1360 226.19 226.10 14.90
13844 30.1380 218.01 234.45 14.66
13845 30.1400 240.37 245.52 15.22
13846 30.1420 251.67 260.32 15.54
13847 30.1440 288.80 280.12 16.67
13848 30.1460 312.93 306.42 17.55
13849 30.1480 342.14 340.02 18.36
13850 30.1500 390.64 379.38 19.46
13851 30.1520 394.46 416.82 19.59
13852 30.1540 430.83 437.92 20.43
13853 30.1560 454.63 431.29 21.14
13854 30.1580 373.25 401.07 19.23
13855 30.1600 347.91 362.11 18.34
13856 30.1620 340.37 326.01 18.05
13857 30.1640 287.76 296.89 16.69
13858 30.1660 257.95 274.92 15.90
13859 30.1680 238.08 258.80 15.27
13860 30.1700 234.66 247.11 15.05
13861 30.1720 234.37 238.72 15.04
13862 30.1740 237.13 232.71 15.18
13863 30.1760 221.32 228.47 14.74
13864 30.1780 240.45 225.47 15.38
13865 30.1800 224.02 223.33 14.77
13866 30.1820 223.39 221.76 14.68
13867 30.1840 226.07 220.58 14.82
13868 30.1860 239.93 219.73 15.42
13869 30.1880 233.22 219.26 15.11
13870 30.1900 212.50 219.26 14.38
13871 30.1920 212.36 219.76 14.36
13872 30.1940 238.49 220.79 15.26
13873 30.1960 198.99 222.43 13.96
13874 30.1980 186.56 224.87 13.55
13875 30.2000 241.51 228.29 15.32
13876 30.2020 237.45 232.67 15.09
13877 30.2040 260.64 237.67 15.95
13878 30.2060 224.35 242.63 14.87
13879 30.2080 244.00 247.09 15.47
13880 30.2100 277.53 251.41 16.40
13881 30.2120 285.18 256.31 16.61
13882 30.2140 254.47 262.18 15.72
13883 30.2160 266.27 269.11 16.21
13884 30.2180 261.74 276.93 16.00
13885 30.2200 274.62 285.51 16.34
13886 30.2220 304.94 295.33 17.15
13887 30.2240 293.52 307.76 16.93
13888 30.2260 289.59 325.01 16.93
13889 30.2280 339.44 349.89 18.31
13890 30.2300 360.50 385.32 18.78
13891 30.2320 391.38 433.24 19.40
13892 30.2340 513.43 490.69 22.57
13893 30.2360 565.33 542.94 23.68
13894 30.2380 576.19 563.08 23.91
13895 30.2400 552.61 536.93 23.20
13896 30.2420 432.09 481.62 20.53
13897 30.2440 376.22 423.02 19.23
13898 30.2460 351.35 374.39 18.64
13899 30.2480 291.37 337.79 16.99
13900 30.2500 315.31 311.08 17.55
13901 30.2520 282.68 291.89 16.50
13902 30.2540 272.54 278.05 16.31
13903 30.2560 261.45 268.22 16.12
13904 30.2580 244.92 261.41 15.52
13905 30.2600 256.56 257.01 15.83
13906 30.2620 277.44 254.60 16.38
13907 30.2640 245.77 253.98 15.57
13908 30.2660 251.47 255.07 15.75
13909 30.2680 262.12 258.02 16.15
13910 30.2700 257.59 263.14 15.86
13911 30.2720 257.97 271.06 15.91
13912 30.2740 293.63 282.76 16.92
13913 30.2760 284.68 299.63 16.80
13914 30.2780 359.34 323.64 18.78
13915 30.2800 357.16 356.74 18.73
13916 30.2820 397.02 399.55 19.61
13917 30.2840 465.06 446.64 21.32
13918 30.2860 479.65 481.58 21.74
13919 30.2880 489.64 483.95 22.00
13920 30.2900 418.07 451.43 20.19
13921 30.2920 379.54 403.22 19.18
13922 30.2940 310.98 357.22 17.45
13923 30.2960 271.13 320.45 16.31
13924 30.2980 268.08 292.98 16.27
13925 30.3000 206.91 272.84 14.17
13926 30.3020 260.36 258.01 15.90
13927 30.3040 250.59 247.02 15.62
13928 30.3060 258.09 238.74 15.93
13929 30.3080 220.60 232.47 14.76
13930 30.3100 238.39 227.70 15.20
13931 30.3120 222.25 224.10 14.68
13932 30.3140 241.52 221.38 15.32
13933 30.3160 219.91 219.38 14.76
13934 30.3180 198.81 217.95 13.94
13935 30.3200 208.14 216.98 14.26
13936 30.3220 200.57 216.44 13.88
13937 30.3240 193.43 216.27 13.73
13938 30.3260 221.81 216.48 14.75
13939 30.3280 229.42 217.08 15.03
13940 30.3300 211.32 218.09 14.32
13941 30.3320 229.63 219.43 14.95
13942 30.3340 213.28 221.42 14.43
13943 30.3360 219.02 223.98 14.68
13944 30.3380 244.00 227.11 15.51
13945 30.3400 226.31 230.68 14.78
13946 30.3420 228.80 234.41 14.93
13947 30.3440 217.21 238.25 14.55
13948 30.3460 253.36 242.36 15.74
13949 30.3480 246.81 247.09 15.59
13950 30.3500 242.74 252.87 15.32
13951 30.3520 273.23 260.20 16.21
13952 30.3540 288.75 269.52 16.71
13953 30.3560 267.11 281.11 16.23
13954 30.3580 258.62 295.10 15.92
13955 30.3600 326.24 311.48 17.84
13956 30.3620 317.09 329.79 17.50
13957 30.3640 339.12 348.86 18.13
13958 30.3660 381.63 366.62 19.34
13959 30.3680 388.77 380.08 19.53
13960 30.3700 420.40 386.15 20.14
13961 30.3720 399.93 383.59 19.67
13962 30.3740 394.85 373.58 19.54
13963 30.3760 345.46 358.69 18.41
13964 30.3780 317.51 341.08 17.61
13965 30.3800 287.07 321.67 16.66
13966 30.3820 262.41 301.77 15.89
13967 30.3840 227.55 283.43 14.81
13968 30.3860 227.21 267.89 14.94
13969 30.3880 236.06 255.48 15.20
13970 30.3900 231.65 245.92 15.02
13971 30.3920 210.08 238.77 14.25
13972 30.3940 230.02 233.59 14.92
13973 30.3960 227.57 230.01 14.96
13974 30.3980 219.52 227.71 14.69
13975 30.4000 206.98 226.39 14.12
13976 30.4020 218.90 225.81 14.57
13977 30.4040 218.44 225.58 14.46
13978 30.4060 228.71 225.72 14.97
13979 30.4080 220.24 225.85 14.70
13980 30.4100 207.76 225.76 14.14
13981 30.4120 206.46 225.33 14.12
13982 30.4140 183.29 224.54 13.23
13983 30.4160 200.59 223.42 14.06
13984 30.4180 205.12 222.05 14.15
13985 30.4200 204.29 220.45 14.05
13986 30.4220 195.05 218.64 13.68
13987 30.4240 199.94 216.66 13.78
13988 30.4260 186.31 214.61 13.50
13989 30.4280 183.76 212.58 13.37
13990 30.4300 206.29 210.69 14.06
13991 30.4320 206.65 209.00 14.05
13992 30.4340 209.11 207.55 14.18
13993 30.4360 189.87 206.35 13.60
13994 30.4380 194.23 205.38 13.78
13995 30.4400 204.33 204.64 14.06
13996 30.4420 196.99 204.10 13.75
13997 30.4440 196.81 203.76 13.72
13998 30.4460 184.00 203.62 13.42
13999 30.4480 198.23 203.70 13.89
14000 30.4500 198.47 204.07 13.86
14001 30.4520 202.42 204.77 13.94
14002 30.4540 198.90 205.83 13.84
14003 30.4560 199.64 207.08 13.99
14004 30.4580 197.83 208.00 13.90
14005 30.4600 170.67 207.91 12.79
14006 30.4620 185.96 206.70 13.36
14007 30.4640 198.73 204.82 13.83
14008 30.4660 218.14 202.82 14.66
14009 30.4680 212.52 201.06 14.43
14010 30.4700 205.21 199.69 14.12
14011 30.4720 195.12 198.69 13.71
14012 30.4740 213.93 198.01 14.38
14013 30.4760 189.32 197.61 13.64
14014 30.4780 196.92 197.45 13.81
14015 30.4800 215.24 197.51 14.40
14016 30.4820 210.28 197.78 14.24
14017 30.4840 203.57 198.24 14.02
14018 30.4860 183.31 198.91 13.46
14019 30.4880 194.00 199.76 13.77
14020 30.4900 203.97 200.80 14.06
14021 30.4920 185.97 201.98 13.46
14022 30.4940 170.32 203.29 12.86
14023 30.4960 209.65 204.66 14.38
14024 30.4980 191.70 206.02 13.74
14025 30.5000 199.73 207.33 13.86
14026 30.5020 177.54 208.53 13.10
14027 30.5040 190.81 209.61 13.60
14028 30.5060 187.40 210.58 13.60
14029 30.5080 201.89 211.44 14.09
14030 30.5100 190.86 212.19 13.63
14031 30.5120 202.89 212.81 14.01
14032 30.5140 205.38 213.30 14.15
14033 30.5160 214.50 213.67 14.50
14034 30.5180 214.34 213.95 14.54
14035 30.5200 201.52 214.20 14.00
14036 30.5220 182.66 214.52 13.30
14037 30.5240 183.61 215.01 13.47
14038 30.5260 201.63 215.80 14.14
14039 30.5280 213.23 216.96 14.52
14040 30.5300 190.79 218.46 13.62
14041 30.5320 154.10 220.01 12.22
14042 30.5340 190.98 220.95 13.76
14043 30.5360 191.59 220.66 13.78
14044 30.5380 212.91 219.20 14.44
14045 30.5400 190.50 217.38 13.64
14046 30.5420 199.03 216.05 13.89
14047 30.5440 196.38 215.48 13.85
14048 30.5460 206.90 215.60 14.35
14049 30.5480 192.90 215.34 13.79
14050 30.5500 210.36 213.52 14.37
14051 30.5520 190.54 210.08 13.62
14052 30.5540 205.79 206.02 14.35
14053 30.5560 180.46 202.30 13.39
14054 30.5580 182.22 199.24 13.48
14055 30.5600 198.31 196.85 13.93
14056 30.5620 214.50 195.01 14.47
14057 30.5640 172.32 193.60 13.03
14058 30.5660 164.38 192.53 12.80
14059 30.5680 192.69 191.72 13.81
14060 30.5700 188.72 191.13 13.57
14061 30.5720 176.12 190.70 13.12
14062 30.5740 173.75 190.39 13.10
14063 30.5760 180.75 190.18 13.41
14064 30.5780 210.69 190.03 14.47
14065 30.5800 170.85 189.94 12.93
14066 30.5820 183.43 189.90 13.36
14067 30.5840 199.12 189.92 14.05
14068 30.5860 177.37 190.02 13.25
14069 30.5880 186.97 190.22 13.66
14070 30.5900 172.75 190.48 12.99
14071 30.5920 174.88 190.61 13.07
14072 30.5940 172.75 190.85 13.02
14073 30.5960 202.33 191.10 14.25
14074 30.5980 176.72 191.44 13.20
14075 30.6000 188.07 191.92 13.55
14076 30.6020 194.82 192.55 13.79
14077 30.6040 205.74 193.34 14.21
14078 30.6060 185.50 194.28 13.59
14079 30.6080 188.34 195.39 13.64
14080 30.6100 193.31 196.64 13.78
14081 30.6120 201.65 197.95 14.01
14082 30.6140 203.44 199.24 14.11
14083 30.6160 195.25 200.47 13.89
14084 30.6180 196.23 201.70 13.90
14085 30.6200 173.09 202.92 13.02
14086 30.6220 185.71 204.07 13.42
14087 30.6240 193.25 205.05 13.69
14088 30.6260 205.68 205.83 14.31
14089 30.6280 219.32 206.41 14.73
14090 30.6300 210.94 206.89 14.35
14091 30.6320 209.94 207.33 14.35
14092 30.6340 191.41 207.80 13.68
14093 30.6360 182.75 208.36 13.42
14094 30.6380 197.43 209.12 13.95
14095 30.6400 203.42 209.95 14.11
14096 30.6420 215.51 210.98 14.41
14097 30.6440 185.01 212.30 13.41
14098 30.6460 208.63 214.06 14.35
14099 30.6480 209.97 216.34 14.40
14100 30.6500 224.07 219.67 14.80
14101 30.6520 211.79 224.30 14.35
14102 30.6540 220.61 230.59 14.62
14103 30.6560 224.91 238.54 14.91
14104 30.6580 246.30 246.93 15.62
14105 30.6600 279.69 253.16 16.41
14106 30.6620 253.01 255.19 15.66
14107 30.6640 242.86 254.22 15.39
14108 30.6660 262.42 252.12 16.06
14109 30.6680 232.82 248.52 15.15
14110 30.6700 225.39 241.90 14.79
14111 30.6720 235.43 232.99 15.13
14112 30.6740 200.91 224.03 13.95
14113 30.6760 218.37 216.47 14.64
14114 30.6780 198.47 210.57 14.01
14115 30.6800 213.37 206.08 14.41
14116 30.6820 212.68 202.66 14.35
14117 30.6840 187.12 200.04 13.43
14118 30.6860 186.37 197.96 13.57
14119 30.6880 204.46 196.36 14.19
14120 30.6900 198.76 195.08 13.84
14121 30.6920 176.69 194.07 13.13
14122 30.6940 200.07 193.25 13.86
14123 30.6960 175.83 192.60 13.15
14124 30.6980 170.27 192.10 12.93
14125 30.7000 178.89 191.72 13.18
14126 30.7020 172.08 191.46 12.92
14127 30.7040 198.91 191.32 13.86
14128 30.7060 190.74 191.31 13.72
14129 30.7080 191.90 191.44 13.68
14130 30.7100 160.28 191.71 12.50
14131 30.7120 178.53 192.15 13.15
14132 30.7140 179.49 192.79 13.18
14133 30.7160 177.51 193.64 13.25
14134 30.7180 169.30 194.69 12.92
14135 30.7200 194.68 195.88 13.73
14136 30.7220 203.10 197.05 14.06
14137 30.7240 185.55 197.88 13.37
14138 30.7260 167.56 198.05 12.87
14139 30.7280 185.94 197.50 13.46
14140 30.7300 185.15 196.58 13.43
14141 30.7320 181.05 195.65 13.25
14142 30.7340 174.13 194.84 12.96
14143 30.7360 151.09 194.49 12.21
14144 30.7380 177.78 193.96 13.22
14145 30.7400 175.72 193.54 13.04
14146 30.7420 188.73 193.22 13.53
14147 30.7440 203.71 192.99 14.06
14148 30.7460 172.57 192.88 13.04
14149 30.7480 165.62 192.88 12.76
14150 30.7500 207.58 193.01 14.15
14151 30.7520 170.71 193.28 12.83
14152 30.7540 191.49 193.68 13.66
14153 30.7560 198.55 194.20 13.99
14154 30.7580 189.54 194.81 13.69
14155 30.7600 185.28 195.46 13.39
14156 30.7620 186.98 196.09 13.49
14157 30.7640 204.58 196.65 14.06
14158 30.7660 194.15 197.11 13.85
14159 30.7680 164.80 197.52 12.70
14160 30.7700 189.39 197.97 13.61
14161 30.7720 173.88 198.54 12.95
14162 30.7740 170.88 199.28 12.91
14163 30.7760 166.00 200.21 12.83
14164 30.7780 203.14 201.34 14.13
14165 30.7800 178.24 202.57 13.11
14166 30.7820 200.54 203.81 13.97
14167 30.7840 193.14 204.90 13.71
14168 30.7860 195.00 205.77 13.88
14169 30.7880 191.55 206.43 13.76
14170 30.7900 175.04 206.96 13.05
14171 30.7920 193.64 207.51 13.72
14172 30.7940 205.15 208.16 14.09
14173 30.7960 205.30 208.99 14.30
14174 30.7980 177.68 210.03 13.19
14175 30.8000 185.94 211.30 13.47
14176 30.8020 195.50 212.82 13.71
14177 30.8040 183.68 214.63 13.33
14178 30.8060 206.89 216.77 14.34
14179 30.8080 192.75 219.26 13.78
14180 30.8100 192.63 222.12 13.67
14181 30.8120 183.01 225.21 13.35
14182 30.8140 201.07 228.16 13.96
14183 30.8160 193.05 230.34 13.82
14184 30.8180 196.18 231.18 13.87
14185 30.8200 194.76 230.68 13.73
14186 30.8220 180.42 229.41 13.21
14187 30.8240 218.54 228.03 14.54
14188 30.8260 194.60 226.92 13.83
14189 30.8280 193.92 226.31 13.79
14190 30.8300 198.34 225.87 13.89
14191 30.8320 186.42 225.61 13.47
14192 30.8340 212.78 225.37 14.34
14193 30.8360 216.44 225.05 14.63
14194 30.8380 219.35 224.63 14.66
14195 30.8400 192.91 224.15 13.69
14196 30.8420 195.77 223.65 13.74
14197 30.8440 184.25 223.08 13.38
14198 30.8460 201.47 222.32 14.05
14199 30.8480 216.68 221.15 14.64
14200 30.8500 204.75 219.43 14.12
14201 30.8520 207.02 217.23 14.17
14202 30.8540 207.94 214.75 14.18
14203 30.8560 177.14 212.24 13.26
14204 30.8580 185.02 209.80 13.45
14205 30.8600 210.48 207.52 14.32
14206 30.8620 199.83 205.40 13.93
14207 30.8640 188.08 203.46 13.48
14208 30.8660 190.93 201.71 13.70
14209 30.8680 172.70 200.28 13.02
14210 30.8700 213.21 198.91 14.37
14211 30.8720 189.80 197.74 13.54
14212 30.8740 175.51 196.74 13.03
14213 30.8760 193.41 195.92 13.76
14214 30.8780 181.56 195.27 13.39
14215 30.8800 184.48 194.82 13.37
14216 30.8820 172.31 194.57 12.94
14217 30.8840 183.44 194.54 13.28
14218 30.8860 180.53 194.75 13.35
14219 30.8880 198.56 195.24 13.93
14220 30.8900 208.87 196.04 14.22
14221 30.8920 213.31 197.17 14.36
14222 30.8940 199.67 198.66 13.85
14223 30.8960 178.11 200.51 13.24
14224 30.8980 207.06 202.76 14.21
14225 30.9000 198.07 205.39 13.87
14226 30.9020 197.45 208.26 13.85
14227 30.9040 207.44 211.08 14.19
14228 30.9060 193.28 213.59 13.75
14229 30.9080 249.51 215.62 15.63
14230 30.9100 221.38 216.56 14.70
14231 30.9120 214.90 215.51 14.41
14232 30.9140 210.98 212.53 14.30
14233 30.9160 199.55 208.89 14.03
14234 30.9180 208.34 205.72 14.28
14235 30.9200 202.72 203.42 14.00
14236 30.9220 225.27 201.93 14.74
14237 30.9240 199.67 201.07 13.92
14238 30.9260 177.27 200.67 13.20
14239 30.9280 193.24 200.59 13.75
14240 30.9300 184.25 200.71 13.44
14241 30.9320 167.87 200.90 12.75
14242 30.9340 207.54 201.19 14.30
14243 30.9360 194.60 201.46 13.91
14244 30.9380 177.88 201.67 13.22
14245 30.9400 188.24 201.81 13.54
14246 30.9420 193.43 201.89 13.65
14247 30.9440 216.08 201.95 14.53
14248 30.9460 207.95 202.03 14.33
14249 30.9480 212.47 202.21 14.47
14250 30.9500 196.69 202.50 13.83
14251 30.9520 211.41 202.85 14.32
14252 30.9540 191.84 203.05 13.66
14253 30.9560 202.46 202.97 14.22
14254 30.9580 237.44 202.75 15.22
14255 30.9600 197.60 202.64 13.83
14256 30.9620 192.44 202.92 13.62
14257 30.9640 202.76 203.39 14.06
14258 30.9660 185.74 204.16 13.53
14259 30.9680 214.05 205.21 14.54
14260 30.9700 191.38 206.56 13.68
14261 30.9720 193.67 208.29 13.75
14262 30.9740 195.01 210.51 13.77
14263 30.9760 220.67 213.44 14.75
14264 30.9780 196.91 217.55 13.93
14265 30.9800 213.09 222.71 14.38
14266 30.9820 227.22 229.62 14.82
14267 30.9840 226.52 238.94 14.80
14268 30.9860 250.93 251.69 15.81
14269 30.9880 260.66 269.16 16.02
14270 30.9900 306.68 293.09 17.32
14271 30.9920 316.92 324.72 17.51
14272 30.9940 370.87 362.90 19.07
14273 30.9960 421.91 399.36 20.44
14274 30.9980 462.57 417.70 21.37
14275 31.0000 391.39 406.54 19.56
14276 31.0020 354.64 373.90 18.52
14277 31.0040 314.07 336.89 17.43
14278 31.0060 278.00 305.85 16.54
14279 31.0080 287.48 283.10 16.81
14280 31.0100 251.54 267.70 15.58
14281 31.0120 252.17 257.62 15.67
14282 31.0140 261.36 250.44 15.88
14283 31.0160 247.79 243.92 15.59
14284 31.0180 231.66 237.23 15.11
14285 31.0200 218.86 231.11 14.57
14286 31.0220 246.02 226.23 15.37
14287 31.0240 231.33 222.77 15.03
14288 31.0260 224.91 220.50 14.86
14289 31.0280 197.71 219.15 14.01
14290 31.0300 261.10 218.39 15.95
14291 31.0320 227.64 217.99 14.87
14292 31.0340 215.98 217.65 14.48
14293 31.0360 217.16 217.19 14.63
14294 31.0380 242.64 216.43 15.45
14295 31.0400 218.45 215.34 14.52
14296 31.0420 217.83 214.02 14.50
14297 31.0440 212.84 212.65 14.31
14298 31.0460 216.93 211.42 14.58
14299 31.0480 207.25 210.43 14.27
14300 31.0500 204.19 209.72 14.10
14301 31.0520 218.79 209.32 14.53
14302 31.0540 229.93 209.22 14.95
14303 31.0560 218.21 209.42 14.65
14304 31.0580 210.95 209.89 14.33
14305 31.0600 231.48 210.60 14.98
14306 31.0620 189.27 211.51 13.49
14307 31.0640 221.53 212.54 14.61
14308 31.0660 213.34 213.60 14.45
14309 31.0680 204.63 214.57 14.12
14310 31.0700 217.49 215.30 14.52
14311 31.0720 219.70 215.71 14.56
14312 31.0740 234.91 215.80 15.04
14313 31.0760 219.92 215.64 14.72
14314 31.0780 229.83 215.36 15.00
14315 31.0800 214.45 215.09 14.45
14316 31.0820 228.79 214.96 14.85
14317 31.0840 219.85 215.08 14.62
14318 31.0860 221.13 215.55 14.74
14319 31.0880 257.75 216.43 15.91
14320 31.0900 250.82 217.78 15.58
14321 31.0920 219.44 219.67 14.54
14322 31.0940 234.29 222.15 15.03
14323 31.0960 236.37 225.26 15.30
14324 31.0980 237.46 229.09 15.23
14325 31.1000 248.46 234.04 15.50
14326 31.1020 248.52 240.59 15.43
14327 31.1040 240.69 249.23 15.24
14328 31.1060 253.85 260.51 15.76
14329 31.1080 273.02 274.66 16.39
14330 31.1100 286.79 291.99 16.68
14331 31.1120 345.76 312.45 18.28
14332 31.1140 353.37 335.01 18.47
14333 31.1160 426.39 357.13 20.50
14334 31.1180 395.10 374.59 19.74
14335 31.1200 449.15 382.49 20.79
14336 31.1220 382.58 378.44 19.21
14337 31.1240 329.66 364.39 17.79
14338 31.1260 312.66 344.99 17.58
14339 31.1280 283.41 324.72 16.68
14340 31.1300 296.71 306.25 16.96
14341 31.1320 271.45 290.48 16.17
14342 31.1340 262.69 277.46 15.94
14343 31.1360 249.22 266.84 15.68
14344 31.1380 271.40 258.31 16.32
14345 31.1400 247.76 251.59 15.48
14346 31.1420 230.54 246.54 14.89
14347 31.1440 233.52 242.99 14.94
14348 31.1460 225.79 240.77 14.94
14349 31.1480 232.89 239.74 15.08
14350 31.1500 251.99 239.81 15.63
14351 31.1520 264.77 240.92 16.00
14352 31.1540 254.23 243.26 15.60
14353 31.1560 229.37 246.49 15.02
14354 31.1580 253.85 250.87 15.67
14355 31.1600 213.60 256.50 14.34
14356 31.1620 250.57 263.51 15.48
14357 31.1640 249.07 272.08 15.48
14358 31.1660 271.52 282.39 16.31
14359 31.1680 289.42 294.71 16.80
14360 31.1700 317.01 309.28 17.48
14361 31.1720 334.79 326.56 17.91
14362 31.1740 337.82 347.02 18.06
14363 31.1760 344.38 371.32 18.48
14364 31.1780 404.53 400.57 19.76
14365 31.1800 458.75 436.00 21.07
14366 31.1820 491.53 478.83 21.79
14367 31.1840 548.13 529.14 23.05
14368 31.1860 597.31 581.79 24.14
14369 31.1880 649.32 621.95 25.19
14370 31.1900 548.22 629.98 23.03
14371 31.1920 577.47 601.64 23.62
14372 31.1940 517.96 553.75 22.48
14373 31.1960 487.59 504.74 21.86
14374 31.1980 434.41 462.51 20.63
14375 31.2000 428.72 427.95 20.24
14376 31.2020 425.82 399.42 20.31
14377 31.2040 390.44 375.26 19.54
14378 31.2060 327.27 354.87 17.89
14379 31.2080 317.57 338.31 17.59
14380 31.2100 322.58 325.79 17.63
14381 31.2120 321.68 317.57 17.63
14382 31.2140 345.94 313.75 18.46
14383 31.2160 373.17 314.93 19.07
14384 31.2180 310.29 321.98 17.38
14385 31.2200 340.26 336.23 18.20
14386 31.2220 391.60 359.36 19.50
14387 31.2240 441.60 392.24 20.85
14388 31.2260 470.88 432.27 21.55
14389 31.2280 520.52 467.54 22.52
14390 31.2300 501.56 478.98 22.05
14391 31.2320 442.70 457.09 20.77
14392 31.2340 414.59 414.40 20.27
14393 31.2360 313.23 369.59 17.55
14394 31.2380 312.38 332.08 17.52
14395 31.2400 279.22 303.50 16.40
14396 31.2420 302.96 282.39 17.24
14397 31.2440 275.42 266.73 16.44
14398 31.2460 230.54 254.98 15.14
14399 31.2480 276.72 246.00 16.46
14400 31.2500 243.17 238.98 15.33
14401 31.2520 256.91 233.39 15.79
14402 31.2540 252.47 228.84 15.78
14403 31.2560 249.40 225.08 15.74
14404 31.2580 231.20 221.88 15.00
14405 31.2600 211.76 219.12 14.32
14406 31.2620 224.13 217.01 14.83
14407 31.2640 240.18 214.83 15.38
14408 31.2660 224.18 212.89 14.91
14409 31.2680 222.99 211.18 14.76
14410 31.2700 214.15 209.70 14.44
14411 31.2720 186.07 208.43 13.47
14412 31.2740 222.18 207.37 14.79
14413 31.2760 229.70 206.51 15.12
14414 31.2780 228.12 205.81 14.93
14415 31.2800 234.22 205.29 15.06
14416 31.2820 202.69 204.92 14.06
14417 31.2840 219.04 204.70 14.67
14418 31.2860 206.22 204.63 14.21
14419 31.2880 220.76 204.70 14.72
14420 31.2900 208.68 204.92 14.28
14421 31.2920 230.85 205.30 14.98
14422 31.2940 213.35 205.84 14.47
14423 31.2960 234.14 206.55 15.22
14424 31.2980 235.66 207.45 15.19
14425 31.3000 205.45 208.53 14.08
14426 31.3020 240.25 209.83 15.28
14427 31.3040 233.83 211.36 15.10
14428 31.3060 222.68 213.17 14.87
14429 31.3080 229.66 215.28 15.00
14430 31.3100 214.02 217.77 14.44
14431 31.3120 236.64 220.74 15.18
14432 31.3140 246.40 224.28 15.56
14433 31.3160 248.41 228.59 15.64
14434 31.3180 238.85 233.89 15.32
14435 31.3200 203.99 240.48 14.05
14436 31.3220 274.46 248.62 16.34
14437 31.3240 250.70 258.61 15.73
14438 31.3260 264.94 270.61 16.14
14439 31.3280 290.18 284.71 16.86
14440 31.3300 297.61 300.94 17.06
14441 31.3320 301.11 318.83 17.15
14442 31.3340 349.04 337.14 18.58
14443 31.3360 371.00 353.70 19.13
14444 31.3380 352.16 365.44 18.59
14445 31.3400 418.12 369.54 20.18
14446 31.3420 341.03 365.01 18.20
14447 31.3440 342.71 353.33 18.40
14448 31.3460 360.58 337.56 18.88
14449 31.3480 332.31 320.57 18.04
14450 31.3500 303.07 304.37 17.21
14451 31.3520 289.63 290.02 16.83
14452 31.3540 274.51 277.83 16.47
14453 31.3560 233.76 267.87 15.20
14454 31.3580 262.03 259.96 16.08
14455 31.3600 269.72 253.81 16.16
14456 31.3620 267.39 249.37 16.17
14457 31.3640 255.02 246.33 15.83
14458 31.3660 250.88 244.55 15.82
14459 31.3680 250.07 243.92 15.69
14460 31.3700 280.12 244.41 16.61
14461 31.3720 286.38 246.08 16.73
14462 31.3740 261.64 249.07 16.14
14463 31.3760 265.53 253.59 16.17
14464 31.3780 286.71 259.98 16.87
14465 31.3800 280.50 268.62 16.51
14466 31.3820 315.91 279.99 17.54
14467 31.3840 308.96 294.50 17.50
14468 31.3860 330.21 312.43 18.11
14469 31.3880 387.06 333.42 19.61
14470 31.3900 387.60 356.02 19.39
14471 31.3920 414.43 376.78 20.16
14472 31.3940 402.13 390.66 19.93
14473 31.3960 462.24 393.58 21.42
14474 31.3980 410.79 385.50 20.19
14475 31.4000 407.08 370.52 19.94
14476 31.4020 353.58 353.76 18.62
14477 31.4040 350.77 338.67 18.62
14478 31.4060 297.88 326.54 17.19
14479 31.4080 284.79 317.06 16.78
14480 31.4100 317.23 309.49 17.62
14481 31.4120 290.30 303.08 16.83
14482 31.4140 298.63 298.11 17.17
14483 31.4160 317.79 295.23 17.78
14484 31.4180 309.44 295.02 17.48
14485 31.4200 273.32 297.77 16.32
14486 31.4220 337.38 303.55 18.11
14487 31.4240 303.92 312.26 17.32
14488 31.4260 356.04 323.50 18.75
14489 31.4280 355.80 336.55 18.74
14490 31.4300 353.38 349.95 18.58
14491 31.4320 360.26 361.56 18.73
14492 31.4340 375.79 368.86 19.24
14493 31.4360 355.92 369.89 18.78
14494 31.4380 396.06 364.33 19.73
14495 31.4400 371.57 353.54 19.06
14496 31.4420 342.31 339.61 18.23
14497 31.4440 332.28 324.39 18.08
14498 31.4460 314.53 309.30 17.67
14499 31.4480 299.31 295.35 17.15
14500 31.4500 276.04 283.29 16.43
14501 31.4520 265.29 273.31 16.04
14502 31.4540 269.04 265.39 16.32
14503 31.4560 245.14 259.27 15.51
14504 31.4580 244.53 254.69 15.50
14505 31.4600 271.46 251.36 16.26
14506 31.4620 251.18 248.96 15.56
14507 31.4640 256.53 247.15 15.88
14508 31.4660 256.00 245.72 15.94
14509 31.4680 266.93 244.63 16.17
14510 31.4700 265.92 244.04 16.10
14511 31.4720 244.62 244.04 15.42
14512 31.4740 270.44 244.72 16.26
14513 31.4760 271.03 246.19 16.33
14514 31.4780 267.62 248.56 16.20
14515 31.4800 258.98 252.05 15.87
14516 31.4820 246.09 256.95 15.39
14517 31.4840 247.87 263.65 15.63
14518 31.4860 287.84 272.77 16.86
14519 31.4880 293.35 285.04 16.97
14520 31.4900 296.45 301.55 16.97
14521 31.4920 327.48 323.34 17.88
14522 31.4940 366.60 351.23 18.96
14523 31.4960 437.04 384.07 20.81
14524 31.4980 442.92 416.39 20.85
14525 31.5000 453.70 438.05 21.02
14526 31.5020 442.89 440.68 20.76
14527 31.5040 456.19 427.29 21.14
14528 31.5060 433.46 409.13 20.74
14529 31.5080 371.66 395.87 19.09
14530 31.5100 400.92 392.02 19.83
14531 31.5120 418.95 398.82 20.17
14532 31.5140 406.00 415.40 19.96
14533 31.5160 373.78 437.17 19.19
14534 31.5180 479.04 453.38 21.72
14535 31.5200 473.22 452.04 21.47
14536 31.5220 453.01 432.88 20.95
14537 31.5240 393.76 407.21 19.64
14538 31.5260 388.46 385.01 19.65
14539 31.5280 349.66 369.74 18.56
14540 31.5300 361.53 361.18 18.73
14541 31.5320 381.77 357.95 19.30
14542 31.5340 401.56 358.75 19.90
14543 31.5360 369.51 362.72 19.17
14544 31.5380 398.92 369.60 19.77
14545 31.5400 377.31 379.90 19.21
14546 31.5420 392.94 394.91 19.45
14547 31.5440 436.92 416.40 20.79
14548 31.5460 505.19 445.61 22.38
14549 31.5480 489.08 479.88 21.97
14550 31.5500 537.13 508.36 22.86
14551 31.5520 564.90 514.25 23.47
14552 31.5540 504.69 490.72 22.23
14553 31.5560 456.60 450.55 21.28
14554 31.5580 378.51 410.42 19.24
14555 31.5600 368.80 378.72 18.95
14556 31.5620 341.17 357.24 18.24
14557 31.5640 323.17 345.30 17.80
14558 31.5660 328.04 342.10 17.97
14559 31.5680 358.42 347.57 18.73
14560 31.5700 382.21 362.30 19.42
14561 31.5720 427.05 386.95 20.27
14562 31.5740 462.20 419.97 21.32
14563 31.5760 513.18 453.45 22.54
14564 31.5780 532.59 471.70 22.85
14565 31.5800 450.33 462.28 20.92
14566 31.5820 416.39 431.25 20.14
14567 31.5840 328.17 394.99 17.92
14568 31.5860 301.88 364.59 17.23
14569 31.5880 340.65 342.95 18.27
14570 31.5900 288.59 329.30 16.77
14571 31.5920 297.92 321.84 17.04
14572 31.5940 308.33 318.87 17.37
14573 31.5960 338.96 319.44 18.31
14574 31.5980 347.54 322.40 18.45
14575 31.6000 349.34 326.71 18.43
14576 31.6020 341.49 331.22 18.20
14577 31.6040 330.44 334.81 18.02
14578 31.6060 317.01 336.67 17.66
14579 31.6080 322.33 336.56 17.75
14580 31.6100 324.93 335.11 17.85
14581 31.6120 356.08 333.61 18.65
14582 31.6140 357.18 333.68 18.71
14583 31.6160 344.41 337.08 18.48
14584 31.6180 316.37 345.67 17.64
14585 31.6200 381.56 361.26 19.29
14586 31.6220 405.77 385.14 19.90
14587 31.6240 436.83 415.96 20.66
14588 31.6260 431.65 445.82 20.70
14589 31.6280 477.33 459.56 21.65
14590 31.6300 449.04 447.30 20.98
14591 31.6320 394.04 416.59 19.59
14592 31.6340 357.53 383.04 18.70
14593 31.6360 350.80 356.10 18.70
14594 31.6380 323.16 338.37 17.81
14595 31.6400 298.07 329.50 17.03
14596 31.6420 301.01 328.73 17.10
14597 31.6440 326.69 335.77 17.87
14598 31.6460 360.33 350.79 18.91
14599 31.6480 378.83 373.87 19.26
14600 31.6500 437.16 403.60 20.58
14601 31.6520 456.46 434.16 21.15
14602 31.6540 482.56 454.26 21.74
14603 31.6560 438.62 453.66 20.79
14604 31.6580 421.00 433.68 20.33
14605 31.6600 386.65 405.56 19.36
14606 31.6620 356.03 379.55 18.55
14607 31.6640 308.19 359.94 17.35
14608 31.6660 320.06 347.20 17.81
14609 31.6680 314.56 340.23 17.55
14610 31.6700 301.73 337.50 17.18
14611 31.6720 327.23 337.47 17.85
14612 31.6740 337.29 338.54 18.16
14613 31.6760 328.09 339.08 17.99
14614 31.6780 313.07 337.79 17.52
14615 31.6800 341.74 333.47 18.17
14616 31.6820 288.09 326.04 16.74
14617 31.6840 302.23 316.01 17.13
14618 31.6860 268.69 304.39 16.25
14619 31.6880 249.79 292.12 15.68
14620 31.6900 297.15 280.06 16.96
14621 31.6920 254.13 268.72 15.73
14622 31.6940 255.91 258.43 15.75
14623 31.6960 236.28 249.35 15.30
14624 31.6980 234.72 241.48 15.09
14625 31.7000 218.59 234.79 14.57
14626 31.7020 245.29 229.18 15.41
14627 31.7040 225.25 224.56 14.86
14628 31.7060 231.34 220.80 15.08
14629 31.7080 224.37 217.78 14.90
14630 31.7100 215.10 215.38 14.44
14631 31.7120 225.21 213.49 14.78
14632 31.7140 208.97 212.02 14.27
14633 31.7160 214.87 210.89 14.51
14634 31.7180 201.53 210.03 13.99
14635 31.7200 201.79 209.37 13.96
14636 31.7220 213.70 208.88 14.38
14637 31.7240 195.68 208.50 13.75
14638 31.7260 232.61 208.20 15.09
14639 31.7280 229.58 207.94 14.98
14640 31.7300 209.61 207.69 14.26
14641 31.7320 220.94 207.43 14.67
14642 31.7340 234.85 207.14 15.10
14643 31.7360 199.38 206.80 14.00
14644 31.7380 185.71 206.41 13.50
14645 31.7400 242.96 205.96 15.34
14646 31.7420 234.33 205.44 15.05
14647 31.7440 206.45 204.88 14.20
14648 31.7460 200.19 204.29 13.99
14649 31.7480 205.50 203.66 14.17
14650 31.7500 242.15 203.03 15.33
14651 31.7520 233.05 202.39 15.00
14652 31.7540 214.81 201.83 14.46
14653 31.7560 197.69 201.21 13.95
14654 31.7580 226.60 200.61 14.86
14655 31.7600 211.18 200.02 14.25
14656 31.7620 207.83 199.47 14.19
14657 31.7640 189.08 198.95 13.59
14658 31.7660 212.85 198.49 14.39
14659 31.7680 216.56 198.09 14.56
14660 31.7700 212.50 197.77 14.36
14661 31.7720 199.08 197.57 13.91
14662 31.7740 223.49 197.45 14.76
14663 31.7760 218.70 197.36 14.65
14664 31.7780 194.02 197.18 13.77
14665 31.7800 195.01 197.00 13.73
14666 31.7820 212.22 196.76 14.40
14667 31.7840 193.48 196.67 13.71
14668 31.7860 214.98 196.80 14.53
14669 31.7880 189.81 197.18 13.63
14670 31.7900 223.16 197.81 14.63
14671 31.7920 205.96 198.72 14.16
14672 31.7940 206.22 199.90 14.19
14673 31.7960 212.85 201.40 14.50
14674 31.7980 205.62 203.21 14.20
14675 31.8000 191.51 205.35 13.64
14676 31.8020 219.74 207.86 14.57
14677 31.8040 188.64 210.73 13.59
14678 31.8060 208.51 213.99 14.27
14679 31.8080 222.97 217.62 14.78
14680 31.8100 222.49 221.62 14.68
14681 31.8120 222.13 225.92 14.71
14682 31.8140 218.93 230.46 14.62
14683 31.8160 221.99 235.13 14.85
14684 31.8180 202.90 239.78 14.09
14685 31.8200 286.34 244.20 16.67
14686 31.8220 230.31 248.16 14.95
14687 31.8240 262.57 251.42 15.99
14688 31.8260 232.09 253.73 15.16
14689 31.8280 249.57 254.93 15.64
14690 31.8300 256.79 254.94 15.82
14691 31.8320 240.10 253.73 15.23
14692 31.8340 232.82 251.33 15.15
14693 31.8360 230.10 247.78 15.00
14694 31.8380 223.63 243.28 14.83
14695 31.8400 221.98 238.14 14.67
14696 31.8420 238.91 232.77 15.21
14697 31.8440 220.25 227.50 14.65
14698 31.8460 196.41 222.52 13.92
14699 31.8480 199.98 217.95 14.06
14700 31.8500 197.89 213.82 13.86
14701 31.8520 220.42 210.32 14.64
14702 31.8540 202.60 207.12 14.07
14703 31.8560 199.36 204.35 14.02
14704 31.8580 200.46 201.98 14.02
14705 31.8600 193.81 199.99 13.74
14706 31.8620 196.50 198.34 13.81
14707 31.8640 210.61 197.00 14.38
14708 31.8660 203.38 195.95 14.11
14709 31.8680 187.76 195.15 13.56
14710 31.8700 201.13 194.57 13.98
14711 31.8720 222.58 194.22 14.70
14712 31.8740 215.00 194.07 14.49
14713 31.8760 214.73 194.13 14.55
14714 31.8780 217.15 194.38 14.62
14715 31.8800 209.01 194.72 14.23
14716 31.8820 198.96 195.24 13.93
14717 31.8840 190.09 195.90 13.60
14718 31.8860 197.42 196.67 13.92
14719 31.8880 213.21 197.80 14.51
14720 31.8900 195.22 199.30 13.84
14721 31.8920 179.44 201.22 13.18
14722 31.8940 182.98 203.62 13.32
14723 31.8960 214.38 206.54 14.54
14724 31.8980 201.34 209.77 14.02
14725 31.9000 217.84 213.18 14.51
14726 31.9020 218.71 216.17 14.57
14727 31.9040 233.35 218.40 15.11
14728 31.9060 229.87 220.25 14.99
14729 31.9080 201.09 222.25 14.08
14730 31.9100 208.82 224.85 14.26
14731 31.9120 235.61 227.98 15.18
14732 31.9140 225.33 230.83 14.77
14733 31.9160 226.70 232.06 14.98
14734 31.9180 198.43 230.96 13.91
14735 31.9200 221.16 228.15 14.62
14736 31.9220 212.30 224.99 14.37
14737 31.9240 229.98 221.97 14.96
14738 31.9260 213.75 219.21 14.49
14739 31.9280 213.02 216.63 14.49
14740 31.9300 220.94 214.18 14.62
14741 31.9320 195.35 211.84 13.77
14742 31.9340 199.87 209.62 13.95
14743 31.9360 209.31 207.53 14.30
14744 31.9380 197.80 205.58 13.94
14745 31.9400 215.21 203.82 14.57
14746 31.9420 179.33 202.28 13.68
14747 31.9440 214.76 200.99 15.02
14748 31.9460 207.98 199.89 14.89
14749 31.9480 195.76 199.22 14.41
14750 31.9500 207.47 198.93 14.74
14751 31.9520 206.23 199.10 14.67
14752 31.9540 189.97 199.85 14.07
14753 31.9560 199.31 201.33 14.59
14754 31.9580 227.71 203.72 15.52
14755 31.9600 228.48 207.16 15.50
14756 31.9620 203.42 211.54 14.54
14757 31.9640 218.74 216.05 15.11
14758 31.9660 217.22 219.14 15.23
14759 31.9680 224.40 219.63 15.39
14760 31.9700 207.00 218.19 14.74
14761 31.9720 224.95 216.46 15.32
14762 31.9740 228.97 215.42 15.52
14763 31.9760 198.19 215.24 14.55
14764 31.9780 215.23 215.71 15.09
14765 31.9800 244.76 216.58 15.96
14766 31.9820 220.23 217.66 15.14
14767 31.9840 255.03 218.74 16.33
14768 31.9860 247.10 219.84 16.20
14769 31.9880 228.48 221.01 15.52
14770 31.9900 255.37 222.54 16.36
14771 31.9920 245.66 224.79 16.00
14772 31.9940 231.29 227.79 15.59
14773 31.9960 216.23 230.68 15.17
14774 31.9980 226.56 232.13 15.50
14775 32.0000 225.19 231.16 15.36
14776 32.0020 248.55 228.67 16.14
14777 32.0040 211.04 226.07 14.87
14778 32.0060 201.41 223.75 14.68
14779 32.0080 227.94 221.19 15.51
14780 32.0100 202.74 218.02 14.62
14781 32.0120 228.80 214.55 15.47
14782 32.0140 205.31 211.13 14.69
14783 32.0160 208.23 208.04 14.93
14784 32.0180 200.31 205.39 14.54
14785 32.0200 186.23 203.15 14.00
14786 32.0220 193.06 201.44 14.18
14787 32.0240 216.32 200.15 15.09
14788 32.0260 193.37 199.22 14.39
14789 32.0280 184.80 198.61 14.00
14790 32.0300 191.80 198.24 14.18
14791 32.0320 180.60 198.07 13.67
14792 32.0340 183.67 198.04 13.91
14793 32.0360 196.83 198.11 14.52
14794 32.0380 215.92 198.39 15.13
14795 32.0400 190.94 198.56 14.22
14796 32.0420 207.40 198.77 14.68
14797 32.0440 208.35 199.02 14.82
14798 32.0460 206.43 199.29 14.89
14799 32.0480 230.65 199.55 15.63
14800 32.0500 212.84 199.73 14.99
14801 32.0520 204.98 199.74 14.63
14802 32.0540 220.13 199.82 15.27
14803 32.0560 203.15 199.95 14.73
14804 32.0580 191.32 200.14 14.30
14805 32.0600 225.38 200.37 15.40
14806 32.0620 209.43 200.60 14.74
14807 32.0640 211.90 200.79 14.92
14808 32.0660 189.65 200.92 14.21
14809 32.0680 216.60 200.97 15.21
14810 32.0700 210.73 200.96 14.93
14811 32.0720 219.19 200.94 15.14
14812 32.0740 211.29 200.94 14.88
14813 32.0760 200.03 201.05 14.64
14814 32.0780 219.42 201.31 15.32
14815 32.0800 202.22 201.81 14.53
14816 32.0820 166.95 202.60 13.16
14817 32.0840 222.02 203.75 15.23
14818 32.0860 207.07 205.34 14.89
14819 32.0880 238.23 207.44 15.92
14820 32.0900 213.23 210.12 14.99
14821 32.0920 210.61 213.41 14.84
14822 32.0940 204.93 217.31 14.63
14823 32.0960 211.39 221.71 15.01
14824 32.0980 215.04 226.45 15.13
14825 32.1000 199.76 231.49 14.46
14826 32.1020 210.13 237.09 14.80
14827 32.1040 228.13 243.69 15.41
14828 32.1060 258.21 251.79 16.56
14829 32.1080 249.58 261.73 16.28
14830 32.1100 280.28 273.65 17.11
14831 32.1120 288.60 287.39 17.34
14832 32.1140 283.72 302.51 17.19
14833 32.1160 336.42 317.95 18.86
14834 32.1180 328.53 332.02 18.62
14835 32.1200 345.70 342.58 19.01
14836 32.1220 346.04 347.77 18.97
14837 32.1240 309.39 346.85 17.89
14838 32.1260 345.23 340.52 19.16
14839 32.1280 335.96 330.33 18.89
14840 32.1300 310.34 318.05 18.03
14841 32.1320 250.01 305.62 16.12
14842 32.1340 298.41 294.40 17.68
14843 32.1360 255.54 285.04 16.45
14844 32.1380 270.23 277.62 16.93
14845 32.1400 302.03 272.00 17.74
14846 32.1420 261.31 267.55 16.47
14847 32.1440 260.13 263.93 16.40
14848 32.1460 258.34 260.75 16.58
14849 32.1480 262.85 257.67 16.67
14850 32.1500 275.59 254.47 16.92
14851 32.1520 268.45 250.89 16.69
14852 32.1540 264.03 246.98 16.51
14853 32.1560 265.12 242.21 16.75
14854 32.1580 228.80 237.14 15.56
14855 32.1600 225.62 232.22 15.31
14856 32.1620 231.13 227.69 15.49
14857 32.1640 214.24 223.66 14.96
14858 32.1660 233.18 220.15 15.74
14859 32.1680 181.13 217.20 13.80
14860 32.1700 242.89 214.77 15.94
14861 32.1720 224.46 212.88 15.25
14862 32.1740 198.56 211.63 14.40
14863 32.1760 227.27 210.75 15.56
14864 32.1780 224.45 210.37 15.41
14865 32.1800 219.14 210.46 15.06
14866 32.1820 229.22 211.04 15.49
14867 32.1840 222.93 212.09 15.22
14868 32.1860 275.97 213.60 17.16
14869 32.1880 226.01 215.59 15.48
14870 32.1900 216.56 218.03 15.10
14871 32.1920 234.61 220.94 15.58
14872 32.1940 212.36 224.32 14.92
14873 32.1960 200.84 228.16 14.65
14874 32.1980 227.92 232.45 15.50
14875 32.2000 230.77 237.23 15.51
14876 32.2020 250.97 242.47 16.13
14877 32.2040 245.30 248.21 15.98
14878 32.2060 263.11 254.52 16.77
14879 32.2080 252.96 261.52 16.36
14880 32.2100 265.15 269.49 16.61
14881 32.2120 249.95 278.91 16.16
14882 32.2140 306.78 290.53 17.91
14883 32.2160 305.94 305.47 18.07
14884 32.2180 363.47 325.13 19.66
14885 32.2200 372.87 350.86 19.75
14886 32.2220 465.66 382.27 21.98
14887 32.2240 427.09 414.06 21.15
14888 32.2260 407.33 433.93 20.95
14889 32.2280 444.74 429.59 21.69
14890 32.2300 379.72 402.65 19.96
14891 32.2320 358.06 366.67 19.34
14892 32.2340 332.43 332.86 18.68
14893 32.2360 271.89 305.65 17.06
14894 32.2380 291.39 284.91 17.67
14895 32.2400 259.85 269.30 16.50
14896 32.2420 256.05 257.54 16.28
14897 32.2440 250.95 248.55 16.25
14898 32.2460 226.22 241.55 15.61
14899 32.2480 231.73 235.99 15.68
14900 32.2500 228.90 231.49 15.53
14901 32.2520 226.57 227.77 15.40
14902 32.2540 232.13 224.62 15.58
14903 32.2560 219.27 221.90 15.36
14904 32.2580 218.74 219.50 15.27
14905 32.2600 205.65 217.35 14.65
14906 32.2620 234.05 215.37 15.57
14907 32.2640 202.21 213.54 14.57
14908 32.2660 214.21 211.81 15.17
14909 32.2680 215.99 210.17 15.14
14910 32.2700 219.91 208.60 15.24
14911 32.2720 222.13 207.09 15.25
14912 32.2740 214.22 205.64 15.01
14913 32.2760 217.63 204.24 15.32
14914 32.2780 227.64 202.90 15.57
14915 32.2800 213.18 201.60 14.93
14916 32.2820 213.49 200.37 14.91
14917 32.2840 230.36 199.21 15.58
14918 32.2860 207.22 198.13 14.87
14919 32.2880 220.20 197.11 15.31
14920 32.2900 218.00 196.13 15.12
14921 32.2920 181.10 195.14 13.71
14922 32.2940 202.96 194.08 14.53
14923 32.2960 187.09 192.95 14.19
14924 32.2980 191.85 191.86 14.28
14925 32.3000 190.23 190.86 14.02
14926 32.3020 189.90 189.97 14.07
14927 32.3040 194.09 189.21 14.26
14928 32.3060 178.04 188.58 13.78
14929 32.3080 193.18 188.05 14.31
14930 32.3100 190.68 187.59 14.15
14931 32.3120 199.56 187.17 14.39
14932 32.3140 196.60 186.79 14.38
14933 32.3160 193.13 186.49 14.39
14934 32.3180 201.57 186.30 14.62
14935 32.3200 213.01 186.31 14.89
14936 32.3220 229.05 186.38 15.48
14937 32.3240 179.01 186.56 13.63
14938 32.3260 202.35 186.84 14.74
14939 32.3280 204.74 187.22 14.79
14940 32.3300 200.96 187.67 14.47
14941 32.3320 202.38 188.18 14.52
14942 32.3340 208.71 188.70 14.72
14943 32.3360 194.35 189.21 14.47
14944 32.3380 213.45 189.68 15.10
14945 32.3400 231.84 190.06 15.58
14946 32.3420 223.79 190.38 15.21
14947 32.3440 206.41 190.66 14.69
14948 32.3460 203.65 190.92 14.79
14949 32.3480 203.62 191.21 14.70
14950 32.3500 213.83 191.58 14.88
14951 32.3520 212.70 192.02 14.89
14952 32.3540 187.06 192.50 14.01
14953 32.3560 217.01 192.96 15.18
14954 32.3580 221.54 193.33 15.31
14955 32.3600 186.48 193.62 13.92
14956 32.3620 211.55 193.90 14.79
14957 32.3640 211.74 194.25 14.87
14958 32.3660 199.38 194.73 14.57
14959 32.3680 195.70 195.33 14.43
14960 32.3700 205.04 196.07 14.60
14961 32.3720 202.93 196.95 14.49
14962 32.3740 210.57 197.99 14.76
14963 32.3760 202.48 199.23 14.69
14964 32.3780 223.52 200.68 15.41
14965 32.3800 197.62 202.32 14.34
14966 32.3820 200.05 204.13 14.37
14967 32.3840 187.60 206.14 13.94
14968 32.3860 211.09 208.32 14.98
14969 32.3880 199.35 210.74 14.58
14970 32.3900 226.97 213.45 15.41
14971 32.3920 210.60 216.54 14.78
14972 32.3940 243.38 220.18 15.87
14973 32.3960 219.63 224.55 15.36
14974 32.3980 226.61 229.91 15.47
14975 32.4000 239.67 236.63 15.77
14976 32.4020 228.70 245.20 15.43
14977 32.4040 262.18 256.18 16.49
14978 32.4060 244.47 270.38 16.05
14979 32.4080 308.40 288.58 18.11
14980 32.4100 349.95 311.19 19.01
14981 32.4120 382.85 337.41 19.90
14982 32.4140 387.55 363.32 20.05
14983 32.4160 422.52 382.44 21.20
14984 32.4180 395.88 390.10 20.40
14985 32.4200 380.50 387.11 19.85
14986 32.4220 375.75 376.41 19.72
14987 32.4240 365.07 360.11 19.38
14988 32.4260 348.64 340.35 19.23
14989 32.4280 331.16 319.59 18.67
14990 32.4300 293.64 299.87 17.46
14991 32.4320 263.44 282.46 16.50
14992 32.4340 262.90 267.63 16.44
14993 32.4360 264.59 255.25 16.72
14994 32.4380 220.45 245.11 15.24
14995 32.4400 230.98 236.85 15.41
14996 32.4420 245.22 230.15 15.92
14997 32.4440 220.69 224.76 15.11
14998 32.4460 216.49 220.42 15.16
14999 32.4480 216.12 216.90 15.04
15000 32.4500 235.19 214.01 15.57
15001 32.4520 226.81 211.52 15.35
15002 32.4540 237.56 209.28 15.65
15003 32.4560 230.30 207.24 15.63
15004 32.4580 229.38 205.51 15.53
15005 32.4600 192.93 204.17 14.11
15006 32.4620 200.61 203.26 14.45
15007 32.4640 199.28 202.81 14.38
15008 32.4660 212.65 202.82 15.04
15009 32.4680 213.75 203.18 14.92
15010 32.4700 214.86 203.68 14.94
15011 32.4720 225.29 204.05 15.30
15012 32.4740 223.82 204.31 15.22
15013 32.4760 184.58 204.85 14.01
15014 32.4780 211.43 205.96 14.94
15015 32.4800 223.36 207.50 15.25
15016 32.4820 208.93 208.86 14.74
15017 32.4840 210.02 209.36 14.73
15018 32.4860 241.00 209.08 16.01
15019 32.4880 215.95 208.78 15.11
15020 32.4900 241.39 209.08 15.84
15021 32.4920 209.53 210.14 14.85
15022 32.4940 235.88 211.75 15.71
15023 32.4960 196.99 213.58 14.49
15024 32.4980 211.71 215.37 14.97
15025 32.5000 206.20 217.14 14.65
15026 32.5020 225.00 219.20 15.33
15027 32.5040 269.84 221.92 16.80
15028 32.5060 230.74 225.52 15.69
15029 32.5080 249.25 230.09 16.20
15030 32.5100 259.91 235.65 16.47
15031 32.5120 252.74 242.14 16.15
15032 32.5140 248.83 249.43 16.18
15033 32.5160 251.68 257.33 16.42
15034 32.5180 249.28 265.43 16.21
15035 32.5200 309.15 273.33 17.99
15036 32.5220 303.51 280.53 17.77
15037 32.5240 314.08 286.58 18.20
15038 32.5260 291.52 291.12 17.61
15039 32.5280 303.51 293.90 17.93
15040 32.5300 310.06 294.35 18.04
15041 32.5320 289.34 291.84 17.37
15042 32.5340 278.18 286.04 17.23
15043 32.5360 252.29 278.01 16.53
15044 32.5380 228.59 269.49 15.53
15045 32.5400 234.73 261.72 15.65
15046 32.5420 252.04 255.27 16.25
15047 32.5440 250.31 250.22 16.30
15048 32.5460 233.93 246.51 15.90
15049 32.5480 222.75 244.03 15.38
15050 32.5500 256.24 242.67 16.45
15051 32.5520 215.55 242.31 14.96
15052 32.5540 259.90 242.85 16.72
15053 32.5560 256.03 244.20 16.64
15054 32.5580 225.08 246.30 15.49
15055 32.5600 208.08 249.11 14.81
15056 32.5620 261.12 252.66 16.56
15057 32.5640 251.41 257.00 16.40
15058 32.5660 258.85 262.29 16.69
15059 32.5680 259.82 268.70 16.75
15060 32.5700 272.92 276.41 17.02
15061 32.5720 278.45 285.64 17.13
15062 32.5740 310.75 296.63 18.23
15063 32.5760 294.40 309.45 17.89
15064 32.5780 324.92 324.20 18.66
15065 32.5800 415.87 340.83 20.92
15066 32.5820 375.98 359.10 19.91
15067 32.5840 410.41 378.15 20.92
15068 32.5860 398.02 397.02 20.82
15069 32.5880 464.06 413.98 22.36
15070 32.5900 455.02 426.76 21.98
15071 32.5920 451.38 432.90 21.74
15072 32.5940 438.88 430.77 21.65
15073 32.5960 427.55 420.41 21.45
15074 32.5980 369.26 403.76 19.83
15075 32.6000 371.28 383.61 19.89
15076 32.6020 394.26 362.48 20.26
15077 32.6040 345.18 342.28 19.10
15078 32.6060 304.68 324.16 18.15
15079 32.6080 319.95 308.49 18.52
15080 32.6100 278.60 295.41 17.18
15081 32.6120 330.12 284.88 18.57
15082 32.6140 273.23 276.67 17.00
15083 32.6160 273.25 270.61 17.21
15084 32.6180 264.50 266.55 16.80
15085 32.6200 293.67 264.39 17.60
15086 32.6220 282.33 264.11 17.20
15087 32.6240 280.54 265.77 17.14
15088 32.6260 270.17 269.52 17.04
15089 32.6280 302.69 275.56 17.94
15090 32.6300 295.31 284.23 17.63
15091 32.6320 327.79 295.99 18.47
15092 32.6340 293.00 311.33 17.56
15093 32.6360 342.45 330.76 19.17
15094 32.6380 397.43 354.43 20.64
15095 32.6400 427.82 381.06 21.21
15096 32.6420 457.67 407.60 21.98
15097 32.6440 470.88 428.84 22.20
15098 32.6460 448.18 439.53 21.90
15099 32.6480 480.77 438.39 22.65
15100 32.6500 433.39 428.43 21.34
15101 32.6520 462.89 413.68 22.04
15102 32.6540 424.72 396.68 21.05
15103 32.6560 379.75 378.39 20.22
15104 32.6580 391.93 359.22 20.39
15105 32.6600 326.63 339.74 18.54
15106 32.6620 332.74 320.83 18.59
15107 32.6640 317.89 303.22 18.19
15108 32.6660 319.07 287.37 18.41
15109 32.6680 273.83 273.65 17.09
15110 32.6700 278.85 261.99 17.15
15111 32.6720 286.44 252.03 17.26
15112 32.6740 280.84 243.23 17.08
15113 32.6760 253.14 235.05 16.44
15114 32.6780 260.76 227.46 16.60
15115 32.6800 251.75 220.75 16.23
15116 32.6820 248.17 215.15 16.08
15117 32.6840 224.48 210.59 15.25
15118 32.6860 230.20 206.96 15.60
15119 32.6880 220.56 204.10 15.29
15120 32.6900 193.56 201.90 14.25
15121 32.6920 222.91 200.25 15.20
15122 32.6940 212.09 199.07 14.93
15123 32.6960 220.04 198.35 15.31
15124 32.6980 207.33 197.93 14.87
15125 32.7000 217.75 197.71 15.06
15126 32.7020 224.02 197.54 15.27
15127 32.7040 222.49 197.34 15.21
15128 32.7060 216.69 197.16 15.19
15129 32.7080 209.69 197.12 14.90
15130 32.7100 210.94 197.23 14.86
15131 32.7120 215.19 197.44 14.96
15132 32.7140 204.11 197.69 14.58
15133 32.7160 223.40 197.93 15.45
15134 32.7180 223.66 198.12 15.40
15135 32.7200 224.08 198.25 15.35
15136 32.7220 220.14 198.30 15.11
15137 32.7240 221.28 198.24 15.15
15138 32.7260 212.03 198.18 14.99
15139 32.7280 206.59 198.08 14.81
15140 32.7300 212.04 197.99 14.89
15141 32.7320 207.42 197.90 14.70
15142 32.7340 223.50 197.84 15.30
15143 32.7360 199.25 197.82 14.53
15144 32.7380 190.35 197.84 14.26
15145 32.7400 194.62 197.89 14.25
15146 32.7420 230.33 197.98 15.50
15147 32.7440 209.77 198.10 14.71
15148 32.7460 203.30 198.24 14.69
15149 32.7480 196.04 198.32 14.43
15150 32.7500 198.62 198.36 14.48
15151 32.7520 199.48 198.25 14.42
15152 32.7540 197.31 197.93 14.38
15153 32.7560 210.60 197.39 15.03
15154 32.7580 218.87 196.61 15.23
15155 32.7600 224.23 195.65 15.37
15156 32.7620 237.21 194.57 15.71
15157 32.7640 216.56 193.45 15.05
15158 32.7660 186.29 192.36 14.06
15159 32.7680 204.24 191.37 14.74
15160 32.7700 183.96 190.50 13.94
15161 32.7720 179.49 189.79 13.72
15162 32.7740 210.44 189.22 14.81
15163 32.7760 195.18 188.76 14.45
15164 32.7780 203.18 188.38 14.70
15165 32.7800 192.04 188.03 14.17
15166 32.7820 202.11 187.69 14.51
15167 32.7840 182.45 187.34 13.79
15168 32.7860 186.68 186.96 14.12
15169 32.7880 180.74 186.57 13.84
15170 32.7900 198.66 186.14 14.50
15171 32.7920 169.64 185.80 13.29
15172 32.7940 181.53 185.43 13.77
15173 32.7960 199.42 185.11 14.56
15174 32.7980 201.82 184.92 14.66
15175 32.8000 178.45 184.81 13.68
15176 32.8020 202.90 184.75 14.50
15177 32.8040 187.50 184.71 13.97
15178 32.8060 194.94 184.67 14.36
15179 32.8080 180.96 184.60 13.86
15180 32.8100 177.43 184.45 13.64
15181 32.8120 165.37 184.23 13.12
15182 32.8140 189.78 183.92 14.03
15183 32.8160 178.22 183.55 13.79
15184 32.8180 167.26 183.10 13.36
15185 32.8200 169.27 182.62 13.36
15186 32.8220 205.80 182.09 14.59
15187 32.8240 168.22 181.55 13.27
15188 32.8260 176.78 181.01 13.66
15189 32.8280 200.96 180.48 14.63
15190 32.8300 188.62 179.96 14.02
15191 32.8320 181.66 179.48 13.77
15192 32.8340 217.38 179.03 15.05
15193 32.8360 181.86 178.62 13.87
15194 32.8380 167.86 178.26 13.43
15195 32.8400 198.66 177.96 14.44
15196 32.8420 199.72 177.71 14.39
15197 32.8440 211.62 177.53 14.80
15198 32.8460 187.73 177.50 14.16
15199 32.8480 177.44 177.47 13.74
15200 32.8500 185.19 177.53 13.94
15201 32.8520 193.07 177.69 14.19
15202 32.8540 204.03 177.95 14.58
15203 32.8560 181.17 178.33 13.87
15204 32.8580 193.64 178.84 14.37
15205 32.8600 205.36 179.48 14.63
15206 32.8620 186.92 180.26 13.97
15207 32.8640 180.20 181.18 13.63
15208 32.8660 165.64 182.23 13.24
15209 32.8680 193.82 183.39 14.35
15210 32.8700 190.88 184.59 14.12
15211 32.8720 170.78 185.74 13.36
15212 32.8740 166.16 186.73 13.13
15213 32.8760 173.62 187.43 13.59
15214 32.8780 183.89 187.77 13.97
15215 32.8800 203.11 187.77 14.61
15216 32.8820 180.36 187.47 13.76
15217 32.8840 184.80 187.12 13.86
15218 32.8860 184.16 186.48 13.98
15219 32.8880 190.88 185.79 14.27
15220 32.8900 179.08 185.12 13.63
15221 32.8920 185.30 184.52 13.86
15222 32.8940 194.66 183.99 14.22
15223 32.8960 194.41 183.56 14.34
15224 32.8980 193.46 183.22 14.30
15225 32.9000 194.57 182.96 14.25
15226 32.9020 188.90 182.79 14.00
15227 32.9040 190.67 182.70 14.06
15228 32.9060 202.66 182.68 14.65
15229 32.9080 195.75 182.72 14.42
15230 32.9100 190.60 182.83 14.13
15231 32.9120 168.33 183.00 13.29
15232 32.9140 176.36 183.23 13.53
15233 32.9160 176.04 183.54 13.71
15234 32.9180 180.42 183.92 13.79
15235 32.9200 208.79 184.39 14.77
15236 32.9220 180.13 184.95 13.67
15237 32.9240 187.82 185.60 13.98
15238 32.9260 179.48 186.36 13.80
15239 32.9280 179.79 187.24 13.82
15240 32.9300 218.68 188.26 15.17
15241 32.9320 186.50 189.44 13.97
15242 32.9340 204.28 190.83 14.61
15243 32.9360 187.33 192.52 14.22
15244 32.9380 207.09 194.58 14.80
15245 32.9400 200.00 197.13 14.49
15246 32.9420 222.49 200.26 15.20
15247 32.9440 220.20 204.16 15.18
15248 32.9460 215.99 208.92 15.20
15249 32.9480 242.06 214.63 16.07
15250 32.9500 229.40 221.35 15.50
15251 32.9520 223.31 229.04 15.31
15252 32.9540 222.00 237.55 15.25
15253 32.9560 236.76 246.44 15.92
15254 32.9580 240.62 254.92 16.05
15255 32.9600 266.30 261.90 16.70
15256 32.9620 264.42 266.27 16.59
15257 32.9640 300.24 267.38 17.78
15258 32.9660 284.21 265.30 17.53
15259 32.9680 275.48 260.67 17.17
15260 32.9700 234.82 254.49 15.69
15261 32.9720 218.94 247.83 15.14
15262 32.9740 254.58 241.46 16.30
15263 32.9760 240.92 235.87 16.04
15264 32.9780 240.39 231.26 15.98
15265 32.9800 216.43 227.74 15.05
15266 32.9820 201.28 225.29 14.38
15267 32.9840 208.59 223.85 14.73
15268 32.9860 217.24 223.32 15.21
15269 32.9880 211.68 223.64 15.01
15270 32.9900 236.11 224.73 15.73
15271 32.9920 225.02 226.56 15.34
15272 32.9940 213.58 229.09 14.86
15273 32.9960 230.05 232.34 15.68
15274 32.9980 223.49 236.29 15.46
15275 33.0000 217.20 240.93 15.04
15276 33.0020 247.03 246.18 16.03
15277 33.0040 258.32 251.89 16.39
15278 33.0060 256.64 257.85 16.53
15279 33.0080 256.67 263.70 16.57
15280 33.0100 260.31 269.02 16.51
15281 33.0120 289.43 273.35 17.40
15282 33.0140 300.31 276.16 17.73
15283 33.0160 297.02 276.98 17.87
15284 33.0180 282.94 275.35 17.38
15285 33.0200 280.58 271.20 17.12
15286 33.0220 287.22 265.21 17.27
15287 33.0240 272.98 258.46 16.88
15288 33.0260 255.34 251.77 16.48
15289 33.0280 215.71 245.68 15.20
15290 33.0300 227.33 240.26 15.38
15291 33.0320 226.63 235.70 15.38
15292 33.0340 194.24 232.13 14.24
15293 33.0360 237.33 229.68 15.94
15294 33.0380 204.72 228.29 14.72
15295 33.0400 231.17 227.52 15.52
15296 33.0420 213.01 226.30 14.83
15297 33.0440 213.27 223.54 14.88
15298 33.0460 209.28 219.21 14.96
15299 33.0480 210.47 214.33 14.89
15300 33.0500 222.97 209.84 15.28
15301 33.0520 202.40 206.15 14.51
15302 33.0540 198.83 203.28 14.38
15303 33.0560 192.59 201.13 14.38
15304 33.0580 198.23 199.58 14.45
15305 33.0600 190.36 198.54 14.08
15306 33.0620 204.68 197.92 14.54
15307 33.0640 193.98 197.66 14.19
15308 33.0660 184.80 197.69 14.02
15309 33.0680 206.11 197.98 14.79
15310 33.0700 227.26 198.46 15.39
15311 33.0720 218.47 199.11 15.04
15312 33.0740 213.63 199.91 14.95
15313 33.0760 230.89 200.86 15.74
15314 33.0780 208.98 201.87 14.84
15315 33.0800 198.91 202.69 14.40
15316 33.0820 201.00 202.86 14.45
15317 33.0840 215.45 202.23 14.96
15318 33.0860 218.07 201.11 15.22
15319 33.0880 209.12 200.02 14.88
15320 33.0900 214.98 199.25 15.00
15321 33.0920 213.01 198.77 14.84
15322 33.0940 201.17 198.49 14.49
15323 33.0960 219.45 198.26 15.25
15324 33.0980 181.31 197.90 13.86
15325 33.1000 186.15 197.30 13.91
15326 33.1020 182.82 196.38 13.72
15327 33.1040 202.12 195.19 14.45
15328 33.1060 187.05 193.82 14.13
15329 33.1080 189.39 192.37 14.12
15330 33.1100 203.18 190.94 14.51
15331 33.1120 187.76 189.62 13.99
15332 33.1140 186.54 188.45 13.92
15333 33.1160 188.80 187.46 14.20
15334 33.1180 184.14 186.61 13.97
15335 33.1200 185.63 186.03 13.91
15336 33.1220 190.36 185.64 14.06
15337 33.1240 189.58 185.46 14.03
15338 33.1260 176.76 185.47 13.69
15339 33.1280 189.81 185.67 14.19
15340 33.1300 183.42 186.06 13.83
15341 33.1320 193.22 186.63 14.22
15342 33.1340 193.23 187.40 14.08
15343 33.1360 197.15 188.36 14.50
15344 33.1380 193.90 189.54 14.34
15345 33.1400 204.16 190.96 14.56
15346 33.1420 206.42 192.63 14.68
15347 33.1440 206.32 194.61 14.61
15348 33.1460 220.05 197.02 15.29
15349 33.1480 185.11 199.78 13.98
15350 33.1500 201.99 203.06 14.55
15351 33.1520 228.17 206.92 15.37
15352 33.1540 207.00 211.38 14.66
15353 33.1560 205.65 216.26 14.77
15354 33.1580 191.03 221.12 14.22
15355 33.1600 238.09 225.39 15.73
15356 33.1620 228.55 228.80 15.45
15357 33.1640 263.88 231.47 16.43
15358 33.1660 218.99 233.85 15.26
15359 33.1680 250.08 236.41 16.16
15360 33.1700 226.06 239.35 15.40
15361 33.1720 235.99 242.59 15.68
15362 33.1740 262.89 245.76 16.46
15363 33.1760 238.06 248.48 15.87
15364 33.1780 230.30 250.29 15.50
15365 33.1800 255.18 250.85 16.30
15366 33.1820 260.86 250.07 16.43
15367 33.1840 253.05 248.22 16.19
15368 33.1860 240.93 245.71 15.96
15369 33.1880 225.95 243.15 15.38
15370 33.1900 238.12 240.82 15.75
15371 33.1920 222.07 238.76 15.16
15372 33.1940 228.58 236.54 15.39
15373 33.1960 231.48 233.44 15.65
15374 33.1980 187.69 229.37 14.00
15375 33.2000 192.00 225.07 14.16
15376 33.2020 194.97 221.00 14.22
15377 33.2040 212.75 217.29 14.86
15378 33.2060 201.19 213.77 14.60
15379 33.2080 216.56 210.64 15.03
15380 33.2100 203.29 208.18 14.58
15381 33.2120 182.15 206.54 13.73
15382 33.2140 197.96 205.71 14.35
15383 33.2160 199.90 205.62 14.57
15384 33.2180 197.31 206.16 14.36
15385 33.2200 185.74 207.23 13.87
15386 33.2220 199.78 208.72 14.37
15387 33.2240 218.52 210.59 15.11
15388 33.2260 231.49 212.83 15.75
15389 33.2280 210.17 215.42 14.88
15390 33.2300 203.57 218.31 14.64
15391 33.2320 204.95 221.34 14.59
15392 33.2340 217.47 224.30 15.21
15393 33.2360 233.60 227.06 15.84
15394 33.2380 241.31 229.42 15.95
15395 33.2400 228.91 231.44 15.48
15396 33.2420 199.45 233.08 14.37
15397 33.2440 233.49 234.31 15.71
15398 33.2460 230.49 235.13 15.69
15399 33.2480 225.10 235.82 15.42
15400 33.2500 203.26 236.15 14.58
15401 33.2520 230.88 236.52 15.53
15402 33.2540 222.18 237.15 15.32
15403 33.2560 235.07 238.29 15.94
15404 33.2580 206.31 240.12 14.79
15405 33.2600 229.12 242.87 15.58
15406 33.2620 214.22 246.67 14.97
15407 33.2640 247.96 251.65 16.22
15408 33.2660 257.46 257.85 16.66
15409 33.2680 261.51 265.22 16.70
15410 33.2700 287.28 273.48 17.45
15411 33.2720 290.47 281.92 17.46
15412 33.2740 306.58 289.60 17.98
15413 33.2760 274.37 295.75 17.16
15414 33.2780 286.77 299.88 17.48
15415 33.2800 307.09 301.64 17.96
15416 33.2820 246.54 300.74 16.04
15417 33.2840 286.74 297.12 17.31
15418 33.2860 253.39 291.14 16.50
15419 33.2880 277.98 283.40 17.11
15420 33.2900 264.02 274.67 16.79
15421 33.2920 265.36 265.57 16.67
15422 33.2940 239.68 256.54 15.90
15423 33.2960 235.65 247.94 15.87
15424 33.2980 211.74 240.01 14.96
15425 33.3000 234.53 232.68 15.69
15426 33.3020 230.99 226.11 15.56
15427 33.3040 230.89 220.27 15.59
15428 33.3060 218.06 215.16 15.28
15429 33.3080 201.83 210.72 14.70
15430 33.3100 194.44 206.88 14.33
15431 33.3120 203.32 203.59 14.62
15432 33.3140 217.44 200.76 15.13
15433 33.3160 181.53 198.32 13.93
15434 33.3180 196.20 196.21 14.41
15435 33.3200 185.50 194.39 13.98
15436 33.3220 193.60 192.78 14.24
15437 33.3240 186.45 191.36 14.01
15438 33.3260 192.47 190.09 14.29
15439 33.3280 181.36 188.95 13.90
15440 33.3300 178.40 187.94 13.74
15441 33.3320 172.91 187.03 13.45
15442 33.3340 182.32 186.22 13.84
15443 33.3360 186.35 185.49 14.12
15444 33.3380 187.29 184.92 14.05
15445 33.3400 196.20 184.48 14.36
15446 33.3420 174.94 184.20 13.54
15447 33.3440 203.67 184.11 14.60
15448 33.3460 183.21 184.26 14.04
15449 33.3480 158.96 184.68 12.96
15450 33.3500 176.59 185.39 13.66
15451 33.3520 169.67 186.31 13.32
15452 33.3540 175.03 187.12 13.58
15453 33.3560 178.55 187.35 13.83
15454 33.3580 190.27 186.76 14.21
15455 33.3600 169.46 185.72 13.37
15456 33.3620 199.50 184.47 14.41
15457 33.3640 174.66 183.43 13.56
15458 33.3660 173.13 182.70 13.64
15459 33.3680 190.34 182.24 14.27
15460 33.3700 161.22 182.02 13.02
15461 33.3720 194.88 182.00 14.33
15462 33.3740 185.42 182.15 13.99
15463 33.3760 186.78 182.46 14.19
15464 33.3780 167.92 182.90 13.33
15465 33.3800 168.36 183.49 13.34
15466 33.3820 180.49 184.21 13.76
15467 33.3840 184.80 185.07 13.89
15468 33.3860 174.26 186.08 13.67
15469 33.3880 193.15 187.25 14.38
15470 33.3900 156.80 188.61 12.89
15471 33.3920 179.64 190.19 13.71
15472 33.3940 186.93 192.03 14.05
15473 33.3960 149.24 194.19 12.71
15474 33.3980 196.16 196.75 14.49
15475 33.4000 189.36 199.82 14.11
15476 33.4020 196.80 203.53 14.41
15477 33.4040 207.11 208.01 14.74
15478 33.4060 206.90 213.43 14.92
15479 33.4080 184.93 219.99 14.06
15480 33.4100 217.39 227.79 15.16
15481 33.4120 221.27 236.93 15.26
15482 33.4140 216.61 247.41 15.14
15483 33.4160 261.68 258.86 16.74
15484 33.4180 262.71 270.44 16.70
15485 33.4200 244.51 280.73 16.17
15486 33.4220 252.91 287.86 16.28
15487 33.4240 294.79 290.27 17.63
15488 33.4260 277.03 287.70 17.18
15489 33.4280 298.52 281.13 17.86
15490 33.4300 238.80 271.97 15.85
15491 33.4320 251.12 261.19 16.24
15492 33.4340 215.37 249.49 15.02
15493 33.4360 209.51 237.85 14.95
15494 33.4380 204.09 227.36 14.73
15495 33.4400 181.49 218.61 13.81
15496 33.4420 188.05 211.63 14.04
15497 33.4440 213.14 206.28 14.97
15498 33.4460 196.09 202.26 14.47
15499 33.4480 211.48 199.34 14.97
15500 33.4500 218.48 197.25 15.19
15501 33.4520 195.34 195.81 14.34
15502 33.4540 188.17 194.82 14.05
15503 33.4560 218.25 194.12 15.25
15504 33.4580 176.60 193.61 13.69
15505 33.4600 196.17 193.17 14.35
15506 33.4620 212.25 192.71 14.89
15507 33.4640 199.28 192.17 14.47
15508 33.4660 201.68 191.55 14.71
15509 33.4680 206.21 190.92 14.81
15510 33.4700 202.58 190.33 14.63
15511 33.4720 199.42 189.88 14.54
15512 33.4740 183.53 189.65 13.87
15513 33.4760 164.94 189.74 13.28
15514 33.4780 206.23 190.29 14.81
15515 33.4800 214.16 191.00 15.06
15516 33.4820 198.80 191.70 14.40
15517 33.4840 185.69 192.14 13.97
15518 33.4860 193.38 192.27 14.40
15519 33.4880 213.88 192.29 15.08
15520 33.4900 182.53 192.29 13.88
15521 33.4920 213.79 192.21 15.01
15522 33.4940 215.02 191.93 14.98
15523 33.4960 202.47 191.37 14.67
15524 33.4980 162.44 190.55 13.16
15525 33.5000 179.63 189.63 13.76
15526 33.5020 182.80 188.74 13.83
15527 33.5040 195.10 187.99 14.24
15528 33.5060 180.38 187.41 13.88
15529 33.5080 185.50 187.02 14.05
15530 33.5100 188.74 186.80 14.08
15531 33.5120 187.40 186.71 14.01
15532 33.5140 215.51 186.74 14.99
15533 33.5160 177.86 186.82 13.81
15534 33.5180 216.85 186.94 15.18
15535 33.5200 192.86 187.08 14.26
15536 33.5220 180.60 187.24 13.75
15537 33.5240 181.13 187.48 13.72
15538 33.5260 184.46 187.80 14.02
15539 33.5280 189.49 188.25 14.18
15540 33.5300 203.86 188.84 14.66
15541 33.5320 173.05 189.60 13.49
15542 33.5340 173.56 190.54 13.49
15543 33.5360 172.79 191.70 13.52
15544 33.5380 223.51 193.12 15.33
15545 33.5400 204.10 194.83 14.70
15546 33.5420 185.94 196.86 13.97
15547 33.5440 184.90 199.24 13.85
15548 33.5460 227.06 201.99 15.52
15549 33.5480 225.00 205.12 15.43
15550 33.5500 223.14 208.76 15.38
15551 33.5520 233.81 212.79 15.64
15552 33.5540 213.49 217.45 14.92
15553 33.5560 212.76 222.96 15.08
15554 33.5580 221.32 229.67 15.33
15555 33.5600 222.38 238.00 15.25
15556 33.5620 251.29 248.49 16.23
15557 33.5640 263.86 261.83 16.60
15558 33.5660 261.75 278.68 16.73
15559 33.5680 325.13 299.61 18.54
15560 33.5700 347.39 324.18 19.13
15561 33.5720 381.95 349.69 20.02
15562 33.5740 381.52 370.44 19.97
15563 33.5760 409.75 379.65 21.00
15564 33.5780 340.49 375.45 18.98
15565 33.5800 332.73 363.19 18.72
15566 33.5820 344.66 350.62 18.95
15567 33.5840 330.89 343.29 18.64
15568 33.5860 331.33 343.45 18.82
15569 33.5880 306.83 350.74 18.04
15570 33.5900 364.23 361.44 19.60
15571 33.5920 376.59 368.14 19.90
15572 33.5940 357.40 363.42 19.36
15573 33.5960 354.08 346.92 19.48
15574 33.5980 299.93 325.35 17.81
15575 33.6000 265.33 305.15 16.69
15576 33.6020 251.47 289.17 16.17
15577 33.6040 267.51 277.73 16.69
15578 33.6060 270.21 270.20 17.06
15579 33.6080 268.83 265.89 16.82
15580 33.6100 244.55 264.36 16.11
15581 33.6120 253.10 265.51 16.27
15582 33.6140 241.55 269.51 15.91
15583 33.6160 259.31 276.96 16.57
15584 33.6180 285.87 288.57 17.44
15585 33.6200 328.46 305.39 18.66
15586 33.6220 369.26 328.43 19.58
15587 33.6240 382.17 357.65 20.07
15588 33.6260 346.70 389.99 19.29
15589 33.6280 433.15 418.06 21.39
15590 33.6300 430.77 433.35 21.24
15591 33.6320 411.93 435.40 20.82
15592 33.6340 430.23 433.11 21.19
15593 33.6360 393.12 435.55 20.51
15594 33.6380 429.55 444.97 21.36
15595 33.6400 493.86 455.37 22.77
15596 33.6420 466.77 456.28 22.06
15597 33.6440 414.71 441.97 20.92
15598 33.6460 401.21 417.37 20.75
15599 33.6480 355.37 391.02 19.42
15600 33.6500 304.10 367.88 17.91
15601 33.6520 269.42 348.92 16.79
15602 33.6540 296.12 333.27 17.60
15603 33.6560 299.04 319.75 17.85
15604 33.6580 309.46 307.58 18.14
15605 33.6600 264.93 296.37 16.67
15606 33.6620 255.20 285.94 16.29
15607 33.6640 269.70 276.32 16.78
15608 33.6660 254.56 267.51 16.52
15609 33.6680 266.96 259.54 16.79
15610 33.6700 278.59 252.42 17.14
15611 33.6720 244.16 246.08 16.02
15612 33.6740 225.38 240.54 15.35
15613 33.6760 225.40 235.81 15.52
15614 33.6780 211.34 231.89 14.96
15615 33.6800 239.28 228.75 15.81
15616 33.6820 238.87 226.16 15.80
15617 33.6840 234.33 223.63 15.64
15618 33.6860 258.85 220.66 16.55
15619 33.6880 216.81 217.34 15.15
15620 33.6900 217.83 214.10 15.15
15621 33.6920 220.27 211.26 15.11
15622 33.6940 230.13 208.77 15.55
15623 33.6960 213.53 206.50 15.05
15624 33.6980 220.13 204.51 15.24
15625 33.7000 204.17 202.92 14.70
15626 33.7020 187.91 201.82 13.98
15627 33.7040 226.78 201.20 15.38
15628 33.7060 213.99 200.99 15.09
15629 33.7080 215.05 201.15 15.07
15630 33.7100 215.91 201.66 15.12
15631 33.7120 187.32 202.51 13.93
15632 33.7140 200.50 203.74 14.53
15633 33.7160 211.99 205.35 14.98
15634 33.7180 227.74 207.38 15.57
15635 33.7200 212.58 209.90 14.98
15636 33.7220 212.15 212.92 14.86
15637 33.7240 261.81 216.48 16.56
15638 33.7260 215.22 220.63 15.09
15639 33.7280 210.44 225.39 14.91
15640 33.7300 200.36 230.74 14.54
15641 33.7320 237.88 236.66 15.77
15642 33.7340 250.72 243.02 16.14
15643 33.7360 232.74 249.76 15.67
15644 33.7380 282.12 256.16 17.33
15645 33.7400 260.13 261.87 16.54
15646 33.7420 261.40 266.30 16.45
15647 33.7440 260.49 268.94 16.51
15648 33.7460 274.19 269.59 17.05
15649 33.7480 247.34 268.47 16.16
15650 33.7500 248.39 266.14 16.15
15651 33.7520 265.42 263.26 16.68
15652 33.7540 233.10 260.35 15.64
15653 33.7560 223.40 257.75 15.39
15654 33.7580 256.34 255.73 16.48
15655 33.7600 236.18 254.76 15.74
15656 33.7620 243.50 255.41 15.96
15657 33.7640 242.55 258.13 15.87
15658 33.7660 265.97 263.21 16.83
15659 33.7680 292.48 270.75 17.55
15660 33.7700 297.88 280.65 17.72
15661 33.7720 292.72 292.39 17.50
15662 33.7740 284.07 304.72 17.28
15663 33.7760 323.54 315.53 18.55
15664 33.7780 311.48 321.96 18.14
15665 33.7800 334.53 321.77 18.74
15666 33.7820 301.47 314.58 17.70
15667 33.7840 299.91 302.11 17.73
15668 33.7860 279.46 287.12 17.22
15669 33.7880 285.69 271.94 17.39
15670 33.7900 289.01 257.91 17.43
15671 33.7920 262.60 245.73 16.63
15672 33.7940 241.66 235.47 15.87
15673 33.7960 229.35 227.04 15.63
15674 33.7980 232.73 220.18 15.68
15675 33.8000 205.87 214.65 14.77
15676 33.8020 205.46 210.17 14.61
15677 33.8040 229.62 206.45 15.53
15678 33.8060 222.42 203.28 15.40
15679 33.8080 214.17 200.47 15.05
15680 33.8100 191.77 197.90 14.24
15681 33.8120 190.58 195.54 14.13
15682 33.8140 199.63 193.36 14.41
15683 33.8160 188.70 191.40 14.15
15684 33.8180 201.99 189.65 14.62
15685 33.8200 198.50 188.15 14.44
15686 33.8220 188.09 186.89 14.03
15687 33.8240 201.78 185.87 14.51
15688 33.8260 174.16 185.09 13.64
15689 33.8280 190.18 184.55 14.18
15690 33.8300 173.66 184.23 13.58
15691 33.8320 196.88 184.12 14.31
15692 33.8340 219.49 184.21 15.18
15693 33.8360 214.77 184.45 15.09
15694 33.8380 209.86 184.82 14.91
15695 33.8400 189.53 185.26 14.19
15696 33.8420 188.12 185.74 14.01
15697 33.8440 201.46 186.23 14.53
15698 33.8460 190.45 186.73 14.23
15699 33.8480 190.44 187.27 14.29
15700 33.8500 189.17 187.93 14.12
15701 33.8520 172.30 188.79 13.46
15702 33.8540 191.18 189.90 14.13
15703 33.8560 178.71 191.35 13.81
15704 33.8580 175.23 193.19 13.60
15705 33.8600 167.01 195.48 13.28
15706 33.8620 214.32 198.26 14.89
15707 33.8640 197.06 201.54 14.40
15708 33.8660 217.87 205.28 15.21
15709 33.8680 208.16 209.28 14.83
15710 33.8700 220.42 213.28 15.28
15711 33.8720 204.34 217.03 14.60
15712 33.8740 211.30 220.47 14.88
15713 33.8760 232.94 223.46 15.69
15714 33.8780 258.15 225.92 16.64
15715 33.8800 200.44 227.88 14.52
15716 33.8820 215.66 229.39 15.01
15717 33.8840 213.85 230.39 14.91
15718 33.8860 196.14 230.67 14.45
15719 33.8880 244.57 230.04 16.11
15720 33.8900 232.48 228.42 15.72
15721 33.8920 222.46 225.91 15.21
15722 33.8940 215.48 222.81 14.96
15723 33.8960 224.88 219.41 15.54
15724 33.8980 213.71 215.98 15.04
15725 33.9000 189.86 212.70 14.19
15726 33.9020 197.89 209.69 14.41
15727 33.9040 181.31 207.02 13.73
15728 33.9060 195.42 204.75 14.36
15729 33.9080 177.88 202.88 13.79
15730 33.9100 207.19 201.43 14.75
15731 33.9120 208.93 200.42 14.77
15732 33.9140 187.16 199.86 14.00
15733 33.9160 171.91 199.72 13.47
15734 33.9180 159.85 200.04 13.00
15735 33.9200 191.75 200.82 14.24
15736 33.9220 172.26 202.11 13.34
15737 33.9240 209.01 203.94 14.77
15738 33.9260 192.43 206.40 14.33
15739 33.9280 233.62 209.64 15.72
15740 33.9300 195.68 213.86 14.40
15741 33.9320 207.01 219.38 14.72
15742 33.9340 209.76 226.64 14.75
15743 33.9360 200.42 236.26 14.55
15744 33.9380 243.90 249.01 16.10
15745 33.9400 276.38 265.65 17.05
15746 33.9420 295.41 286.52 17.55
15747 33.9440 292.97 310.00 17.53
15748 33.9460 360.41 330.70 19.57
15749 33.9480 322.48 340.07 18.47
15750 33.9500 294.51 332.71 17.61
15751 33.9520 277.05 312.62 17.07
15752 33.9540 251.27 288.50 16.12
15753 33.9560 222.03 266.44 15.32
15754 33.9580 256.05 248.67 16.40
15755 33.9600 187.91 235.00 14.06
15756 33.9620 201.02 224.63 14.50
15757 33.9640 201.19 216.77 14.49
15758 33.9660 188.66 210.75 14.11
15759 33.9680 227.66 206.07 15.53
15760 33.9700 200.37 202.40 14.55
15761 33.9720 193.68 199.46 14.22
15762 33.9740 194.72 197.04 14.26
15763 33.9760 200.11 194.98 14.54
15764 33.9780 187.86 193.16 14.11
15765 33.9800 168.28 191.49 13.32
15766 33.9820 166.47 189.92 13.21
15767 33.9840 196.83 188.36 14.34
15768 33.9860 183.16 186.88 13.98
15769 33.9880 178.09 185.45 13.65
15770 33.9900 192.28 184.01 14.29
15771 33.9920 212.96 182.69 14.91
15772 33.9940 199.81 181.45 14.46
15773 33.9960 168.40 180.31 13.37
15774 33.9980 167.28 179.26 13.27
15775 34.0000 186.87 178.35 14.09
15776 34.0020 175.39 177.58 13.52
15777 34.0040 175.45 176.95 13.53
15778 34.0060 152.55 176.50 12.74
15779 34.0080 155.44 176.12 12.81
15780 34.0100 174.67 175.99 13.63
15781 34.0120 187.59 176.07 14.01
15782 34.0140 152.45 176.30 12.61
15783 34.0160 172.58 176.70 13.64
15784 34.0180 184.20 177.26 13.92
15785 34.0200 188.50 177.97 14.10
15786 34.0220 186.97 178.77 13.99
15787 34.0240 173.07 179.62 13.48
15788 34.0260 182.05 180.41 13.98
15789 34.0280 185.02 181.23 14.41
15790 34.0300 188.58 181.96 14.78
15791 34.0320 212.36 182.50 15.64
15792 34.0340 172.85 182.79 14.13
15793 34.0360 179.13 182.75 14.51
15794 34.0380 178.09 182.32 14.36
15795 34.0400 186.02 181.71 14.67
15796 34.0420 152.35 180.92 13.24
15797 34.0440 205.50 180.04 15.47
15798 34.0460 161.04 179.16 13.75
15799 34.0480 182.31 178.33 14.53
15800 34.0500 183.02 177.61 14.64
15801 34.0520 167.69 177.00 13.95
15802 34.0540 195.16 176.59 14.96
15803 34.0560 170.39 176.37 14.14
15804 34.0580 185.84 176.35 14.75
15805 34.0600 168.84 176.53 13.94
15806 34.0620 175.33 176.89 14.24
15807 34.0640 162.36 177.41 13.68
15808 34.0660 158.03 178.01 13.67
15809 34.0680 202.48 178.63 15.30
15810 34.0700 169.40 179.15 14.06
15811 34.0720 173.69 179.48 14.19
15812 34.0740 186.61 179.57 14.72
15813 34.0760 192.39 179.44 15.00
15814 34.0780 170.42 179.13 14.07
15815 34.0800 186.52 178.71 14.70
15816 34.0820 164.94 178.23 13.80
15817 34.0840 204.63 177.73 15.34
15818 34.0860 187.88 177.24 14.85
15819 34.0880 184.55 176.75 14.58
15820 34.0900 183.97 176.28 14.60
15821 34.0920 181.36 175.84 14.44
15822 34.0940 157.46 175.43 13.50
15823 34.0960 182.07 175.04 14.48
15824 34.0980 184.09 174.65 14.63
15825 34.1000 163.59 174.26 13.75
15826 34.1020 180.74 173.87 14.41
15827 34.1040 189.43 173.49 14.74
15828 34.1060 168.61 173.14 13.97
15829 34.1080 161.17 172.86 13.68
15830 34.1100 173.12 172.68 14.07
15831 34.1120 185.04 172.63 14.59
15832 34.1140 190.91 172.74 14.80
15833 34.1160 176.65 173.04 14.26
15834 34.1180 180.55 173.55 14.50
15835 34.1200 189.92 174.30 14.77
15836 34.1220 176.03 175.35 14.20
15837 34.1240 175.21 176.74 14.17
15838 34.1260 179.59 178.54 14.43
15839 34.1280 183.52 180.80 14.49
15840 34.1300 199.63 183.62 15.14
15841 34.1320 197.12 187.05 15.06
15842 34.1340 221.89 191.13 15.95
15843 34.1360 222.90 195.85 16.04
15844 34.1380 217.46 201.20 15.83
15845 34.1400 204.43 207.30 15.34
15846 34.1420 246.48 214.35 16.81
15847 34.1440 194.02 222.59 14.91
15848 34.1460 222.16 232.14 16.06
15849 34.1480 255.23 242.94 17.13
15850 34.1500 253.80 254.77 17.05
15851 34.1520 278.80 267.18 17.87
15852 34.1540 303.22 279.32 18.70
15853 34.1560 281.09 290.23 18.06
15854 34.1580 320.64 298.75 19.16
15855 34.1600 291.04 303.55 18.26
15856 34.1620 306.43 303.48 18.80
15857 34.1640 297.92 298.05 18.46
15858 34.1660 267.05 287.94 17.68
15859 34.1680 243.45 274.85 16.76
15860 34.1700 221.72 260.73 15.88
15861 34.1720 228.29 246.98 16.21
15862 34.1740 205.61 234.41 15.39
15863 34.1760 200.13 223.32 15.27
15864 34.1780 195.14 213.71 14.93
15865 34.1800 193.02 205.45 14.90
15866 34.1820 184.88 198.49 14.67
15867 34.1840 175.46 192.66 14.19
15868 34.1860 157.16 187.78 13.52
15869 34.1880 167.54 183.74 13.95
15870 34.1900 166.25 180.36 13.84
15871 34.1920 192.52 177.54 14.92
15872 34.1940 194.14 175.16 15.00
15873 34.1960 160.40 173.12 13.65
15874 34.1980 176.48 171.37 14.26
15875 34.2000 187.57 169.86 14.73
15876 34.2020 168.95 168.56 14.01
15877 34.2040 167.26 167.41 13.85
15878 34.2060 177.75 166.40 14.44
15879 34.2080 179.90 165.52 14.41
15880 34.2100 176.54 164.75 14.27
15881 34.2120 169.06 164.08 13.95
15882 34.2140 178.54 163.50 14.36
15883 34.2160 160.89 162.99 13.74
15884 34.2180 165.65 162.58 13.79
15885 34.2200 174.12 162.25 14.18
15886 34.2220 200.23 161.99 15.16
15887 34.2240 177.39 161.81 14.31
15888 34.2260 155.71 161.71 13.52
15889 34.2280 162.67 161.70 13.73
15890 34.2300 165.87 161.77 13.86
15891 34.2320 169.30 161.94 14.03
15892 34.2340 173.40 162.22 14.13
15893 34.2360 154.50 162.63 13.45
15894 34.2380 181.18 163.18 14.49
15895 34.2400 163.65 163.88 13.73
15896 34.2420 188.09 164.75 14.70
15897 34.2440 179.22 165.82 14.38
15898 34.2460 182.31 167.09 14.65
15899 34.2480 185.88 168.60 14.71
15900 34.2500 166.87 170.34 13.95
15901 34.2520 173.27 172.35 14.12
15902 34.2540 155.96 174.60 13.46
15903 34.2560 156.27 177.09 13.57
15904 34.2580 194.13 179.76 15.01
15905 34.2600 175.86 182.53 14.26
15906 34.2620 185.93 185.34 14.66
15907 34.2640 183.26 188.10 14.58
15908 34.2660 185.11 190.80 14.73
15909 34.2680 189.37 193.39 14.79
15910 34.2700 201.01 195.86 15.25
15911 34.2720 224.29 198.18 16.11
15912 34.2740 213.33 200.25 15.70
15913 34.2760 187.10 201.97 14.80
15914 34.2780 192.48 203.21 14.98
15915 34.2800 223.64 203.86 16.08
15916 34.2820 181.26 203.89 14.45
15917 34.2840 210.19 203.30 15.59
15918 34.2860 214.21 202.18 15.83
15919 34.2880 179.32 200.65 14.34
15920 34.2900 209.72 198.83 15.57
15921 34.2920 184.43 196.87 14.60
15922 34.2940 194.32 194.89 14.96
15923 34.2960 194.92 192.98 15.04
15924 34.2980 151.96 191.25 13.24
15925 34.3000 197.38 189.84 15.12
15926 34.3020 204.03 188.93 15.32
15927 34.3040 160.57 188.70 13.62
15928 34.3060 181.14 189.30 14.51
15929 34.3080 185.74 190.77 14.67
15930 34.3100 179.27 192.84 14.38
15931 34.3120 201.97 194.71 15.29
15932 34.3140 210.77 195.35 15.55
15933 34.3160 168.00 194.25 14.02
15934 34.3180 192.00 191.62 14.84
15935 34.3200 200.76 188.08 15.24
15936 34.3220 212.21 184.21 15.66
15937 34.3240 184.86 180.65 14.59
15938 34.3260 173.50 177.75 14.25
15939 34.3280 162.61 175.46 13.73
15940 34.3300 169.91 173.77 14.02
15941 34.3320 157.49 172.48 13.49
15942 34.3340 203.90 171.46 15.36
15943 34.3360 145.66 170.60 13.00
15944 34.3380 161.79 169.81 13.70
15945 34.3400 167.90 169.00 13.94
15946 34.3420 173.26 168.14 14.11
15947 34.3440 181.83 167.20 14.41
15948 34.3460 163.03 166.20 13.76
15949 34.3480 157.57 165.19 13.49
15950 34.3500 153.15 164.16 13.29
15951 34.3520 162.54 163.29 13.66
15952 34.3540 157.58 162.52 13.46
15953 34.3560 174.44 161.88 14.23
15954 34.3580 155.42 161.34 13.42
15955 34.3600 155.11 161.03 13.35
15956 34.3620 163.85 160.67 13.69
15957 34.3640 137.79 160.37 12.57
15958 34.3660 159.76 160.14 13.61
15959 34.3680 141.39 159.96 12.79
15960 34.3700 144.24 159.84 12.84
15961 34.3720 175.71 159.77 14.22
15962 34.3740 169.24 159.76 13.90
15963 34.3760 179.01 159.83 14.42
15964 34.3780 173.22 159.99 14.16
15965 34.3800 157.76 160.25 13.41
15966 34.3820 168.20 160.62 13.84
15967 34.3840 156.65 161.08 13.35
15968 34.3860 169.11 161.60 13.91
15969 34.3880 168.71 162.14 13.95
15970 34.3900 163.42 162.66 13.71
15971 34.3920 169.61 163.12 13.90
15972 34.3940 164.62 163.54 13.74
15973 34.3960 176.48 163.99 14.31
15974 34.3980 159.77 164.57 13.59
15975 34.4000 153.54 165.39 13.27
15976 34.4020 175.73 166.54 14.21
15977 34.4040 169.14 168.08 13.91
15978 34.4060 172.05 169.90 14.07
15979 34.4080 181.30 171.65 14.46
15980 34.4100 156.33 172.66 13.38
15981 34.4120 160.61 172.34 13.58
15982 34.4140 172.15 170.76 14.00
15983 34.4160 171.44 168.56 14.08
15984 34.4180 172.42 166.36 14.10
15985 34.4200 173.67 164.45 14.03
15986 34.4220 173.64 162.91 14.05
15987 34.4240 167.69 161.74 13.88
15988 34.4260 152.83 160.90 13.25
15989 34.4280 177.99 160.36 14.29
15990 34.4300 170.58 160.07 13.93
15991 34.4320 164.39 160.01 13.74
15992 34.4340 166.85 160.18 13.77
15993 34.4360 148.60 160.57 13.16
15994 34.4380 164.39 161.17 13.80
15995 34.4400 164.85 162.00 13.71
15996 34.4420 163.08 163.06 13.64
15997 34.4440 184.46 164.37 14.52
15998 34.4460 176.98 165.95 14.30
15999 34.4480 167.78 167.77 13.90
16000 34.4500 180.23 169.74 14.31
16001 34.4520 186.06 171.69 14.59
16002 34.4540 162.26 173.18 13.56
16003 34.4560 155.20 174.04 13.39
16004 34.4580 188.24 174.13 14.76
16005 34.4600 170.91 173.61 13.92
16006 34.4620 169.67 172.75 13.95
16007 34.4640 157.96 171.79 13.43
16008 34.4660 151.58 170.88 13.24
16009 34.4680 183.65 170.08 14.61
16010 34.4700 174.08 169.39 14.11
16011 34.4720 183.07 168.77 14.49
16012 34.4740 159.98 168.20 13.52
16013 34.4760 149.96 167.63 13.17
16014 34.4780 175.60 167.03 14.21
16015 34.4800 161.14 166.38 13.58
16016 34.4820 186.89 165.67 14.64
16017 34.4840 145.43 164.86 12.85
16018 34.4860 174.52 163.96 14.22
16019 34.4880 169.16 162.97 13.95
16020 34.4900 182.74 161.97 14.44
16021 34.4920 168.09 161.00 13.92
16022 34.4940 173.84 160.13 14.12
16023 34.4960 179.73 159.43 14.48
16024 34.4980 152.38 158.95 13.25
16025 34.5000 181.07 158.75 14.43
16026 34.5020 154.12 158.88 13.32
16027 34.5040 169.98 159.32 13.94
16028 34.5060 154.69 159.94 13.38
16029 34.5080 161.04 160.40 13.63
16030 34.5100 148.89 160.25 13.09
16031 34.5120 138.59 159.33 12.65
16032 34.5140 152.84 157.97 13.29
16033 34.5160 152.81 156.61 13.48
16034 34.5180 170.55 155.52 13.98
16035 34.5200 172.77 154.80 14.15
16036 34.5220 151.18 154.44 13.21
16037 34.5240 131.43 154.41 12.40
16038 34.5260 157.19 154.65 13.60
16039 34.5280 150.53 155.06 13.21
16040 34.5300 152.33 155.43 13.30
16041 34.5320 169.60 155.42 13.98
16042 34.5340 167.33 154.86 13.93
16043 34.5360 151.93 153.89 13.38
16044 34.5380 134.39 152.83 12.54
16045 34.5400 158.40 151.88 13.50
16046 34.5420 169.37 151.14 13.95
16047 34.5440 183.02 150.59 14.64
16048 34.5460 162.67 150.22 13.85
16049 34.5480 160.58 150.01 13.66
16050 34.5500 152.75 149.95 13.38
16051 34.5520 147.19 150.04 13.07
16052 34.5540 151.31 150.29 13.31
16053 34.5560 150.40 150.75 13.40
16054 34.5580 170.16 151.46 14.11
16055 34.5600 146.53 152.49 13.02
16056 34.5620 161.61 153.87 13.73
16057 34.5640 168.65 155.57 14.06
16058 34.5660 175.01 157.35 14.38
16059 34.5680 176.05 158.67 14.37
16060 34.5700 148.92 159.02 13.14
16061 34.5720 163.52 158.39 13.81
16062 34.5740 168.05 157.33 13.99
16063 34.5760 137.25 156.41 12.78
16064 34.5780 135.62 155.86 12.61
16065 34.5800 173.02 155.65 14.25
16066 34.5820 166.93 155.61 13.93
16067 34.5840 156.99 155.62 13.53
16068 34.5860 150.54 155.77 13.32
16069 34.5880 163.36 156.18 13.86
16070 34.5900 164.22 156.91 13.85
16071 34.5920 180.88 157.96 14.49
16072 34.5940 155.97 159.27 13.50
16073 34.5960 170.12 160.72 14.21
16074 34.5980 172.29 162.09 14.21
16075 34.6000 148.59 163.10 13.09
16076 34.6020 198.30 163.41 15.09
16077 34.6040 185.68 162.85 14.70
16078 34.6060 173.86 161.49 14.32
16079 34.6080 176.59 159.64 14.32
16080 34.6100 171.36 157.64 14.12
16081 34.6120 159.65 155.69 13.58
16082 34.6140 171.22 153.93 14.09
16083 34.6160 144.71 152.36 13.10
16084 34.6180 160.12 151.02 13.63
16085 34.6200 194.40 149.91 15.03
16086 34.6220 162.37 149.00 13.68
16087 34.6240 147.08 148.28 13.07
16088 34.6260 152.68 147.74 13.35
16089 34.6280 142.32 147.35 12.84
16090 34.6300 126.48 147.11 12.11
16091 34.6320 170.71 146.98 14.06
16092 34.6340 145.35 146.94 12.93
16093 34.6360 144.07 146.97 13.03
16094 34.6380 162.00 147.04 13.68
16095 34.6400 158.52 147.14 13.52
16096 34.6420 150.29 147.24 13.12
16097 34.6440 184.49 147.34 14.61
16098 34.6460 142.08 147.41 12.84
16099 34.6480 147.51 147.47 13.06
16100 34.6500 166.80 147.52 13.90
16101 34.6520 155.32 147.58 13.36
16102 34.6540 139.64 147.63 12.73
16103 34.6560 144.92 147.68 12.98
16104 34.6580 151.52 147.73 13.28
16105 34.6600 155.45 147.77 13.36
16106 34.6620 129.85 147.81 12.24
16107 34.6640 147.28 147.83 13.05
16108 34.6660 143.83 147.83 12.90
16109 34.6680 139.42 147.81 12.75
16110 34.6700 163.58 147.79 13.69
16111 34.6720 146.64 147.76 13.00
16112 34.6740 167.32 147.73 13.92
16113 34.6760 147.54 147.73 13.14
16114 34.6780 173.35 147.76 14.12
16115 34.6800 164.08 147.83 13.76
16116 34.6820 160.29 147.97 13.59
16117 34.6840 152.94 148.19 13.27
16118 34.6860 134.28 148.50 12.51
16119 34.6880 170.74 148.89 14.12
16120 34.6900 156.18 149.36 13.39
16121 34.6920 157.07 149.85 13.47
16122 34.6940 182.85 150.30 14.57
16123 34.6960 149.88 150.68 13.22
16124 34.6980 164.92 150.98 13.80
16125 34.7000 159.85 151.26 13.61
16126 34.7020 155.02 151.62 13.35
16127 34.7040 148.95 152.14 13.10
16128 34.7060 158.76 152.91 13.64
16129 34.7080 165.46 154.00 13.86
16130 34.7100 178.04 155.35 14.29
16131 34.7120 161.61 157.02 13.68
16132 34.7140 165.61 159.01 13.83
16133 34.7160 170.28 161.30 14.04
16134 34.7180 181.84 163.86 14.55
16135 34.7200 185.16 166.59 14.60
16136 34.7220 179.47 169.41 14.35
16137 34.7240 194.29 172.16 14.96
16138 34.7260 174.32 174.59 14.26
16139 34.7280 174.37 176.33 14.17
16140 34.7300 173.05 177.18 14.18
16141 34.7320 185.23 177.27 14.64
16142 34.7340 184.50 177.12 14.57
16143 34.7360 181.29 177.11 14.52
16144 34.7380 173.76 177.49 14.20
16145 34.7400 180.57 178.37 14.42
16146 34.7420 191.52 179.81 14.85
16147 34.7440 189.20 181.89 14.76
16148 34.7460 195.34 184.71 15.04
16149 34.7480 184.68 188.42 14.61
16150 34.7500 220.79 193.20 15.98
16151 34.7520 200.00 199.30 15.19
16152 34.7540 225.16 207.04 16.11
16153 34.7560 227.88 216.90 16.40
16154 34.7580 231.24 229.46 16.40
16155 34.7600 247.33 245.47 16.90
16156 34.7620 261.50 265.87 17.35
16157 34.7640 302.36 290.93 18.64
16158 34.7660 318.39 319.66 19.24
16159 34.7680 378.29 347.93 20.94
16160 34.7700 347.70 368.12 20.05
16161 34.7720 328.85 373.35 19.51
16162 34.7740 319.49 363.06 19.26
16163 34.7760 329.56 342.37 19.66
16164 34.7780 263.15 317.39 17.47
16165 34.7800 246.44 292.46 16.86
16166 34.7820 229.32 270.18 16.25
16167 34.7840 240.67 251.44 16.70
16168 34.7860 223.86 236.47 16.11
16169 34.7880 218.88 224.81 15.89
16170 34.7900 214.88 215.82 15.82
16171 34.7920 204.17 208.66 15.38
16172 34.7940 183.07 202.33 14.54
16173 34.7960 181.54 196.11 14.54
16174 34.7980 183.33 190.04 14.59
16175 34.8000 175.57 184.49 14.25
16176 34.8020 186.14 179.74 14.65
16177 34.8040 170.47 175.87 14.03
16178 34.8060 161.58 172.73 13.68
16179 34.8080 165.46 170.14 13.85
16180 34.8100 185.96 167.87 14.62
16181 34.8120 154.29 165.84 13.35
16182 34.8140 162.30 164.05 13.67
16183 34.8160 165.67 162.55 13.85
16184 34.8180 176.16 161.32 14.32
16185 34.8200 174.19 160.30 14.18
16186 34.8220 182.47 159.44 14.51
16187 34.8240 185.86 158.67 14.63
16188 34.8260 165.61 158.01 13.86
16189 34.8280 161.38 157.47 13.71
16190 34.8300 177.00 157.11 14.25
16191 34.8320 166.72 156.95 13.83
16192 34.8340 181.43 157.06 14.50
16193 34.8360 165.03 157.46 13.82
16194 34.8380 166.45 158.21 13.91
16195 34.8400 180.40 159.35 14.39
16196 34.8420 187.15 160.98 14.69
16197 34.8440 194.55 163.22 14.95
16198 34.8460 191.66 166.24 14.89
16199 34.8480 181.05 170.29 14.52
16200 34.8500 182.85 175.68 14.49
16201 34.8520 199.91 182.87 15.26
16202 34.8540 211.87 192.39 15.63
16203 34.8560 218.12 204.73 15.92
16204 34.8580 235.35 219.96 16.47
16205 34.8600 257.68 236.80 17.24
16206 34.8620 289.16 251.27 18.28
16207 34.8640 266.85 257.68 17.45
16208 34.8660 251.35 252.75 17.01
16209 34.8680 237.57 239.32 16.61
16210 34.8700 221.71 223.15 15.94
16211 34.8720 170.44 208.35 14.02
16212 34.8740 179.29 196.46 14.38
16213 34.8760 172.60 187.56 14.12
16214 34.8780 158.86 181.12 13.58
16215 34.8800 169.73 176.62 13.98
16216 34.8820 183.97 173.55 14.58
16217 34.8840 152.66 171.45 13.20
16218 34.8860 169.13 169.83 13.99
16219 34.8880 162.97 168.24 13.71
16220 34.8900 137.43 166.40 12.57
16221 34.8920 147.88 164.30 13.06
16222 34.8940 168.17 162.11 13.90
16223 34.8960 154.85 160.00 13.39
16224 34.8980 130.37 158.06 12.23
16225 34.9000 142.00 156.32 12.79
16226 34.9020 141.71 154.79 12.77
16227 34.9040 175.46 153.46 14.22
16228 34.9060 162.14 152.29 13.70
16229 34.9080 138.00 151.28 12.63
16230 34.9100 153.40 150.41 13.29
16231 34.9120 135.36 149.66 12.53
16232 34.9140 155.31 149.01 13.32
16233 34.9160 150.06 148.46 13.26
16234 34.9180 142.02 147.98 12.79
16235 34.9200 162.27 147.58 13.64
16236 34.9220 168.48 147.24 13.91
16237 34.9240 146.06 146.95 12.91
16238 34.9260 128.56 146.72 12.26
16239 34.9280 139.12 146.53 12.69
16240 34.9300 152.41 146.39 13.30
16241 34.9320 161.11 146.27 13.68
16242 34.9340 146.61 146.19 13.01
16243 34.9360 156.55 146.13 13.58
16244 34.9380 181.44 146.10 14.53
16245 34.9400 158.08 146.10 13.55
16246 34.9420 145.33 146.11 12.97
16247 34.9440 157.59 146.15 13.45
16248 34.9460 159.47 146.21 13.65
16249 34.9480 165.98 146.28 13.91
16250 34.9500 148.81 146.37 13.11
16251 34.9520 167.53 146.48 13.96
16252 34.9540 157.65 146.63 13.51
16253 34.9560 148.02 146.77 13.15
16254 34.9580 146.48 146.92 13.05
16255 34.9600 135.40 147.09 12.53
16256 34.9620 147.21 147.28 13.00
16257 34.9640 172.28 147.49 14.02
16258 34.9660 149.63 147.72 13.26
16259 34.9680 156.59 147.97 13.52
16260 34.9700 152.92 148.24 13.31
16261 34.9720 140.29 148.54 12.76
16262 34.9740 151.99 148.87 13.23
16263 34.9760 155.80 149.23 13.46
16264 34.9780 165.39 149.63 13.90
16265 34.9800 151.75 150.08 13.25
16266 34.9820 168.02 150.58 13.89
16267 34.9840 153.36 151.14 13.21
16268 34.9860 145.56 151.77 13.05
16269 34.9880 139.79 152.49 12.76
16270 34.9900 171.92 153.30 14.10
16271 34.9920 155.27 154.20 13.43
16272 34.9940 154.39 155.19 13.35
16273 34.9960 172.42 156.24 14.14
16274 34.9980 171.41 157.35 14.17
16275 35.0000 141.52 158.43 12.76
16276 35.0020 170.59 159.43 14.01
16277 35.0040 167.44 160.24 13.87
16278 35.0060 154.93 160.84 13.45
16279 35.0080 155.00 161.25 13.42
16280 35.0100 161.11 161.58 13.66
16281 35.0120 169.47 161.93 14.02
16282 35.0140 152.15 162.40 13.27
16283 35.0160 189.73 163.03 14.85
16284 35.0180 164.22 163.88 13.86
16285 35.0200 163.85 164.98 13.70
16286 35.0220 147.70 166.35 13.05
16287 35.0240 167.78 167.81 13.84
16288 35.0260 140.67 169.06 12.79
16289 35.0280 159.33 169.67 13.52
16290 35.0300 173.49 169.45 14.24
16291 35.0320 177.17 168.67 14.26
16292 35.0340 153.10 167.75 13.27
16293 35.0360 156.01 166.99 13.47
16294 35.0380 179.66 166.46 14.48
16295 35.0400 131.71 166.17 12.32
16296 35.0420 171.33 166.10 14.05
16297 35.0440 169.66 166.21 13.94
16298 35.0460 164.11 166.52 13.79
16299 35.0480 150.19 167.01 13.22
16300 35.0500 155.39 167.69 13.38
16301 35.0520 166.37 168.55 13.92
16302 35.0540 151.09 169.63 13.14
16303 35.0560 184.31 170.93 14.66
16304 35.0580 176.02 172.45 14.31
16305 35.0600 182.69 174.17 14.48
16306 35.0620 161.84 175.94 13.59
16307 35.0640 154.27 177.43 13.26
16308 35.0660 163.05 178.20 13.78
16309 35.0680 152.78 178.05 13.31
16310 35.0700 168.54 177.23 13.94
16311 35.0720 156.38 176.14 13.41
16312 35.0740 153.89 175.06 13.27
16313 35.0760 170.06 174.12 14.12
16314 35.0780 147.76 173.33 13.13
16315 35.0800 174.15 172.69 14.16
16316 35.0820 172.84 172.16 14.12
16317 35.0840 159.41 171.73 13.51
16318 35.0860 161.58 171.38 13.74
16319 35.0880 163.67 171.10 13.80
16320 35.0900 190.41 170.90 14.76
16321 35.0920 166.72 170.78 13.86
16322 35.0940 154.92 170.74 13.34
16323 35.0960 147.81 170.80 13.13
16324 35.0980 168.75 170.95 14.03
16325 35.1000 136.46 171.20 12.55
loop_
_pd_proc_info_excluded_regions
'from 1.001 to 2.326'
'from 4.251 to 4.278'
'from 4.361 to 4.388'
'from 4.521 to 4.545'
'from 5.988 to 6.015'
'from 8.24 to 8.260'
'from 35.108 to 40.040'
loop_
_refln_index_h
_refln_index_k
_refln_index_l
_refln_index_m_1
_refln_F_squared_calc
_refln_F_squared_meas
_refln_observed_status
_refln_d_spacing
0 1 1 -1 714.98 667.95 o 6.932020
0 0 2 0 234.41 250.50 o 5.731595
0 0 0 1 3538.92 3738.58 o 5.458788
1 0 1 -1 929.37 914.04 o 5.302964
1 1 2 -1 1513.10 1393.69 o 5.032268
0 1 1 0 13262.48 13197.02 o 4.784695
1 0 1 0 11432.70 11146.93 o 4.763950
0 0 2 1 9.76 9.31 o 3.952873
0 2 0 -1 1653.77 1724.14 o 3.922823
1 2 1 -1 2970.35 2837.97 o 3.782389
0 1 3 -1 963.59 1020.94 o 3.498750
2 1 1 -1 2517.11 2531.20 o 3.421716
2 0 0 -1 1152.93 1072.06 o 3.240248
0 2 2 -1 3.11 2.84 o 3.237217
1 0 3 -1 501.21 473.13 o 3.220104
1 -1 2 0 143573.48 143413.53 o 3.138727
1 1 2 0 139510.64 137196.42 o 3.094624
0 1 3 0 9198.84 8982.65 o 3.092531
1 0 3 0 13942.82 13154.27 o 3.086909
1 0 1 1 23.18 19.74 o 2.890584
1 -1 2 1 2438.87 2310.97 o 2.878407
0 0 4 0 101221.69 99568.57 o 2.865798
2 0 2 -1 46.48 34.07 o 2.820703
1 2 3 -1 2372.05 1935.94 o 2.765228
1 1 4 -1 55.82 46.81 o 2.764905
2 2 0 -1 30.70 23.55 o 2.747237
0 1 1 1 1.44 1.05 o 2.735171
0 2 0 0 90181.71 88512.38 o 2.632643
2 0 0 0 86923.14 88666.24 o 2.618840
2 1 3 -1 1956.21 1953.80 o 2.614513
1 -2 1 1 584.91 589.72 o 2.597686
1 -1 2 -1 1525.94 1622.72 o 2.586878
0 0 4 1 1918.40 1707.51 o 2.537384
2 2 2 -1 10.86 7.05 o 2.477360
0 2 2 0 108.41 153.30 o 2.392347
2 0 2 0 1010.25 1075.90 o 2.381975
1 0 3 1 269.42 282.93 o 2.353348
1 -2 1 0 12284.19 13039.47 o 2.322246
2 -1 1 0 2464.80 2584.54 o 2.315117
0 2 4 -1 820.21 887.40 o 2.314067
1 2 1 0 1489.75 1340.30 o 2.286592
2 1 1 0 12208.18 12006.14 o 2.279786
2 -1 1 -1 229.67 222.67 o 2.279557
1 -1 4 0 914.16 967.22 o 2.277277
0 1 3 1 42.23 44.38 o 2.267173
1 1 4 0 5861.27 6315.95 o 2.260263
0 3 1 -1 1443.37 1541.87 o 2.255790
0 1 5 -1 147.30 132.70 o 2.217016
1 -2 3 1 689.87 260.40 o 2.187010
1 -1 4 1 62.94 27.05 o 2.171771
2 0 4 -1 756.15 686.30 o 2.146662
1 3 2 -1 392.94 372.02 o 2.141223
1 0 5 -1 883.44 827.66 o 2.140774
0 1 5 0 6142.37 5700.15 o 2.102015
1 0 5 0 1936.46 1760.11 o 2.100247
1 1 2 1 3546.78 2654.87 o 2.056423
1 -1 4 -1 78.60 34.42 o 2.038041
3 0 1 -1 1579.51 1383.24 o 2.028373
1 -2 3 0 2993.77 3156.85 o 2.014917
2 -1 3 0 6927.17 7199.60 o 2.010255
2 -1 1 1 9.23 9.56 o 2.008750
3 1 2 -1 219.46 198.88 o 2.000411
1 2 3 0 10469.71 9857.91 o 1.991495
1 2 5 -1 1709.95 1564.46 o 1.989916
2 1 3 0 898.36 720.50 o 1.986993
2 -1 3 -1 999.00 908.73 o 1.986842
2 2 4 -1 661.88 524.71 o 1.983180
0 3 3 -1 2644.99 3328.77 o 1.971046
2 0 0 1 3435.32 4005.26 o 1.948133
0 2 4 0 115568.59 111930.42 o 1.938755
2 3 1 -1 5110.21 5010.82 o 1.935477
2 0 4 0 117560.06 116270.60 o 1.933222
2 1 5 -1 1756.66 1718.21 o 1.931479
0 0 6 0 1076.74 1335.34 o 1.910532
1 1 6 -1 813.26 730.06 o 1.879742
3 2 1 -1 4897.89 5063.59 o 1.879046
2 -2 0 0 118239.86 125618.80 o 1.875596
2 -2 0 1 2160.47 2778.15 o 1.859887
1 -2 1 -1 83.31 102.36 o 1.857632
0 2 0 1 3019.04 3679.04 o 1.854713
1 -3 2 1 1397.29 1698.42 o 1.845878
2 0 2 1 148.96 176.24 o 1.844499
2 2 0 0 103874.88 101286.51 o 1.838287
1 0 5 1 108.13 83.85 o 1.818712
3 0 3 -1 1423.31 1452.39 o 1.813884
0 0 6 1 478.35 321.85 o 1.803276
2 -1 3 1 0.65 0.17 o 1.799810
1 3 4 -1 45.03 39.44 o 1.797703
2 -2 2 0 52.50 9.69 o 1.782579
0 1 5 1 45.44 0.00 o 1.778046
2 -2 2 1 93.12 16.05 o 1.769077
0 2 2 1 3.71 0.62 o 1.764623
2 2 2 0 363.80 249.60 o 1.750458
1 1 4 1 83.03 71.31 o 1.746634
2 3 3 -1 4560.52 3909.55 o 1.746537
1 -2 5 1 1005.71 1135.38 o 1.738580
0 3 1 0 4297.04 3854.30 o 1.734879
3 0 1 0 3065.20 2996.16 o 1.725989
0 2 6 -1 99.41 44.68 o 1.717650
3 1 4 -1 51.84 59.75 o 1.711922
3 2 3 -1 3931.82 3898.03 o 1.704734
1 -1 6 0 89493.04 89786.55 o 1.702442
2 -2 0 -1 1422.58 1395.60 o 1.698678
1 1 6 0 85796.11 84707.57 o 1.695299
1 -2 3 -1 85.49 81.31 o 1.688696
3 -1 2 -1 836.32 862.93 o 1.680698
1 -1 6 1 1817.12 1258.64 o 1.656985
2 1 1 1 1014.86 956.30 o 1.651791
1 -2 5 0 4030.84 4072.39 o 1.648287
2 0 6 -1 4.11 4.30 o 1.645752
2 -1 5 0 11514.07 12067.22 o 1.645732
1 2 5 0 5349.52 5435.17 o 1.635391
2 1 5 0 9002.71 8939.65 o 1.632895
2 -1 5 -1 130.19 130.77 o 1.632811
2 -2 2 -1 121.04 121.10 o 1.628656
0 3 5 -1 2114.99 2356.95 o 1.624010
1 2 1 1 203.80 239.75 o 1.622774
1 -3 4 1 79.01 76.79 o 1.612041
0 4 0 -1 385.85 400.52 o 1.611699
2 0 4 1 3223.98 3029.75 o 1.611122
0 1 7 -1 1170.48 1086.23 o 1.609361
1 -3 2 0 89955.45 91874.30 o 1.607146
3 -1 2 0 76034.17 80974.72 o 1.600853
1 4 1 -1 4382.82 4701.95 o 1.595557
1 -1 6 -1 1571.76 1814.75 o 1.595248
0 3 3 0 2218.38 2496.40 o 1.594898
1 3 2 0 69958.42 71636.53 o 1.589304
3 0 3 0 4295.14 4447.14 o 1.587983
3 1 2 0 82571.85 82586.78 o 1.583217
1 0 7 -1 26.68 27.34 o 1.579474
2 -2 4 0 77174.05 82474.81 o 1.569364
2 2 6 -1 60.27 64.36 o 1.568523
0 1 7 0 1118.44 1122.72 o 1.563713
1 0 7 0 5821.07 5871.84 o 1.562985
2 -2 4 1 1841.29 2247.10 o 1.560127
0 2 4 1 2400.68 3039.65 o 1.557069
0 4 2 -1 45.93 44.80 o 1.551526
2 2 4 0 69909.57 67594.19 o 1.547312
2 -3 1 1 297.70 286.95 o 1.547263
0 2 6 0 1110.50 1090.51 o 1.546266
2 0 6 0 869.58 711.33 o 1.543454
3 0 5 -1 1811.25 1427.91 o 1.532675
2 1 3 1 93.76 72.05 o 1.529628
2 -1 5 1 56.25 81.48 o 1.524156
3 3 2 -1 3.71 3.38 o 1.517336
1 2 7 -1 1455.72 1314.41 o 1.515879
1 2 3 1 615.49 677.30 o 1.506498
4 1 1 -1 2680.00 2950.97 o 1.504776
3 -1 4 -1 28.88 33.70 o 1.498499
4 0 0 -1 144.78 189.38 o 1.493122
2 3 5 -1 2831.90 3341.65 o 1.491395
2 1 7 -1 2079.49 2439.47 o 1.489563
1 4 3 -1 2471.06 2571.69 o 1.484647
2 4 0 -1 144.38 104.01 o 1.477125
1 3 6 -1 204.79 211.53 o 1.471810
1 -4 1 1 1332.12 1075.13 o 1.466046
3 2 5 -1 3484.58 2761.68 o 1.465113
2 -2 4 -1 1030.11 1074.66 o 1.461263
2 -3 1 0 9505.95 10647.59 o 1.459715
3 -2 1 0 2635.47 3679.59 o 1.456760
1 -2 5 -1 149.14 184.57 o 1.454894
1 -3 4 0 930.56 752.11 o 1.445667
2 -3 3 1 688.20 520.93 o 1.445504
4 0 2 -1 18.02 13.93 o 1.444899
1 1 6 1 2314.93 1765.15 o 1.443388
3 -1 4 0 1195.15 933.93 o 1.441081
1 0 7 1 7.89 7.37 o 1.435967
2 3 1 0 2933.07 2724.58 o 1.433263
0 0 8 0 62949.90 59200.88 o 1.432899
1 3 4 0 79.24 73.66 o 1.432639
3 2 1 0 7143.63 6010.48 o 1.430465
2 4 2 -1 82.01 74.18 o 1.430387
3 1 4 0 44.99 33.62 o 1.428176
3 -2 1 -1 401.61 339.73 o 1.426455
4 2 0 -1 16.62 13.19 o 1.426204
3 1 6 -1 88.53 81.02 o 1.423612
3 -1 2 1 2426.53 2244.62 o 1.423466
3 0 1 1 281.74 245.15 o 1.420735
1 1 8 -1 208.25 110.86 o 1.419771
0 1 7 1 67.86 79.64 o 1.415697
4 1 3 -1 4379.61 3354.43 o 1.410680
0 4 4 -1 409.83 174.58 o 1.404783
1 -2 7 1 63.96 54.00 o 1.395532
0 3 5 0 9698.78 9841.27 o 1.393616
3 -2 1 1 13.41 13.65 o 1.389286
3 0 5 0 4743.36 4815.75 o 1.388995
0 0 8 1 1211.43 645.87 o 1.385946
4 2 2 -1 9.34 5.44 o 1.384000
3 3 4 -1 1.66 0.99 o 1.379254
1 -4 3 1 1662.83 993.95 o 1.378621
2 2 0 1 2529.33 1458.80 o 1.378218
2 -3 3 0 3088.88 2876.28 o 1.373353
3 -2 3 0 9821.64 11073.84 o 1.370891
0 3 1 1 1013.57 1136.91 o 1.367051
1 -3 6 1 412.89 284.09 o 1.364607
2 0 6 1 106.39 77.60 o 1.364050
4 -1 1 -1 1286.38 790.55 o 1.357275
2 3 3 0 5417.69 4769.06 o 1.351255
1 -3 2 -1 2424.22 2055.54 o 1.350926
2 1 5 1 915.36 782.51 o 1.349437
3 2 3 0 3905.57 3224.91 o 1.348910
1 -2 7 0 8265.69 7320.28 o 1.347524
2 -1 7 0 2777.60 2531.14 o 1.346127
0 2 8 -1 832.29 771.93 o 1.345920
3 -2 3 -1 114.86 100.09 o 1.345546
3 0 3 1 373.11 334.83 o 1.340742
1 2 7 0 8050.10 7197.11 o 1.340450
2 2 2 1 3.86 3.41 o 1.340021
2 1 7 0 2621.42 2345.57 o 1.339075
2 -1 7 -1 438.21 389.03 o 1.339028
1 -1 8 0 4438.38 3873.05 o 1.338566
2 -2 6 0 760.24 661.73 o 1.338427
1 1 8 0 48.91 31.50 o 1.335085
0 3 7 -1 1759.94 1196.05 o 1.334162
1 2 5 1 486.59 333.08 o 1.333476
2 -2 6 1 79.92 65.23 o 1.332684
0 2 6 1 59.74 46.49 o 1.330776
2 2 6 0 549.89 218.70 o 1.324669
4 0 4 -1 71.74 32.03 o 1.324173
1 4 5 -1 3691.52 3690.16 o 1.318251
0 4 0 0 61148.23 62048.93 o 1.316322
1 -1 8 1 270.45 277.25 o 1.316130
3 -2 3 1 122.06 147.85 o 1.314216
2 4 4 -1 7.85 7.95 o 1.312976
2 0 8 -1 423.79 416.04 o 1.310480
4 0 0 0 64384.02 62208.48 o 1.309420
3 -1 4 1 33.90 31.47 o 1.307617
2 -3 1 -1 1.48 1.30 o 1.304058
0 3 3 1 119.65 60.79 o 1.295346
3 -1 6 -1 252.43 130.07 o 1.293653
2 -3 5 1 158.57 104.48 o 1.290620
2 -4 0 1 783.85 880.61 o 1.287513
4 -1 3 -1 852.70 951.95 o 1.287020
1 -1 8 -1 255.08 293.11 o 1.284547
0 4 2 0 1229.29 1444.63 o 1.282923
3 0 7 -1 1485.22 1697.11 o 1.282116
3 4 1 -1 4246.46 4410.11 o 1.278323
2 -1 7 1 13.81 17.43 o 1.277117
4 2 4 -1 2.17 2.23 o 1.276826
4 0 2 0 280.12 280.17 o 1.276531
3 1 2 1 3440.02 3402.14 o 1.275027
1 -4 1 0 2285.36 2122.38 o 1.274773
2 2 8 -1 64.53 73.80 o 1.270470
2 -2 6 -1 262.15 307.46 o 1.269467
4 -1 1 0 5625.11 6393.17 o 1.268890
4 1 5 -1 2549.90 3875.58 o 1.265651
1 4 1 0 4178.60 5103.44 o 1.262869
4 3 1 -1 5435.50 5535.98 o 1.260892
0 1 9 -1 74.16 75.02 o 1.260265
1 -3 6 0 51588.75 52155.63 o 1.259201
0 2 8 0 63645.65 64219.48 o 1.258556
2 3 7 -1 2723.48 2713.72 o 1.257658
4 1 1 0 2215.07 2216.80 o 1.257149
2 0 8 0 63701.62 63145.06 o 1.257038
2 -4 2 1 28.23 27.93 o 1.256209
3 -1 6 0 69107.82 68144.09 o 1.256167
1 -3 4 -1 65.81 67.28 o 1.250718
1 3 6 0 64943.00 66528.34 o 1.250564
1 3 2 1 2410.71 2434.54 o 1.249211
3 1 6 0 49406.45 48478.26 o 1.247592
1 0 9 -1 534.88 506.28 o 1.245758
1 -4 5 1 1563.06 1830.18 o 1.242345
2 2 4 1 2820.19 3334.83 o 1.242049
3 2 7 -1 1811.14 2095.57 o 1.241777
2 -3 3 -1 3.28 3.75 o 1.241379
2 -3 5 0 2449.56 2707.09 o 1.238485
0 1 9 0 7537.37 8209.87 o 1.237981
1 0 9 0 1526.71 1654.03 o 1.237620
3 -2 5 0 1119.98 1186.24 o 1.236679
1 -2 7 -1 56.36 60.86 o 1.235536
0 4 6 -1 8.92 10.67 o 1.231907
3 -3 2 1 1457.91 1702.28 o 1.230461
0 5 1 -1 3615.57 4293.29 o 1.230176
2 3 5 0 2857.01 2989.22 o 1.222206
3 -3 2 0 59653.52 63160.19 o 1.221664
3 2 5 0 415.76 443.60 o 1.220470
3 4 3 -1 4813.57 5226.39 o 1.219119
3 -2 5 -1 279.33 328.86 o 1.217976
1 3 8 -1 0.81 0.95 o 1.217418
1 -4 3 0 6289.57 7465.21 o 1.216038
3 3 6 -1 80.23 93.48 o 1.214583
3 0 5 1 131.00 149.48 o 1.214410
1 2 9 -1 2276.07 2577.67 o 1.213835
4 -1 3 0 1729.55 2222.67 o 1.210928
1 5 2 -1 12.67 14.61 o 1.207981
1 4 3 0 3326.84 3699.27 o 1.205691
4 3 3 -1 3320.46 3986.54 o 1.203971
1 1 8 1 212.14 248.59 o 1.201186
4 1 3 0 3939.70 4449.13 o 1.200711
4 -2 0 -1 312.48 301.76 o 1.200354
2 1 9 -1 1075.79 1073.16 o 1.200197
3 3 2 0 48344.03 44657.59 o 1.198436
0 3 7 0 2574.62 2309.76 o 1.197342
0 4 4 0 51233.02 49780.80 o 1.196174
3 -2 5 1 60.63 63.60 o 1.194593
3 0 7 0 7525.32 7940.29 o 1.194408
4 0 4 0 50302.98 50630.01 o 1.190987
3 1 4 1 223.06 224.12 o 1.189766
3 1 8 -1 15.06 15.39 o 1.189716
2 -4 0 0 57774.95 60995.31 o 1.185708
4 -2 0 0 55183.02 61372.80 o 1.181913
0 3 5 1 637.67 710.05 o 1.180368
0 5 3 -1 2422.65 2710.02 o 1.177144
4 0 6 -1 48.44 53.76 o 1.176462
4 -2 2 -1 15.51 17.94 o 1.174866
2 -4 4 1 708.80 814.63 o 1.174432
4 -1 5 -1 831.89 942.86 o 1.174058
1 0 9 1 203.32 263.35 o 1.171625
2 1 7 1 19.43 19.67 o 1.168974
1 3 4 1 192.54 191.70 o 1.168708
2 4 6 -1 13.07 13.14 o 1.168589
2 4 0 0 46975.44 46024.86 o 1.166744
3 -1 6 1 2252.56 1979.18 o 1.164805
2 5 1 -1 3690.46 3451.76 o 1.164802
4 2 0 0 47560.31 42913.08 o 1.163127
2 -4 2 0 13.34 11.06 o 1.161123
5 0 1 -1 2592.83 2112.28 o 1.160779
0 1 9 1 222.89 177.50 o 1.160537
1 2 7 1 939.93 645.43 o 1.158552
4 -2 2 0 686.35 380.41 o 1.157558
3 -3 2 -1 475.90 286.88 o 1.157251
1 -3 8 1 132.52 72.79 o 1.154627
2 0 8 1 1307.88 721.37 o 1.154290
3 -3 4 1 89.81 61.53 o 1.153311
5 1 2 -1 3.22 1.83 o 1.153224
1 -5 2 1 251.71 209.00 o 1.150984
1 -2 9 1 459.41 375.16 o 1.149350
1 4 7 -1 2837.09 1953.72 o 1.148525
0 0 10 0 1575.13 701.93 o 1.146319
3 2 1 1 1249.89 672.63 o 1.146096
3 -3 4 0 354.27 143.73 o 1.146058
2 4 2 0 122.48 51.53 o 1.143296
4 2 6 -1 19.74 9.94 o 1.142882
4 -1 1 1 359.75 197.53 o 1.142235
4 2 2 0 171.38 161.86 o 1.139893
1 1 10 -1 244.00 232.55 o 1.139564
2 -3 5 -1 103.72 97.35 o 1.139102
2 -2 8 0 47557.58 45412.22 o 1.138639
2 3 1 1 821.66 773.51 o 1.136829
2 -2 8 1 1094.07 820.69 o 1.135096
1 5 4 -1 11.93 9.47 o 1.134739
0 2 8 1 1230.45 1007.98 o 1.133917
2 2 8 0 43930.08 42491.65 o 1.130132
2 -3 7 1 759.78 732.56 o 1.130113
4 0 0 1 2357.68 2242.76 o 1.128639
3 3 4 0 82.05 70.85 o 1.126815
5 2 1 -1 3315.23 2871.77 o 1.126401
1 -3 6 -1 815.80 732.29 o 1.124045
1 -2 9 0 188.49 167.60 o 1.122082
0 0 10 1 132.15 122.38 o 1.121850
3 4 5 -1 4277.79 3944.80 o 1.121830
2 -1 9 0 5522.56 5182.84 o 1.121275
2 5 3 -1 4148.05 3911.53 o 1.119484
1 -4 5 0 1121.07 1051.35 o 1.119428
1 2 9 0 1018.37 959.61 o 1.117988
2 2 6 1 250.48 244.66 o 1.117739
2 1 9 0 2895.90 2720.93 o 1.117190
2 -1 9 -1 78.13 77.00 o 1.117163
5 0 3 -1 2058.60 2026.43 o 1.115911
4 -1 5 0 2949.68 3080.96 o 1.115438
4 -2 0 1 2510.22 2547.95 o 1.114691
0 3 9 -1 873.59 844.96 o 1.114332
4 1 7 -1 2068.80 1892.28 o 1.113236
1 4 5 0 1008.52 1176.82 o 1.111341
3 -1 8 -1 66.68 77.38 o 1.110687
4 3 5 -1 3745.17 4082.95 o 1.109993
4 1 5 0 2498.70 2352.71 o 1.107437
4 0 2 1 11.71 11.03 o 1.107374
4 -2 4 -1 377.43 356.39 o 1.107157
3 2 3 1 1270.95 1409.77 o 1.102847
4 4 0 -1 43.57 46.70 o 1.102117
0 2 10 -1 190.96 220.06 o 1.100303
4 -1 3 1 97.88 102.70 o 1.099406
3 -4 1 1 479.62 397.47 o 1.098071
1 -4 7 1 804.93 779.13 o 1.097277
1 -1 10 0 46120.02 44927.33 o 1.096274
1 -4 1 -1 306.46 295.63 o 1.095939
2 -4 4 0 45097.05 43832.02 o 1.095633
2 -2 8 -1 732.06 699.32 o 1.095267
2 -3 7 0 381.71 359.39 o 1.094615
2 3 3 1 924.49 903.59 o 1.094583
1 1 10 0 46352.64 44071.41 o 1.094360
4 -2 2 1 35.99 34.24 o 1.094191
0 4 0 1 1753.23 1741.18 o 1.093429
3 -2 7 0 2933.63 2921.21 o 1.093367
4 -2 4 0 46695.92 49331.25 o 1.092637
3 -3 4 -1 39.19 39.07 o 1.092378
5 1 4 -1 14.75 23.78 o 1.088989
0 5 5 -1 1641.51 2547.84 o 1.088866
1 -3 8 0 592.37 964.00 o 1.088653
1 -5 4 1 3.19 4.60 o 1.087103
3 -1 8 0 451.08 621.99 o 1.086691
5 2 3 -1 3325.73 4146.20 o 1.085265
5 -1 2 -1 25.02 29.04 o 1.084517
0 4 6 0 374.93 436.65 o 1.083954
1 -1 10 1 924.76 1036.82 o 1.083847
3 0 9 -1 1337.45 1378.92 o 1.083467
2 3 7 0 423.72 431.45 o 1.083327
1 3 8 0 1241.86 1235.21 o 1.083058
4 4 2 -1 30.09 29.81 o 1.082290
3 2 7 0 2054.04 1981.20 o 1.082117
3 1 8 0 1324.49 1349.10 o 1.081125
2 0 10 -1 236.53 231.78 o 1.080685
2 4 4 0 37516.57 36651.64 o 1.080618
2 -1 9 1 65.47 64.08 o 1.080445
3 -2 7 -1 45.32 43.59 o 1.080378
4 0 6 0 558.86 542.11 o 1.080090
3 1 6 1 1640.27 1561.85 o 1.079179
3 0 7 1 783.70 722.01 o 1.077887
4 2 4 0 37330.20 34300.06 o 1.077743
0 4 2 1 95.28 72.66 o 1.074059
0 4 8 -1 82.41 65.51 o 1.070870
2 3 9 -1 1931.20 1344.06 o 1.068586
2 -5 1 1 1070.50 729.04 o 1.068341
2 -4 6 1 134.39 92.09 o 1.067696
1 -1 10 -1 970.86 561.34 o 1.066003
3 -2 7 1 0.14 0.10 o 1.063958
1 3 6 1 2067.49 1079.63 o 1.063390
2 -4 0 -1 1096.99 525.60 o 1.062124
3 -4 3 1 268.92 123.83 o 1.059859
3 3 8 -1 100.72 48.91 o 1.059432
4 1 1 1 956.93 477.18 o 1.059418
3 2 9 -1 2243.48 1147.79 o 1.058793
1 -4 3 -1 333.33 241.80 o 1.057941
2 2 10 -1 82.41 56.03 o 1.057917
3 -4 1 0 3034.61 2778.56 o 1.056839
4 -3 1 0 1600.66 1846.19 o 1.055267
1 -2 9 -1 51.35 57.22 o 1.054917
0 3 7 1 33.75 36.97 o 1.053871
3 -3 6 1 1295.18 1297.74 o 1.051752
0 2 10 0 1782.30 1467.67 o 1.051008
4 0 4 1 2175.19 1698.43 o 1.050134
2 0 10 0 972.33 655.96 o 1.050124
3 5 2 -1 5.36 4.09 o 1.049807
4 -1 7 -1 1338.57 999.23 o 1.049373
0 5 1 0 2676.97 2193.65 o 1.048642
3 -3 6 0 42567.50 44330.85 o 1.046242
2 -4 2 -1 19.52 20.30 o 1.044344
5 0 1 0 2279.49 2136.10 o 1.043189
2 5 5 -1 3927.34 3845.35 o 1.042748
5 0 5 -1 1893.98 1715.63 o 1.039859
4 -2 4 1 1590.23 1466.65 o 1.038871
1 4 1 1 896.57 825.27 o 1.037867
1 5 6 -1 96.66 87.82 o 1.037610
3 4 1 0 972.36 867.61 o 1.036787
4 -3 1 1 12.42 10.78 o 1.036666
4 -3 1 -1 123.85 131.00 o 1.035505
4 3 1 0 2232.30 2398.41 o 1.035303
0 1 11 -1 391.49 462.29 o 1.034718
4 0 8 -1 95.67 104.76 o 1.033848
2 -5 3 1 932.52 923.46 o 1.033052
3 3 6 0 32580.66 30250.80 o 1.031541
0 3 9 0 3053.47 2759.61 o 1.030844
5 -1 4 -1 7.40 6.79 o 1.030581
5 3 2 -1 10.04 9.24 o 1.030217
3 2 5 1 228.58 190.52 o 1.029263
3 0 9 0 273.22 198.31 o 1.028970
4 4 4 -1 0.39 0.29 o 1.028669
2 4 8 -1 66.34 49.58 o 1.028492
1 3 10 -1 120.77 108.79 o 1.026693
1 0 11 -1 94.18 91.72 o 1.026644
4 -1 5 1 325.57 322.58 o 1.026464
3 -1 8 1 198.27 172.22 o 1.025910
4 1 3 1 619.43 663.30 o 1.024978
2 -3 7 -1 55.64 52.75 o 1.024189
3 -4 3 0 1611.65 1491.85 o 1.022642
2 3 5 1 1316.41 1214.82 o 1.022535
0 1 11 0 544.96 490.43 o 1.022278
1 0 11 0 4994.89 4520.42 o 1.022074
0 4 4 1 1825.28 1800.91 o 1.021595
4 -3 3 0 1462.78 1372.72 o 1.021218
1 -5 2 0 34931.18 35106.92 o 1.019889
1 1 10 1 810.72 965.26 o 1.016901
4 -2 6 -1 19.61 19.16 o 1.016396
0 5 3 0 1367.21 1321.52 o 1.015209
5 -1 2 0 43331.18 41814.97 o 1.015070
5 2 5 -1 3541.39 3479.42 o 1.014927
2 1 9 1 349.25 363.51 o 1.012574
1 5 2 0 37486.80 38595.79 o 1.012248
3 4 7 -1 3440.63 3650.75 o 1.011579
4 2 8 -1 16.80 17.99 o 1.010837
5 0 3 0 2163.82 2739.75 o 1.010260
3 1 10 -1 125.69 159.80 o 1.009913
1 -4 7 0 2948.45 3693.36 o 1.009817
1 2 11 -1 645.24 663.36 o 1.008555
5 -2 1 -1 650.99 645.66 o 1.007719
5 1 2 0 31467.30 30899.89 o 1.007535
2 -4 6 0 472.88 462.67 o 1.007458
4 -1 7 0 559.75 545.56 o 1.006885
1 2 9 1 0.41 0.37 o 1.005778
1 4 3 1 1503.01 1420.29 o 1.005423
4 -2 6 0 389.69 351.04 o 1.005127
3 -3 6 -1 957.07 817.78 o 1.004926
3 4 3 0 1729.11 1412.08 o 1.004441
4 -3 3 1 8.50 6.75 o 1.004332
1 4 7 0 2477.97 1947.74 o 1.003869
4 -3 3 -1 198.69 164.89 o 1.003276
0 6 0 -1 3.08 2.49 o 1.003250
4 3 3 0 372.77 294.78 o 1.003092
4 3 7 -1 3504.69 2848.41 o 1.002875
5 1 6 -1 0.75 0.64 o 1.002285
4 1 7 0 330.73 370.29 o 1.000989
1 -5 6 1 360.53 380.45 o 1.000814
2 1 11 -1 1594.19 1742.36 o 1.000691
3 5 4 -1 4.46 4.32 o 1.000659
1 4 9 -1 1745.60 1677.13 o 0.999196
1 6 1 -1 3195.99 2551.86 o 0.997869
1 -3 8 -1 188.11 147.68 o 0.997733
2 -4 4 -1 983.98 691.19 o 0.995924
2 4 6 0 469.90 215.78 o 0.995748
3 -4 5 1 283.57 179.80 o 0.994056
4 2 6 0 382.11 227.21 o 0.993497
2 2 8 1 2001.73 1172.59 o 0.993316
1 -4 5 -1 224.48 132.42 o 0.992473
0 6 2 -1 3.96 2.85 o 0.988225
1 -3 10 1 643.00 487.27 o 0.988184
2 0 10 1 277.63 210.42 o 0.987972
3 3 2 1 2193.67 1574.89 o 0.987591
0 5 7 -1 1878.08 1343.38 o 0.987211
2 -3 9 1 131.75 92.56 o 0.987002
3 -4 1 -1 0.07 0.05 o 0.986085
1 0 11 1 60.06 93.79 o 0.983949
5 3 4 -1 3.85 4.10 o 0.983650
2 -5 1 0 1332.78 1440.70 o 0.980289
2 -2 10 0 1236.65 1020.98 o 0.978105
5 -2 3 -1 697.42 676.11 o 0.977942
0 1 11 1 243.18 239.89 o 0.977354
5 -2 1 0 2311.75 2595.91 o 0.976539
2 -2 10 1 184.52 206.69 o 0.975857
4 1 9 -1 1496.35 1568.02 o 0.975699
0 2 10 1 465.14 445.74 o 0.975107
1 -5 4 0 263.39 202.92 o 0.974648
4 2 0 1 3106.73 2674.17 o 0.974123
2 2 10 0 943.32 806.27 o 0.972697
2 -5 5 1 1004.44 1006.63 o 0.971838
4 0 6 1 173.52 176.82 o 0.971745
1 -2 11 1 51.97 50.38 o 0.970644
5 -1 4 0 143.33 130.27 o 0.970440
0 4 8 0 33086.95 31816.38 o 0.969377
1 6 3 -1 3732.32 3600.88 o 0.968932
1 5 4 0 97.48 103.08 o 0.967973
2 5 1 0 1997.42 1989.90 o 0.966846
4 0 8 0 33151.20 32847.11 o 0.966611
1 -6 1 1 2142.02 2129.00 o 0.966324
3 1 8 1 219.39 217.17 o 0.965958
2 6 0 -1 2.43 2.39 o 0.965518
4 1 5 1 963.99 952.31 o 0.965107
1 -4 9 1 1490.76 1304.30 o 0.964900
5 1 4 0 104.08 101.01 o 0.963850
5 2 1 0 473.12 480.93 o 0.963248
3 -4 5 0 1676.40 1715.59 o 0.963156
2 4 0 1 2833.54 2918.09 o 0.963145
2 -3 9 0 3804.18 3814.20 o 0.963089
4 -2 6 1 136.14 142.92 o 0.962800
3 -2 9 0 1341.99 1438.69 o 0.962239
4 -3 5 0 4248.17 4553.03 o 0.961966
4 2 2 1 81.41 91.55 o 0.960352
3 -1 10 -1 137.09 157.65 o 0.960216
3 -4 3 -1 35.63 33.60 o 0.958133
6 1 1 -1 2858.39 2762.84 o 0.958063
2 -4 8 1 587.91 575.97 o 0.957697
0 5 5 0 2172.91 2173.00 o 0.956939
6 0 0 -1 7.99 8.39 o 0.956306
5 -1 6 -1 149.19 148.12 o 0.956190
2 3 9 0 4313.27 4157.03 o 0.955374
0 0 12 0 42366.34 40937.96 o 0.955266
4 4 6 -1 0.36 0.35 o 0.954662
1 3 8 1 153.05 149.16 o 0.954586
3 2 9 0 461.39 453.03 o 0.954544
1 -2 11 0 4329.08 4014.03 o 0.954052
2 -1 11 0 45.58 46.15 o 0.953556
3 -2 9 -1 477.98 441.81 o 0.953349
2 -5 3 0 1729.24 1712.48 o 0.952813
5 0 5 0 561.36 564.74 o 0.952790
2 5 7 -1 3245.80 3282.82 o 0.952454
2 6 2 -1 58.78 60.03 o 0.952104
3 0 9 1 0.53 0.53 o 0.951636
1 2 11 0 2453.77 2446.91 o 0.951532
1 1 12 -1 88.14 89.39 o 0.951346
4 5 1 -1 3671.15 3901.63 o 0.951337
2 1 11 0 486.00 506.31 o 0.951040
2 -1 11 -1 440.27 462.63 o 0.951023
5 0 7 -1 1064.29 1306.67 o 0.950250
2 -2 10 -1 42.55 48.06 o 0.950200
2 4 2 1 16.20 18.52 o 0.949828
5 -2 3 0 1497.09 1974.56 o 0.949369
0 3 11 -1 1290.20 1690.12 o 0.949275
0 4 6 1 133.99 170.48 o 0.948999
1 4 5 1 168.94 205.89 o 0.948730
3 4 5 0 1167.31 1364.92 o 0.947905
4 -4 0 1 756.88 918.15 o 0.947818
4 -3 5 1 15.35 20.65 o 0.947812
4 -3 5 -1 83.41 80.92 o 0.946925
0 6 4 -1 99.88 97.72 o 0.946903
4 3 5 0 2395.20 2375.89 o 0.946770
3 -5 2 1 629.66 616.25 o 0.946595
3 3 4 1 1.61 1.61 o 0.946345
3 -3 8 1 71.66 69.94 o 0.946140
1 -3 10 0 35978.12 34719.44 o 0.945872
3 -1 10 0 31250.79 31074.32 o 0.944584
5 4 1 -1 4386.21 4298.91 o 0.943766
6 0 2 -1 13.06 12.65 o 0.943267
1 3 10 0 28049.98 28023.42 o 0.942195
3 2 7 1 1136.95 1123.49 o 0.942144
3 -3 8 0 511.54 502.94 o 0.942123
3 -2 9 1 142.90 139.64 o 0.942010
0 0 12 1 561.05 540.07 o 0.940967
3 1 10 0 32563.88 31026.58 o 0.940922
2 5 3 0 720.31 696.88 o 0.940455
4 -1 7 1 0.02 0.02 o 0.939996
1 -6 3 1 1413.63 1351.27 o 0.939975
4 -4 0 0 30673.09 33434.86 o 0.937798
5 2 3 0 1962.92 2166.84 o 0.937143
2 3 7 1 265.20 291.39 o 0.936976
1 5 8 -1 24.75 26.95 o 0.935805
6 2 0 -1 0.66 0.69 o 0.935612
4 -4 2 1 21.80 28.27 o 0.935118
0 3 9 1 304.11 365.50 o 0.934988
0 4 10 -1 49.17 63.12 o 0.934138
6 1 3 -1 2136.01 2104.09 o 0.932366
3 5 6 -1 88.87 87.88 o 0.932146
4 -1 9 -1 525.55 521.58 o 0.931842
3 3 8 0 748.18 723.98 o 0.931346
5 2 7 -1 3447.97 3205.70 o 0.931112
3 0 11 -1 302.56 282.05 o 0.929976
5 -1 2 1 2142.79 2036.41 o 0.929293
2 -4 6 -1 76.55 66.64 o 0.928315
0 2 12 -1 280.59 304.91 o 0.928143
2 -1 11 1 412.89 450.76 o 0.928062
5 0 1 1 509.54 383.05 o 0.927368
3 3 10 -1 5.11 4.18 o 0.926516
4 5 3 -1 4275.15 3402.60 o 0.926164
1 -1 12 0 1301.40 1105.64 o 0.925721
5 -2 5 -1 736.19 578.69 o 0.925537
4 -4 2 0 20.13 15.70 o 0.925491
1 1 12 0 1599.59 1125.41 o 0.924567
6 2 2 -1 10.74 7.98 o 0.923390
4 2 4 1 1883.55 1946.43 o 0.922298
5 -2 1 1 168.01 193.87 o 0.920719
2 3 11 -1 1849.27 1713.90 o 0.920514
4 -2 8 -1 120.97 110.46 o 0.920154
5 4 3 -1 4124.31 3894.46 o 0.919173
4 4 0 0 20085.22 18602.33 o 0.919143
6 -1 1 -1 1458.51 1347.99 o 0.918694
5 3 6 -1 17.55 16.35 o 0.918351
1 -1 12 1 205.44 210.71 o 0.918202
1 6 5 -1 2478.79 2283.29 o 0.917888
2 0 12 -1 213.99 214.58 o 0.916277
2 6 4 -1 1.75 1.74 o 0.914984
3 -4 7 1 58.46 59.73 o 0.914918
3 2 11 -1 1831.07 1819.70 o 0.914232
2 -3 9 -1 114.01 114.24 o 0.914073
1 -4 7 -1 513.32 528.73 o 0.913684
2 -4 8 0 31700.67 31634.94 o 0.913507
2 4 4 1 1483.76 1512.99 o 0.912964
4 -2 8 0 32049.68 32973.17 o 0.911768
1 -2 11 -1 100.05 102.43 o 0.911733
3 -3 8 -1 118.01 120.09 o 0.911617
1 -5 6 0 34772.98 35147.10 o 0.911013
2 -6 0 1 533.02 549.79 o 0.910605
3 -5 4 1 25.46 26.74 o 0.910091
5 1 8 -1 1.11 1.18 o 0.909645
4 0 10 -1 18.53 27.45 o 0.909258
3 -4 5 -1 12.94 14.07 o 0.908691
1 -5 8 1 64.00 72.82 o 0.908545
5 -1 6 0 23937.74 26686.16 o 0.907573
4 4 2 0 121.57 137.47 o 0.907548
1 -1 12 -1 176.61 197.76 o 0.907277
6 0 4 -1 17.47 19.62 o 0.907133
2 4 10 -1 0.00 0.00 o 0.905608
1 5 6 0 21200.94 21091.91 o 0.905554
3 4 9 -1 2481.73 2508.44 o 0.905076
2 4 8 0 25347.89 25347.15 o 0.904749
2 -5 5 0 2874.96 2902.08 o 0.904150
5 0 3 1 692.37 699.96 o 0.904004
3 -1 10 1 926.41 927.46 o 0.903844
1 -4 9 0 967.13 977.50 o 0.903813
0 5 1 1 478.94 472.74 o 0.903476
4 2 8 0 25700.64 25560.23 o 0.903059
4 -4 0 -1 448.63 441.64 o 0.902371
2 2 12 -1 53.10 51.68 o 0.902276
5 1 6 0 30697.33 29683.69 o 0.902176
3 6 1 -1 3733.07 3682.22 o 0.901944
4 -1 9 0 2448.79 2360.96 o 0.901709
5 -2 5 0 776.45 736.67 o 0.901205
4 -4 4 1 1097.63 1150.23 o 0.899878
1 -5 2 -1 999.88 1004.48 o 0.899834
1 4 9 0 255.21 271.17 o 0.899541
2 -6 2 1 13.40 14.14 o 0.899326
5 -3 2 -1 290.18 293.08 o 0.899090
4 3 9 -1 2431.29 2469.00 o 0.898825
3 -5 2 0 32126.29 32733.89 o 0.898597
0 2 12 0 25244.85 25191.80 o 0.897978
5 -2 3 1 137.32 132.87 o 0.897841
2 -5 7 1 1110.95 1091.86 o 0.897507
4 1 9 0 3411.17 3290.12 o 0.897467
2 0 12 0 25167.91 23651.93 o 0.897426
5 -3 2 0 29574.73 28719.91 o 0.896392
0 3 11 0 144.30 155.91 o 0.896057
6 -1 3 -1 1508.43 1551.26 o 0.895963
3 0 11 0 2284.68 2702.15 o 0.894825
5 -1 4 1 105.98 126.54 o 0.894684
2 5 5 0 1523.43 1670.62 o 0.893570
4 2 10 -1 2.23 2.42 o 0.893486
1 -6 5 1 1644.26 1712.99 o 0.893158
4 1 7 1 151.09 165.63 o 0.892197
4 -4 2 -1 76.84 86.40 o 0.891392
4 -4 4 0 33839.56 38050.92 o 0.891289
5 2 5 0 827.88 944.00 o 0.890727
3 -4 7 0 3248.77 3717.17 o 0.890655
4 -3 7 0 1218.04 1617.25 o 0.889713
6 2 4 -1 32.35 40.86 o 0.889412
0 6 6 -1 6.35 6.97 o 0.888233
3 3 6 1 1892.95 2055.66 o 0.887772
0 5 9 -1 1632.87 1734.86 o 0.887497
4 0 8 1 1814.80 1957.54 o 0.886630
6 1 5 -1 2465.72 2688.59 o 0.886623
2 -5 1 -1 355.21 386.42 o 0.886588
0 5 7 0 553.50 669.74 o 0.885732
1 -3 10 -1 663.03 666.40 o 0.884398
2 1 11 1 0.99 0.98 o 0.883979
3 5 2 0 20038.17 19299.20 o 0.883148
6 3 1 -1 3054.26 2876.17 o 0.882969
1 3 12 -1 196.45 186.91 o 0.882670
5 0 7 0 1668.82 1605.98 o 0.882438
5 1 2 1 1735.00 1630.45 o 0.882028
0 5 3 1 516.03 488.40 o 0.881830
2 2 10 1 286.37 263.05 o 0.881317
4 5 5 -1 3829.05 3616.22 o 0.881284
5 3 2 0 21576.60 20107.44 o 0.881054
3 6 3 -1 3533.20 3325.86 o 0.880405
4 -2 8 1 923.99 955.68 o 0.879820
1 2 11 1 487.75 490.60 o 0.879447
1 4 7 1 927.18 914.71 o 0.879210
3 4 7 0 2466.69 2489.86 o 0.878553
4 -3 7 1 52.39 50.45 o 0.878480
4 -3 7 -1 190.90 189.09 o 0.877773
4 3 7 0 652.94 644.59 o 0.877650
0 6 0 0 24868.97 24287.73 o 0.877548
0 1 13 -1 135.93 133.97 o 0.877293
1 1 12 1 414.77 374.44 o 0.876425
4 3 1 1 1269.08 1099.45 o 0.875693
5 4 5 -1 2662.06 2306.31 o 0.875255
4 4 4 0 22656.79 19408.10 o 0.875229
1 4 11 -1 1328.65 1131.83 o 0.875037
5 -1 8 -1 58.15 49.38 o 0.874768
4 4 8 -1 17.20 15.29 o 0.873598
6 0 0 0 24758.06 23049.87 o 0.872947
1 0 13 -1 552.75 479.91 o 0.872356
3 1 12 -1 87.63 72.64 o 0.871939
3 4 1 1 1099.27 979.08 o 0.871791
5 -3 2 1 1198.04 802.16 o 0.870685
0 1 13 0 3102.23 2112.97 o 0.869673
1 0 13 0 115.78 78.31 o 0.869547
0 4 8 1 984.41 648.41 o 0.869252
1 -5 4 -1 22.95 15.18 o 0.868304
2 -6 4 1 150.16 79.54 o 0.867848
4 2 6 1 114.24 58.42 o 0.867829
5 -3 4 -1 7.10 4.26 o 0.867636
0 6 2 0 33.78 20.88 o 0.867439
3 -5 4 0 10.82 7.26 o 0.867193
2 -3 11 1 337.76 262.33 o 0.866812
2 -5 3 -1 153.56 81.89 o 0.866106
6 -2 0 -1 53.33 31.27 o 0.866093
1 5 2 1 1535.17 840.49 o 0.865902
1 -6 1 0 841.32 497.45 o 0.865851
5 -3 4 0 37.43 17.79 o 0.865210
0 4 10 0 314.63 77.93 o 0.864468
6 0 2 0 360.22 177.62 o 0.862995
6 3 3 -1 3672.99 2061.44 o 0.862732
4 0 10 0 1440.64 778.07 o 0.862505
5 0 5 1 303.33 171.66 o 0.862127
3 1 10 1 1448.32 841.66 o 0.862040
2 5 9 -1 2284.24 1266.90 o 0.861987
2 6 6 -1 3.93 2.23 o 0.861728
6 -1 1 0 1263.43 820.81 o 0.861552
1 2 13 -1 997.40 626.41 o 0.861176
4 -4 4 -1 339.78 190.99 o 0.860711
5 -2 7 -1 419.51 258.04 o 0.860656
5 0 9 -1 1362.20 707.91 o 0.860353
1 6 1 0 1171.89 626.22 o 0.860232
2 4 6 1 139.95 77.26 o 0.860040
4 1 11 -1 1183.88 306.20 o 0.859125
1 -3 12 1 57.64 14.26 o 0.857840
2 0 12 1 783.07 163.02 o 0.857701
3 -5 6 1 377.91 102.69 o 0.857637
5 -2 5 1 2.50 1.07 o 0.856777
6 -2 2 -1 35.94 17.01 o 0.856371
2 1 13 -1 308.89 135.06 o 0.856265
3 5 8 -1 7.74 3.39 o 0.856245
2 -4 10 1 94.82 43.97 o 0.856154
6 1 1 0 743.00 366.71 o 0.856016
4 3 3 1 826.81 375.76 o 0.855941
6 0 6 -1 7.96 3.62 o 0.855160
6 -1 5 -1 999.20 471.31 o 0.855145
1 6 7 -1 1815.96 812.12 o 0.854495
3 2 9 1 136.09 62.05 o 0.854323
1 3 10 1 1023.98 486.70 o 0.853929
3 5 4 0 258.99 113.80 o 0.853283
2 -4 8 -1 678.58 409.75 o 0.853273
4 -1 9 1 400.12 181.63 o 0.852720
3 4 3 1 1282.09 1036.88 o 0.852296
5 1 4 1 15.50 12.99 o 0.852273
1 -4 11 1 574.78 474.42 o 0.851726
5 3 4 0 332.63 268.41 o 0.851394
2 -2 12 0 28445.60 23678.36 o 0.851221
2 -3 11 0 567.18 382.83 o 0.850479
2 3 9 1 1462.49 1185.41 o 0.850464
4 -5 1 1 127.82 94.96 o 0.850293
3 -2 11 0 2364.95 1666.08 o 0.849894
2 -2 12 1 511.02 380.21 o 0.849738
0 2 12 1 617.88 477.53 o 0.849243
4 -4 6 1 17.01 12.55 o 0.849074
3 -3 10 1 433.20 402.92 o 0.847867
2 2 12 0 25508.46 23275.91 o 0.847649
3 -4 7 -1 80.35 72.39 o 0.847061
1 -6 3 0 1479.08 1112.37 o 0.846743
5 2 9 -1 1996.35 1858.52 o 0.846072
1 0 13 1 124.58 118.20 o 0.845706
5 3 8 -1 1.00 0.92 o 0.845515
2 3 11 0 75.68 70.34 o 0.845152
3 -3 10 0 26637.40 24719.96 o 0.844973
5 -1 6 1 1057.93 980.76 o 0.844706
3 2 11 0 3170.69 2944.87 o 0.844577
3 -2 11 -1 73.00 64.59 o 0.843750
2 -5 7 0 608.35 597.24 o 0.843378
0 5 5 1 1138.01 1104.00 o 0.842831
6 -1 3 0 568.02 541.75 o 0.842722
3 0 11 1 384.18 359.15 o 0.842561
5 -3 4 1 1.25 1.25 o 0.842026
4 -4 6 0 296.69 319.23 o 0.841848
3 6 5 -1 2908.47 3163.67 o 0.841587
0 1 13 1 42.94 46.92 o 0.841507
1 6 3 0 885.42 986.50 o 0.841486
0 7 1 -1 1902.79 2106.59 o 0.841069
5 -2 7 0 2005.79 2293.32 o 0.840987
1 5 10 -1 22.77 23.62 o 0.840406
6 2 6 -1 4.96 5.13 o 0.840265
1 -5 8 0 351.61 358.50 o 0.839778
3 -1 12 -1 148.57 149.27 o 0.839351
0 6 4 0 21634.04 21470.93 o 0.839090
5 5 2 -1 60.29 62.76 o 0.838873
1 5 4 1 29.75 30.08 o 0.837698
6 1 3 0 340.35 346.76 o 0.837538
1 -2 13 1 611.38 614.67 o 0.837213
3 3 10 0 22285.21 22525.43 o 0.837172
2 -6 0 0 22405.63 22685.90 o 0.837157
5 -1 8 0 470.43 471.13 o 0.837082
3 -5 2 -1 761.17 764.88 o 0.836843
3 -6 1 1 505.13 498.33 o 0.836485
3 -2 11 1 23.01 21.30 o 0.835859
1 5 8 0 460.47 461.05 o 0.835497
6 0 4 0 22209.51 21050.72 o 0.835064
5 2 1 1 811.57 792.88 o 0.834933
2 5 7 0 254.46 242.01 o 0.834772
1 -6 7 1 1546.13 1501.73 o 0.834436
3 -4 9 1 431.90 442.63 o 0.833867
6 -2 0 0 24399.49 25486.44 o 0.833601
1 7 2 -1 14.94 15.43 o 0.833029
1 -4 9 -1 4.94 5.13 o 0.832932
5 1 8 0 497.14 504.19 o 0.832841
2 -2 12 -1 320.67 326.36 o 0.832637
5 2 7 0 1675.20 1702.18 o 0.832453
4 6 0 -1 14.37 14.94 o 0.832326
4 -5 3 1 416.37 437.13 o 0.832175
0 3 11 1 0.02 0.00 o 0.830941
1 -3 12 0 982.63 883.37 o 0.829720
6 1 7 -1 2134.49 1816.46 o 0.829099
2 -5 5 -1 203.45 196.61 o 0.829071
6 -2 4 -1 19.21 16.70 o 0.829059
4 -2 10 -1 168.38 145.66 o 0.829015
3 -1 12 0 1051.52 818.63 o 0.828850
4 -1 11 -1 834.55 713.09 o 0.828731
2 -6 2 0 139.53 125.94 o 0.828368
4 4 6 0 159.38 149.38 o 0.828276
1 3 12 0 980.90 1052.55 o 0.827235
2 6 0 0 17314.93 17903.99 o 0.827085
4 -5 1 0 1719.79 1773.15 o 0.826623
1 -2 13 0 242.09 240.61 o 0.826496
3 1 12 0 959.53 951.39 o 0.826373
2 -1 13 0 1854.43 1784.76 o 0.826173
6 3 5 -1 3055.54 3186.63 o 0.826110
5 -4 1 0 671.88 685.45 o 0.825655
6 -2 2 0 38.99 37.17 o 0.824922
2 5 1 1 1506.49 1433.08 o 0.824902
1 2 13 0 0.56 0.52 o 0.824856
4 5 7 -1 2654.87 2544.05 o 0.824729
2 1 13 0 3041.17 2844.50 o 0.824535
2 -1 13 -1 36.11 34.87 o 0.824524
2 -4 10 0 1047.65 958.88 o 0.824143
4 6 2 -1 36.94 35.00 o 0.823686
6 2 0 0 16528.71 15323.36 o 0.823655
0 7 3 -1 2528.88 2352.46 o 0.823523
0 3 13 -1 314.22 297.46 o 0.823384
4 -2 10 0 369.28 356.55 o 0.822866
3 -3 10 -1 275.36 276.11 o 0.822755
1 -5 6 -1 1179.56 1197.48 o 0.822399
6 4 0 -1 115.09 116.55 o 0.822037
2 -6 6 1 5.35 5.54 o 0.822011
0 6 8 -1 91.18 95.31 o 0.821835
5 -3 6 -1 39.34 40.38 o 0.821831
0 4 12 -1 134.03 139.37 o 0.821766
3 3 8 1 342.51 353.71 o 0.821470
3 -5 6 0 23068.98 24099.64 o 0.821455
5 1 10 -1 15.30 15.88 o 0.821304
2 -5 9 1 339.58 358.83 o 0.820621
5 -4 1 1 6.23 6.32 o 0.820595
1 -5 10 1 80.80 84.64 o 0.820494
4 3 5 1 1459.41 1543.31 o 0.820142
5 4 7 -1 2648.15 2804.98 o 0.819781
5 -3 6 0 27403.61 28943.03 o 0.819769
3 -6 3 1 622.88 664.49 o 0.819218
0 0 14 0 1505.76 1658.64 o 0.818799
2 6 2 0 151.07 164.18 o 0.818605
5 2 3 1 1457.03 1532.43 o 0.817760
2 4 10 0 975.45 953.99 o 0.817695
2 7 1 -1 3302.11 3494.91 o 0.817665
3 4 5 1 781.43 813.52 o 0.816933
3 3 12 -1 2.74 2.83 o 0.816563
4 1 9 1 977.47 1055.97 o 0.816556
4 2 10 0 434.41 542.82 o 0.816448
1 1 14 -1 265.31 347.68 o 0.816327
2 -3 11 -1 59.78 74.63 o 0.816157
4 -4 6 -1 38.71 42.42 o 0.815939
3 -4 9 0 54.23 95.04 o 0.815374
6 2 2 0 0.57 0.87 o 0.815280
1 -7 2 1 82.67 123.27 o 0.815199
4 -3 9 0 1885.04 2795.87 o 0.814651
6 4 2 -1 0.67 1.00 o 0.813710
5 5 4 -1 1.43 2.14 o 0.813152
5 -4 1 -1 57.45 76.49 o 0.812209
1 -6 5 0 853.19 1338.06 o 0.812039
0 5 9 0 1731.16 2567.02 o 0.811591
3 -5 4 -1 54.31 62.16 o 0.811302
3 0 13 -1 918.69 1130.20 o 0.810695
4 5 1 0 432.20 494.98 o 0.810640
4 -5 3 0 772.70 842.60 o 0.809947
0 0 14 1 167.98 184.36 o 0.809741
3 4 11 -1 1857.84 1975.97 o 0.809733
5 4 1 0 592.81 633.37 o 0.809728
3 5 6 0 18938.73 20298.02 o 0.809602
2 -1 13 1 61.32 64.88 o 0.809426
5 0 9 0 189.48 193.98 o 0.809056
5 -4 3 0 1838.91 1875.40 o 0.809037
5 0 7 1 762.13 770.61 o 0.808965
1 -4 11 0 1965.53 1920.85 o 0.808828
5 1 6 1 1861.46 1845.60 o 0.808739
6 -1 5 0 1247.54 1170.27 o 0.808490
2 5 3 1 733.02 730.84 o 0.808329
5 3 6 0 17048.88 16138.96 o 0.807989
1 7 4 -1 2.14 2.03 o 0.807826
7 0 1 -1 1623.50 1511.73 o 0.807689
1 6 5 0 388.26 363.98 o 0.807399
4 -1 11 0 304.21 291.68 o 0.807320
1 4 9 1 230.05 221.51 o 0.806565
3 4 9 0 134.10 138.21 o 0.806058
4 -3 9 1 7.83 7.88 o 0.806001
1 4 11 0 2214.50 2256.11 o 0.805762
4 2 8 1 1002.83 1039.62 o 0.805593
4 -3 9 -1 27.30 27.32 o 0.805455
4 3 9 0 887.56 910.94 o 0.805360
4 3 11 -1 2110.11 2110.95 o 0.805248
4 0 12 -1 42.76 42.12 o 0.804674
5 -2 7 1 266.03 259.03 o 0.804540
2 3 13 -1 1262.09 1304.76 o 0.804404
7 1 2 -1 15.54 16.13 o 0.804371
5 -4 3 1 0.00 0.00 o 0.804275
4 1 11 0 55.89 57.94 o 0.804271
4 0 10 1 331.83 343.25 o 0.804246
6 1 5 0 1474.56 1509.54 o 0.803910
2 -6 4 0 22587.33 23248.98 o 0.803573
6 -1 7 -1 974.88 1016.11 o 0.803188
2 4 12 -1 37.27 39.97 o 0.802142
0 2 14 -1 106.04 119.96 o 0.801525
2 7 3 -1 2403.82 2466.53 o 0.801515
3 -1 12 1 338.10 344.01 o 0.800915
2 6 8 -1 0.01 0.01 o 0.800706
6 -2 4 0 22246.26 21893.66 o 0.800426
3 2 13 -1 1237.74 1188.41 o 0.800201
5 -3 6 1 1044.35 976.77 o 0.799968
1 -1 14 0 21744.90 20173.55 o 0.799964
2 4 8 1 1019.74 963.80 o 0.799351
4 6 4 -1 23.30 22.09 o 0.799297
1 1 14 0 21044.52 18764.12 o 0.799219
4 -5 5 1 98.60 87.15 o 0.799163
4 -2 10 1 108.48 99.65 o 0.799153
1 -2 13 -1 108.37 102.14 o 0.798524
6 -3 1 -1 310.56 273.07 o 0.798398
0 6 6 0 197.99 238.78 o 0.797449
3 -5 8 1 43.24 54.79 o 0.797421
0 5 11 -1 1706.97 2170.33 o 0.797072
6 -1 1 1 513.57 578.05 o 0.796387
5 -4 3 -1 36.41 39.34 o 0.796375
1 5 6 1 1027.85 1107.21 o 0.796254
6 0 8 -1 0.35 0.38 o 0.795428
5 -1 10 -1 27.58 28.70 o 0.795361
1 -1 14 1 290.61 312.89 o 0.795097
4 5 3 0 443.39 442.50 o 0.794895
2 6 4 0 16061.20 16031.33 o 0.794652
4 4 10 -1 21.02 20.97 o 0.794481
7 2 1 -1 2744.36 2739.05 o 0.794373
5 4 3 0 665.33 660.18 o 0.794035
6 0 6 0 173.22 169.24 o 0.793992
2 0 14 -1 154.22 137.14 o 0.793846
4 2 12 -1 8.88 8.75 o 0.793681
0 5 7 1 282.36 270.77 o 0.792959
5 -2 9 -1 592.61 576.23 o 0.792169
7 0 3 -1 1845.88 1816.11 o 0.792112
3 6 7 -1 3045.48 2961.43 o 0.791923
6 2 4 0 17329.94 16802.02 o 0.791609
1 -7 4 1 48.87 47.43 o 0.791535
0 7 5 -1 2111.71 2046.44 o 0.791491
0 4 10 1 128.14 123.74 o 0.791208
6 0 0 1 1553.87 1476.63 o 0.791015
4 -4 8 1 657.13 645.95 o 0.790524
6 4 4 -1 10.40 10.08 o 0.790172
6 -2 6 -1 12.24 9.18 o 0.788824
3 -6 1 0 1089.44 799.21 o 0.788600
1 -1 14 -1 108.33 78.77 o 0.787971
0 3 13 0 1849.11 1297.09 o 0.787929
4 -5 1 -1 14.44 10.89 o 0.787881
4 4 0 1 980.20 743.34 o 0.787817
3 -6 5 1 962.27 701.32 o 0.787668
6 -2 0 1 1093.84 757.49 o 0.787587
1 6 9 -1 2125.63 1555.03 o 0.787357
1 -3 12 -1 206.85 147.88 o 0.787290
3 0 13 0 23.06 17.40 o 0.787091
5 -1 8 1 119.75 93.28 o 0.786995
5 2 5 1 486.96 386.94 o 0.786371
6 -3 1 0 898.38 691.06 o 0.786087
2 2 12 1 635.32 629.66 o 0.785115
2 -7 1 1 1120.74 1114.61 o 0.784907
2 2 14 -1 35.71 35.68 o 0.784689
4 -4 8 0 22426.26 22411.42 o 0.784682
6 0 2 1 56.68 54.44 o 0.783587
6 2 8 -1 14.44 13.84 o 0.783400
6 -3 3 -1 498.95 498.55 o 0.783342
0 2 14 0 874.82 749.12 o 0.781857
7 1 4 -1 8.92 7.69 o 0.781612
3 -4 9 -1 8.38 7.39 o 0.781529
2 0 14 0 1374.78 1173.60 o 0.781493
2 -5 7 -1 10.14 9.51 o 0.781468
6 -1 3 1 166.00 142.99 o 0.781443
3 5 10 -1 11.63 10.29 o 0.781362
7 -1 2 -1 11.69 10.08 o 0.781339
4 4 2 1 4.16 4.20 o 0.780479
6 -2 2 1 0.61 0.71 o 0.780255
2 1 13 1 428.70 456.30 o 0.779680
7 2 3 -1 2443.12 2560.19 o 0.779540
4 -5 5 0 1182.70 1238.17 o 0.779417
2 -4 10 -1 277.25 282.90 o 0.779102
6 3 7 -1 2199.31 2243.12 o 0.778986
2 -5 9 0 1985.89 1914.61 o 0.778634
5 -4 5 0 502.46 493.58 o 0.778606
2 5 11 -1 1516.71 1521.94 o 0.778438
2 5 5 1 1047.65 1035.84 o 0.777974
5 0 11 -1 1208.87 1134.55 o 0.777234
5 -2 9 0 97.86 122.46 o 0.776752
1 2 13 1 51.28 55.09 o 0.776564
3 6 1 0 300.51 320.52 o 0.776045
1 -6 1 -1 336.55 338.29 o 0.775230
5 5 6 -1 0.88 0.91 o 0.775085
5 -4 5 1 52.68 56.17 o 0.774358
3 -6 3 0 1311.73 1306.99 o 0.774082
3 7 2 -1 31.21 29.50 o 0.774068
4 3 7 1 430.21 406.42 o 0.773977
0 6 0 1 909.72 856.22 o 0.773665
4 4 8 0 15595.68 14747.10 o 0.773656
6 3 1 0 524.88 496.21 o 0.773650
1 4 13 -1 1434.33 1355.72 o 0.773523
3 -5 6 -1 262.15 249.89 o 0.773483
4 -5 3 -1 10.72 10.33 o 0.773403
5 3 10 -1 10.47 9.84 o 0.773183
0 4 12 0 18746.11 17290.83 o 0.773133
3 2 11 1 835.13 785.45 o 0.772780
2 7 5 -1 2679.90 2502.79 o 0.771894
2 5 9 0 1127.62 1078.10 o 0.771847
4 0 12 0 19127.54 18355.21 o 0.771727
6 -3 3 0 894.16 856.88 o 0.771706
1 3 14 -1 89.61 85.76 o 0.771690
4 -1 11 1 0.41 0.39 o 0.771593
1 -6 9 1 1138.35 1092.72 o 0.771581
3 1 12 1 157.15 150.82 o 0.771395
3 4 7 1 1335.39 1281.98 o 0.771279
2 -7 3 1 1223.33 1073.68 o 0.770589
1 7 6 -1 1.33 1.23 o 0.770468
5 2 9 0 160.99 165.90 o 0.770012
2 3 11 1 34.28 34.17 o 0.769920
1 -5 8 -1 130.85 126.76 o 0.768861
1 -5 10 0 16963.24 16359.78 o 0.768788
2 -6 8 1 137.57 132.23 o 0.768544
5 -3 8 -1 23.67 22.87 o 0.768396
3 -5 8 0 756.35 726.23 o 0.768089
2 -3 13 1 81.42 79.56 o 0.767824
1 1 14 1 633.12 583.07 o 0.767506
6 1 9 -1 1653.17 1542.55 o 0.767356
5 -4 5 -1 159.31 149.58 o 0.767299
2 -4 12 1 245.56 228.21 o 0.767168
1 -6 7 0 1566.11 1456.11 o 0.767156
2 -6 6 0 231.54 217.12 o 0.766776
5 -1 10 0 20802.78 19326.50 o 0.766718
0 6 2 1 2.47 2.30 o 0.766711
5 -3 8 0 628.03 586.84 o 0.766710
5 2 11 -1 1343.85 1271.18 o 0.766656
5 3 2 1 1505.68 1407.96 o 0.766653
4 5 5 0 826.22 768.61 o 0.765976
1 3 12 1 257.10 232.07 o 0.765566
1 5 10 0 18053.97 16590.93 o 0.765500
6 1 1 1 617.47 558.77 o 0.765379
5 4 5 0 153.86 141.57 o 0.765206
4 -6 0 1 424.24 381.71 o 0.764710
3 1 14 -1 29.96 25.24 o 0.764489
6 -1 7 0 247.74 227.88 o 0.764161
6 -2 6 0 214.60 206.39 o 0.764041
4 5 9 -1 2879.41 2560.40 o 0.763887
2 -6 0 -1 915.40 781.26 o 0.763629
4 -4 8 -1 250.83 222.27 o 0.763574
7 0 5 -1 1407.69 1278.31 o 0.763484
5 1 10 0 15297.16 13868.04 o 0.763456
1 6 7 0 1160.97 1043.80 o 0.763239
4 6 6 -1 2.79 2.44 o 0.763058
6 0 4 1 1390.21 1132.68 o 0.762502
4 1 13 -1 982.90 668.48 o 0.762466
3 6 3 0 923.74 620.50 o 0.762197
3 5 2 1 1372.78 858.18 o 0.761603
1 -6 3 -1 806.75 504.35 o 0.761426
0 1 15 -1 538.38 384.26 o 0.761284
3 -3 12 1 153.13 112.25 o 0.761189
7 -1 4 -1 2.14 1.23 o 0.760430
6 1 7 0 353.90 202.87 o 0.760290
5 4 9 -1 2579.73 1392.03 o 0.759951
6 3 3 0 382.11 199.44 o 0.759929
4 4 4 1 1570.01 839.43 o 0.759637
6 -2 4 1 1211.16 615.04 o 0.759430
6 -3 1 1 51.81 24.21 o 0.759204
3 -3 12 0 986.38 477.95 o 0.759092
2 6 6 0 139.21 65.18 o 0.759014
3 5 8 0 135.09 79.38 o 0.758373
1 0 15 -1 61.91 40.93 o 0.758051
4 -6 2 1 5.78 3.85 o 0.757993
7 3 2 -1 20.03 13.65 o 0.757735
5 1 8 1 170.78 117.31 o 0.757664
3 -4 11 1 87.34 62.57 o 0.757541
1 -4 13 1 631.10 456.74 o 0.757280
5 3 8 0 72.02 61.00 o 0.757046
2 -6 2 -1 38.01 31.06 o 0.756940
1 -4 11 -1 369.57 305.94 o 0.756839
5 6 1 -1 3027.72 2485.72 o 0.756827
2 -3 13 0 2475.82 2163.91 o 0.756403
6 2 6 0 141.77 119.28 o 0.756360
1 -7 6 1 63.79 53.22 o 0.756296
0 1 15 0 11.55 9.95 o 0.756288
4 -5 7 1 231.78 199.41 o 0.756272
1 0 15 0 2039.79 1803.97 o 0.756206
3 -2 13 0 3.69 3.27 o 0.755991
1 5 12 -1 0.00 0.00 o 0.755776
6 -3 5 -1 307.43 253.91 o 0.755622
6 4 6 -1 1.39 1.14 o 0.755107
0 6 10 -1 6.63 3.71 o 0.754950
1 -3 14 1 159.76 55.94 o 0.754932
2 0 14 1 326.77 126.31 o 0.754838
3 3 10 1 881.85 419.55 o 0.754667
6 -1 5 1 521.33 269.15 o 0.753917
3 7 4 -1 3.34 1.21 o 0.753721
3 3 12 0 621.80 249.59 o 0.753421
6 5 1 -1 3494.06 1473.94 o 0.752836
2 3 13 0 1258.12 482.20 o 0.752648
1 6 1 1 881.68 368.99 o 0.752593
3 2 13 0 116.12 48.34 o 0.752242
7 2 5 -1 2109.82 872.63 o 0.752208
6 1 3 1 585.48 241.40 o 0.752086
5 -5 2 1 708.66 330.15 o 0.751900
7 -2 1 -1 859.61 368.74 o 0.751723
3 -2 13 -1 280.59 130.92 o 0.751657
5 0 9 1 39.35 20.70 o 0.751310
3 0 13 1 35.50 26.70 o 0.750817
1 2 15 -1 282.83 217.00 o 0.750681
0 7 1 0 652.06 520.13 o 0.750570
5 -3 8 1 180.29 144.52 o 0.750437
2 -2 14 0 1050.15 836.12 o 0.750409
0 7 7 -1 1683.29 1270.84 o 0.749760
2 -2 14 1 208.80 146.79 o 0.749393
0 2 14 1 256.20 253.53 o 0.749053
0 6 8 0 15155.36 14652.97 o 0.748357
2 2 14 0 1131.97 1107.16 o 0.747959
5 -2 9 1 0.44 0.40 o 0.747762
7 1 6 -1 1.26 1.24 o 0.747626
2 -5 11 1 694.35 666.05 o 0.747568
4 -2 12 -1 99.85 97.70 o 0.747459
2 1 15 -1 552.70 541.38 o 0.747421
1 5 8 1 196.85 195.38 o 0.747369
3 -6 5 0 207.01 198.28 o 0.747300
0 6 4 1 873.61 883.92 o 0.746925
5 3 4 1 127.38 133.90 o 0.746871
4 -5 5 -1 61.72 59.79 o 0.746689
6 -1 9 -1 770.35 828.68 o 0.746676
7 0 1 0 293.44 329.42 o 0.746651
3 -6 7 1 500.15 533.96 o 0.746507
6 -3 3 1 34.73 36.35 o 0.746224
3 -2 13 1 161.28 182.50 o 0.746062
6 0 8 0 15834.90 15418.38 o 0.745497
5 2 7 1 935.90 903.96 o 0.745403
6 -3 5 0 756.85 716.49 o 0.745162
4 1 11 1 32.82 30.91 o 0.744491
2 -7 5 1 947.11 912.36 o 0.744156
5 6 3 -1 2754.06 2655.81 o 0.743967
5 -5 2 0 19272.69 19038.93 o 0.743893
2 -4 12 0 17979.52 17410.76 o 0.743883
3 -4 11 0 1791.87 1784.15 o 0.743595
4 -3 11 0 9.61 9.77 o 0.743047
4 -2 12 0 17791.87 18137.47 o 0.742943
3 -3 12 -1 92.50 90.44 o 0.742862
0 3 13 1 523.67 531.63 o 0.742559
4 2 10 1 147.55 153.25 o 0.742302
3 -1 14 -1 204.37 201.82 o 0.742239
3 5 4 1 113.53 116.13 o 0.742199
5 1 12 -1 13.63 15.72 o 0.741793
6 -2 8 -1 68.14 69.27 o 0.741214
1 -5 12 1 59.12 59.60 o 0.741196
4 -1 13 -1 275.58 279.43 o 0.740980
0 5 11 0 65.17 65.53 o 0.740723
1 -7 2 0 15946.72 15955.69 o 0.740403
1 0 15 1 91.68 90.50 o 0.740367
6 5 3 -1 2485.74 2618.85 o 0.740174
1 6 3 1 685.37 719.07 o 0.739943
4 -5 7 0 179.35 192.02 o 0.739472
2 4 12 0 14859.40 16169.89 o 0.739131
7 -2 3 -1 631.16 672.13 o 0.739116
4 -6 4 1 397.57 425.45 o 0.738857
5 0 11 0 1413.64 1491.80 o 0.738793
5 -4 7 0 1290.15 1375.24 o 0.738779
7 3 4 -1 17.02 18.11 o 0.738618
2 6 10 -1 16.18 17.21 o 0.738473
0 5 9 1 837.13 892.85 o 0.738436
2 5 7 1 257.76 272.65 o 0.738240
4 2 12 0 15147.00 15265.26 o 0.738209
0 7 3 0 592.39 610.02 o 0.738020
2 -6 4 -1 538.45 562.33 o 0.737882
3 6 9 -1 2234.44 2275.18 o 0.737599
2 -2 14 -1 159.18 167.66 o 0.737584
0 1 15 1 142.92 147.49 o 0.737545
2 4 10 1 186.21 191.51 o 0.737410
1 4 11 1 699.49 718.19 o 0.736896
7 -1 2 0 14493.02 14793.41 o 0.736717
3 6 5 0 166.31 171.00 o 0.736591
3 4 11 0 779.20 798.21 o 0.736509
4 -3 11 1 211.36 216.33 o 0.736465
1 7 2 0 12128.37 12356.97 o 0.736298
4 -3 11 -1 309.00 321.45 o 0.736049
4 3 11 0 79.09 80.76 o 0.735976
1 -6 5 -1 170.64 173.28 o 0.735894
3 -5 10 1 437.22 443.19 o 0.735894
4 -6 0 0 20772.93 21587.29 o 0.735848
1 -3 14 0 16838.89 17666.13 o 0.735554
5 -4 7 1 0.04 0.04 o 0.735148
3 -1 14 0 16209.14 15648.24 o 0.734948
1 -2 15 1 124.41 122.08 o 0.734649
6 3 5 0 338.44 329.53 o 0.734542
3 -6 1 -1 196.49 193.55 o 0.734430
6 -4 0 0 20358.49 19822.96 o 0.734334
6 0 10 -1 19.43 18.93 o 0.734327
7 0 3 0 802.09 767.75 o 0.734294
1 3 14 0 15266.03 14962.81 o 0.733821
3 1 14 0 15956.21 14805.56 o 0.733219
3 -7 2 1 228.88 214.99 o 0.733212
5 -5 4 1 47.11 44.10 o 0.733211
2 7 7 -1 2145.41 2028.29 o 0.733038
6 -4 0 -1 123.11 116.41 o 0.732969
7 1 2 0 13853.99 12815.07 o 0.732672
2 -3 13 -1 12.76 11.24 o 0.731951
4 7 1 -1 3133.38 2829.48 o 0.731386
6 0 6 1 56.12 59.54 o 0.730850
6 2 0 1 1099.73 1028.33 o 0.730721
4 -4 10 1 117.54 127.51 o 0.730463
0 4 14 -1 70.32 61.03 o 0.729995
4 -6 2 0 13.87 11.64 o 0.729858
5 5 8 -1 2.54 2.15 o 0.729782
5 5 2 0 10577.73 8748.88 o 0.729337
4 0 12 1 593.50 485.71 o 0.729153
2 -5 9 -1 296.27 245.48 o 0.729129
5 -4 7 -1 65.93 54.52 o 0.729100
7 -1 6 -1 3.29 2.70 o 0.729025
3 -5 8 -1 54.11 44.52 o 0.728444
6 -4 2 0 49.17 40.72 o 0.728380
4 4 6 1 67.30 55.52 o 0.728326
6 -2 6 1 59.16 56.43 o 0.728144
4 5 7 0 150.02 127.69 o 0.727964
5 -1 10 1 940.50 786.94 o 0.727676
6 1 5 1 999.03 862.02 o 0.727452
1 -2 15 0 1254.80 1043.79 o 0.727376
3 4 13 -1 1474.59 1276.91 o 0.727307
5 4 7 0 444.93 379.70 o 0.727303
0 8 0 -1 71.95 62.73 o 0.727267
2 -1 15 0 29.25 24.25 o 0.727156
6 3 9 -1 2357.63 2041.98 o 0.727113
6 -4 2 -1 4.43 4.12 o 0.727048
1 -4 13 0 1.65 1.50 o 0.726651
3 3 14 -1 3.08 3.00 o 0.726340
1 2 15 0 1708.04 1820.40 o 0.726257
2 1 15 0 21.16 21.99 o 0.726038
2 -1 15 -1 447.57 442.79 o 0.726031
1 7 8 -1 4.77 4.41 o 0.725924
5 -2 11 -1 201.45 192.85 o 0.725868
4 -4 10 0 560.15 548.16 o 0.725846
7 0 7 -1 1429.00 1380.80 o 0.725824
5 -5 4 0 309.81 296.42 o 0.725780
4 -1 13 0 1725.81 1640.21 o 0.725557
2 -7 1 0 852.88 789.46 o 0.725382
4 -2 12 1 679.19 621.22 o 0.725351
0 3 15 -1 748.12 687.21 o 0.725252
6 2 2 1 2.45 2.35 o 0.724854
6 2 10 -1 1.03 0.96 o 0.724831
1 8 1 -1 1872.81 1773.40 o 0.724654
1 4 13 0 72.11 70.57 o 0.724425
4 3 13 -1 1633.49 1432.22 o 0.724052
4 1 13 0 945.90 878.58 o 0.723341
3 7 6 -1 20.55 19.14 o 0.723108
5 -5 2 -1 166.95 156.83 o 0.723103
4 3 9 1 985.96 922.33 o 0.723033
2 -6 8 0 15735.30 14589.50 o 0.722833
6 -4 0 1 1141.85 1075.13 o 0.722696
3 -6 3 -1 147.57 138.31 o 0.722660
1 -7 4 0 59.86 56.84 o 0.722538
5 -1 12 -1 3.64 3.39 o 0.722512
4 6 0 0 10752.30 10272.40 o 0.722300
1 6 11 -1 1720.12 1633.39 o 0.722161
6 -3 5 1 86.62 79.99 o 0.722144
7 -2 1 0 257.69 238.78 o 0.722130
2 6 0 1 868.61 842.56 o 0.722046
4 4 12 -1 0.04 0.04 o 0.721852
0 8 2 -1 0.26 0.26 o 0.721482
6 4 0 0 11867.21 11698.97 o 0.720867
3 4 9 1 160.65 158.33 o 0.720832
7 4 1 -1 2474.36 2447.43 o 0.720731
6 -2 8 0 15784.21 15662.07 o 0.720540
5 6 5 -1 2903.17 2886.34 o 0.720098
4 7 3 -1 2561.52 2559.61 o 0.719760
4 6 8 -1 2.81 2.80 o 0.719716
0 4 12 1 478.16 460.52 o 0.719395
7 -1 4 0 103.64 125.57 o 0.719111
6 -3 7 -1 426.76 442.03 o 0.719059
1 7 4 0 46.36 50.84 o 0.718721
0 5 13 -1 915.80 1144.85 o 0.718090
4 0 14 -1 39.92 52.10 o 0.717935
2 7 1 0 292.00 330.86 o 0.717720
3 -4 11 -1 36.36 39.15 o 0.717656
6 -1 7 1 81.00 87.70 o 0.717590
1 -6 9 0 72.41 75.24 o 0.717463
0 6 6 1 81.18 83.64 o 0.717100
4 4 10 0 254.55 266.94 o 0.717093
5 3 6 1 956.54 984.33 o 0.717052
6 -4 2 1 4.95 5.16 o 0.717018
6 5 5 -1 2545.26 2623.51 o 0.716657
4 6 2 0 0.76 0.78 o 0.716631
3 0 15 -1 281.03 287.20 o 0.716535
0 0 16 0 13520.51 13901.93 o 0.716449
1 6 5 1 574.92 592.41 o 0.716447
2 6 2 1 1.82 1.88 o 0.716383
2 6 8 0 11937.80 12253.20 o 0.716320
2 4 14 -1 29.14 30.10 o 0.716135
7 2 7 -1 1886.90 1941.76 o 0.716115
3 -7 4 1 1.69 1.76 o 0.715851
7 -2 5 -1 837.74 870.44 o 0.715697
2 -1 15 1 128.68 123.68 o 0.715659
2 -5 11 0 27.37 28.41 o 0.715413
7 1 4 0 63.36 62.55 o 0.715348
3 -1 14 1 415.94 482.63 o 0.715261
6 4 2 0 0.57 0.58 o 0.715232
6 -1 9 0 869.06 909.29 o 0.715012
1 1 16 -1 128.74 138.31 o 0.714791
0 7 5 0 567.35 610.40 o 0.714701
7 2 1 0 412.93 406.51 o 0.714570
1 6 9 0 79.96 77.68 o 0.714257
6 2 8 0 12027.64 11350.79 o 0.714088
2 -7 3 0 213.70 200.84 o 0.714036
1 -7 8 1 7.42 7.02 o 0.714034
5 -2 11 0 1437.06 1372.21 o 0.713952
1 -8 1 1 1592.34 1586.45 o 0.713354
1 8 3 -1 2013.39 2016.26 o 0.713341
1 -5 10 -1 390.27 392.72 o 0.713269
6 4 8 -1 0.68 0.69 o 0.713033
2 -6 10 1 21.74 21.64 o 0.713016
3 5 6 1 826.68 848.74 o 0.712915
5 -3 10 -1 116.72 117.11 o 0.712899
4 -6 4 0 14901.41 15287.25 o 0.712728
3 -5 10 0 15841.74 16425.56 o 0.712653
5 5 4 0 0.00 0.00 o 0.712243
2 3 15 -1 1088.81 1173.15 o 0.712181
3 5 12 -1 16.19 17.42 o 0.711970
3 -6 7 0 859.79 916.30 o 0.711877
6 1 9 0 564.64 603.82 o 0.711838
5 -3 10 0 14921.33 16542.57 o 0.711551
2 8 0 -1 0.42 0.45 o 0.711450
6 -4 4 0 15360.58 17205.36 o 0.711352
4 -5 7 -1 5.23 5.68 o 0.711348
7 0 5 0 117.01 130.70 o 0.711315
7 -2 3 0 599.84 677.45 o 0.710933
0 0 16 1 176.45 263.74 o 0.710357
2 -4 12 -1 262.62 299.93 o 0.710258
2 5 11 0 119.29 163.14 o 0.710137
6 -4 4 -1 93.90 105.96 o 0.710111
4 2 14 -1 12.83 17.31 o 0.710095
6 -3 7 0 59.12 79.94 o 0.710027
4 -6 6 1 29.63 38.43 o 0.709951
1 -6 11 1 788.25 1054.79 o 0.709930
7 3 6 -1 27.72 36.40 o 0.709739
7 4 3 -1 2534.67 3223.82 o 0.709598
3 2 15 -1 787.25 938.64 o 0.709260
2 -7 7 1 938.39 1086.70 o 0.709157
2 -6 6 -1 42.05 49.80 o 0.709086
4 -4 10 -1 25.15 28.57 o 0.709042
5 2 11 0 520.96 541.99 o 0.708708
4 -5 9 1 139.10 136.61 o 0.708537
1 -2 15 -1 33.87 29.00 o 0.708091
6 2 4 1 1147.22 1147.26 o 0.708066
5 4 1 1 873.36 829.32 o 0.708034
2 7 3 0 168.88 146.72 o 0.706724
7 1 8 -1 13.49 11.99 o 0.706724
6 1 11 -1 1435.22 1245.65 o 0.706635
5 -5 4 -1 9.31 8.58 o 0.706434
4 5 1 1 1046.41 1061.87 o 0.706101
2 8 2 -1 14.94 14.69 o 0.706032
5 3 12 -1 6.82 6.92 o 0.705765
1 -3 14 -1 428.40 421.05 o 0.705507
5 -5 6 1 479.49 458.42 o 0.704937
0 8 4 -1 2.55 2.38 o 0.704922
3 5 10 0 10020.65 9467.02 o 0.704872
0 2 16 -1 85.51 81.10 o 0.704791
2 5 13 -1 1472.28 1406.33 o 0.704375
5 1 10 1 657.29 631.63 o 0.704303
2 2 14 1 213.32 200.46 o 0.703940
4 5 11 -1 1766.98 1655.19 o 0.703923
5 3 10 0 10785.38 10052.38 o 0.703806
7 -3 2 -1 12.72 12.00 o 0.703762
1 -1 16 0 720.14 685.57 o 0.703729
7 2 3 0 159.73 148.66 o 0.703716
5 0 13 -1 815.91 768.31 o 0.703483
1 1 16 0 1497.89 1324.04 o 0.703222
0 7 9 -1 1441.46 1387.49 o 0.703173
3 6 7 0 420.79 388.94 o 0.702601
1 -8 3 1 1416.02 1251.51 o 0.702554
1 -5 12 0 640.03 654.24 o 0.702418
8 1 1 -1 1995.75 2079.09 o 0.702051
1 -6 7 -1 513.96 488.87 o 0.701996
8 0 0 -1 0.26 0.27 o 0.701862
5 4 11 -1 2314.96 2019.59 o 0.700840
5 -1 12 0 601.86 573.61 o 0.700838
6 3 7 0 17.21 15.12 o 0.700822
6 -4 4 1 573.01 547.67 o 0.700757
3 -6 5 -1 29.22 25.49 o 0.700725
0 3 15 0 0.30 0.28 o 0.700672
3 -6 9 1 518.88 453.03 o 0.700488
1 -1 16 1 166.29 142.85 o 0.700409
4 6 4 0 8566.98 7329.81 o 0.700396
3 2 13 1 26.02 22.21 o 0.700175
2 6 4 1 956.29 817.23 o 0.700164
3 0 15 0 1146.64 957.99 o 0.700082
1 5 12 0 531.59 436.63 o 0.699907
5 2 9 1 203.99 168.94 o 0.699576
2 0 16 -1 85.21 65.66 o 0.699553
4 -1 13 1 159.09 126.67 o 0.699292
6 4 4 0 8150.64 6810.99 o 0.699090
5 -3 10 1 649.42 558.12 o 0.698487
5 1 12 0 466.15 401.50 o 0.698344
5 -5 6 0 15306.45 13090.13 o 0.698326
4 -6 0 -1 228.86 194.85 o 0.698310
4 7 5 -1 2321.50 1985.98 o 0.698080
2 3 13 1 431.12 373.66 o 0.698046
5 4 3 1 1046.33 907.81 o 0.697471
0 6 10 0 648.60 409.47 o 0.696808
8 0 2 -1 4.69 2.99 o 0.696658
1 5 10 1 673.69 519.28 o 0.696010
4 5 3 1 681.42 532.39 o 0.695622
5 2 13 -1 1289.15 1006.67 o 0.695611
1 -1 16 -1 163.00 125.92 o 0.695523
1 -7 6 0 11290.43 8836.25 o 0.695437
0 4 14 0 1232.38 966.94 o 0.695265
2 1 15 1 42.28 30.56 o 0.694852
4 -5 9 0 967.85 784.25 o 0.694665
6 1 7 1 315.50 259.38 o 0.694656
6 0 10 0 132.82 111.31 o 0.694498
4 0 14 0 414.76 410.62 o 0.694242
5 -4 9 0 179.94 169.87 o 0.694091
5 0 11 1 532.68 519.70 o 0.694045
3 1 14 1 471.05 446.85 o 0.694000
2 5 9 1 918.24 901.51 o 0.693643
5 -6 1 1 236.47 217.70 o 0.693535
2 2 16 -1 108.77 97.60 o 0.693262
4 -6 2 -1 0.21 0.20 o 0.693184
2 -7 5 0 879.17 837.71 o 0.692854
1 2 15 1 213.20 205.58 o 0.692644
8 2 0 -1 57.55 54.06 o 0.692587
6 0 8 1 747.61 704.82 o 0.692503
7 -1 6 0 14663.63 13838.58 o 0.692380
1 8 5 -1 2098.29 1981.66 o 0.692219
1 7 6 0 11170.21 10368.47 o 0.692032
0 6 12 -1 19.12 18.16 o 0.691817
8 1 3 -1 1642.27 1568.47 o 0.691749
3 3 12 1 255.57 235.25 o 0.691599
0 2 16 0 14091.10 12952.54 o 0.691307
5 -2 11 1 161.88 147.58 o 0.691245
5 -4 9 1 75.53 68.88 o 0.691077
2 0 16 0 14217.84 12957.99 o 0.691055
6 -2 10 -1 1.19 1.08 o 0.691031
7 -1 8 -1 0.01 0.01 o 0.690949
2 -4 14 1 30.35 27.60 o 0.690918
3 -7 2 0 13376.09 12256.00 o 0.690825
2 -8 0 1 11.99 10.86 o 0.690514
2 8 4 -1 0.05 0.04 o 0.690491
1 4 15 -1 709.01 641.71 o 0.690483
6 -1 11 -1 735.78 658.97 o 0.690387
4 4 8 1 960.82 886.39 o 0.690355
6 -2 8 1 849.66 826.04 o 0.690199
6 -3 7 1 0.08 0.09 o 0.690030
7 -2 5 0 313.52 325.11 o 0.690018
1 3 14 1 344.42 337.79 o 0.689747
3 -7 6 1 168.39 156.86 o 0.689468
2 7 9 -1 1914.32 1818.57 o 0.689324
6 6 0 -1 1.36 1.32 o 0.689100
7 1 6 0 9664.72 9052.00 o 0.689019
7 4 5 -1 2291.64 2204.89 o 0.688797
3 -4 13 1 393.55 370.71 o 0.688780
7 -3 4 -1 11.54 11.06 o 0.688367
7 -3 2 0 14559.69 13963.40 o 0.688325
1 -4 13 -1 4.97 4.80 o 0.688253
5 6 7 -1 2711.21 2608.11 o 0.688244
7 -1 2 1 943.35 960.91 o 0.687773
8 2 2 -1 4.67 4.64 o 0.687585
8 -1 1 -1 890.54 821.29 o 0.687053
4 -6 6 0 130.87 111.52 o 0.686677
3 -3 14 1 403.45 344.19 o 0.686540
7 0 1 1 475.67 393.94 o 0.686520
2 -3 15 1 409.43 346.24 o 0.686420
5 5 6 0 7779.08 6213.01 o 0.686243
2 7 5 0 646.95 519.76 o 0.686168
4 -7 1 1 519.27 408.83 o 0.686105
5 -4 9 -1 173.69 145.73 o 0.686045
3 7 8 -1 0.55 0.45 o 0.685906
6 3 1 1 1114.62 903.38 o 0.685839
2 -8 2 1 0.03 0.03 o 0.685556
6 -4 6 0 159.35 128.99 o 0.685446
6 5 7 -1 2073.61 1679.46 o 0.685238
4 5 9 0 498.43 398.06 o 0.685099
1 6 7 1 1096.14 881.24 o 0.685055
3 -3 14 0 13536.76 11204.57 o 0.685001
7 -2 1 1 110.60 90.98 o 0.684743
5 4 9 0 31.76 26.09 o 0.684548
7 -2 7 -1 654.56 538.47 o 0.684398
3 8 1 -1 2507.51 2060.33 o 0.684367
6 -4 6 -1 16.23 13.31 o 0.684336
1 3 16 -1 18.72 13.63 o 0.684250
6 6 2 -1 1.59 1.32 o 0.684173
0 5 11 1 16.93 12.55 o 0.683858
5 -6 3 1 89.04 75.91 o 0.683599
0 7 7 0 44.54 36.29 o 0.683528
7 2 5 0 91.11 74.20 o 0.683413
7 0 9 -1 1302.05 1026.31 o 0.683315
3 6 11 -1 1915.02 1619.97 o 0.683193
4 1 15 -1 1157.61 948.81 o 0.682584
1 5 14 -1 21.53 18.62 o 0.682561
6 2 6 1 74.57 67.99 o 0.682504
1 -8 5 1 1199.73 1074.40 o 0.682349
4 2 12 1 812.02 856.52 o 0.682044
5 5 10 -1 4.36 4.05 o 0.681739
8 0 4 -1 5.63 5.75 o 0.681715
1 1 16 1 183.29 188.76 o 0.681328
2 -5 13 1 362.71 338.63 o 0.681259
5 -5 6 -1 240.15 217.13 o 0.681043
3 7 2 0 8140.31 7310.29 o 0.680954
3 3 14 0 10699.75 9576.39 o 0.680825
0 6 8 1 656.19 593.59 o 0.680772
5 3 8 1 52.46 47.41 o 0.680731
3 -5 10 -1 335.66 303.97 o 0.680648
3 6 1 1 731.60 661.37 o 0.680607
7 0 7 0 411.43 361.34 o 0.680564
0 8 6 -1 1.55 1.18 o 0.679687
3 1 16 -1 34.70 33.15 o 0.679214
2 6 12 -1 3.43 3.01 o 0.679071
4 1 13 1 500.33 457.66 o 0.678928
1 -4 15 1 271.11 236.91 o 0.678856
1 7 10 -1 35.41 30.98 o 0.678591
7 3 2 0 8408.51 7348.02 o 0.678559
4 -6 4 -1 309.98 268.49 o 0.678458
5 -6 1 0 408.43 349.36 o 0.678258
3 -4 13 0 41.55 36.46 o 0.678247
2 4 12 1 679.61 584.32 o 0.678243
2 -3 15 0 1.41 1.21 o 0.678224
3 -2 15 0 1570.07 1286.82 o 0.677927
4 -3 13 0 853.45 693.23 o 0.677831
5 4 5 1 608.62 525.07 o 0.677689
6 -3 9 -1 214.36 179.68 o 0.677661
6 -5 1 0 572.04 456.76 o 0.677605
8 -1 3 -1 1059.34 853.00 o 0.677388
3 5 8 1 43.64 36.00 o 0.677188
3 -5 12 1 47.90 36.57 o 0.677063
6 -5 1 1 3.19 2.46 o 0.677018
7 0 3 1 707.42 577.69 o 0.676878
4 -7 3 1 328.02 297.96 o 0.676480
2 -5 11 -1 0.03 0.00 o 0.676446
6 -1 9 1 280.93 260.43 o 0.676430
4 -2 14 -1 45.19 42.40 o 0.676416
3 -7 4 0 128.59 122.72 o 0.676246
6 3 3 1 563.34 524.10 o 0.676225
0 5 13 0 1129.99 1115.53 o 0.676066
2 -6 10 0 200.69 198.28 o 0.676064
4 5 5 1 1271.29 1142.10 o 0.675993
5 7 2 -1 4.56 4.06 o 0.675976
6 -4 6 1 53.70 51.21 o 0.675952
6 0 12 -1 0.62 0.60 o 0.675843
4 6 6 0 73.72 65.74 o 0.675628
2 3 15 0 25.57 23.31 o 0.675513
2 6 6 1 50.04 46.27 o 0.675420
3 2 15 0 871.38 744.50 o 0.675220
7 2 9 -1 1377.31 1263.59 o 0.675195
7 -2 3 1 248.91 217.07 o 0.675174
6 3 11 -1 1361.11 1191.16 o 0.674835
3 8 3 -1 2155.34 1950.77 o 0.674814
3 -2 15 -1 7.37 6.38 o 0.674796
4 -6 8 1 284.95 236.88 o 0.674647
5 0 13 0 15.70 12.97 o 0.674598
7 3 8 -1 18.95 16.52 o 0.674465
6 4 6 0 79.63 67.92 o 0.674455
3 0 15 1 131.21 124.22 o 0.674188
6 -2 10 0 633.94 600.13 o 0.674187
2 -6 8 -1 287.52 249.93 o 0.673904
7 -3 4 0 74.40 65.78 o 0.673901
2 -4 14 0 538.39 444.24 o 0.673762
0 7 1 1 822.58 772.34 o 0.673642
4 6 10 -1 13.98 13.72 o 0.673512
7 -1 4 1 27.84 26.97 o 0.673383
8 2 4 -1 0.90 0.93 o 0.673206
1 4 13 1 21.27 22.43 o 0.673152
4 -2 14 0 1037.87 1038.29 o 0.673063
3 -3 14 -1 69.71 73.76 o 0.673003
3 4 13 0 0.00 0.00 o 0.672857
4 -4 12 1 265.71 273.96 o 0.672826
4 -3 13 1 11.68 12.04 o 0.672824
1 -7 2 -1 578.01 587.61 o 0.672571
4 -3 13 -1 6.84 7.21 o 0.672507
1 -3 16 1 121.68 128.81 o 0.672486
4 3 13 0 827.01 869.89 o 0.672451
8 1 5 -1 1384.33 1488.37 o 0.672437
2 0 16 1 372.02 413.53 o 0.672419
0 1 17 -1 11.54 13.11 o 0.672291
5 1 14 -1 2.65 2.79 o 0.672208
1 -5 14 1 124.18 141.43 o 0.671764
3 -6 9 0 158.77 168.07 o 0.671639
4 3 11 1 73.84 79.03 o 0.671570
2 -8 4 1 164.62 173.21 o 0.671302
3 -6 7 -1 157.61 179.28 o 0.671271
3 6 3 1 1239.10 1447.02 o 0.671209
4 -5 9 -1 13.50 15.63 o 0.671195
3 -2 15 1 53.34 67.46 o 0.670739
2 6 10 0 136.37 173.54 o 0.670726
5 -1 12 1 113.99 152.44 o 0.670647
5 -5 8 1 11.46 13.13 o 0.670340
2 4 14 0 326.32 374.45 o 0.670225
7 5 2 -1 16.70 15.21 o 0.670200
6 -3 9 0 1016.06 1141.39 o 0.670085
1 0 17 -1 390.44 443.83 o 0.670061
6 6 4 -1 26.98 24.50 o 0.670002
8 3 1 -1 1945.15 1773.07 o 0.669961
3 4 11 1 989.14 900.16 o 0.669805
4 2 14 0 657.06 594.80 o 0.669537
2 -7 9 1 843.35 757.71 o 0.669354
2 -2 16 0 11798.31 10516.61 o 0.669283
4 -4 12 0 11530.20 10297.95 o 0.669214
5 -6 3 0 620.21 557.67 o 0.668955
4 7 7 -1 1836.73 1673.56 o 0.668945
6 2 10 0 335.94 299.23 o 0.668893
1 -7 10 1 64.56 57.79 o 0.668848
0 1 17 0 1001.11 826.84 o 0.668843
1 0 17 0 28.64 23.39 o 0.668786
2 -2 16 1 217.67 198.29 o 0.668561
6 2 12 -1 5.98 5.21 o 0.668418
6 -5 3 0 179.43 167.78 o 0.668328
0 2 16 1 256.79 254.79 o 0.668320
0 3 15 1 16.35 17.20 o 0.668190
6 4 10 -1 4.63 4.26 o 0.668025
6 -5 1 -1 61.80 53.50 o 0.667961
6 -5 3 1 15.17 15.69 o 0.667765
2 2 16 0 10630.91 10511.31 o 0.667543
2 -7 1 -1 287.67 271.95 o 0.667418
1 -6 11 0 675.72 604.10 o 0.667100
7 1 2 1 952.50 913.33 o 0.667071
4 -1 15 -1 355.01 327.04 o 0.667039
3 7 4 0 24.01 21.84 o 0.666979
2 8 6 -1 3.46 3.24 o 0.666723
6 -1 11 0 21.28 18.81 o 0.665128
5 6 1 0 205.40 148.27 o 0.665018
1 2 17 -1 459.71 331.28 o 0.664955
5 -6 5 1 119.07 84.63 o 0.664943
7 -3 6 -1 61.91 39.38 o 0.664811
7 3 4 0 0.86 0.57 o 0.664728
5 -2 13 -1 445.96 326.37 o 0.664715
5 -5 8 0 58.69 42.59 o 0.664647
8 -2 0 -1 9.10 5.45 o 0.664626
0 7 3 1 401.74 226.29 o 0.664525
1 6 11 0 806.66 536.98 o 0.664520
6 5 1 0 151.50 84.28 o 0.664402
2 -7 7 0 213.15 114.45 o 0.664342
3 6 9 0 76.50 38.22 o 0.663832
7 -3 2 1 778.46 361.82 o 0.663821
1 8 7 -1 2065.67 1069.90 o 0.663782
3 -1 16 -1 60.56 26.76 o 0.663467
1 -6 9 -1 130.91 65.41 o 0.663322
loop_
_jana_atom_site_occ_fourier_absolute_site_label
_jana_atom_site_occ_fourier_absolute
Eu 0.5
Ca 0.25
