#------------------------------------------------------------------------------
#$Date: 2016-02-13 21:28:24 +0200 (Sat, 13 Feb 2016) $
#$Revision: 176429 $
#$URL: svn://www.crystallography.net/cod/cif/4/34/42/4344204.cif $
#------------------------------------------------------------------------------
#
# This file is available in the Crystallography Open Database (COD),
# http://www.crystallography.net/
#
# All data on this site have been placed in the public domain by the
# contributors.
#
data_4344204
loop_
_publ_author_name
'Abakumov, Artem M.'
'Morozov, Vladimir A.'
'Tsirlin, Alexander A.'
'Verbeeck, Johan'
'Hadermann, Joke'
_publ_section_title
;
 Cation Ordering and Flexibility of the BO4(2-) Tetrahedra in
 Incommensurately Modulated CaEu2(BO4)4 (B = Mo, W) Scheelites.
;
_journal_name_full               'Inorganic chemistry'
_journal_page_first              140821103327002
_journal_paper_doi               10.1021/ic5015412
_journal_year                    2014
_chemical_formula_sum            'Ca Eu2 Mo4 O16'
_chemical_formula_weight         983.7
_chemical_name_systematic        ' ?'
_space_group_IT_number           88
_symmetry_cell_setting           tetragonal
_symmetry_space_group_name_Hall  'I 4bw -1bw'
_symmetry_space_group_name_H-M   'I 41/a :1'
_cell_angle_alpha                90
_cell_angle_beta                 90
_cell_angle_gamma                90
_cell_formula_units_Z            1
_cell_length_a                   5.238670(10)
_cell_length_b                   5.238670(10)
_cell_length_c                   11.54843(2)
_cell_measurement_temperature    293
_cell_modulation_dimension       2
_cell_volume                     316.9312(10)
_diffrn_ambient_temperature      293
_diffrn_measurement_device_type  synchrotron
_diffrn_radiation_probe          x-ray
_diffrn_radiation_wavelength     0.39996
_exptl_absorpt_coefficient_mu    7.434
_exptl_crystal_density_diffrn    5.1526
_exptl_crystal_F_000             442
_pd_char_colour                  white
_pd_instr_location               ' ?'
_pd_meas_2theta_range_inc        0.002
_pd_meas_2theta_range_max        40.000
_pd_meas_2theta_range_min        1.002
_pd_meas_number_of_points        19500
_pd_proc_2theta_range_inc        0.002
_pd_proc_2theta_range_max        40
_pd_proc_2theta_range_min        2.204
_pd_proc_ls_background_function  '20 Legendre polynoms'
_pd_proc_ls_pref_orient_corr     none
_pd_proc_ls_profile_function     Pseudo-Voigt
_pd_proc_ls_prof_R_factor        0.0823
_pd_proc_ls_prof_wR_expected     0.0729
_pd_proc_ls_prof_wR_factor       0.1133
_refine_ls_goodness_of_fit_all   1.55
_refine_ls_number_constraints    4
_refine_ls_number_parameters     57
_refine_ls_number_restraints     0
_refine_ls_R_factor_all          0.0609
_refine_ls_R_factor_gt           0.0609
_refine_ls_shift/su_max          0.0964
_refine_ls_shift/su_mean         0.0841
_refine_ls_weighting_scheme      sigma
_refine_ls_wR_factor_all         0.0472
_refine_ls_wR_factor_gt          0.0472
_cod_data_source_file            ic5015412_si_003.cif
_cod_data_source_block           I
_cod_depositor_comments
;
The following automatic conversions were performed:

'_diffrn_radiation_probe' value 'X-ray' changed to 'x-ray' according
to /home/saulius/struct/CIF-dictionaries/IUCr/cif_core.dic dictionary
named 'cif_core.dic' version 2.4.5 from 2014-11-21.

Automatic conversion script
Id: cif_fix_values 3866 2015-08-17 15:13:47Z robertas 
;
_cod_original_sg_symbol_H-M      'I 41/a'
_cod_original_formula_sum        'Ca1 Eu2 Mo4 O16'
_cod_database_code               4344204
loop_
_space_group_symop_id
_space_group_symop_operation_xyz
1 x,y,z
2 -x+0.5,-y+0.5,z+0.5
3 -y,x+0.5,z+0.25
4 y+0.5,-x,z+0.75
5 x+0.5,y+0.5,z+0.5
6 -x,-y,z
7 -y+0.5,x,z+0.75
8 y,-x+0.5,z+0.25
9 -x,-y+0.5,-z+0.25
10 x+0.5,y,-z+0.75
11 y+0.5,-x+0.5,-z+0.5
12 -y,x,-z
13 -x+0.5,-y,-z+0.75
14 x,y+0.5,-z+0.25
15 y,-x,-z
16 -y+0.5,x+0.5,-z+0.5
loop_
_space_group_symop_ssg_id
_space_group_symop_ssg_operation_algebraic
1 x1,x2,x3,x4,x5
2 -x1+1/2,-x2+1/2,x3+1/2,-x4,-x5
3 -x2,x1+1/2,x3+1/4,-x5,x4
4 x2+1/2,-x1,x3+3/4,x5,-x4
5 -x1,-x2+1/2,-x3+1/4,-x4,-x5
6 x1+1/2,x2,-x3+3/4,x4,x5
7 x2,-x1,-x3,x5,-x4
8 -x2+1/2,x1+1/2,-x3+1/2,-x5,x4
9 x1+1/2,x2+1/2,x3+1/2,x4,x5
10 -x1,-x2,x3,-x4,-x5
11 -x2+1/2,x1,x3+3/4,-x5,x4
12 x2,-x1+1/2,x3+1/4,x5,-x4
13 -x1+1/2,-x2,-x3+3/4,-x4,-x5
14 x1,x2+1/2,-x3+1/4,x4,x5
15 x2+1/2,-x1+1/2,-x3+1/2,x5,-x4
16 -x2,x1,-x3,-x5,x4
loop_
_atom_site_label
_atom_site_type_symbol
_atom_site_fract_x
_atom_site_fract_y
_atom_site_fract_z
_atom_site_adp_type
_atom_site_U_iso_or_equiv
_atom_site_site_symmetry_mutiplicity
_atom_site_occupancy
_atom_site_calc_flag
Eu Eu 0 0 0.5 Uiso 0.00425(19) 4 0.5 d
Ca Ca 0 0 0.5 Uiso 0.00425(19) 4 0.25 d
Mo Mo 0 0 0 Uiso 0.0107(2) 4 1 d
O O 0.2463(4) 0.1491(4) 0.0839(2) Uiso 0.0121(7) 16 1 d
loop_
_atom_site_displace_Fourier_atom_site_label
_atom_site_displace_Fourier_axis
_atom_site_displace_Fourier_wave_vector_seq_id
_atom_site_displace_Fourier_param_cos
_atom_site_displace_Fourier_param_sin
Eu x 1 0 0.0044(2)
Eu y 1 0 0.0034(2)
Eu z 1 0 0
Eu x 2 0 -0.0034(2)
Eu y 2 0 0.0044(2)
Eu z 2 0 0
Ca x 1 0 0.0044(2)
Ca y 1 0 0.0034(2)
Ca z 1 0 0
Ca x 2 0 -0.0034(2)
Ca y 2 0 0.0044(2)
Ca z 2 0 0
Mo x 1 0 -0.0043(2)
Mo y 1 0 -0.0069(2)
Mo z 1 0.00164(14) 0
Mo x 2 0 0.0069(2)
Mo y 2 0 -0.0043(2)
Mo z 2 -0.00164(14) 0
O x 1 0 -0.0088(13)
O y 1 0 0
O z 1 0.0074(5) 0.0040(5)
O x 2 0.0182(11) 0.0087(11)
O y 2 0.0067(11) -0.0085(11)
O z 2 -0.0087(5) 0.0055(5)
loop_
_atom_site_Fourier_wave_vector_seq_id
_jana_atom_site_fourier_wave_vector_q1_coeff
_jana_atom_site_fourier_wave_vector_q2_coeff
1 1 0
2 0 1
loop_
_atom_site_occ_Fourier_atom_site_label
_atom_site_occ_Fourier_wave_vector_seq_id
_atom_site_occ_Fourier_param_cos
_atom_site_occ_Fourier_param_sin
Eu 1 0.25 0
Eu 2 0.25 0
Ca 1 -0.125 0
Ca 2 -0.125 0
loop_
_atom_type_symbol
_atom_type_scat_dispersion_real
_atom_type_scat_dispersion_imag
_atom_type_scat_source
Ca 0.0900 0.0992 'International Tables Vol C tables 4.2.6.8 and 6.1.1.1'
Eu -0.8763 1.3592 'International Tables Vol C tables 4.2.6.8 and 6.1.1.1'
Mo 0.0717 1.7724 'International Tables Vol C tables 4.2.6.8 and 6.1.1.1'
O 0.0016 0.0017 'International Tables Vol C tables 4.2.6.8 and 6.1.1.1'
loop_
_cell_wave_vector_seq_id
_cell_wave_vector_x
_cell_wave_vector_y
_cell_wave_vector_z
1 0.553311 0.820681 0.000000
2 -0.820681 0.553311 0.000000
loop_
_geom_angle_atom_site_label_1
_geom_angle_atom_site_label_2
_geom_angle_atom_site_label_3
_geom_angle_site_ssg_symmetry_1
_geom_angle_site_ssg_symmetry_3
_geom_angle_av
_geom_angle_min
_geom_angle_max
O Eu O 9_44555 2_55555 134.1(4) 127.7(3) 140.6(4)
O Eu O 9_44555 3_54555 74.2(4) 68.7(4) 79.5(3)
O Eu O 9_44555 12_55555 151.4(4) 149.0(4) 154.0(4)
O Eu O 9_44555 13_55555 75.6(3) 68.4(3) 83.1(3)
O Eu O 9_44555 6_45555 69.1(3) 65.5(3) 72.8(3)
O Eu O 9_44555 15_45555 98.7(3) 93.4(3) 103.9(3)
O Eu O 9_44555 8_54555 98.7(3) 93.4(4) 103.9(3)
O Eu O 2_55555 3_54555 151.4(4) 149.0(4) 154.0(4)
O Eu O 2_55555 12_55555 74.2(4) 68.7(4) 79.5(3)
O Eu O 2_55555 13_55555 69.1(3) 65.5(3) 72.8(3)
O Eu O 2_55555 6_45555 75.6(3) 68.4(3) 83.1(3)
O Eu O 2_55555 15_45555 98.7(3) 93.4(4) 103.9(3)
O Eu O 2_55555 8_54555 98.7(3) 93.4(3) 103.9(3)
O Eu O 3_54555 12_55555 77.8(4) 74.7(3) 80.9(4)
O Eu O 3_54555 13_55555 127.2(3) 121.6(3) 132.7(3)
O Eu O 3_54555 6_45555 127.2(3) 121.6(3) 132.7(3)
O Eu O 3_54555 15_45555 75.6(3) 68.4(3) 83.1(4)
O Eu O 3_54555 8_54555 69.1(3) 65.5(3) 72.8(3)
O Eu O 12_55555 13_55555 127.2(3) 121.6(3) 132.7(3)
O Eu O 12_55555 6_45555 127.2(3) 121.6(3) 132.7(3)
O Eu O 12_55555 15_45555 69.1(3) 65.5(3) 72.8(3)
O Eu O 12_55555 8_54555 75.6(3) 68.4(3) 83.1(4)
O Eu O 13_55555 6_45555 77.8(4) 74.7(3) 80.9(4)
O Eu O 13_55555 15_45555 151.4(4) 149.0(4) 154.0(4)
O Eu O 13_55555 8_54555 74.2(4) 68.7(4) 79.5(3)
O Eu O 6_45555 15_45555 74.2(4) 68.7(4) 79.5(3)
O Eu O 6_45555 8_54555 151.4(4) 149.0(4) 154.0(4)
O Eu O 15_45555 8_54555 134.1(4) 127.7(3) 140.6(4)
O Mo O . 10_55555 114.7(5) 104.5(6) 124.3(6)
O Mo O . 7_55555 106.8(4) 104.3(4) 110.0(4)
O Mo O . 16_55555 106.8(4) 104.3(4) 110.0(4)
O Mo O 10_55555 7_55555 106.8(4) 104.3(4) 110.0(4)
O Mo O 10_55555 16_55555 106.8(4) 104.3(4) 110.0(4)
O Mo O 7_55555 16_55555 114.7(5) 104.5(6) 124.3(6)
loop_
_geom_bond_atom_site_label_1
_geom_bond_atom_site_label_2
_geom_bond_site_ssg_symmetry_2
_geom_bond_distance_av
_geom_bond_distance_min
_geom_bond_distance_max
Eu O 9_44555 2.462(8) 2.300(7) 2.644(8)
Eu O 2_55555 2.462(8) 2.300(7) 2.644(8)
Eu O 3_54555 2.455(11) 2.298(10) 2.629(10)
Eu O 12_55555 2.455(11) 2.298(10) 2.629(10)
Eu O 13_55555 2.455(11) 2.298(10) 2.629(10)
Eu O 6_45555 2.455(11) 2.298(10) 2.629(10)
Eu O 15_45555 2.462(8) 2.300(7) 2.644(8)
Eu O 8_54555 2.462(8) 2.300(7) 2.644(8)
Mo O . 1.796(10) 1.730(10) 1.858(10)
Mo O 10_55555 1.796(10) 1.730(10) 1.858(10)
Mo O 7_55555 1.796(10) 1.730(10) 1.858(10)
Mo O 16_55555 1.796(10) 1.730(10) 1.858(10)
loop_
_pd_proc_point_id
_pd_proc_2theta_corrected
_pd_proc_intensity_net
_pd_calc_intensity_net
_pd_proc_ls_weight
1 2.1980 194.20 187.01 15.90
2 2.2000 198.40 187.01 16.20
3 2.2020 225.20 187.00 17.20
4 2.2040 169.80 187.00 14.70
5 2.2060 173.00 186.99 14.90
6 2.2080 183.70 186.99 15.40
7 2.2100 195.10 186.99 16.20
8 2.2120 198.90 186.99 16.10
9 2.2140 193.70 186.99 15.70
10 2.2160 176.70 186.99 14.90
11 2.2180 200.90 186.99 16.20
12 2.2200 176.70 186.99 15.30
13 2.2220 205.40 186.99 16.30
14 2.2240 182.70 187.00 15.20
15 2.2260 238.00 187.00 17.40
16 2.2280 195.30 187.01 15.90
17 2.2300 195.90 187.01 16.20
18 2.2320 190.40 187.02 15.70
19 2.2340 186.30 187.03 15.50
20 2.2360 201.50 187.04 16.00
21 2.2380 195.90 187.04 16.10
22 2.2400 192.30 187.05 16.00
23 2.2420 196.10 187.07 16.00
24 2.2440 183.70 187.08 15.40
25 2.2460 218.50 187.09 16.70
26 2.2480 192.70 187.10 15.90
27 2.2500 189.60 187.11 15.90
28 2.2520 188.80 187.13 15.70
29 2.2540 182.20 187.14 15.40
30 2.2560 202.30 187.16 16.10
31 2.2580 189.20 187.17 15.70
32 2.2600 183.80 187.19 15.60
33 2.2620 200.30 187.21 16.30
34 2.2640 182.70 187.22 15.40
35 2.2660 172.60 187.24 14.80
36 2.2680 183.80 187.26 15.50
37 2.2700 210.10 187.28 16.80
38 2.2720 203.90 187.30 16.40
39 2.2740 191.70 187.32 15.70
40 2.2760 187.70 187.34 15.60
41 2.2780 195.60 187.36 15.90
42 2.2800 191.70 187.38 16.00
43 2.2820 184.30 187.41 15.60
44 2.2840 173.10 187.43 14.90
45 2.2860 199.00 187.46 15.90
46 2.2880 169.80 187.48 14.80
47 2.2900 204.40 187.51 16.50
48 2.2920 194.80 187.53 16.00
49 2.2940 213.60 187.56 16.50
50 2.2960 206.40 187.58 16.20
51 2.2980 199.60 187.61 16.10
52 2.3000 180.30 187.64 15.40
53 2.3020 186.10 187.67 15.60
54 2.3040 197.60 187.70 15.80
55 2.3060 187.60 187.73 15.50
56 2.3080 195.10 187.76 15.80
57 2.3100 179.40 187.79 15.50
58 2.3120 186.40 187.82 15.60
59 2.3140 183.10 187.85 15.30
60 2.3160 158.50 187.88 14.20
61 2.3180 199.40 187.91 16.00
62 2.3200 201.80 187.95 16.30
63 2.3220 185.90 187.98 15.60
64 2.3240 217.80 188.01 16.70
65 2.3260 181.70 188.05 15.20
66 2.3280 213.80 188.08 16.60
67 2.3300 177.00 188.12 15.30
68 2.3320 181.20 188.15 15.40
69 2.3340 208.20 188.19 16.30
70 2.3360 202.30 188.22 16.10
71 2.3380 171.20 188.26 14.80
72 2.3400 174.60 188.30 15.20
73 2.3420 197.70 188.33 16.10
74 2.3440 197.80 188.37 15.80
75 2.3460 194.70 188.41 15.80
76 2.3480 176.50 188.45 15.00
77 2.3500 172.50 188.49 15.00
78 2.3520 185.80 188.53 15.50
79 2.3540 192.00 188.57 15.70
80 2.3560 173.20 188.61 14.90
81 2.3580 211.20 188.65 16.40
82 2.3600 187.10 188.69 15.60
83 2.3620 184.80 188.73 15.60
84 2.3640 207.00 188.77 16.20
85 2.3660 189.40 188.81 15.60
86 2.3680 169.70 188.86 14.80
87 2.3700 211.90 188.90 16.80
88 2.3720 189.80 188.94 15.70
89 2.3740 187.90 188.98 15.40
90 2.3760 197.80 189.03 15.90
91 2.3780 182.50 189.07 15.20
92 2.3800 193.70 189.12 16.00
93 2.3820 175.00 189.16 15.10
94 2.3840 196.00 189.21 15.80
95 2.3860 184.80 189.25 15.30
96 2.3880 155.10 189.30 14.10
97 2.3900 200.20 189.34 16.20
98 2.3920 187.40 189.39 15.60
99 2.3940 226.70 189.43 17.00
100 2.3960 184.30 189.48 15.30
101 2.3980 185.30 189.53 15.40
102 2.4000 183.60 189.57 15.60
103 2.4020 154.40 189.62 14.20
104 2.4040 159.20 189.67 14.20
105 2.4060 186.00 189.72 15.40
106 2.4080 192.90 189.76 15.80
107 2.4100 165.50 189.81 14.70
108 2.4120 168.70 189.86 14.80
109 2.4140 171.70 189.91 14.80
110 2.4160 192.60 189.96 15.60
111 2.4180 196.50 190.01 15.90
112 2.4200 159.50 190.06 14.50
113 2.4220 171.60 190.11 14.90
114 2.4240 205.00 190.16 16.10
115 2.4260 187.10 190.21 15.40
116 2.4280 195.10 190.26 15.90
117 2.4300 192.20 190.31 15.90
118 2.4320 191.10 190.36 15.60
119 2.4340 188.30 190.41 15.40
120 2.4360 191.80 190.46 15.60
121 2.4380 209.20 190.51 16.40
122 2.4400 181.70 190.57 15.50
123 2.4420 194.90 190.62 15.80
124 2.4440 201.10 190.67 15.90
125 2.4460 197.20 190.72 15.90
126 2.4480 185.10 190.77 15.50
127 2.4500 167.10 190.82 14.90
128 2.4520 174.40 190.88 14.90
129 2.4540 191.70 190.93 15.60
130 2.4560 172.70 190.98 14.80
131 2.4580 182.00 191.04 15.30
132 2.4600 178.30 191.09 15.40
133 2.4620 188.70 191.14 15.50
134 2.4640 205.50 191.20 16.10
135 2.4660 198.70 191.25 16.00
136 2.4680 189.30 191.30 15.70
137 2.4700 192.70 191.36 16.00
138 2.4720 189.10 191.41 15.50
139 2.4740 196.20 191.46 15.80
140 2.4760 225.40 191.52 17.00
141 2.4780 186.10 191.57 15.60
142 2.4800 174.30 191.63 15.20
143 2.4820 171.70 191.68 14.80
144 2.4840 196.70 191.74 15.80
145 2.4860 190.00 191.79 15.60
146 2.4880 189.10 191.85 15.80
147 2.4900 180.20 191.90 15.30
148 2.4920 209.40 191.96 16.40
149 2.4940 179.10 192.01 15.10
150 2.4960 208.40 192.07 16.40
151 2.4980 188.70 192.12 15.70
152 2.5000 208.30 192.18 16.60
153 2.5020 194.00 192.23 15.80
154 2.5040 209.30 192.29 16.20
155 2.5060 184.80 192.35 15.40
156 2.5080 199.50 192.40 16.30
157 2.5100 190.30 192.46 15.80
158 2.5120 152.80 192.51 13.90
159 2.5140 164.40 192.57 14.50
160 2.5160 202.80 192.62 16.20
161 2.5180 194.30 192.68 16.10
162 2.5200 194.80 192.74 16.00
163 2.5220 204.00 192.79 16.30
164 2.5240 192.30 192.85 15.60
165 2.5260 190.40 192.90 15.70
166 2.5280 146.30 192.96 14.00
167 2.5300 176.50 193.02 15.20
168 2.5320 200.50 193.07 16.10
169 2.5340 173.70 193.13 14.80
170 2.5360 175.30 193.19 15.10
171 2.5380 179.00 193.24 15.50
172 2.5400 182.10 193.30 15.40
173 2.5420 181.40 193.36 15.30
174 2.5440 180.60 193.41 15.20
175 2.5460 166.40 193.47 14.70
176 2.5480 200.40 193.53 16.50
177 2.5500 167.30 193.58 14.80
178 2.5520 210.70 193.64 16.50
179 2.5540 188.90 193.70 15.40
180 2.5560 206.90 193.75 16.50
181 2.5580 206.30 193.81 16.70
182 2.5600 179.50 193.87 15.30
183 2.5620 194.00 193.92 15.90
184 2.5640 175.80 193.98 15.00
185 2.5660 193.70 194.04 15.80
186 2.5680 190.10 194.09 16.00
187 2.5700 175.30 194.15 15.20
188 2.5720 201.40 194.20 16.10
189 2.5740 213.00 194.26 16.50
190 2.5760 172.40 194.32 15.00
191 2.5780 185.10 194.37 15.80
192 2.5800 217.70 194.43 16.90
193 2.5820 170.80 194.49 14.90
194 2.5840 200.90 194.54 16.10
195 2.5860 190.60 194.60 15.70
196 2.5880 190.20 194.66 16.00
197 2.5900 159.80 194.71 14.60
198 2.5920 185.50 194.77 15.50
199 2.5940 195.10 194.82 15.80
200 2.5960 169.70 194.88 14.80
201 2.5980 181.70 194.94 15.70
202 2.6000 173.60 194.99 15.10
203 2.6020 199.30 195.05 16.10
204 2.6040 210.80 195.11 16.40
205 2.6060 184.20 195.16 15.40
206 2.6080 194.30 195.22 16.20
207 2.6100 183.90 195.27 15.60
208 2.6120 193.40 195.33 15.90
209 2.6140 172.50 195.38 14.90
210 2.6160 203.80 195.44 16.30
211 2.6180 186.70 195.50 15.80
212 2.6200 200.80 195.55 16.30
213 2.6220 184.40 195.61 15.60
214 2.6240 183.00 195.66 15.30
215 2.6260 195.00 195.72 15.90
216 2.6280 166.50 195.77 14.90
217 2.6300 186.70 195.83 15.70
218 2.6320 196.50 195.88 16.00
219 2.6340 181.70 195.94 15.30
220 2.6360 196.30 195.99 15.90
221 2.6380 186.20 196.05 15.80
222 2.6400 180.50 196.10 15.40
223 2.6420 204.20 196.16 16.30
224 2.6440 195.30 196.21 15.80
225 2.6460 174.10 196.27 15.00
226 2.6480 199.80 196.32 16.30
227 2.6500 175.70 196.38 15.30
228 2.6520 173.00 196.43 14.90
229 2.6540 202.10 196.49 16.10
230 2.6560 186.10 196.54 15.50
231 2.6580 193.70 196.60 16.00
232 2.6600 169.90 196.65 14.90
233 2.6620 149.70 196.70 14.00
234 2.6640 175.30 196.76 15.00
235 2.6660 187.90 196.81 15.50
236 2.6680 191.70 196.87 15.80
237 2.6700 189.60 196.92 15.90
238 2.6720 192.60 196.97 15.80
239 2.6740 175.90 197.03 14.90
240 2.6760 169.80 197.08 14.80
241 2.6780 190.60 197.13 15.80
242 2.6800 197.40 197.19 16.10
243 2.6820 181.50 197.24 15.40
244 2.6840 198.60 197.29 16.00
245 2.6860 187.40 197.35 15.50
246 2.6880 197.60 197.40 16.20
247 2.6900 175.40 197.45 15.20
248 2.6920 205.00 197.50 16.40
249 2.6940 173.20 197.56 14.80
250 2.6960 182.20 197.61 15.30
251 2.6980 198.60 197.66 16.10
252 2.7000 183.20 197.71 15.50
253 2.7020 200.10 197.76 16.00
254 2.7040 180.50 197.82 15.20
255 2.7060 195.70 197.87 15.90
256 2.7080 190.90 197.92 15.80
257 2.7100 192.50 197.97 15.90
258 2.7120 199.60 198.02 16.10
259 2.7140 194.60 198.07 15.80
260 2.7160 205.60 198.13 16.10
261 2.7180 183.20 198.18 15.50
262 2.7200 186.50 198.23 15.60
263 2.7220 199.50 198.28 16.00
264 2.7240 190.60 198.33 15.60
265 2.7260 186.20 198.38 15.50
266 2.7280 195.40 198.43 16.00
267 2.7300 185.90 198.48 15.60
268 2.7320 181.20 198.53 15.40
269 2.7340 173.70 198.58 14.90
270 2.7360 206.00 198.63 16.20
271 2.7380 165.60 198.68 14.70
272 2.7400 179.10 198.73 15.40
273 2.7420 202.00 198.78 16.10
274 2.7440 191.10 198.83 15.70
275 2.7460 185.20 198.88 15.30
276 2.7480 198.50 198.93 16.20
277 2.7500 178.90 198.98 15.40
278 2.7520 176.70 199.03 15.10
279 2.7540 211.70 199.08 16.40
280 2.7560 221.60 199.13 16.80
281 2.7580 192.80 199.18 15.90
282 2.7600 220.30 199.23 17.00
283 2.7620 183.80 199.28 15.50
284 2.7640 204.30 199.32 16.10
285 2.7660 177.90 199.37 15.00
286 2.7680 198.10 199.42 16.10
287 2.7700 193.80 199.47 16.00
288 2.7720 179.90 199.52 15.30
289 2.7740 211.70 199.57 16.50
290 2.7760 203.20 199.62 16.10
291 2.7780 187.60 199.66 15.70
292 2.7800 141.00 199.71 13.60
293 2.7820 235.60 199.76 17.40
294 2.7840 197.60 199.81 16.00
295 2.7860 201.00 199.85 16.00
296 2.7880 208.70 199.90 16.60
297 2.7900 231.30 199.95 17.40
298 2.7920 229.20 200.00 17.30
299 2.7940 210.60 200.04 16.40
300 2.7960 203.20 200.09 16.10
301 2.7980 211.60 200.14 16.60
302 2.8000 218.30 200.18 17.00
303 2.8020 228.40 200.23 17.30
304 2.8040 214.70 200.28 16.60
305 2.8060 225.00 200.32 16.90
306 2.8080 244.60 200.37 17.90
307 2.8100 242.70 200.42 17.90
308 2.8120 255.80 200.46 18.20
309 2.8140 271.20 200.51 18.50
310 2.8160 260.50 200.56 18.30
311 2.8180 290.90 200.60 19.60
312 2.8200 304.40 200.65 20.10
313 2.8220 272.30 200.70 18.90
314 2.8240 303.20 200.74 19.80
315 2.8260 261.40 200.79 18.30
316 2.8280 274.40 200.83 19.00
317 2.8300 251.20 200.88 18.20
318 2.8320 264.40 200.93 18.50
319 2.8340 255.30 200.97 18.10
320 2.8360 237.90 201.02 17.40
321 2.8380 250.00 201.06 18.00
322 2.8400 216.30 201.11 16.70
323 2.8420 223.90 201.15 17.10
324 2.8440 211.00 201.20 16.40
325 2.8460 235.50 201.25 17.30
326 2.8480 224.00 201.29 17.10
327 2.8500 242.40 201.34 17.90
328 2.8520 196.60 201.38 15.90
329 2.8540 209.80 201.43 16.40
330 2.8560 191.50 201.47 15.60
331 2.8580 185.20 201.52 15.50
332 2.8600 192.60 201.57 15.90
333 2.8620 189.30 201.61 15.70
334 2.8640 214.00 201.66 16.50
335 2.8660 212.20 201.70 16.50
336 2.8680 223.80 201.75 17.20
337 2.8700 195.60 201.79 16.00
338 2.8720 195.60 201.84 15.90
339 2.8740 202.60 201.88 16.10
340 2.8760 239.50 201.93 17.50
341 2.8780 181.50 201.98 15.40
342 2.8800 196.40 202.02 16.10
343 2.8820 205.40 202.07 16.30
344 2.8840 174.70 202.11 14.90
345 2.8860 181.80 202.16 15.20
346 2.8880 198.60 202.21 16.10
347 2.8900 187.90 202.25 15.70
348 2.8920 206.80 202.30 16.40
349 2.8940 190.40 202.35 15.60
350 2.8960 211.10 202.39 16.40
351 2.8980 217.90 202.44 16.90
352 2.9000 174.90 202.49 15.10
353 2.9020 208.00 202.53 16.30
354 2.9040 234.90 202.58 17.20
355 2.9060 186.70 202.63 15.40
356 2.9080 190.00 202.68 15.80
357 2.9100 229.70 202.72 17.40
358 2.9120 187.20 202.77 15.50
359 2.9140 198.60 202.82 15.80
360 2.9160 233.20 202.87 17.20
361 2.9180 173.00 202.92 15.00
362 2.9200 178.00 202.97 15.20
363 2.9220 209.20 203.01 16.40
364 2.9240 215.20 203.06 16.50
365 2.9260 204.50 203.11 16.10
366 2.9280 195.70 203.16 16.10
367 2.9300 238.60 203.21 17.60
368 2.9320 223.00 203.26 16.90
369 2.9340 213.70 203.32 16.50
370 2.9360 199.10 203.37 15.90
371 2.9380 178.90 203.42 15.40
372 2.9400 249.60 203.47 18.10
373 2.9420 205.10 203.52 16.30
374 2.9440 203.80 203.58 16.00
375 2.9460 215.90 203.63 16.60
376 2.9480 232.30 203.68 17.50
377 2.9500 221.90 203.74 17.00
378 2.9520 221.80 203.79 16.90
379 2.9540 216.30 203.85 16.50
380 2.9560 238.30 203.91 17.50
381 2.9580 225.30 203.96 17.40
382 2.9600 238.00 204.02 17.60
383 2.9620 197.30 204.08 16.00
384 2.9640 242.90 204.14 17.60
385 2.9660 229.20 204.20 17.20
386 2.9680 262.00 204.26 18.60
387 2.9700 231.60 204.32 17.40
388 2.9720 254.50 204.38 18.10
389 2.9740 241.40 204.44 17.50
390 2.9760 252.00 204.51 17.90
391 2.9780 260.20 204.57 18.60
392 2.9800 222.80 204.63 17.00
393 2.9820 227.00 204.70 17.10
394 2.9840 257.90 204.77 18.10
395 2.9860 246.30 204.84 17.80
396 2.9880 232.60 204.91 17.60
397 2.9900 245.50 204.98 17.90
398 2.9920 226.70 205.05 17.10
399 2.9940 236.20 205.12 17.30
400 2.9960 223.50 205.20 17.00
401 2.9980 215.90 205.27 16.90
402 3.0000 254.90 205.35 18.20
403 3.0020 253.60 205.43 18.10
404 3.0040 241.70 205.51 17.50
405 3.0060 213.40 205.59 16.40
406 3.0080 231.30 205.67 17.50
407 3.0100 219.40 205.76 17.00
408 3.0120 230.00 205.84 17.20
409 3.0140 237.80 205.93 17.40
410 3.0160 199.20 206.02 16.00
411 3.0180 217.20 206.12 16.90
412 3.0200 212.60 206.21 16.70
413 3.0220 205.20 206.31 16.20
414 3.0240 230.00 206.41 17.10
415 3.0260 213.80 206.51 16.50
416 3.0280 196.30 206.61 16.10
417 3.0300 201.50 206.72 16.30
418 3.0320 206.60 206.83 16.20
419 3.0340 202.10 206.94 16.00
420 3.0360 249.80 207.06 17.90
421 3.0380 209.00 207.18 16.60
422 3.0400 215.60 207.30 16.80
423 3.0420 213.70 207.43 16.60
424 3.0440 214.70 207.55 16.60
425 3.0460 222.90 207.69 16.90
426 3.0480 223.20 207.82 17.20
427 3.0500 207.40 207.97 16.40
428 3.0520 228.20 208.11 17.20
429 3.0540 202.50 208.26 16.00
430 3.0560 219.60 208.42 16.70
431 3.0580 211.10 208.58 16.70
432 3.0600 239.60 208.74 17.60
433 3.0620 210.10 208.92 16.50
434 3.0640 198.30 209.09 15.90
435 3.0660 225.20 209.28 17.00
436 3.0680 170.30 209.47 14.90
437 3.0700 216.50 209.66 16.70
438 3.0720 203.50 209.87 16.10
439 3.0740 193.80 210.08 15.60
440 3.0760 201.00 210.30 16.00
441 3.0780 201.50 210.53 16.30
442 3.0800 210.90 210.76 16.60
443 3.0820 233.30 211.01 17.20
444 3.0840 226.20 211.27 16.90
445 3.0860 230.30 211.53 17.10
446 3.0880 228.60 211.81 17.40
447 3.0900 213.60 212.10 16.60
448 3.0920 238.90 212.40 17.50
449 3.0940 208.90 212.72 16.20
450 3.0960 236.20 213.05 17.40
451 3.0980 238.50 213.39 17.60
452 3.1000 211.60 213.75 16.60
453 3.1020 221.50 214.13 16.80
454 3.1040 229.40 214.53 17.10
455 3.1060 225.50 214.94 16.90
456 3.1080 232.00 215.38 17.40
457 3.1100 219.20 215.83 16.80
458 3.1120 255.50 216.32 18.10
459 3.1140 249.50 216.82 17.70
460 3.1160 223.50 217.35 16.90
461 3.1180 211.20 217.91 16.60
462 3.1200 199.30 218.51 16.10
463 3.1220 204.20 219.13 16.10
464 3.1240 245.20 219.79 17.60
465 3.1260 212.50 220.49 16.50
466 3.1280 201.90 221.23 16.20
467 3.1300 211.00 222.01 16.60
468 3.1320 227.30 222.85 17.10
469 3.1340 239.60 223.73 17.40
470 3.1360 212.10 224.68 16.40
471 3.1380 244.10 225.68 17.90
472 3.1400 208.60 226.75 16.50
473 3.1420 253.20 227.90 18.00
474 3.1440 227.80 229.12 17.00
475 3.1460 235.50 230.43 17.40
476 3.1480 264.10 231.84 18.50
477 3.1500 227.60 233.35 17.20
478 3.1520 254.70 234.98 18.00
479 3.1540 269.90 236.73 18.40
480 3.1560 233.40 238.63 17.30
481 3.1580 228.20 240.68 17.20
482 3.1600 269.30 242.91 18.80
483 3.1620 284.40 245.34 19.00
484 3.1640 267.80 247.99 18.40
485 3.1660 253.10 250.89 18.00
486 3.1680 276.60 254.08 19.00
487 3.1700 272.50 257.58 18.80
488 3.1720 284.50 261.46 19.00
489 3.1740 263.30 265.75 18.20
490 3.1760 318.20 270.53 20.20
491 3.1780 265.10 275.86 18.70
492 3.1800 278.10 281.82 19.00
493 3.1820 286.00 288.50 19.00
494 3.1840 303.20 296.01 19.60
495 3.1860 342.60 304.46 21.10
496 3.1880 315.80 313.98 20.30
497 3.1900 315.40 324.71 20.20
498 3.1920 355.70 336.81 21.20
499 3.1940 379.30 350.42 21.80
500 3.1960 411.50 365.71 23.10
501 3.1980 391.80 382.84 22.60
502 3.2000 455.50 401.95 24.40
503 3.2020 450.00 423.14 23.80
504 3.2040 442.70 446.46 23.50
505 3.2060 513.50 471.87 25.80
506 3.2080 574.90 499.19 27.70
507 3.2100 623.50 528.04 28.30
508 3.2120 672.10 557.80 29.20
509 3.2140 641.20 587.58 28.50
510 3.2160 713.30 616.13 30.70
511 3.2180 716.20 641.97 30.90
512 3.2200 814.90 663.43 32.40
513 3.2220 775.10 678.87 31.30
514 3.2240 845.60 686.95 32.90
515 3.2260 804.40 686.86 32.40
516 3.2280 859.60 678.56 33.90
517 3.2300 769.70 662.74 31.60
518 3.2320 759.20 640.75 31.00
519 3.2340 746.80 614.28 30.70
520 3.2360 658.40 585.11 29.50
521 3.2380 577.80 554.82 27.80
522 3.2400 557.90 524.68 26.90
523 3.2420 504.70 495.62 25.40
524 3.2440 438.20 468.24 23.70
525 3.2460 449.20 442.88 24.30
526 3.2480 419.00 419.69 23.60
527 3.2500 395.70 398.67 22.60
528 3.2520 379.70 379.77 22.00
529 3.2540 405.70 362.85 22.70
530 3.2560 373.50 347.75 22.20
531 3.2580 387.20 334.33 22.90
532 3.2600 370.30 322.41 22.00
533 3.2620 356.90 311.83 21.30
534 3.2640 314.70 302.45 20.10
535 3.2660 270.80 294.12 18.90
536 3.2680 288.50 286.71 19.70
537 3.2700 258.70 280.12 18.30
538 3.2720 257.00 274.23 18.10
539 3.2740 249.60 268.97 17.80
540 3.2760 257.40 264.25 18.40
541 3.2780 257.70 259.99 18.50
542 3.2800 233.60 256.15 17.40
543 3.2820 224.40 252.66 17.00
544 3.2840 227.80 249.50 17.00
545 3.2860 239.10 246.61 17.80
546 3.2880 224.30 243.96 17.30
547 3.2900 215.00 241.54 16.70
548 3.2920 223.00 239.30 16.80
549 3.2940 207.40 237.24 16.20
550 3.2960 239.50 235.34 17.80
551 3.2980 210.70 233.57 16.70
552 3.3000 207.40 231.93 16.40
553 3.3020 225.40 230.41 16.90
554 3.3040 233.70 228.98 17.20
555 3.3060 202.10 227.65 16.30
556 3.3080 213.90 226.41 17.00
557 3.3100 216.00 225.25 16.80
558 3.3120 215.20 224.16 16.60
559 3.3140 208.60 223.13 16.30
560 3.3160 253.60 222.17 18.30
561 3.3180 219.60 221.26 17.10
562 3.3200 229.40 220.40 17.20
563 3.3220 212.10 219.59 16.50
564 3.3240 208.70 218.83 16.20
565 3.3260 201.80 218.11 16.30
566 3.3280 235.40 217.42 17.70
567 3.3300 216.40 216.77 16.80
568 3.3320 241.10 216.15 17.50
569 3.3340 227.80 215.57 17.00
570 3.3360 230.40 215.01 17.30
571 3.3380 234.20 214.47 17.70
572 3.3400 207.50 213.97 16.40
573 3.3420 210.60 213.48 16.40
574 3.3440 175.70 213.02 15.00
575 3.3460 191.40 212.58 15.80
576 3.3480 197.00 212.15 16.30
577 3.3500 196.70 211.75 16.00
578 3.3520 200.40 211.36 16.00
579 3.3540 206.30 210.99 16.20
580 3.3560 207.10 210.63 16.50
581 3.3580 212.30 210.29 16.90
582 3.3600 178.90 209.96 15.20
583 3.3620 205.00 209.64 16.20
584 3.3640 233.80 209.34 17.20
585 3.3660 188.90 209.04 15.80
586 3.3680 203.30 208.76 16.60
587 3.3700 209.00 208.48 16.50
588 3.3720 205.20 208.22 16.10
589 3.3740 207.70 207.96 16.20
590 3.3760 201.50 207.71 16.30
591 3.3780 200.00 207.47 16.50
592 3.3800 199.00 207.24 16.00
593 3.3820 206.80 207.02 16.30
594 3.3840 178.20 206.80 15.00
595 3.3860 231.50 206.59 17.40
596 3.3880 199.10 206.38 16.40
597 3.3900 206.20 206.18 16.40
598 3.3920 192.00 205.99 15.70
599 3.3940 174.70 205.80 14.90
600 3.3960 193.90 205.62 16.00
601 3.3980 204.60 205.44 16.60
602 3.4000 203.50 205.27 16.30
603 3.4020 226.20 205.10 17.00
604 3.4040 214.20 204.93 16.60
605 3.4060 167.60 204.77 14.80
606 3.4080 188.30 204.62 15.90
607 3.4100 209.30 204.46 16.50
608 3.4120 209.00 204.31 16.30
609 3.4140 212.60 204.17 16.40
610 3.4160 212.50 204.02 16.60
611 3.4180 186.80 203.88 15.90
612 3.4200 192.50 203.75 15.80
613 3.4220 201.30 203.61 16.00
614 3.4240 195.80 203.48 15.80
615 3.4260 195.80 203.35 16.00
616 3.4280 203.90 203.23 16.60
617 3.4300 195.20 203.10 16.00
618 3.4320 185.00 202.98 15.40
619 3.4340 196.70 202.86 15.80
620 3.4360 177.70 202.75 15.20
621 3.4380 180.10 202.63 15.60
622 3.4400 209.20 202.52 16.40
623 3.4420 226.60 202.41 17.00
624 3.4440 229.70 202.30 17.10
625 3.4460 183.10 202.19 15.30
626 3.4480 207.20 202.09 16.80
627 3.4500 172.20 201.98 15.00
628 3.4520 182.40 201.88 15.30
629 3.4540 190.00 201.78 15.50
630 3.4560 202.10 201.68 16.20
631 3.4580 178.40 201.58 15.50
632 3.4600 190.40 201.48 15.70
633 3.4620 209.10 201.39 16.40
634 3.4640 195.40 201.29 15.80
635 3.4660 197.30 201.20 15.90
636 3.4680 215.10 201.11 17.10
637 3.4700 224.90 201.02 17.00
638 3.4720 203.40 200.93 16.10
639 3.4740 177.90 200.84 15.00
640 3.4760 213.80 200.75 16.60
641 3.4780 219.40 200.66 17.20
642 3.4800 178.30 200.58 15.20
643 3.4820 206.40 200.49 16.30
644 3.4840 226.00 200.41 17.00
645 3.4860 198.30 200.33 16.00
646 3.4880 180.10 200.24 15.60
647 3.4900 183.50 200.16 15.40
648 3.4920 200.20 200.08 16.00
649 3.4940 175.20 200.00 14.90
650 3.4960 172.40 199.92 14.90
651 3.4980 191.20 199.84 16.10
652 3.5000 198.40 199.76 16.00
653 3.5020 181.40 199.69 15.30
654 3.5040 189.60 199.61 15.50
655 3.5060 182.30 199.53 15.30
656 3.5080 172.20 199.46 15.20
657 3.5100 171.90 199.38 15.00
658 3.5120 198.60 199.31 15.90
659 3.5140 216.30 199.23 16.60
660 3.5160 181.50 199.16 15.30
661 3.5180 218.10 199.21 17.00
662 3.5200 196.30 199.14 16.00
663 3.5220 227.90 199.07 17.10
664 3.5240 220.30 199.00 16.70
665 3.5260 178.40 198.93 15.10
666 3.5280 179.20 198.86 15.60
667 3.5300 174.00 198.79 15.00
668 3.5320 181.90 198.72 15.20
669 3.5340 197.30 198.65 15.90
670 3.5360 219.60 198.58 16.80
671 3.5380 177.90 198.51 15.40
672 3.5400 200.60 198.45 16.10
673 3.5420 192.20 198.38 15.70
674 3.5440 174.40 198.31 14.90
675 3.5460 188.10 198.24 15.60
676 3.5480 193.30 198.18 16.10
677 3.5500 184.00 198.11 15.50
678 3.5520 217.60 198.04 16.60
679 3.5540 180.40 197.98 15.20
680 3.5560 209.90 197.91 16.40
681 3.5580 163.40 197.85 14.80
682 3.5600 187.20 197.78 15.60
683 3.5620 205.70 197.71 16.20
684 3.5640 183.30 197.65 15.30
685 3.5660 160.60 197.59 14.30
686 3.5680 219.30 197.52 17.10
687 3.5700 165.30 197.46 14.70
688 3.5720 185.20 197.39 15.40
689 3.5740 219.40 197.33 16.70
690 3.5760 188.00 197.27 15.60
691 3.5780 172.00 197.20 15.10
692 3.5800 173.10 197.14 15.10
693 3.5820 179.10 197.08 15.10
694 3.5840 189.60 197.01 15.50
695 3.5860 189.20 196.95 15.60
696 3.5880 188.70 196.89 15.90
697 3.5900 185.50 196.83 15.60
698 3.5920 209.70 196.76 16.40
699 3.5940 170.50 196.70 14.70
700 3.5960 187.10 196.64 15.40
701 3.5980 190.90 196.58 15.90
702 3.6000 175.60 196.52 15.20
703 3.6020 166.80 196.46 14.60
704 3.6040 179.90 196.39 15.10
705 3.6060 176.10 196.33 15.00
706 3.6080 177.10 196.27 15.30
707 3.6100 238.30 196.21 17.60
708 3.6120 181.00 196.15 15.30
709 3.6140 189.40 196.09 15.60
710 3.6160 199.50 196.03 16.00
711 3.6180 192.40 195.97 16.00
712 3.6200 189.80 195.91 15.80
713 3.6220 206.90 195.85 16.20
714 3.6240 182.40 195.79 15.30
715 3.6260 196.30 195.73 15.80
716 3.6280 192.20 195.66 16.00
717 3.6300 168.50 195.60 14.90
718 3.6320 208.90 195.54 16.30
719 3.6340 187.90 195.48 15.50
720 3.6360 201.70 195.42 16.00
721 3.6380 192.10 195.36 15.90
722 3.6400 210.30 195.30 16.60
723 3.6420 180.20 195.24 15.20
724 3.6440 190.80 195.18 15.60
725 3.6460 147.80 195.12 13.70
726 3.6480 160.90 195.07 14.60
727 3.6500 195.30 195.01 15.90
728 3.6520 194.00 194.95 15.80
729 3.6540 192.60 194.89 15.70
730 3.6560 184.70 194.83 15.40
731 3.6580 189.20 194.77 15.80
732 3.6600 197.70 194.71 16.10
733 3.6620 181.20 194.65 15.20
734 3.6640 187.70 194.59 15.40
735 3.6660 194.70 194.53 15.80
736 3.6680 190.90 194.47 15.80
737 3.6700 199.30 194.41 16.10
738 3.6720 195.70 194.35 15.90
739 3.6740 203.10 194.29 16.10
740 3.6760 202.60 194.24 16.10
741 3.6780 185.40 194.18 15.70
742 3.6800 170.60 194.12 14.90
743 3.6820 166.40 194.06 14.70
744 3.6840 195.90 194.00 15.80
745 3.6860 202.80 193.94 16.10
746 3.6880 195.90 193.88 16.10
747 3.6900 212.20 193.82 16.70
748 3.6920 162.00 193.77 14.40
749 3.6940 181.00 193.71 15.10
750 3.6960 174.70 193.65 15.00
751 3.6980 185.40 193.59 15.70
752 3.7000 171.80 193.53 15.00
753 3.7020 196.30 193.47 15.90
754 3.7040 179.60 193.41 15.10
755 3.7060 174.10 193.36 15.00
756 3.7080 191.70 193.53 15.90
757 3.7100 204.70 193.47 16.30
758 3.7120 215.40 193.41 16.70
759 3.7140 171.50 193.35 14.80
760 3.7160 156.80 193.30 14.20
761 3.7180 218.10 193.24 16.90
762 3.7200 201.90 193.18 16.40
763 3.7220 196.60 193.12 15.90
764 3.7240 157.70 193.07 14.10
765 3.7260 188.60 193.01 15.60
766 3.7280 195.00 192.95 16.00
767 3.7300 199.50 192.90 16.20
768 3.7320 176.30 192.84 15.00
769 3.7340 162.40 192.78 14.50
770 3.7360 178.40 192.73 15.10
771 3.7380 173.50 192.67 15.10
772 3.7400 201.50 192.61 16.20
773 3.7420 179.90 192.56 15.30
774 3.7440 171.40 192.50 14.70
775 3.7460 173.50 192.44 15.00
776 3.7480 203.80 192.38 16.40
777 3.7500 202.80 192.33 16.40
778 3.7520 206.00 192.27 16.20
779 3.7540 168.90 192.21 14.70
780 3.7560 188.80 192.16 15.60
781 3.7580 161.10 192.10 14.70
782 3.7600 191.90 192.04 16.00
783 3.7620 186.90 191.99 15.50
784 3.7640 187.10 191.93 15.50
785 3.7660 183.20 191.94 15.30
786 3.7680 190.90 191.89 15.90
787 3.7700 190.80 191.83 15.80
788 3.7720 203.20 191.77 16.20
789 3.7740 177.80 191.72 15.10
790 3.7760 171.40 191.66 14.80
791 3.7780 177.80 191.61 15.30
792 3.7800 164.00 191.55 14.70
793 3.7820 165.00 191.50 14.60
794 3.7840 180.90 191.44 15.20
795 3.7860 179.40 191.38 15.20
796 3.7880 156.50 191.33 14.40
797 3.7900 199.10 191.27 16.30
798 3.7920 143.60 191.22 13.60
799 3.7940 176.70 191.16 15.00
800 3.7960 164.00 191.10 14.40
801 3.7980 189.90 191.05 15.90
802 3.8000 184.70 190.99 15.60
803 3.8020 175.00 190.94 15.10
804 3.8040 159.00 190.88 14.30
805 3.8060 172.50 190.83 14.90
806 3.8080 193.80 190.77 16.00
807 3.8100 201.80 190.72 16.40
808 3.8120 169.00 190.66 14.70
809 3.8140 181.20 190.61 15.20
810 3.8160 204.20 190.55 16.20
811 3.8180 181.90 190.50 15.60
812 3.8200 165.00 190.44 14.70
813 3.8220 176.50 190.39 15.10
814 3.8240 179.90 190.33 15.10
815 3.8260 192.10 190.28 15.70
816 3.8280 152.60 190.22 14.20
817 3.8300 160.60 190.17 14.60
818 3.8320 160.40 190.11 14.40
819 3.8340 175.40 190.06 15.00
820 3.8360 174.60 190.00 14.90
821 3.8380 194.00 189.95 16.10
822 3.8400 161.70 189.89 14.60
823 3.8420 202.60 189.84 16.20
824 3.8440 180.60 189.78 15.20
825 3.8460 186.50 189.73 15.40
826 3.8480 180.10 189.67 15.50
827 3.8500 205.40 189.62 16.40
828 3.8520 177.00 189.57 15.10
829 3.8540 167.00 189.51 14.60
830 3.8560 174.30 189.46 14.90
831 3.8580 169.20 189.40 14.90
832 3.8600 171.60 189.35 15.10
833 3.8620 185.00 189.29 15.40
834 3.8640 167.10 189.24 14.60
835 3.8660 181.10 189.19 15.30
836 3.8680 188.00 189.13 15.70
837 3.8700 176.10 189.08 15.30
838 3.8720 188.50 189.03 15.60
839 3.8740 180.20 188.97 15.10
840 3.8760 182.40 188.92 15.30
841 3.8780 173.50 188.87 15.10
842 3.8800 182.60 188.81 15.40
843 3.8820 207.30 188.76 16.40
844 3.8840 157.40 188.71 14.10
845 3.8860 163.60 188.65 14.50
846 3.8880 171.20 188.60 15.00
847 3.8900 186.50 188.55 15.70
848 3.8920 157.30 188.49 14.30
849 3.8940 170.50 188.44 14.80
850 3.8960 175.90 188.39 14.90
851 3.8980 178.20 188.34 15.30
852 3.9000 168.20 188.29 14.80
853 3.9020 163.60 188.23 14.60
854 3.9040 196.20 188.18 15.80
855 3.9060 162.10 188.13 14.30
856 3.9080 184.30 188.08 15.50
857 3.9100 202.00 188.02 16.20
858 3.9120 177.20 187.97 15.20
859 3.9140 174.70 187.92 14.80
860 3.9160 169.40 187.87 14.80
861 3.9180 190.10 187.82 15.80
862 3.9200 158.90 187.77 14.50
863 3.9220 185.30 187.71 15.50
864 3.9240 167.40 187.66 14.60
865 3.9260 179.70 187.61 15.20
866 3.9280 172.80 187.56 15.10
867 3.9300 181.80 187.51 15.50
868 3.9320 177.90 187.46 15.10
869 3.9340 181.80 187.41 15.20
870 3.9360 165.70 187.36 14.50
871 3.9380 180.60 187.31 15.40
872 3.9400 161.20 187.26 14.50
873 3.9420 175.40 187.21 15.10
874 3.9440 203.90 187.16 16.10
875 3.9460 169.30 187.11 14.70
876 3.9480 197.80 187.06 16.10
877 3.9500 161.20 187.01 14.60
878 3.9520 175.60 186.96 15.10
879 3.9540 176.60 186.91 15.00
880 3.9560 180.20 186.86 15.10
881 3.9580 163.50 186.82 14.60
882 3.9600 172.40 186.77 15.10
883 3.9620 183.70 186.72 15.30
884 3.9640 165.20 186.67 14.50
885 3.9660 200.00 186.62 16.00
886 3.9680 178.70 186.57 12.20
887 3.9700 201.40 186.53 12.00
888 3.9720 190.20 186.48 12.80
889 3.9740 169.00 186.43 12.30
890 3.9760 174.10 186.38 12.90
891 3.9780 179.20 186.34 13.60
892 3.9800 196.40 186.29 14.40
893 3.9820 170.60 186.24 13.30
894 3.9840 196.70 186.20 14.20
895 3.9860 183.40 186.15 13.90
896 3.9880 174.90 186.11 13.80
897 3.9900 171.00 186.06 13.70
898 3.9920 200.50 186.02 14.70
899 3.9940 189.00 185.97 14.20
900 3.9960 182.40 185.93 14.10
901 3.9980 181.20 185.88 14.40
902 4.0000 195.70 185.84 14.90
903 4.0020 195.50 185.79 14.80
904 4.0040 180.80 185.75 14.10
905 4.0060 175.90 185.71 14.00
906 4.0080 149.80 185.66 13.20
907 4.0100 186.90 185.62 14.70
908 4.0120 171.60 185.58 13.90
909 4.0140 196.30 185.54 14.70
910 4.0160 183.00 185.49 14.40
911 4.0180 174.60 185.45 14.30
912 4.0200 174.40 185.41 14.20
913 4.0220 183.10 185.37 14.40
914 4.0240 162.80 185.33 13.40
915 4.0260 179.70 185.29 14.20
916 4.0280 176.20 185.25 14.30
917 4.0300 204.20 185.21 15.40
918 4.0320 150.40 185.17 13.10
919 4.0340 184.80 185.13 14.20
920 4.0360 175.30 185.09 14.00
921 4.0380 187.80 185.05 14.90
922 4.0400 189.60 185.01 14.80
923 4.0420 190.00 184.98 14.70
924 4.0440 175.80 184.94 14.00
925 4.0460 221.60 184.90 15.80
926 4.0480 182.10 184.87 14.50
927 4.0500 190.30 184.83 14.90
928 4.0520 192.70 184.80 14.80
929 4.0540 171.40 184.76 13.80
930 4.0560 177.10 184.73 14.10
931 4.0580 169.80 184.69 14.10
932 4.0600 180.60 184.66 14.50
933 4.0620 179.30 184.63 14.20
934 4.0640 176.70 184.60 14.00
935 4.0660 187.20 184.57 14.50
936 4.0680 173.70 184.53 14.20
937 4.0700 172.30 184.50 14.10
938 4.0720 196.20 184.47 15.00
939 4.0740 169.30 184.44 13.70
940 4.0760 168.70 184.42 13.80
941 4.0780 198.70 184.39 15.20
942 4.0800 196.90 184.36 15.10
943 4.0820 197.90 184.33 15.00
944 4.0840 177.90 184.31 14.00
945 4.0860 195.30 184.28 14.80
946 4.0880 173.90 184.26 14.20
947 4.0900 208.30 184.24 15.50
948 4.0920 185.10 184.21 14.50
949 4.0940 189.40 184.19 14.50
950 4.0960 208.30 184.17 15.30
951 4.0980 188.20 184.15 14.70
952 4.1000 207.00 184.13 15.50
953 4.1020 162.90 184.11 13.60
954 4.1040 210.90 184.09 15.30
955 4.1060 185.50 184.08 14.40
956 4.1080 173.20 184.06 14.20
957 4.1100 175.20 184.05 14.20
958 4.1120 171.30 184.03 13.90
959 4.1140 162.80 184.02 13.40
960 4.1160 186.40 184.01 14.50
961 4.1180 196.10 184.00 15.10
962 4.1200 188.90 183.99 14.80
963 4.1220 192.40 183.99 14.70
964 4.1240 183.90 183.98 14.30
965 4.1260 205.10 183.98 15.20
966 4.1280 191.60 183.97 14.90
967 4.1300 195.20 183.97 15.00
968 4.1320 200.30 183.97 15.00
969 4.1340 172.40 183.97 13.80
970 4.1360 171.50 183.98 13.90
971 4.1380 192.50 183.98 15.00
972 4.1400 167.60 183.99 13.80
973 4.1420 156.90 183.99 13.30
974 4.1440 198.90 184.01 14.80
975 4.1460 191.50 184.02 14.70
976 4.1480 161.10 184.03 13.60
977 4.1500 190.00 184.05 14.80
978 4.1520 188.20 184.07 14.60
979 4.1540 196.50 184.09 14.70
980 4.1560 191.30 184.11 14.60
981 4.1580 160.60 184.14 13.70
982 4.1600 206.90 184.17 15.40
983 4.1620 221.90 184.20 15.80
984 4.1640 207.70 184.24 15.20
985 4.1660 179.60 184.27 14.30
986 4.1680 195.30 184.31 15.10
987 4.1700 189.80 184.36 14.70
988 4.1720 200.00 184.41 15.10
989 4.1740 176.90 184.46 13.90
990 4.1760 190.40 184.51 14.70
991 4.1780 185.50 184.57 14.70
992 4.1800 197.50 184.64 15.10
993 4.1820 208.00 184.70 15.30
994 4.1840 193.50 184.78 14.60
995 4.1860 211.70 184.85 15.50
996 4.1880 200.30 184.94 15.30
997 4.1900 186.70 185.02 14.60
998 4.1920 196.10 185.12 14.90
999 4.1940 181.40 185.22 14.20
1000 4.1960 209.30 185.32 15.40
1001 4.1980 206.20 185.44 15.50
1002 4.2000 171.00 185.56 14.00
1003 4.2020 169.60 185.69 13.80
1004 4.2040 202.90 185.82 15.00
1005 4.2060 201.30 185.97 15.20
1006 4.2080 201.60 186.12 15.40
1007 4.2100 205.50 186.28 15.40
1008 4.2120 179.70 186.46 14.30
1009 4.2140 183.90 186.64 14.30
1010 4.2160 186.30 186.84 14.50
1011 4.2180 209.30 187.04 15.60
1012 4.2200 189.20 187.27 14.70
1013 4.2220 207.90 187.50 15.30
1014 4.2240 193.50 187.75 14.70
1015 4.2260 213.30 188.02 15.50
1016 4.2280 203.30 188.31 15.50
1017 4.2300 195.80 188.61 15.00
1018 4.2320 212.10 188.93 15.50
1019 4.2340 196.60 189.28 14.80
1020 4.2360 184.40 189.65 14.50
1021 4.2380 193.40 190.05 15.10
1022 4.2400 199.60 190.47 15.10
1023 4.2420 217.10 190.93 15.60
1024 4.2440 199.10 191.41 14.80
1025 4.2460 206.80 191.94 15.30
1026 4.2480 192.30 192.50 15.00
1027 4.2500 203.20 193.11 15.30
1028 4.2520 231.90 193.76 16.20
1029 4.2540 199.90 194.46 14.90
1030 4.2560 194.00 195.23 14.80
1031 4.2580 180.90 196.05 14.50
1032 4.2600 196.90 196.95 15.00
1033 4.2620 192.10 197.92 14.70
1034 4.2640 209.80 198.98 15.20
1035 4.2660 198.20 200.14 15.00
1036 4.2680 225.40 201.41 16.30
1037 4.2700 192.60 202.79 14.90
1038 4.2720 215.90 204.32 15.60
1039 4.2740 223.90 206.00 15.80
1040 4.2760 222.30 207.86 15.90
1041 4.2780 241.70 209.92 16.80
1042 4.2800 226.10 212.21 16.10
1043 4.2820 256.00 214.78 17.00
1044 4.2840 231.30 217.67 16.00
1045 4.2860 222.20 220.93 15.80
1046 4.2880 230.00 224.64 16.30
1047 4.2900 275.90 228.87 17.90
1048 4.2920 235.40 233.72 16.30
1049 4.2940 264.50 239.33 17.10
1050 4.2960 273.20 245.67 17.60
1051 4.2980 260.00 253.24 17.40
1052 4.3000 267.60 262.08 17.50
1053 4.3020 297.40 272.41 18.30
1054 4.3040 295.00 284.50 18.10
1055 4.3060 300.60 298.60 18.40
1056 4.3080 301.00 315.00 18.80
1057 4.3100 333.50 333.95 19.50
1058 4.3120 388.40 355.66 21.00
1059 4.3140 452.20 380.19 22.40
1060 4.3160 459.90 407.34 22.80
1061 4.3180 504.20 436.58 24.10
1062 4.3200 553.30 466.80 25.10
1063 4.3220 549.10 496.20 24.80
1064 4.3240 654.80 522.34 27.00
1065 4.3260 726.00 542.38 28.70
1066 4.3280 715.30 553.62 28.80
1067 4.3300 762.70 554.29 29.80
1068 4.3320 708.00 544.19 28.30
1069 4.3340 667.80 524.83 27.30
1070 4.3360 634.70 498.87 26.80
1071 4.3380 637.30 469.34 27.30
1072 4.3400 510.40 438.90 24.10
1073 4.3420 445.30 409.48 22.50
1074 4.3440 417.40 382.21 21.50
1075 4.3460 411.80 357.68 21.60
1076 4.3480 408.60 336.04 21.70
1077 4.3500 385.30 317.20 21.10
1078 4.3520 331.30 300.96 19.30
1079 4.3540 303.50 287.04 18.30
1080 4.3560 258.00 275.16 17.10
1081 4.3580 265.30 265.05 17.40
1082 4.3600 241.40 256.44 16.60
1083 4.3620 238.00 249.12 16.40
1084 4.3640 229.50 242.87 16.00
1085 4.3660 211.40 237.54 15.40
1086 4.3680 225.20 232.96 16.20
1087 4.3700 214.20 229.03 15.60
1088 4.3720 197.70 225.64 14.90
1089 4.3740 193.30 222.70 14.60
1090 4.3760 206.90 220.15 15.30
1091 4.3780 204.00 217.94 15.30
1092 4.3800 234.20 216.01 16.30
1093 4.3820 217.60 214.34 15.60
1094 4.3840 190.90 212.90 14.60
1095 4.3860 223.80 211.66 15.80
1096 4.3880 228.50 210.59 16.20
1097 4.3900 222.80 209.70 15.90
1098 4.3920 218.10 208.95 15.50
1099 4.3940 217.00 208.34 15.50
1100 4.3960 206.60 207.86 15.30
1101 4.3980 195.50 207.51 14.90
1102 4.4000 201.80 207.28 15.10
1103 4.4020 225.40 207.16 15.90
1104 4.4040 217.60 207.15 15.60
1105 4.4060 201.00 207.25 15.10
1106 4.4080 195.50 207.46 15.00
1107 4.4100 213.40 207.78 15.60
1108 4.4120 194.60 208.21 14.70
1109 4.4140 183.30 208.76 14.20
1110 4.4160 212.90 209.42 15.50
1111 4.4180 215.30 210.21 15.70
1112 4.4200 193.20 211.13 14.80
1113 4.4220 191.30 212.19 14.60
1114 4.4240 216.60 213.40 15.50
1115 4.4260 224.70 214.77 15.90
1116 4.4280 210.60 216.32 15.50
1117 4.4300 211.30 218.06 15.50
1118 4.4320 208.80 220.02 15.30
1119 4.4340 234.40 222.20 16.10
1120 4.4360 201.90 224.65 15.10
1121 4.4380 245.30 227.40 16.70
1122 4.4400 223.30 230.48 15.90
1123 4.4420 224.10 233.94 15.80
1124 4.4440 226.80 237.84 15.80
1125 4.4460 213.90 242.24 15.60
1126 4.4480 247.30 247.23 16.90
1127 4.4500 254.10 252.91 16.90
1128 4.4520 235.60 259.41 16.20
1129 4.4540 246.60 266.88 16.50
1130 4.4560 251.00 275.51 16.80
1131 4.4580 247.30 285.54 16.90
1132 4.4600 238.20 297.24 16.40
1133 4.4620 241.10 310.94 16.40
1134 4.4640 286.40 327.04 17.80
1135 4.4660 331.70 345.98 19.40
1136 4.4680 337.10 368.25 19.70
1137 4.4700 386.20 394.38 20.90
1138 4.4720 484.80 424.93 23.30
1139 4.4740 475.40 460.39 23.10
1140 4.4760 538.20 501.11 24.80
1141 4.4780 610.40 547.18 26.60
1142 4.4800 615.60 598.13 26.40
1143 4.4820 721.80 652.68 28.60
1144 4.4840 742.90 708.35 28.80
1145 4.4860 877.70 761.28 31.70
1146 4.4880 978.90 806.35 33.90
1147 4.4900 1054.90 837.98 34.80
1148 4.4920 1085.30 851.42 35.00
1149 4.4940 1050.30 844.42 34.40
1150 4.4960 1016.20 818.17 34.50
1151 4.4980 867.30 776.87 31.90
1152 4.5000 829.10 726.37 30.60
1153 4.5020 756.50 672.32 29.30
1154 4.5040 612.30 619.14 26.20
1155 4.5060 599.90 569.71 26.20
1156 4.5080 566.40 525.54 25.80
1157 4.5100 479.50 487.23 23.40
1158 4.5120 510.80 454.81 23.90
1159 4.5140 399.00 428.04 21.00
1160 4.5160 405.50 406.52 21.60
1161 4.5180 413.50 389.83 22.00
1162 4.5200 413.20 377.60 21.60
1163 4.5220 393.30 369.48 21.00
1164 4.5240 388.00 365.18 20.90
1165 4.5260 420.60 364.45 22.10
1166 4.5280 415.50 367.03 22.10
1167 4.5300 362.30 372.58 20.20
1168 4.5320 433.20 380.64 22.10
1169 4.5340 431.00 390.45 22.00
1170 4.5360 433.40 400.90 22.40
1171 4.5380 463.90 410.48 23.40
1172 4.5400 509.10 417.40 24.00
1173 4.5420 504.20 419.91 23.80
1174 4.5440 491.50 416.81 23.50
1175 4.5460 508.60 407.89 24.30
1176 4.5480 475.00 393.97 23.70
1177 4.5500 446.70 376.64 22.60
1178 4.5520 420.00 357.68 21.70
1179 4.5540 407.40 338.59 21.40
1180 4.5560 360.80 320.43 20.50
1181 4.5580 342.40 303.77 20.10
1182 4.5600 333.50 288.89 19.50
1183 4.5620 312.40 275.79 18.80
1184 4.5640 281.20 264.37 17.80
1185 4.5660 271.90 254.50 17.60
1186 4.5680 278.60 245.98 18.20
1187 4.5700 269.60 238.64 17.60
1188 4.5720 230.30 232.30 16.10
1189 4.5740 229.20 226.83 16.00
1190 4.5760 242.00 222.08 16.80
1191 4.5780 233.30 217.93 16.60
1192 4.5800 233.30 214.30 16.30
1193 4.5820 237.80 211.09 16.40
1194 4.5840 226.40 208.24 16.00
1195 4.5860 224.00 205.70 16.00
1196 4.5880 216.60 203.41 16.00
1197 4.5900 177.10 201.35 14.30
1198 4.5920 223.50 199.48 15.90
1199 4.5940 209.60 197.77 15.30
1200 4.5960 197.70 196.20 15.10
1201 4.5980 212.40 194.76 15.80
1202 4.6000 196.00 193.44 15.00
1203 4.6020 203.50 192.21 15.20
1204 4.6040 197.70 191.08 14.90
1205 4.6060 186.60 190.02 14.60
1206 4.6080 218.10 189.04 16.00
1207 4.6100 210.40 188.12 15.60
1208 4.6120 188.20 187.26 14.60
1209 4.6140 223.90 186.46 15.80
1210 4.6160 196.80 185.70 15.00
1211 4.6180 214.50 184.99 15.80
1212 4.6200 204.60 184.32 15.30
1213 4.6220 204.30 183.69 15.20
1214 4.6240 189.90 183.09 14.60
1215 4.6260 212.90 182.52 15.60
1216 4.6280 196.10 181.98 15.10
1217 4.6300 210.70 181.47 15.60
1218 4.6320 205.00 180.98 15.20
1219 4.6340 192.00 180.52 14.70
1220 4.6360 189.60 180.08 14.70
1221 4.6380 195.50 179.66 15.10
1222 4.6400 188.90 179.26 14.60
1223 4.6420 180.30 178.87 14.40
1224 4.6440 156.30 178.50 13.20
1225 4.6460 186.60 178.15 14.50
1226 4.6480 221.80 177.81 16.10
1227 4.6500 204.00 177.48 15.30
1228 4.6520 192.20 177.17 14.70
1229 4.6540 189.30 176.87 14.50
1230 4.6560 222.70 176.58 15.90
1231 4.6580 194.30 176.30 15.00
1232 4.6600 190.10 176.03 14.70
1233 4.6620 212.00 175.77 15.40
1234 4.6640 208.50 175.51 15.20
1235 4.6660 192.50 175.27 14.70
1236 4.6680 187.40 175.04 14.80
1237 4.6700 193.10 174.81 14.90
1238 4.6720 157.40 174.59 13.30
1239 4.6740 179.50 174.37 14.20
1240 4.6760 168.50 174.17 13.90
1241 4.6780 147.70 173.96 13.10
1242 4.6800 186.70 173.77 14.60
1243 4.6820 183.60 173.58 14.40
1244 4.6840 166.80 173.40 13.70
1245 4.6860 196.60 173.22 14.90
1246 4.6880 178.00 173.04 14.40
1247 4.6900 188.40 172.87 14.70
1248 4.6920 169.10 172.71 13.80
1249 4.6940 177.70 172.54 14.00
1250 4.6960 167.60 172.39 13.90
1251 4.6980 150.30 172.23 13.20
1252 4.7000 161.70 172.08 13.50
1253 4.7020 190.90 172.46 14.60
1254 4.7040 191.80 172.34 14.60
1255 4.7060 174.10 172.23 14.00
1256 4.7080 204.40 172.11 15.40
1257 4.7100 187.00 172.01 14.70
1258 4.7120 186.90 171.90 14.60
1259 4.7140 187.60 171.80 14.40
1260 4.7160 197.70 171.71 15.00
1261 4.7180 204.60 171.62 15.30
1262 4.7200 166.20 171.54 13.80
1263 4.7220 200.40 171.46 15.00
1264 4.7240 180.70 171.38 14.20
1265 4.7260 147.60 171.32 12.90
1266 4.7280 175.50 171.26 14.30
1267 4.7300 183.40 171.20 14.40
1268 4.7320 179.90 171.15 14.30
1269 4.7340 176.20 171.11 14.00
1270 4.7360 199.40 171.07 15.10
1271 4.7380 193.00 171.04 15.00
1272 4.7400 181.80 171.02 14.50
1273 4.7420 183.40 171.02 14.40
1274 4.7440 175.30 171.02 14.00
1275 4.7460 161.70 171.03 13.50
1276 4.7480 170.90 171.06 14.10
1277 4.7500 169.10 171.11 13.90
1278 4.7520 184.60 171.17 14.30
1279 4.7540 154.20 171.25 13.10
1280 4.7560 168.50 171.35 13.80
1281 4.7580 169.40 171.49 14.00
1282 4.7600 194.10 171.65 14.90
1283 4.7620 179.50 171.86 14.20
1284 4.7640 179.60 172.11 14.20
1285 4.7660 154.10 172.42 13.20
1286 4.7680 182.00 172.79 14.60
1287 4.7700 153.50 173.26 13.30
1288 4.7720 175.90 173.83 14.00
1289 4.7740 200.70 174.54 15.00
1290 4.7760 178.80 175.44 14.20
1291 4.7780 192.40 176.59 14.90
1292 4.7800 173.70 178.07 14.10
1293 4.7820 189.10 180.02 14.60
1294 4.7840 166.40 182.66 13.60
1295 4.7860 197.70 186.34 14.90
1296 4.7880 188.70 191.69 14.90
1297 4.7900 193.70 199.92 14.80
1298 4.7920 182.30 214.34 14.30
1299 4.7940 230.80 253.70 16.00
1300 4.7960 329.70 383.98 19.30
1301 4.7980 521.10 673.86 24.60
1302 4.8000 1108.50 1257.41 35.90
1303 4.8020 2317.30 2343.64 51.80
1304 4.8040 3290.60 3369.84 61.80
1305 4.8060 1655.70 2155.18 43.50
1306 4.8080 640.70 680.70 27.20
1307 4.8100 361.60 308.27 20.50
1308 4.8120 254.10 242.04 16.80
1309 4.8140 208.60 215.86 15.20
1310 4.8160 213.00 201.30 15.60
1311 4.8180 203.10 192.34 15.40
1312 4.8200 184.80 186.42 14.40
1313 4.8220 162.20 182.31 13.50
1314 4.8240 172.30 179.33 13.80
1315 4.8260 161.10 177.09 13.50
1316 4.8280 206.50 175.37 15.50
1317 4.8300 175.50 174.01 14.20
1318 4.8320 188.40 172.92 14.50
1319 4.8340 180.10 172.02 14.20
1320 4.8360 158.60 171.27 13.40
1321 4.8380 180.70 170.65 14.50
1322 4.8400 171.40 170.11 14.00
1323 4.8420 176.70 169.65 14.10
1324 4.8440 154.10 169.24 13.10
1325 4.8460 180.90 168.89 14.30
1326 4.8480 167.50 168.57 13.90
1327 4.8500 175.70 168.29 14.20
1328 4.8520 137.40 168.04 12.40
1329 4.8540 166.30 167.81 13.60
1330 4.8560 150.00 167.60 13.10
1331 4.8580 178.90 167.41 14.40
1332 4.8600 178.50 167.23 14.30
1333 4.8620 182.70 167.07 14.30
1334 4.8640 149.10 166.91 12.90
1335 4.8660 167.70 166.77 13.80
1336 4.8680 146.80 166.64 13.00
1337 4.8700 162.80 166.51 13.60
1338 4.8720 153.40 166.40 13.10
1339 4.8740 169.60 166.28 13.70
1340 4.8760 181.60 166.18 14.30
1341 4.8780 170.90 166.07 14.10
1342 4.8800 185.30 165.98 14.50
1343 4.8820 163.20 165.88 13.60
1344 4.8840 167.60 165.79 13.60
1345 4.8860 154.50 165.71 13.30
1346 4.8880 177.60 165.63 14.30
1347 4.8900 147.60 165.55 13.00
1348 4.8920 149.70 165.47 13.00
1349 4.8940 164.10 165.39 13.60
1350 4.8960 163.80 165.32 13.60
1351 4.8980 166.30 165.25 13.90
1352 4.9000 153.00 165.18 13.30
1353 4.9020 160.70 165.11 13.40
1354 4.9040 164.10 165.05 13.60
1355 4.9060 173.10 164.98 13.90
1356 4.9080 153.40 164.92 13.40
1357 4.9100 168.50 164.38 13.90
1358 4.9120 150.40 164.34 12.90
1359 4.9140 144.50 164.30 12.70
1360 4.9160 143.60 164.26 12.80
1361 4.9180 138.30 164.21 12.60
1362 4.9200 155.20 164.17 13.30
1363 4.9220 177.50 164.13 14.20
1364 4.9240 150.50 164.09 12.90
1365 4.9260 134.10 164.05 12.30
1366 4.9280 169.30 164.01 14.10
1367 4.9300 155.20 163.97 13.40
1368 4.9320 181.10 163.93 14.20
1369 4.9340 150.20 163.89 13.00
1370 4.9360 149.60 163.85 13.00
1371 4.9380 172.20 163.81 14.20
1372 4.9400 143.70 163.77 12.80
1373 4.9420 161.40 163.73 13.50
1374 4.9440 166.40 163.69 13.60
1375 4.9460 166.40 163.65 13.80
1376 4.9480 166.70 163.61 14.00
1377 4.9500 171.30 163.57 14.00
1378 4.9520 152.00 163.54 13.10
1379 4.9540 164.90 163.50 13.60
1380 4.9560 155.00 163.46 13.30
1381 4.9580 169.30 163.42 14.00
1382 4.9600 145.60 163.38 12.90
1383 4.9620 179.30 163.35 14.20
1384 4.9640 159.60 163.31 13.30
1385 4.9660 161.40 163.27 13.50
1386 4.9680 141.40 163.24 12.90
1387 4.9700 135.50 163.20 12.40
1388 4.9720 176.70 163.16 14.20
1389 4.9740 159.70 163.13 13.30
1390 4.9760 159.50 163.09 13.50
1391 4.9780 162.30 163.05 13.80
1392 4.9800 159.40 163.02 13.50
1393 4.9820 143.10 162.98 12.70
1394 4.9840 168.60 162.95 13.70
1395 4.9860 134.80 162.91 12.30
1396 4.9880 150.50 162.88 13.20
1397 4.9900 162.00 162.84 13.60
1398 4.9920 154.70 162.81 13.10
1399 4.9940 165.30 162.77 13.60
1400 4.9960 173.10 162.74 14.00
1401 4.9980 170.30 162.70 14.10
1402 5.0000 159.30 162.67 13.50
1403 5.0020 157.70 162.63 13.30
1404 5.0040 157.50 162.60 13.30
1405 5.0060 173.10 162.57 14.00
1406 5.0080 168.20 162.53 14.00
1407 5.0100 171.30 162.50 14.00
1408 5.0120 170.10 162.46 13.80
1409 5.0140 189.60 162.43 14.50
1410 5.0160 160.50 162.40 13.50
1411 5.0180 145.40 162.37 12.90
1412 5.0200 151.80 162.33 13.10
1413 5.0220 143.10 162.30 12.70
1414 5.0240 152.40 162.27 13.00
1415 5.0260 155.70 162.24 13.30
1416 5.0280 140.90 162.20 12.80
1417 5.0300 143.90 162.17 12.80
1418 5.0320 163.40 162.14 13.50
1419 5.0340 169.90 162.11 13.80
1420 5.0360 163.10 162.07 13.60
1421 5.0380 166.70 162.04 13.90
1422 5.0400 196.40 162.01 14.90
1423 5.0420 183.50 161.98 14.40
1424 5.0440 141.00 161.95 12.50
1425 5.0460 168.60 161.92 13.80
1426 5.0480 165.40 161.89 13.90
1427 5.0500 174.00 161.85 14.10
1428 5.0520 140.90 161.82 12.60
1429 5.0540 182.60 161.79 14.30
1430 5.0560 126.50 161.76 12.00
1431 5.0580 142.60 161.79 12.80
1432 5.0600 151.50 161.76 13.20
1433 5.0620 180.90 161.73 14.20
1434 5.0640 166.50 161.70 13.60
1435 5.0660 161.80 161.67 13.40
1436 5.0680 156.10 161.64 13.40
1437 5.0700 180.60 161.61 14.40
1438 5.0720 161.80 161.58 13.40
1439 5.0740 146.40 161.55 12.80
1440 5.0760 139.90 161.52 12.50
1441 5.0780 167.40 161.49 13.90
1442 5.0800 172.30 161.46 14.00
1443 5.0820 184.10 161.43 14.30
1444 5.0840 155.40 161.40 13.10
1445 5.0860 159.50 161.38 13.40
1446 5.0880 175.60 161.35 14.30
1447 5.0900 149.90 161.32 13.10
1448 5.0920 172.10 161.29 13.90
1449 5.0940 160.80 161.26 13.30
1450 5.0960 164.10 161.23 13.70
1451 5.0980 147.60 161.21 13.00
1452 5.1000 179.70 161.18 14.30
1453 5.1020 161.30 161.15 13.50
1454 5.1040 140.40 161.12 12.40
1455 5.1060 146.20 161.10 12.80
1456 5.1080 150.90 161.07 13.20
1457 5.1100 139.00 161.04 12.50
1458 5.1120 156.00 161.01 13.10
1459 5.1140 149.10 160.99 12.90
1460 5.1160 181.20 160.96 14.30
1461 5.1180 155.50 160.93 13.20
1462 5.1200 147.70 160.90 13.00
1463 5.1220 154.00 160.88 13.10
1464 5.1240 156.40 160.85 13.20
1465 5.1260 161.00 160.82 13.50
1466 5.1280 149.80 160.80 13.20
1467 5.1300 164.60 160.77 13.60
1468 5.1320 170.00 160.74 13.80
1469 5.1340 186.30 160.72 14.30
1470 5.1360 149.00 160.69 13.00
1471 5.1380 161.70 160.67 13.60
1472 5.1400 144.10 160.64 12.80
1473 5.1420 163.40 160.61 13.50
1474 5.1440 164.10 160.59 13.50
1475 5.1460 139.30 160.44 12.50
1476 5.1480 179.10 160.41 14.40
1477 5.1500 169.50 160.39 13.90
1478 5.1520 164.10 160.36 13.60
1479 5.1540 168.40 160.34 13.70
1480 5.1560 157.60 160.31 13.30
1481 5.1580 163.70 160.29 13.70
1482 5.1600 153.80 160.26 13.20
1483 5.1620 172.40 160.24 13.80
1484 5.1640 154.10 160.21 13.10
1485 5.1660 134.50 160.19 12.30
1486 5.1680 158.40 160.16 13.50
1487 5.1700 160.50 160.14 13.50
1488 5.1720 169.80 160.12 13.80
1489 5.1740 155.90 160.09 13.10
1490 5.1760 197.40 160.07 15.00
1491 5.1780 150.20 160.04 13.10
1492 5.1800 166.40 160.02 13.70
1493 5.1820 146.70 160.00 12.90
1494 5.1840 157.00 159.97 13.20
1495 5.1860 179.00 159.95 14.20
1496 5.1880 182.10 159.93 14.40
1497 5.1900 165.10 159.90 13.70
1498 5.1920 142.00 159.88 12.60
1499 5.1940 175.30 159.86 14.00
1500 5.1960 173.90 159.83 14.10
1501 5.1980 167.00 159.81 13.80
1502 5.2000 165.90 159.79 13.60
1503 5.2020 179.00 159.76 14.20
1504 5.2040 182.50 159.74 14.20
1505 5.2060 154.80 159.72 13.30
1506 5.2080 173.70 159.70 14.10
1507 5.2100 145.80 159.67 12.80
1508 5.2120 149.30 159.65 12.90
1509 5.2140 168.30 159.63 13.70
1510 5.2160 142.90 159.61 12.80
1511 5.2180 158.20 159.58 13.50
1512 5.2200 181.50 159.56 14.20
1513 5.2220 161.50 159.54 13.40
1514 5.2240 171.40 159.52 13.80
1515 5.2260 158.80 159.49 13.50
1516 5.2280 181.80 159.47 14.50
1517 5.2300 161.30 159.45 13.50
1518 5.2320 153.80 159.43 13.10
1519 5.2340 183.20 159.41 14.30
1520 5.2360 168.70 159.39 13.90
1521 5.2380 165.00 159.46 13.90
1522 5.2400 190.90 159.44 14.60
1523 5.2420 145.60 159.42 12.80
1524 5.2440 173.80 159.40 13.90
1525 5.2460 154.10 159.38 13.40
1526 5.2480 160.50 159.36 13.70
1527 5.2500 175.70 159.34 14.10
1528 5.2520 148.50 159.32 12.90
1529 5.2540 203.60 159.30 15.10
1530 5.2560 145.00 159.28 13.00
1531 5.2580 151.20 159.26 13.20
1532 5.2600 157.80 159.24 13.40
1533 5.2620 161.40 159.22 13.40
1534 5.2640 153.20 159.20 13.10
1535 5.2660 155.70 159.18 13.40
1536 5.2680 156.10 159.16 13.50
1537 5.2700 150.60 159.14 13.10
1538 5.2720 158.10 159.12 13.30
1539 5.2740 173.80 159.10 13.90
1540 5.2760 153.50 159.08 13.30
1541 5.2780 179.60 159.06 14.40
1542 5.2800 145.10 159.04 12.90
1543 5.2820 157.70 158.79 13.30
1544 5.2840 175.20 158.78 14.00
1545 5.2860 150.40 158.76 13.20
1546 5.2880 183.00 158.74 14.60
1547 5.2900 165.40 158.72 13.70
1548 5.2920 139.20 158.71 12.40
1549 5.2940 165.40 158.69 13.70
1550 5.2960 165.90 158.67 13.80
1551 5.2980 151.80 158.65 13.30
1552 5.3000 166.30 158.63 13.70
1553 5.3020 161.60 158.62 13.40
1554 5.3040 165.90 158.60 13.70
1555 5.3060 153.30 158.58 13.30
1556 5.3080 148.00 158.56 13.10
1557 5.3100 160.00 158.55 13.50
1558 5.3120 157.90 158.53 13.30
1559 5.3140 169.30 158.51 13.70
1560 5.3160 148.60 158.50 13.10
1561 5.3180 151.00 158.48 13.30
1562 5.3200 139.90 158.46 12.60
1563 5.3220 146.20 158.45 12.80
1564 5.3240 156.30 158.43 13.20
1565 5.3260 161.30 158.35 13.70
1566 5.3280 155.10 158.33 13.40
1567 5.3300 163.30 158.31 13.60
1568 5.3320 183.20 158.30 14.30
1569 5.3340 187.00 158.28 14.50
1570 5.3360 138.60 158.26 12.60
1571 5.3380 180.70 158.25 14.50
1572 5.3400 155.10 158.23 13.20
1573 5.3420 177.00 158.22 14.10
1574 5.3440 141.40 158.20 12.60
1575 5.3460 199.90 158.19 15.20
1576 5.3480 190.60 158.17 14.80
1577 5.3500 179.30 158.16 14.30
1578 5.3520 182.00 158.14 14.20
1579 5.3540 172.60 158.12 13.90
1580 5.3560 161.30 158.11 13.70
1581 5.3580 170.40 158.10 14.00
1582 5.3600 190.30 158.08 14.70
1583 5.3620 171.30 158.07 13.90
1584 5.3640 183.20 158.05 14.40
1585 5.3660 166.80 158.04 13.80
1586 5.3680 182.90 158.02 14.70
1587 5.3700 173.50 158.01 14.00
1588 5.3720 178.10 157.99 14.20
1589 5.3740 173.50 157.98 13.90
1590 5.3760 174.50 157.96 14.20
1591 5.3780 167.60 157.95 13.90
1592 5.3800 177.30 157.93 14.20
1593 5.3820 162.50 157.92 13.50
1594 5.3840 175.50 157.91 14.00
1595 5.3860 159.70 157.89 13.60
1596 5.3880 154.30 157.88 13.40
1597 5.3900 177.00 157.87 14.20
1598 5.3920 158.40 157.85 13.30
1599 5.3940 167.30 157.84 13.80
1600 5.3960 149.60 157.83 13.10
1601 5.3980 149.10 157.81 13.20
1602 5.4000 165.80 157.80 13.70
1603 5.4020 170.40 157.79 13.90
1604 5.4040 129.70 157.77 12.00
1605 5.4060 161.10 157.76 13.70
1606 5.4080 166.30 157.75 13.90
1607 5.4100 158.30 157.74 13.40
1608 5.4120 165.10 157.73 13.60
1609 5.4140 170.50 157.71 13.80
1610 5.4160 157.90 157.70 13.50
1611 5.4180 162.30 157.69 13.70
1612 5.4200 153.00 157.68 13.30
1613 5.4220 176.80 157.67 14.10
1614 5.4240 177.00 157.65 14.10
1615 5.4260 156.60 157.64 13.40
1616 5.4280 137.50 157.63 12.70
1617 5.4300 172.00 157.62 14.00
1618 5.4320 150.50 157.61 13.00
1619 5.4340 167.90 157.60 13.80
1620 5.4360 171.00 157.59 14.00
1621 5.4380 165.10 157.58 13.90
1622 5.4400 160.50 157.57 13.50
1623 5.4420 172.60 157.56 13.90
1624 5.4440 154.50 157.55 13.20
1625 5.4460 145.90 157.54 13.00
1626 5.4480 154.90 157.53 13.40
1627 5.4500 177.30 157.52 14.30
1628 5.4520 162.00 157.51 13.40
1629 5.4540 159.60 157.50 13.40
1630 5.4560 163.50 157.49 13.70
1631 5.4580 149.70 157.48 13.20
1632 5.4600 176.70 157.48 14.10
1633 5.4620 143.30 157.47 12.70
1634 5.4640 170.60 157.46 13.90
1635 5.4660 163.80 157.45 13.70
1636 5.4680 160.40 157.44 13.60
1637 5.4700 155.00 157.44 13.30
1638 5.4720 151.60 157.43 13.10
1639 5.4740 173.40 157.42 13.90
1640 5.4760 159.60 157.42 13.60
1641 5.4780 151.50 157.41 13.30
1642 5.4800 157.80 157.40 13.50
1643 5.4820 158.20 157.40 13.30
1644 5.4840 143.40 157.39 12.70
1645 5.4860 130.20 157.39 12.20
1646 5.4880 161.60 157.38 13.60
1647 5.4900 147.70 157.38 13.00
1648 5.4920 152.20 157.38 13.10
1649 5.4940 161.90 157.37 13.40
1650 5.4960 165.70 157.37 13.80
1651 5.4980 150.10 157.37 13.20
1652 5.5000 172.10 157.36 14.00
1653 5.5020 146.40 157.36 12.80
1654 5.5040 156.00 157.36 13.20
1655 5.5060 158.10 157.36 13.40
1656 5.5080 154.00 157.36 13.30
1657 5.5100 151.00 157.36 13.20
1658 5.5120 180.10 157.36 14.20
1659 5.5140 146.70 157.36 12.80
1660 5.5160 161.60 157.36 13.60
1661 5.5180 163.90 157.36 13.80
1662 5.5200 155.20 157.36 13.30
1663 5.5220 157.70 157.37 13.30
1664 5.5240 136.20 157.37 12.30
1665 5.5260 143.60 157.37 12.80
1666 5.5280 158.90 157.38 13.70
1667 5.5300 132.00 157.38 12.30
1668 5.5320 148.20 157.39 12.90
1669 5.5340 119.40 157.40 11.60
1670 5.5360 139.90 157.40 12.60
1671 5.5380 157.60 157.41 13.50
1672 5.5400 149.50 157.42 13.00
1673 5.5420 136.60 157.43 12.40
1674 5.5440 159.10 157.44 13.30
1675 5.5460 143.20 157.46 12.80
1676 5.5480 148.60 157.47 13.10
1677 5.5500 160.30 157.48 13.60
1678 5.5520 155.90 157.50 13.20
1679 5.5540 146.20 157.52 12.80
1680 5.5560 142.40 157.53 12.80
1681 5.5580 162.90 157.55 13.80
1682 5.5600 164.30 157.57 13.70
1683 5.5620 158.10 157.60 13.30
1684 5.5640 157.90 157.62 13.30
1685 5.5660 155.80 157.65 13.30
1686 5.5680 169.20 157.67 14.00
1687 5.5700 144.30 157.70 12.90
1688 5.5720 156.20 157.73 13.20
1689 5.5740 170.50 157.77 13.80
1690 5.5760 165.90 157.80 13.80
1691 5.5780 173.80 157.84 14.20
1692 5.5800 164.30 157.88 13.70
1693 5.5820 152.40 157.93 13.10
1694 5.5840 175.70 157.97 14.10
1695 5.5860 167.70 158.02 13.80
1696 5.5880 147.90 158.07 13.10
1697 5.5900 166.10 158.13 13.90
1698 5.5920 151.30 158.19 13.00
1699 5.5940 143.20 158.25 12.70
1700 5.5960 158.70 158.32 13.40
1701 5.5980 191.40 158.39 14.90
1702 5.6000 173.30 158.47 14.00
1703 5.6020 154.60 158.55 13.20
1704 5.6040 141.50 158.64 12.70
1705 5.6060 157.00 158.74 13.30
1706 5.6080 174.20 158.84 14.20
1707 5.6100 139.80 158.95 12.70
1708 5.6120 140.20 159.07 12.60
1709 5.6140 151.20 159.19 13.00
1710 5.6160 146.30 159.33 12.90
1711 5.6180 162.40 159.47 13.70
1712 5.6200 142.60 159.63 12.80
1713 5.6220 166.30 159.80 13.70
1714 5.6240 156.10 159.99 13.20
1715 5.6260 137.20 160.19 12.50
1716 5.6280 178.10 160.40 14.30
1717 5.6300 155.20 160.64 13.30
1718 5.6320 152.70 160.90 13.10
1719 5.6340 161.30 161.18 13.40
1720 5.6360 175.10 161.49 14.10
1721 5.6380 161.90 161.82 13.70
1722 5.6400 157.90 162.19 13.40
1723 5.6420 134.80 162.60 12.30
1724 5.6440 154.50 163.05 13.10
1725 5.6460 145.70 163.55 12.90
1726 5.6480 162.70 164.11 13.60
1727 5.6500 159.30 164.73 13.50
1728 5.6520 163.20 165.42 13.60
1729 5.6540 161.70 166.20 13.40
1730 5.6560 160.80 167.08 13.60
1731 5.6580 172.20 168.08 14.10
1732 5.6600 154.90 169.22 13.30
1733 5.6620 185.20 170.54 14.50
1734 5.6640 180.10 172.06 14.20
1735 5.6660 195.90 173.83 14.90
1736 5.6680 161.90 175.92 13.70
1737 5.6700 153.00 178.40 13.20
1738 5.6720 193.00 181.37 14.80
1739 5.6740 219.10 184.96 15.70
1740 5.6760 187.40 189.33 14.60
1741 5.6780 211.30 194.64 15.60
1742 5.6800 217.30 201.12 15.70
1743 5.6820 208.90 209.01 15.40
1744 5.6840 244.20 218.52 16.50
1745 5.6860 239.10 229.87 16.50
1746 5.6880 254.30 243.11 17.10
1747 5.6900 247.00 258.09 16.80
1748 5.6920 307.40 274.15 18.70
1749 5.6940 327.40 289.99 19.20
1750 5.6960 362.70 303.56 20.30
1751 5.6980 323.80 312.41 19.40
1752 5.7000 373.00 314.52 20.60
1753 5.7020 343.90 309.30 19.70
1754 5.7040 313.90 297.96 18.80
1755 5.7060 301.00 282.90 18.50
1756 5.7080 318.00 266.58 19.10
1757 5.7100 299.00 250.80 18.50
1758 5.7120 256.70 236.57 17.00
1759 5.7140 281.30 224.25 17.80
1760 5.7160 233.10 213.84 16.20
1761 5.7180 248.70 205.20 16.90
1762 5.7200 225.90 198.09 16.00
1763 5.7220 230.40 192.26 16.20
1764 5.7240 238.70 187.50 16.30
1765 5.7260 191.90 183.59 14.80
1766 5.7280 186.20 180.38 14.60
1767 5.7300 180.70 177.72 14.30
1768 5.7320 177.30 175.50 14.10
1769 5.7340 177.70 173.64 14.10
1770 5.7360 174.20 172.06 14.00
1771 5.7380 151.40 170.71 13.20
1772 5.7400 160.80 169.55 13.50
1773 5.7420 181.80 168.55 14.30
1774 5.7440 172.80 167.68 13.90
1775 5.7460 179.70 166.93 14.30
1776 5.7480 145.90 166.27 13.00
1777 5.7500 164.70 165.70 13.70
1778 5.7520 149.10 165.20 13.00
1779 5.7540 140.10 164.76 12.50
1780 5.7560 151.80 164.39 13.20
1781 5.7580 161.80 164.07 13.70
1782 5.7600 168.00 163.79 13.80
1783 5.7620 157.20 163.55 13.40
1784 5.7640 164.50 163.36 13.60
1785 5.7660 190.50 163.20 14.70
1786 5.7680 156.10 163.07 13.40
1787 5.7700 176.60 162.98 14.30
1788 5.7720 176.20 162.92 14.00
1789 5.7740 164.00 162.88 13.60
1790 5.7760 149.50 162.88 13.10
1791 5.7780 174.60 162.91 14.30
1792 5.7800 145.20 162.96 12.90
1793 5.7820 146.60 163.05 12.90
1794 5.7840 178.80 163.16 14.20
1795 5.7860 155.60 163.30 13.30
1796 5.7880 130.10 163.48 12.30
1797 5.7900 159.50 163.69 13.50
1798 5.7920 169.60 163.94 13.80
1799 5.7940 167.80 164.22 13.70
1800 5.7960 163.20 164.55 13.70
1801 5.7980 152.40 164.92 13.30
1802 5.8000 164.30 165.34 13.70
1803 5.8020 182.40 165.81 14.40
1804 5.8040 167.60 166.35 13.70
1805 5.8060 162.60 166.95 13.60
1806 5.8080 183.60 167.62 14.60
1807 5.8100 153.20 168.38 13.20
1808 5.8120 144.70 169.24 12.80
1809 5.8140 168.00 170.21 13.70
1810 5.8160 167.30 171.30 13.80
1811 5.8180 166.80 172.54 13.90
1812 5.8200 174.30 173.95 14.10
1813 5.8220 190.30 175.56 14.70
1814 5.8240 158.70 177.40 13.30
1815 5.8260 159.30 179.53 13.50
1816 5.8280 177.20 182.00 14.40
1817 5.8300 174.30 184.90 14.10
1818 5.8320 183.80 188.30 14.40
1819 5.8340 186.90 192.36 14.50
1820 5.8360 218.50 197.24 15.80
1821 5.8380 157.10 203.13 13.50
1822 5.8400 188.00 210.32 14.70
1823 5.8420 222.00 219.12 15.90
1824 5.8440 216.10 229.91 15.50
1825 5.8460 272.70 243.13 17.50
1826 5.8480 221.50 259.22 15.90
1827 5.8500 269.90 278.60 17.50
1828 5.8520 326.00 301.53 19.20
1829 5.8540 409.20 327.86 21.50
1830 5.8560 465.60 356.71 22.90
1831 5.8580 554.30 385.99 25.30
1832 5.8600 604.50 412.19 26.40
1833 5.8620 666.40 430.74 27.50
1834 5.8640 618.60 437.49 26.40
1835 5.8660 624.90 430.70 26.60
1836 5.8680 560.40 412.11 25.40
1837 5.8700 449.30 385.98 22.60
1838 5.8720 427.40 356.96 22.10
1839 5.8740 394.40 328.49 21.10
1840 5.8760 389.00 302.51 20.80
1841 5.8780 328.20 279.77 19.50
1842 5.8800 262.80 260.36 17.30
1843 5.8820 260.30 244.09 17.10
1844 5.8840 226.80 230.62 16.00
1845 5.8860 237.70 219.55 16.40
1846 5.8880 213.10 210.48 15.60
1847 5.8900 205.00 203.03 15.30
1848 5.8920 189.50 196.90 14.60
1849 5.8940 193.70 191.82 14.70
1850 5.8960 183.10 187.58 14.30
1851 5.8980 187.30 184.04 14.70
1852 5.9000 183.40 180.99 14.40
1853 5.9020 177.00 178.38 14.20
1854 5.9040 166.80 176.12 13.60
1855 5.9060 160.40 174.15 13.50
1856 5.9080 165.80 172.42 13.80
1857 5.9100 158.60 170.90 13.50
1858 5.9120 159.80 169.54 13.40
1859 5.9140 167.40 168.33 13.70
1860 5.9160 160.30 167.25 13.40
1861 5.9180 180.70 166.28 14.40
1862 5.9200 156.30 165.40 13.40
1863 5.9220 140.40 164.60 12.60
1864 5.9240 173.50 163.88 13.90
1865 5.9260 164.70 163.22 13.60
1866 5.9280 155.40 162.62 13.40
1867 5.9300 140.70 162.07 12.70
1868 5.9320 151.90 161.56 13.10
1869 5.9340 158.60 161.09 13.40
1870 5.9360 161.00 160.65 13.50
1871 5.9380 151.80 160.25 13.20
1872 5.9400 157.80 159.88 13.40
1873 5.9420 161.90 159.53 13.50
1874 5.9440 158.10 159.21 13.30
1875 5.9460 159.90 158.91 13.40
1876 5.9480 148.20 158.63 13.00
1877 5.9500 168.10 158.36 13.90
1878 5.9520 145.70 158.11 12.80
1879 5.9540 154.30 157.88 13.10
1880 5.9560 155.10 157.66 13.20
1881 5.9580 152.40 157.45 13.30
1882 5.9600 190.70 157.25 14.80
1883 5.9620 168.60 157.07 13.80
1884 5.9640 189.80 156.89 14.60
1885 5.9660 175.10 156.72 14.00
1886 5.9680 149.20 156.56 13.10
1887 5.9700 151.30 156.41 13.20
1888 5.9720 172.80 156.26 14.00
1889 5.9740 142.00 156.13 12.60
1890 5.9760 153.30 156.00 13.20
1891 5.9780 157.40 155.87 13.60
1892 5.9800 162.30 155.75 13.60
1893 5.9820 164.00 155.63 13.60
1894 5.9840 133.40 155.52 12.20
1895 5.9860 151.60 155.41 13.10
1896 5.9880 149.90 155.31 13.10
1897 5.9900 134.70 155.21 12.40
1898 5.9920 153.90 155.12 9.80
1899 5.9940 150.10 155.03 10.30
1900 5.9960 147.00 154.94 10.80
1901 5.9980 169.90 154.85 12.00
1902 6.0000 161.80 154.77 12.00
1903 6.0020 136.40 154.69 11.10
1904 6.0040 164.70 154.61 12.20
1905 6.0060 158.00 154.54 12.10
1906 6.0080 167.50 154.47 12.50
1907 6.0100 144.50 154.40 11.80
1908 6.0120 174.20 154.33 12.90
1909 6.0140 140.90 154.26 11.60
1910 6.0160 145.30 154.20 11.80
1911 6.0180 145.40 154.13 11.90
1912 6.0200 162.90 154.07 12.70
1913 6.0220 146.70 154.01 12.00
1914 6.0240 162.90 153.95 12.70
1915 6.0260 151.10 153.90 12.20
1916 6.0280 166.90 153.84 13.00
1917 6.0300 151.90 153.79 12.40
1918 6.0320 166.40 153.73 12.90
1919 6.0340 136.10 153.68 11.60
1920 6.0360 146.30 153.63 12.10
1921 6.0380 149.90 153.58 12.30
1922 6.0400 150.60 153.53 12.40
1923 6.0420 144.20 153.49 12.10
1924 6.0440 160.70 153.44 12.70
1925 6.0460 165.40 153.39 12.90
1926 6.0480 138.00 153.35 11.80
1927 6.0500 148.50 153.30 12.30
1928 6.0520 144.50 153.26 12.00
1929 6.0540 125.00 153.22 11.20
1930 6.0560 139.50 153.17 11.80
1931 6.0580 162.60 153.13 12.90
1932 6.0600 145.60 153.09 12.20
1933 6.0620 156.10 153.05 12.50
1934 6.0640 139.70 153.01 11.80
1935 6.0660 141.50 152.97 11.90
1936 6.0680 147.90 152.94 12.30
1937 6.0700 130.20 152.90 11.50
1938 6.0720 143.50 152.86 12.10
1939 6.0740 133.10 152.82 11.50
1940 6.0760 155.10 152.79 12.50
1941 6.0780 135.10 152.75 11.70
1942 6.0800 148.30 152.72 12.30
1943 6.0820 151.90 152.68 12.30
1944 6.0840 151.90 152.65 12.40
1945 6.0860 160.60 152.61 12.60
1946 6.0880 160.30 152.58 12.70
1947 6.0900 137.20 152.54 11.90
1948 6.0920 149.70 152.51 12.30
1949 6.0940 142.00 152.48 11.90
1950 6.0960 146.70 152.45 12.10
1951 6.0980 148.40 152.41 12.30
1952 6.1000 166.60 152.38 13.00
1953 6.1020 165.40 152.35 12.90
1954 6.1040 145.40 152.32 12.00
1955 6.1060 137.50 152.29 11.70
1956 6.1080 139.10 152.26 11.90
1957 6.1100 154.20 152.23 12.60
1958 6.1120 163.10 152.20 12.70
1959 6.1140 144.90 152.17 12.00
1960 6.1160 156.70 152.23 12.50
1961 6.1180 147.20 152.20 12.10
1962 6.1200 169.70 152.17 13.10
1963 6.1220 136.60 152.14 11.70
1964 6.1240 143.20 152.12 11.90
1965 6.1260 179.00 152.09 13.30
1966 6.1280 138.50 152.06 11.80
1967 6.1300 146.20 152.03 12.20
1968 6.1320 147.60 152.01 12.20
1969 6.1340 151.10 151.98 12.20
1970 6.1360 148.40 151.95 12.20
1971 6.1380 148.00 151.93 12.20
1972 6.1400 167.50 151.90 13.10
1973 6.1420 165.10 151.87 12.80
1974 6.1440 135.80 151.85 11.70
1975 6.1460 137.60 151.82 11.70
1976 6.1480 149.80 151.79 12.30
1977 6.1500 157.60 151.77 12.70
1978 6.1520 144.70 151.74 12.10
1979 6.1540 146.20 151.72 12.10
1980 6.1560 153.40 151.69 12.30
1981 6.1580 119.70 151.67 11.10
1982 6.1600 150.90 151.64 12.30
1983 6.1620 136.50 151.62 11.80
1984 6.1640 157.10 151.59 12.50
1985 6.1660 144.80 151.57 12.00
1986 6.1680 146.50 151.54 12.20
1987 6.1700 151.30 151.52 12.50
1988 6.1720 148.60 151.49 12.20
1989 6.1740 146.30 151.47 12.00
1990 6.1760 156.20 151.45 12.50
1991 6.1780 149.20 151.42 12.30
1992 6.1800 158.70 151.40 12.60
1993 6.1820 157.30 151.37 12.50
1994 6.1840 141.80 151.35 11.90
1995 6.1860 138.30 151.33 11.70
1996 6.1880 138.20 151.30 11.90
1997 6.1900 133.60 151.28 11.60
1998 6.1920 147.30 151.26 12.20
1999 6.1940 142.40 151.23 11.90
2000 6.1960 148.30 151.21 12.20
2001 6.1980 145.70 151.19 12.10
2002 6.2000 138.10 151.17 11.80
2003 6.2020 141.30 151.14 11.90
2004 6.2040 149.60 151.12 12.20
2005 6.2060 164.40 151.10 12.80
2006 6.2080 156.70 151.08 12.70
2007 6.2100 133.30 151.05 11.70
2008 6.2120 150.40 151.03 12.20
2009 6.2140 148.60 151.01 12.20
2010 6.2160 137.30 150.99 11.60
2011 6.2180 149.70 150.97 12.40
2012 6.2200 146.90 150.94 12.20
2013 6.2220 139.90 150.92 11.90
2014 6.2240 137.90 150.90 11.70
2015 6.2260 136.30 150.88 11.70
2016 6.2280 139.10 150.86 12.00
2017 6.2300 151.90 150.84 12.40
2018 6.2320 131.70 150.82 11.50
2019 6.2340 134.70 150.80 11.70
2020 6.2360 156.40 150.77 12.60
2021 6.2380 140.00 150.75 11.90
2022 6.2400 150.10 150.73 12.40
2023 6.2420 163.20 150.71 12.80
2024 6.2440 135.20 150.69 11.70
2025 6.2460 119.90 150.67 10.90
2026 6.2480 126.50 150.65 11.40
2027 6.2500 120.40 150.63 11.10
2028 6.2520 139.00 150.61 11.80
2029 6.2540 128.70 150.59 11.30
2030 6.2560 143.30 150.57 12.00
2031 6.2580 134.60 150.55 11.80
2032 6.2600 141.50 150.54 12.00
2033 6.2620 167.00 150.52 13.00
2034 6.2640 137.60 150.50 11.80
2035 6.2660 129.60 150.48 11.40
2036 6.2680 154.30 150.46 12.60
2037 6.2700 132.50 150.44 11.60
2038 6.2720 138.80 150.42 11.80
2039 6.2740 131.90 150.40 11.50
2040 6.2760 118.00 150.39 10.90
2041 6.2780 134.30 150.37 11.70
2042 6.2800 139.50 150.35 11.90
2043 6.2820 137.90 150.34 11.80
2044 6.2840 143.00 150.32 12.00
2045 6.2860 150.70 150.30 12.20
2046 6.2880 161.10 150.29 12.80
2047 6.2900 121.90 150.27 11.10
2048 6.2920 155.50 150.25 12.50
2049 6.2940 150.50 150.24 12.20
2050 6.2960 141.00 150.22 11.80
2051 6.2980 166.80 150.21 13.00
2052 6.3000 143.20 150.19 12.10
2053 6.3020 137.10 150.18 11.70
2054 6.3040 138.60 150.16 11.80
2055 6.3060 140.40 150.15 11.80
2056 6.3080 128.00 150.13 11.40
2057 6.3100 149.00 150.12 12.30
2058 6.3120 128.10 150.11 11.30
2059 6.3140 132.20 150.10 11.50
2060 6.3160 154.40 150.08 12.40
2061 6.3180 140.60 150.07 12.00
2062 6.3200 126.60 150.06 11.30
2063 6.3220 142.70 150.05 12.00
2064 6.3240 133.10 150.04 11.60
2065 6.3260 134.20 150.03 11.60
2066 6.3280 134.10 150.02 11.70
2067 6.3300 142.60 150.01 12.00
2068 6.3320 149.20 150.01 12.20
2069 6.3340 131.50 150.00 11.50
2070 6.3360 131.80 149.99 11.40
2071 6.3380 166.50 149.99 13.00
2072 6.3400 149.90 149.98 12.40
2073 6.3420 149.40 149.98 12.20
2074 6.3440 142.00 149.97 11.90
2075 6.3460 146.10 149.92 12.00
2076 6.3480 122.90 149.92 11.20
2077 6.3500 136.30 149.92 11.70
2078 6.3520 134.50 149.92 11.60
2079 6.3540 143.90 149.92 12.00
2080 6.3560 135.80 149.92 11.60
2081 6.3580 138.20 149.93 11.80
2082 6.3600 138.30 149.94 11.80
2083 6.3620 149.20 149.94 12.20
2084 6.3640 149.70 149.95 12.20
2085 6.3660 141.00 149.96 11.80
2086 6.3680 142.30 149.98 12.00
2087 6.3700 151.00 149.99 12.30
2088 6.3720 134.20 150.01 11.60
2089 6.3740 126.80 150.03 11.30
2090 6.3760 126.80 150.05 11.20
2091 6.3780 150.30 150.08 12.30
2092 6.3800 138.10 150.11 11.70
2093 6.3820 143.90 150.14 12.00
2094 6.3840 121.30 150.17 11.00
2095 6.3860 140.50 150.21 11.80
2096 6.3880 159.20 150.25 12.70
2097 6.3900 148.60 150.30 12.30
2098 6.3920 153.70 150.35 12.40
2099 6.3940 141.90 150.41 11.80
2100 6.3960 157.30 150.47 12.50
2101 6.3980 141.20 150.54 11.90
2102 6.4000 137.90 150.62 11.80
2103 6.4020 119.30 150.70 10.90
2104 6.4040 139.60 150.80 11.80
2105 6.4060 151.00 150.90 12.20
2106 6.4080 153.90 151.01 12.50
2107 6.4100 152.90 151.14 12.40
2108 6.4120 136.90 151.28 11.70
2109 6.4140 141.20 151.43 11.80
2110 6.4160 131.40 151.60 11.40
2111 6.4180 132.50 151.79 11.50
2112 6.4200 138.50 152.01 11.80
2113 6.4220 149.50 152.24 12.30
2114 6.4240 166.10 152.51 12.70
2115 6.4260 144.20 152.81 12.00
2116 6.4280 138.30 153.15 11.80
2117 6.4300 133.00 153.53 11.50
2118 6.4320 157.00 153.96 12.50
2119 6.4340 117.90 154.46 10.80
2120 6.4360 144.40 155.02 12.00
2121 6.4380 140.10 155.68 11.90
2122 6.4400 170.80 156.43 13.10
2123 6.4420 165.60 157.32 12.90
2124 6.4440 129.10 158.36 11.30
2125 6.4460 161.40 159.59 12.70
2126 6.4480 174.60 161.08 13.30
2127 6.4500 164.00 162.89 12.80
2128 6.4520 163.90 165.11 12.90
2129 6.4540 143.10 167.85 11.90
2130 6.4560 177.00 171.26 13.30
2131 6.4580 183.40 175.52 13.60
2132 6.4600 179.30 180.82 13.40
2133 6.4620 205.70 187.36 14.40
2134 6.4640 214.60 195.33 14.60
2135 6.4660 218.10 204.79 14.80
2136 6.4680 242.20 215.57 15.70
2137 6.4700 255.30 227.01 16.00
2138 6.4720 262.70 237.81 16.20
2139 6.4740 319.20 246.01 17.80
2140 6.4760 293.90 249.57 17.10
2141 6.4780 289.30 247.40 17.10
2142 6.4800 280.90 240.08 16.80
2143 6.4820 260.00 229.54 16.20
2144 6.4840 261.20 217.93 16.00
2145 6.4860 183.40 206.80 13.60
2146 6.4880 214.30 196.95 14.70
2147 6.4900 195.20 188.63 14.00
2148 6.4920 184.90 181.77 13.60
2149 6.4940 200.40 176.12 14.00
2150 6.4960 172.60 171.64 13.20
2151 6.4980 187.10 168.05 13.90
2152 6.5000 161.20 165.17 12.70
2153 6.5020 159.30 162.83 12.60
2154 6.5040 158.80 160.93 12.50
2155 6.5060 171.60 159.36 13.20
2156 6.5080 159.20 158.05 12.80
2157 6.5100 152.20 156.96 12.30
2158 6.5120 143.60 156.02 12.00
2159 6.5140 162.20 155.22 12.70
2160 6.5160 153.50 154.53 12.50
2161 6.5180 154.10 153.93 12.60
2162 6.5200 139.00 153.40 11.80
2163 6.5220 137.70 152.93 11.70
2164 6.5240 159.50 152.52 12.70
2165 6.5260 135.90 152.16 11.80
2166 6.5280 147.90 151.84 12.40
2167 6.5300 143.80 151.55 12.00
2168 6.5320 137.20 151.29 11.80
2169 6.5340 141.50 151.06 11.80
2170 6.5360 153.30 150.85 12.60
2171 6.5380 134.10 150.67 11.80
2172 6.5400 149.10 150.50 12.20
2173 6.5420 152.50 150.35 12.40
2174 6.5440 140.60 150.22 11.80
2175 6.5460 151.60 150.10 12.50
2176 6.5480 157.10 149.99 12.80
2177 6.5500 144.50 149.90 12.00
2178 6.5520 135.40 149.81 11.70
2179 6.5540 143.10 149.74 12.00
2180 6.5560 134.40 149.67 11.70
2181 6.5580 132.60 149.62 11.70
2182 6.5600 155.40 149.57 12.50
2183 6.5620 151.20 149.54 12.40
2184 6.5640 134.40 149.51 11.60
2185 6.5660 134.10 149.48 11.70
2186 6.5680 114.50 149.47 11.00
2187 6.5700 124.10 149.46 11.10
2188 6.5720 135.60 149.47 11.70
2189 6.5740 147.00 149.48 12.20
2190 6.5760 140.50 149.50 12.00
2191 6.5780 131.00 149.52 11.70
2192 6.5800 143.70 149.56 12.10
2193 6.5820 143.60 149.60 12.10
2194 6.5840 139.70 149.65 11.90
2195 6.5860 132.50 149.71 11.70
2196 6.5880 142.50 149.79 12.10
2197 6.5900 156.50 149.87 12.60
2198 6.5920 132.40 149.96 11.50
2199 6.5940 156.40 150.07 12.60
2200 6.5960 143.80 150.18 12.10
2201 6.5980 166.30 150.32 13.10
2202 6.6000 161.70 150.46 12.80
2203 6.6020 135.80 150.63 11.70
2204 6.6040 150.10 150.81 12.30
2205 6.6060 138.00 151.01 11.80
2206 6.6080 144.50 151.23 12.20
2207 6.6100 134.40 151.47 11.70
2208 6.6120 164.20 151.74 12.90
2209 6.6140 138.20 152.04 11.80
2210 6.6160 158.60 152.38 12.70
2211 6.6180 151.10 152.74 12.40
2212 6.6200 155.10 153.15 12.50
2213 6.6220 167.30 153.61 13.00
2214 6.6240 145.20 154.11 12.10
2215 6.6260 148.80 154.68 12.30
2216 6.6280 172.50 155.31 13.30
2217 6.6300 145.30 156.01 12.10
2218 6.6320 148.60 156.81 12.20
2219 6.6340 167.30 157.71 13.00
2220 6.6360 156.40 158.73 12.50
2221 6.6380 160.60 159.89 12.80
2222 6.6400 167.30 161.22 12.90
2223 6.6420 172.60 162.74 13.20
2224 6.6440 171.40 164.50 13.10
2225 6.6460 172.10 166.55 13.10
2226 6.6480 187.50 168.95 13.80
2227 6.6500 166.70 171.79 13.00
2228 6.6520 193.50 175.20 13.90
2229 6.6540 198.70 179.31 14.20
2230 6.6560 186.90 184.35 13.80
2231 6.6580 186.50 190.56 13.80
2232 6.6600 189.40 198.31 13.90
2233 6.6620 214.40 208.02 14.60
2234 6.6640 256.40 220.17 16.00
2235 6.6660 261.40 235.35 16.20
2236 6.6680 291.40 254.10 17.30
2237 6.6700 291.10 276.85 17.10
2238 6.6720 326.90 303.52 18.20
2239 6.6740 346.70 333.16 18.70
2240 6.6760 358.70 363.13 19.00
2241 6.6780 342.30 388.82 18.70
2242 6.6800 336.20 404.37 18.40
2243 6.6820 348.10 405.22 18.80
2244 6.6840 310.00 390.91 17.60
2245 6.6860 336.40 365.58 18.30
2246 6.6880 350.30 335.32 18.90
2247 6.6900 284.80 305.16 16.90
2248 6.6920 288.40 278.04 17.10
2249 6.6940 244.20 254.88 15.70
2250 6.6960 271.40 235.79 16.40
2251 6.6980 237.30 220.33 15.60
2252 6.7000 246.90 207.94 15.70
2253 6.7020 218.60 198.04 14.80
2254 6.7040 215.10 190.13 14.60
2255 6.7060 213.60 183.77 14.70
2256 6.7080 230.10 178.61 15.30
2257 6.7100 204.60 174.38 14.30
2258 6.7120 213.80 170.87 14.70
2259 6.7140 210.00 167.93 14.50
2260 6.7160 153.70 165.43 12.40
2261 6.7180 175.90 163.29 13.40
2262 6.7200 169.40 161.44 13.10
2263 6.7220 176.10 159.83 13.30
2264 6.7240 161.70 158.42 12.70
2265 6.7260 182.10 157.17 13.50
2266 6.7280 155.00 156.07 12.60
2267 6.7300 165.90 155.08 12.90
2268 6.7320 156.70 154.20 12.60
2269 6.7340 151.50 153.41 12.30
2270 6.7360 140.40 152.70 11.80
2271 6.7380 142.50 152.05 12.10
2272 6.7400 175.60 151.46 13.30
2273 6.7420 144.60 150.93 12.00
2274 6.7440 137.20 150.44 11.70
2275 6.7460 137.80 149.98 11.80
2276 6.7480 128.70 149.61 11.50
2277 6.7500 156.90 149.23 12.60
2278 6.7520 162.20 148.87 12.80
2279 6.7540 130.20 148.54 11.40
2280 6.7560 145.40 148.23 12.00
2281 6.7580 145.00 147.94 12.20
2282 6.7600 154.60 147.68 12.50
2283 6.7620 157.40 147.42 12.60
2284 6.7640 142.50 147.19 12.00
2285 6.7660 144.90 146.96 12.00
2286 6.7680 128.70 146.75 11.50
2287 6.7700 126.90 146.55 11.30
2288 6.7720 149.70 146.37 12.30
2289 6.7740 156.00 146.19 12.50
2290 6.7760 138.40 146.02 11.80
2291 6.7780 131.40 145.86 11.60
2292 6.7800 143.10 145.70 12.10
2293 6.7820 144.10 145.56 12.00
2294 6.7840 143.40 145.42 12.00
2295 6.7860 136.90 145.28 11.70
2296 6.7880 135.80 145.15 11.80
2297 6.7900 139.10 145.03 11.90
2298 6.7920 126.80 144.91 11.30
2299 6.7940 130.80 144.79 11.40
2300 6.7960 129.00 144.68 11.40
2301 6.7980 149.60 144.58 12.30
2302 6.8000 137.70 144.47 11.70
2303 6.8020 125.00 144.37 11.20
2304 6.8040 159.10 144.28 12.60
2305 6.8060 136.70 144.18 11.70
2306 6.8080 135.70 144.09 11.80
2307 6.8100 116.10 144.00 10.80
2308 6.8120 142.30 143.92 12.00
2309 6.8140 144.80 143.83 12.00
2310 6.8160 129.40 143.75 11.40
2311 6.8180 132.20 143.67 11.50
2312 6.8200 145.50 143.59 12.20
2313 6.8220 135.70 143.52 11.60
2314 6.8240 126.40 143.44 11.30
2315 6.8260 126.30 143.37 11.20
2316 6.8280 135.60 143.30 11.80
2317 6.8300 153.50 143.23 12.50
2318 6.8320 132.00 143.16 11.50
2319 6.8340 150.80 143.10 12.30
2320 6.8360 118.70 143.03 10.90
2321 6.8380 127.80 142.97 11.40
2322 6.8400 115.20 142.90 10.80
2323 6.8420 127.40 142.84 11.30
2324 6.8440 134.40 142.78 11.50
2325 6.8460 120.00 142.72 10.90
2326 6.8480 123.50 142.66 11.20
2327 6.8500 151.30 142.60 12.40
2328 6.8520 129.90 142.54 11.40
2329 6.8540 148.30 142.49 12.20
2330 6.8560 125.90 142.43 11.20
2331 6.8580 129.90 142.38 11.50
2332 6.8600 131.10 142.32 11.50
2333 6.8620 146.50 142.27 12.10
2334 6.8640 125.00 142.21 11.20
2335 6.8660 147.60 142.16 12.10
2336 6.8680 122.50 142.11 11.10
2337 6.8700 145.60 142.06 12.10
2338 6.8720 120.40 142.01 11.00
2339 6.8740 133.00 141.96 11.50
2340 6.8760 142.30 141.91 11.90
2341 6.8780 135.30 141.86 11.70
2342 6.8800 136.80 141.81 11.80
2343 6.8820 132.30 141.76 11.50
2344 6.8840 132.90 141.71 11.50
2345 6.8860 133.00 141.66 11.50
2346 6.8880 135.90 141.62 11.70
2347 6.8900 129.50 141.57 11.40
2348 6.8920 146.20 141.52 12.10
2349 6.8940 102.50 141.48 10.10
2350 6.8960 126.30 141.43 11.30
2351 6.8980 126.70 141.39 11.30
2352 6.9000 121.70 141.34 11.10
2353 6.9020 134.70 141.30 11.60
2354 6.9040 145.80 141.25 12.00
2355 6.9060 138.50 141.21 11.70
2356 6.9080 133.20 141.16 11.60
2357 6.9100 116.80 141.12 10.80
2358 6.9120 125.30 141.08 11.20
2359 6.9140 131.40 141.04 11.40
2360 6.9160 124.00 140.99 11.20
2361 6.9180 107.40 140.95 10.40
2362 6.9200 116.50 140.91 10.80
2363 6.9220 155.40 140.87 12.50
2364 6.9240 137.80 140.83 11.70
2365 6.9260 118.20 140.79 10.90
2366 6.9280 107.70 140.75 10.50
2367 6.9300 132.30 140.71 11.60
2368 6.9320 128.50 140.68 11.30
2369 6.9340 136.00 140.64 11.60
2370 6.9360 117.90 140.61 11.00
2371 6.9380 127.20 140.58 11.40
2372 6.9400 117.90 140.55 10.90
2373 6.9420 115.80 140.52 10.80
2374 6.9440 119.90 140.49 10.90
2375 6.9460 123.90 140.46 11.20
2376 6.9480 133.40 140.42 11.70
2377 6.9500 131.80 140.37 11.50
2378 6.9520 139.60 140.32 11.90
2379 6.9540 119.00 140.28 10.90
2380 6.9560 113.70 140.23 10.70
2381 6.9580 121.30 140.18 11.10
2382 6.9600 124.00 140.13 11.20
2383 6.9620 148.30 140.09 12.10
2384 6.9640 133.80 140.04 11.60
2385 6.9660 128.80 140.00 11.40
2386 6.9680 123.80 139.96 11.20
2387 6.9700 141.10 139.92 11.90
2388 6.9720 131.80 139.88 11.50
2389 6.9740 143.10 139.84 12.00
2390 6.9760 119.90 139.80 11.00
2391 6.9780 125.30 139.76 11.30
2392 6.9800 100.80 139.73 10.00
2393 6.9820 125.70 139.69 11.20
2394 6.9840 132.40 139.65 11.50
2395 6.9860 148.80 139.62 12.30
2396 6.9880 141.00 139.58 12.00
2397 6.9900 129.30 139.54 11.40
2398 6.9920 115.20 139.51 10.80
2399 6.9940 134.00 139.47 11.50
2400 6.9960 121.00 139.44 11.10
2401 6.9980 134.10 139.40 11.60
2402 7.0000 117.00 139.37 10.90
2403 7.0020 133.00 139.33 11.50
2404 7.0040 128.10 139.30 11.30
2405 7.0060 131.00 139.26 11.50
2406 7.0080 129.90 139.23 11.50
2407 7.0100 143.70 139.20 12.00
2408 7.0120 121.30 139.16 11.00
2409 7.0140 160.10 139.13 12.60
2410 7.0160 152.40 139.10 12.40
2411 7.0180 133.70 139.07 11.60
2412 7.0200 121.20 139.03 11.00
2413 7.0220 142.30 139.00 12.00
2414 7.0240 128.60 138.97 11.30
2415 7.0260 116.30 138.94 10.80
2416 7.0280 153.10 138.91 12.50
2417 7.0300 137.50 138.88 11.80
2418 7.0320 142.30 138.85 11.90
2419 7.0340 129.40 138.82 11.40
2420 7.0360 120.80 138.79 11.00
2421 7.0380 125.60 138.76 11.30
2422 7.0400 108.50 138.73 10.50
2423 7.0420 137.70 138.70 11.70
2424 7.0440 125.80 138.68 11.20
2425 7.0460 124.10 138.65 11.10
2426 7.0480 128.20 138.62 11.40
2427 7.0500 137.50 138.60 11.80
2428 7.0520 136.30 138.57 11.70
2429 7.0540 122.70 138.55 11.00
2430 7.0560 134.70 138.52 11.70
2431 7.0580 139.00 138.50 11.80
2432 7.0600 110.00 138.44 10.50
2433 7.0620 129.50 138.42 11.30
2434 7.0640 128.40 138.40 11.30
2435 7.0660 135.40 138.37 11.60
2436 7.0680 136.50 138.35 11.80
2437 7.0700 122.00 138.33 11.00
2438 7.0720 141.00 138.32 11.90
2439 7.0740 139.20 138.30 11.70
2440 7.0760 145.20 138.28 12.10
2441 7.0780 146.80 138.26 12.20
2442 7.0800 138.90 138.25 11.70
2443 7.0820 132.20 138.24 11.50
2444 7.0840 135.50 138.22 11.60
2445 7.0860 138.80 138.21 11.80
2446 7.0880 149.60 138.20 12.30
2447 7.0900 163.00 138.19 12.80
2448 7.0920 111.80 138.18 10.60
2449 7.0940 149.30 138.18 12.20
2450 7.0960 125.30 138.17 11.20
2451 7.0980 126.00 138.17 11.20
2452 7.1000 135.00 138.17 11.60
2453 7.1020 137.90 138.17 11.80
2454 7.1040 133.20 138.17 11.50
2455 7.1060 142.10 138.17 11.90
2456 7.1080 130.10 138.18 11.50
2457 7.1100 157.60 138.19 12.60
2458 7.1120 150.20 138.20 12.20
2459 7.1140 122.90 138.21 11.00
2460 7.1160 144.20 138.23 12.00
2461 7.1180 147.20 138.25 12.20
2462 7.1200 154.30 138.27 12.40
2463 7.1220 143.30 138.30 11.90
2464 7.1240 153.10 138.33 12.30
2465 7.1260 146.70 138.37 12.10
2466 7.1280 145.60 138.40 12.10
2467 7.1300 155.10 138.45 12.50
2468 7.1320 131.70 138.50 11.50
2469 7.1340 151.80 138.55 12.20
2470 7.1360 135.90 138.61 11.60
2471 7.1380 134.20 138.68 11.60
2472 7.1400 157.40 138.76 12.50
2473 7.1420 132.50 138.84 11.50
2474 7.1440 149.20 138.93 12.10
2475 7.1460 154.60 139.03 12.40
2476 7.1480 166.40 139.14 12.90
2477 7.1500 158.90 139.26 12.60
2478 7.1520 140.20 139.40 11.90
2479 7.1540 153.10 139.55 12.30
2480 7.1560 148.50 139.71 12.20
2481 7.1580 166.70 139.90 13.00
2482 7.1600 170.70 140.10 13.00
2483 7.1620 150.80 140.32 12.30
2484 7.1640 171.70 140.57 13.00
2485 7.1660 158.30 140.85 12.60
2486 7.1680 151.80 141.16 12.30
2487 7.1700 160.90 141.50 12.70
2488 7.1720 156.60 141.88 12.50
2489 7.1740 170.40 142.31 13.00
2490 7.1760 177.00 142.80 13.40
2491 7.1780 172.80 143.34 13.20
2492 7.1800 166.70 143.96 12.90
2493 7.1820 175.30 144.66 13.20
2494 7.1840 180.20 145.47 13.40
2495 7.1860 173.90 146.39 13.20
2496 7.1880 182.80 147.46 13.50
2497 7.1900 169.00 148.70 13.00
2498 7.1920 192.10 150.15 13.90
2499 7.1940 179.40 151.87 13.20
2500 7.1960 137.30 153.92 11.80
2501 7.1980 175.30 156.40 13.30
2502 7.2000 197.90 159.44 14.00
2503 7.2020 214.50 163.20 14.60
2504 7.2040 193.90 167.91 13.90
2505 7.2060 222.20 173.87 15.10
2506 7.2080 232.10 181.41 15.30
2507 7.2100 228.80 190.96 15.10
2508 7.2120 249.90 202.94 15.80
2509 7.2140 238.10 217.73 15.30
2510 7.2160 251.80 235.40 16.10
2511 7.2180 266.70 255.37 16.40
2512 7.2200 292.70 275.84 17.00
2513 7.2220 309.90 293.44 17.60
2514 7.2240 339.10 303.74 18.40
2515 7.2260 294.70 303.42 17.40
2516 7.2280 335.60 292.54 18.40
2517 7.2300 315.80 274.65 17.70
2518 7.2320 304.00 254.32 17.40
2519 7.2340 292.90 234.93 17.10
2520 7.2360 278.80 249.25 16.90
2521 7.2380 317.30 236.52 17.80
2522 7.2400 266.20 226.70 16.30
2523 7.2420 242.00 219.41 15.50
2524 7.2440 255.50 214.23 15.90
2525 7.2460 235.70 210.80 15.50
2526 7.2480 242.60 208.79 15.70
2527 7.2500 250.60 207.99 15.80
2528 7.2520 249.40 208.14 15.80
2529 7.2540 231.60 209.37 15.20
2530 7.2560 230.40 211.56 15.40
2531 7.2580 253.50 214.79 16.10
2532 7.2600 266.60 219.17 16.20
2533 7.2620 252.00 224.92 15.90
2534 7.2640 279.40 232.29 16.70
2535 7.2660 265.00 241.99 16.50
2536 7.2680 291.10 253.48 17.20
2537 7.2700 274.30 267.33 16.60
2538 7.2720 327.80 283.36 18.20
2539 7.2740 333.50 300.69 18.30
2540 7.2760 300.20 317.32 17.50
2541 7.2780 312.70 330.25 17.90
2542 7.2800 315.00 336.57 17.70
2543 7.2820 346.10 335.32 18.60
2544 7.2840 343.30 328.29 18.50
2545 7.2860 345.70 318.81 18.80
2546 7.2880 314.80 309.76 17.90
2547 7.2900 360.40 302.82 19.00
2548 7.2920 358.50 298.60 19.00
2549 7.2940 352.30 297.17 18.70
2550 7.2960 380.10 298.38 19.90
2551 7.2980 379.40 302.03 19.60
2552 7.3000 380.90 307.94 19.50
2553 7.3020 370.40 316.03 19.30
2554 7.3040 358.80 326.27 19.10
2555 7.3060 411.10 338.74 20.60
2556 7.3080 371.10 353.62 19.50
2557 7.3100 472.00 371.15 21.70
2558 7.3120 424.30 391.74 20.60
2559 7.3140 433.40 415.92 20.80
2560 7.3160 464.70 444.37 21.90
2561 7.3180 481.40 477.99 22.20
2562 7.3200 495.30 518.01 22.20
2563 7.3220 595.90 566.00 24.50
2564 7.3240 580.50 624.15 24.10
2565 7.3260 654.00 695.41 26.00
2566 7.3280 742.00 784.00 27.50
2567 7.3300 776.40 895.84 27.90
2568 7.3320 894.50 1039.88 30.10
2569 7.3340 1047.20 1229.62 32.40
2570 7.3360 1210.50 1486.45 35.60
2571 7.3380 1636.60 1846.28 41.10
2572 7.3400 1995.80 2372.85 44.90
2573 7.3420 2938.80 3187.89 55.30
2574 7.3440 4412.80 4567.72 68.20
2575 7.3460 8000.20 7512.39 95.10
2576 7.3480 16522.10 16159.30 143.00
2577 7.3500 38906.70 40838.70 242.30
2578 7.3520 89336.50 91241.30 442.80
2579 7.3540 142275.00 140732.00 642.00
2580 7.3560 95617.50 100290.00 470.60
2581 7.3580 35731.90 36239.80 230.00
2582 7.3600 14991.90 12629.90 133.70
2583 7.3620 7552.60 6642.70 91.20
2584 7.3640 4317.30 4338.88 67.30
2585 7.3660 2762.60 3082.91 54.10
2586 7.3680 2017.30 2316.03 46.10
2587 7.3700 1530.80 1815.32 39.50
2588 7.3720 1290.10 1471.54 36.20
2589 7.3740 1083.10 1226.56 33.10
2590 7.3760 949.50 1047.64 31.40
2591 7.3780 849.80 915.62 29.40
2592 7.3800 795.20 819.68 28.20
2593 7.3820 732.70 756.82 27.20
2594 7.3840 741.90 741.26 27.40
2595 7.3860 821.00 838.42 29.30
2596 7.3880 1091.90 1184.50 33.60
2597 7.3900 1545.70 1837.75 39.60
2598 7.3920 2005.60 2232.67 45.50
2599 7.3940 1386.00 1520.77 37.60
2600 7.3960 692.80 795.30 26.80
2601 7.3980 515.70 519.83 22.90
2602 7.4000 399.00 427.13 20.00
2603 7.4020 411.50 379.28 20.30
2604 7.4040 346.10 347.05 18.70
2605 7.4060 365.90 323.06 19.40
2606 7.4080 374.40 304.16 19.60
2607 7.4100 313.00 288.67 17.70
2608 7.4120 312.70 275.68 17.70
2609 7.4140 283.30 264.48 16.90
2610 7.4160 321.30 254.71 18.20
2611 7.4180 282.70 246.10 17.00
2612 7.4200 299.00 238.43 17.30
2613 7.4220 254.30 231.56 16.00
2614 7.4240 274.20 225.37 16.50
2615 7.4260 258.10 219.75 16.30
2616 7.4280 250.60 214.64 16.00
2617 7.4300 242.80 209.96 15.60
2618 7.4320 232.90 205.67 15.20
2619 7.4340 236.80 201.72 15.40
2620 7.4360 232.10 198.08 15.40
2621 7.4380 231.60 194.71 15.30
2622 7.4400 249.80 191.58 15.70
2623 7.4420 218.40 188.67 14.80
2624 7.4440 240.20 185.96 15.50
2625 7.4460 222.30 183.43 15.10
2626 7.4480 230.40 181.06 15.30
2627 7.4500 208.80 178.84 14.50
2628 7.4520 216.90 176.76 14.70
2629 7.4540 216.50 174.81 14.80
2630 7.4560 223.50 172.96 15.10
2631 7.4580 203.00 171.23 14.40
2632 7.4600 225.00 169.59 15.00
2633 7.4620 235.60 168.04 15.40
2634 7.4640 216.40 166.57 14.80
2635 7.4660 201.70 165.18 14.40
2636 7.4680 216.50 163.87 14.90
2637 7.4700 187.20 162.62 13.60
2638 7.4720 202.00 161.43 14.20
2639 7.4740 190.70 160.30 13.80
2640 7.4760 187.00 130.15 13.90
2641 7.4780 207.90 130.06 14.50
2642 7.4800 189.80 129.96 13.70
2643 7.4820 185.60 129.87 13.60
2644 7.4840 180.80 129.78 13.40
2645 7.4860 184.30 129.70 13.70
2646 7.4880 197.10 129.61 14.10
2647 7.4900 189.70 129.53 13.80
2648 7.4920 190.50 129.45 13.80
2649 7.4940 186.40 129.37 13.70
2650 7.4960 189.70 129.29 13.90
2651 7.4980 229.00 129.22 15.30
2652 7.5000 206.90 129.15 14.30
2653 7.5020 175.90 129.07 13.30
2654 7.5040 196.60 129.00 14.00
2655 7.5060 169.20 128.93 13.10
2656 7.5080 181.70 128.87 13.60
2657 7.5100 187.90 128.80 13.70
2658 7.5120 178.70 128.73 13.40
2659 7.5140 191.50 128.67 13.80
2660 7.5160 171.80 128.60 13.20
2661 7.5180 189.50 128.54 13.90
2662 7.5200 172.80 128.06 13.20
2663 7.5220 197.70 128.01 14.10
2664 7.5240 164.90 127.96 12.80
2665 7.5260 176.60 127.91 13.40
2666 7.5280 175.10 127.86 13.30
2667 7.5300 161.30 127.82 12.70
2668 7.5320 160.60 127.77 12.70
2669 7.5340 170.90 127.72 13.00
2670 7.5360 156.50 127.67 12.60
2671 7.5380 187.80 127.62 13.90
2672 7.5400 163.60 127.57 12.80
2673 7.5420 163.40 127.52 12.80
2674 7.5440 155.10 127.47 12.50
2675 7.5460 183.20 127.43 13.60
2676 7.5480 183.80 127.38 13.70
2677 7.5500 179.70 127.33 13.40
2678 7.5520 186.70 127.28 13.70
2679 7.5540 160.80 127.23 12.60
2680 7.5560 166.40 127.19 13.00
2681 7.5580 167.90 127.14 13.10
2682 7.5600 202.40 127.09 14.20
2683 7.5620 189.00 127.04 13.80
2684 7.5640 172.20 127.00 13.10
2685 7.5660 159.30 126.95 12.70
2686 7.5680 194.10 126.90 14.10
2687 7.5700 170.50 126.85 13.10
2688 7.5720 163.60 126.81 12.80
2689 7.5740 171.30 126.76 13.00
2690 7.5760 157.50 126.71 12.70
2691 7.5780 143.50 126.67 12.10
2692 7.5800 177.80 126.62 13.30
2693 7.5820 166.60 126.57 13.00
2694 7.5840 156.00 126.53 12.40
2695 7.5860 174.80 126.48 13.30
2696 7.5880 160.30 126.43 12.80
2697 7.5900 122.80 126.39 11.10
2698 7.5920 163.80 126.34 12.80
2699 7.5940 159.30 126.29 12.60
2700 7.5960 134.20 126.25 11.70
2701 7.5980 145.40 126.20 12.20
2702 7.6000 150.10 126.15 12.30
2703 7.6020 151.20 126.11 12.40
2704 7.6040 160.70 126.06 12.60
2705 7.6060 157.00 126.02 12.60
2706 7.6080 134.40 125.97 11.70
2707 7.6100 140.00 125.93 11.90
2708 7.6120 150.70 125.88 12.30
2709 7.6140 139.80 125.83 11.80
2710 7.6160 159.20 125.79 12.70
2711 7.6180 144.10 125.75 12.10
2712 7.6200 139.80 125.70 11.80
2713 7.6220 131.60 125.65 11.50
2714 7.6240 142.40 125.61 11.90
2715 7.6260 147.30 125.56 12.20
2716 7.6280 135.90 125.52 11.80
2717 7.6300 129.40 125.47 11.40
2718 7.6320 147.70 125.43 12.20
2719 7.6340 129.70 125.39 11.40
2720 7.6360 149.90 125.34 12.30
2721 7.6380 136.10 125.30 11.80
2722 7.6400 137.80 125.25 11.80
2723 7.6420 117.40 125.21 10.90
2724 7.6440 140.60 125.16 11.90
2725 7.6460 128.30 125.12 11.40
2726 7.6480 123.10 125.08 11.20
2727 7.6500 145.10 125.03 12.00
2728 7.6520 126.40 124.99 11.30
2729 7.6540 141.50 124.94 11.90
2730 7.6560 125.70 124.90 11.20
2731 7.6580 134.70 124.86 11.70
2732 7.6600 133.40 124.82 11.60
2733 7.6620 139.00 124.77 11.90
2734 7.6640 128.40 124.73 11.30
2735 7.6660 128.30 124.69 11.40
2736 7.6680 127.10 124.64 11.40
2737 7.6700 141.80 124.60 11.90
2738 7.6720 133.30 124.56 11.60
2739 7.6740 128.20 124.51 11.30
2740 7.6760 121.10 124.47 11.10
2741 7.6780 137.10 124.43 11.90
2742 7.6800 133.30 124.39 11.60
2743 7.6820 138.50 124.35 11.80
2744 7.6840 123.90 124.31 11.10
2745 7.6860 118.40 124.26 10.90
2746 7.6880 140.30 124.22 12.00
2747 7.6900 129.80 124.18 11.40
2748 7.6920 138.60 124.14 11.90
2749 7.6940 121.50 124.10 11.00
2750 7.6960 135.10 124.06 11.60
2751 7.6980 106.40 124.02 10.40
2752 7.7000 119.90 123.98 10.90
2753 7.7020 129.50 123.94 11.40
2754 7.7040 120.70 123.90 10.90
2755 7.7060 112.30 123.86 10.60
2756 7.7080 132.40 123.82 11.60
2757 7.7100 114.70 123.78 10.70
2758 7.7120 106.80 123.74 10.40
2759 7.7140 117.50 123.70 10.80
2760 7.7160 110.00 123.66 10.50
2761 7.7180 146.70 123.62 12.30
2762 7.7200 108.20 123.59 10.40
2763 7.7220 120.20 123.55 11.00
2764 7.7240 119.40 123.51 10.90
2765 7.7260 104.20 123.47 10.20
2766 7.7280 106.60 123.44 10.50
2767 7.7300 115.70 123.40 10.80
2768 7.7320 115.50 123.36 10.80
2769 7.7340 103.30 123.33 10.10
2770 7.7360 111.30 123.29 10.60
2771 7.7380 106.30 123.26 10.40
2772 7.7400 101.70 123.22 10.10
2773 7.7420 110.50 123.19 10.50
2774 7.7440 118.20 123.16 10.80
2775 7.7460 128.10 123.12 11.40
2776 7.7480 115.40 123.09 10.90
2777 7.7500 117.80 123.06 10.90
2778 7.7520 116.90 123.03 10.80
2779 7.7540 109.80 123.00 10.40
2780 7.7560 109.20 122.97 10.50
2781 7.7580 131.30 122.94 11.60
2782 7.7600 112.30 122.91 10.60
2783 7.7620 133.90 122.88 11.60
2784 7.7640 113.80 122.79 10.60
2785 7.7660 115.20 122.77 10.90
2786 7.7680 105.40 122.74 10.40
2787 7.7700 124.20 122.72 11.20
2788 7.7720 111.70 122.69 10.60
2789 7.7740 99.60 122.67 10.00
2790 7.7760 116.60 122.65 10.90
2791 7.7780 111.50 122.63 10.70
2792 7.7800 114.30 122.61 10.70
2793 7.7820 109.00 122.59 10.50
2794 7.7840 106.90 122.57 10.30
2795 7.7860 132.90 122.55 11.60
2796 7.7880 112.00 122.54 10.70
2797 7.7900 117.70 122.53 10.90
2798 7.7920 94.10 122.51 9.70
2799 7.7940 129.70 122.50 11.40
2800 7.7960 128.10 122.50 11.40
2801 7.7980 116.70 122.49 10.90
2802 7.8000 111.70 122.49 10.60
2803 7.8020 114.80 122.48 10.70
2804 7.8040 123.10 122.48 11.10
2805 7.8060 121.20 127.00 11.10
2806 7.8080 95.70 127.14 9.90
2807 7.8100 113.00 127.29 10.70
2808 7.8120 116.20 127.45 10.70
2809 7.8140 132.50 127.57 11.50
2810 7.8160 136.40 127.75 11.70
2811 7.8180 124.50 127.94 11.30
2812 7.8200 106.70 128.14 10.40
2813 7.8220 138.00 128.35 11.80
2814 7.8240 117.60 128.58 10.90
2815 7.8260 131.70 128.83 11.60
2816 7.8280 112.20 129.09 10.70
2817 7.8300 126.80 129.37 11.30
2818 7.8320 107.60 129.66 10.40
2819 7.8340 149.00 129.98 12.20
2820 7.8360 115.80 130.33 10.80
2821 7.8380 130.00 130.69 11.60
2822 7.8400 141.90 131.09 11.90
2823 7.8420 134.50 131.51 11.50
2824 7.8440 130.80 131.97 11.50
2825 7.8460 126.70 132.46 11.30
2826 7.8480 118.90 132.99 11.00
2827 7.8500 138.20 133.56 11.80
2828 7.8520 128.10 134.18 11.30
2829 7.8540 138.50 134.86 11.80
2830 7.8560 134.10 135.59 11.60
2831 7.8580 124.00 136.39 11.30
2832 7.8600 122.50 137.26 11.10
2833 7.8620 130.80 138.21 11.50
2834 7.8640 127.90 139.26 11.30
2835 7.8660 138.30 140.41 11.80
2836 7.8680 141.30 141.68 12.00
2837 7.8700 134.70 143.08 11.70
2838 7.8720 134.20 144.65 11.50
2839 7.8740 139.10 146.40 11.80
2840 7.8760 145.20 148.35 12.10
2841 7.8780 157.90 150.56 12.70
2842 7.8800 159.20 153.07 12.70
2843 7.8820 169.10 155.93 13.00
2844 7.8840 168.00 159.23 13.00
2845 7.8860 158.60 163.06 12.60
2846 7.8880 182.40 167.56 13.70
2847 7.8900 174.90 172.91 13.30
2848 7.8920 203.10 179.37 14.30
2849 7.8940 189.40 187.25 13.80
2850 7.8960 202.10 196.98 14.30
2851 7.8980 229.50 209.06 15.30
2852 7.9000 230.20 224.11 15.20
2853 7.9020 259.10 242.73 16.10
2854 7.9040 210.50 265.41 14.50
2855 7.9060 271.90 292.11 16.50
2856 7.9080 248.10 321.61 15.90
2857 7.9100 278.70 350.75 16.80
2858 7.9120 304.20 374.70 17.50
2859 7.9140 269.90 389.11 16.40
2860 7.9160 319.80 393.77 18.00
2861 7.9180 313.90 393.52 17.90
2862 7.9200 378.70 395.40 19.40
2863 7.9220 413.30 405.68 20.40
2864 7.9240 427.20 429.51 20.60
2865 7.9260 587.80 472.53 24.50
2866 7.9280 777.20 543.30 28.30
2867 7.9300 1015.70 657.51 32.20
2868 7.9320 1497.50 847.70 38.80
2869 7.9340 2115.30 1204.62 46.50
2870 7.9360 3152.10 2041.65 57.20
2871 7.9380 4904.10 4260.51 72.70
2872 7.9400 8418.40 9067.65 96.50
2873 7.9420 14342.10 15362.80 130.20
2874 7.9440 16389.90 15395.40 140.90
2875 7.9460 8281.40 8128.57 95.90
2876 7.9480 2918.40 3380.32 55.60
2877 7.9500 1293.80 1660.99 36.20
2878 7.9520 762.20 1055.31 27.70
2879 7.9540 563.30 762.09 23.70
2880 7.9560 437.80 588.42 21.10
2881 7.9580 333.30 476.52 18.40
2882 7.9600 305.50 400.31 17.60
2883 7.9620 283.70 346.11 16.80
2884 7.9640 288.30 306.18 16.90
2885 7.9660 226.40 275.93 15.20
2886 7.9680 220.80 252.48 15.00
2887 7.9700 206.60 233.91 14.40
2888 7.9720 208.90 218.96 14.40
2889 7.9740 190.80 206.74 13.80
2890 7.9760 196.30 196.63 14.10
2891 7.9780 159.90 188.15 12.80
2892 7.9800 190.90 180.99 13.80
2893 7.9820 154.60 174.86 12.40
2894 7.9840 168.50 169.60 12.90
2895 7.9860 172.70 165.03 13.30
2896 7.9880 150.90 161.04 12.40
2897 7.9900 141.30 157.54 11.90
2898 7.9920 143.40 154.46 11.90
2899 7.9940 135.10 151.71 11.60
2900 7.9960 139.10 149.27 11.90
2901 7.9980 150.90 147.08 12.40
2902 8.0000 151.10 145.12 12.30
2903 8.0020 137.10 143.35 11.70
2904 8.0040 138.90 141.74 11.80
2905 8.0060 148.60 140.29 12.30
2906 8.0080 130.30 138.96 11.60
2907 8.0100 170.20 137.76 13.10
2908 8.0120 144.10 136.65 11.90
2909 8.0140 129.20 135.64 11.30
2910 8.0160 147.20 134.71 12.20
2911 8.0180 150.60 133.86 12.40
2912 8.0200 126.00 133.07 11.30
2913 8.0220 128.30 132.35 11.30
2914 8.0240 137.30 131.68 11.70
2915 8.0260 119.30 131.07 11.00
2916 8.0280 118.40 130.51 11.10
2917 8.0300 154.90 129.98 12.50
2918 8.0320 130.50 129.50 11.40
2919 8.0340 140.80 129.06 11.80
2920 8.0360 127.20 128.65 11.30
2921 8.0380 129.30 128.28 11.60
2922 8.0400 133.40 127.94 11.60
2923 8.0420 126.80 127.64 11.20
2924 8.0440 120.90 127.36 11.00
2925 8.0460 118.10 127.11 11.00
2926 8.0480 135.00 126.89 11.80
2927 8.0500 122.20 126.70 11.10
2928 8.0520 130.80 126.54 11.40
2929 8.0540 137.80 126.41 11.80
2930 8.0560 148.30 126.31 12.20
2931 8.0580 126.40 126.24 11.40
2932 8.0600 130.50 126.20 11.40
2933 8.0620 138.50 126.19 11.80
2934 8.0640 124.00 126.23 11.10
2935 8.0660 132.40 126.30 11.60
2936 8.0680 127.40 126.41 11.40
2937 8.0700 133.50 126.57 11.70
2938 8.0720 133.70 126.78 11.50
2939 8.0740 141.30 127.05 11.90
2940 8.0760 142.00 127.39 11.90
2941 8.0780 126.80 127.80 11.40
2942 8.0800 142.50 128.30 12.00
2943 8.0820 116.80 128.90 10.80
2944 8.0840 137.10 125.56 11.70
2945 8.0860 123.10 126.54 11.10
2946 8.0880 123.70 127.72 11.20
2947 8.0900 157.60 129.09 12.60
2948 8.0920 132.60 130.72 11.50
2949 8.0940 134.90 132.69 11.60
2950 8.0960 109.60 135.08 10.50
2951 8.0980 152.40 138.05 12.40
2952 8.1000 135.30 141.78 11.70
2953 8.1020 152.10 146.53 12.30
2954 8.1040 141.10 152.64 11.80
2955 8.1060 158.40 160.56 12.60
2956 8.1080 166.70 170.79 13.00
2957 8.1100 195.90 183.91 14.00
2958 8.1120 224.00 200.42 14.90
2959 8.1140 284.80 220.40 16.80
2960 8.1160 304.80 243.00 17.50
2961 8.1180 345.90 265.44 18.80
2962 8.1200 363.20 282.79 19.10
2963 8.1220 315.20 289.32 17.70
2964 8.1240 351.00 282.38 18.70
2965 8.1260 290.70 264.66 17.20
2966 8.1280 241.90 242.06 15.70
2967 8.1300 233.60 219.66 15.40
2968 8.1320 212.00 200.09 14.40
2969 8.1340 184.40 184.13 13.50
2970 8.1360 179.10 171.60 13.40
2971 8.1380 199.40 161.99 14.20
2972 8.1400 185.90 154.73 13.60
2973 8.1420 197.40 149.33 14.00
2974 8.1440 170.10 145.38 13.00
2975 8.1460 139.50 142.58 11.90
2976 8.1480 161.90 140.75 12.80
2977 8.1500 172.30 139.77 13.10
2978 8.1520 175.50 139.62 13.20
2979 8.1540 156.90 140.32 12.50
2980 8.1560 161.00 141.99 12.80
2981 8.1580 127.00 144.75 11.40
2982 8.1600 152.50 148.75 12.40
2983 8.1620 172.30 154.07 13.00
2984 8.1640 148.00 160.55 12.10
2985 8.1660 154.70 167.54 12.50
2986 8.1680 180.60 173.63 13.60
2987 8.1700 192.50 176.85 13.90
2988 8.1720 182.40 175.73 13.50
2989 8.1740 149.60 170.47 12.20
2990 8.1760 151.40 162.82 12.50
2991 8.1780 150.80 154.71 12.40
2992 8.1800 133.30 147.33 11.60
2993 8.1820 147.70 141.15 12.10
2994 8.1840 124.70 136.17 11.20
2995 8.1860 143.30 132.24 12.10
2996 8.1880 132.70 129.17 11.70
2997 8.1900 145.00 126.76 12.10
2998 8.1920 130.30 124.87 11.40
2999 8.1940 131.30 123.36 11.50
3000 8.1960 116.80 122.15 11.00
3001 8.1980 136.20 121.15 11.80
3002 8.2000 114.60 120.33 10.70
3003 8.2020 143.00 119.65 11.90
3004 8.2040 109.20 119.09 10.40
3005 8.2060 118.50 118.62 11.00
3006 8.2080 134.60 118.25 11.70
3007 8.2100 105.90 117.95 10.30
3008 8.2120 107.10 117.72 10.30
3009 8.2140 125.60 117.53 11.20
3010 8.2160 125.90 117.33 11.40
3011 8.2180 123.70 117.10 11.30
3012 8.2200 122.40 116.80 11.10
3013 8.2220 120.10 116.45 11.00
3014 8.2240 115.90 116.08 10.80
3015 8.2260 119.00 115.72 11.00
3016 8.2280 94.20 115.40 9.80
3017 8.2300 118.00 115.12 10.90
3018 8.2320 104.70 114.87 10.20
3019 8.2340 111.90 114.65 10.60
3020 8.2360 113.90 114.45 10.80
3021 8.2380 114.60 114.28 10.90
3022 8.2400 101.10 114.12 10.10
3023 8.2420 103.40 113.98 10.20
3024 8.2440 113.00 113.85 10.60
3025 8.2460 123.80 113.73 11.20
3026 8.2480 98.90 113.62 10.10
3027 8.2500 116.80 113.51 10.90
3028 8.2520 136.50 113.42 11.70
3029 8.2540 103.40 113.33 10.20
3030 8.2560 96.10 113.25 9.90
3031 8.2580 102.80 113.18 10.30
3032 8.2600 126.20 113.12 11.30
3033 8.2620 111.60 113.08 10.50
3034 8.2640 120.30 113.04 11.00
3035 8.2660 96.20 113.01 9.90
3036 8.2680 101.40 112.99 10.20
3037 8.2700 105.90 113.00 10.30
3038 8.2720 103.70 113.02 10.20
3039 8.2740 111.30 113.08 10.60
3040 8.2760 109.80 113.17 10.60
3041 8.2780 93.00 113.32 9.70
3042 8.2800 109.50 113.53 10.50
3043 8.2820 134.30 113.83 11.50
3044 8.2840 116.00 114.23 10.80
3045 8.2860 112.20 114.74 10.70
3046 8.2880 102.00 115.33 10.20
3047 8.2900 104.60 115.94 10.30
3048 8.2920 113.60 116.41 10.60
3049 8.2940 110.70 116.58 10.50
3050 8.2960 101.20 116.35 10.20
3051 8.2980 115.50 115.78 10.80
3052 8.3000 101.80 115.05 10.10
3053 8.3020 115.00 114.32 10.70
3054 8.3040 103.50 113.67 10.10
3055 8.3060 102.60 113.13 10.20
3056 8.3080 97.30 112.69 10.00
3057 8.3100 105.30 112.34 10.30
3058 8.3120 84.40 112.06 9.20
3059 8.3140 89.60 111.83 9.50
3060 8.3160 111.30 111.64 10.60
3061 8.3180 114.10 111.48 10.80
3062 8.3200 97.60 111.35 9.90
3063 8.3220 113.20 111.22 10.60
3064 8.3240 101.60 111.12 10.10
3065 8.3260 107.60 111.02 10.40
3066 8.3280 114.90 110.93 10.80
3067 8.3300 94.50 110.85 9.70
3068 8.3320 99.70 110.77 10.00
3069 8.3340 111.70 110.69 10.60
3070 8.3360 108.80 110.62 10.50
3071 8.3380 98.50 110.56 10.00
3072 8.3400 94.00 110.49 9.70
3073 8.3420 92.50 110.43 9.60
3074 8.3440 107.50 110.37 10.40
3075 8.3460 97.60 110.31 9.90
3076 8.3480 92.70 110.25 9.70
3077 8.3500 95.60 110.20 9.80
3078 8.3520 91.70 110.15 9.60
3079 8.3540 97.40 110.09 9.90
3080 8.3560 109.70 110.04 10.50
3081 8.3580 93.10 109.99 9.70
3082 8.3600 98.90 109.94 10.00
3083 8.3620 103.00 109.89 10.10
3084 8.3640 108.00 109.84 10.40
3085 8.3660 100.00 109.80 10.10
3086 8.3680 111.40 109.75 10.60
3087 8.3700 98.60 109.70 9.90
3088 8.3720 105.00 109.66 10.30
3089 8.3740 103.00 109.61 10.10
3090 8.3760 95.90 109.57 9.90
3091 8.3780 95.60 109.52 9.90
3092 8.3800 132.60 109.48 11.50
3093 8.3820 95.10 109.44 9.70
3094 8.3840 100.30 109.39 10.00
3095 8.3860 95.70 109.35 9.80
3096 8.3880 98.40 109.31 10.00
3097 8.3900 90.10 109.27 9.50
3098 8.3920 95.00 109.23 9.80
3099 8.3940 100.00 109.19 10.00
3100 8.3960 94.70 109.15 9.80
3101 8.3980 102.60 109.11 10.10
3102 8.4000 102.90 109.07 10.10
3103 8.4020 96.00 109.03 9.80
3104 8.4040 105.50 108.99 10.20
3105 8.4060 109.30 108.95 10.50
3106 8.4080 110.00 108.92 10.60
3107 8.4100 97.50 108.88 9.90
3108 8.4120 105.90 108.84 10.20
3109 8.4140 102.70 108.81 10.10
3110 8.4160 101.10 108.77 10.10
3111 8.4180 90.00 108.68 9.40
3112 8.4200 104.40 108.64 10.20
3113 8.4220 107.50 108.61 10.40
3114 8.4240 106.50 108.57 10.30
3115 8.4260 102.10 108.54 10.10
3116 8.4280 109.50 108.51 10.50
3117 8.4300 100.90 108.48 10.00
3118 8.4320 100.30 108.44 10.00
3119 8.4340 81.60 108.41 9.00
3120 8.4360 97.70 108.38 10.00
3121 8.4380 105.70 108.35 10.30
3122 8.4400 89.80 108.32 9.40
3123 8.4420 111.20 108.29 10.60
3124 8.4440 96.40 108.27 9.80
3125 8.4460 93.10 108.23 9.70
3126 8.4480 102.10 108.21 10.10
3127 8.4500 107.80 108.18 10.40
3128 8.4520 132.00 108.15 11.50
3129 8.4540 100.90 108.13 10.00
3130 8.4560 78.10 108.11 8.90
3131 8.4580 102.00 108.08 10.10
3132 8.4600 107.20 108.06 10.20
3133 8.4620 108.50 108.04 10.50
3134 8.4640 99.40 108.03 10.00
3135 8.4660 104.10 108.01 10.30
3136 8.4680 87.40 107.99 9.40
3137 8.4700 88.70 107.98 9.40
3138 8.4720 110.00 107.96 10.50
3139 8.4740 105.60 107.95 10.30
3140 8.4760 115.40 107.94 10.80
3141 8.4780 105.00 107.94 10.20
3142 8.4800 102.40 107.93 10.10
3143 8.4820 90.70 107.93 9.50
3144 8.4840 110.70 107.93 10.50
3145 8.4860 97.10 107.93 9.90
3146 8.4880 123.30 107.94 11.10
3147 8.4900 107.80 107.95 10.40
3148 8.4920 122.80 107.96 11.10
3149 8.4940 111.40 107.98 10.60
3150 8.4960 116.00 108.01 11.00
3151 8.4980 103.60 108.04 10.20
3152 8.5000 107.00 108.07 10.30
3153 8.5020 106.60 108.11 10.30
3154 8.5040 122.60 108.16 11.10
3155 8.5060 100.10 108.22 10.10
3156 8.5080 94.90 108.29 9.80
3157 8.5100 93.70 108.37 9.60
3158 8.5120 119.10 108.46 10.90
3159 8.5140 115.40 108.57 10.80
3160 8.5160 102.60 108.70 10.30
3161 8.5180 115.20 108.84 10.80
3162 8.5200 103.70 109.01 10.20
3163 8.5220 122.20 109.21 11.00
3164 8.5240 94.30 109.44 9.80
3165 8.5260 110.40 109.71 10.60
3166 8.5280 106.00 110.04 10.40
3167 8.5300 121.60 110.41 11.00
3168 8.5320 103.80 110.86 10.10
3169 8.5340 90.70 111.40 9.60
3170 8.5360 104.60 112.06 10.40
3171 8.5380 102.80 112.86 10.20
3172 8.5400 96.20 113.85 9.80
3173 8.5420 93.30 115.10 9.70
3174 8.5440 114.40 116.70 10.80
3175 8.5460 113.60 118.77 10.80
3176 8.5480 104.50 121.47 10.40
3177 8.5500 92.70 125.01 9.70
3178 8.5520 114.30 129.63 10.70
3179 8.5540 124.80 135.55 11.20
3180 8.5560 120.30 142.93 11.20
3181 8.5580 141.10 151.60 12.00
3182 8.5600 161.60 160.73 12.70
3183 8.5620 157.80 168.49 12.60
3184 8.5640 152.40 172.40 12.50
3185 8.5660 146.20 170.82 12.30
3186 8.5680 142.40 164.35 12.10
3187 8.5700 141.80 155.38 11.90
3188 8.5720 115.90 146.22 10.80
3189 8.5740 132.00 138.15 11.60
3190 8.5760 119.70 131.54 11.10
3191 8.5780 116.60 126.34 11.00
3192 8.5800 112.80 122.32 10.70
3193 8.5820 117.20 119.23 10.90
3194 8.5840 114.30 116.86 10.80
3195 8.5860 98.00 115.02 10.10
3196 8.5880 98.90 113.58 10.10
3197 8.5900 111.50 112.43 10.60
3198 8.5920 120.60 111.49 11.00
3199 8.5940 109.60 110.72 10.50
3200 8.5960 110.30 110.07 10.60
3201 8.5980 114.70 109.53 10.90
3202 8.6000 125.00 109.06 11.20
3203 8.6020 105.30 108.65 10.30
3204 8.6040 99.20 108.30 10.00
3205 8.6060 122.10 107.99 11.20
3206 8.6080 105.00 107.72 10.40
3207 8.6100 93.90 107.48 9.70
3208 8.6120 126.90 107.26 11.30
3209 8.6140 118.50 107.07 11.00
3210 8.6160 109.40 106.89 10.60
3211 8.6180 115.80 106.68 10.80
3212 8.6200 109.40 106.53 10.40
3213 8.6220 114.90 106.40 10.70
3214 8.6240 103.20 106.28 10.20
3215 8.6260 115.70 106.17 10.80
3216 8.6280 105.70 112.59 10.40
3217 8.6300 125.20 112.70 11.20
3218 8.6320 121.60 112.83 11.00
3219 8.6340 121.60 112.97 11.10
3220 8.6360 120.00 113.14 11.10
3221 8.6380 116.70 113.32 10.90
3222 8.6400 108.10 113.52 10.40
3223 8.6420 130.70 113.74 11.50
3224 8.6440 113.40 113.98 10.60
3225 8.6460 118.70 114.24 11.00
3226 8.6480 123.40 114.51 11.20
3227 8.6500 116.30 114.82 10.80
3228 8.6520 117.00 115.14 10.80
3229 8.6540 136.60 115.50 11.70
3230 8.6560 120.20 115.88 11.00
3231 8.6580 113.90 116.28 10.70
3232 8.6600 112.00 116.72 10.60
3233 8.6620 131.10 117.24 11.50
3234 8.6640 110.10 117.75 10.50
3235 8.6660 116.10 118.28 10.90
3236 8.6680 118.60 118.87 11.00
3237 8.6700 126.90 119.52 11.20
3238 8.6720 125.50 120.21 11.20
3239 8.6740 125.30 120.96 11.20
3240 8.6760 119.80 121.78 11.10
3241 8.6780 114.40 122.67 10.70
3242 8.6800 114.00 123.63 10.70
3243 8.6820 122.50 124.68 11.00
3244 8.6840 123.80 125.82 11.10
3245 8.6860 137.10 127.08 11.80
3246 8.6880 137.20 128.45 11.80
3247 8.6900 149.40 129.97 12.20
3248 8.6920 154.70 131.64 12.40
3249 8.6940 133.20 133.48 11.50
3250 8.6960 158.90 135.54 12.70
3251 8.6980 145.30 137.82 12.10
3252 8.7000 165.50 140.39 12.80
3253 8.7020 152.30 143.27 12.40
3254 8.7040 142.50 146.54 12.00
3255 8.7060 171.80 150.26 13.20
3256 8.7080 190.30 154.53 13.90
3257 8.7100 167.60 159.48 13.00
3258 8.7120 178.40 165.27 13.30
3259 8.7140 184.70 172.11 13.60
3260 8.7160 169.90 180.28 13.20
3261 8.7180 194.60 190.09 14.00
3262 8.7200 225.50 201.96 15.10
3263 8.7220 240.10 216.31 15.50
3264 8.7240 233.30 233.50 15.30
3265 8.7260 253.90 253.68 16.00
3266 8.7280 279.90 276.40 16.90
3267 8.7300 310.50 300.80 17.60
3268 8.7320 292.10 326.38 17.10
3269 8.7340 332.30 354.63 18.30
3270 8.7360 332.90 389.74 18.40
3271 8.7380 356.90 438.05 19.00
3272 8.7400 435.60 507.83 20.80
3273 8.7420 481.60 611.79 21.90
3274 8.7440 603.30 772.09 24.60
3275 8.7460 807.50 1034.22 28.80
3276 8.7480 1266.80 1522.48 35.90
3277 8.7500 2442.60 2705.77 50.20
3278 8.7520 5438.50 6121.47 76.00
3279 8.7540 13338.00 14002.30 125.10
3280 8.7560 24383.60 23613.60 181.30
3281 8.7580 19162.10 20779.20 155.80
3282 8.7600 9194.80 9462.79 101.20
3283 8.7620 4624.00 3699.93 69.70
3284 8.7640 2735.50 1900.20 53.30
3285 8.7660 1624.30 1254.05 41.00
3286 8.7680 1060.70 918.17 33.00
3287 8.7700 740.30 710.96 27.40
3288 8.7720 584.10 571.90 24.20
3289 8.7740 428.40 473.69 20.70
3290 8.7760 352.70 402.11 19.10
3291 8.7780 299.40 348.62 17.40
3292 8.7800 245.20 307.90 15.60
3293 8.7820 272.00 276.31 16.40
3294 8.7840 248.10 251.40 15.80
3295 8.7860 231.90 231.47 15.40
3296 8.7880 196.00 215.29 14.10
3297 8.7900 189.20 201.98 13.80
3298 8.7920 194.80 190.89 13.90
3299 8.7940 181.70 181.56 13.50
3300 8.7960 164.10 173.63 12.90
3301 8.7980 165.00 166.83 13.00
3302 8.8000 155.50 160.95 12.40
3303 8.8020 156.30 155.84 12.50
3304 8.8040 137.20 151.36 11.70
3305 8.8060 161.10 147.42 12.80
3306 8.8080 151.30 143.92 12.40
3307 8.8100 142.80 140.81 12.00
3308 8.8120 127.20 138.04 11.20
3309 8.8140 129.10 135.54 11.40
3310 8.8160 140.80 133.30 12.00
3311 8.8180 132.70 131.26 11.60
3312 8.8200 131.10 129.42 11.40
3313 8.8220 117.20 127.74 10.80
3314 8.8240 123.90 126.21 11.10
3315 8.8260 122.80 124.80 11.20
3316 8.8280 108.00 123.51 10.50
3317 8.8300 141.40 122.33 11.80
3318 8.8320 142.30 121.23 11.90
3319 8.8340 112.60 120.22 10.60
3320 8.8360 123.70 119.29 11.20
3321 8.8380 114.80 118.42 10.80
3322 8.8400 117.20 117.61 10.80
3323 8.8420 122.20 116.85 11.10
3324 8.8440 118.30 116.15 10.90
3325 8.8460 111.10 115.49 10.70
3326 8.8480 126.10 114.87 11.30
3327 8.8500 101.30 114.29 10.10
3328 8.8520 109.10 113.75 10.40
3329 8.8540 115.80 113.24 10.80
3330 8.8560 126.10 112.76 11.30
3331 8.8580 125.40 112.31 11.30
3332 8.8600 126.80 111.88 11.30
3333 8.8620 126.60 111.47 11.20
3334 8.8640 114.60 111.09 10.70
3335 8.8660 134.70 110.73 11.70
3336 8.8680 107.30 110.38 10.40
3337 8.8700 108.00 110.06 10.40
3338 8.8720 115.30 109.75 10.80
3339 8.8740 112.90 109.45 10.60
3340 8.8760 122.20 109.17 11.20
3341 8.8780 114.20 108.91 10.80
3342 8.8800 130.50 108.65 11.50
3343 8.8820 114.30 108.41 10.70
3344 8.8840 122.80 108.18 11.10
3345 8.8860 128.60 107.96 11.40
3346 8.8880 101.70 107.75 10.20
3347 8.8900 128.30 101.82 11.40
3348 8.8920 123.00 101.79 11.10
3349 8.8940 108.90 101.77 10.50
3350 8.8960 101.50 101.75 10.20
3351 8.8980 118.60 101.73 11.00
3352 8.9000 108.50 101.71 10.40
3353 8.9020 114.00 101.69 10.70
3354 8.9040 116.40 101.68 10.70
3355 8.9060 89.30 101.66 9.50
3356 8.9080 102.80 101.65 10.20
3357 8.9100 90.30 101.63 9.50
3358 8.9120 102.60 101.62 10.10
3359 8.9140 112.40 101.61 10.60
3360 8.9160 121.00 101.61 11.10
3361 8.9180 108.90 101.60 10.50
3362 8.9200 130.20 101.59 11.40
3363 8.9220 113.30 101.59 10.60
3364 8.9240 98.60 101.59 9.90
3365 8.9260 104.20 101.59 10.30
3366 8.9280 108.10 101.59 10.50
3367 8.9300 111.50 101.59 10.60
3368 8.9320 130.40 101.60 11.40
3369 8.9340 115.10 101.60 10.60
3370 8.9360 125.00 101.61 11.30
3371 8.9380 116.80 101.62 10.90
3372 8.9400 105.60 101.64 10.20
3373 8.9420 110.00 101.65 10.40
3374 8.9440 116.10 101.67 10.80
3375 8.9460 105.50 101.69 10.40
3376 8.9480 107.20 101.72 10.50
3377 8.9500 121.50 101.75 11.00
3378 8.9520 122.60 101.78 11.10
3379 8.9540 113.00 101.81 10.70
3380 8.9560 114.90 101.85 10.80
3381 8.9580 114.00 101.90 10.80
3382 8.9600 108.80 101.94 10.40
3383 8.9620 113.70 102.00 10.70
3384 8.9640 104.90 102.06 10.30
3385 8.9660 101.70 102.12 10.20
3386 8.9680 101.70 102.20 10.20
3387 8.9700 107.80 102.28 10.40
3388 8.9720 109.60 102.36 10.50
3389 8.9740 112.20 102.46 10.60
3390 8.9760 107.60 102.56 10.50
3391 8.9780 103.80 102.68 10.30
3392 8.9800 108.20 102.81 10.40
3393 8.9820 100.90 102.95 10.10
3394 8.9840 122.30 103.10 11.10
3395 8.9860 106.80 103.27 10.40
3396 8.9880 123.20 103.46 11.20
3397 8.9900 111.10 103.67 10.50
3398 8.9920 116.30 103.91 10.80
3399 8.9940 117.00 104.17 10.80
3400 8.9960 104.70 104.46 10.30
3401 8.9980 90.10 104.78 9.60
3402 9.0000 114.20 105.15 10.70
3403 9.0020 128.90 105.56 11.30
3404 9.0040 107.60 106.03 10.40
3405 9.0060 129.20 106.56 11.40
3406 9.0080 115.90 107.16 10.90
3407 9.0100 126.20 107.85 11.20
3408 9.0120 125.60 108.65 11.20
3409 9.0140 107.40 109.57 10.40
3410 9.0160 129.80 110.65 11.50
3411 9.0180 121.10 111.93 11.10
3412 9.0200 116.10 113.44 10.80
3413 9.0220 132.80 115.25 11.50
3414 9.0240 125.20 117.45 11.20
3415 9.0260 128.90 120.17 11.50
3416 9.0280 132.30 123.58 11.60
3417 9.0300 154.60 127.92 12.40
3418 9.0320 162.10 133.55 12.70
3419 9.0340 164.70 140.92 12.80
3420 9.0360 142.60 150.64 12.10
3421 9.0380 202.50 163.38 14.20
3422 9.0400 193.50 179.85 13.90
3423 9.0420 213.80 200.50 14.50
3424 9.0440 215.70 224.77 14.70
3425 9.0460 266.90 250.15 16.50
3426 9.0480 265.80 270.96 16.40
3427 9.0500 264.90 279.88 16.30
3428 9.0520 274.80 272.87 16.50
3429 9.0540 265.60 253.03 16.30
3430 9.0560 230.30 227.77 15.20
3431 9.0580 229.00 203.29 15.20
3432 9.0600 215.90 182.46 14.60
3433 9.0620 157.40 165.87 12.60
3434 9.0640 144.00 153.14 11.90
3435 9.0660 149.90 143.54 12.40
3436 9.0680 138.60 136.38 11.80
3437 9.0700 147.50 131.10 12.20
3438 9.0720 133.40 127.21 11.50
3439 9.0740 132.10 124.41 11.50
3440 9.0760 109.70 122.47 10.50
3441 9.0780 121.40 121.22 11.10
3442 9.0800 135.40 120.56 11.60
3443 9.0820 123.20 120.35 11.10
3444 9.0840 119.00 120.39 10.90
3445 9.0860 117.60 120.44 10.90
3446 9.0880 111.70 120.28 10.70
3447 9.0900 128.10 119.93 11.30
3448 9.0920 119.60 119.61 11.00
3449 9.0940 120.50 119.60 10.90
3450 9.0960 129.80 120.11 11.50
3451 9.0980 145.70 121.29 12.10
3452 9.1000 138.30 123.30 11.80
3453 9.1020 175.50 126.35 13.20
3454 9.1040 137.80 130.73 11.70
3455 9.1060 157.80 136.80 12.60
3456 9.1080 151.40 144.98 12.40
3457 9.1100 164.90 155.67 12.80
3458 9.1120 167.00 168.97 12.90
3459 9.1140 174.00 184.15 13.20
3460 9.1160 183.10 198.87 13.60
3461 9.1180 219.10 208.98 14.90
3462 9.1200 189.10 210.28 13.60
3463 9.1220 197.70 201.98 14.10
3464 9.1240 187.30 187.54 13.60
3465 9.1260 184.10 171.58 13.70
3466 9.1280 164.80 157.08 12.80
3467 9.1300 150.60 145.12 12.30
3468 9.1320 152.40 135.73 12.30
3469 9.1340 133.30 128.50 11.50
3470 9.1360 99.00 123.00 10.00
3471 9.1380 148.20 118.81 12.20
3472 9.1400 117.40 115.60 10.80
3473 9.1420 115.20 113.08 10.70
3474 9.1440 111.40 111.09 10.50
3475 9.1460 107.30 109.48 10.40
3476 9.1480 121.60 108.15 11.10
3477 9.1500 100.90 107.05 10.00
3478 9.1520 103.00 106.12 10.10
3479 9.1540 91.90 105.32 9.60
3480 9.1560 116.00 104.64 10.90
3481 9.1580 98.90 104.04 9.90
3482 9.1600 104.80 103.52 10.20
3483 9.1620 91.90 103.06 9.50
3484 9.1640 95.90 102.65 9.80
3485 9.1660 83.60 102.29 9.20
3486 9.1680 94.90 101.96 9.80
3487 9.1700 91.60 101.67 9.60
3488 9.1720 91.00 101.41 9.50
3489 9.1740 99.10 101.16 9.90
3490 9.1760 106.00 100.94 10.40
3491 9.1780 103.80 100.74 10.20
3492 9.1800 97.80 100.56 9.80
3493 9.1820 78.80 100.39 8.90
3494 9.1840 96.90 100.23 9.90
3495 9.1860 112.00 100.08 10.70
3496 9.1880 91.00 99.94 9.60
3497 9.1900 85.10 99.82 9.20
3498 9.1920 91.00 99.70 9.50
3499 9.1940 105.10 99.58 10.30
3500 9.1960 117.70 99.48 10.90
3501 9.1980 89.20 99.38 9.40
3502 9.2000 93.10 99.28 9.60
3503 9.2020 99.10 99.19 9.90
3504 9.2040 100.10 99.11 10.00
3505 9.2060 98.10 99.01 10.00
3506 9.2080 86.00 98.94 9.30
3507 9.2100 90.60 98.86 9.40
3508 9.2120 97.50 98.79 9.80
3509 9.2140 98.30 98.73 10.00
3510 9.2160 77.10 98.66 8.90
3511 9.2180 100.30 98.60 10.00
3512 9.2200 97.90 98.55 9.80
3513 9.2220 98.60 98.49 9.90
3514 9.2240 96.40 98.44 9.90
3515 9.2260 78.90 98.38 9.00
3516 9.2280 87.70 98.33 9.40
3517 9.2300 82.90 98.28 9.10
3518 9.2320 84.60 98.24 9.10
3519 9.2340 98.80 98.19 10.00
3520 9.2360 70.80 98.15 8.50
3521 9.2380 93.20 98.11 9.70
3522 9.2400 94.70 98.04 9.70
3523 9.2420 81.30 98.00 9.10
3524 9.2440 88.80 97.96 9.50
3525 9.2460 82.40 97.93 9.20
3526 9.2480 80.30 97.89 9.10
3527 9.2500 89.80 97.85 9.40
3528 9.2520 97.80 97.82 9.90
3529 9.2540 104.40 97.79 10.30
3530 9.2560 93.20 97.75 9.80
3531 9.2580 61.00 97.72 7.90
3532 9.2600 77.90 97.69 8.80
3533 9.2620 99.40 97.66 10.00
3534 9.2640 88.10 97.63 9.50
3535 9.2660 104.50 97.60 10.40
3536 9.2680 92.10 97.57 9.70
3537 9.2700 85.60 97.54 9.20
3538 9.2720 88.00 97.51 9.40
3539 9.2740 87.40 97.49 9.40
3540 9.2760 81.20 97.46 9.20
3541 9.2780 95.70 97.43 9.90
3542 9.2800 98.10 97.41 9.90
3543 9.2820 112.40 97.38 10.60
3544 9.2840 84.10 97.36 9.20
3545 9.2860 77.70 97.33 8.90
3546 9.2880 92.70 97.31 9.70
3547 9.2900 73.50 97.28 8.60
3548 9.2920 91.40 97.26 9.60
3549 9.2940 76.30 97.24 8.80
3550 9.2960 98.70 97.22 10.10
3551 9.2980 99.10 97.19 10.00
3552 9.3000 84.30 97.17 9.10
3553 9.3020 87.60 97.15 9.40
3554 9.3040 87.90 97.13 9.50
3555 9.3060 97.80 97.11 10.10
3556 9.3080 100.80 97.09 10.10
3557 9.3100 99.50 97.07 9.90
3558 9.3120 87.00 97.05 9.30
3559 9.3140 88.50 97.03 9.50
3560 9.3160 94.20 97.01 9.80
3561 9.3180 91.60 96.99 9.60
3562 9.3200 98.10 96.97 9.90
3563 9.3220 77.80 96.95 8.80
3564 9.3240 92.00 96.93 9.70
3565 9.3260 90.30 96.91 9.60
3566 9.3280 94.50 96.90 9.80
3567 9.3300 97.50 96.88 9.90
3568 9.3320 78.90 96.86 8.90
3569 9.3340 100.80 96.84 10.10
3570 9.3360 84.30 96.83 9.30
3571 9.3380 97.60 96.81 10.00
3572 9.3400 83.20 96.79 9.10
3573 9.3420 79.80 96.78 9.00
3574 9.3440 76.80 96.76 8.90
3575 9.3460 92.60 96.74 9.80
3576 9.3480 89.20 96.73 9.50
3577 9.3500 91.60 96.71 9.60
3578 9.3520 83.40 96.70 9.20
3579 9.3540 87.90 96.68 9.50
3580 9.3560 92.80 96.66 9.80
3581 9.3580 96.70 96.65 9.90
3582 9.3600 75.80 96.63 8.70
3583 9.3620 93.10 96.62 9.60
3584 9.3640 80.30 96.60 9.00
3585 9.3660 91.20 96.59 9.70
3586 9.3680 76.40 96.57 8.80
3587 9.3700 102.10 96.56 10.10
3588 9.3720 100.70 96.55 10.00
3589 9.3740 86.60 96.53 9.40
3590 9.3760 89.70 96.52 9.60
3591 9.3780 92.80 96.50 9.70
3592 9.3800 91.20 96.49 9.50
3593 9.3820 79.20 96.48 8.90
3594 9.3840 74.10 96.46 8.70
3595 9.3860 87.60 96.45 9.50
3596 9.3880 78.40 96.44 9.00
3597 9.3900 83.60 96.42 9.20
3598 9.3920 91.00 96.41 9.60
3599 9.3940 76.50 96.40 8.90
3600 9.3960 79.40 96.38 9.10
3601 9.3980 82.60 96.37 9.20
3602 9.4000 91.50 96.36 9.60
3603 9.4020 73.00 96.35 8.60
3604 9.4040 82.30 96.34 9.20
3605 9.4060 76.90 96.32 8.90
3606 9.4080 90.40 96.31 9.60
3607 9.4100 92.40 96.30 9.60
3608 9.4120 84.90 96.29 9.20
3609 9.4140 73.80 96.28 8.70
3610 9.4160 68.10 96.26 8.40
3611 9.4180 80.40 96.25 9.10
3612 9.4200 86.00 96.24 9.30
3613 9.4220 85.30 96.23 9.30
3614 9.4240 84.40 96.22 9.20
3615 9.4260 96.80 96.21 9.90
3616 9.4280 84.90 96.20 9.40
3617 9.4300 89.70 96.18 9.50
3618 9.4320 73.40 96.17 8.60
3619 9.4340 65.80 96.16 8.20
3620 9.4360 100.50 96.15 10.20
3621 9.4380 75.20 96.14 8.80
3622 9.4400 75.20 96.13 8.70
3623 9.4420 90.30 96.12 9.50
3624 9.4440 82.00 96.11 9.10
3625 9.4460 78.40 96.10 9.00
3626 9.4480 83.30 96.09 9.20
3627 9.4500 86.40 96.08 9.30
3628 9.4520 85.10 96.07 9.30
3629 9.4540 87.20 96.06 9.40
3630 9.4560 96.90 96.05 10.00
3631 9.4580 89.60 96.04 9.50
3632 9.4600 80.30 96.03 9.00
3633 9.4620 82.60 96.02 9.10
3634 9.4640 71.70 96.01 8.50
3635 9.4660 83.80 96.00 9.30
3636 9.4680 82.10 95.99 9.20
3637 9.4700 74.30 95.99 8.60
3638 9.4720 94.90 95.98 9.70
3639 9.4740 80.60 95.97 9.00
3640 9.4760 91.60 95.96 9.70
3641 9.4780 93.60 95.95 9.80
3642 9.4800 90.90 95.94 9.60
3643 9.4820 96.80 95.93 9.80
3644 9.4840 88.20 96.16 9.40
3645 9.4860 100.40 96.16 10.10
3646 9.4880 92.90 96.16 9.70
3647 9.4900 85.70 96.16 9.30
3648 9.4920 76.10 96.16 8.70
3649 9.4940 84.30 96.15 9.30
3650 9.4960 94.30 96.15 9.80
3651 9.4980 77.30 96.15 8.90
3652 9.5000 74.30 96.15 8.70
3653 9.5020 80.50 96.16 9.00
3654 9.5040 87.80 96.16 9.40
3655 9.5060 113.10 96.16 10.80
3656 9.5080 79.70 96.16 9.00
3657 9.5100 103.90 96.17 10.20
3658 9.5120 102.60 96.17 10.10
3659 9.5140 80.60 96.11 9.00
3660 9.5160 85.30 96.12 9.30
3661 9.5180 99.60 96.13 10.10
3662 9.5200 89.10 96.13 9.50
3663 9.5220 116.00 96.14 10.80
3664 9.5240 80.80 96.15 9.00
3665 9.5260 90.60 96.16 9.60
3666 9.5280 114.00 96.18 10.80
3667 9.5300 105.40 96.19 10.30
3668 9.5320 90.40 96.20 9.50
3669 9.5340 115.80 96.22 10.80
3670 9.5360 106.90 96.24 10.50
3671 9.5380 82.70 96.26 9.20
3672 9.5400 111.50 96.28 10.60
3673 9.5420 108.40 96.30 10.40
3674 9.5440 107.30 96.33 10.40
3675 9.5460 107.50 96.36 10.40
3676 9.5480 105.10 96.39 10.30
3677 9.5500 112.70 96.42 10.70
3678 9.5520 88.60 96.46 9.40
3679 9.5540 88.50 96.50 9.40
3680 9.5560 90.30 96.55 9.60
3681 9.5580 90.50 96.60 9.60
3682 9.5600 125.50 96.66 11.20
3683 9.5620 104.90 96.73 10.20
3684 9.5640 97.60 96.80 9.90
3685 9.5660 133.90 96.88 11.70
3686 9.5680 125.00 96.98 11.40
3687 9.5700 117.70 97.08 10.90
3688 9.5720 91.10 97.21 9.50
3689 9.5740 94.80 97.35 9.70
3690 9.5760 101.80 97.51 10.20
3691 9.5780 126.50 97.69 11.30
3692 9.5800 108.60 97.91 10.40
3693 9.5820 106.90 98.12 10.30
3694 9.5840 108.60 98.43 10.50
3695 9.5860 91.00 98.79 9.60
3696 9.5880 87.00 99.23 9.40
3697 9.5900 87.40 99.76 9.40
3698 9.5920 100.00 100.43 10.00
3699 9.5940 109.20 101.27 10.40
3700 9.5960 103.00 102.36 10.30
3701 9.5980 117.30 103.80 10.90
3702 9.6000 110.70 105.76 10.50
3703 9.6020 131.80 108.50 11.40
3704 9.6040 117.20 112.53 10.80
3705 9.6060 117.50 118.79 11.00
3706 9.6080 152.50 129.40 12.40
3707 9.6100 158.60 151.16 12.60
3708 9.6120 219.00 209.43 14.80
3709 9.6140 333.20 367.40 18.20
3710 9.6160 693.70 643.78 26.60
3711 9.6180 830.30 769.17 29.20
3712 9.6200 520.30 491.39 22.90
3713 9.6220 276.80 254.48 16.60
3714 9.6240 169.70 165.10 13.00
3715 9.6260 157.00 135.63 12.70
3716 9.6280 139.00 122.36 11.90
3717 9.6300 132.00 114.78 11.50
3718 9.6320 133.80 110.01 11.50
3719 9.6340 121.70 106.82 11.00
3720 9.6360 123.30 104.59 11.20
3721 9.6380 117.10 102.97 10.90
3722 9.6400 126.20 101.76 11.20
3723 9.6420 115.80 100.83 10.70
3724 9.6440 103.10 100.11 10.20
3725 9.6460 100.50 99.53 10.10
3726 9.6480 106.30 99.06 10.40
3727 9.6500 109.90 98.68 10.50
3728 9.6520 112.10 98.36 10.60
3729 9.6540 109.80 98.10 10.50
3730 9.6560 125.70 97.88 11.40
3731 9.6580 100.70 97.69 10.10
3732 9.6600 109.40 97.53 10.50
3733 9.6620 115.70 97.40 10.70
3734 9.6640 118.40 97.29 10.90
3735 9.6660 104.00 97.19 10.30
3736 9.6680 106.30 97.11 10.40
3737 9.6700 115.00 97.04 10.70
3738 9.6720 121.90 96.98 11.00
3739 9.6740 101.60 96.93 10.10
3740 9.6760 102.40 96.90 10.20
3741 9.6780 114.50 96.87 10.80
3742 9.6800 104.00 96.85 10.20
3743 9.6820 112.20 96.83 10.60
3744 9.6840 121.70 96.83 11.00
3745 9.6860 115.30 96.83 10.80
3746 9.6880 99.30 96.84 10.00
3747 9.6900 106.40 96.86 10.40
3748 9.6920 99.40 96.88 9.90
3749 9.6940 105.40 96.92 10.30
3750 9.6960 88.70 96.97 9.50
3751 9.6980 99.80 97.03 10.00
3752 9.7000 83.20 97.10 9.20
3753 9.7020 111.90 97.19 10.50
3754 9.7040 101.70 97.29 10.10
3755 9.7060 102.70 97.43 10.20
3756 9.7080 115.40 97.59 10.90
3757 9.7100 111.60 97.79 10.50
3758 9.7120 102.00 98.05 10.10
3759 9.7140 91.10 98.38 9.50
3760 9.7160 101.20 98.80 10.20
3761 9.7180 108.50 99.37 10.50
3762 9.7200 110.60 100.10 10.60
3763 9.7220 103.30 101.05 10.10
3764 9.7240 121.30 102.26 11.00
3765 9.7260 121.60 103.69 11.10
3766 9.7280 116.50 105.20 10.90
3767 9.7300 109.80 106.44 10.50
3768 9.7320 97.90 106.99 9.90
3769 9.7340 103.40 106.62 10.20
3770 9.7360 115.20 105.59 10.80
3771 9.7380 116.80 104.35 11.00
3772 9.7400 100.60 103.23 10.00
3773 9.7420 110.70 102.38 10.50
3774 9.7440 92.70 101.80 9.60
3775 9.7460 106.10 101.48 10.40
3776 9.7480 103.60 101.38 10.30
3777 9.7500 118.00 101.47 10.90
3778 9.7520 112.20 101.74 10.50
3779 9.7540 117.40 102.01 10.90
3780 9.7560 116.90 102.64 10.90
3781 9.7580 125.20 103.49 11.30
3782 9.7600 128.90 104.61 11.40
3783 9.7620 122.80 106.10 11.10
3784 9.7640 119.50 108.07 11.00
3785 9.7660 126.50 110.71 11.30
3786 9.7680 121.70 114.25 11.20
3787 9.7700 147.30 119.00 12.20
3788 9.7720 127.70 125.28 11.30
3789 9.7740 149.90 133.34 12.30
3790 9.7760 174.60 143.13 13.40
3791 9.7780 177.60 153.72 13.40
3792 9.7800 165.50 162.79 12.90
3793 9.7820 164.40 167.02 12.80
3794 9.7840 159.20 164.34 12.60
3795 9.7860 177.30 156.00 13.40
3796 9.7880 157.80 145.37 12.70
3797 9.7900 158.60 135.19 12.70
3798 9.7920 172.40 126.66 13.10
3799 9.7940 126.80 119.96 11.30
3800 9.7960 111.60 114.86 10.60
3801 9.7980 126.40 111.03 11.40
3802 9.8000 112.80 108.15 10.60
3803 9.8020 132.40 105.98 11.50
3804 9.8040 116.10 104.32 10.80
3805 9.8060 125.00 103.02 11.30
3806 9.8080 112.50 101.99 10.70
3807 9.8100 102.50 101.15 10.10
3808 9.8120 122.60 100.46 11.10
3809 9.8140 101.70 99.89 10.10
3810 9.8160 107.30 99.41 10.50
3811 9.8180 98.60 99.01 10.10
3812 9.8200 103.50 98.66 10.30
3813 9.8220 102.30 98.36 10.10
3814 9.8240 99.40 98.10 10.00
3815 9.8260 89.40 97.87 9.50
3816 9.8280 104.70 97.67 10.40
3817 9.8300 93.80 97.50 9.70
3818 9.8320 114.60 97.34 10.70
3819 9.8340 108.10 97.21 10.50
3820 9.8360 87.30 97.08 9.40
3821 9.8380 83.40 96.97 9.20
3822 9.8400 101.50 96.87 10.10
3823 9.8420 105.60 96.78 10.30
3824 9.8440 101.20 96.70 10.10
3825 9.8460 94.00 96.63 9.80
3826 9.8480 81.40 96.56 9.20
3827 9.8500 85.40 96.50 9.30
3828 9.8520 102.30 96.45 10.10
3829 9.8540 95.60 96.40 9.80
3830 9.8560 88.60 96.35 9.50
3831 9.8580 87.10 97.15 9.40
3832 9.8600 87.20 97.14 9.40
3833 9.8620 85.10 97.13 9.20
3834 9.8640 83.50 97.12 9.20
3835 9.8660 96.60 97.12 9.90
3836 9.8680 106.00 97.12 10.40
3837 9.8700 95.60 97.13 9.80
3838 9.8720 96.80 97.14 9.90
3839 9.8740 95.00 97.15 9.80
3840 9.8760 98.80 97.16 10.00
3841 9.8780 103.90 97.18 10.30
3842 9.8800 74.70 97.20 8.70
3843 9.8820 109.20 97.23 10.40
3844 9.8840 98.70 97.26 10.00
3845 9.8860 101.80 97.29 10.20
3846 9.8880 77.20 97.33 8.90
3847 9.8900 86.90 97.37 9.40
3848 9.8920 87.00 97.41 9.40
3849 9.8940 91.60 97.46 9.60
3850 9.8960 92.30 97.51 9.70
3851 9.8980 108.70 97.57 10.50
3852 9.9000 104.80 97.63 10.20
3853 9.9020 96.70 97.70 9.80
3854 9.9040 83.70 97.77 9.20
3855 9.9060 89.00 97.85 9.50
3856 9.9080 104.40 97.93 10.30
3857 9.9100 102.40 98.02 10.20
3858 9.9120 90.60 98.12 9.60
3859 9.9140 107.40 98.23 10.30
3860 9.9160 95.40 98.35 9.80
3861 9.9180 101.10 98.48 10.10
3862 9.9200 87.60 98.61 9.40
3863 9.9220 91.10 98.77 9.50
3864 9.9240 90.70 98.93 9.50
3865 9.9260 111.90 99.11 10.60
3866 9.9280 84.80 99.31 9.30
3867 9.9300 95.60 100.30 9.80
3868 9.9320 85.60 100.56 9.20
3869 9.9340 97.30 100.84 9.80
3870 9.9360 88.80 101.16 9.50
3871 9.9380 95.80 101.50 9.90
3872 9.9400 128.70 101.89 11.30
3873 9.9420 78.10 102.31 8.90
3874 9.9440 83.40 102.79 9.10
3875 9.9460 103.70 103.33 10.30
3876 9.9480 111.80 103.94 10.60
3877 9.9500 97.30 104.64 9.90
3878 9.9520 95.60 105.43 9.70
3879 9.9540 99.70 106.34 10.00
3880 9.9560 118.00 107.40 10.90
3881 9.9580 107.90 108.63 10.50
3882 9.9600 107.20 110.10 10.40
3883 9.9620 126.00 111.84 11.20
3884 9.9640 102.30 113.95 10.10
3885 9.9660 102.60 116.54 10.30
3886 9.9680 96.50 119.76 9.90
3887 9.9700 93.50 123.84 9.70
3888 9.9720 109.70 129.13 10.50
3889 9.9740 122.10 136.15 11.00
3890 9.9760 115.20 145.78 10.90
3891 9.9780 147.80 159.46 12.20
3892 9.9800 164.50 179.87 12.90
3893 9.9820 182.20 212.27 13.50
3894 9.9840 259.00 269.95 16.10
3895 9.9860 372.50 399.61 19.50
3896 9.9880 747.70 759.01 27.50
3897 9.9900 1722.50 1616.73 42.20
3898 9.9920 3023.80 2717.28 56.20
3899 9.9940 2469.20 2520.81 50.40
3900 9.9960 1316.40 1277.68 36.90
3901 9.9980 671.80 577.92 26.30
3902 10.0000 432.00 335.65 20.80
3903 10.0020 302.00 246.48 17.40
3904 10.0040 210.80 201.59 14.50
3905 10.0060 183.70 174.90 13.70
3906 10.0080 143.30 157.85 12.00
3907 10.0100 146.00 146.40 12.10
3908 10.0120 134.80 138.47 11.60
3909 10.0140 126.40 132.86 11.30
3910 10.0160 125.10 128.86 11.30
3911 10.0180 128.60 126.05 11.40
3912 10.0200 102.90 124.16 10.20
3913 10.0220 127.70 123.03 11.30
3914 10.0240 127.80 122.58 11.20
3915 10.0260 125.60 122.80 11.30
3916 10.0280 118.70 123.74 11.00
3917 10.0300 133.00 125.50 11.60
3918 10.0320 120.80 128.28 11.00
3919 10.0340 138.30 132.30 11.80
3920 10.0360 152.20 137.86 12.50
3921 10.0380 148.70 145.18 12.30
3922 10.0400 149.10 154.21 12.20
3923 10.0420 166.40 164.15 12.90
3924 10.0440 164.00 172.95 12.80
3925 10.0460 179.00 177.83 13.50
3926 10.0480 174.80 177.32 13.30
3927 10.0500 177.70 172.95 13.40
3928 10.0520 154.20 167.89 12.40
3929 10.0540 170.30 164.65 13.10
3930 10.0560 189.30 164.57 13.90
3931 10.0580 162.60 168.50 12.90
3932 10.0600 212.90 177.49 14.60
3933 10.0620 213.50 193.48 14.70
3934 10.0640 305.30 220.42 17.50
3935 10.0660 344.20 267.34 18.70
3936 10.0680 503.70 361.41 22.50
3937 10.0700 740.70 592.34 27.40
3938 10.0720 1233.40 1168.22 35.40
3939 10.0740 2229.00 2174.17 47.80
3940 10.0760 3192.30 2794.95 58.00
3941 10.0780 2182.60 1934.11 47.60
3942 10.0800 979.10 945.53 31.50
3943 10.0820 496.90 487.13 22.40
3944 10.0840 310.70 316.96 17.70
3945 10.0860 209.10 242.73 14.60
3946 10.0880 179.80 201.43 13.40
3947 10.0900 157.10 175.56 12.60
3948 10.0920 131.70 158.27 11.50
3949 10.0940 148.60 146.16 12.20
3950 10.0960 137.60 137.35 11.90
3951 10.0980 124.50 130.75 11.20
3952 10.1000 100.80 125.70 10.00
3953 10.1020 106.40 121.70 10.30
3954 10.1040 101.80 118.50 10.10
3955 10.1060 131.60 115.90 11.60
3956 10.1080 96.20 113.76 9.80
3957 10.1100 104.80 111.96 10.30
3958 10.1120 86.50 110.46 9.30
3959 10.1140 117.60 109.17 10.80
3960 10.1160 112.80 108.07 10.70
3961 10.1180 112.50 107.12 10.70
3962 10.1200 113.30 106.29 10.60
3963 10.1220 100.70 105.56 10.00
3964 10.1240 102.80 104.92 10.10
3965 10.1260 104.60 104.35 10.30
3966 10.1280 109.30 103.85 10.50
3967 10.1300 106.60 103.40 10.30
3968 10.1320 110.80 102.31 10.60
3969 10.1340 95.60 101.97 9.80
3970 10.1360 93.80 101.66 9.70
3971 10.1380 103.40 101.39 10.20
3972 10.1400 107.60 101.14 10.40
3973 10.1420 96.40 100.91 9.80
3974 10.1440 102.90 100.71 10.20
3975 10.1460 106.40 100.53 10.40
3976 10.1480 97.10 100.36 9.90
3977 10.1500 99.30 100.21 10.00
3978 10.1520 92.30 100.07 9.60
3979 10.1540 125.80 99.95 11.20
3980 10.1560 97.30 99.83 9.90
3981 10.1580 108.20 99.73 10.40
3982 10.1600 87.20 99.64 9.30
3983 10.1620 87.60 99.56 9.40
3984 10.1640 97.50 99.48 9.90
3985 10.1660 92.00 99.42 9.70
3986 10.1680 112.70 99.36 10.60
3987 10.1700 95.70 99.31 9.80
3988 10.1720 105.40 99.26 10.30
3989 10.1740 103.60 99.22 10.10
3990 10.1760 93.60 99.19 9.80
3991 10.1780 104.50 99.17 10.30
3992 10.1800 96.50 99.15 9.80
3993 10.1820 83.00 99.14 9.10
3994 10.1840 110.50 99.13 10.60
3995 10.1860 98.60 99.13 10.00
3996 10.1880 86.00 99.14 9.40
3997 10.1900 99.60 99.15 10.00
3998 10.1920 85.10 99.18 9.30
3999 10.1940 97.20 99.21 9.90
4000 10.1960 90.20 99.24 9.70
4001 10.1980 90.30 99.29 9.60
4002 10.2000 99.10 99.35 10.00
4003 10.2020 113.60 99.42 10.70
4004 10.2040 91.50 99.50 9.60
4005 10.2060 109.40 99.60 10.60
4006 10.2080 118.90 99.71 11.00
4007 10.2100 94.10 99.84 9.80
4008 10.2120 99.00 100.00 9.90
4009 10.2140 105.00 100.18 10.30
4010 10.2160 102.10 100.39 10.20
4011 10.2180 116.80 100.64 10.90
4012 10.2200 94.10 100.94 9.70
4013 10.2220 78.70 101.31 8.90
4014 10.2240 118.70 101.02 10.90
4015 10.2260 99.20 101.55 10.10
4016 10.2280 93.80 102.24 9.70
4017 10.2300 88.30 103.10 9.50
4018 10.2320 102.20 104.21 10.20
4019 10.2340 117.30 105.64 10.80
4020 10.2360 120.50 107.50 11.10
4021 10.2380 134.30 109.93 11.60
4022 10.2400 117.40 113.06 10.90
4023 10.2420 161.00 116.94 12.70
4024 10.2440 123.60 121.42 11.20
4025 10.2460 150.60 126.18 12.40
4026 10.2480 123.90 130.91 11.20
4027 10.2500 158.30 135.61 12.60
4028 10.2520 155.70 140.16 12.60
4029 10.2540 148.50 143.48 12.20
4030 10.2560 158.30 143.77 12.70
4031 10.2580 132.60 140.18 11.60
4032 10.2600 146.10 133.91 12.10
4033 10.2620 140.30 127.02 11.90
4034 10.2640 104.10 120.85 10.20
4035 10.2660 109.30 115.88 10.60
4036 10.2680 132.00 112.06 11.50
4037 10.2700 122.60 109.19 11.20
4038 10.2720 117.10 107.06 10.90
4039 10.2740 111.00 105.46 10.60
4040 10.2760 105.80 104.25 10.40
4041 10.2780 112.30 103.33 10.70
4042 10.2800 100.00 102.61 10.10
4043 10.2820 106.20 102.04 10.30
4044 10.2840 105.40 101.58 10.30
4045 10.2860 116.90 101.21 11.00
4046 10.2880 101.90 100.91 10.10
4047 10.2900 87.10 100.66 9.30
4048 10.2920 98.40 100.46 10.00
4049 10.2940 98.70 100.29 9.90
4050 10.2960 108.20 100.15 10.50
4051 10.2980 107.30 100.04 10.40
4052 10.3000 107.70 99.96 10.40
4053 10.3020 101.40 99.89 10.10
4054 10.3040 105.00 99.84 10.30
4055 10.3060 103.60 99.80 10.30
4056 10.3080 100.40 99.78 10.10
4057 10.3100 106.60 99.77 10.40
4058 10.3120 121.40 99.77 11.10
4059 10.3140 89.70 99.78 9.50
4060 10.3160 110.20 99.81 10.60
4061 10.3180 115.30 99.84 10.80
4062 10.3200 105.40 99.89 10.30
4063 10.3220 120.80 99.95 11.00
4064 10.3240 90.80 100.03 9.50
4065 10.3260 97.80 100.11 10.00
4066 10.3280 114.30 100.21 10.70
4067 10.3300 98.90 100.32 10.00
4068 10.3320 97.00 100.45 9.90
4069 10.3340 90.20 100.60 9.50
4070 10.3360 98.80 100.76 10.00
4071 10.3380 116.60 100.95 10.90
4072 10.3400 129.50 101.17 11.40
4073 10.3420 100.40 101.42 10.00
4074 10.3440 118.80 101.71 10.90
4075 10.3460 119.80 102.05 11.10
4076 10.3480 89.40 102.44 9.50
4077 10.3500 116.20 102.91 10.70
4078 10.3520 103.30 103.47 10.30
4079 10.3540 114.80 104.15 10.60
4080 10.3560 97.40 104.99 10.00
4081 10.3580 118.70 106.04 10.90
4082 10.3600 113.00 107.39 10.70
4083 10.3620 131.30 109.16 11.40
4084 10.3640 116.90 111.53 10.80
4085 10.3660 135.10 114.63 11.70
4086 10.3680 140.50 118.70 11.80
4087 10.3700 129.00 123.91 11.30
4088 10.3720 127.60 130.19 11.30
4089 10.3740 150.30 136.87 12.20
4090 10.3760 155.10 142.34 12.50
4091 10.3780 141.80 144.48 11.90
4092 10.3800 167.40 142.39 12.90
4093 10.3820 150.80 137.36 12.30
4094 10.3840 133.40 131.60 11.50
4095 10.3860 149.20 126.58 12.30
4096 10.3880 136.80 122.82 11.70
4097 10.3900 124.10 120.35 11.10
4098 10.3920 134.10 119.04 11.60
4099 10.3940 142.50 118.76 11.90
4100 10.3960 119.20 119.47 11.00
4101 10.3980 138.70 121.19 11.70
4102 10.4000 141.50 124.09 11.90
4103 10.4020 135.50 128.44 11.70
4104 10.4040 137.50 134.66 11.60
4105 10.4060 148.00 143.27 12.20
4106 10.4080 162.90 154.76 12.70
4107 10.4100 148.00 169.28 12.10
4108 10.4120 171.10 185.87 13.10
4109 10.4140 132.60 201.32 11.40
4110 10.4160 157.40 210.18 12.60
4111 10.4180 146.50 207.98 12.00
4112 10.4200 120.20 195.75 10.90
4113 10.4220 144.00 178.92 12.00
4114 10.4240 146.60 162.49 12.00
4115 10.4260 138.50 148.70 11.90
4116 10.4280 104.90 137.94 10.20
4117 10.4300 131.40 129.83 11.50
4118 10.4320 116.80 123.80 10.80
4119 10.4340 110.70 119.33 10.40
4120 10.4360 125.50 115.98 11.30
4121 10.4380 133.10 113.45 11.50
4122 10.4400 127.20 111.49 11.20
4123 10.4420 111.50 109.96 10.60
4124 10.4440 107.00 108.74 10.30
4125 10.4460 138.30 107.75 11.80
4126 10.4480 111.60 106.96 10.50
4127 10.4500 117.40 106.31 10.80
4128 10.4520 120.70 105.78 11.00
4129 10.4540 117.00 105.35 10.80
4130 10.4560 96.20 105.01 9.90
4131 10.4580 94.80 104.75 9.70
4132 10.4600 104.60 104.55 10.20
4133 10.4620 90.10 104.41 9.50
4134 10.4640 99.10 104.33 9.90
4135 10.4660 101.30 104.31 10.10
4136 10.4680 111.20 104.35 10.50
4137 10.4700 99.30 104.46 9.90
4138 10.4720 99.20 104.64 9.90
4139 10.4740 101.20 104.91 10.10
4140 10.4760 101.80 105.29 10.20
4141 10.4780 109.20 105.82 10.40
4142 10.4800 101.50 106.54 10.10
4143 10.4820 92.90 107.48 9.60
4144 10.4840 94.30 108.68 9.70
4145 10.4860 110.10 110.16 10.60
4146 10.4880 102.90 111.81 10.10
4147 10.4900 96.80 113.33 9.90
4148 10.4920 107.10 114.33 10.30
4149 10.4940 119.80 114.61 11.00
4150 10.4960 102.30 114.43 10.20
4151 10.4980 116.70 114.28 10.80
4152 10.5000 111.60 114.52 10.50
4153 10.5020 126.10 115.35 11.20
4154 10.5040 121.80 116.90 11.10
4155 10.5060 111.50 119.35 10.70
4156 10.5080 116.30 122.93 10.80
4157 10.5100 124.30 128.01 11.20
4158 10.5120 130.60 135.03 11.40
4159 10.5140 135.20 144.52 11.70
4160 10.5160 136.60 156.86 11.80
4161 10.5180 174.90 171.84 13.20
4162 10.5200 186.60 187.71 13.70
4163 10.5220 187.90 200.26 13.60
4164 10.5240 206.60 204.11 14.50
4165 10.5260 211.60 197.11 14.70
4166 10.5280 176.30 182.75 13.30
4167 10.5300 161.90 166.57 12.80
4168 10.5320 151.00 152.10 12.20
4169 10.5340 145.80 140.46 12.20
4170 10.5360 130.00 131.57 11.50
4171 10.5380 130.10 124.94 11.50
4172 10.5400 129.70 120.01 11.40
4173 10.5420 105.10 116.35 10.20
4174 10.5440 109.70 113.58 10.60
4175 10.5460 109.30 111.46 10.60
4176 10.5480 112.10 109.80 10.70
4177 10.5500 135.60 108.47 11.70
4178 10.5520 97.50 107.39 9.90
4179 10.5540 111.00 106.50 10.60
4180 10.5560 116.60 105.77 11.00
4181 10.5580 106.00 105.15 10.30
4182 10.5600 111.00 104.62 10.60
4183 10.5620 97.40 104.17 9.90
4184 10.5640 88.90 103.79 9.60
4185 10.5660 98.20 103.45 10.10
4186 10.5680 113.00 103.16 10.80
4187 10.5700 80.20 102.91 9.00
4188 10.5720 95.60 102.69 9.80
4189 10.5740 103.10 102.50 10.20
4190 10.5760 116.00 102.32 11.00
4191 10.5780 102.90 102.17 10.20
4192 10.5800 107.60 102.04 10.50
4193 10.5820 81.10 101.92 9.00
4194 10.5840 92.30 101.81 9.70
4195 10.5860 93.70 101.72 9.90
4196 10.5880 99.40 101.63 10.00
4197 10.5900 91.40 101.56 9.70
4198 10.5920 105.70 101.49 10.30
4199 10.5940 102.40 101.43 10.20
4200 10.5960 102.20 101.38 10.20
4201 10.5980 111.70 101.33 10.60
4202 10.6000 88.90 101.29 9.50
4203 10.6020 77.50 101.25 8.80
4204 10.6040 87.40 101.22 9.40
4205 10.6060 94.50 101.20 9.90
4206 10.6080 89.80 101.17 9.50
4207 10.6100 100.00 101.15 10.10
4208 10.6120 93.00 101.14 9.70
4209 10.6140 100.60 101.12 10.10
4210 10.6160 98.10 101.11 10.10
4211 10.6180 101.50 101.10 10.10
4212 10.6200 120.90 101.10 11.10
4213 10.6220 88.50 101.09 9.40
4214 10.6240 95.10 101.09 9.80
4215 10.6260 108.10 101.09 10.50
4216 10.6280 103.90 101.10 10.20
4217 10.6300 94.80 101.10 9.80
4218 10.6320 91.90 101.11 9.60
4219 10.6340 86.90 101.12 9.30
4220 10.6360 91.70 101.13 9.70
4221 10.6380 76.60 101.15 8.80
4222 10.6400 109.90 101.16 10.50
4223 10.6420 101.10 101.18 10.10
4224 10.6440 106.10 101.20 10.30
4225 10.6460 100.00 101.22 10.10
4226 10.6480 114.00 101.24 10.70
4227 10.6500 92.70 101.27 9.70
4228 10.6520 98.70 101.29 10.00
4229 10.6540 107.00 101.32 10.30
4230 10.6560 88.70 101.35 9.50
4231 10.6580 93.80 101.39 9.70
4232 10.6600 94.90 101.42 9.80
4233 10.6620 101.70 101.46 10.10
4234 10.6640 106.90 101.50 10.40
4235 10.6660 101.50 101.54 10.20
4236 10.6680 102.90 101.59 10.20
4237 10.6700 83.00 101.64 9.20
4238 10.6720 84.40 101.69 9.20
4239 10.6740 95.80 101.75 9.80
4240 10.6760 102.40 101.81 10.30
4241 10.6780 103.90 101.87 10.20
4242 10.6800 101.70 101.94 10.10
4243 10.6820 114.50 102.01 10.70
4244 10.6840 95.30 102.09 9.70
4245 10.6860 104.40 102.18 10.40
4246 10.6880 111.60 102.27 10.60
4247 10.6900 97.90 102.36 9.90
4248 10.6920 99.30 102.47 9.90
4249 10.6940 108.60 102.59 10.40
4250 10.6960 118.30 102.72 11.00
4251 10.6980 99.20 102.86 10.00
4252 10.7000 94.90 103.06 9.70
4253 10.7020 127.10 103.23 11.40
4254 10.7040 92.30 103.43 9.60
4255 10.7060 94.10 103.64 9.80
4256 10.7080 106.90 103.89 10.40
4257 10.7100 106.60 104.16 10.40
4258 10.7120 103.60 104.48 10.20
4259 10.7140 83.10 104.84 9.10
4260 10.7160 89.00 105.26 9.60
4261 10.7180 99.70 105.75 10.00
4262 10.7200 112.60 106.32 10.60
4263 10.7220 101.40 107.02 10.10
4264 10.7240 106.90 107.88 10.30
4265 10.7260 104.40 108.94 10.30
4266 10.7280 110.10 110.30 10.50
4267 10.7300 131.70 112.07 11.50
4268 10.7320 108.60 114.41 10.40
4269 10.7340 128.00 117.51 11.30
4270 10.7360 131.20 121.60 11.60
4271 10.7380 122.20 126.85 11.10
4272 10.7400 145.40 133.22 12.10
4273 10.7420 166.10 140.06 12.90
4274 10.7440 180.70 145.70 13.40
4275 10.7460 187.30 147.97 13.90
4276 10.7480 170.70 145.93 13.10
4277 10.7500 164.20 140.98 12.90
4278 10.7520 167.80 135.41 13.00
4279 10.7540 148.50 130.69 12.10
4280 10.7560 144.10 127.34 12.10
4281 10.7580 134.90 125.39 11.60
4282 10.7600 129.70 124.72 11.40
4283 10.7620 152.40 125.26 12.30
4284 10.7640 138.40 127.05 11.70
4285 10.7660 133.40 130.22 11.70
4286 10.7680 160.20 135.10 12.70
4287 10.7700 158.20 142.18 12.60
4288 10.7720 165.00 152.06 12.90
4289 10.7740 157.60 165.39 12.50
4290 10.7760 169.50 182.45 13.20
4291 10.7780 180.10 202.32 13.40
4292 10.7800 197.80 221.35 14.10
4293 10.7820 180.20 232.90 13.50
4294 10.7840 199.70 231.10 14.10
4295 10.7860 140.50 216.75 12.00
4296 10.7880 187.40 196.52 13.70
4297 10.7900 161.10 176.66 12.80
4298 10.7920 178.70 160.04 13.40
4299 10.7940 152.70 147.13 12.30
4300 10.7960 140.10 137.43 11.90
4301 10.7980 132.30 130.26 11.50
4302 10.8000 137.50 124.95 11.70
4303 10.8020 124.80 121.04 11.20
4304 10.8040 122.70 118.03 11.00
4305 10.8060 121.30 115.71 11.10
4306 10.8080 116.80 113.86 10.90
4307 10.8100 119.80 112.39 11.00
4308 10.8120 120.70 111.20 11.00
4309 10.8140 119.60 110.23 10.90
4310 10.8160 114.70 109.42 10.90
4311 10.8180 110.30 108.76 10.50
4312 10.8200 113.90 108.21 10.70
4313 10.8220 107.50 107.75 10.40
4314 10.8240 107.80 107.39 10.30
4315 10.8260 112.40 107.10 10.70
4316 10.8280 107.30 106.88 10.40
4317 10.8300 105.20 106.72 10.30
4318 10.8320 102.10 106.64 10.20
4319 10.8340 107.80 106.63 10.30
4320 10.8360 79.80 106.71 9.00
4321 10.8380 88.10 106.90 9.40
4322 10.8400 81.30 107.24 9.00
4323 10.8420 107.00 107.76 10.40
4324 10.8440 115.70 108.59 10.80
4325 10.8460 127.30 109.85 11.40
4326 10.8480 124.10 111.96 11.20
4327 10.8500 133.10 115.75 11.60
4328 10.8520 147.10 123.79 12.20
4329 10.8540 160.50 142.83 12.60
4330 10.8560 204.50 181.90 14.40
4331 10.8580 295.50 229.67 17.20
4332 10.8600 326.30 227.75 18.10
4333 10.8620 219.80 175.82 14.90
4334 10.8640 147.90 138.39 12.10
4335 10.8660 117.70 121.48 10.90
4336 10.8680 128.40 114.39 11.30
4337 10.8700 114.50 110.87 10.70
4338 10.8720 98.70 108.79 10.00
4339 10.8740 108.00 107.43 10.30
4340 10.8760 102.20 106.50 10.20
4341 10.8780 112.70 105.83 10.60
4342 10.8800 109.00 105.33 10.40
4343 10.8820 103.20 104.96 10.20
4344 10.8840 88.60 104.66 9.40
4345 10.8860 109.80 104.43 10.60
4346 10.8880 105.40 104.24 10.30
4347 10.8900 88.20 104.08 9.40
4348 10.8920 93.90 103.95 9.70
4349 10.8940 101.60 103.85 10.00
4350 10.8960 92.80 103.76 9.70
4351 10.8980 103.70 103.68 10.20
4352 10.9000 106.80 103.61 10.40
4353 10.9020 81.00 103.56 9.00
4354 10.9040 98.60 103.51 9.90
4355 10.9060 103.40 103.47 10.30
4356 10.9080 98.10 103.44 9.90
4357 10.9100 94.90 103.40 9.80
4358 10.9120 102.20 103.38 10.10
4359 10.9140 88.70 103.36 9.40
4360 10.9160 98.00 103.34 10.00
4361 10.9180 103.30 103.32 10.20
4362 10.9200 91.80 103.31 9.60
4363 10.9220 102.20 103.30 10.10
4364 10.9240 94.80 103.29 9.80
4365 10.9260 96.30 103.28 9.90
4366 10.9280 108.20 103.28 10.40
4367 10.9300 116.30 103.27 10.80
4368 10.9320 89.20 103.27 9.50
4369 10.9340 100.70 103.27 10.00
4370 10.9360 87.20 103.27 9.40
4371 10.9380 85.60 103.27 9.30
4372 10.9400 93.20 103.28 9.70
4373 10.9420 83.90 103.28 9.10
4374 10.9440 97.50 103.29 9.90
4375 10.9460 86.20 103.29 9.40
4376 10.9480 85.60 103.30 9.30
4377 10.9500 94.20 103.30 9.80
4378 10.9520 103.40 103.28 10.20
4379 10.9540 99.70 103.29 10.00
4380 10.9560 100.60 103.29 10.10
4381 10.9580 113.00 103.31 10.60
4382 10.9600 96.80 103.33 9.90
4383 10.9620 102.00 103.34 10.10
4384 10.9640 93.40 103.35 9.70
4385 10.9660 120.80 103.36 11.20
4386 10.9680 96.60 103.37 9.90
4387 10.9700 92.70 103.39 9.60
4388 10.9720 115.60 103.40 10.70
4389 10.9740 90.00 103.41 9.50
4390 10.9760 115.90 103.43 10.90
4391 10.9780 105.20 103.44 10.30
4392 10.9800 115.80 103.46 10.80
4393 10.9820 110.20 103.48 10.50
4394 10.9840 101.60 103.50 10.10
4395 10.9860 90.40 103.51 9.60
4396 10.9880 93.00 103.53 9.60
4397 10.9900 97.80 103.54 9.90
4398 10.9920 108.40 103.56 10.40
4399 10.9940 105.90 103.58 10.30
4400 10.9960 99.60 103.64 10.10
4401 10.9980 94.50 103.66 9.70
4402 11.0000 99.40 103.68 10.00
4403 11.0020 94.10 103.70 9.80
4404 11.0040 108.20 103.71 10.40
4405 11.0060 103.40 103.73 10.30
4406 11.0080 111.00 103.75 10.50
4407 11.0100 118.40 103.77 11.00
4408 11.0120 102.10 103.79 10.10
4409 11.0140 97.60 103.81 9.90
4410 11.0160 90.70 103.83 9.60
4411 11.0180 102.80 103.85 10.10
4412 11.0200 99.70 103.88 10.00
4413 11.0220 105.40 103.86 10.30
4414 11.0240 110.20 103.88 10.50
4415 11.0260 98.80 103.91 10.10
4416 11.0280 113.10 103.93 10.60
4417 11.0300 95.20 103.95 9.80
4418 11.0320 103.60 103.98 10.20
4419 11.0340 109.10 104.00 10.40
4420 11.0360 86.70 104.03 9.40
4421 11.0380 115.30 104.05 10.70
4422 11.0400 111.30 104.07 10.60
4423 11.0420 120.50 104.10 11.00
4424 11.0440 88.60 104.13 9.50
4425 11.0460 110.30 104.15 10.60
4426 11.0480 102.10 104.18 10.10
4427 11.0500 106.40 104.21 10.40
4428 11.0520 119.40 104.25 10.90
4429 11.0540 109.80 104.28 10.50
4430 11.0560 96.50 104.31 9.90
4431 11.0580 83.70 104.34 9.20
4432 11.0600 105.50 104.37 10.30
4433 11.0620 116.50 104.40 10.80
4434 11.0640 88.80 104.43 9.50
4435 11.0660 108.50 104.46 10.50
4436 11.0680 93.60 104.49 9.60
4437 11.0700 85.10 104.52 9.30
4438 11.0720 108.80 104.55 10.40
4439 11.0740 103.50 104.59 10.10
4440 11.0760 92.10 104.62 9.70
4441 11.0780 89.40 104.65 9.40
4442 11.0800 120.80 104.69 11.00
4443 11.0820 106.20 104.72 10.30
4444 11.0840 113.80 104.76 10.70
4445 11.0860 110.20 104.80 10.60
4446 11.0880 101.10 104.84 10.00
4447 11.0900 99.60 104.88 10.00
4448 11.0920 97.10 104.92 9.80
4449 11.0940 93.10 104.96 9.60
4450 11.0960 103.40 105.00 10.30
4451 11.0980 93.80 105.05 9.70
4452 11.1000 94.20 105.09 9.70
4453 11.1020 109.80 105.14 10.50
4454 11.1040 94.80 105.19 9.70
4455 11.1060 108.60 105.24 10.50
4456 11.1080 99.90 105.29 10.00
4457 11.1100 104.40 105.34 10.20
4458 11.1120 111.30 105.40 10.50
4459 11.1140 97.20 105.46 9.90
4460 11.1160 113.70 105.52 10.80
4461 11.1180 114.90 105.58 10.70
4462 11.1200 103.20 105.65 10.20
4463 11.1220 99.60 105.72 10.00
4464 11.1240 95.30 105.79 9.80
4465 11.1260 107.10 105.87 10.40
4466 11.1280 119.00 105.95 10.90
4467 11.1300 96.90 106.03 9.80
4468 11.1320 116.00 106.12 10.70
4469 11.1340 117.20 106.22 10.90
4470 11.1360 110.90 106.32 10.60
4471 11.1380 117.90 106.42 10.80
4472 11.1400 100.50 106.54 10.00
4473 11.1420 107.00 106.66 10.40
4474 11.1440 109.20 106.79 10.50
4475 11.1460 112.90 106.93 10.70
4476 11.1480 87.90 107.08 9.30
4477 11.1500 102.00 107.25 10.10
4478 11.1520 89.80 107.43 9.50
4479 11.1540 114.10 107.62 10.70
4480 11.1560 112.40 107.83 10.60
4481 11.1580 103.70 108.06 10.20
4482 11.1600 102.20 108.32 10.10
4483 11.1620 115.00 108.60 10.70
4484 11.1640 102.70 108.92 10.10
4485 11.1660 109.20 109.27 10.50
4486 11.1680 113.60 109.66 10.60
4487 11.1700 101.70 110.09 10.10
4488 11.1720 104.60 110.60 10.20
4489 11.1740 107.20 111.18 10.40
4490 11.1760 112.50 111.84 10.70
4491 11.1780 99.80 112.61 9.90
4492 11.1800 101.20 113.50 10.00
4493 11.1820 132.10 114.56 11.40
4494 11.1840 107.00 115.82 10.40
4495 11.1860 124.20 117.33 11.20
4496 11.1880 145.30 119.18 12.00
4497 11.1900 137.20 121.46 11.70
4498 11.1920 148.30 124.34 12.10
4499 11.1940 148.00 128.05 12.20
4500 11.1960 138.70 132.92 11.90
4501 11.1980 146.00 139.46 12.00
4502 11.2000 146.10 148.31 12.00
4503 11.2020 199.50 160.33 14.10
4504 11.2040 178.30 176.47 13.40
4505 11.2060 173.60 197.37 13.30
4506 11.2080 202.80 222.69 14.20
4507 11.2100 198.70 249.01 14.00
4508 11.2120 207.80 268.43 14.30
4509 11.2140 232.90 271.80 15.40
4510 11.2160 217.00 257.08 14.90
4511 11.2180 227.80 231.92 15.00
4512 11.2200 194.50 205.57 13.90
4513 11.2220 189.60 183.01 13.80
4514 11.2240 181.80 165.36 13.60
4515 11.2260 161.00 152.14 12.80
4516 11.2280 164.10 142.40 12.80
4517 11.2300 146.00 135.25 12.10
4518 11.2320 134.50 129.95 11.60
4519 11.2340 117.30 125.96 10.90
4520 11.2360 132.70 122.90 11.60
4521 11.2380 149.10 120.50 12.20
4522 11.2400 113.50 118.58 10.70
4523 11.2420 122.50 117.03 11.10
4524 11.2440 139.40 115.75 12.00
4525 11.2460 122.50 114.69 11.20
4526 11.2480 119.60 113.80 10.90
4527 11.2500 122.80 113.05 11.10
4528 11.2520 117.10 112.41 10.80
4529 11.2540 102.70 111.87 10.30
4530 11.2560 112.10 111.40 10.70
4531 11.2580 100.00 111.00 10.00
4532 11.2600 108.50 110.65 10.40
4533 11.2620 94.60 110.34 9.80
4534 11.2640 95.10 110.08 9.90
4535 11.2660 125.90 109.85 11.40
4536 11.2680 125.50 109.65 11.20
4537 11.2700 113.20 109.48 10.70
4538 11.2720 107.60 109.32 10.40
4539 11.2740 93.40 109.19 9.80
4540 11.2760 109.50 109.08 10.60
4541 11.2780 117.20 108.98 10.80
4542 11.2800 136.40 108.90 11.70
4543 11.2820 107.50 108.83 10.40
4544 11.2840 98.50 108.77 10.00
4545 11.2860 101.00 108.72 10.20
4546 11.2880 100.50 108.69 10.00
4547 11.2900 116.50 108.66 10.80
4548 11.2920 114.30 108.64 10.70
4549 11.2940 95.90 108.63 9.90
4550 11.2960 122.80 108.63 11.20
4551 11.2980 110.40 108.64 10.50
4552 11.3000 118.70 108.65 10.90
4553 11.3020 100.80 108.68 10.00
4554 11.3040 123.20 108.71 11.20
4555 11.3060 120.40 108.75 11.10
4556 11.3080 98.60 108.80 9.90
4557 11.3100 121.70 108.85 11.10
4558 11.3120 116.00 108.92 10.80
4559 11.3140 82.10 109.00 9.20
4560 11.3160 112.00 109.08 10.70
4561 11.3180 122.80 109.18 11.10
4562 11.3200 107.60 109.29 10.40
4563 11.3220 106.50 109.41 10.30
4564 11.3240 111.30 110.25 10.70
4565 11.3260 118.30 110.42 11.00
4566 11.3280 93.60 110.61 9.70
4567 11.3300 114.40 110.83 10.70
4568 11.3320 126.20 111.07 11.30
4569 11.3340 122.40 111.33 11.20
4570 11.3360 110.90 111.64 10.70
4571 11.3380 104.10 111.98 10.20
4572 11.3400 108.90 112.38 10.50
4573 11.3420 92.30 112.83 9.60
4574 11.3440 116.00 113.37 10.90
4575 11.3460 120.40 113.99 11.20
4576 11.3480 121.00 114.75 11.10
4577 11.3500 121.20 115.66 11.00
4578 11.3520 111.20 116.79 10.50
4579 11.3540 130.90 118.23 11.60
4580 11.3560 136.90 120.09 11.90
4581 11.3580 127.60 122.51 11.30
4582 11.3600 148.70 125.70 12.20
4583 11.3620 122.30 129.83 11.10
4584 11.3640 144.30 134.96 12.20
4585 11.3660 163.00 140.81 13.00
4586 11.3680 166.40 146.32 13.00
4587 11.3700 146.00 149.77 12.20
4588 11.3720 163.80 150.03 12.80
4589 11.3740 152.20 147.95 12.50
4590 11.3760 149.80 145.48 12.50
4591 11.3780 169.20 144.15 13.10
4592 11.3800 147.00 144.67 12.20
4593 11.3820 152.30 147.24 12.30
4594 11.3840 182.50 151.79 13.70
4595 11.3860 160.70 157.75 12.90
4596 11.3880 167.40 163.99 12.90
4597 11.3900 178.60 169.25 13.40
4598 11.3920 170.60 173.65 13.10
4599 11.3940 168.90 179.11 13.10
4600 11.3960 204.40 187.93 14.60
4601 11.3980 208.80 201.49 14.50
4602 11.4000 214.20 219.57 14.70
4603 11.4020 210.10 239.14 14.40
4604 11.4040 215.20 253.36 14.90
4605 11.4060 198.70 254.45 14.30
4606 11.4080 194.60 241.00 14.00
4607 11.4100 208.60 219.59 14.50
4608 11.4120 186.70 197.80 13.70
4609 11.4140 170.80 179.50 13.10
4610 11.4160 190.20 165.51 14.00
4611 11.4180 171.30 155.36 13.10
4612 11.4200 165.00 148.30 12.90
4613 11.4220 178.40 143.62 13.40
4614 11.4240 176.00 140.76 13.40
4615 11.4260 164.60 139.28 13.00
4616 11.4280 172.50 138.69 13.20
4617 11.4300 158.00 138.43 12.60
4618 11.4320 165.50 137.97 12.90
4619 11.4340 170.10 137.20 13.10
4620 11.4360 136.00 136.49 11.80
4621 11.4380 161.00 136.29 12.70
4622 11.4400 162.90 136.89 12.80
4623 11.4420 166.40 138.45 12.90
4624 11.4440 155.70 141.15 12.60
4625 11.4460 191.00 145.27 14.00
4626 11.4480 183.60 151.20 13.60
4627 11.4500 190.00 159.50 13.90
4628 11.4520 186.50 170.83 13.60
4629 11.4540 200.90 185.90 14.30
4630 11.4560 202.20 205.04 14.40
4631 11.4580 230.30 227.82 15.20
4632 11.4600 262.00 254.60 16.20
4633 11.4620 318.00 295.57 17.90
4634 11.4640 449.90 394.11 21.40
4635 11.4660 724.40 637.39 27.40
4636 11.4680 1119.20 1006.12 33.50
4637 11.4700 1201.90 1067.81 35.00
4638 11.4720 727.80 684.56 27.00
4639 11.4740 459.10 407.34 21.60
4640 11.4760 327.50 299.54 18.30
4641 11.4780 275.60 264.52 16.60
4642 11.4800 259.00 248.29 16.20
4643 11.4820 224.60 232.73 15.00
4644 11.4840 203.90 214.44 14.40
4645 11.4860 196.30 196.06 14.30
4646 11.4880 195.90 180.35 14.00
4647 11.4900 164.90 168.25 12.80
4648 11.4920 197.90 159.55 14.10
4649 11.4940 186.80 153.73 13.70
4650 11.4960 162.30 150.31 12.90
4651 11.4980 197.50 148.99 14.10
4652 11.5000 179.20 149.70 13.40
4653 11.5020 202.40 152.58 14.30
4654 11.5040 173.30 157.98 13.30
4655 11.5060 201.90 166.42 14.40
4656 11.5080 211.10 178.37 14.50
4657 11.5100 199.90 193.75 14.20
4658 11.5120 205.50 210.77 14.30
4659 11.5140 232.70 224.60 15.30
4660 11.5160 230.10 228.59 15.30
4661 11.5180 230.80 219.97 15.20
4662 11.5200 209.00 203.07 14.50
4663 11.5220 208.40 184.54 14.40
4664 11.5240 166.20 168.35 12.90
4665 11.5260 141.70 155.57 12.10
4666 11.5280 172.80 145.92 13.10
4667 11.5300 172.70 138.78 13.20
4668 11.5320 148.80 133.50 12.20
4669 11.5340 146.80 129.57 12.20
4670 11.5360 141.70 126.58 12.10
4671 11.5380 128.30 124.27 11.30
4672 11.5400 129.10 122.45 11.40
4673 11.5420 139.20 120.98 11.80
4674 11.5440 130.30 119.77 11.50
4675 11.5460 139.40 118.78 12.00
4676 11.5480 122.40 117.95 11.00
4677 11.5500 137.20 117.25 11.80
4678 11.5520 125.20 116.65 11.20
4679 11.5540 130.30 116.15 11.40
4680 11.5560 133.90 115.72 11.70
4681 11.5580 126.00 115.36 11.30
4682 11.5600 127.40 115.05 11.30
4683 11.5620 128.60 114.79 11.40
4684 11.5640 115.20 114.57 10.80
4685 11.5660 109.30 114.39 10.60
4686 11.5680 117.10 114.24 10.80
4687 11.5700 117.50 114.13 10.90
4688 11.5720 122.10 114.04 11.10
4689 11.5740 123.30 113.99 11.10
4690 11.5760 147.90 113.97 12.30
4691 11.5780 137.80 113.97 11.80
4692 11.5800 120.30 114.00 10.90
4693 11.5820 137.70 114.07 11.70
4694 11.5840 127.70 114.17 11.40
4695 11.5860 121.50 114.30 11.20
4696 11.5880 112.60 114.47 10.60
4697 11.5900 117.20 114.69 10.80
4698 11.5920 133.80 114.96 11.60
4699 11.5940 126.70 115.29 11.30
4700 11.5960 132.20 115.68 11.70
4701 11.5980 135.40 116.17 11.60
4702 11.6000 143.20 116.75 12.00
4703 11.6020 125.80 117.45 11.20
4704 11.6040 135.90 118.31 11.60
4705 11.6060 150.70 119.36 12.50
4706 11.6080 135.60 120.66 11.60
4707 11.6100 127.40 122.31 11.30
4708 11.6120 144.30 124.41 12.00
4709 11.6140 142.50 127.16 12.00
4710 11.6160 168.80 130.81 13.10
4711 11.6180 151.90 135.51 12.40
4712 11.6200 149.20 142.29 12.20
4713 11.6220 185.70 151.53 13.70
4714 11.6240 192.90 163.94 13.90
4715 11.6260 182.10 179.91 13.80
4716 11.6280 197.00 198.65 14.00
4717 11.6300 208.40 216.85 14.40
4718 11.6320 228.10 227.84 15.10
4719 11.6340 234.30 225.76 15.30
4720 11.6360 199.30 211.73 14.30
4721 11.6380 213.40 192.64 14.70
4722 11.6400 182.80 174.43 13.50
4723 11.6420 199.10 159.54 14.10
4724 11.6440 168.60 148.18 13.00
4725 11.6460 177.50 139.78 13.50
4726 11.6480 175.40 133.64 13.20
4727 11.6500 137.30 129.13 11.70
4728 11.6520 145.60 125.78 12.10
4729 11.6540 175.40 123.25 13.20
4730 11.6560 151.00 121.29 12.50
4731 11.6580 139.60 119.74 11.80
4732 11.6600 143.80 118.49 12.00
4733 11.6620 131.30 117.48 11.40
4734 11.6640 154.10 116.64 12.50
4735 11.6660 137.40 115.95 11.90
4736 11.6680 134.10 115.37 11.60
4737 11.6700 143.90 114.88 12.00
4738 11.6720 126.10 114.46 11.30
4739 11.6740 142.00 114.11 12.00
4740 11.6760 143.20 113.80 12.10
4741 11.6780 144.10 113.54 12.00
4742 11.6800 133.50 124.19 11.60
4743 11.6820 133.50 124.29 11.50
4744 11.6840 127.50 124.42 11.30
4745 11.6860 136.60 124.60 11.80
4746 11.6880 146.80 124.81 12.20
4747 11.6900 132.30 125.06 11.50
4748 11.6920 135.70 125.33 11.70
4749 11.6940 147.60 125.64 12.10
4750 11.6960 133.40 125.98 11.70
4751 11.6980 145.30 126.36 12.10
4752 11.7000 147.50 126.77 12.10
4753 11.7020 139.20 127.21 11.80
4754 11.7040 139.80 127.69 11.80
4755 11.7060 132.60 128.21 11.70
4756 11.7080 134.70 128.76 11.60
4757 11.7100 148.80 129.37 12.20
4758 11.7120 147.90 130.04 12.10
4759 11.7140 149.30 130.74 12.20
4760 11.7160 151.00 131.50 12.40
4761 11.7180 142.30 132.32 11.90
4762 11.7200 160.70 133.22 12.70
4763 11.7220 162.50 134.19 12.70
4764 11.7240 153.50 135.26 12.40
4765 11.7260 150.70 136.45 12.50
4766 11.7280 124.60 137.78 11.20
4767 11.7300 136.20 139.27 11.70
4768 11.7320 166.40 140.99 12.90
4769 11.7340 165.80 143.00 12.90
4770 11.7360 176.80 145.41 13.50
4771 11.7380 171.40 148.35 13.10
4772 11.7400 175.20 152.02 13.20
4773 11.7420 179.20 156.64 13.40
4774 11.7440 180.50 162.44 13.50
4775 11.7460 174.20 169.47 13.40
4776 11.7480 182.40 177.29 13.50
4777 11.7500 162.30 184.41 12.80
4778 11.7520 171.70 188.57 13.10
4779 11.7540 196.90 188.49 14.00
4780 11.7560 201.00 185.39 14.40
4781 11.7580 178.40 181.64 13.40
4782 11.7600 180.80 178.78 13.50
4783 11.7620 185.30 177.29 13.60
4784 11.7640 193.40 177.15 13.90
4785 11.7660 183.30 178.17 13.70
4786 11.7680 191.90 180.17 13.90
4787 11.7700 205.60 183.01 14.40
4788 11.7720 203.20 186.60 14.30
4789 11.7740 215.00 190.90 14.70
4790 11.7760 177.80 195.93 13.50
4791 11.7780 226.10 201.74 15.10
4792 11.7800 207.20 208.38 14.40
4793 11.7820 208.20 215.99 14.50
4794 11.7840 239.60 224.69 15.50
4795 11.7860 242.90 234.71 15.90
4796 11.7880 241.30 246.29 15.60
4797 11.7900 277.10 259.79 16.70
4798 11.7920 267.00 275.66 16.30
4799 11.7940 259.50 294.49 16.20
4800 11.7960 324.90 317.06 18.30
4801 11.7980 337.10 344.35 18.50
4802 11.8000 350.50 377.52 18.70
4803 11.8020 434.10 417.67 20.90
4804 11.8040 398.00 465.54 20.00
4805 11.8060 421.20 521.22 20.80
4806 11.8080 512.20 585.70 22.70
4807 11.8100 603.60 662.60 24.70
4808 11.8120 700.70 757.39 26.50
4809 11.8140 800.40 876.12 28.40
4810 11.8160 1007.50 1029.32 32.50
4811 11.8180 1350.10 1240.09 37.00
4812 11.8200 1806.30 1551.79 42.90
4813 11.8220 2597.90 2041.76 51.90
4814 11.8240 3826.70 2879.40 63.20
4815 11.8260 5926.90 4560.84 81.00
4816 11.8280 9721.00 8567.42 105.10
4817 11.8300 17106.50 17712.10 145.50
4818 11.8320 30461.60 31553.90 206.30
4819 11.8340 36813.90 35628.00 234.00
4820 11.8360 21253.60 22171.20 166.80
4821 11.8380 10348.60 10653.80 108.90
4822 11.8400 5182.20 5358.57 74.10
4823 11.8420 3081.30 3219.15 56.50
4824 11.8440 1920.10 2207.64 44.50
4825 11.8460 1344.90 1625.90 37.60
4826 11.8480 975.30 1255.35 31.50
4827 11.8500 769.20 1004.92 27.90
4828 11.8520 648.60 828.04 25.70
4829 11.8540 555.90 698.73 23.60
4830 11.8560 453.50 601.30 21.60
4831 11.8580 447.30 526.23 21.30
4832 11.8600 389.80 467.13 19.70
4833 11.8620 361.40 419.77 19.00
4834 11.8640 318.60 381.27 17.90
4835 11.8660 329.40 349.52 18.50
4836 11.8680 272.40 323.07 16.50
4837 11.8700 280.50 300.77 16.70
4838 11.8720 282.70 281.79 16.90
4839 11.8740 251.00 265.55 15.80
4840 11.8760 224.20 251.51 15.20
4841 11.8780 234.30 239.31 15.30
4842 11.8800 222.70 228.64 15.00
4843 11.8820 206.50 219.24 14.40
4844 11.8840 209.70 210.93 14.50
4845 11.8860 221.80 203.54 15.10
4846 11.8880 198.90 196.95 14.20
4847 11.8900 207.90 191.04 14.40
4848 11.8920 202.50 185.69 14.30
4849 11.8940 211.50 180.89 14.50
4850 11.8960 178.60 176.54 13.60
4851 11.8980 179.40 172.58 13.40
4852 11.9000 185.30 168.98 13.60
4853 11.9020 185.50 165.69 13.60
4854 11.9040 150.50 162.67 12.30
4855 11.9060 177.30 159.90 13.50
4856 11.9080 164.80 157.35 12.90
4857 11.9100 165.20 155.00 12.90
4858 11.9120 171.30 152.82 13.10
4859 11.9140 187.30 150.81 13.60
4860 11.9160 165.80 148.94 13.10
4861 11.9180 174.50 147.20 13.20
4862 11.9200 178.30 145.59 13.30
4863 11.9220 179.30 144.08 13.40
4864 11.9240 146.70 142.67 12.00
4865 11.9260 163.50 141.32 13.00
4866 11.9280 159.70 140.09 12.60
4867 11.9300 149.60 138.96 12.20
4868 11.9320 162.90 137.87 12.80
4869 11.9340 130.10 136.86 11.40
4870 11.9360 147.00 135.90 12.30
4871 11.9380 158.40 135.00 12.50
4872 11.9400 171.40 134.15 13.10
4873 11.9420 145.50 133.35 12.10
4874 11.9440 164.20 132.60 12.80
4875 11.9460 141.80 131.89 12.10
4876 11.9480 148.50 131.21 12.20
4877 11.9500 157.90 130.58 12.60
4878 11.9520 160.70 129.97 12.70
4879 11.9540 149.10 129.40 12.20
4880 11.9560 124.00 128.86 11.30
4881 11.9580 167.70 128.35 12.90
4882 11.9600 143.60 127.87 11.90
4883 11.9620 146.20 127.41 12.10
4884 11.9640 131.00 126.97 11.50
4885 11.9660 149.70 126.56 12.40
4886 11.9680 140.90 126.17 11.90
4887 11.9700 131.60 125.80 11.50
4888 11.9720 143.40 125.46 12.00
4889 11.9740 138.20 125.12 11.70
4890 11.9760 116.70 124.81 11.00
4891 11.9780 144.40 124.52 12.00
4892 11.9800 156.40 124.24 12.50
4893 11.9820 142.10 123.98 12.00
4894 11.9840 144.40 123.73 12.00
4895 11.9860 134.10 123.50 11.80
4896 11.9880 137.10 123.31 11.70
4897 11.9900 153.40 123.11 12.40
4898 11.9920 151.20 112.83 12.30
4899 11.9940 136.40 112.92 11.70
4900 11.9960 145.30 113.00 12.30
4901 11.9980 151.70 113.10 12.30
4902 12.0000 143.50 113.20 12.00
4903 12.0020 146.20 113.31 12.10
4904 12.0040 145.90 113.43 12.10
4905 12.0060 154.40 113.57 12.60
4906 12.0080 153.00 113.71 12.40
4907 12.0100 129.20 113.87 11.40
4908 12.0120 142.10 114.04 11.90
4909 12.0140 144.70 114.23 12.10
4910 12.0160 158.50 114.44 12.80
4911 12.0180 155.20 114.67 12.50
4912 12.0200 150.20 114.93 12.20
4913 12.0220 133.60 115.23 11.60
4914 12.0240 148.50 115.56 12.20
4915 12.0260 137.50 115.93 11.90
4916 12.0280 136.40 116.36 11.70
4917 12.0300 151.80 116.85 12.30
4918 12.0320 151.30 117.41 12.30
4919 12.0340 148.20 118.07 12.20
4920 12.0360 158.00 118.84 12.70
4921 12.0380 141.20 119.76 11.90
4922 12.0400 145.80 120.86 12.10
4923 12.0420 159.40 122.15 12.70
4924 12.0440 163.50 123.79 12.80
4925 12.0460 133.90 125.86 11.80
4926 12.0480 168.60 128.49 13.00
4927 12.0500 164.10 131.95 12.80
4928 12.0520 166.50 136.57 13.00
4929 12.0540 183.20 142.86 13.50
4930 12.0560 174.30 151.46 13.40
4931 12.0580 195.60 163.13 14.00
4932 12.0600 211.80 178.56 14.60
4933 12.0620 197.50 197.74 14.00
4934 12.0640 205.70 218.49 14.40
4935 12.0660 220.60 234.94 15.10
4936 12.0680 232.30 239.32 15.20
4937 12.0700 195.60 229.06 14.00
4938 12.0720 190.80 209.98 13.80
4939 12.0740 187.60 189.81 13.70
4940 12.0760 175.50 172.70 13.40
4941 12.0780 169.40 159.57 13.00
4942 12.0800 173.40 149.99 13.20
4943 12.0820 178.80 143.20 13.40
4944 12.0840 165.00 138.50 12.80
4945 12.0860 184.20 135.34 13.80
4946 12.0880 171.90 133.33 13.10
4947 12.0900 163.20 132.24 12.80
4948 12.0920 171.60 131.96 13.20
4949 12.0940 155.80 132.48 12.50
4950 12.0960 179.90 133.89 13.60
4951 12.0980 175.20 136.41 13.20
4952 12.1000 194.00 140.37 13.90
4953 12.1020 162.20 146.20 12.80
4954 12.1040 167.70 154.40 12.90
4955 12.1060 187.70 165.32 13.90
4956 12.1080 197.80 178.54 14.00
4957 12.1100 228.60 191.72 15.00
4958 12.1120 222.90 200.06 15.00
4959 12.1140 210.40 198.93 14.50
4960 12.1160 212.70 188.78 14.80
4961 12.1180 185.80 174.64 13.60
4962 12.1200 172.40 161.08 13.10
4963 12.1220 167.80 149.98 13.00
4964 12.1240 170.90 141.51 13.10
4965 12.1260 148.40 135.24 12.40
4966 12.1280 151.20 130.65 12.20
4967 12.1300 152.90 127.26 12.30
4968 12.1320 125.50 124.74 11.20
4969 12.1340 138.60 122.81 11.80
4970 12.1360 118.50 121.31 11.10
4971 12.1380 138.50 120.11 11.70
4972 12.1400 108.90 119.14 10.40
4973 12.1420 125.90 118.34 11.30
4974 12.1440 112.30 117.67 10.60
4975 12.1460 119.00 117.11 11.10
4976 12.1480 112.70 116.63 10.60
4977 12.1500 139.00 116.22 11.80
4978 12.1520 129.80 115.87 11.40
4979 12.1540 117.60 115.56 10.80
4980 12.1560 117.00 115.29 10.90
4981 12.1580 124.00 115.05 11.10
4982 12.1600 128.20 114.83 11.30
4983 12.1620 130.50 114.65 11.50
4984 12.1640 114.40 114.48 10.70
4985 12.1660 111.10 114.33 10.70
4986 12.1680 115.70 114.20 10.80
4987 12.1700 123.20 114.08 11.10
4988 12.1720 113.60 113.98 10.70
4989 12.1740 107.70 113.88 10.40
4990 12.1760 123.90 113.79 11.30
4991 12.1780 124.20 113.71 11.10
4992 12.1800 113.50 113.64 10.70
4993 12.1820 112.40 113.58 10.60
4994 12.1840 116.00 113.52 10.80
4995 12.1860 122.90 113.46 11.30
4996 12.1880 134.20 113.42 11.60
4997 12.1900 117.80 113.37 10.90
4998 12.1920 96.50 113.33 9.90
4999 12.1940 92.70 113.29 9.70
5000 12.1960 118.90 113.26 11.10
5001 12.1980 115.20 113.23 10.80
5002 12.2000 114.20 113.21 10.70
5003 12.2020 132.60 113.18 11.50
5004 12.2040 113.60 113.16 10.70
5005 12.2060 113.70 113.14 10.90
5006 12.2080 101.30 113.13 10.10
5007 12.2100 106.30 113.11 10.30
5008 12.2120 114.50 113.10 10.80
5009 12.2140 101.90 113.08 10.10
5010 12.2160 121.40 113.07 11.20
5011 12.2180 119.30 113.06 10.90
5012 12.2200 112.40 113.06 10.60
5013 12.2220 134.80 113.03 11.70
5014 12.2240 117.30 113.03 10.90
5015 12.2260 129.10 113.04 11.60
5016 12.2280 113.40 113.04 10.70
5017 12.2300 108.60 113.04 10.40
5018 12.2320 116.00 113.05 10.90
5019 12.2340 128.70 113.06 11.40
5020 12.2360 111.20 113.07 10.70
5021 12.2380 111.40 113.08 10.60
5022 12.2400 113.10 113.10 10.60
5023 12.2420 108.40 113.12 10.40
5024 12.2440 111.50 117.81 10.60
5025 12.2460 137.00 117.96 11.90
5026 12.2480 119.40 118.11 10.90
5027 12.2500 113.30 118.27 10.70
5028 12.2520 124.00 118.44 11.20
5029 12.2540 118.40 118.62 10.90
5030 12.2560 118.70 118.82 11.00
5031 12.2580 126.10 119.01 11.20
5032 12.2600 122.80 119.23 11.20
5033 12.2620 131.20 119.45 11.50
5034 12.2640 149.10 119.69 12.30
5035 12.2660 139.50 119.94 12.00
5036 12.2680 117.70 120.21 10.80
5037 12.2700 129.30 120.49 11.40
5038 12.2720 112.70 120.79 10.70
5039 12.2740 123.50 121.11 11.20
5040 12.2760 144.50 121.46 12.20
5041 12.2780 116.10 121.83 10.80
5042 12.2800 137.80 122.22 11.70
5043 12.2820 118.50 122.65 11.00
5044 12.2840 121.20 123.12 11.00
5045 12.2860 128.20 123.62 11.50
5046 12.2880 138.40 124.17 11.80
5047 12.2900 145.10 124.77 12.00
5048 12.2920 133.90 125.43 11.60
5049 12.2940 105.20 126.16 10.40
5050 12.2960 153.70 126.98 12.50
5051 12.2980 139.70 127.90 11.90
5052 12.3000 133.40 128.96 11.50
5053 12.3020 147.70 130.17 12.20
5054 12.3040 132.50 131.60 11.50
5055 12.3060 169.60 133.30 13.30
5056 12.3080 131.70 135.38 11.50
5057 12.3100 138.60 137.99 11.70
5058 12.3120 139.10 141.34 11.80
5059 12.3140 145.70 145.73 12.10
5060 12.3160 119.70 151.51 11.10
5061 12.3180 161.20 159.08 12.70
5062 12.3200 154.50 168.61 12.40
5063 12.3220 169.90 179.57 13.10
5064 12.3240 153.10 189.84 12.40
5065 12.3260 157.50 195.64 12.70
5066 12.3280 174.80 194.35 13.20
5067 12.3300 164.30 187.53 12.80
5068 12.3320 157.80 179.13 12.70
5069 12.3340 140.50 171.90 11.90
5070 12.3360 152.30 166.73 12.50
5071 12.3380 158.70 163.57 12.60
5072 12.3400 158.30 162.09 12.60
5073 12.3420 181.50 161.96 13.50
5074 12.3440 164.80 162.91 12.80
5075 12.3460 159.10 164.76 12.80
5076 12.3480 149.60 167.41 12.20
5077 12.3500 149.40 170.85 12.20
5078 12.3520 173.90 175.08 13.20
5079 12.3540 155.10 180.19 12.50
5080 12.3560 177.00 186.28 13.40
5081 12.3580 171.30 193.54 13.10
5082 12.3600 216.80 202.18 14.60
5083 12.3620 193.20 212.53 14.00
5084 12.3640 203.00 225.00 14.20
5085 12.3660 225.50 240.21 15.20
5086 12.3680 227.60 258.94 15.00
5087 12.3700 225.30 282.38 15.00
5088 12.3720 232.60 312.10 15.30
5089 12.3740 279.00 350.45 16.70
5090 12.3760 292.20 400.78 17.30
5091 12.3780 353.90 467.86 18.70
5092 12.3800 411.30 558.74 20.20
5093 12.3820 517.10 683.89 22.70
5094 12.3840 617.50 861.79 24.90
5095 12.3860 886.20 1133.83 30.00
5096 12.3880 1396.90 1616.74 37.40
5097 12.3900 2572.80 2685.36 51.10
5098 12.3920 5161.80 5318.02 74.50
5099 12.3940 11056.30 10609.40 111.90
5100 12.3960 16501.90 15784.70 143.30
5101 12.3980 11955.40 12900.90 116.80
5102 12.4000 6548.10 6676.68 83.60
5103 12.4020 3844.80 3208.05 63.40
5104 12.4040 2343.70 1792.52 49.00
5105 12.4060 1587.20 1188.33 40.60
5106 12.4080 1111.10 868.27 33.10
5107 12.4100 793.20 672.22 28.10
5108 12.4120 598.80 543.26 24.60
5109 12.4140 491.80 454.02 22.20
5110 12.4160 351.60 389.77 18.90
5111 12.4180 306.10 342.05 17.40
5112 12.4200 232.30 305.66 15.10
5113 12.4220 249.60 277.25 15.90
5114 12.4240 202.40 254.70 14.20
5115 12.4260 190.70 236.47 14.00
5116 12.4280 206.50 221.55 14.20
5117 12.4300 168.30 209.17 12.90
5118 12.4320 162.00 198.78 12.80
5119 12.4340 190.00 189.99 13.80
5120 12.4360 161.60 182.48 12.90
5121 12.4380 172.90 176.02 13.00
5122 12.4400 156.00 170.42 12.40
5123 12.4420 147.50 165.53 12.10
5124 12.4440 152.30 161.24 12.40
5125 12.4460 175.90 157.45 13.40
5126 12.4480 145.10 154.09 11.90
5127 12.4500 144.70 151.10 12.00
5128 12.4520 156.90 148.42 12.50
5129 12.4540 153.20 146.01 12.40
5130 12.4560 170.40 143.84 13.20
5131 12.4580 163.00 141.88 12.60
5132 12.4600 143.70 140.10 11.90
5133 12.4620 124.80 138.48 11.20
5134 12.4640 134.80 137.00 11.60
5135 12.4660 140.20 135.65 12.00
5136 12.4680 134.00 134.41 11.50
5137 12.4700 133.80 133.22 11.50
5138 12.4720 126.50 132.17 11.30
5139 12.4740 138.60 131.20 11.80
5140 12.4760 141.70 130.30 12.00
5141 12.4780 145.20 129.47 11.90
5142 12.4800 120.10 128.70 10.90
5143 12.4820 126.20 127.98 11.20
5144 12.4840 129.90 127.31 11.50
5145 12.4860 126.00 126.69 11.40
5146 12.4880 142.20 126.11 11.80
5147 12.4900 137.10 125.56 11.80
5148 12.4920 123.00 125.05 11.10
5149 12.4940 132.10 124.58 11.50
5150 12.4960 119.60 124.13 11.10
5151 12.4980 116.60 123.71 10.70
5152 12.5000 113.50 123.32 10.70
5153 12.5020 117.30 122.95 10.80
5154 12.5040 123.00 122.61 11.20
5155 12.5060 135.90 122.28 11.80
5156 12.5080 127.90 121.97 11.20
5157 12.5100 124.70 121.69 11.20
5158 12.5120 137.40 121.42 11.70
5159 12.5140 130.00 121.17 11.50
5160 12.5160 133.60 120.93 11.70
5161 12.5180 116.30 120.68 10.70
5162 12.5200 120.40 120.48 11.00
5163 12.5220 121.90 120.29 11.10
5164 12.5240 136.50 120.11 11.80
5165 12.5260 119.00 119.95 11.10
5166 12.5280 126.20 119.80 11.20
5167 12.5300 115.50 119.66 10.80
5168 12.5320 106.00 119.54 10.30
5169 12.5340 113.50 119.49 10.80
5170 12.5360 128.20 119.40 11.50
5171 12.5380 114.60 119.33 10.70
5172 12.5400 114.00 119.27 10.70
5173 12.5420 114.10 119.24 10.70
5174 12.5440 117.20 119.23 11.00
5175 12.5460 133.70 119.25 11.70
5176 12.5480 109.80 119.30 10.50
5177 12.5500 119.00 119.39 11.00
5178 12.5520 130.80 115.08 11.50
5179 12.5540 133.00 115.39 11.60
5180 12.5560 117.80 115.79 11.00
5181 12.5580 125.60 116.29 11.20
5182 12.5600 131.00 116.94 11.50
5183 12.5620 123.50 117.81 11.20
5184 12.5640 115.50 118.97 10.80
5185 12.5660 123.40 120.51 11.30
5186 12.5680 126.20 122.49 11.30
5187 12.5700 147.20 124.85 12.20
5188 12.5720 124.10 127.23 11.20
5189 12.5740 150.30 128.91 12.40
5190 12.5760 111.80 129.30 10.70
5191 12.5780 131.60 128.64 11.50
5192 12.5800 135.90 127.74 11.70
5193 12.5820 143.30 127.23 12.00
5194 12.5840 134.90 127.36 11.70
5195 12.5860 123.60 128.35 11.30
5196 12.5880 123.20 130.43 11.10
5197 12.5900 139.80 133.88 11.90
5198 12.5920 145.00 138.84 12.10
5199 12.5940 127.30 145.11 11.40
5200 12.5960 164.70 151.52 13.00
5201 12.5980 169.60 155.60 13.00
5202 12.6000 159.40 154.93 12.70
5203 12.6020 147.80 149.77 12.20
5204 12.6040 138.20 142.74 11.90
5205 12.6060 161.50 136.08 12.90
5206 12.6080 147.60 130.71 12.10
5207 12.6100 136.50 126.65 11.80
5208 12.6120 131.70 123.68 11.50
5209 12.6140 129.70 121.53 11.50
5210 12.6160 114.60 119.95 10.90
5211 12.6180 112.80 118.79 10.70
5212 12.6200 118.80 117.91 10.90
5213 12.6220 118.60 117.23 11.00
5214 12.6240 102.00 116.70 10.20
5215 12.6260 118.90 116.28 11.10
5216 12.6280 111.10 115.94 10.50
5217 12.6300 123.50 115.67 11.20
5218 12.6320 128.60 115.45 11.40
5219 12.6340 110.20 115.28 10.60
5220 12.6360 116.00 115.14 10.90
5221 12.6380 121.50 115.04 11.00
5222 12.6400 108.20 114.96 10.40
5223 12.6420 103.40 114.92 10.20
5224 12.6440 119.10 114.90 11.00
5225 12.6460 110.30 114.90 10.70
5226 12.6480 108.30 114.94 10.40
5227 12.6500 111.10 115.01 10.60
5228 12.6520 120.90 115.12 11.00
5229 12.6540 98.40 115.27 10.00
5230 12.6560 100.90 115.49 10.20
5231 12.6580 126.60 115.80 11.20
5232 12.6600 114.80 116.22 10.70
5233 12.6620 108.50 116.82 10.50
5234 12.6640 96.40 117.63 9.80
5235 12.6660 108.10 118.74 10.50
5236 12.6680 115.90 120.18 10.80
5237 12.6700 106.30 121.89 10.30
5238 12.6720 119.90 123.58 11.00
5239 12.6740 106.90 124.64 10.40
5240 12.6760 131.80 124.60 11.60
5241 12.6780 125.30 123.64 11.10
5242 12.6800 98.80 122.45 9.90
5243 12.6820 111.30 121.55 10.60
5244 12.6840 110.40 121.17 10.50
5245 12.6860 126.70 121.37 11.50
5246 12.6880 119.00 122.12 10.90
5247 12.6900 99.00 123.35 9.90
5248 12.6920 106.40 124.78 10.30
5249 12.6940 94.40 125.93 9.80
5250 12.6960 125.20 126.52 11.30
5251 12.6980 117.90 126.79 10.80
5252 12.7000 119.80 127.30 10.90
5253 12.7020 106.20 128.30 10.40
5254 12.7040 105.40 129.46 10.30
5255 12.7060 109.70 129.89 10.60
5256 12.7080 109.30 128.86 10.40
5257 12.7100 115.00 126.61 10.70
5258 12.7120 121.70 124.02 11.10
5259 12.7140 107.00 121.73 10.40
5260 12.7160 105.40 119.93 10.40
5261 12.7180 119.40 118.58 10.90
5262 12.7200 100.30 117.61 10.00
5263 12.7220 109.90 116.90 10.50
5264 12.7240 108.40 116.40 10.40
5265 12.7260 115.00 116.01 10.90
5266 12.7280 102.00 115.75 10.00
5267 12.7300 100.20 115.56 10.00
5268 12.7320 104.70 115.43 10.30
5269 12.7340 121.50 115.35 11.10
5270 12.7360 113.60 115.30 10.80
5271 12.7380 103.70 115.29 10.20
5272 12.7400 105.90 115.32 10.20
5273 12.7420 104.40 115.37 10.20
5274 12.7440 107.30 115.46 10.40
5275 12.7460 112.00 115.57 10.80
5276 12.7480 89.40 115.73 9.50
5277 12.7500 103.90 115.92 10.20
5278 12.7520 110.80 116.16 10.60
5279 12.7540 132.50 116.45 11.50
5280 12.7560 106.10 116.81 10.40
5281 12.7580 105.30 117.24 10.30
5282 12.7600 123.00 117.77 11.10
5283 12.7620 134.40 118.42 11.60
5284 12.7640 113.00 119.24 10.70
5285 12.7660 127.70 120.26 11.50
5286 12.7680 139.30 121.58 11.70
5287 12.7700 128.20 123.31 11.30
5288 12.7720 126.40 125.61 11.30
5289 12.7740 118.70 128.77 10.90
5290 12.7760 114.40 133.11 10.90
5291 12.7780 115.20 139.11 10.70
5292 12.7800 123.40 147.25 11.10
5293 12.7820 161.20 157.81 12.80
5294 12.7840 154.90 170.21 12.50
5295 12.7860 137.20 181.89 11.90
5296 12.7880 137.00 188.00 11.70
5297 12.7900 165.60 184.95 12.80
5298 12.7920 142.50 174.55 12.00
5299 12.7940 146.90 161.89 12.20
5300 12.7960 154.00 150.51 12.60
5301 12.7980 130.80 141.55 11.40
5302 12.8000 125.30 134.87 11.20
5303 12.8020 134.50 130.01 11.60
5304 12.8040 151.10 126.50 12.30
5305 12.8060 142.20 123.93 12.10
5306 12.8080 130.10 122.02 11.40
5307 12.8100 106.20 120.57 10.30
5308 12.8120 143.50 119.45 12.00
5309 12.8140 128.00 118.56 11.30
5310 12.8160 126.90 117.85 11.40
5311 12.8180 117.30 117.27 10.80
5312 12.8200 123.40 116.79 11.10
5313 12.8220 126.70 116.39 11.30
5314 12.8240 96.50 116.06 9.90
5315 12.8260 121.00 115.78 11.20
5316 12.8280 107.30 115.54 10.30
5317 12.8300 116.30 115.34 10.80
5318 12.8320 106.80 115.18 10.40
5319 12.8340 108.70 115.03 10.50
5320 12.8360 114.50 114.92 10.90
5321 12.8380 99.60 114.82 9.90
5322 12.8400 103.80 114.74 10.10
5323 12.8420 92.30 114.67 9.60
5324 12.8440 97.60 114.62 9.90
5325 12.8460 112.20 114.58 10.70
5326 12.8480 101.30 114.56 10.00
5327 12.8500 97.10 114.54 9.80
5328 12.8520 98.00 114.54 9.90
5329 12.8540 107.90 114.55 10.40
5330 12.8560 103.60 114.57 10.40
5331 12.8580 99.60 114.60 9.90
5332 12.8600 118.20 114.64 10.80
5333 12.8620 97.40 114.70 9.90
5334 12.8640 95.70 114.82 9.80
5335 12.8660 115.60 114.90 10.90
5336 12.8680 116.00 115.00 10.70
5337 12.8700 91.00 115.12 9.50
5338 12.8720 94.60 115.25 9.70
5339 12.8740 104.50 115.41 10.30
5340 12.8760 88.00 115.59 9.50
5341 12.8780 115.90 115.80 10.60
5342 12.8800 107.10 116.04 10.30
5343 12.8820 103.90 116.32 10.20
5344 12.8840 115.50 116.64 10.80
5345 12.8860 122.00 117.02 11.20
5346 12.8880 119.50 117.46 10.80
5347 12.8900 107.70 117.97 10.30
5348 12.8920 105.20 118.57 10.30
5349 12.8940 110.00 119.30 10.50
5350 12.8960 109.60 120.16 10.60
5351 12.8980 125.40 121.21 11.10
5352 12.9000 109.40 122.50 10.40
5353 12.9020 117.10 124.10 10.80
5354 12.9040 111.00 126.12 10.60
5355 12.9060 125.40 128.73 11.40
5356 12.9080 135.80 132.17 11.50
5357 12.9100 135.90 136.82 11.70
5358 12.9120 155.90 143.21 12.40
5359 12.9140 156.10 152.02 12.60
5360 12.9160 154.20 164.12 12.50
5361 12.9180 185.70 180.26 13.50
5362 12.9200 198.10 200.44 14.00
5363 12.9220 165.50 222.16 12.90
5364 12.9240 202.00 238.69 14.20
5365 12.9260 211.70 241.53 14.80
5366 12.9280 180.30 228.85 13.30
5367 12.9300 206.70 207.86 14.40
5368 12.9320 171.30 186.71 13.10
5369 12.9340 158.00 169.22 12.70
5370 12.9360 147.60 155.95 12.30
5371 12.9380 151.30 146.27 12.30
5372 12.9400 141.10 139.31 11.90
5373 12.9420 121.10 134.32 11.00
5374 12.9440 133.70 130.72 11.70
5375 12.9460 140.30 128.11 12.00
5376 12.9480 111.70 126.21 10.50
5377 12.9500 112.80 124.84 10.60
5378 12.9520 117.50 123.85 10.90
5379 12.9540 119.60 123.10 11.00
5380 12.9560 134.00 122.51 11.70
5381 12.9580 112.30 122.10 10.60
5382 12.9600 118.30 121.93 10.80
5383 12.9620 101.80 122.09 10.10
5384 12.9640 122.10 122.67 11.10
5385 12.9660 102.50 123.78 10.30
5386 12.9680 99.40 125.58 9.90
5387 12.9700 121.10 128.24 11.10
5388 12.9720 123.20 131.85 11.10
5389 12.9740 130.70 136.19 11.50
5390 12.9760 123.60 140.29 11.30
5391 12.9780 113.00 142.32 10.60
5392 12.9800 107.10 140.96 10.30
5393 12.9820 108.10 136.91 10.40
5394 12.9840 131.10 132.07 11.60
5395 12.9860 124.50 127.73 11.30
5396 12.9880 117.50 124.31 10.80
5397 12.9900 124.20 121.75 11.10
5398 12.9920 96.40 119.86 9.80
5399 12.9940 95.80 118.49 9.80
5400 12.9960 106.00 117.45 10.50
5401 12.9980 98.30 116.68 9.80
5402 13.0000 108.90 116.08 10.40
5403 13.0020 113.60 115.62 10.70
5404 13.0040 102.10 115.25 10.20
5405 13.0060 122.40 114.95 11.20
5406 13.0080 105.90 114.72 10.20
5407 13.0100 104.80 114.55 10.20
5408 13.0120 99.70 114.46 10.00
5409 13.0140 100.20 114.49 10.10
5410 13.0160 110.50 114.82 10.60
5411 13.0180 117.20 115.74 10.80
5412 13.0200 140.60 117.11 11.80
5413 13.0220 127.30 117.20 11.30
5414 13.0240 114.40 115.63 10.80
5415 13.0260 98.10 114.41 10.10
5416 13.0280 116.80 113.81 10.70
5417 13.0300 115.80 113.54 10.70
5418 13.0320 103.30 113.38 10.20
5419 13.0340 107.50 113.27 10.50
5420 13.0360 95.10 113.19 9.90
5421 13.0380 80.50 113.13 8.90
5422 13.0400 101.80 113.09 10.10
5423 13.0420 93.60 113.05 9.60
5424 13.0440 121.00 113.02 11.10
5425 13.0460 99.90 113.01 10.20
5426 13.0480 97.90 112.99 9.80
5427 13.0500 105.10 112.99 10.30
5428 13.0520 101.60 112.99 10.10
5429 13.0540 99.60 113.00 10.00
5430 13.0560 113.50 113.02 10.80
5431 13.0580 92.80 113.04 9.50
5432 13.0600 105.20 113.07 10.30
5433 13.0620 115.30 113.12 10.70
5434 13.0640 119.90 113.17 11.10
5435 13.0660 103.80 113.23 10.40
5436 13.0680 96.60 113.31 9.70
5437 13.0700 95.40 113.40 9.70
5438 13.0720 88.90 113.51 9.40
5439 13.0740 98.80 113.64 10.00
5440 13.0760 99.60 113.80 10.10
5441 13.0780 103.50 113.99 10.10
5442 13.0800 101.00 114.21 10.00
5443 13.0820 94.20 114.49 9.70
5444 13.0840 111.20 114.82 10.60
5445 13.0860 105.40 115.22 10.40
5446 13.0880 139.70 115.72 11.70
5447 13.0900 105.60 116.34 10.30
5448 13.0920 131.40 117.13 11.40
5449 13.0940 120.90 118.16 11.10
5450 13.0960 129.70 119.52 11.50
5451 13.0980 114.50 121.36 10.50
5452 13.1000 106.00 123.90 10.30
5453 13.1020 117.10 127.41 10.80
5454 13.1040 122.00 132.24 11.20
5455 13.1060 132.20 138.72 11.60
5456 13.1080 113.00 146.85 10.50
5457 13.1100 145.00 155.64 12.00
5458 13.1120 131.20 162.39 11.40
5459 13.1140 136.80 163.61 11.80
5460 13.1160 127.90 158.50 11.40
5461 13.1180 116.40 149.97 10.70
5462 13.1200 135.10 141.35 11.50
5463 13.1220 130.60 134.21 11.50
5464 13.1240 115.70 128.80 10.90
5465 13.1260 88.10 124.83 9.50
5466 13.1280 109.10 121.95 10.30
5467 13.1300 114.20 119.86 10.60
5468 13.1320 113.40 118.32 10.70
5469 13.1340 106.70 117.17 10.40
5470 13.1360 94.70 116.27 9.80
5471 13.1380 105.00 115.57 10.10
5472 13.1400 103.20 115.17 10.10
5473 13.1420 110.80 114.71 10.50
5474 13.1440 102.60 114.34 10.20
5475 13.1460 98.60 114.02 10.00
5476 13.1480 107.30 113.76 10.30
5477 13.1500 105.50 113.55 10.20
5478 13.1520 96.90 113.36 9.90
5479 13.1540 104.80 113.22 10.30
5480 13.1560 103.40 113.10 10.20
5481 13.1580 100.10 113.00 9.90
5482 13.1600 117.20 112.94 10.70
5483 13.1620 101.90 112.90 10.10
5484 13.1640 120.90 112.86 11.10
5485 13.1660 98.90 112.81 10.00
5486 13.1680 99.80 112.74 9.90
5487 13.1700 88.50 112.63 9.40
5488 13.1720 96.50 112.53 9.80
5489 13.1740 99.30 112.44 10.10
5490 13.1760 90.50 112.37 9.60
5491 13.1780 93.50 112.31 9.60
5492 13.1800 98.40 112.27 9.90
5493 13.1820 112.40 112.24 10.60
5494 13.1840 104.00 112.20 10.30
5495 13.1860 91.60 112.19 9.60
5496 13.1880 90.50 112.19 9.40
5497 13.1900 123.20 112.20 11.10
5498 13.1920 109.40 112.22 10.50
5499 13.1940 102.70 112.26 10.30
5500 13.1960 123.50 112.31 11.20
5501 13.1980 94.40 112.38 9.60
5502 13.2000 83.40 112.48 9.10
5503 13.2020 92.10 112.61 9.60
5504 13.2040 93.10 112.79 9.80
5505 13.2060 111.20 113.02 10.60
5506 13.2080 114.40 113.33 10.60
5507 13.2100 123.20 113.72 11.10
5508 13.2120 93.10 114.17 9.60
5509 13.2140 116.00 114.66 10.90
5510 13.2160 104.40 115.19 10.30
5511 13.2180 115.90 115.85 10.60
5512 13.2200 108.40 116.77 10.40
5513 13.2220 119.80 118.05 11.00
5514 13.2240 102.10 119.63 10.30
5515 13.2260 110.00 121.15 10.60
5516 13.2280 92.00 121.94 9.60
5517 13.2300 100.60 121.50 10.10
5518 13.2320 98.20 120.07 9.90
5519 13.2340 117.20 118.33 11.00
5520 13.2360 120.60 116.79 11.10
5521 13.2380 122.80 115.59 11.00
5522 13.2400 129.40 114.70 11.30
5523 13.2420 95.00 114.07 9.80
5524 13.2440 110.20 113.62 10.70
5525 13.2460 115.20 113.30 10.80
5526 13.2480 104.70 113.08 10.20
5527 13.2500 113.70 112.93 10.70
5528 13.2520 104.70 112.82 10.30
5529 13.2540 97.40 112.75 10.00
5530 13.2560 110.70 112.72 10.60
5531 13.2580 102.70 112.71 10.00
5532 13.2600 109.00 112.73 10.50
5533 13.2620 130.10 112.76 11.50
5534 13.2640 90.10 112.82 9.70
5535 13.2660 125.60 118.37 11.30
5536 13.2680 105.90 118.59 10.30
5537 13.2700 112.30 118.84 10.60
5538 13.2720 117.90 119.12 10.90
5539 13.2740 135.30 119.44 11.80
5540 13.2760 118.80 119.79 11.00
5541 13.2780 106.10 120.20 10.20
5542 13.2800 114.10 120.65 10.70
5543 13.2820 124.20 121.17 11.20
5544 13.2840 106.80 121.77 10.50
5545 13.2860 118.30 122.47 11.00
5546 13.2880 134.00 123.30 11.50
5547 13.2900 136.50 124.30 11.70
5548 13.2920 146.40 125.55 12.20
5549 13.2940 150.20 127.21 12.50
5550 13.2960 119.60 129.67 11.00
5551 13.2980 144.70 133.70 11.90
5552 13.3000 144.80 139.73 12.00
5553 13.3020 162.50 144.96 12.80
5554 13.3040 163.80 146.10 13.00
5555 13.3060 147.70 148.20 12.30
5556 13.3080 161.10 154.07 12.60
5557 13.3100 169.20 163.75 13.00
5558 13.3120 172.30 177.12 13.20
5559 13.3140 177.80 193.51 13.50
5560 13.3160 183.70 209.96 13.70
5561 13.3180 146.10 220.15 12.00
5562 13.3200 177.10 218.27 13.30
5563 13.3220 187.00 205.66 13.70
5564 13.3240 183.90 189.07 13.70
5565 13.3260 181.10 173.85 13.60
5566 13.3280 168.60 161.87 12.80
5567 13.3300 169.60 153.06 13.10
5568 13.3320 159.20 146.81 12.70
5569 13.3340 157.00 142.44 12.70
5570 13.3360 186.40 139.41 13.80
5571 13.3380 153.90 137.33 12.30
5572 13.3400 165.20 135.90 12.90
5573 13.3420 140.70 134.95 11.90
5574 13.3440 130.70 134.36 11.70
5575 13.3460 139.40 134.04 11.90
5576 13.3480 136.20 133.93 11.60
5577 13.3500 126.10 134.01 11.30
5578 13.3520 132.40 134.25 11.60
5579 13.3540 125.70 134.63 11.40
5580 13.3560 120.10 135.13 11.10
5581 13.3580 125.20 135.76 11.10
5582 13.3600 113.00 136.51 10.70
5583 13.3620 130.50 137.38 11.50
5584 13.3640 133.10 138.38 11.70
5585 13.3660 135.50 139.51 11.80
5586 13.3680 159.40 140.78 12.50
5587 13.3700 136.20 142.22 11.70
5588 13.3720 132.80 143.81 11.60
5589 13.3740 134.60 145.59 11.70
5590 13.3760 141.60 147.50 12.00
5591 13.3780 151.80 149.50 12.30
5592 13.3800 122.00 151.53 11.10
5593 13.3820 165.60 153.68 12.90
5594 13.3840 151.20 156.05 12.50
5595 13.3860 148.00 158.72 12.30
5596 13.3880 141.80 161.73 11.90
5597 13.3900 148.00 165.11 12.20
5598 13.3920 148.10 168.91 12.20
5599 13.3940 149.70 173.18 12.40
5600 13.3960 152.90 177.98 12.50
5601 13.3980 149.20 183.39 12.10
5602 13.4000 163.90 189.51 12.90
5603 13.4020 162.20 196.46 12.80
5604 13.4040 165.60 204.39 13.10
5605 13.4060 172.60 213.49 13.30
5606 13.4080 190.70 224.01 13.70
5607 13.4100 213.40 236.24 14.70
5608 13.4120 224.60 250.57 15.00
5609 13.4140 230.50 267.49 15.40
5610 13.4160 254.40 287.67 16.20
5611 13.4180 277.00 312.02 16.50
5612 13.4200 318.60 341.72 17.90
5613 13.4220 398.10 378.49 20.10
5614 13.4240 474.40 424.71 22.10
5615 13.4260 599.20 483.88 24.90
5616 13.4280 767.10 561.31 27.60
5617 13.4300 955.30 665.18 31.20
5618 13.4320 1161.20 808.86 34.30
5619 13.4340 1569.70 1015.36 40.50
5620 13.4360 2066.40 1327.58 46.70
5621 13.4380 2754.60 1840.18 52.90
5622 13.4400 3577.80 2793.37 61.50
5623 13.4420 5159.90 4753.28 74.10
5624 13.4440 8195.90 8623.45 96.70
5625 13.4460 12514.10 14376.20 122.00
5626 13.4480 17785.80 17329.30 147.30
5627 13.4500 14692.10 12886.90 132.90
5628 13.4520 7563.10 7321.75 91.40
5629 13.4540 3581.70 4045.79 61.70
5630 13.4560 1963.00 2451.18 45.60
5631 13.4580 1218.00 1665.00 34.90
5632 13.4600 849.80 1225.37 29.30
5633 13.4620 631.60 949.35 25.20
5634 13.4640 482.30 763.54 22.20
5635 13.4660 438.50 632.68 21.30
5636 13.4680 394.80 537.19 19.80
5637 13.4700 350.90 465.43 18.80
5638 13.4720 281.00 410.24 16.80
5639 13.4740 287.60 366.89 17.20
5640 13.4760 264.80 332.20 16.50
5641 13.4780 242.70 304.07 15.50
5642 13.4800 226.40 280.92 15.10
5643 13.4820 205.70 261.65 14.50
5644 13.4840 193.50 245.45 14.10
5645 13.4860 200.00 231.68 14.40
5646 13.4880 184.90 219.89 13.50
5647 13.4900 159.00 209.72 12.60
5648 13.4920 177.10 200.89 13.30
5649 13.4940 153.70 193.17 12.50
5650 13.4960 190.50 186.37 14.00
5651 13.4980 164.20 180.37 12.70
5652 13.5000 142.30 175.03 11.90
5653 13.5020 171.00 170.27 13.10
5654 13.5040 134.00 166.01 11.70
5655 13.5060 157.90 162.15 12.80
5656 13.5080 158.40 158.69 12.60
5657 13.5100 145.50 155.55 12.10
5658 13.5120 133.40 152.69 11.50
5659 13.5140 135.90 150.09 11.80
5660 13.5160 129.80 147.71 11.50
5661 13.5180 138.30 145.56 11.60
5662 13.5200 132.60 143.55 11.50
5663 13.5220 146.30 141.71 12.10
5664 13.5240 115.80 140.01 10.90
5665 13.5260 133.10 138.43 11.80
5666 13.5280 130.30 136.97 11.40
5667 13.5300 165.60 135.62 12.90
5668 13.5320 127.20 134.35 11.40
5669 13.5340 123.90 133.18 11.20
5670 13.5360 106.40 132.08 10.50
5671 13.5380 121.60 131.05 10.90
5672 13.5400 119.80 130.09 10.90
5673 13.5420 115.70 129.18 10.80
5674 13.5440 123.60 128.34 11.20
5675 13.5460 121.60 127.54 11.20
5676 13.5480 132.40 126.79 11.50
5677 13.5500 110.80 126.08 10.50
5678 13.5520 123.20 125.41 11.10
5679 13.5540 142.20 124.78 12.00
5680 13.5560 129.70 124.18 11.60
5681 13.5580 120.70 123.61 10.90
5682 13.5600 118.40 123.08 10.80
5683 13.5620 123.20 122.57 11.20
5684 13.5640 116.20 122.08 10.90
5685 13.5660 106.90 121.62 10.50
5686 13.5680 121.50 121.18 10.90
5687 13.5700 138.90 120.80 11.80
5688 13.5720 130.60 120.41 11.50
5689 13.5740 123.80 120.03 11.20
5690 13.5760 127.20 119.66 11.40
5691 13.5780 103.70 119.32 10.10
5692 13.5800 95.30 118.99 9.70
5693 13.5820 130.80 118.67 11.50
5694 13.5840 111.40 118.36 10.60
5695 13.5860 120.00 118.07 11.10
5696 13.5880 120.20 117.79 10.90
5697 13.5900 131.20 117.53 11.40
5698 13.5920 122.40 117.27 11.10
5699 13.5940 116.20 117.02 10.90
5700 13.5960 119.10 116.78 11.10
5701 13.5980 126.70 116.55 11.20
5702 13.6000 99.30 116.33 9.90
5703 13.6020 122.90 116.12 11.10
5704 13.6040 109.10 115.92 10.50
5705 13.6060 123.40 115.72 11.30
5706 13.6080 94.30 115.53 9.70
5707 13.6100 108.70 115.35 10.40
5708 13.6120 127.80 115.17 11.40
5709 13.6140 125.00 115.00 11.30
5710 13.6160 111.30 114.84 10.70
5711 13.6180 102.30 114.68 10.10
5712 13.6200 108.10 114.52 10.40
5713 13.6220 105.60 114.38 10.30
5714 13.6240 108.40 114.23 10.50
5715 13.6260 107.60 114.09 10.60
5716 13.6280 111.70 113.96 10.50
5717 13.6300 111.20 113.83 10.50
5718 13.6320 101.10 108.39 10.10
5719 13.6340 84.90 108.38 9.30
5720 13.6360 110.10 108.37 10.60
5721 13.6380 118.60 108.36 10.80
5722 13.6400 132.00 108.36 11.50
5723 13.6420 116.50 108.35 10.80
5724 13.6440 112.60 108.35 10.70
5725 13.6460 109.50 108.34 10.70
5726 13.6480 109.30 108.33 10.40
5727 13.6500 110.20 108.33 10.40
5728 13.6520 112.80 108.33 10.70
5729 13.6540 121.10 108.32 11.10
5730 13.6560 113.10 108.32 10.80
5731 13.6580 98.80 108.32 9.90
5732 13.6600 122.40 108.32 11.00
5733 13.6620 106.70 108.32 10.30
5734 13.6640 96.80 108.32 9.90
5735 13.6660 109.20 108.32 10.60
5736 13.6680 118.10 108.32 10.80
5737 13.6700 118.20 108.32 10.80
5738 13.6720 105.80 108.33 10.40
5739 13.6740 125.30 108.33 11.30
5740 13.6760 116.50 108.34 11.00
5741 13.6780 107.60 108.35 10.30
5742 13.6800 113.60 108.36 10.60
5743 13.6820 82.50 108.37 9.10
5744 13.6840 113.00 108.38 10.70
5745 13.6860 102.10 108.40 10.30
5746 13.6880 102.00 108.42 10.10
5747 13.6900 94.90 108.43 9.70
5748 13.6920 121.20 108.46 11.10
5749 13.6940 103.50 108.49 10.30
5750 13.6960 93.60 108.51 9.90
5751 13.6980 108.10 108.55 10.40
5752 13.7000 106.20 108.59 10.20
5753 13.7020 146.20 108.63 12.10
5754 13.7040 119.80 108.68 11.00
5755 13.7060 121.70 108.74 11.20
5756 13.7080 101.20 108.77 10.00
5757 13.7100 104.00 108.84 10.10
5758 13.7120 123.00 108.92 11.10
5759 13.7140 120.20 109.01 11.00
5760 13.7160 100.30 109.12 10.20
5761 13.7180 127.50 109.24 11.20
5762 13.7200 113.30 109.38 10.60
5763 13.7220 121.90 109.54 11.10
5764 13.7240 113.80 109.73 10.80
5765 13.7260 101.90 109.95 10.30
5766 13.7280 119.30 110.21 10.90
5767 13.7300 103.50 110.51 10.10
5768 13.7320 102.20 110.87 10.20
5769 13.7340 106.70 111.30 10.40
5770 13.7360 112.80 111.82 10.80
5771 13.7380 121.40 112.47 11.00
5772 13.7400 98.20 113.26 9.80
5773 13.7420 117.30 114.27 10.90
5774 13.7440 107.10 115.57 10.40
5775 13.7460 142.70 117.28 12.20
5776 13.7480 115.30 119.58 10.70
5777 13.7500 125.50 122.75 11.10
5778 13.7520 137.40 127.15 11.80
5779 13.7540 131.80 133.23 11.60
5780 13.7560 117.20 141.44 11.00
5781 13.7580 123.50 151.92 11.00
5782 13.7600 163.60 163.63 12.80
5783 13.7620 138.10 173.21 11.80
5784 13.7640 144.20 175.83 12.10
5785 13.7660 128.80 169.79 11.60
5786 13.7680 141.90 158.68 11.90
5787 13.7700 138.30 147.19 11.70
5788 13.7720 164.70 137.61 12.90
5789 13.7740 138.30 130.33 11.90
5790 13.7760 125.40 125.02 11.30
5791 13.7780 127.90 121.19 11.30
5792 13.7800 133.60 118.42 11.50
5793 13.7820 112.50 116.39 10.70
5794 13.7840 123.70 114.86 11.20
5795 13.7860 107.20 113.69 10.60
5796 13.7880 135.60 112.78 11.60
5797 13.7900 114.40 112.05 10.70
5798 13.7920 103.90 111.73 10.20
5799 13.7940 99.30 111.25 10.10
5800 13.7960 106.70 110.85 10.50
5801 13.7980 94.50 110.52 9.70
5802 13.8000 89.00 110.25 9.40
5803 13.8020 96.50 110.01 9.90
5804 13.8040 116.20 109.82 10.90
5805 13.8060 97.60 109.65 10.10
5806 13.8080 93.40 109.51 9.70
5807 13.8100 96.60 109.39 9.80
5808 13.8120 104.90 109.29 10.30
5809 13.8140 90.40 109.21 9.60
5810 13.8160 90.40 109.14 9.70
5811 13.8180 124.40 109.09 11.10
5812 13.8200 102.40 109.09 10.10
5813 13.8220 116.00 109.06 10.80
5814 13.8240 103.70 109.05 10.30
5815 13.8260 114.50 109.05 10.90
5816 13.8280 111.10 109.06 10.50
5817 13.8300 93.50 109.07 9.70
5818 13.8320 104.40 109.11 10.30
5819 13.8340 102.90 109.15 10.20
5820 13.8360 97.60 109.21 10.00
5821 13.8380 117.90 109.29 10.90
5822 13.8400 108.30 109.41 10.40
5823 13.8420 106.20 109.52 10.40
5824 13.8440 102.30 109.66 10.10
5825 13.8460 116.30 109.83 11.00
5826 13.8480 120.10 110.03 10.90
5827 13.8500 111.70 110.28 10.50
5828 13.8520 106.40 110.59 10.40
5829 13.8540 91.70 110.98 9.60
5830 13.8560 100.40 111.47 10.20
5831 13.8580 104.40 112.12 10.20
5832 13.8600 97.30 112.98 9.80
5833 13.8620 115.90 114.13 10.80
5834 13.8640 104.70 115.65 10.30
5835 13.8660 116.00 117.60 10.90
5836 13.8680 117.30 119.83 10.90
5837 13.8700 110.80 121.89 10.40
5838 13.8720 115.20 123.02 10.80
5839 13.8740 114.00 122.84 10.70
5840 13.8760 123.10 121.86 11.20
5841 13.8780 115.40 120.93 10.70
5842 13.8800 120.00 120.51 10.90
5843 13.8820 116.00 120.82 10.80
5844 13.8840 102.70 121.92 10.20
5845 13.8860 114.70 123.97 10.90
5846 13.8880 113.80 127.19 10.70
5847 13.8900 148.90 131.94 12.10
5848 13.8920 134.40 138.64 11.70
5849 13.8940 131.80 147.62 11.50
5850 13.8960 134.00 158.63 11.70
5851 13.8980 131.70 169.70 11.50
5852 13.9000 132.30 176.55 11.50
5853 13.9020 117.30 175.16 10.90
5854 13.9040 123.60 166.49 11.20
5855 13.9060 131.80 155.23 11.60
5856 13.9080 119.90 145.03 11.00
5857 13.9100 143.40 137.10 11.90
5858 13.9120 128.70 131.37 11.40
5859 13.9140 145.90 127.39 12.10
5860 13.9160 126.70 124.71 11.40
5861 13.9180 131.30 123.00 11.50
5862 13.9200 142.00 121.98 11.90
5863 13.9220 132.40 121.50 11.60
5864 13.9240 141.10 121.48 11.90
5865 13.9260 127.50 121.86 11.50
5866 13.9280 136.40 122.64 11.60
5867 13.9300 106.80 123.88 10.30
5868 13.9320 134.10 125.65 11.70
5869 13.9340 149.10 128.11 12.30
5870 13.9360 127.90 131.50 11.50
5871 13.9380 152.50 136.17 12.30
5872 13.9400 131.20 142.66 11.40
5873 13.9420 126.60 151.68 11.30
5874 13.9440 175.80 164.09 13.30
5875 13.9460 166.70 180.64 13.10
5876 13.9480 179.40 201.21 13.30
5877 13.9500 180.80 222.90 13.40
5878 13.9520 172.20 238.95 13.20
5879 13.9540 183.30 242.85 13.60
5880 13.9560 212.00 236.91 14.80
5881 13.9580 203.20 232.30 14.30
5882 13.9600 250.00 243.98 15.70
5883 13.9620 290.80 293.08 17.10
5884 13.9640 337.90 400.57 18.50
5885 13.9660 485.20 523.41 22.30
5886 13.9680 527.10 494.10 23.00
5887 13.9700 338.30 347.70 18.30
5888 13.9720 238.00 243.03 15.50
5889 13.9740 181.00 191.29 13.50
5890 13.9760 175.60 167.84 13.50
5891 13.9780 161.70 156.85 12.70
5892 13.9800 151.40 151.96 12.30
5893 13.9820 143.30 150.76 12.00
5894 13.9840 155.00 151.89 12.50
5895 13.9860 157.40 153.73 12.70
5896 13.9880 158.70 154.56 12.60
5897 13.9900 163.40 154.00 12.70
5898 13.9920 145.70 153.56 12.10
5899 13.9940 128.90 155.16 11.40
5900 13.9960 149.10 160.07 12.40
5901 13.9980 150.50 168.95 12.30
5902 14.0000 172.30 181.61 13.00
5903 14.0020 161.80 195.89 12.80
5904 14.0040 184.30 206.20 13.70
5905 14.0060 179.50 205.98 13.60
5906 14.0080 155.20 194.54 12.40
5907 14.0100 136.70 177.88 11.70
5908 14.0120 147.40 161.91 12.20
5909 14.0140 152.80 148.99 12.50
5910 14.0160 127.20 139.29 11.50
5911 14.0180 140.40 132.20 11.80
5912 14.0200 122.30 127.03 11.00
5913 14.0220 133.70 123.24 11.60
5914 14.0240 138.30 120.40 11.90
5915 14.0260 102.30 118.23 10.20
5916 14.0280 110.90 116.53 10.50
5917 14.0300 115.50 115.16 10.80
5918 14.0320 120.50 114.04 11.10
5919 14.0340 123.60 113.11 11.20
5920 14.0360 113.10 112.33 10.80
5921 14.0380 115.00 111.68 10.70
5922 14.0400 116.80 111.11 10.80
5923 14.0420 129.00 110.62 11.40
5924 14.0440 116.60 110.20 10.80
5925 14.0460 124.80 109.82 11.40
5926 14.0480 145.20 109.50 12.00
5927 14.0500 116.30 109.21 10.80
5928 14.0520 126.40 108.95 11.30
5929 14.0540 113.10 108.72 10.70
5930 14.0560 107.40 108.51 10.50
5931 14.0580 117.90 108.33 10.90
5932 14.0600 101.50 108.16 10.00
5933 14.0620 108.30 108.01 10.50
5934 14.0640 123.20 107.88 11.10
5935 14.0660 102.50 107.75 10.20
5936 14.0680 98.90 107.64 10.00
5937 14.0700 107.60 107.55 10.30
5938 14.0720 144.00 107.46 12.10
5939 14.0740 109.20 107.38 10.60
5940 14.0760 123.90 107.31 11.30
5941 14.0780 117.00 107.25 10.80
5942 14.0800 98.00 107.19 9.90
5943 14.0820 125.30 107.15 11.30
5944 14.0840 113.50 107.11 10.70
5945 14.0860 120.50 107.08 11.10
5946 14.0880 116.30 107.05 10.80
5947 14.0900 112.20 107.04 10.50
5948 14.0920 111.70 107.03 10.70
5949 14.0940 119.60 107.03 11.00
5950 14.0960 113.70 107.04 10.80
5951 14.0980 118.60 107.05 10.90
5952 14.1000 127.30 107.08 11.30
5953 14.1020 114.00 107.11 10.70
5954 14.1040 123.90 107.16 11.20
5955 14.1060 119.50 107.22 11.00
5956 14.1080 134.20 107.29 11.50
5957 14.1100 113.10 107.38 10.50
5958 14.1120 117.90 107.48 10.90
5959 14.1140 103.40 107.61 10.20
5960 14.1160 96.30 107.75 9.90
5961 14.1180 130.90 107.93 11.40
5962 14.1200 101.80 108.13 10.00
5963 14.1220 133.30 108.38 11.60
5964 14.1240 111.40 108.67 10.60
5965 14.1260 126.30 109.03 11.40
5966 14.1280 103.70 109.45 10.10
5967 14.1300 132.00 109.98 11.40
5968 14.1320 109.90 110.62 10.50
5969 14.1340 107.60 111.44 10.40
5970 14.1360 126.20 112.49 11.30
5971 14.1380 105.60 113.88 10.30
5972 14.1400 128.10 115.72 11.20
5973 14.1420 118.20 118.24 10.90
5974 14.1440 131.00 121.56 11.50
5975 14.1460 135.90 126.18 11.80
5976 14.1480 143.80 132.13 11.90
5977 14.1500 148.60 139.09 12.20
5978 14.1520 143.20 146.00 12.00
5979 14.1540 160.00 151.46 12.70
5980 14.1560 142.30 153.85 12.00
5981 14.1580 156.40 151.87 12.50
5982 14.1600 168.50 146.01 12.90
5983 14.1620 148.90 138.76 12.20
5984 14.1640 169.20 132.26 13.10
5985 14.1660 166.80 127.27 13.10
5986 14.1680 146.20 123.79 12.00
5987 14.1700 147.40 121.54 12.10
5988 14.1720 120.50 120.24 11.10
5989 14.1740 130.50 119.69 11.50
5990 14.1760 117.10 119.77 11.00
5991 14.1780 130.40 120.40 11.40
5992 14.1800 152.10 121.58 12.30
5993 14.1820 146.20 123.40 12.10
5994 14.1840 160.70 126.04 12.80
5995 14.1860 170.30 129.85 13.20
5996 14.1880 130.10 135.27 11.40
5997 14.1900 161.20 142.92 12.70
5998 14.1920 148.20 153.54 12.20
5999 14.1940 159.30 167.76 12.80
6000 14.1960 134.60 185.26 11.70
6001 14.1980 177.40 203.23 13.20
6002 14.2000 175.70 215.09 13.30
6003 14.2020 191.40 214.68 13.90
6004 14.2040 191.00 203.51 13.90
6005 14.2060 188.30 189.17 13.90
6006 14.2080 194.80 177.67 13.90
6007 14.2100 167.50 171.35 12.90
6008 14.2120 205.80 170.59 14.40
6009 14.2140 218.70 174.93 14.90
6010 14.2160 232.80 182.77 15.40
6011 14.2180 236.20 190.22 15.30
6012 14.2200 228.20 191.66 15.10
6013 14.2220 208.00 184.43 14.50
6014 14.2240 209.70 171.98 14.60
6015 14.2260 196.60 159.37 14.10
6016 14.2280 179.00 149.27 13.30
6017 14.2300 181.20 142.23 13.50
6018 14.2320 150.10 138.02 12.30
6019 14.2340 154.60 136.34 12.50
6020 14.2360 166.10 137.04 13.00
6021 14.2380 170.60 140.12 13.00
6022 14.2400 193.90 145.56 13.90
6023 14.2420 165.50 152.77 13.00
6024 14.2440 176.30 159.69 13.40
6025 14.2460 151.40 162.63 12.50
6026 14.2480 150.50 159.20 12.20
6027 14.2500 145.60 151.25 12.10
6028 14.2520 123.50 142.53 11.20
6029 14.2540 139.80 135.32 11.90
6030 14.2560 149.90 130.17 12.40
6031 14.2580 126.30 126.75 11.30
6032 14.2600 148.10 133.65 12.20
6033 14.2620 131.30 131.58 11.50
6034 14.2640 135.80 129.24 11.80
6035 14.2660 136.20 126.86 11.80
6036 14.2680 137.00 124.78 11.70
6037 14.2700 125.90 123.15 11.20
6038 14.2720 139.10 121.94 11.90
6039 14.2740 131.20 121.06 11.50
6040 14.2760 151.30 120.44 12.50
6041 14.2780 139.00 120.01 11.80
6042 14.2800 136.90 119.87 11.70
6043 14.2820 123.90 119.70 11.20
6044 14.2840 123.40 119.62 11.20
6045 14.2860 116.50 119.60 10.90
6046 14.2880 139.40 119.66 11.80
6047 14.2900 133.60 119.77 11.50
6048 14.2920 131.70 119.94 11.60
6049 14.2940 148.20 120.14 12.20
6050 14.2960 142.40 120.39 12.10
6051 14.2980 143.60 120.68 11.90
6052 14.3000 143.50 121.00 11.90
6053 14.3020 127.30 121.37 11.30
6054 14.3040 135.00 121.77 11.70
6055 14.3060 146.70 122.20 12.20
6056 14.3080 126.20 122.68 11.30
6057 14.3100 148.50 123.19 12.10
6058 14.3120 123.30 123.74 11.20
6059 14.3140 167.00 124.33 13.10
6060 14.3160 153.10 124.97 12.50
6061 14.3180 137.80 125.65 11.70
6062 14.3200 129.70 126.37 11.30
6063 14.3220 145.30 127.15 12.10
6064 14.3240 129.00 127.98 11.40
6065 14.3260 152.40 128.86 12.50
6066 14.3280 143.60 129.81 12.00
6067 14.3300 165.60 130.82 12.80
6068 14.3320 154.60 131.90 12.50
6069 14.3340 143.70 133.06 12.10
6070 14.3360 145.10 134.30 12.20
6071 14.3380 146.10 135.58 12.10
6072 14.3400 155.00 137.00 12.40
6073 14.3420 155.70 138.53 12.50
6074 14.3440 148.40 140.17 12.30
6075 14.3460 133.40 141.94 11.60
6076 14.3480 173.70 143.84 13.20
6077 14.3500 153.60 145.89 12.30
6078 14.3520 154.90 148.11 12.50
6079 14.3540 167.50 150.52 13.00
6080 14.3560 161.30 153.13 12.80
6081 14.3580 167.10 155.96 12.90
6082 14.3600 192.70 159.05 13.80
6083 14.3620 185.30 162.43 13.60
6084 14.3640 190.80 166.12 13.80
6085 14.3660 181.50 170.18 13.60
6086 14.3680 194.90 174.65 13.90
6087 14.3700 211.20 179.58 14.40
6088 14.3720 187.60 185.04 13.70
6089 14.3740 184.00 191.11 13.60
6090 14.3760 226.70 197.89 15.10
6091 14.3780 196.40 205.48 13.90
6092 14.3800 201.20 214.02 14.00
6093 14.3820 201.30 223.68 14.30
6094 14.3840 256.70 234.66 16.00
6095 14.3860 235.20 247.21 15.50
6096 14.3880 236.00 261.63 15.20
6097 14.3900 231.60 278.29 15.10
6098 14.3920 295.40 297.75 17.20
6099 14.3940 273.50 320.62 16.60
6100 14.3960 344.80 347.79 18.70
6101 14.3980 319.50 380.33 17.80
6102 14.4000 350.20 419.77 18.60
6103 14.4020 384.10 468.25 19.70
6104 14.4040 419.30 528.68 20.60
6105 14.4060 493.40 605.26 22.40
6106 14.4080 560.00 704.34 23.60
6107 14.4100 673.60 835.69 25.70
6108 14.4120 793.50 1014.47 28.30
6109 14.4140 993.90 1266.42 31.70
6110 14.4160 1472.70 1636.87 38.90
6111 14.4180 2132.80 2215.33 46.20
6112 14.4200 3186.20 3212.65 57.20
6113 14.4220 5252.00 5220.34 74.70
6114 14.4240 9860.80 9649.75 105.50
6115 14.4260 18302.60 18357.50 151.80
6116 14.4280 30406.70 28712.50 204.80
6117 14.4300 26999.80 27412.20 189.90
6118 14.4320 15152.10 16319.50 134.60
6119 14.4340 9137.50 8440.55 101.20
6120 14.4360 5482.30 4663.39 76.70
6121 14.4380 3876.40 2954.78 63.10
6122 14.4400 2627.20 2079.45 51.70
6123 14.4420 1957.90 1560.73 44.70
6124 14.4440 1382.00 1230.26 37.50
6125 14.4460 1084.90 1014.58 33.20
6126 14.4480 896.30 862.15 29.70
6127 14.4500 713.60 727.30 26.50
6128 14.4520 553.20 614.03 23.50
6129 14.4540 469.10 529.87 21.80
6130 14.4560 425.60 467.34 20.80
6131 14.4580 397.30 418.98 19.80
6132 14.4600 375.60 380.30 19.20
6133 14.4620 327.00 348.60 18.10
6134 14.4640 338.30 322.24 18.50
6135 14.4660 314.60 300.13 17.90
6136 14.4680 278.90 281.52 16.60
6137 14.4700 247.00 265.82 15.70
6138 14.4720 270.00 252.64 16.50
6139 14.4740 239.20 241.64 15.60
6140 14.4760 202.10 232.61 14.30
6141 14.4780 225.40 225.49 14.90
6142 14.4800 251.60 220.33 15.80
6143 14.4820 267.40 217.36 16.40
6144 14.4840 244.90 216.96 15.80
6145 14.4860 250.70 219.67 16.00
6146 14.4880 244.20 226.03 15.60
6147 14.4900 255.20 236.01 15.90
6148 14.4920 251.20 247.68 15.90
6149 14.4940 212.60 255.70 14.80
6150 14.4960 247.90 253.51 15.90
6151 14.4980 231.50 240.24 15.10
6152 14.5000 258.90 221.89 16.10
6153 14.5020 235.20 204.49 15.30
6154 14.5040 210.10 190.51 14.70
6155 14.5060 198.00 180.22 14.20
6156 14.5080 191.80 173.13 13.70
6157 14.5100 203.60 168.72 14.30
6158 14.5120 194.90 166.46 14.00
6159 14.5140 194.10 165.67 14.10
6160 14.5160 204.90 165.07 14.30
6161 14.5180 199.50 162.96 14.00
6162 14.5200 172.90 158.60 13.20
6163 14.5220 177.90 152.96 13.30
6164 14.5240 166.60 147.43 13.10
6165 14.5260 180.60 142.68 13.50
6166 14.5280 164.10 138.82 12.80
6167 14.5300 163.70 135.71 12.90
6168 14.5320 147.50 133.17 12.20
6169 14.5340 165.50 131.07 13.00
6170 14.5360 154.80 129.27 12.60
6171 14.5380 149.70 127.72 12.20
6172 14.5400 164.80 126.36 12.90
6173 14.5420 146.00 125.14 12.10
6174 14.5440 151.40 124.02 12.60
6175 14.5460 144.40 123.01 12.10
6176 14.5480 164.90 122.08 12.80
6177 14.5500 159.90 121.22 12.80
6178 14.5520 158.40 120.43 12.70
6179 14.5540 144.40 119.69 12.20
6180 14.5560 145.60 119.00 12.20
6181 14.5580 135.00 118.36 11.60
6182 14.5600 151.90 117.76 12.40
6183 14.5620 131.10 117.19 11.50
6184 14.5640 142.00 116.67 12.10
6185 14.5660 135.80 116.17 11.80
6186 14.5680 137.20 119.68 11.70
6187 14.5700 120.80 119.35 11.10
6188 14.5720 139.50 119.05 11.90
6189 14.5740 143.90 118.78 12.20
6190 14.5760 154.50 118.56 12.60
6191 14.5780 138.60 118.37 11.80
6192 14.5800 138.20 118.24 11.80
6193 14.5820 142.10 118.16 12.00
6194 14.5840 138.10 118.13 11.90
6195 14.5860 150.90 118.23 12.40
6196 14.5880 158.80 118.48 12.60
6197 14.5900 125.40 118.97 11.30
6198 14.5920 155.60 119.87 12.60
6199 14.5940 158.20 121.61 12.70
6200 14.5960 156.50 125.08 12.70
6201 14.5980 158.60 131.60 12.60
6202 14.6000 160.50 132.20 12.70
6203 14.6020 177.70 138.55 13.40
6204 14.6040 174.80 132.71 13.40
6205 14.6060 169.00 122.94 13.20
6206 14.6080 144.70 116.45 12.00
6207 14.6100 165.60 113.06 12.90
6208 14.6120 146.90 111.40 12.20
6209 14.6140 154.50 110.57 12.50
6210 14.6160 147.90 110.16 12.30
6211 14.6180 158.90 109.97 12.70
6212 14.6200 158.40 109.91 12.60
6213 14.6220 127.30 109.97 11.30
6214 14.6240 144.00 110.10 12.10
6215 14.6260 135.00 110.43 11.80
6216 14.6280 143.30 110.67 11.90
6217 14.6300 147.00 110.93 12.10
6218 14.6320 143.90 111.26 12.10
6219 14.6340 140.60 111.62 11.90
6220 14.6360 140.40 112.03 12.00
6221 14.6380 135.80 112.47 11.70
6222 14.6400 155.10 112.96 12.40
6223 14.6420 145.50 113.49 12.10
6224 14.6440 126.80 114.08 11.40
6225 14.6460 141.90 114.71 12.00
6226 14.6480 154.70 115.42 12.50
6227 14.6500 159.00 116.19 12.60
6228 14.6520 160.60 117.04 12.80
6229 14.6540 138.80 118.00 11.90
6230 14.6560 154.70 119.06 12.50
6231 14.6580 142.60 120.26 11.90
6232 14.6600 159.40 121.64 12.60
6233 14.6620 160.90 123.24 12.70
6234 14.6640 139.90 125.14 11.90
6235 14.6660 147.10 127.44 12.30
6236 14.6680 155.10 130.30 12.50
6237 14.6700 185.60 133.93 13.60
6238 14.6720 161.00 138.57 12.70
6239 14.6740 139.70 144.48 11.90
6240 14.6760 159.00 151.65 12.70
6241 14.6780 195.10 159.31 13.90
6242 14.6800 166.20 165.44 12.90
6243 14.6820 164.40 167.69 12.90
6244 14.6840 174.50 166.11 13.30
6245 14.6860 138.60 163.07 11.90
6246 14.6880 177.60 160.73 13.30
6247 14.6900 159.20 159.90 12.60
6248 14.6920 154.30 160.66 12.40
6249 14.6940 169.80 162.86 13.10
6250 14.6960 203.40 166.37 14.40
6251 14.6980 182.80 171.10 13.50
6252 14.7000 183.70 177.04 13.50
6253 14.7020 197.50 184.28 14.20
6254 14.7040 205.30 192.93 14.40
6255 14.7060 182.10 203.25 13.60
6256 14.7080 221.80 215.65 14.90
6257 14.7100 223.00 230.72 14.90
6258 14.7120 245.30 249.24 15.70
6259 14.7140 243.30 272.22 15.70
6260 14.7160 289.90 301.16 17.20
6261 14.7180 325.90 338.21 18.10
6262 14.7200 352.30 386.68 18.70
6263 14.7220 422.80 451.52 20.60
6264 14.7240 528.80 540.94 23.20
6265 14.7260 689.80 668.96 26.70
6266 14.7280 999.10 860.70 31.60
6267 14.7300 1371.20 1169.25 37.20
6268 14.7320 2040.60 1730.22 45.70
6269 14.7340 3301.00 2907.17 58.80
6270 14.7360 5703.50 5431.60 78.90
6271 14.7380 10023.50 9760.19 106.50
6272 14.7400 13403.30 12967.40 125.10
6273 14.7420 10284.30 10060.90 108.40
6274 14.7440 5749.90 5577.52 78.90
6275 14.7460 3140.80 2967.70 57.70
6276 14.7480 2013.30 1756.17 45.10
6277 14.7500 1301.20 1183.34 36.30
6278 14.7520 899.20 869.20 30.20
6279 14.7540 652.50 674.35 25.70
6280 14.7560 529.20 544.38 23.40
6281 14.7580 395.80 453.65 19.90
6282 14.7600 348.30 387.88 18.70
6283 14.7620 300.10 338.75 17.40
6284 14.7640 246.00 301.08 15.80
6285 14.7660 234.50 271.63 15.50
6286 14.7680 231.30 248.17 15.20
6287 14.7700 217.80 229.17 14.70
6288 14.7720 220.10 213.57 15.00
6289 14.7740 163.00 200.62 12.80
6290 14.7760 185.20 189.75 13.80
6291 14.7780 158.10 180.53 12.60
6292 14.7800 171.60 172.66 13.10
6293 14.7820 159.40 165.88 12.60
6294 14.7840 174.10 159.99 13.30
6295 14.7860 168.80 154.86 13.20
6296 14.7880 168.00 150.35 12.90
6297 14.7900 148.30 146.38 12.20
6298 14.7920 151.80 142.86 12.40
6299 14.7940 146.60 139.72 12.20
6300 14.7960 147.40 136.92 12.30
6301 14.7980 148.80 134.41 12.20
6302 14.8000 164.40 132.15 12.80
6303 14.8020 138.10 130.12 11.80
6304 14.8040 134.20 128.27 11.70
6305 14.8060 135.30 126.61 11.80
6306 14.8080 136.30 125.11 11.60
6307 14.8100 118.70 123.77 10.90
6308 14.8120 152.50 122.59 12.50
6309 14.8140 130.00 121.58 11.50
6310 14.8160 118.80 120.60 11.00
6311 14.8180 134.00 119.58 11.60
6312 14.8200 123.40 118.63 11.00
6313 14.8220 128.20 117.81 11.30
6314 14.8240 148.10 117.10 12.20
6315 14.8260 102.00 116.49 10.20
6316 14.8280 120.90 115.96 11.00
6317 14.8300 134.20 115.53 11.60
6318 14.8320 110.00 115.18 10.50
6319 14.8340 145.00 114.94 12.10
6320 14.8360 138.80 114.82 11.80
6321 14.8380 116.30 114.83 10.80
6322 14.8400 123.90 115.03 11.10
6323 14.8420 118.60 115.47 10.90
6324 14.8440 121.00 116.24 11.10
6325 14.8460 123.70 117.47 11.20
6326 14.8480 118.80 119.36 10.90
6327 14.8500 121.90 122.14 11.00
6328 14.8520 113.40 126.03 10.70
6329 14.8540 124.50 131.05 11.20
6330 14.8560 131.60 136.54 11.50
6331 14.8580 133.20 140.55 11.50
6332 14.8600 118.30 140.74 10.80
6333 14.8620 131.80 136.85 11.50
6334 14.8640 135.00 131.12 11.70
6335 14.8660 129.00 125.67 11.50
6336 14.8680 118.60 121.35 10.80
6337 14.8700 115.50 118.18 10.70
6338 14.8720 137.10 115.95 11.70
6339 14.8740 149.30 114.43 12.30
6340 14.8760 127.90 113.43 11.40
6341 14.8780 125.50 112.80 11.20
6342 14.8800 127.90 112.51 11.20
6343 14.8820 126.10 112.48 11.20
6344 14.8840 150.60 112.70 12.30
6345 14.8860 139.70 113.18 12.00
6346 14.8880 150.30 113.95 12.20
6347 14.8900 143.60 115.08 12.00
6348 14.8920 125.70 116.67 11.20
6349 14.8940 120.00 118.89 11.00
6350 14.8960 121.00 122.02 11.10
6351 14.8980 141.60 126.39 11.80
6352 14.9000 155.00 132.57 12.30
6353 14.9020 155.40 141.26 12.50
6354 14.9040 157.90 153.21 12.60
6355 14.9060 166.30 168.80 13.00
6356 14.9080 188.80 186.71 13.70
6357 14.9100 178.40 202.33 13.30
6358 14.9120 175.20 208.58 13.20
6359 14.9140 170.70 198.16 13.10
6360 14.9160 157.00 182.71 12.60
6361 14.9180 164.30 164.89 12.70
6362 14.9200 152.60 149.20 12.30
6363 14.9220 154.30 137.01 12.40
6364 14.9240 145.80 128.10 12.10
6365 14.9260 128.80 121.68 11.50
6366 14.9280 130.60 117.09 11.40
6367 14.9300 131.60 113.76 11.50
6368 14.9320 112.20 111.32 10.60
6369 14.9340 109.80 109.48 10.60
6370 14.9360 116.10 108.08 10.90
6371 14.9380 129.70 107.01 11.30
6372 14.9400 135.70 106.18 11.60
6373 14.9420 117.10 105.54 10.90
6374 14.9440 126.40 105.07 11.30
6375 14.9460 123.30 104.72 11.30
6376 14.9480 137.50 104.50 11.70
6377 14.9500 113.80 104.39 10.70
6378 14.9520 118.60 104.38 10.90
6379 14.9540 109.10 104.47 10.50
6380 14.9560 110.10 104.67 10.60
6381 14.9580 103.50 104.98 10.10
6382 14.9600 114.70 105.43 10.70
6383 14.9620 136.20 106.05 11.70
6384 14.9640 128.40 106.87 11.40
6385 14.9660 117.60 107.94 11.00
6386 14.9680 123.80 109.36 11.10
6387 14.9700 129.10 111.26 11.40
6388 14.9720 128.20 113.84 11.40
6389 14.9740 128.90 117.38 11.40
6390 14.9760 136.20 122.31 11.80
6391 14.9780 139.30 129.19 11.70
6392 14.9800 151.00 138.61 12.20
6393 14.9820 139.20 150.99 11.90
6394 14.9840 173.00 165.66 13.20
6395 14.9860 145.30 179.38 12.20
6396 14.9880 166.40 186.31 12.90
6397 14.9900 176.20 182.92 13.30
6398 14.9920 169.90 172.70 13.00
6399 14.9940 148.30 161.87 12.20
6400 14.9960 133.90 153.93 11.70
6401 14.9980 135.10 149.42 11.60
6402 15.0000 121.10 147.20 10.90
6403 15.0020 115.50 144.91 10.80
6404 15.0040 112.50 140.31 10.70
6405 15.0060 109.10 133.51 10.60
6406 15.0080 131.90 126.36 11.50
6407 15.0100 113.00 120.24 10.70
6408 15.0120 106.30 115.47 10.30
6409 15.0140 121.10 111.91 11.00
6410 15.0160 113.90 109.26 10.80
6411 15.0180 108.80 107.29 10.40
6412 15.0200 95.70 105.79 9.70
6413 15.0220 108.20 104.63 10.40
6414 15.0240 100.70 103.72 10.10
6415 15.0260 94.90 103.00 9.90
6416 15.0280 120.90 102.40 11.00
6417 15.0300 108.80 101.92 10.40
6418 15.0320 97.60 101.52 9.90
6419 15.0340 117.60 101.20 10.90
6420 15.0360 123.80 100.94 11.20
6421 15.0380 105.40 100.73 10.20
6422 15.0400 85.60 100.57 9.30
6423 15.0420 110.30 100.46 10.50
6424 15.0440 99.70 100.39 10.00
6425 15.0460 104.30 100.38 10.30
6426 15.0480 97.90 100.43 9.80
6427 15.0500 94.20 100.54 9.70
6428 15.0520 105.30 100.73 10.30
6429 15.0540 135.30 101.03 11.70
6430 15.0560 105.00 101.47 10.30
6431 15.0580 92.50 102.14 9.60
6432 15.0600 118.70 103.10 10.90
6433 15.0620 121.50 104.48 11.00
6434 15.0640 108.30 106.43 10.40
6435 15.0660 108.90 109.05 10.50
6436 15.0680 90.50 112.23 9.50
6437 15.0700 104.20 115.29 10.20
6438 15.0720 107.80 116.86 10.40
6439 15.0740 106.40 115.90 10.40
6440 15.0760 102.30 113.01 10.20
6441 15.0780 92.60 109.64 9.50
6442 15.0800 126.70 106.72 11.30
6443 15.0820 124.10 104.48 11.20
6444 15.0840 112.40 102.83 10.60
6445 15.0860 121.50 101.65 11.10
6446 15.0880 91.00 100.79 9.50
6447 15.0900 111.50 100.17 10.60
6448 15.0920 104.90 99.70 10.30
6449 15.0940 95.10 99.34 9.80
6450 15.0960 106.80 99.06 10.40
6451 15.0980 103.50 98.84 10.10
6452 15.1000 103.70 98.66 10.10
6453 15.1020 108.50 98.51 10.50
6454 15.1040 108.80 98.39 10.40
6455 15.1060 112.00 98.30 10.60
6456 15.1080 94.10 98.22 9.60
6457 15.1100 100.10 98.15 10.00
6458 15.1120 102.40 98.10 10.10
6459 15.1140 111.70 98.07 10.60
6460 15.1160 100.70 98.04 10.10
6461 15.1180 119.60 98.02 10.90
6462 15.1200 111.80 98.02 10.60
6463 15.1220 113.60 98.02 10.70
6464 15.1240 110.20 98.03 10.50
6465 15.1260 96.00 98.05 9.90
6466 15.1280 101.40 98.08 10.00
6467 15.1300 114.70 98.11 10.70
6468 15.1320 97.30 98.16 9.80
6469 15.1340 108.30 98.22 10.50
6470 15.1360 99.20 98.30 10.00
6471 15.1380 105.00 98.38 10.20
6472 15.1400 107.40 98.49 10.30
6473 15.1420 104.90 98.61 10.30
6474 15.1440 101.40 98.75 10.10
6475 15.1460 92.90 98.91 9.70
6476 15.1480 91.00 99.10 9.50
6477 15.1500 101.80 99.33 10.00
6478 15.1520 121.10 99.61 11.00
6479 15.1540 97.00 99.93 9.90
6480 15.1560 113.90 100.30 10.70
6481 15.1580 112.90 100.74 10.60
6482 15.1600 111.60 101.28 10.50
6483 15.1620 114.60 101.93 10.80
6484 15.1640 134.20 102.73 11.60
6485 15.1660 100.10 103.73 10.10
6486 15.1680 100.10 105.00 9.90
6487 15.1700 125.00 106.64 11.10
6488 15.1720 96.20 108.83 9.80
6489 15.1740 121.80 111.77 11.10
6490 15.1760 128.70 115.85 11.40
6491 15.1780 146.70 121.54 12.00
6492 15.1800 139.50 129.44 11.80
6493 15.1820 147.40 140.15 12.10
6494 15.1840 175.30 153.70 13.30
6495 15.1860 156.70 168.28 12.60
6496 15.1880 149.10 178.82 12.10
6497 15.1900 188.70 179.27 13.70
6498 15.1920 135.90 169.30 11.70
6499 15.1940 140.40 154.77 11.90
6500 15.1960 152.60 141.07 12.40
6501 15.1980 135.50 130.19 11.50
6502 15.2000 138.90 122.16 11.80
6503 15.2020 121.60 116.39 11.00
6504 15.2040 113.00 112.28 10.70
6505 15.2060 128.70 109.32 11.40
6506 15.2080 115.20 107.16 10.70
6507 15.2100 122.50 105.54 11.10
6508 15.2120 110.30 104.32 10.50
6509 15.2140 119.20 103.37 11.00
6510 15.2160 110.80 102.63 10.60
6511 15.2180 106.80 102.05 10.30
6512 15.2200 105.20 101.59 10.20
6513 15.2220 115.80 101.25 10.80
6514 15.2240 104.30 100.98 10.30
6515 15.2260 124.80 100.79 11.30
6516 15.2280 127.70 100.67 11.30
6517 15.2300 101.00 100.60 10.10
6518 15.2320 114.90 100.60 10.70
6519 15.2340 97.50 100.65 10.00
6520 15.2360 106.20 100.76 10.30
6521 15.2380 126.20 100.93 11.20
6522 15.2400 117.90 101.16 10.90
6523 15.2420 116.20 101.48 10.80
6524 15.2440 115.10 101.90 10.80
6525 15.2460 114.40 102.43 10.80
6526 15.2480 111.90 103.10 10.50
6527 15.2500 115.40 103.97 10.80
6528 15.2520 119.30 105.08 11.00
6529 15.2540 126.80 106.54 11.40
6530 15.2560 125.80 108.49 11.30
6531 15.2580 143.70 111.14 11.90
6532 15.2600 121.80 114.81 11.10
6533 15.2620 122.90 119.91 11.10
6534 15.2640 132.10 126.92 11.60
6535 15.2660 124.00 136.20 11.30
6536 15.2680 131.50 147.36 11.40
6537 15.2700 136.20 158.09 11.70
6538 15.2720 125.70 163.79 11.20
6539 15.2740 137.20 161.15 11.90
6540 15.2760 138.10 152.35 11.80
6541 15.2780 122.60 142.33 11.00
6542 15.2800 135.30 134.13 11.70
6543 15.2820 141.30 128.58 11.90
6544 15.2840 148.20 125.60 12.40
6545 15.2860 128.40 124.99 11.40
6546 15.2880 163.40 126.69 12.70
6547 15.2900 153.00 130.81 12.40
6548 15.2920 158.50 137.52 12.60
6549 15.2940 149.10 146.64 12.30
6550 15.2960 185.10 156.54 13.80
6551 15.2980 160.00 163.20 12.50
6552 15.3000 176.00 162.44 13.30
6553 15.3020 173.20 154.69 13.20
6554 15.3040 150.80 144.44 12.40
6555 15.3060 147.30 135.36 12.20
6556 15.3080 157.80 128.70 12.50
6557 15.3100 146.00 124.50 12.10
6558 15.3120 154.40 122.49 12.50
6559 15.3140 156.60 122.47 12.70
6560 15.3160 154.80 124.42 12.50
6561 15.3180 143.70 128.49 12.00
6562 15.3200 140.40 134.78 11.90
6563 15.3220 152.20 142.92 12.40
6564 15.3240 153.30 151.45 12.50
6565 15.3260 136.40 158.03 11.80
6566 15.3280 146.80 160.69 12.00
6567 15.3300 147.50 158.33 12.30
6568 15.3320 146.70 151.57 12.20
6569 15.3340 132.90 143.11 11.70
6570 15.3360 137.50 135.23 11.80
6571 15.3380 128.50 128.36 11.30
6572 15.3400 114.80 122.19 10.80
6573 15.3420 126.30 116.82 11.30
6574 15.3440 101.00 112.48 10.20
6575 15.3460 127.50 109.15 11.40
6576 15.3480 111.10 106.65 10.40
6577 15.3500 109.30 104.76 10.50
6578 15.3520 113.20 103.32 10.70
6579 15.3540 93.90 102.20 9.80
6580 15.3560 84.40 101.31 9.30
6581 15.3580 105.40 100.60 10.20
6582 15.3600 110.70 100.01 10.60
6583 15.3620 129.40 99.52 11.40
6584 15.3640 108.80 99.12 10.50
6585 15.3660 86.50 98.77 9.40
6586 15.3680 89.00 98.48 9.40
6587 15.3700 103.10 98.20 10.20
6588 15.3720 105.90 97.99 10.40
6589 15.3740 93.40 97.80 9.80
6590 15.3760 111.90 97.65 10.60
6591 15.3780 96.80 97.52 9.80
6592 15.3800 95.50 97.41 9.80
6593 15.3820 109.40 97.32 10.50
6594 15.3840 103.40 97.25 10.30
6595 15.3860 112.20 97.21 10.70
6596 15.3880 91.80 97.19 9.60
6597 15.3900 80.90 97.19 9.10
6598 15.3920 98.20 97.22 10.00
6599 15.3940 92.00 97.28 9.70
6600 15.3960 112.20 97.37 10.70
6601 15.3980 100.70 97.51 10.00
6602 15.4000 107.60 97.70 10.50
6603 15.4020 97.80 97.96 10.00
6604 15.4040 99.80 98.32 10.10
6605 15.4060 96.90 98.81 9.90
6606 15.4080 102.30 99.50 10.10
6607 15.4100 109.80 100.48 10.50
6608 15.4120 94.10 101.86 9.80
6609 15.4140 101.20 103.80 10.20
6610 15.4160 108.90 106.46 10.50
6611 15.4180 100.70 109.85 10.00
6612 15.4200 117.30 113.59 10.90
6613 15.4220 117.90 116.43 10.90
6614 15.4240 111.40 116.76 10.70
6615 15.4260 115.30 114.34 10.90
6616 15.4280 109.10 110.61 10.50
6617 15.4300 124.50 107.00 11.20
6618 15.4320 113.20 104.12 10.70
6619 15.4340 103.40 101.98 10.30
6620 15.4360 93.90 100.43 9.80
6621 15.4380 99.30 99.33 9.90
6622 15.4400 82.90 98.53 9.10
6623 15.4420 96.80 97.94 9.90
6624 15.4440 90.60 97.50 9.60
6625 15.4460 96.50 97.16 9.90
6626 15.4480 101.80 96.89 10.10
6627 15.4500 97.70 96.68 9.90
6628 15.4520 108.80 96.51 10.50
6629 15.4540 105.90 96.38 10.40
6630 15.4560 101.40 96.27 10.20
6631 15.4580 101.00 96.19 10.00
6632 15.4600 84.10 96.12 9.10
6633 15.4620 103.90 96.08 10.30
6634 15.4640 95.10 96.05 9.80
6635 15.4660 107.90 96.03 10.50
6636 15.4680 92.40 96.02 9.60
6637 15.4700 87.10 96.03 9.40
6638 15.4720 109.40 96.04 10.60
6639 15.4740 90.00 96.08 9.60
6640 15.4760 94.40 96.12 9.80
6641 15.4780 101.60 96.18 10.00
6642 15.4800 107.10 96.25 10.40
6643 15.4820 108.30 96.34 10.50
6644 15.4840 110.60 96.45 10.60
6645 15.4860 99.60 96.58 10.10
6646 15.4880 107.50 96.74 10.30
6647 15.4900 100.00 96.93 10.00
6648 15.4920 107.60 97.16 10.50
6649 15.4940 110.50 97.43 10.60
6650 15.4960 95.20 97.75 9.80
6651 15.4980 95.90 98.15 9.70
6652 15.5000 108.20 98.63 10.40
6653 15.5020 102.20 99.23 10.20
6654 15.5040 121.30 99.98 11.10
6655 15.5060 103.10 100.93 10.30
6656 15.5080 110.00 102.17 10.50
6657 15.5100 117.20 103.82 10.80
6658 15.5120 132.00 106.06 11.60
6659 15.5140 135.50 109.16 11.70
6660 15.5160 132.10 113.47 11.60
6661 15.5180 163.00 119.41 12.80
6662 15.5200 127.00 127.28 11.30
6663 15.5220 146.70 136.78 12.20
6664 15.5240 111.60 145.94 10.70
6665 15.5260 122.10 150.83 11.20
6666 15.5280 126.10 148.62 11.20
6667 15.5300 129.70 141.25 11.40
6668 15.5320 131.40 132.95 11.60
6669 15.5340 140.10 126.41 11.90
6670 15.5360 114.40 122.41 10.80
6671 15.5380 129.60 120.93 11.30
6672 15.5400 120.30 121.68 11.00
6673 15.5420 113.50 124.07 10.80
6674 15.5440 112.20 126.68 10.70
6675 15.5460 112.70 127.24 10.70
6676 15.5480 128.60 124.43 11.30
6677 15.5500 113.80 119.36 10.70
6678 15.5520 104.60 114.06 10.30
6679 15.5540 104.80 109.61 10.30
6680 15.5560 115.20 106.21 10.90
6681 15.5580 104.50 103.72 10.20
6682 15.5600 103.90 101.89 10.20
6683 15.5620 113.80 100.56 10.80
6684 15.5640 107.00 99.56 10.50
6685 15.5660 99.60 98.81 10.10
6686 15.5680 111.50 98.20 10.50
6687 15.5700 102.60 97.73 10.20
6688 15.5720 118.80 97.33 10.90
6689 15.5740 132.00 96.99 11.60
6690 15.5760 96.80 96.69 9.90
6691 15.5780 120.80 96.43 11.00
6692 15.5800 102.00 96.22 10.10
6693 15.5820 87.30 96.04 9.40
6694 15.5840 90.20 95.89 9.60
6695 15.5860 100.30 95.77 10.20
6696 15.5880 89.30 95.66 9.40
6697 15.5900 86.60 95.57 9.30
6698 15.5920 99.50 95.50 10.00
6699 15.5940 78.60 95.44 8.90
6700 15.5960 117.90 95.40 11.00
6701 15.5980 93.40 95.36 9.60
6702 15.6000 109.40 95.34 10.50
6703 15.6020 105.30 95.33 10.30
6704 15.6040 100.90 95.34 10.20
6705 15.6060 112.90 95.35 10.70
6706 15.6080 114.10 95.38 10.70
6707 15.6100 84.00 95.42 9.10
6708 15.6120 77.70 95.48 8.90
6709 15.6140 89.10 95.56 9.50
6710 15.6160 103.10 95.65 10.30
6711 15.6180 113.50 95.78 10.60
6712 15.6200 102.80 95.93 10.10
6713 15.6220 104.90 96.12 10.30
6714 15.6240 96.90 96.35 9.90
6715 15.6260 93.40 96.64 9.80
6716 15.6280 109.00 97.00 10.40
6717 15.6300 97.00 97.46 9.80
6718 15.6320 98.90 98.04 10.00
6719 15.6340 115.30 98.80 10.80
6720 15.6360 107.50 99.80 10.40
6721 15.6380 106.20 101.16 10.30
6722 15.6400 106.60 103.03 10.30
6723 15.6420 108.50 105.65 10.50
6724 15.6440 126.60 109.32 11.30
6725 15.6460 109.70 114.37 10.60
6726 15.6480 113.20 120.96 10.60
6727 15.6500 110.70 128.56 10.60
6728 15.6520 126.40 135.07 11.30
6729 15.6540 109.00 137.13 10.50
6730 15.6560 113.90 133.32 10.80
6731 15.6580 137.40 126.07 11.70
6732 15.6600 125.90 118.59 11.20
6733 15.6620 100.60 112.43 10.10
6734 15.6640 109.50 107.82 10.60
6735 15.6660 98.20 104.49 10.00
6736 15.6680 108.10 102.10 10.40
6737 15.6700 92.00 100.38 9.60
6738 15.6720 102.60 99.12 10.30
6739 15.6740 111.90 98.17 10.60
6740 15.6760 104.40 97.44 10.30
6741 15.6780 94.50 96.85 9.70
6742 15.6800 103.20 96.39 10.10
6743 15.6820 91.40 96.01 9.60
6744 15.6840 95.70 95.70 9.80
6745 15.6860 104.20 95.44 10.30
6746 15.6880 104.30 95.22 10.20
6747 15.6900 93.10 95.03 9.70
6748 15.6920 107.80 94.87 10.50
6749 15.6940 75.50 94.73 8.70
6750 15.6960 98.70 94.61 10.10
6751 15.6980 90.60 94.50 9.50
6752 15.7000 74.20 94.40 8.60
6753 15.7020 86.80 94.32 9.40
6754 15.7040 113.60 94.24 10.70
6755 15.7060 106.30 94.17 10.40
6756 15.7080 88.40 94.66 9.40
6757 15.7100 94.10 94.61 9.70
6758 15.7120 95.90 94.57 9.80
6759 15.7140 94.20 94.53 9.80
6760 15.7160 104.10 94.50 10.30
6761 15.7180 106.40 94.47 10.30
6762 15.7200 94.60 94.45 9.70
6763 15.7220 101.90 94.42 10.20
6764 15.7240 88.70 94.41 9.50
6765 15.7260 87.40 94.39 9.40
6766 15.7280 117.70 94.38 10.90
6767 15.7300 103.10 94.37 10.20
6768 15.7320 99.70 94.36 10.00
6769 15.7340 94.80 94.35 9.80
6770 15.7360 93.70 94.35 9.80
6771 15.7380 96.60 94.35 9.80
6772 15.7400 89.50 94.34 9.50
6773 15.7420 89.20 94.34 9.50
6774 15.7440 79.60 94.35 9.00
6775 15.7460 83.70 94.35 9.30
6776 15.7480 102.00 94.36 10.10
6777 15.7500 82.80 94.36 9.10
6778 15.7520 94.60 94.37 9.80
6779 15.7540 114.20 94.38 10.70
6780 15.7560 103.90 94.39 10.30
6781 15.7580 111.10 94.41 10.50
6782 15.7600 92.00 94.42 9.60
6783 15.7620 89.30 94.44 9.50
6784 15.7640 92.40 94.45 9.70
6785 15.7660 102.50 94.60 10.30
6786 15.7680 93.20 94.62 9.70
6787 15.7700 85.10 94.65 9.20
6788 15.7720 96.50 94.68 9.90
6789 15.7740 96.40 94.71 9.90
6790 15.7760 78.10 94.74 8.90
6791 15.7780 120.20 94.77 10.90
6792 15.7800 91.40 94.81 9.60
6793 15.7820 89.40 94.85 9.50
6794 15.7840 82.70 94.89 9.20
6795 15.7860 78.60 94.93 9.00
6796 15.7880 78.60 94.98 8.90
6797 15.7900 110.90 95.03 10.50
6798 15.7920 92.10 95.08 9.70
6799 15.7940 98.50 95.13 10.00
6800 15.7960 86.10 95.19 9.40
6801 15.7980 97.60 95.26 9.90
6802 15.8000 103.50 95.33 10.10
6803 15.8020 100.00 95.39 10.10
6804 15.8040 87.20 95.47 9.40
6805 15.8060 93.30 95.55 9.80
6806 15.8080 82.20 95.65 9.10
6807 15.8100 79.30 95.74 8.90
6808 15.8120 88.40 95.85 9.50
6809 15.8140 91.90 95.97 9.70
6810 15.8160 102.50 96.10 10.20
6811 15.8180 96.90 96.39 9.90
6812 15.8200 93.10 96.56 9.60
6813 15.8220 81.60 96.76 9.10
6814 15.8240 96.10 96.99 9.90
6815 15.8260 90.00 97.28 9.60
6816 15.8280 90.90 97.62 9.50
6817 15.8300 97.90 98.06 9.90
6818 15.8320 103.60 98.56 10.30
6819 15.8340 100.10 99.10 10.10
6820 15.8360 103.90 99.52 10.30
6821 15.8380 99.80 99.69 10.00
6822 15.8400 82.30 99.64 9.10
6823 15.8420 103.50 99.52 10.20
6824 15.8440 108.90 99.46 10.50
6825 15.8460 111.80 99.49 10.70
6826 15.8480 99.40 99.62 10.00
6827 15.8500 103.30 99.82 10.20
6828 15.8520 105.50 100.09 10.30
6829 15.8540 107.60 100.42 10.50
6830 15.8560 108.00 100.81 10.50
6831 15.8580 99.20 101.26 9.90
6832 15.8600 97.30 101.76 9.90
6833 15.8620 92.50 102.33 9.70
6834 15.8640 105.50 102.98 10.30
6835 15.8660 86.90 103.70 9.50
6836 15.8680 107.20 104.52 10.40
6837 15.8700 111.30 105.46 10.50
6838 15.8720 118.70 106.52 11.00
6839 15.8740 96.10 107.75 9.80
6840 15.8760 108.10 109.19 10.50
6841 15.8780 110.20 110.87 10.50
6842 15.8800 102.40 112.86 10.10
6843 15.8820 117.80 115.28 10.90
6844 15.8840 123.00 118.24 11.20
6845 15.8860 111.90 121.95 10.70
6846 15.8880 135.80 126.63 11.60
6847 15.8900 129.80 132.56 11.40
6848 15.8920 160.70 139.93 12.80
6849 15.8940 147.80 148.63 12.20
6850 15.8960 162.00 158.28 12.90
6851 15.8980 163.00 168.96 12.70
6852 15.9000 199.20 181.50 14.10
6853 15.9020 192.50 195.83 14.00
6854 15.9040 239.60 209.42 15.60
6855 15.9060 240.30 219.41 15.70
6856 15.9080 264.50 227.27 16.20
6857 15.9100 321.40 238.84 17.90
6858 15.9120 308.00 260.55 17.60
6859 15.9140 407.30 299.63 20.30
6860 15.9160 465.30 369.03 21.70
6861 15.9180 599.30 495.31 24.40
6862 15.9200 724.10 724.82 26.90
6863 15.9220 940.50 1110.25 31.00
6864 15.9240 1340.30 1594.81 37.00
6865 15.9260 1727.20 1782.50 42.40
6866 15.9280 1674.70 1416.62 41.40
6867 15.9300 1084.60 941.47 32.90
6868 15.9320 643.30 621.10 25.50
6869 15.9340 383.70 440.22 19.70
6870 15.9360 262.80 343.49 16.30
6871 15.9380 246.70 293.61 15.70
6872 15.9400 222.90 275.32 14.90
6873 15.9420 252.00 290.91 16.00
6874 15.9440 355.40 354.69 19.00
6875 15.9460 444.50 461.45 21.20
6876 15.9480 469.30 498.72 21.70
6877 15.9500 316.20 387.55 17.70
6878 15.9520 271.50 271.62 16.60
6879 15.9540 223.00 204.84 15.00
6880 15.9560 201.70 170.82 14.30
6881 15.9580 157.60 152.41 12.50
6882 15.9600 129.00 141.06 11.30
6883 15.9620 145.20 133.34 12.10
6884 15.9640 114.80 127.80 10.80
6885 15.9660 129.10 123.70 11.50
6886 15.9680 125.50 120.63 11.20
6887 15.9700 126.30 118.35 11.20
6888 15.9720 119.40 116.72 11.00
6889 15.9740 99.50 115.69 10.10
6890 15.9760 125.10 115.28 11.30
6891 15.9780 92.60 115.52 9.60
6892 15.9800 87.80 116.49 9.40
6893 15.9820 121.80 118.19 11.10
6894 15.9840 100.50 120.29 10.10
6895 15.9860 106.50 121.96 10.50
6896 15.9880 103.10 122.42 10.20
6897 15.9900 134.70 122.06 11.50
6898 15.9920 112.20 122.54 10.70
6899 15.9940 108.40 126.25 10.50
6900 15.9960 128.70 136.32 11.50
6901 15.9980 140.90 154.42 11.90
6902 16.0000 154.30 169.05 12.40
6903 16.0020 136.20 159.55 11.70
6904 16.0040 132.80 141.74 11.60
6905 16.0060 135.20 129.73 11.70
6906 16.0080 115.50 122.47 10.80
6907 16.0100 124.90 117.92 11.20
6908 16.0120 112.20 115.17 10.70
6909 16.0140 124.30 113.86 11.20
6910 16.0160 109.00 113.84 10.50
6911 16.0180 110.40 115.14 10.50
6912 16.0200 110.60 117.93 10.50
6913 16.0220 114.70 122.44 10.80
6914 16.0240 102.40 128.84 10.20
6915 16.0260 128.90 136.61 11.50
6916 16.0280 113.50 143.64 10.60
6917 16.0300 126.10 146.21 11.30
6918 16.0320 120.20 142.39 11.00
6919 16.0340 113.90 134.52 10.80
6920 16.0360 141.80 126.24 12.00
6921 16.0380 112.80 119.40 10.60
6922 16.0400 122.70 114.33 11.00
6923 16.0420 117.90 110.76 11.00
6924 16.0440 112.50 108.36 10.60
6925 16.0460 107.30 106.80 10.40
6926 16.0480 129.40 105.82 11.40
6927 16.0500 100.80 105.16 10.00
6928 16.0520 103.50 104.60 10.20
6929 16.0540 116.90 104.12 10.90
6930 16.0560 111.40 103.79 10.70
6931 16.0580 103.50 103.74 10.20
6932 16.0600 111.10 103.99 10.50
6933 16.0620 97.70 104.61 10.00
6934 16.0640 93.00 105.65 9.70
6935 16.0660 88.00 107.20 9.50
6936 16.0680 115.30 109.46 10.70
6937 16.0700 120.70 112.73 11.00
6938 16.0720 119.70 117.41 11.00
6939 16.0740 109.70 123.91 10.60
6940 16.0760 99.40 132.27 10.10
6941 16.0780 101.80 141.39 10.10
6942 16.0800 134.90 148.12 11.60
6943 16.0820 123.50 148.53 11.20
6944 16.0840 108.90 142.37 10.50
6945 16.0860 115.00 133.38 10.80
6946 16.0880 121.40 124.99 11.00
6947 16.0900 122.90 118.49 11.10
6948 16.0920 114.70 113.88 10.80
6949 16.0940 107.00 110.84 10.40
6950 16.0960 119.70 109.02 11.00
6951 16.0980 138.40 108.21 11.70
6952 16.1000 120.60 108.29 10.90
6953 16.1020 113.80 109.32 10.70
6954 16.1040 129.60 111.42 11.50
6955 16.1060 121.70 114.83 11.10
6956 16.1080 88.90 119.72 9.40
6957 16.1100 116.40 125.80 10.80
6958 16.1120 114.70 131.62 10.70
6959 16.1140 138.50 134.33 11.80
6960 16.1160 112.70 132.03 10.70
6961 16.1180 116.20 126.19 10.70
6962 16.1200 109.20 119.78 10.40
6963 16.1220 106.30 114.51 10.30
6964 16.1240 117.30 110.73 10.80
6965 16.1260 119.00 108.14 11.00
6966 16.1280 115.00 106.19 10.70
6967 16.1300 91.00 104.41 9.50
6968 16.1320 93.90 102.55 9.70
6969 16.1340 107.90 100.98 10.40
6970 16.1360 98.60 99.70 9.90
6971 16.1380 93.20 98.69 9.70
6972 16.1400 107.30 97.90 10.30
6973 16.1420 82.90 97.29 9.10
6974 16.1440 111.70 96.81 10.60
6975 16.1460 101.70 95.88 10.20
6976 16.1480 102.00 95.58 10.10
6977 16.1500 85.40 95.33 9.20
6978 16.1520 109.40 95.12 10.50
6979 16.1540 111.20 94.94 10.60
6980 16.1560 106.70 94.79 10.40
6981 16.1580 106.40 94.67 10.30
6982 16.1600 102.50 94.56 10.10
6983 16.1620 94.00 94.46 9.70
6984 16.1640 102.50 94.38 10.20
6985 16.1660 105.70 94.32 10.40
6986 16.1680 104.90 94.26 10.20
6987 16.1700 105.00 94.21 10.20
6988 16.1720 79.20 94.17 9.00
6989 16.1740 112.30 94.14 10.60
6990 16.1760 97.30 94.12 10.00
6991 16.1780 79.10 94.10 8.90
6992 16.1800 97.30 94.09 9.80
6993 16.1820 105.20 94.09 10.30
6994 16.1840 81.10 94.10 9.10
6995 16.1860 103.60 94.09 10.30
6996 16.1880 95.40 94.11 9.80
6997 16.1900 98.70 94.13 10.00
6998 16.1920 100.70 94.16 10.10
6999 16.1940 102.70 94.20 10.20
7000 16.1960 100.50 94.25 10.10
7001 16.1980 87.40 94.31 9.30
7002 16.2000 109.40 94.38 10.50
7003 16.2020 84.50 94.46 9.30
7004 16.2040 86.90 94.55 9.40
7005 16.2060 97.10 94.66 9.90
7006 16.2080 82.30 94.79 9.10
7007 16.2100 94.10 94.94 9.70
7008 16.2120 92.20 95.11 9.70
7009 16.2140 83.40 95.32 9.20
7010 16.2160 93.80 95.56 9.80
7011 16.2180 89.10 95.84 9.40
7012 16.2200 108.30 96.18 10.50
7013 16.2220 80.20 96.59 9.00
7014 16.2240 96.70 97.09 9.90
7015 16.2260 88.40 97.70 9.50
7016 16.2280 98.30 98.47 9.90
7017 16.2300 97.90 99.46 9.90
7018 16.2320 84.80 100.75 9.30
7019 16.2340 115.30 102.48 10.80
7020 16.2360 90.10 104.85 9.60
7021 16.2380 128.10 108.14 11.30
7022 16.2400 128.90 112.71 11.40
7023 16.2420 123.30 118.91 11.20
7024 16.2440 136.40 126.84 11.70
7025 16.2460 122.60 135.55 11.20
7026 16.2480 130.00 142.16 11.40
7027 16.2500 140.30 143.04 11.90
7028 16.2520 119.40 137.74 11.00
7029 16.2540 120.20 129.70 11.10
7030 16.2560 119.40 122.16 11.00
7031 16.2580 118.00 116.39 10.90
7032 16.2600 122.70 112.42 11.10
7033 16.2620 130.30 109.97 11.50
7034 16.2640 134.30 108.74 11.70
7035 16.2660 99.50 108.56 10.10
7036 16.2680 123.70 109.38 11.10
7037 16.2700 127.80 111.32 11.30
7038 16.2720 113.40 114.62 10.80
7039 16.2740 123.90 119.69 11.20
7040 16.2760 128.30 126.95 11.40
7041 16.2780 127.00 136.52 11.30
7042 16.2800 119.20 147.23 10.90
7043 16.2820 127.30 155.48 11.40
7044 16.2840 111.90 156.44 10.70
7045 16.2860 131.60 149.27 11.60
7046 16.2880 149.70 138.25 12.20
7047 16.2900 128.80 127.68 11.30
7048 16.2920 114.70 119.25 10.80
7049 16.2940 126.70 113.02 11.30
7050 16.2960 131.40 108.53 11.60
7051 16.2980 127.40 105.31 11.30
7052 16.3000 102.70 102.99 10.10
7053 16.3020 102.80 101.27 10.20
7054 16.3040 105.70 99.97 10.30
7055 16.3060 104.10 98.98 10.30
7056 16.3080 108.70 98.20 10.40
7057 16.3100 111.70 97.58 10.60
7058 16.3120 95.70 97.09 9.90
7059 16.3140 96.30 96.69 9.90
7060 16.3160 84.70 96.38 9.30
7061 16.3180 91.40 96.13 9.60
7062 16.3200 84.80 95.94 9.20
7063 16.3220 113.20 95.94 10.70
7064 16.3240 108.40 95.85 10.50
7065 16.3260 100.20 95.81 10.00
7066 16.3280 103.70 95.82 10.20
7067 16.3300 121.00 95.89 11.00
7068 16.3320 93.30 96.01 9.70
7069 16.3340 105.80 96.21 10.30
7070 16.3360 107.50 96.50 10.50
7071 16.3380 112.90 96.92 10.60
7072 16.3400 112.20 97.52 10.60
7073 16.3420 84.30 98.37 9.30
7074 16.3440 97.30 99.59 9.90
7075 16.3460 100.70 101.32 10.10
7076 16.3480 109.80 103.75 10.40
7077 16.3500 121.70 107.00 11.00
7078 16.3520 102.40 110.94 10.20
7079 16.3540 99.30 114.74 10.00
7080 16.3560 88.90 116.67 9.50
7081 16.3580 97.80 115.44 9.90
7082 16.3600 105.50 111.86 10.20
7083 16.3620 89.10 107.75 9.50
7084 16.3640 92.60 104.22 9.70
7085 16.3660 89.50 101.52 9.60
7086 16.3680 83.80 99.56 9.20
7087 16.3700 94.10 98.15 9.70
7088 16.3720 98.40 97.13 10.00
7089 16.3740 101.40 96.39 10.10
7090 16.3760 91.20 95.84 9.60
7091 16.3780 109.70 95.41 10.40
7092 16.3800 105.00 95.08 10.20
7093 16.3820 82.50 94.82 9.10
7094 16.3840 103.90 94.61 10.20
7095 16.3860 91.50 94.43 9.60
7096 16.3880 107.00 94.29 10.30
7097 16.3900 104.30 94.17 10.20
7098 16.3920 93.70 94.07 9.80
7099 16.3940 98.60 93.99 10.00
7100 16.3960 95.40 93.92 9.80
7101 16.3980 90.70 93.86 9.50
7102 16.4000 86.70 93.81 9.30
7103 16.4020 97.70 93.76 10.00
7104 16.4040 95.10 93.73 9.80
7105 16.4060 92.90 93.68 9.70
7106 16.4080 99.40 93.66 10.00
7107 16.4100 99.40 93.64 9.90
7108 16.4120 83.30 93.63 9.20
7109 16.4140 90.70 93.62 9.60
7110 16.4160 82.70 93.62 9.20
7111 16.4180 96.10 93.62 9.70
7112 16.4200 91.30 93.62 9.50
7113 16.4220 87.20 93.63 9.40
7114 16.4240 78.90 93.64 8.90
7115 16.4260 87.40 93.66 9.40
7116 16.4280 100.40 93.68 10.00
7117 16.4300 87.50 93.71 9.30
7118 16.4320 77.60 93.74 8.80
7119 16.4340 98.90 93.78 10.00
7120 16.4360 92.30 93.83 9.60
7121 16.4380 97.10 93.88 9.80
7122 16.4400 95.70 93.93 9.70
7123 16.4420 115.00 93.97 10.70
7124 16.4440 95.30 94.02 9.80
7125 16.4460 89.30 94.07 9.50
7126 16.4480 103.50 94.13 10.10
7127 16.4500 94.30 94.20 9.70
7128 16.4520 85.20 94.29 9.20
7129 16.4540 93.30 94.40 9.70
7130 16.4560 92.90 94.51 9.60
7131 16.4580 91.60 94.64 9.50
7132 16.4600 98.40 94.80 9.80
7133 16.4620 82.20 94.99 9.10
7134 16.4640 116.00 95.23 10.80
7135 16.4660 79.60 95.51 9.00
7136 16.4680 94.90 95.86 9.70
7137 16.4700 91.00 96.30 9.50
7138 16.4720 85.60 96.85 9.30
7139 16.4740 99.30 97.51 10.10
7140 16.4760 89.00 98.23 9.50
7141 16.4780 86.50 98.89 9.30
7142 16.4800 103.60 99.37 10.20
7143 16.4820 91.60 99.76 9.60
7144 16.4840 89.10 100.23 9.50
7145 16.4860 98.30 100.96 10.00
7146 16.4880 83.20 102.03 9.20
7147 16.4900 92.90 103.55 9.70
7148 16.4920 104.40 105.71 10.20
7149 16.4940 127.30 108.76 11.40
7150 16.4960 136.90 113.18 11.70
7151 16.4980 132.40 119.89 11.40
7152 16.5000 134.70 130.94 11.70
7153 16.5020 150.30 150.90 12.30
7154 16.5040 209.30 188.28 14.60
7155 16.5060 246.30 249.74 15.80
7156 16.5080 303.90 307.49 17.40
7157 16.5100 290.30 290.51 17.00
7158 16.5120 202.50 230.59 14.30
7159 16.5140 182.50 184.03 13.60
7160 16.5160 150.10 154.93 12.30
7161 16.5180 146.50 136.88 12.00
7162 16.5200 124.80 125.22 11.30
7163 16.5220 93.70 117.34 9.80
7164 16.5240 100.40 111.90 10.10
7165 16.5260 104.70 108.08 10.30
7166 16.5280 98.70 105.36 9.90
7167 16.5300 112.80 103.40 10.70
7168 16.5320 81.00 101.96 9.10
7169 16.5340 109.60 100.92 10.60
7170 16.5360 106.10 100.18 10.40
7171 16.5380 101.40 99.71 10.10
7172 16.5400 78.80 99.50 8.90
7173 16.5420 98.80 99.56 10.00
7174 16.5440 86.00 99.93 9.40
7175 16.5460 102.30 100.69 10.20
7176 16.5480 89.30 101.88 9.50
7177 16.5500 73.40 103.45 8.60
7178 16.5520 91.00 105.00 9.60
7179 16.5540 89.20 105.74 9.50
7180 16.5560 86.40 105.06 9.40
7181 16.5580 104.50 103.30 10.20
7182 16.5600 90.30 101.30 9.60
7183 16.5620 89.40 99.59 9.60
7184 16.5640 85.10 98.27 9.40
7185 16.5660 78.90 97.30 9.00
7186 16.5680 111.40 96.60 10.60
7187 16.5700 86.60 96.09 9.40
7188 16.5720 87.10 95.71 9.50
7189 16.5740 82.10 95.43 9.20
7190 16.5760 92.70 95.21 9.80
7191 16.5780 88.00 95.04 9.40
7192 16.5800 90.10 94.91 9.60
7193 16.5820 99.10 94.81 10.00
7194 16.5840 92.50 94.73 9.70
7195 16.5860 98.00 94.68 10.00
7196 16.5880 96.40 94.64 9.80
7197 16.5900 84.00 94.62 9.30
7198 16.5920 83.00 94.62 9.20
7199 16.5940 92.30 94.63 9.70
7200 16.5960 95.00 94.65 9.80
7201 16.5980 116.10 94.69 10.80
7202 16.6000 96.70 94.75 9.90
7203 16.6020 93.70 94.82 9.80
7204 16.6040 89.70 94.92 9.60
7205 16.6060 97.40 95.04 10.00
7206 16.6080 87.90 95.19 9.40
7207 16.6100 103.90 95.38 10.20
7208 16.6120 102.70 95.60 10.20
7209 16.6140 90.30 95.88 9.60
7210 16.6160 101.60 96.22 10.20
7211 16.6180 85.40 96.65 9.30
7212 16.6200 102.50 97.19 10.20
7213 16.6220 97.10 97.88 9.90
7214 16.6240 105.30 98.77 10.40
7215 16.6260 113.90 99.99 10.80
7216 16.6280 89.80 101.66 9.50
7217 16.6300 104.40 103.99 10.20
7218 16.6320 112.20 107.25 10.70
7219 16.6340 113.30 111.76 10.80
7220 16.6360 107.50 117.78 10.40
7221 16.6380 104.50 125.03 10.20
7222 16.6400 109.10 131.90 10.50
7223 16.6420 108.50 135.17 10.50
7224 16.6440 107.50 132.68 10.50
7225 16.6460 109.50 126.12 10.60
7226 16.6480 106.20 118.80 10.30
7227 16.6500 110.50 112.61 10.50
7228 16.6520 105.90 107.94 10.40
7229 16.6540 100.90 104.58 10.10
7230 16.6560 119.10 102.19 11.00
7231 16.6580 97.80 100.47 9.90
7232 16.6600 106.40 99.26 10.30
7233 16.6620 95.20 98.38 9.80
7234 16.6640 116.90 97.74 10.90
7235 16.6660 105.30 97.26 10.30
7236 16.6680 101.80 96.91 10.10
7237 16.6700 104.20 96.67 10.20
7238 16.6720 101.00 96.52 10.10
7239 16.6740 104.30 96.45 10.30
7240 16.6760 121.00 96.46 11.10
7241 16.6780 99.70 96.55 10.00
7242 16.6800 99.10 96.73 10.00
7243 16.6820 96.40 97.02 9.90
7244 16.6840 96.30 97.46 9.90
7245 16.6860 79.80 98.10 9.00
7246 16.6880 96.70 99.02 9.80
7247 16.6900 113.80 100.33 10.70
7248 16.6920 119.30 102.21 11.00
7249 16.6940 114.10 104.85 10.80
7250 16.6960 110.30 108.35 10.60
7251 16.6980 119.40 112.48 10.90
7252 16.7000 100.20 116.32 10.00
7253 16.7020 86.80 117.94 9.40
7254 16.7040 119.50 116.23 11.00
7255 16.7060 119.50 112.32 11.00
7256 16.7080 127.40 108.11 11.20
7257 16.7100 124.40 104.61 11.20
7258 16.7120 113.80 101.99 10.70
7259 16.7140 98.10 100.10 10.00
7260 16.7160 104.40 98.77 10.30
7261 16.7180 111.20 97.84 10.50
7262 16.7200 96.60 97.18 9.80
7263 16.7220 112.60 96.72 10.70
7264 16.7240 97.40 96.40 9.90
7265 16.7260 83.30 96.18 9.20
7266 16.7280 112.20 96.06 10.60
7267 16.7300 83.20 96.16 9.10
7268 16.7320 93.80 96.20 9.70
7269 16.7340 80.70 96.30 9.10
7270 16.7360 88.90 96.51 9.50
7271 16.7380 105.10 96.82 10.20
7272 16.7400 96.90 97.29 9.80
7273 16.7420 99.90 97.97 10.00
7274 16.7440 98.80 98.95 10.00
7275 16.7460 88.30 100.34 9.50
7276 16.7480 98.50 102.31 9.90
7277 16.7500 98.20 105.00 9.90
7278 16.7520 91.70 108.40 9.70
7279 16.7540 97.50 112.00 10.00
7280 16.7560 99.60 114.42 10.00
7281 16.7580 101.70 114.22 10.10
7282 16.7600 104.20 111.57 10.20
7283 16.7620 98.10 108.08 10.00
7284 16.7640 104.60 105.00 10.30
7285 16.7660 104.60 102.73 10.30
7286 16.7680 98.70 101.26 9.90
7287 16.7700 99.00 100.43 10.00
7288 16.7720 105.90 99.99 10.30
7289 16.7740 101.40 99.61 10.20
7290 16.7760 91.10 99.00 9.60
7291 16.7780 109.90 98.17 10.50
7292 16.7800 114.60 97.33 10.70
7293 16.7820 95.90 96.60 9.80
7294 16.7840 93.90 96.04 9.80
7295 16.7860 78.80 95.62 9.00
7296 16.7880 86.30 95.30 9.30
7297 16.7900 113.90 95.06 10.70
7298 16.7920 99.00 94.87 10.10
7299 16.7940 89.20 94.72 9.50
7300 16.7960 84.80 94.61 9.30
7301 16.7980 96.90 94.51 9.80
7302 16.8000 92.60 94.44 9.60
7303 16.8020 116.40 94.38 10.80
7304 16.8040 90.80 94.33 9.60
7305 16.8060 111.50 94.29 10.60
7306 16.8080 95.40 94.25 9.70
7307 16.8100 84.30 94.23 9.20
7308 16.8120 87.00 94.21 9.40
7309 16.8140 99.50 94.19 10.10
7310 16.8160 126.30 94.18 11.30
7311 16.8180 98.20 94.18 9.80
7312 16.8200 94.70 94.18 9.70
7313 16.8220 97.80 94.18 10.00
7314 16.8240 88.80 94.18 9.50
7315 16.8260 88.10 94.19 9.40
7316 16.8280 97.90 94.20 9.90
7317 16.8300 94.20 94.22 9.70
7318 16.8320 80.30 94.24 9.00
7319 16.8340 91.60 94.26 9.60
7320 16.8360 91.80 94.28 9.60
7321 16.8380 84.10 94.36 9.10
7322 16.8400 80.10 94.40 8.90
7323 16.8420 85.70 94.43 9.30
7324 16.8440 98.50 94.47 10.00
7325 16.8460 87.00 94.52 9.40
7326 16.8480 76.00 94.57 8.70
7327 16.8500 79.70 94.62 8.90
7328 16.8520 91.10 94.68 9.60
7329 16.8540 109.60 94.74 10.50
7330 16.8560 86.00 94.82 9.30
7331 16.8580 93.90 94.90 9.70
7332 16.8600 79.60 94.98 8.90
7333 16.8620 87.60 95.08 9.40
7334 16.8640 80.00 95.19 9.00
7335 16.8660 81.30 95.31 9.10
7336 16.8680 112.10 95.44 10.60
7337 16.8700 90.80 95.59 9.50
7338 16.8720 87.00 95.76 9.40
7339 16.8740 79.70 95.94 9.00
7340 16.8760 93.50 96.22 9.70
7341 16.8780 85.00 96.47 9.20
7342 16.8800 76.60 96.75 8.70
7343 16.8820 82.80 97.07 9.10
7344 16.8840 93.00 97.44 9.70
7345 16.8860 85.90 97.87 9.30
7346 16.8880 73.70 98.39 8.60
7347 16.8900 96.60 98.99 9.80
7348 16.8920 91.40 99.73 9.60
7349 16.8940 89.40 100.63 9.50
7350 16.8960 93.80 101.75 9.70
7351 16.8980 87.50 103.17 9.30
7352 16.9000 100.60 104.99 10.00
7353 16.9020 99.70 107.39 10.00
7354 16.9040 109.40 110.67 10.50
7355 16.9060 110.10 115.29 10.60
7356 16.9080 128.30 122.16 11.30
7357 16.9100 118.60 133.27 10.80
7358 16.9120 163.00 153.28 12.90
7359 16.9140 189.70 192.00 13.90
7360 16.9160 276.90 262.52 16.60
7361 16.9180 429.40 355.00 20.60
7362 16.9200 414.30 379.34 20.30
7363 16.9220 294.50 305.51 17.20
7364 16.9240 207.50 237.02 14.50
7365 16.9260 176.60 200.86 13.30
7366 16.9280 171.90 181.24 13.00
7367 16.9300 154.30 165.25 12.40
7368 16.9320 131.90 150.03 11.60
7369 16.9340 114.20 136.94 10.80
7370 16.9360 117.30 126.80 10.90
7371 16.9380 102.00 119.31 10.10
7372 16.9400 85.70 113.87 9.20
7373 16.9420 114.20 109.91 10.80
7374 16.9440 98.50 107.00 10.00
7375 16.9460 95.80 104.82 9.90
7376 16.9480 72.90 103.16 8.50
7377 16.9500 90.00 101.85 9.50
7378 16.9520 117.90 100.82 11.00
7379 16.9540 95.20 99.98 9.90
7380 16.9560 93.80 99.29 9.80
7381 16.9580 100.60 98.72 10.00
7382 16.9600 91.20 98.25 9.50
7383 16.9620 96.00 97.85 9.90
7384 16.9640 111.40 97.52 10.60
7385 16.9660 96.40 97.23 9.90
7386 16.9680 97.70 96.99 9.90
7387 16.9700 95.50 96.79 9.80
7388 16.9720 92.80 96.62 9.70
7389 16.9740 86.80 96.47 9.40
7390 16.9760 89.20 96.36 9.50
7391 16.9780 95.40 96.27 9.80
7392 16.9800 78.90 96.21 8.90
7393 16.9820 82.50 96.17 9.20
7394 16.9840 97.90 96.17 10.00
7395 16.9860 96.50 96.21 9.80
7396 16.9880 94.20 96.27 9.70
7397 16.9900 85.10 96.33 9.20
7398 16.9920 85.00 96.34 9.30
7399 16.9940 90.00 96.28 9.60
7400 16.9960 94.30 96.18 9.80
7401 16.9980 85.10 96.08 9.20
7402 17.0000 95.80 96.01 9.80
7403 17.0020 85.60 95.97 9.30
7404 17.0040 76.60 95.96 8.90
7405 17.0060 116.60 95.98 10.90
7406 17.0080 93.70 96.02 9.70
7407 17.0100 93.60 96.08 9.70
7408 17.0120 94.60 96.16 9.80
7409 17.0140 90.80 96.27 9.60
7410 17.0160 87.60 96.39 9.40
7411 17.0180 105.90 96.56 10.30
7412 17.0200 95.70 96.76 9.70
7413 17.0220 83.30 97.00 9.20
7414 17.0240 91.20 97.30 9.60
7415 17.0260 97.70 97.68 10.00
7416 17.0280 90.80 98.14 9.50
7417 17.0300 99.20 98.74 9.90
7418 17.0320 80.60 99.61 9.00
7419 17.0340 98.60 100.64 10.10
7420 17.0360 100.00 102.06 10.00
7421 17.0380 92.70 104.08 9.60
7422 17.0400 123.20 107.12 11.00
7423 17.0420 126.70 112.08 11.30
7424 17.0440 127.30 120.82 11.40
7425 17.0460 131.10 136.66 11.50
7426 17.0480 174.10 163.30 13.20
7427 17.0500 185.00 195.61 13.50
7428 17.0520 202.70 203.86 14.40
7429 17.0540 162.40 176.32 12.80
7430 17.0560 131.00 146.04 11.60
7431 17.0580 123.90 126.96 11.00
7432 17.0600 114.80 116.55 10.70
7433 17.0620 110.70 111.06 10.60
7434 17.0640 111.20 108.10 10.60
7435 17.0660 117.10 106.52 10.80
7436 17.0680 106.20 105.81 10.30
7437 17.0700 103.60 105.75 10.10
7438 17.0720 106.00 106.34 10.30
7439 17.0740 107.50 107.60 10.50
7440 17.0760 114.50 109.63 10.70
7441 17.0780 110.90 112.50 10.50
7442 17.0800 116.10 116.01 10.70
7443 17.0820 113.60 119.56 10.80
7444 17.0840 139.20 122.43 11.90
7445 17.0860 122.10 124.83 11.10
7446 17.0880 133.60 127.84 11.50
7447 17.0900 142.10 132.49 11.90
7448 17.0920 137.70 140.47 11.80
7449 17.0940 144.00 155.62 12.10
7450 17.0960 156.40 183.77 12.50
7451 17.0980 182.40 227.50 13.40
7452 17.1000 243.50 266.43 15.50
7453 17.1020 258.40 255.21 16.20
7454 17.1040 240.30 206.86 15.50
7455 17.1060 139.90 165.29 11.80
7456 17.1080 133.30 139.48 11.50
7457 17.1100 109.60 124.75 10.40
7458 17.1120 98.80 116.12 10.00
7459 17.1140 114.60 110.82 10.80
7460 17.1160 101.80 107.31 10.10
7461 17.1180 91.90 104.83 9.50
7462 17.1200 68.20 103.03 8.20
7463 17.1220 83.50 101.67 9.20
7464 17.1240 86.50 100.62 9.40
7465 17.1260 97.20 99.80 9.90
7466 17.1280 94.50 99.15 9.70
7467 17.1300 93.70 98.62 9.60
7468 17.1320 84.50 98.17 9.30
7469 17.1340 99.80 97.82 10.10
7470 17.1360 96.20 97.52 9.80
7471 17.1380 88.50 97.27 9.40
7472 17.1400 83.90 97.05 9.10
7473 17.1420 87.90 96.88 9.50
7474 17.1440 105.40 96.73 10.40
7475 17.1460 87.10 96.60 9.40
7476 17.1480 95.50 96.50 9.70
7477 17.1500 88.90 96.41 9.30
7478 17.1520 109.10 96.35 10.50
7479 17.1540 103.90 96.30 10.30
7480 17.1560 107.20 96.28 10.30
7481 17.1580 97.70 96.27 9.80
7482 17.1600 87.90 96.28 9.30
7483 17.1620 91.00 96.32 9.60
7484 17.1640 107.10 96.39 10.40
7485 17.1660 103.60 96.51 10.20
7486 17.1680 81.80 96.67 9.00
7487 17.1700 104.30 96.89 10.10
7488 17.1720 103.70 97.13 10.20
7489 17.1740 92.80 97.35 9.70
7490 17.1760 96.70 97.54 9.80
7491 17.1780 75.80 97.76 8.60
7492 17.1800 101.50 98.07 10.00
7493 17.1820 99.00 98.43 10.00
7494 17.1840 73.80 98.67 8.70
7495 17.1860 87.00 98.61 9.30
7496 17.1880 89.20 98.27 9.40
7497 17.1900 87.80 97.84 9.30
7498 17.1920 98.10 97.49 10.00
7499 17.1940 110.60 97.24 10.60
7500 17.1960 102.40 97.09 10.10
7501 17.1980 80.90 97.03 8.90
7502 17.2000 105.30 97.04 10.20
7503 17.2020 116.30 97.10 10.90
7504 17.2040 82.70 97.21 9.10
7505 17.2060 87.40 97.38 9.40
7506 17.2080 103.10 97.61 10.00
7507 17.2100 80.00 97.91 9.00
7508 17.2120 100.90 98.30 10.10
7509 17.2140 108.20 98.82 10.50
7510 17.2160 102.00 99.50 10.10
7511 17.2180 104.80 100.44 10.10
7512 17.2200 112.30 101.73 10.60
7513 17.2220 109.50 103.50 10.60
7514 17.2240 113.90 105.90 10.80
7515 17.2260 94.30 108.97 9.70
7516 17.2280 98.00 112.37 9.80
7517 17.2300 114.20 115.04 10.70
7518 17.2320 124.00 115.65 11.30
7519 17.2340 97.20 114.08 10.00
7520 17.2360 111.60 111.52 10.60
7521 17.2380 130.30 109.10 11.30
7522 17.2400 105.10 107.46 10.30
7523 17.2420 110.30 106.71 10.60
7524 17.2440 108.90 106.82 10.50
7525 17.2460 103.30 107.79 10.20
7526 17.2480 89.00 109.72 9.40
7527 17.2500 109.80 112.83 10.50
7528 17.2520 107.70 117.44 10.60
7529 17.2540 127.20 123.80 11.40
7530 17.2560 129.90 131.65 11.40
7531 17.2580 146.50 139.31 12.10
7532 17.2600 134.00 143.26 11.60
7533 17.2620 107.10 140.90 10.50
7534 17.2640 139.30 133.89 11.90
7535 17.2660 129.40 125.95 11.50
7536 17.2680 119.00 119.37 10.80
7537 17.2700 108.60 114.63 10.50
7538 17.2720 131.70 111.57 11.70
7539 17.2740 111.20 109.91 10.70
7540 17.2760 103.30 109.41 10.20
7541 17.2780 100.20 109.84 10.00
7542 17.2800 129.40 110.78 11.40
7543 17.2820 105.20 111.46 10.40
7544 17.2840 122.60 111.08 11.30
7545 17.2860 96.80 109.57 9.90
7546 17.2880 102.10 107.68 10.00
7547 17.2900 107.60 106.09 10.40
7548 17.2920 88.60 104.96 9.50
7549 17.2940 90.10 104.08 9.60
7550 17.2960 82.40 103.16 9.10
7551 17.2980 82.00 102.12 9.00
7552 17.3000 97.90 101.15 9.90
7553 17.3020 84.30 100.36 9.30
7554 17.3040 99.10 99.77 10.00
7555 17.3060 105.60 99.33 10.40
7556 17.3080 104.60 99.05 10.20
7557 17.3100 92.20 98.88 9.60
7558 17.3120 91.90 98.79 9.70
7559 17.3140 97.60 98.77 10.10
7560 17.3160 75.00 98.81 8.70
7561 17.3180 91.10 98.92 9.50
7562 17.3200 111.20 99.09 10.50
7563 17.3220 110.40 99.32 10.70
7564 17.3240 130.90 99.63 11.60
7565 17.3260 96.20 100.04 9.80
7566 17.3280 110.20 100.49 10.50
7567 17.3300 93.60 101.14 9.70
7568 17.3320 116.70 101.98 11.00
7569 17.3340 113.90 103.05 10.80
7570 17.3360 110.00 104.46 10.50
7571 17.3380 114.30 106.34 10.60
7572 17.3400 121.00 108.92 11.00
7573 17.3420 120.30 112.49 11.10
7574 17.3440 77.00 117.50 8.90
7575 17.3460 121.40 124.49 11.10
7576 17.3480 132.30 133.92 11.50
7577 17.3500 132.40 145.71 11.60
7578 17.3520 123.60 157.83 11.30
7579 17.3540 130.20 165.43 11.50
7580 17.3560 142.20 163.76 12.00
7581 17.3580 128.40 153.98 11.30
7582 17.3600 129.90 141.65 11.40
7583 17.3620 118.30 130.73 11.10
7584 17.3640 124.50 122.39 11.30
7585 17.3660 119.80 117.59 11.10
7586 17.3680 94.00 113.50 9.60
7587 17.3700 93.40 110.79 9.70
7588 17.3720 102.60 109.14 10.30
7589 17.3740 111.60 108.33 10.70
7590 17.3760 98.00 108.24 9.90
7591 17.3780 100.70 108.74 10.00
7592 17.3800 96.30 109.50 9.80
7593 17.3820 118.80 109.87 11.00
7594 17.3840 127.30 109.21 11.50
7595 17.3860 95.80 107.59 9.80
7596 17.3880 112.50 105.71 10.60
7597 17.3900 103.80 104.06 10.20
7598 17.3920 86.20 102.77 9.50
7599 17.3940 105.90 101.81 10.40
7600 17.3960 91.70 101.11 9.70
7601 17.3980 84.50 100.60 9.20
7602 17.4000 95.90 100.23 9.90
7603 17.4020 104.00 99.95 10.30
7604 17.4040 103.90 99.74 10.40
7605 17.4060 100.20 99.59 10.10
7606 17.4080 98.60 99.48 9.90
7607 17.4100 110.50 99.40 10.50
7608 17.4120 88.00 99.36 9.50
7609 17.4140 93.60 99.33 9.80
7610 17.4160 90.20 99.34 9.50
7611 17.4180 100.40 99.36 10.00
7612 17.4200 91.90 99.41 9.60
7613 17.4220 102.20 99.48 10.30
7614 17.4240 93.30 99.57 9.70
7615 17.4260 106.20 99.69 10.40
7616 17.4280 95.60 99.84 9.70
7617 17.4300 94.80 100.02 9.70
7618 17.4320 110.40 100.25 10.60
7619 17.4340 105.70 100.54 10.40
7620 17.4360 104.00 100.90 10.30
7621 17.4380 98.20 101.38 9.90
7622 17.4400 97.20 102.00 9.90
7623 17.4420 112.70 102.85 10.70
7624 17.4440 111.20 103.98 10.70
7625 17.4460 102.80 105.44 10.30
7626 17.4480 115.90 107.18 10.70
7627 17.4500 101.00 108.82 10.00
7628 17.4520 100.10 109.70 10.20
7629 17.4540 115.70 109.41 10.90
7630 17.4560 102.20 108.39 10.20
7631 17.4580 104.00 107.33 10.20
7632 17.4600 93.60 106.63 9.70
7633 17.4620 98.90 106.37 10.00
7634 17.4640 110.60 106.56 10.70
7635 17.4660 120.00 107.20 11.00
7636 17.4680 110.70 108.36 10.40
7637 17.4700 117.30 110.15 10.90
7638 17.4720 108.60 112.72 10.50
7639 17.4740 119.90 116.23 11.10
7640 17.4760 110.00 120.58 10.50
7641 17.4780 102.50 124.95 10.10
7642 17.4800 101.20 127.57 10.10
7643 17.4820 112.10 126.94 10.70
7644 17.4840 100.40 123.81 10.10
7645 17.4860 103.20 120.12 10.20
7646 17.4880 111.40 117.12 10.50
7647 17.4900 114.90 115.10 10.70
7648 17.4920 121.70 113.83 11.10
7649 17.4940 118.10 112.97 11.10
7650 17.4960 123.70 112.35 11.10
7651 17.4980 95.90 111.97 9.70
7652 17.5000 106.60 111.88 10.40
7653 17.5020 115.60 112.09 10.80
7654 17.5040 96.90 112.60 10.00
7655 17.5060 125.20 113.36 11.20
7656 17.5080 101.00 114.39 10.00
7657 17.5100 124.30 115.70 11.10
7658 17.5120 119.30 117.35 11.00
7659 17.5140 110.70 119.41 10.60
7660 17.5160 136.90 122.01 11.80
7661 17.5180 129.00 125.33 11.30
7662 17.5200 147.20 129.63 12.10
7663 17.5220 135.20 135.22 11.70
7664 17.5240 121.40 142.38 11.20
7665 17.5260 107.90 151.12 10.50
7666 17.5280 138.00 160.46 11.70
7667 17.5300 143.50 167.93 11.90
7668 17.5320 139.20 171.18 11.90
7669 17.5340 146.20 170.96 12.20
7670 17.5360 151.00 170.36 12.30
7671 17.5380 126.10 171.74 11.20
7672 17.5400 156.00 176.10 12.40
7673 17.5420 147.00 183.90 12.20
7674 17.5440 155.70 195.66 12.60
7675 17.5460 182.80 212.39 13.60
7676 17.5480 188.70 235.73 13.60
7677 17.5500 213.90 268.48 14.60
7678 17.5520 278.30 315.68 16.90
7679 17.5540 328.50 386.45 18.30
7680 17.5560 433.40 500.23 20.90
7681 17.5580 695.10 700.51 26.30
7682 17.5600 1126.40 1079.51 33.70
7683 17.5620 1894.90 1777.93 44.40
7684 17.5640 3072.00 2820.81 57.10
7685 17.5660 3523.40 3497.01 60.90
7686 17.5680 2756.20 2851.79 53.00
7687 17.5700 1708.30 1793.57 41.60
7688 17.5720 1230.50 1086.60 35.70
7689 17.5740 816.80 703.09 29.10
7690 17.5760 622.00 500.50 25.10
7691 17.5780 464.20 385.53 21.50
7692 17.5800 356.00 313.65 18.80
7693 17.5820 317.30 265.48 18.00
7694 17.5840 284.70 231.51 17.10
7695 17.5860 228.90 206.76 15.30
7696 17.5880 202.90 188.16 14.20
7697 17.5900 180.90 173.88 13.40
7698 17.5920 164.90 162.67 13.00
7699 17.5940 151.80 153.71 12.50
7700 17.5960 155.80 146.46 12.50
7701 17.5980 113.30 140.48 10.60
7702 17.6000 140.90 135.53 11.90
7703 17.6020 118.00 131.36 11.00
7704 17.6040 108.50 127.82 10.50
7705 17.6060 108.40 124.79 10.50
7706 17.6080 118.60 122.18 10.90
7707 17.6100 130.00 119.91 11.40
7708 17.6120 117.90 117.94 11.00
7709 17.6140 118.60 116.21 11.00
7710 17.6160 101.40 114.68 10.20
7711 17.6180 110.00 113.32 10.40
7712 17.6200 116.80 112.11 10.80
7713 17.6220 119.70 111.03 11.00
7714 17.6240 125.20 110.06 11.30
7715 17.6260 104.30 109.18 10.30
7716 17.6280 118.70 108.39 10.80
7717 17.6300 105.60 107.68 10.30
7718 17.6320 103.60 107.03 10.20
7719 17.6340 100.70 106.42 10.20
7720 17.6360 92.70 105.88 9.70
7721 17.6380 103.10 105.39 10.10
7722 17.6400 125.90 104.93 11.20
7723 17.6420 104.80 104.52 10.30
7724 17.6440 100.00 104.14 10.10
7725 17.6460 101.70 103.79 10.20
7726 17.6480 108.60 103.46 10.40
7727 17.6500 106.80 103.17 10.30
7728 17.6520 104.80 102.89 10.40
7729 17.6540 92.90 102.64 9.70
7730 17.6560 88.30 102.41 9.50
7731 17.6580 104.50 102.19 10.10
7732 17.6600 93.50 101.99 9.70
7733 17.6620 101.10 101.82 10.10
7734 17.6640 92.70 101.65 9.80
7735 17.6660 105.60 101.50 10.30
7736 17.6680 95.50 101.36 9.70
7737 17.6700 111.40 101.24 10.50
7738 17.6720 118.60 101.14 11.00
7739 17.6740 105.60 101.04 10.40
7740 17.6760 91.40 100.96 9.60
7741 17.6780 101.10 100.89 10.00
7742 17.6800 100.40 100.84 10.00
7743 17.6820 127.50 100.80 11.40
7744 17.6840 111.40 100.77 10.70
7745 17.6860 107.10 100.76 10.40
7746 17.6880 105.60 100.78 10.20
7747 17.6900 107.90 100.81 10.40
7748 17.6920 101.60 100.86 10.10
7749 17.6940 99.50 100.94 10.10
7750 17.6960 101.60 101.05 10.10
7751 17.6980 99.50 101.19 9.90
7752 17.7000 93.10 101.38 9.60
7753 17.7020 110.00 101.63 10.50
7754 17.7040 101.10 101.94 10.20
7755 17.7060 119.20 102.34 11.00
7756 17.7080 96.80 102.85 9.80
7757 17.7100 113.10 103.52 10.60
7758 17.7120 96.00 104.39 9.90
7759 17.7140 121.00 105.55 11.10
7760 17.7160 107.20 107.14 10.40
7761 17.7180 127.50 109.35 11.20
7762 17.7200 105.50 112.44 10.30
7763 17.7220 133.30 116.79 11.60
7764 17.7240 110.10 122.77 10.60
7765 17.7260 131.30 130.55 11.50
7766 17.7280 132.10 139.26 11.50
7767 17.7300 131.60 146.19 11.50
7768 17.7320 125.90 147.36 11.30
7769 17.7340 156.40 141.93 12.60
7770 17.7360 129.70 133.31 11.50
7771 17.7380 148.10 124.99 12.10
7772 17.7400 145.10 118.37 12.00
7773 17.7420 141.30 113.49 12.00
7774 17.7440 102.80 109.98 10.20
7775 17.7460 113.60 107.48 10.80
7776 17.7480 110.00 105.68 10.40
7777 17.7500 106.30 104.36 10.30
7778 17.7520 99.90 103.38 10.10
7779 17.7540 119.90 102.63 11.10
7780 17.7560 123.30 102.05 11.20
7781 17.7580 120.20 101.60 10.90
7782 17.7600 126.10 101.25 11.20
7783 17.7620 117.50 100.98 10.90
7784 17.7640 120.10 100.78 11.10
7785 17.7660 102.70 100.64 10.20
7786 17.7680 121.40 100.57 11.00
7787 17.7700 107.20 99.46 10.40
7788 17.7720 117.80 99.53 11.00
7789 17.7740 95.80 99.67 9.90
7790 17.7760 116.10 99.91 10.90
7791 17.7780 99.30 100.29 9.90
7792 17.7800 94.60 100.84 9.80
7793 17.7820 101.90 101.65 10.10
7794 17.7840 91.60 102.82 9.70
7795 17.7860 95.80 104.45 9.90
7796 17.7880 103.90 106.57 10.20
7797 17.7900 108.20 108.95 10.40
7798 17.7920 105.00 110.79 10.30
7799 17.7940 112.90 111.03 10.80
7800 17.7960 101.30 109.47 10.10
7801 17.7980 98.10 107.09 9.90
7802 17.8000 108.40 104.82 10.40
7803 17.8020 101.00 103.03 10.10
7804 17.8040 89.60 101.71 9.60
7805 17.8060 84.40 100.77 9.30
7806 17.8080 100.80 100.11 10.00
7807 17.8100 97.30 99.63 9.80
7808 17.8120 96.10 99.29 9.90
7809 17.8140 100.60 99.04 10.10
7810 17.8160 123.40 99.06 11.20
7811 17.8180 110.40 98.93 10.50
7812 17.8200 114.30 98.83 10.70
7813 17.8220 88.10 98.77 9.50
7814 17.8240 108.60 98.73 10.50
7815 17.8260 116.20 98.71 10.90
7816 17.8280 112.30 98.71 10.60
7817 17.8300 97.20 98.73 9.90
7818 17.8320 90.90 98.76 9.60
7819 17.8340 100.70 98.81 10.10
7820 17.8360 91.30 98.88 9.70
7821 17.8380 102.80 98.97 10.10
7822 17.8400 83.20 99.08 9.10
7823 17.8420 122.00 99.22 11.10
7824 17.8440 104.10 99.39 10.30
7825 17.8460 99.10 99.59 10.00
7826 17.8480 102.40 99.84 10.10
7827 17.8500 110.00 100.15 10.50
7828 17.8520 119.40 100.53 11.00
7829 17.8540 102.90 101.00 10.30
7830 17.8560 85.10 101.62 9.30
7831 17.8580 106.90 102.44 10.30
7832 17.8600 131.80 103.54 11.50
7833 17.8620 113.80 105.06 10.70
7834 17.8640 99.40 107.17 10.10
7835 17.8660 98.50 110.10 10.00
7836 17.8680 117.60 114.08 10.80
7837 17.8700 110.50 119.11 10.50
7838 17.8720 111.90 124.46 10.60
7839 17.8740 93.20 128.10 9.80
7840 17.8760 108.20 127.85 10.60
7841 17.8780 103.90 123.91 10.20
7842 17.8800 104.60 118.66 10.20
7843 17.8820 116.20 113.93 10.80
7844 17.8840 104.00 110.31 10.30
7845 17.8860 103.30 107.71 10.30
7846 17.8880 109.80 105.92 10.40
7847 17.8900 125.90 104.72 11.20
7848 17.8920 95.20 103.95 9.80
7849 17.8940 100.30 103.51 10.10
7850 17.8960 96.80 103.32 10.00
7851 17.8980 102.20 103.37 10.10
7852 17.9000 114.00 103.68 10.70
7853 17.9020 108.10 104.26 10.40
7854 17.9040 116.20 105.14 10.90
7855 17.9060 102.50 106.29 10.30
7856 17.9080 102.70 107.51 10.10
7857 17.9100 121.20 108.43 11.00
7858 17.9120 123.60 108.87 11.10
7859 17.9140 122.60 109.18 11.20
7860 17.9160 116.00 109.89 10.90
7861 17.9180 115.40 111.28 10.70
7862 17.9200 112.40 113.30 10.60
7863 17.9220 137.80 115.33 11.80
7864 17.9240 134.60 116.26 11.70
7865 17.9260 120.30 115.38 11.00
7866 17.9280 128.20 113.32 11.30
7867 17.9300 120.70 111.16 11.00
7868 17.9320 99.30 109.52 10.00
7869 17.9340 124.90 108.54 11.30
7870 17.9360 133.70 108.17 11.60
7871 17.9380 113.00 108.32 10.60
7872 17.9400 124.90 108.93 11.20
7873 17.9420 121.90 110.00 11.10
7874 17.9440 114.10 111.63 10.80
7875 17.9460 133.50 114.02 11.70
7876 17.9480 118.30 117.36 10.80
7877 17.9500 117.70 121.56 10.80
7878 17.9520 122.40 125.89 11.10
7879 17.9540 145.90 128.75 12.20
7880 17.9560 131.50 129.04 11.50
7881 17.9580 144.50 127.67 12.00
7882 17.9600 125.90 126.56 11.20
7883 17.9620 120.60 127.03 11.00
7884 17.9640 130.40 129.64 11.50
7885 17.9660 146.80 134.65 12.20
7886 17.9680 131.40 141.89 11.40
7887 17.9700 156.40 150.07 12.50
7888 17.9720 124.70 158.37 11.20
7889 17.9740 145.90 160.37 12.20
7890 17.9760 163.70 159.33 12.90
7891 17.9780 170.60 158.67 13.00
7892 17.9800 145.30 160.15 12.10
7893 17.9820 155.70 162.41 12.60
7894 17.9840 144.50 161.91 12.20
7895 17.9860 159.50 156.46 12.80
7896 17.9880 144.40 147.98 12.00
7897 17.9900 144.30 139.74 12.00
7898 17.9920 163.40 133.39 12.90
7899 17.9940 147.70 129.17 12.30
7900 17.9960 157.50 126.83 12.70
7901 17.9980 131.40 126.14 11.40
7902 18.0000 126.60 126.99 11.30
7903 18.0020 146.40 129.54 12.10
7904 18.0040 155.90 134.32 12.60
7905 18.0060 160.40 142.62 12.80
7906 18.0080 163.70 157.49 12.70
7907 18.0100 204.60 185.24 14.30
7908 18.0120 236.10 235.33 15.50
7909 18.0140 323.40 308.83 18.20
7910 18.0160 337.80 355.83 18.60
7911 18.0180 271.80 320.53 16.40
7912 18.0200 243.20 264.97 15.60
7913 18.0220 253.30 227.65 16.00
7914 18.0240 176.00 201.26 13.40
7915 18.0260 200.50 179.17 14.30
7916 18.0280 178.90 160.97 13.30
7917 18.0300 149.50 147.06 12.30
7918 18.0320 136.80 136.94 11.70
7919 18.0340 139.10 129.75 11.90
7920 18.0360 146.00 124.68 12.20
7921 18.0380 142.90 121.10 11.90
7922 18.0400 145.60 118.60 12.10
7923 18.0420 148.10 116.90 12.20
7924 18.0440 154.50 115.82 12.60
7925 18.0460 152.90 115.30 12.50
7926 18.0480 135.80 115.29 11.60
7927 18.0500 134.90 115.76 11.60
7928 18.0520 128.20 116.60 11.40
7929 18.0540 138.30 117.49 11.80
7930 18.0560 136.80 117.99 11.80
7931 18.0580 118.60 118.05 10.80
7932 18.0600 139.90 118.19 11.80
7933 18.0620 124.20 118.98 11.20
7934 18.0640 150.70 120.72 12.40
7935 18.0660 144.30 123.46 12.10
7936 18.0680 145.20 126.68 12.00
7937 18.0700 134.10 129.05 11.50
7938 18.0720 137.60 128.96 11.80
7939 18.0740 154.70 126.35 12.60
7940 18.0760 162.30 122.73 12.90
7941 18.0780 130.30 119.45 11.40
7942 18.0800 115.80 116.96 10.70
7943 18.0820 111.20 115.23 10.60
7944 18.0840 136.20 114.10 11.80
7945 18.0860 121.50 113.43 11.20
7946 18.0880 138.70 113.11 11.70
7947 18.0900 129.80 113.04 11.40
7948 18.0920 119.20 113.19 10.90
7949 18.0940 121.00 113.53 11.10
7950 18.0960 129.10 114.07 11.50
7951 18.0980 127.10 114.84 11.20
7952 18.1000 149.10 115.87 12.20
7953 18.1020 128.60 117.25 11.30
7954 18.1040 123.70 119.08 11.20
7955 18.1060 140.30 121.53 11.90
7956 18.1080 149.10 124.70 12.20
7957 18.1100 135.60 128.55 11.60
7958 18.1120 119.30 132.53 11.00
7959 18.1140 154.40 135.40 12.50
7960 18.1160 133.40 136.11 11.60
7961 18.1180 150.70 135.12 12.20
7962 18.1200 149.70 137.77 12.20
7963 18.1220 144.80 137.49 12.00
7964 18.1240 169.50 138.51 13.10
7965 18.1260 173.70 141.03 13.30
7966 18.1280 141.30 145.26 11.80
7967 18.1300 142.10 151.47 11.90
7968 18.1320 144.70 159.76 12.10
7969 18.1340 164.00 169.59 12.90
7970 18.1360 170.00 179.42 13.10
7971 18.1380 162.40 187.38 12.70
7972 18.1400 158.70 191.83 12.60
7973 18.1420 177.20 190.92 13.30
7974 18.1440 164.30 184.86 12.90
7975 18.1460 171.50 176.95 13.20
7976 18.1480 171.50 170.25 13.10
7977 18.1500 160.20 165.88 12.60
7978 18.1520 169.90 163.79 13.00
7979 18.1540 161.40 163.59 12.80
7980 18.1560 196.20 164.94 14.10
7981 18.1580 171.10 167.59 12.90
7982 18.1600 172.30 171.41 13.10
7983 18.1620 190.50 176.40 13.80
7984 18.1640 205.30 182.60 14.40
7985 18.1660 212.60 190.15 14.70
7986 18.1680 217.60 199.29 14.70
7987 18.1700 223.20 210.35 14.90
7988 18.1720 260.90 223.76 16.20
7989 18.1740 311.80 240.20 17.90
7990 18.1760 342.70 260.50 18.60
7991 18.1780 370.60 285.94 19.20
7992 18.1800 432.50 318.29 20.70
7993 18.1820 521.00 360.21 23.00
7994 18.1840 613.80 415.83 25.00
7995 18.1860 741.40 491.46 27.60
7996 18.1880 894.80 598.32 29.90
7997 18.1900 994.10 756.31 31.80
7998 18.1920 1281.30 1005.51 36.10
7999 18.1940 1575.30 1425.06 40.50
8000 18.1960 2097.30 2150.69 46.80
8001 18.1980 2979.40 3353.58 55.20
8002 18.2000 4309.30 4971.28 67.50
8003 18.2020 5816.10 5973.29 79.40
8004 18.2040 5905.50 5128.27 80.50
8005 18.2060 4081.40 3492.38 65.70
8006 18.2080 2214.90 2239.88 47.60
8007 18.2100 1319.70 1480.64 36.40
8008 18.2120 853.00 1044.16 29.50
8009 18.2140 621.60 789.22 25.20
8010 18.2160 479.00 634.36 22.20
8011 18.2180 405.10 539.64 20.00
8012 18.2200 381.80 481.29 19.60
8013 18.2220 341.90 429.54 18.50
8014 18.2240 307.30 370.59 17.70
8015 18.2260 287.60 320.67 17.20
8016 18.2280 232.80 284.70 15.20
8017 18.2300 216.60 258.86 14.70
8018 18.2320 206.80 239.60 14.50
8019 18.2340 187.50 224.65 13.90
8020 18.2360 180.40 212.72 13.60
8021 18.2380 208.40 203.07 14.40
8022 18.2400 182.70 195.16 13.50
8023 18.2420 187.90 188.67 13.80
8024 18.2440 182.20 183.31 13.60
8025 18.2460 180.00 178.90 13.60
8026 18.2480 166.30 175.28 12.90
8027 18.2500 175.80 172.37 13.30
8028 18.2520 156.70 170.06 12.60
8029 18.2540 147.70 168.28 12.30
8030 18.2560 149.10 167.00 12.30
8031 18.2580 176.70 166.19 13.20
8032 18.2600 173.20 165.78 13.20
8033 18.2620 174.00 165.78 13.20
8034 18.2640 175.10 166.18 13.40
8035 18.2660 166.70 166.98 13.10
8036 18.2680 182.30 168.19 13.50
8037 18.2700 149.30 169.82 12.20
8038 18.2720 173.90 171.90 13.30
8039 18.2740 188.70 174.47 13.90
8040 18.2760 195.80 177.57 14.10
8041 18.2780 174.10 181.25 13.10
8042 18.2800 178.10 185.59 13.30
8043 18.2820 183.20 190.69 13.70
8044 18.2840 173.90 196.66 13.20
8045 18.2860 193.60 203.63 14.10
8046 18.2880 215.00 211.82 14.50
8047 18.2900 199.80 221.41 14.20
8048 18.2920 220.20 232.75 14.90
8049 18.2940 257.60 246.18 16.20
8050 18.2960 244.50 262.24 15.80
8051 18.2980 255.90 281.55 16.00
8052 18.3000 287.70 305.02 16.90
8053 18.3020 296.90 333.90 17.40
8054 18.3040 361.20 369.83 19.20
8055 18.3060 449.50 415.35 21.50
8056 18.3080 524.00 473.95 22.80
8057 18.3100 612.90 551.08 24.80
8058 18.3120 773.60 655.31 28.10
8059 18.3140 962.40 800.31 31.40
8060 18.3160 1252.00 1010.44 35.90
8061 18.3180 1644.10 1333.01 40.50
8062 18.3200 2302.00 1870.11 48.80
8063 18.3220 3097.30 2833.58 56.70
8064 18.3240 4948.00 4599.96 73.30
8065 18.3260 7070.00 7531.42 88.50
8066 18.3280 11138.20 10774.50 112.50
8067 18.3300 12122.70 10869.30 117.80
8068 18.3320 7866.80 7641.01 93.60
8069 18.3340 4935.70 4661.76 72.90
8070 18.3360 2791.30 2868.48 54.00
8071 18.3380 1894.70 1888.10 43.90
8072 18.3400 1251.30 1344.34 35.40
8073 18.3420 1008.30 1019.17 32.10
8074 18.3440 691.60 807.95 26.50
8075 18.3460 586.70 663.39 24.60
8076 18.3480 518.10 560.70 22.60
8077 18.3500 461.00 485.95 21.50
8078 18.3520 402.60 430.07 20.10
8079 18.3540 352.50 386.83 19.00
8080 18.3560 281.80 351.62 16.90
8081 18.3580 281.20 320.80 16.70
8082 18.3600 246.40 293.23 15.60
8083 18.3620 255.00 269.23 16.10
8084 18.3640 235.30 249.00 15.50
8085 18.3660 215.50 232.19 14.80
8086 18.3680 199.90 218.19 14.00
8087 18.3700 210.40 206.46 14.40
8088 18.3720 171.00 196.50 13.20
8089 18.3740 196.30 187.98 14.10
8090 18.3760 193.40 180.62 14.00
8091 18.3780 179.50 174.21 13.30
8092 18.3800 196.90 168.61 14.00
8093 18.3820 178.00 163.69 13.40
8094 18.3840 159.80 159.37 12.70
8095 18.3860 164.10 155.57 12.90
8096 18.3880 161.40 152.28 12.60
8097 18.3900 141.20 149.45 11.90
8098 18.3920 150.20 147.09 12.30
8099 18.3940 164.60 145.17 13.00
8100 18.3960 126.50 143.57 11.30
8101 18.3980 125.20 142.05 11.10
8102 18.4000 148.80 140.20 12.10
8103 18.4020 153.40 137.86 12.40
8104 18.4040 136.00 135.33 11.70
8105 18.4060 147.00 132.93 12.20
8106 18.4080 139.10 130.80 11.70
8107 18.4100 163.60 128.95 12.80
8108 18.4120 115.50 127.34 10.80
8109 18.4140 109.20 125.92 10.60
8110 18.4160 131.30 124.66 11.50
8111 18.4180 122.50 123.53 11.00
8112 18.4200 130.90 122.50 11.40
8113 18.4220 119.80 121.56 10.90
8114 18.4240 116.60 120.69 10.90
8115 18.4260 118.70 119.91 10.90
8116 18.4280 134.40 119.16 11.50
8117 18.4300 129.90 118.50 11.30
8118 18.4320 127.10 117.90 11.30
8119 18.4340 118.50 117.35 10.90
8120 18.4360 133.60 114.92 11.60
8121 18.4380 109.70 114.53 10.40
8122 18.4400 122.90 114.20 11.00
8123 18.4420 123.10 113.94 11.10
8124 18.4440 135.70 113.77 11.70
8125 18.4460 118.00 113.70 10.90
8126 18.4480 146.00 113.77 12.00
8127 18.4500 147.00 114.02 12.10
8128 18.4520 129.20 114.54 11.30
8129 18.4540 146.60 115.43 12.30
8130 18.4560 131.40 116.91 11.40
8131 18.4580 141.90 119.27 11.90
8132 18.4600 137.50 122.91 11.70
8133 18.4620 127.30 128.10 11.40
8134 18.4640 125.20 134.20 11.20
8135 18.4660 131.90 138.01 11.50
8136 18.4680 162.60 135.31 12.70
8137 18.4700 139.40 128.36 11.80
8138 18.4720 124.40 121.99 11.20
8139 18.4740 121.20 117.55 11.10
8140 18.4760 137.70 114.64 11.70
8141 18.4780 130.20 112.75 11.30
8142 18.4800 137.40 111.47 11.70
8143 18.4820 122.90 110.59 11.10
8144 18.4840 112.40 109.97 10.70
8145 18.4860 127.00 109.53 11.30
8146 18.4880 133.50 109.22 11.50
8147 18.4900 118.20 109.04 10.90
8148 18.4920 108.10 108.96 10.50
8149 18.4940 121.60 108.98 11.10
8150 18.4960 116.90 109.12 10.90
8151 18.4980 145.70 109.38 12.00
8152 18.5000 127.70 109.81 11.40
8153 18.5020 113.80 110.46 10.70
8154 18.5040 118.10 111.40 11.00
8155 18.5060 103.60 112.77 10.20
8156 18.5080 143.30 114.74 11.90
8157 18.5100 121.60 117.61 11.10
8158 18.5120 130.70 121.52 11.50
8159 18.5140 146.30 126.59 12.20
8160 18.5160 124.80 132.34 11.20
8161 18.5180 124.70 136.88 11.10
8162 18.5200 134.10 137.66 11.60
8163 18.5220 128.30 134.15 11.40
8164 18.5240 132.10 128.66 11.60
8165 18.5260 130.80 123.46 11.50
8166 18.5280 122.50 119.44 11.00
8167 18.5300 111.10 116.64 10.60
8168 18.5320 125.50 114.85 11.30
8169 18.5340 125.80 113.88 11.30
8170 18.5360 118.20 113.57 11.00
8171 18.5380 118.90 113.90 10.90
8172 18.5400 111.90 114.91 10.70
8173 18.5420 130.50 113.04 11.50
8174 18.5440 148.70 115.95 12.30
8175 18.5460 136.00 120.11 11.80
8176 18.5480 140.60 125.59 11.80
8177 18.5500 148.30 131.92 12.30
8178 18.5520 133.40 137.31 11.70
8179 18.5540 135.10 138.83 11.80
8180 18.5560 162.30 135.26 12.90
8181 18.5580 147.90 128.85 12.10
8182 18.5600 145.10 122.40 12.10
8183 18.5620 128.90 117.18 11.50
8184 18.5640 137.50 113.34 11.80
8185 18.5660 97.80 110.60 10.00
8186 18.5680 119.80 108.69 10.90
8187 18.5700 133.80 107.35 11.70
8188 18.5720 111.40 106.43 10.70
8189 18.5740 114.60 105.80 10.80
8190 18.5760 117.60 105.38 10.90
8191 18.5780 116.90 105.13 10.80
8192 18.5800 118.60 105.03 10.90
8193 18.5820 130.90 105.05 11.60
8194 18.5840 102.90 105.20 10.30
8195 18.5860 113.70 105.47 10.80
8196 18.5880 142.00 105.89 11.90
8197 18.5900 137.50 106.47 11.80
8198 18.5920 114.20 107.25 10.90
8199 18.5940 124.70 108.31 11.30
8200 18.5960 144.50 109.72 12.20
8201 18.5980 114.90 111.65 10.70
8202 18.6000 114.50 114.31 10.70
8203 18.6020 122.60 118.00 11.10
8204 18.6040 129.00 123.11 11.50
8205 18.6060 139.30 130.01 11.90
8206 18.6080 137.30 138.76 11.70
8207 18.6100 151.10 148.19 12.40
8208 18.6120 138.10 155.12 11.80
8209 18.6140 162.10 156.18 12.90
8210 18.6160 147.30 152.08 12.30
8211 18.6180 153.10 146.91 12.30
8212 18.6200 132.00 143.97 11.50
8213 18.6220 143.80 144.58 12.10
8214 18.6240 170.80 148.89 13.30
8215 18.6260 149.50 155.89 12.30
8216 18.6280 156.00 162.42 12.40
8217 18.6300 175.20 163.59 13.30
8218 18.6320 162.10 157.27 12.90
8219 18.6340 154.40 146.71 12.50
8220 18.6360 132.50 136.16 11.60
8221 18.6380 141.30 127.61 11.80
8222 18.6400 133.30 121.22 11.60
8223 18.6420 154.40 116.58 12.40
8224 18.6440 118.10 113.24 11.00
8225 18.6460 104.60 110.80 10.30
8226 18.6480 113.30 109.00 10.60
8227 18.6500 126.50 107.64 11.30
8228 18.6520 108.30 106.60 10.40
8229 18.6540 118.40 105.78 11.00
8230 18.6560 121.00 105.14 11.10
8231 18.6580 121.10 104.63 10.90
8232 18.6600 120.50 104.22 11.00
8233 18.6620 119.60 103.91 11.00
8234 18.6640 101.80 103.67 10.20
8235 18.6660 112.00 103.50 10.70
8236 18.6680 113.90 103.38 10.60
8237 18.6700 105.60 103.32 10.30
8238 18.6720 94.20 103.32 9.70
8239 18.6740 103.80 103.39 10.30
8240 18.6760 98.80 103.52 10.10
8241 18.6780 91.70 103.72 9.50
8242 18.6800 108.40 104.02 10.40
8243 18.6820 100.20 104.42 10.10
8244 18.6840 117.20 104.94 10.90
8245 18.6860 112.40 105.56 10.70
8246 18.6880 107.50 106.23 10.30
8247 18.6900 114.20 106.99 10.70
8248 18.6920 125.10 107.97 11.20
8249 18.6940 140.50 109.34 12.00
8250 18.6960 122.00 111.25 11.10
8251 18.6980 111.40 113.79 10.50
8252 18.7000 112.80 116.88 10.60
8253 18.7020 123.10 120.19 11.10
8254 18.7040 123.10 123.53 11.20
8255 18.7060 104.50 127.69 10.30
8256 18.7080 132.70 134.74 11.50
8257 18.7100 135.20 147.72 11.60
8258 18.7120 172.00 170.45 13.20
8259 18.7140 165.20 202.92 13.00
8260 18.7160 187.70 224.80 13.80
8261 18.7180 178.60 206.55 13.30
8262 18.7200 132.30 172.12 11.50
8263 18.7220 119.20 146.86 11.00
8264 18.7240 122.80 131.92 11.10
8265 18.7260 114.50 123.40 10.90
8266 18.7280 119.50 118.47 10.90
8267 18.7300 131.30 115.64 11.50
8268 18.7320 131.80 114.21 11.60
8269 18.7340 103.50 113.90 10.30
8270 18.7360 117.50 114.61 11.00
8271 18.7380 113.00 116.33 10.60
8272 18.7400 106.40 118.89 10.30
8273 18.7420 109.30 121.56 10.50
8274 18.7440 112.00 122.93 10.70
8275 18.7460 104.50 121.85 10.40
8276 18.7480 108.90 118.97 10.40
8277 18.7500 132.30 115.81 11.50
8278 18.7520 103.40 113.30 10.20
8279 18.7540 116.80 111.69 10.90
8280 18.7560 120.10 110.96 11.00
8281 18.7580 133.50 111.03 11.50
8282 18.7600 111.20 111.86 10.50
8283 18.7620 122.10 113.30 11.10
8284 18.7640 111.60 115.05 10.70
8285 18.7660 111.60 116.71 10.70
8286 18.7680 114.30 118.34 10.70
8287 18.7700 112.10 120.43 10.60
8288 18.7720 129.20 123.00 11.40
8289 18.7740 127.20 124.97 11.40
8290 18.7760 117.60 124.66 11.00
8291 18.7780 118.50 121.68 10.80
8292 18.7800 117.10 117.45 10.90
8293 18.7820 120.20 113.45 11.00
8294 18.7840 126.10 110.25 11.30
8295 18.7860 109.10 107.86 10.60
8296 18.7880 87.90 106.11 9.30
8297 18.7900 99.30 104.84 9.90
8298 18.7920 80.80 103.89 9.10
8299 18.7940 104.90 103.19 10.30
8300 18.7960 112.80 102.64 10.70
8301 18.7980 95.50 102.21 9.70
8302 18.8000 97.20 101.87 9.90
8303 18.8020 95.30 101.58 9.80
8304 18.8040 111.10 101.35 10.70
8305 18.8060 92.70 101.16 9.80
8306 18.8080 112.00 101.00 10.50
8307 18.8100 102.70 100.86 10.20
8308 18.8120 88.40 100.74 9.40
8309 18.8140 111.30 100.64 10.70
8310 18.8160 112.40 100.56 10.70
8311 18.8180 100.10 100.48 9.90
8312 18.8200 98.20 100.42 9.90
8313 18.8220 90.90 100.37 9.50
8314 18.8240 103.20 100.33 10.30
8315 18.8260 100.10 100.29 10.10
8316 18.8280 114.00 100.26 10.60
8317 18.8300 120.20 100.24 11.00
8318 18.8320 131.00 100.23 11.50
8319 18.8340 106.40 100.22 10.40
8320 18.8360 99.10 100.22 10.00
8321 18.8380 110.70 100.22 10.50
8322 18.8400 80.50 100.23 8.90
8323 18.8420 89.60 100.25 9.50
8324 18.8440 115.10 100.28 10.80
8325 18.8460 103.60 100.31 10.30
8326 18.8480 103.40 100.36 10.10
8327 18.8500 117.90 100.42 10.90
8328 18.8520 103.20 100.49 10.10
8329 18.8540 108.30 100.57 10.50
8330 18.8560 95.20 100.68 9.90
8331 18.8580 130.10 102.44 11.30
8332 18.8600 118.60 102.63 10.90
8333 18.8620 110.60 102.85 10.50
8334 18.8640 115.50 103.12 10.80
8335 18.8660 102.70 103.44 10.20
8336 18.8680 99.30 103.84 9.90
8337 18.8700 98.30 104.33 9.90
8338 18.8720 99.50 104.98 10.00
8339 18.8740 104.40 105.79 10.30
8340 18.8760 102.40 106.87 10.20
8341 18.8780 110.10 108.35 10.50
8342 18.8800 106.90 110.39 10.40
8343 18.8820 102.10 113.21 10.10
8344 18.8840 107.80 117.04 10.50
8345 18.8860 122.70 121.90 11.20
8346 18.8880 114.30 127.20 10.60
8347 18.8900 128.50 131.28 11.30
8348 18.8920 113.40 132.34 10.60
8349 18.8940 102.90 130.25 10.30
8350 18.8960 112.50 126.13 10.70
8351 18.8980 113.50 121.34 10.60
8352 18.9000 118.10 116.97 10.80
8353 18.9020 114.30 113.53 10.70
8354 18.9040 107.20 111.03 10.40
8355 18.9060 126.50 109.30 11.30
8356 18.9080 115.70 108.14 10.70
8357 18.9100 112.60 107.40 10.60
8358 18.9120 126.20 107.01 11.20
8359 18.9140 103.30 106.92 10.30
8360 18.9160 110.30 107.09 10.60
8361 18.9180 103.80 107.47 10.10
8362 18.9200 122.60 107.91 11.10
8363 18.9220 117.40 108.09 10.90
8364 18.9240 112.80 107.75 10.70
8365 18.9260 99.40 107.10 10.10
8366 18.9280 124.30 106.38 11.10
8367 18.9300 115.40 105.81 10.80
8368 18.9320 106.40 105.39 10.40
8369 18.9340 96.00 105.12 9.90
8370 18.9360 112.30 104.95 10.70
8371 18.9380 125.80 104.86 11.10
8372 18.9400 115.60 104.82 10.80
8373 18.9420 108.50 104.83 10.40
8374 18.9440 122.40 104.88 11.20
8375 18.9460 120.90 104.95 11.10
8376 18.9480 100.00 105.04 10.00
8377 18.9500 108.00 105.16 10.40
8378 18.9520 98.30 105.29 10.00
8379 18.9540 104.80 105.44 10.30
8380 18.9560 94.80 105.61 9.80
8381 18.9580 102.00 105.80 10.00
8382 18.9600 104.60 106.01 10.20
8383 18.9620 95.50 106.23 9.90
8384 18.9640 104.20 106.47 10.30
8385 18.9660 103.90 106.73 10.30
8386 18.9680 94.90 107.01 9.70
8387 18.9700 104.30 107.31 10.30
8388 18.9720 112.70 107.67 10.70
8389 18.9740 115.30 108.02 10.90
8390 18.9760 106.00 108.39 10.40
8391 18.9780 109.90 108.80 10.40
8392 18.9800 115.10 109.24 10.70
8393 18.9820 98.10 109.71 10.00
8394 18.9840 115.40 110.21 10.90
8395 18.9860 130.60 110.74 11.50
8396 18.9880 114.60 111.34 10.70
8397 18.9900 126.40 111.98 11.30
8398 18.9920 117.50 112.67 10.90
8399 18.9940 104.10 113.43 10.30
8400 18.9960 120.60 114.26 11.00
8401 18.9980 112.70 115.15 10.60
8402 19.0000 121.00 116.14 11.00
8403 19.0020 107.20 117.22 10.40
8404 19.0040 126.00 118.39 11.30
8405 19.0060 120.50 119.70 11.10
8406 19.0080 142.90 121.15 11.90
8407 19.0100 118.00 122.77 10.90
8408 19.0120 136.90 124.57 11.80
8409 19.0140 127.10 126.58 11.40
8410 19.0160 146.10 128.85 12.10
8411 19.0180 125.70 131.41 11.20
8412 19.0200 141.50 134.32 11.90
8413 19.0220 122.70 137.64 11.00
8414 19.0240 122.80 141.46 11.20
8415 19.0260 147.70 145.88 12.20
8416 19.0280 130.90 151.05 11.40
8417 19.0300 143.10 157.12 11.90
8418 19.0320 134.50 164.36 11.60
8419 19.0340 155.00 173.07 12.60
8420 19.0360 186.00 183.70 13.80
8421 19.0380 195.50 196.85 13.90
8422 19.0400 205.00 213.38 14.30
8423 19.0420 189.80 234.43 13.80
8424 19.0440 201.90 261.46 14.30
8425 19.0460 253.60 296.33 16.00
8426 19.0480 276.40 340.70 16.60
8427 19.0500 364.70 396.08 19.10
8428 19.0520 421.10 467.15 20.60
8429 19.0540 507.40 567.52 22.70
8430 19.0560 754.20 727.61 27.70
8431 19.0580 1002.00 1008.99 31.50
8432 19.0600 1633.80 1531.62 40.60
8433 19.0620 2672.60 2476.85 52.60
8434 19.0640 4355.80 3896.42 68.20
8435 19.0660 5240.70 4927.45 75.00
8436 19.0680 4107.50 4191.25 65.40
8437 19.0700 2598.60 2718.63 51.60
8438 19.0720 1867.20 1670.23 43.90
8439 19.0740 1207.00 1081.40 35.10
8440 19.0760 973.40 768.34 31.50
8441 19.0780 778.90 599.36 27.80
8442 19.0800 635.50 501.14 25.30
8443 19.0820 491.50 423.85 22.10
8444 19.0840 402.50 352.50 20.30
8445 19.0860 317.60 297.82 17.90
8446 19.0880 301.70 259.18 17.20
8447 19.0900 237.70 231.61 15.30
8448 19.0920 248.70 211.19 15.80
8449 19.0940 179.10 197.04 13.50
8450 19.0960 175.30 184.78 13.30
8451 19.0980 189.80 175.00 13.70
8452 19.1000 182.10 167.12 13.40
8453 19.1020 143.70 160.62 12.00
8454 19.1040 139.90 154.96 11.90
8455 19.1060 118.00 149.77 10.90
8456 19.1080 122.10 145.00 11.00
8457 19.1100 145.80 140.78 12.10
8458 19.1120 136.40 137.11 11.70
8459 19.1140 128.10 133.95 11.40
8460 19.1160 106.90 131.24 10.30
8461 19.1180 114.60 128.86 10.70
8462 19.1200 125.30 126.80 11.10
8463 19.1220 132.60 124.97 11.50
8464 19.1240 109.20 123.36 10.50
8465 19.1260 137.30 121.92 11.80
8466 19.1280 112.80 120.63 10.60
8467 19.1300 101.50 119.48 10.00
8468 19.1320 117.30 118.44 10.80
8469 19.1340 123.40 117.50 11.20
8470 19.1360 108.50 116.66 10.40
8471 19.1380 126.00 115.89 11.10
8472 19.1400 105.70 115.20 10.30
8473 19.1420 110.20 114.57 10.50
8474 19.1440 107.20 114.01 10.50
8475 19.1460 116.10 113.50 10.80
8476 19.1480 108.90 113.04 10.40
8477 19.1500 114.00 112.62 10.60
8478 19.1520 108.00 112.25 10.40
8479 19.1540 108.50 111.92 10.50
8480 19.1560 117.30 111.63 10.80
8481 19.1580 102.00 111.39 10.00
8482 19.1600 108.90 111.18 10.30
8483 19.1620 127.00 111.01 11.20
8484 19.1640 107.60 110.89 10.50
8485 19.1660 120.40 110.80 11.00
8486 19.1680 110.40 110.76 10.50
8487 19.1700 119.40 110.79 10.90
8488 19.1720 118.10 110.87 10.90
8489 19.1740 98.60 111.01 10.00
8490 19.1760 113.00 111.24 10.60
8491 19.1780 124.40 111.59 11.10
8492 19.1800 120.60 112.08 10.90
8493 19.1820 120.50 112.78 10.90
8494 19.1840 111.90 113.78 10.70
8495 19.1860 102.80 115.26 10.10
8496 19.1880 138.50 117.51 11.80
8497 19.1900 129.60 121.16 11.30
8498 19.1920 144.50 127.31 12.10
8499 19.1940 138.10 137.55 11.80
8500 19.1960 167.40 152.60 12.90
8501 19.1980 184.40 166.17 13.50
8502 19.2000 191.70 164.11 13.70
8503 19.2020 180.50 149.89 13.50
8504 19.2040 137.30 136.68 11.80
8505 19.2060 153.90 127.83 12.40
8506 19.2080 121.20 122.40 10.90
8507 19.2100 149.10 119.12 12.20
8508 19.2120 127.80 117.09 11.40
8509 19.2140 119.10 115.83 11.00
8510 19.2160 104.70 115.07 10.20
8511 19.2180 121.10 114.64 10.90
8512 19.2200 133.60 114.47 11.50
8513 19.2220 117.20 114.50 10.90
8514 19.2240 132.00 114.69 11.50
8515 19.2260 114.80 115.06 10.70
8516 19.2280 99.10 115.59 9.90
8517 19.2300 116.80 116.31 10.90
8518 19.2320 117.10 117.24 10.90
8519 19.2340 104.70 118.36 10.30
8520 19.2360 127.30 119.57 11.30
8521 19.2380 124.50 120.61 11.10
8522 19.2400 131.50 121.31 11.50
8523 19.2420 124.30 121.79 11.20
8524 19.2440 149.30 122.34 12.40
8525 19.2460 121.60 123.13 11.10
8526 19.2480 119.80 124.21 10.90
8527 19.2500 125.20 125.55 11.20
8528 19.2520 132.20 127.06 11.60
8529 19.2540 130.00 128.71 11.50
8530 19.2560 143.50 130.57 12.00
8531 19.2580 153.10 132.73 12.30
8532 19.2600 130.40 135.28 11.50
8533 19.2620 138.90 138.27 11.90
8534 19.2640 132.90 141.78 11.70
8535 19.2660 147.10 145.89 12.20
8536 19.2680 143.50 150.74 12.00
8537 19.2700 155.20 156.46 12.50
8538 19.2720 145.50 163.29 12.10
8539 19.2740 145.60 171.49 12.30
8540 19.2760 149.30 181.44 12.30
8541 19.2780 175.70 192.10 13.20
8542 19.2800 184.90 207.35 13.70
8543 19.2820 194.60 226.70 14.00
8544 19.2840 238.60 251.67 15.60
8545 19.2860 265.10 284.56 16.30
8546 19.2880 321.50 329.21 18.00
8547 19.2900 389.10 391.65 19.70
8548 19.2920 470.90 482.78 21.90
8549 19.2940 672.60 624.19 26.20
8550 19.2960 953.90 862.30 31.20
8551 19.2980 1407.60 1291.83 37.50
8552 19.3000 2149.70 2067.68 47.20
8553 19.3020 3671.10 3307.27 62.20
8554 19.3040 4800.70 4490.58 72.30
8555 19.3060 4163.00 4212.79 66.40
8556 19.3080 2954.60 2865.27 55.40
8557 19.3100 1834.10 1765.95 43.50
8558 19.3120 1277.70 1121.72 36.20
8559 19.3140 855.80 769.34 29.70
8560 19.3160 654.30 570.32 25.70
8561 19.3180 483.40 448.88 22.10
8562 19.3200 442.70 368.66 21.20
8563 19.3220 339.00 312.89 18.50
8564 19.3240 337.00 272.55 18.60
8565 19.3260 244.70 242.52 15.80
8566 19.3280 236.30 219.58 15.30
8567 19.3300 193.20 201.66 14.00
8568 19.3320 188.70 187.45 13.80
8569 19.3340 180.30 175.94 13.60
8570 19.3360 159.60 166.54 12.70
8571 19.3380 171.70 158.74 13.10
8572 19.3400 159.00 152.19 12.70
8573 19.3420 144.60 146.66 12.10
8574 19.3440 151.20 141.94 12.50
8575 19.3460 131.50 137.88 11.50
8576 19.3480 117.20 134.36 10.80
8577 19.3500 139.90 131.29 11.90
8578 19.3520 107.30 128.60 10.40
8579 19.3540 126.80 126.23 11.40
8580 19.3560 133.90 124.13 11.70
8581 19.3580 134.70 122.25 11.60
8582 19.3600 113.60 120.58 10.70
8583 19.3620 111.50 119.07 10.70
8584 19.3640 119.80 117.72 11.00
8585 19.3660 113.80 116.49 10.80
8586 19.3680 117.00 115.38 10.80
8587 19.3700 112.40 114.37 10.70
8588 19.3720 120.30 113.44 11.10
8589 19.3740 119.80 112.60 11.10
8590 19.3760 121.80 111.83 11.10
8591 19.3780 94.00 111.11 9.70
8592 19.3800 124.10 110.46 11.20
8593 19.3820 117.80 109.85 10.90
8594 19.3840 117.40 109.29 11.00
8595 19.3860 103.60 108.78 10.30
8596 19.3880 110.70 108.29 10.60
8597 19.3900 103.00 107.85 10.20
8598 19.3920 124.40 107.43 11.30
8599 19.3940 107.70 107.04 10.50
8600 19.3960 134.50 106.68 11.80
8601 19.3980 106.60 106.34 10.30
8602 19.4000 109.20 106.03 10.50
8603 19.4020 109.60 105.73 10.60
8604 19.4040 94.60 105.46 9.90
8605 19.4060 124.80 105.20 11.30
8606 19.4080 113.00 104.96 10.60
8607 19.4100 107.00 104.73 10.40
8608 19.4120 82.80 104.52 9.20
8609 19.4140 90.40 104.32 9.60
8610 19.4160 101.90 104.13 10.20
8611 19.4180 92.60 103.96 9.60
8612 19.4200 91.90 103.80 9.60
8613 19.4220 95.40 103.65 9.90
8614 19.4240 93.40 103.52 9.70
8615 19.4260 104.00 103.39 10.30
8616 19.4280 116.50 103.26 10.80
8617 19.4300 110.90 103.15 10.60
8618 19.4320 89.00 103.06 9.50
8619 19.4340 126.40 102.98 11.40
8620 19.4360 107.60 102.92 10.50
8621 19.4380 97.90 102.88 9.90
8622 19.4400 125.70 102.85 11.30
8623 19.4420 108.80 102.85 10.50
8624 19.4440 110.70 102.87 10.60
8625 19.4460 104.00 104.56 10.30
8626 19.4480 87.80 104.68 9.40
8627 19.4500 104.90 104.86 10.30
8628 19.4520 106.00 105.11 10.40
8629 19.4540 91.00 105.46 9.60
8630 19.4560 120.70 105.94 11.10
8631 19.4580 111.50 106.61 10.50
8632 19.4600 103.20 107.54 10.20
8633 19.4620 110.30 108.80 10.60
8634 19.4640 104.50 110.44 10.30
8635 19.4660 130.80 112.50 11.50
8636 19.4680 100.50 114.91 10.00
8637 19.4700 97.50 117.08 9.90
8638 19.4720 113.20 117.90 10.70
8639 19.4740 93.10 116.75 9.70
8640 19.4760 139.20 114.36 11.90
8641 19.4780 112.30 111.87 10.50
8642 19.4800 103.90 109.81 10.30
8643 19.4820 102.30 108.29 10.20
8644 19.4840 115.60 107.21 10.80
8645 19.4860 106.30 106.47 10.40
8646 19.4880 110.90 105.96 10.50
8647 19.4900 105.90 105.62 10.30
8648 19.4920 117.50 105.39 10.90
8649 19.4940 121.70 105.26 11.10
8650 19.4960 108.80 105.19 10.50
8651 19.4980 111.70 105.18 10.50
8652 19.5000 111.20 105.23 10.60
8653 19.5020 103.20 105.32 10.20
8654 19.5040 99.50 105.45 10.00
8655 19.5060 104.10 105.63 10.30
8656 19.5080 97.10 105.87 9.90
8657 19.5100 121.00 106.16 11.00
8658 19.5120 95.20 106.53 9.80
8659 19.5140 120.40 106.97 11.00
8660 19.5160 97.10 107.52 9.90
8661 19.5180 107.90 106.72 10.40
8662 19.5200 110.50 107.61 10.50
8663 19.5220 110.50 108.75 10.60
8664 19.5240 100.90 110.22 10.10
8665 19.5260 117.10 112.17 10.90
8666 19.5280 120.70 114.80 10.90
8667 19.5300 120.60 118.39 11.00
8668 19.5320 142.30 123.22 12.00
8669 19.5340 146.90 129.51 12.20
8670 19.5360 127.20 137.13 11.40
8671 19.5380 151.30 145.47 12.30
8672 19.5400 158.40 152.80 12.60
8673 19.5420 144.20 155.88 12.10
8674 19.5440 154.10 152.42 12.50
8675 19.5460 158.00 144.42 12.70
8676 19.5480 134.90 135.73 11.60
8677 19.5500 155.80 128.51 12.60
8678 19.5520 142.60 123.17 12.00
8679 19.5540 124.50 119.45 11.20
8680 19.5560 127.30 116.93 11.40
8681 19.5580 125.60 115.31 11.20
8682 19.5600 115.20 114.34 10.80
8683 19.5620 127.00 113.88 11.30
8684 19.5640 133.20 113.87 11.60
8685 19.5660 142.00 114.29 12.00
8686 19.5680 110.80 115.18 10.50
8687 19.5700 131.50 116.60 11.50
8688 19.5720 129.70 118.56 11.50
8689 19.5740 132.40 120.86 11.60
8690 19.5760 112.10 122.82 10.70
8691 19.5780 132.00 123.48 11.40
8692 19.5800 111.30 122.61 10.60
8693 19.5820 128.30 121.03 11.40
8694 19.5840 127.40 119.61 11.40
8695 19.5860 111.60 118.68 10.60
8696 19.5880 123.10 118.27 11.10
8697 19.5900 124.30 118.29 11.20
8698 19.5920 113.70 118.67 10.80
8699 19.5940 142.00 119.35 12.00
8700 19.5960 126.50 120.30 11.40
8701 19.5980 126.10 121.50 11.20
8702 19.6000 140.90 122.97 11.90
8703 19.6020 134.60 124.75 11.70
8704 19.6040 122.60 126.90 11.10
8705 19.6060 121.60 129.51 11.10
8706 19.6080 134.10 132.73 11.50
8707 19.6100 126.50 136.70 11.30
8708 19.6120 131.10 141.62 11.50
8709 19.6140 126.40 147.55 11.30
8710 19.6160 151.20 154.15 12.40
8711 19.6180 146.80 160.34 12.10
8712 19.6200 146.00 164.82 12.10
8713 19.6220 154.10 167.72 12.50
8714 19.6240 142.70 170.58 12.00
8715 19.6260 132.80 174.82 11.60
8716 19.6280 161.00 181.16 12.70
8717 19.6300 141.40 189.96 11.90
8718 19.6320 178.20 201.64 13.40
8719 19.6340 175.40 216.78 13.30
8720 19.6360 197.50 236.40 14.20
8721 19.6380 197.60 261.94 14.00
8722 19.6400 251.70 295.75 15.90
8723 19.6420 300.00 341.55 17.40
8724 19.6440 334.20 405.38 18.40
8725 19.6460 430.30 497.99 21.00
8726 19.6480 590.30 640.22 24.30
8727 19.6500 776.10 876.17 28.10
8728 19.6520 1318.40 1295.49 36.80
8729 19.6540 1926.90 2048.48 44.50
8730 19.6560 3595.30 3275.23 61.60
8731 19.6580 5257.00 4585.37 74.70
8732 19.6600 4602.20 4562.47 70.00
8733 19.6620 2982.10 3227.92 55.50
8734 19.6640 2112.60 2012.64 46.80
8735 19.6660 1383.60 1274.40 37.90
8736 19.6680 1074.50 865.13 32.70
8737 19.6700 777.10 634.41 28.10
8738 19.6720 654.30 495.18 25.70
8739 19.6740 478.40 404.35 22.00
8740 19.6760 414.40 342.04 20.50
8741 19.6780 314.50 297.74 17.70
8742 19.6800 272.10 265.60 16.50
8743 19.6820 242.90 241.96 15.60
8744 19.6840 210.20 224.50 14.50
8745 19.6860 179.60 211.84 13.60
8746 19.6880 197.70 202.76 14.00
8747 19.6900 174.70 195.57 13.20
8748 19.6920 194.50 187.93 14.00
8749 19.6940 147.50 178.55 12.20
8750 19.6960 134.80 168.43 11.70
8751 19.6980 147.20 159.12 12.10
8752 19.7000 156.30 151.28 12.60
8753 19.7020 130.50 144.89 11.40
8754 19.7040 147.50 139.70 12.20
8755 19.7060 132.50 135.43 11.60
8756 19.7080 122.90 131.88 11.10
8757 19.7100 118.20 128.87 10.90
8758 19.7120 148.00 126.28 12.20
8759 19.7140 124.30 124.03 11.20
8760 19.7160 112.60 122.06 10.70
8761 19.7180 137.60 120.31 11.70
8762 19.7200 111.20 118.76 10.60
8763 19.7220 128.20 117.37 11.40
8764 19.7240 115.20 116.11 10.80
8765 19.7260 110.30 114.98 10.60
8766 19.7280 113.20 113.95 10.60
8767 19.7300 119.50 113.02 10.90
8768 19.7320 101.90 112.16 10.10
8769 19.7340 115.60 111.38 10.80
8770 19.7360 124.10 110.66 11.20
8771 19.7380 118.20 110.00 10.90
8772 19.7400 116.40 109.39 10.80
8773 19.7420 118.00 108.83 10.90
8774 19.7440 115.70 108.31 10.90
8775 19.7460 100.10 107.83 10.10
8776 19.7480 116.70 107.39 10.80
8777 19.7500 95.50 106.97 9.80
8778 19.7520 111.80 106.59 10.60
8779 19.7540 110.70 106.23 10.50
8780 19.7560 100.30 105.90 10.10
8781 19.7580 101.60 105.59 10.10
8782 19.7600 103.30 105.31 10.20
8783 19.7620 104.00 105.05 10.20
8784 19.7640 125.50 104.80 11.30
8785 19.7660 97.70 104.58 10.00
8786 19.7680 103.50 104.38 10.10
8787 19.7700 99.80 104.19 10.00
8788 19.7720 106.30 104.03 10.40
8789 19.7740 107.60 103.88 10.50
8790 19.7760 124.20 103.76 11.20
8791 19.7780 101.00 103.66 10.10
8792 19.7800 120.50 103.58 11.00
8793 19.7820 112.90 103.53 10.70
8794 19.7840 89.90 103.52 9.50
8795 19.7860 96.50 103.55 10.00
8796 19.7880 91.50 103.64 9.50
8797 19.7900 114.30 103.80 10.70
8798 19.7920 112.90 104.06 10.70
8799 19.7940 109.20 104.46 10.50
8800 19.7960 102.90 105.00 10.30
8801 19.7980 104.20 105.68 10.20
8802 19.8000 120.40 106.35 11.00
8803 19.8020 114.70 106.75 10.80
8804 19.8040 110.90 106.77 10.70
8805 19.8060 114.30 106.57 10.80
8806 19.8080 99.60 106.39 10.00
8807 19.8100 103.20 106.38 10.20
8808 19.8120 102.40 106.60 10.20
8809 19.8140 129.80 107.15 11.50
8810 19.8160 123.20 108.12 11.20
8811 19.8180 120.60 109.62 11.00
8812 19.8200 103.70 111.73 10.20
8813 19.8220 119.80 114.42 11.00
8814 19.8240 134.60 117.31 11.70
8815 19.8260 125.70 119.59 11.30
8816 19.8280 125.50 120.59 11.20
8817 19.8300 106.90 120.79 10.40
8818 19.8320 119.70 121.32 11.00
8819 19.8340 102.00 122.82 10.20
8820 19.8360 123.90 124.97 11.30
8821 19.8380 133.90 126.66 11.50
8822 19.8400 124.40 127.14 11.20
8823 19.8420 132.20 127.19 11.60
8824 19.8440 121.10 128.26 11.10
8825 19.8460 145.50 131.29 12.10
8826 19.8480 126.00 136.02 11.20
8827 19.8500 146.70 140.74 12.10
8828 19.8520 151.50 142.26 12.40
8829 19.8540 120.20 138.68 11.00
8830 19.8560 114.80 131.79 10.90
8831 19.8580 108.50 124.55 10.40
8832 19.8600 133.20 118.56 11.50
8833 19.8620 118.20 114.04 10.90
8834 19.8640 133.40 110.77 11.60
8835 19.8660 119.60 108.42 11.10
8836 19.8680 108.00 106.75 10.40
8837 19.8700 111.70 105.57 10.60
8838 19.8720 97.90 104.76 10.00
8839 19.8740 105.10 104.24 10.30
8840 19.8760 107.80 102.43 10.50
8841 19.8780 90.90 102.39 9.50
8842 19.8800 88.70 102.43 9.40
8843 19.8820 79.60 102.32 9.00
8844 19.8840 102.30 101.92 10.20
8845 19.8860 96.80 101.32 10.00
8846 19.8880 103.30 100.71 10.10
8847 19.8900 102.00 100.20 10.10
8848 19.8920 105.40 99.77 10.30
8849 19.8940 106.60 99.42 10.40
8850 19.8960 108.70 99.13 10.50
8851 19.8980 99.70 98.89 10.00
8852 19.9000 96.80 98.70 9.90
8853 19.9020 98.20 98.55 10.00
8854 19.9040 132.00 98.43 11.50
8855 19.9060 104.90 98.34 10.40
8856 19.9080 120.50 98.27 11.00
8857 19.9100 94.50 98.21 9.70
8858 19.9120 100.10 98.17 10.00
8859 19.9140 101.60 98.14 10.10
8860 19.9160 103.90 98.12 10.30
8861 19.9180 105.50 98.10 10.20
8862 19.9200 109.60 98.11 10.50
8863 19.9220 110.60 98.12 10.50
8864 19.9240 107.10 98.15 10.40
8865 19.9260 100.10 98.19 10.10
8866 19.9280 102.40 98.25 10.20
8867 19.9300 92.40 98.32 9.60
8868 19.9320 88.80 98.41 9.40
8869 19.9340 100.20 98.52 10.10
8870 19.9360 106.00 98.65 10.40
8871 19.9380 116.70 98.82 10.80
8872 19.9400 105.60 99.02 10.30
8873 19.9420 106.20 99.27 10.30
8874 19.9440 100.20 99.58 10.10
8875 19.9460 127.30 99.96 11.40
8876 19.9480 110.50 100.44 10.50
8877 19.9500 93.50 101.06 9.70
8878 19.9520 109.60 101.86 10.50
8879 19.9540 104.30 102.93 10.20
8880 19.9560 126.00 104.40 11.40
8881 19.9580 115.00 106.41 10.60
8882 19.9600 115.60 109.17 10.80
8883 19.9620 106.20 112.87 10.30
8884 19.9640 105.90 117.50 10.40
8885 19.9660 112.10 122.40 10.70
8886 19.9680 107.50 125.95 10.30
8887 19.9700 113.90 126.75 10.70
8888 19.9720 121.40 125.56 11.10
8889 19.9740 117.80 124.43 10.90
8890 19.9760 113.50 124.51 10.80
8891 19.9780 103.60 125.42 10.20
8892 19.9800 111.40 125.51 10.60
8893 19.9820 99.80 123.41 10.00
8894 19.9840 121.70 119.62 11.10
8895 19.9860 117.90 115.56 11.00
8896 19.9880 112.10 113.22 10.50
8897 19.9900 112.20 110.61 10.60
8898 19.9920 114.80 108.80 10.80
8899 19.9940 105.40 107.75 10.30
8900 19.9960 124.10 107.42 11.30
8901 19.9980 102.40 107.77 10.10
8902 20.0000 111.00 108.70 10.60
8903 20.0020 115.30 109.89 10.80
8904 20.0040 92.90 110.62 9.70
8905 20.0060 119.60 110.16 11.10
8906 20.0080 118.50 108.58 10.90
8907 20.0100 116.60 106.64 10.80
8908 20.0120 101.90 104.92 10.20
8909 20.0140 107.20 103.60 10.40
8910 20.0160 105.10 102.64 10.40
8911 20.0180 85.80 101.97 9.20
8912 20.0200 92.80 101.51 9.70
8913 20.0220 126.00 101.21 11.30
8914 20.0240 105.10 101.02 10.30
8915 20.0260 75.90 100.92 8.80
8916 20.0280 108.70 100.91 10.40
8917 20.0300 102.20 100.97 10.10
8918 20.0320 105.30 101.11 10.30
8919 20.0340 128.80 101.33 11.40
8920 20.0360 93.60 101.65 9.80
8921 20.0380 110.50 102.11 10.50
8922 20.0400 100.80 102.72 10.10
8923 20.0420 100.80 103.53 10.10
8924 20.0440 96.40 104.60 9.80
8925 20.0460 118.90 105.98 11.00
8926 20.0480 108.30 107.76 10.40
8927 20.0500 108.20 110.21 10.40
8928 20.0520 110.30 113.68 10.60
8929 20.0540 122.50 118.73 11.10
8930 20.0560 133.20 126.29 11.70
8931 20.0580 118.50 138.31 10.80
8932 20.0600 156.70 157.81 12.50
8933 20.0620 173.40 182.41 13.30
8934 20.0640 183.70 190.16 13.70
8935 20.0660 174.90 168.66 13.40
8936 20.0680 145.70 143.19 12.10
8937 20.0700 130.80 126.39 11.50
8938 20.0720 100.20 116.90 10.10
8939 20.0740 105.90 111.45 10.30
8940 20.0760 109.60 108.19 10.60
8941 20.0780 116.80 106.11 10.80
8942 20.0800 111.80 104.68 10.60
8943 20.0820 101.50 103.68 10.10
8944 20.0840 125.80 102.95 11.30
8945 20.0860 88.70 102.42 9.50
8946 20.0880 104.90 102.02 10.20
8947 20.0900 112.30 101.72 10.60
8948 20.0920 102.80 101.50 10.20
8949 20.0940 95.90 101.35 9.80
8950 20.0960 101.70 101.23 10.20
8951 20.0980 91.80 101.16 9.50
8952 20.1000 91.40 101.12 9.60
8953 20.1020 112.00 101.11 10.60
8954 20.1040 94.30 101.12 9.80
8955 20.1060 80.60 101.16 9.10
8956 20.1080 93.20 101.22 9.60
8957 20.1100 88.80 101.30 9.40
8958 20.1120 105.00 101.40 10.30
8959 20.1140 104.90 101.52 10.30
8960 20.1160 114.40 101.67 10.80
8961 20.1180 96.30 101.85 9.80
8962 20.1200 111.30 102.06 10.60
8963 20.1220 77.30 102.32 8.80
8964 20.1240 117.30 102.62 10.90
8965 20.1260 114.10 102.96 10.80
8966 20.1280 110.80 103.30 10.50
8967 20.1300 91.20 103.59 9.50
8968 20.1320 108.80 103.80 10.50
8969 20.1340 113.20 103.97 10.70
8970 20.1360 103.50 104.13 10.20
8971 20.1380 94.70 104.30 9.70
8972 20.1400 107.30 104.50 10.40
8973 20.1420 122.80 104.75 11.10
8974 20.1440 95.60 105.06 9.80
8975 20.1460 99.90 105.42 10.10
8976 20.1480 121.00 105.83 11.00
8977 20.1500 106.70 106.29 10.30
8978 20.1520 107.30 106.80 10.40
8979 20.1540 117.20 107.37 10.90
8980 20.1560 113.90 108.00 10.70
8981 20.1580 114.70 108.69 10.60
8982 20.1600 110.30 109.46 10.50
8983 20.1620 90.90 110.31 9.50
8984 20.1640 119.00 111.26 10.90
8985 20.1660 98.60 112.34 10.00
8986 20.1680 111.50 113.56 10.50
8987 20.1700 114.90 114.96 10.70
8988 20.1720 109.50 116.59 10.50
8989 20.1740 113.90 118.53 10.70
8990 20.1760 102.70 120.85 10.20
8991 20.1780 100.00 123.71 10.00
8992 20.1800 127.60 127.24 11.30
8993 20.1820 123.50 131.57 11.10
8994 20.1840 108.10 136.66 10.50
8995 20.1860 128.60 141.89 11.40
8996 20.1880 120.40 146.06 11.00
8997 20.1900 133.60 148.35 11.60
8998 20.1920 123.10 149.49 11.20
8999 20.1940 153.50 150.93 12.40
9000 20.1960 144.40 153.53 12.10
9001 20.1980 180.20 157.66 13.40
9002 20.2000 173.90 163.44 13.20
9003 20.2020 180.60 171.07 13.50
9004 20.2040 212.60 180.82 14.60
9005 20.2060 211.90 193.23 14.70
9006 20.2080 234.00 209.02 15.20
9007 20.2100 278.00 229.32 16.70
9008 20.2120 284.60 255.89 17.00
9009 20.2140 357.00 291.35 19.00
9010 20.2160 448.00 340.05 21.40
9011 20.2180 547.70 409.37 23.50
9012 20.2200 634.90 512.90 25.30
9013 20.2220 775.70 676.78 28.20
9014 20.2240 1001.50 948.37 32.00
9015 20.2260 1418.00 1401.71 38.50
9016 20.2280 1894.30 2103.34 43.80
9017 20.2300 2662.70 2920.81 52.60
9018 20.2320 3346.80 3202.35 59.60
9019 20.2340 3036.00 2596.79 56.40
9020 20.2360 1864.60 1778.27 44.10
9021 20.2380 1257.30 1183.82 35.80
9022 20.2400 750.10 817.73 27.50
9023 20.2420 492.20 599.81 22.30
9024 20.2440 399.20 466.26 20.00
9025 20.2460 312.40 380.20 17.90
9026 20.2480 292.60 321.86 17.10
9027 20.2500 237.70 280.69 15.50
9028 20.2520 205.70 251.15 14.40
9029 20.2540 190.60 229.90 13.80
9030 20.2560 193.60 215.06 14.10
9031 20.2580 165.00 205.38 12.80
9032 20.2600 186.40 199.92 13.70
9033 20.2620 163.60 197.09 12.90
9034 20.2640 164.00 193.87 12.80
9035 20.2660 159.20 187.08 12.80
9036 20.2680 157.90 176.64 12.60
9037 20.2700 138.60 165.29 11.80
9038 20.2720 153.40 155.24 12.50
9039 20.2740 153.60 147.14 12.50
9040 20.2760 113.00 140.86 10.80
9041 20.2780 143.20 136.03 11.90
9042 20.2800 135.60 132.39 11.70
9043 20.2820 140.60 129.79 11.90
9044 20.2840 163.20 128.25 12.90
9045 20.2860 128.50 128.06 11.50
9046 20.2880 152.00 129.36 12.30
9047 20.2900 157.70 130.84 12.60
9048 20.2920 139.80 129.11 11.90
9049 20.2940 146.10 124.85 12.10
9050 20.2960 108.30 121.28 10.50
9051 20.2980 128.00 119.09 11.30
9052 20.3000 112.50 117.94 10.60
9053 20.3020 140.60 117.47 11.90
9054 20.3040 119.50 117.48 11.00
9055 20.3060 120.30 117.82 11.10
9056 20.3080 127.50 118.53 11.30
9057 20.3100 103.60 119.83 10.20
9058 20.3120 121.70 121.98 11.10
9059 20.3140 130.90 125.15 11.50
9060 20.3160 127.70 129.25 11.30
9061 20.3180 148.90 133.58 12.20
9062 20.3200 142.70 137.16 11.90
9063 20.3220 133.40 139.85 11.60
9064 20.3240 148.90 142.51 12.20
9065 20.3260 151.10 145.06 12.50
9066 20.3280 142.40 145.85 11.90
9067 20.3300 144.90 143.86 12.10
9068 20.3320 157.50 140.59 12.60
9069 20.3340 157.10 138.35 12.60
9070 20.3360 129.80 138.54 11.50
9071 20.3380 132.70 141.75 11.50
9072 20.3400 133.80 148.22 11.60
9073 20.3420 157.60 157.58 12.60
9074 20.3440 143.30 167.91 12.10
9075 20.3460 171.50 175.29 13.30
9076 20.3480 151.80 176.29 12.30
9077 20.3500 175.50 171.48 13.20
9078 20.3520 159.80 164.93 12.80
9079 20.3540 167.00 159.95 13.00
9080 20.3560 148.30 156.56 12.30
9081 20.3580 143.00 152.26 11.90
9082 20.3600 145.70 145.21 12.10
9083 20.3620 139.00 136.54 11.80
9084 20.3640 137.90 128.40 11.80
9085 20.3660 109.90 121.81 10.60
9086 20.3680 147.60 116.80 12.20
9087 20.3700 145.30 113.06 12.00
9088 20.3720 129.60 110.27 11.40
9089 20.3740 117.80 108.15 10.90
9090 20.3760 104.10 106.51 10.20
9091 20.3780 108.90 105.22 10.40
9092 20.3800 128.10 104.18 11.30
9093 20.3820 120.80 103.33 11.00
9094 20.3840 115.10 102.63 10.70
9095 20.3860 90.50 102.05 9.60
9096 20.3880 123.30 101.56 11.00
9097 20.3900 116.00 101.14 10.80
9098 20.3920 114.20 100.80 10.70
9099 20.3940 109.60 100.52 10.50
9100 20.3960 79.00 100.30 9.00
9101 20.3980 109.50 100.14 10.40
9102 20.4000 95.70 100.04 9.80
9103 20.4020 98.60 100.01 9.90
9104 20.4040 121.80 100.08 11.10
9105 20.4060 93.70 100.28 9.70
9106 20.4080 114.70 100.63 10.70
9107 20.4100 102.20 101.19 10.10
9108 20.4120 109.90 101.98 10.50
9109 20.4140 99.40 102.95 10.00
9110 20.4160 105.90 103.82 10.40
9111 20.4180 111.30 104.13 10.50
9112 20.4200 97.10 103.60 9.80
9113 20.4220 95.50 102.53 9.80
9114 20.4240 107.90 101.38 10.40
9115 20.4260 95.40 100.42 9.80
9116 20.4280 106.00 99.69 10.20
9117 20.4300 92.30 99.16 9.60
9118 20.4320 97.80 98.78 9.90
9119 20.4340 98.60 98.52 10.00
9120 20.4360 123.90 98.34 11.10
9121 20.4380 91.30 98.23 9.50
9122 20.4400 108.60 98.18 10.30
9123 20.4420 113.20 98.18 10.60
9124 20.4440 114.80 98.24 10.80
9125 20.4460 101.50 98.34 10.10
9126 20.4480 98.10 98.52 9.80
9127 20.4500 102.00 98.78 10.10
9128 20.4520 109.20 99.14 10.40
9129 20.4540 105.20 99.65 10.30
9130 20.4560 105.00 100.39 10.30
9131 20.4580 123.80 101.45 11.00
9132 20.4600 125.10 103.07 11.20
9133 20.4620 105.20 105.65 10.30
9134 20.4640 134.90 109.83 11.70
9135 20.4660 98.90 116.46 10.00
9136 20.4680 110.80 125.64 10.50
9137 20.4700 138.70 133.61 11.80
9138 20.4720 144.10 132.85 12.10
9139 20.4740 123.20 124.56 11.20
9140 20.4760 126.00 116.31 11.30
9141 20.4780 128.10 109.82 11.30
9142 20.4800 117.20 106.83 10.80
9143 20.4820 116.80 105.51 10.80
9144 20.4840 103.50 105.37 10.20
9145 20.4860 116.10 106.20 10.90
9146 20.4880 119.40 108.00 10.90
9147 20.4900 95.80 110.86 9.80
9148 20.4920 121.50 114.78 11.10
9149 20.4940 118.30 119.31 11.00
9150 20.4960 128.70 122.98 11.40
9151 20.4980 126.10 123.78 11.30
9152 20.5000 128.50 121.31 11.40
9153 20.5020 133.10 117.34 11.60
9154 20.5040 124.90 113.71 11.20
9155 20.5060 105.80 111.24 10.30
9156 20.5080 121.60 110.10 11.00
9157 20.5100 108.90 110.29 10.50
9158 20.5120 134.50 111.85 11.70
9159 20.5140 116.30 114.87 10.80
9160 20.5160 128.70 119.32 11.40
9161 20.5180 101.90 124.50 10.10
9162 20.5200 116.90 128.39 10.90
9163 20.5220 111.50 128.41 10.70
9164 20.5240 102.90 124.26 10.20
9165 20.5260 123.00 118.31 11.10
9166 20.5280 124.20 112.72 11.20
9167 20.5300 108.80 108.31 10.50
9168 20.5320 113.40 105.06 10.70
9169 20.5340 99.00 102.71 10.00
9170 20.5360 122.90 101.05 11.20
9171 20.5380 115.80 99.86 10.70
9172 20.5400 108.60 99.03 10.50
9173 20.5420 114.70 98.47 10.80
9174 20.5440 130.10 98.13 11.50
9175 20.5460 119.90 97.96 11.10
9176 20.5480 98.50 97.87 9.90
9177 20.5500 86.90 97.73 9.40
9178 20.5520 81.10 97.39 9.10
9179 20.5540 89.20 96.91 9.50
9180 20.5560 85.20 96.42 9.30
9181 20.5580 107.20 96.00 10.40
9182 20.5600 87.40 95.66 9.50
9183 20.5620 95.20 95.41 9.90
9184 20.5640 100.50 95.21 10.10
9185 20.5660 100.40 95.06 10.10
9186 20.5680 93.00 94.96 9.70
9187 20.5700 95.70 94.89 9.90
9188 20.5720 88.60 94.83 9.50
9189 20.5740 101.00 94.76 10.10
9190 20.5760 105.90 94.69 10.40
9191 20.5780 78.60 94.62 8.90
9192 20.5800 112.00 94.55 10.70
9193 20.5820 106.80 94.51 10.40
9194 20.5840 106.30 94.48 10.40
9195 20.5860 96.50 94.48 10.00
9196 20.5880 83.30 94.48 9.20
9197 20.5900 95.00 94.51 9.80
9198 20.5920 102.70 94.55 10.30
9199 20.5940 104.70 94.62 10.30
9200 20.5960 96.30 94.71 9.90
9201 20.5980 112.80 94.83 10.60
9202 20.6000 108.00 94.99 10.50
9203 20.6020 101.00 95.20 10.10
9204 20.6040 91.70 95.47 9.60
9205 20.6060 97.40 95.84 10.00
9206 20.6080 102.30 96.33 10.10
9207 20.6100 109.50 97.01 10.50
9208 20.6120 114.10 97.96 10.80
9209 20.6140 109.60 99.27 10.50
9210 20.6160 111.30 101.08 10.70
9211 20.6180 118.20 103.46 10.80
9212 20.6200 103.90 106.27 10.20
9213 20.6220 116.10 108.90 10.90
9214 20.6240 110.80 110.40 10.60
9215 20.6260 111.00 110.11 10.70
9216 20.6280 94.40 108.16 9.70
9217 20.6300 90.20 106.36 9.60
9218 20.6320 108.30 103.70 10.50
9219 20.6340 114.10 101.57 10.70
9220 20.6360 110.10 100.00 10.60
9221 20.6380 102.00 98.90 10.10
9222 20.6400 102.20 98.14 10.10
9223 20.6420 100.70 97.65 10.20
9224 20.6440 108.80 97.35 10.50
9225 20.6460 100.80 97.21 10.10
9226 20.6480 94.90 97.21 9.70
9227 20.6500 104.30 97.35 10.30
9228 20.6520 101.50 97.66 10.10
9229 20.6540 106.70 98.18 10.40
9230 20.6560 101.40 98.97 10.20
9231 20.6580 99.50 100.07 10.00
9232 20.6600 118.90 101.47 10.90
9233 20.6620 99.80 102.93 10.10
9234 20.6640 100.40 103.89 10.00
9235 20.6660 104.40 103.79 10.30
9236 20.6680 115.70 102.79 10.70
9237 20.6700 104.40 101.54 10.20
9238 20.6720 99.90 100.53 10.10
9239 20.6740 95.10 99.93 9.80
9240 20.6760 114.90 99.75 10.80
9241 20.6780 110.60 100.00 10.50
9242 20.6800 101.40 100.67 10.10
9243 20.6820 85.20 101.77 9.30
9244 20.6840 96.00 103.19 9.80
9245 20.6860 104.50 104.54 10.30
9246 20.6880 96.80 105.43 9.80
9247 20.6900 101.80 106.08 10.10
9248 20.6920 103.70 107.46 10.30
9249 20.6940 93.60 110.46 9.70
9250 20.6960 106.30 114.12 10.40
9251 20.6980 121.60 113.95 11.00
9252 20.7000 113.40 109.32 10.70
9253 20.7020 99.20 104.86 10.10
9254 20.7040 108.80 102.11 10.40
9255 20.7060 110.50 100.67 10.60
9256 20.7080 114.30 100.07 10.70
9257 20.7100 108.30 99.99 10.50
9258 20.7120 86.50 100.36 9.40
9259 20.7140 92.30 101.15 9.60
9260 20.7160 98.20 102.46 9.90
9261 20.7180 104.00 104.39 10.20
9262 20.7200 122.00 107.03 11.00
9263 20.7220 102.80 110.17 10.20
9264 20.7240 109.80 112.97 10.50
9265 20.7260 88.30 114.03 9.50
9266 20.7280 110.00 112.64 10.50
9267 20.7300 106.10 109.82 10.30
9268 20.7320 101.60 106.94 10.10
9269 20.7340 125.20 104.66 11.30
9270 20.7360 102.00 102.97 10.10
9271 20.7380 104.30 101.72 10.20
9272 20.7400 85.50 100.73 9.30
9273 20.7420 104.30 99.99 10.30
9274 20.7440 117.80 99.48 10.90
9275 20.7460 102.70 99.20 10.20
9276 20.7480 111.30 99.11 10.60
9277 20.7500 104.80 99.21 10.30
9278 20.7520 112.90 99.50 10.70
9279 20.7540 106.50 100.00 10.40
9280 20.7560 100.70 100.74 10.10
9281 20.7580 107.90 101.76 10.40
9282 20.7600 124.20 103.13 11.20
9283 20.7620 111.50 105.01 10.60
9284 20.7640 106.90 107.51 10.40
9285 20.7660 105.30 110.50 10.40
9286 20.7680 105.20 113.20 10.30
9287 20.7700 132.40 114.21 11.50
9288 20.7720 113.10 112.84 10.70
9289 20.7740 112.30 110.01 10.60
9290 20.7760 131.30 107.07 11.60
9291 20.7780 109.10 104.68 10.40
9292 20.7800 108.50 102.92 10.50
9293 20.7820 113.70 101.68 10.70
9294 20.7840 117.60 100.84 10.90
9295 20.7860 123.20 100.28 11.20
9296 20.7880 121.50 99.92 11.00
9297 20.7900 105.10 99.70 10.30
9298 20.7920 121.70 99.58 11.20
9299 20.7940 100.50 99.54 10.00
9300 20.7960 94.90 99.56 9.80
9301 20.7980 100.20 99.63 10.00
9302 20.8000 103.20 99.75 10.20
9303 20.8020 99.30 99.90 10.00
9304 20.8040 114.10 100.09 10.70
9305 20.8060 105.00 100.31 10.40
9306 20.8080 106.90 100.57 10.30
9307 20.8100 92.00 100.86 9.60
9308 20.8120 107.70 101.18 10.40
9309 20.8140 90.20 101.54 9.50
9310 20.8160 100.60 101.93 10.10
9311 20.8180 84.00 102.37 9.10
9312 20.8200 88.50 102.84 9.40
9313 20.8220 100.40 103.36 10.00
9314 20.8240 121.30 103.93 11.00
9315 20.8260 104.20 104.56 10.30
9316 20.8280 105.40 105.24 10.20
9317 20.8300 85.20 106.00 9.30
9318 20.8320 88.00 106.83 9.40
9319 20.8340 107.90 107.76 10.40
9320 20.8360 110.20 108.79 10.60
9321 20.8380 131.70 109.95 11.40
9322 20.8400 97.40 111.26 9.90
9323 20.8420 109.90 112.76 10.50
9324 20.8440 104.80 114.48 10.20
9325 20.8460 118.90 116.44 11.00
9326 20.8480 100.60 118.61 10.00
9327 20.8500 119.90 120.84 11.00
9328 20.8520 127.20 123.00 11.30
9329 20.8540 124.90 125.15 11.20
9330 20.8560 126.90 127.54 11.30
9331 20.8580 141.40 130.35 11.90
9332 20.8600 135.60 133.73 11.70
9333 20.8620 166.50 137.77 12.90
9334 20.8640 155.30 142.56 12.40
9335 20.8660 166.50 148.25 13.00
9336 20.8680 184.60 155.04 13.60
9337 20.8700 224.40 163.17 15.00
9338 20.8720 221.70 173.03 14.90
9339 20.8740 241.90 185.07 15.60
9340 20.8760 266.40 200.00 16.40
9341 20.8780 319.10 218.75 17.80
9342 20.8800 368.10 242.75 19.30
9343 20.8820 390.50 274.11 19.70
9344 20.8840 430.30 315.99 20.80
9345 20.8860 503.20 373.88 22.50
9346 20.8880 574.70 456.89 24.00
9347 20.8900 710.50 581.44 26.80
9348 20.8920 785.90 775.89 28.30
9349 20.8940 1008.80 1083.64 32.00
9350 20.8960 1254.20 1557.31 35.70
9351 20.8980 1729.00 2192.03 42.10
9352 20.9000 2404.10 2734.32 49.80
9353 20.9020 2777.40 2693.61 53.50
9354 20.9040 2505.30 2115.11 50.70
9355 20.9060 1678.70 1493.41 41.60
9356 20.9080 982.20 1044.79 31.40
9357 20.9100 576.50 756.46 24.10
9358 20.9120 466.40 574.88 21.80
9359 20.9140 369.40 457.17 19.20
9360 20.9160 280.10 376.92 16.80
9361 20.9180 246.90 319.68 15.70
9362 20.9200 196.80 277.31 14.10
9363 20.9220 170.70 245.22 13.10
9364 20.9240 167.20 220.44 13.00
9365 20.9260 181.60 201.04 13.60
9366 20.9280 135.40 185.64 11.60
9367 20.9300 167.00 173.23 13.00
9368 20.9320 143.20 163.11 12.00
9369 20.9340 133.50 154.74 11.60
9370 20.9360 121.20 147.75 11.10
9371 20.9380 124.70 141.84 11.20
9372 20.9400 117.60 136.81 10.90
9373 20.9420 124.60 132.49 11.20
9374 20.9440 117.40 128.74 10.90
9375 20.9460 116.50 125.48 10.90
9376 20.9480 110.80 122.63 10.50
9377 20.9500 113.80 120.11 10.70
9378 20.9520 94.60 117.88 9.80
9379 20.9540 104.90 115.90 10.30
9380 20.9560 119.80 114.13 11.10
9381 20.9580 101.90 112.54 10.10
9382 20.9600 115.70 111.10 10.80
9383 20.9620 100.40 109.81 10.10
9384 20.9640 120.50 108.64 11.00
9385 20.9660 131.20 107.57 11.60
9386 20.9680 96.20 106.60 9.80
9387 20.9700 94.10 105.71 9.80
9388 20.9720 90.30 104.89 9.60
9389 20.9740 79.20 104.15 9.00
9390 20.9760 97.70 103.46 10.00
9391 20.9780 88.70 102.82 9.40
9392 20.9800 106.30 102.24 10.30
9393 20.9820 112.10 101.70 10.60
9394 20.9840 102.00 101.20 10.10
9395 20.9860 100.10 100.73 10.10
9396 20.9880 104.40 100.30 10.20
9397 20.9900 101.50 99.91 10.10
9398 20.9920 103.80 99.53 10.20
9399 20.9940 96.70 99.19 9.90
9400 20.9960 105.00 98.87 10.30
9401 20.9980 114.50 98.58 10.70
9402 21.0000 102.30 98.30 10.20
9403 21.0020 91.10 98.05 9.60
9404 21.0040 95.60 99.75 9.80
9405 21.0060 116.80 99.57 10.80
9406 21.0080 107.20 99.41 10.40
9407 21.0100 110.00 99.27 10.50
9408 21.0120 90.40 99.14 9.50
9409 21.0140 99.10 99.04 10.00
9410 21.0160 99.50 98.95 10.10
9411 21.0180 94.00 98.88 9.70
9412 21.0200 88.60 98.83 9.40
9413 21.0220 107.30 98.80 10.40
9414 21.0240 92.20 98.80 9.60
9415 21.0260 107.20 98.83 10.40
9416 21.0280 86.70 98.88 9.30
9417 21.0300 103.50 98.97 10.20
9418 21.0320 101.50 99.11 10.10
9419 21.0340 103.70 99.29 10.20
9420 21.0360 98.50 99.53 10.00
9421 21.0380 114.20 99.86 10.70
9422 21.0400 126.90 100.29 11.30
9423 21.0420 109.20 100.87 10.50
9424 21.0440 108.30 101.65 10.40
9425 21.0460 111.70 102.71 10.60
9426 21.0480 118.70 104.18 10.90
9427 21.0500 94.60 106.21 9.70
9428 21.0520 109.10 108.97 10.50
9429 21.0540 132.40 112.54 11.50
9430 21.0560 108.60 116.59 10.50
9431 21.0580 97.30 120.01 9.90
9432 21.0600 114.10 121.21 10.70
9433 21.0620 124.20 120.00 11.20
9434 21.0640 126.70 117.87 11.30
9435 21.0660 127.00 116.12 11.30
9436 21.0680 110.10 114.94 10.40
9437 21.0700 115.50 113.67 10.80
9438 21.0720 129.40 111.87 11.50
9439 21.0740 123.00 109.87 11.10
9440 21.0760 131.60 108.17 11.50
9441 21.0780 106.00 107.02 10.20
9442 21.0800 132.20 106.41 11.50
9443 21.0820 126.90 106.25 11.30
9444 21.0840 115.20 106.46 10.80
9445 21.0860 107.10 107.04 10.40
9446 21.0880 122.40 108.04 11.00
9447 21.0900 116.20 109.60 10.80
9448 21.0920 116.30 111.90 10.80
9449 21.0940 132.10 115.21 11.50
9450 21.0960 138.00 119.89 11.80
9451 21.0980 121.90 126.34 11.00
9452 21.1000 132.70 134.77 11.50
9453 21.1020 134.80 144.52 11.60
9454 21.1040 151.40 153.18 12.40
9455 21.1060 142.50 157.17 12.00
9456 21.1080 127.60 154.77 11.20
9457 21.1100 130.10 147.50 11.40
9458 21.1120 111.60 138.51 10.60
9459 21.1140 105.40 130.40 10.30
9460 21.1160 117.70 124.16 10.90
9461 21.1180 113.80 119.82 10.60
9462 21.1200 141.80 117.07 11.90
9463 21.1220 133.90 115.60 11.60
9464 21.1240 131.70 115.30 11.50
9465 21.1260 131.80 116.24 11.50
9466 21.1280 131.80 118.86 11.50
9467 21.1300 122.80 124.05 11.10
9468 21.1320 131.60 132.98 11.50
9469 21.1340 144.90 145.26 12.10
9470 21.1360 155.20 153.54 12.40
9471 21.1380 140.20 148.49 11.80
9472 21.1400 140.40 137.32 11.80
9473 21.1420 110.60 129.04 10.50
9474 21.1440 114.00 124.82 10.70
9475 21.1460 116.30 123.65 10.80
9476 21.1480 132.40 124.71 11.50
9477 21.1500 128.70 127.66 11.40
9478 21.1520 119.70 132.20 11.00
9479 21.1540 133.90 137.58 11.60
9480 21.1560 136.10 141.88 11.60
9481 21.1580 137.30 142.75 11.70
9482 21.1600 137.10 139.96 11.70
9483 21.1620 130.40 135.71 11.40
9484 21.1640 120.10 132.02 11.00
9485 21.1660 127.60 129.68 11.30
9486 21.1680 127.00 128.78 11.30
9487 21.1700 131.30 129.26 11.40
9488 21.1720 134.40 131.12 11.60
9489 21.1740 145.50 133.15 12.10
9490 21.1760 150.00 136.01 12.20
9491 21.1780 132.30 137.20 11.50
9492 21.1800 122.70 137.65 11.00
9493 21.1820 151.40 138.89 12.40
9494 21.1840 139.10 141.36 11.80
9495 21.1860 157.10 145.07 12.60
9496 21.1880 139.90 150.06 11.80
9497 21.1900 157.90 156.46 12.60
9498 21.1920 141.10 164.48 11.90
9499 21.1940 146.70 174.26 12.20
9500 21.1960 161.80 185.43 12.70
9501 21.1980 189.60 196.71 13.70
9502 21.2000 170.70 206.65 13.10
9503 21.2020 171.80 215.57 13.20
9504 21.2040 195.20 225.75 13.90
9505 21.2060 216.00 239.47 14.70
9506 21.2080 239.60 258.31 15.50
9507 21.2100 240.60 283.68 15.50
9508 21.2120 301.30 317.59 17.50
9509 21.2140 304.10 363.09 17.40
9510 21.2160 379.80 425.12 19.50
9511 21.2180 454.40 511.75 21.20
9512 21.2200 623.60 637.44 25.10
9513 21.2220 849.00 830.00 29.40
9514 21.2240 1211.40 1143.90 35.20
9515 21.2260 1813.90 1683.82 43.00
9516 21.2280 2651.70 2609.33 52.10
9517 21.2300 4329.30 4035.55 67.70
9518 21.2320 5689.90 5455.72 78.60
9519 21.2340 5440.00 5382.06 76.20
9520 21.2360 3799.30 3904.74 63.40
9521 21.2380 2567.40 2514.66 51.20
9522 21.2400 1699.30 1627.46 41.80
9523 21.2420 1304.40 1113.32 36.60
9524 21.2440 959.00 813.79 31.10
9525 21.2460 724.50 629.88 27.10
9526 21.2480 613.90 509.58 24.80
9527 21.2500 468.80 426.24 21.80
9528 21.2520 401.80 366.35 20.30
9529 21.2540 339.20 322.20 18.50
9530 21.2560 256.60 289.09 16.10
9531 21.2580 259.40 263.02 16.10
9532 21.2600 222.90 240.80 15.10
9533 21.2620 222.50 221.06 15.10
9534 21.2640 167.30 203.90 13.00
9535 21.2660 182.40 189.51 13.60
9536 21.2680 161.30 177.66 12.70
9537 21.2700 134.70 167.92 11.60
9538 21.2720 150.10 159.83 12.40
9539 21.2740 152.60 152.98 12.40
9540 21.2760 168.70 147.05 13.00
9541 21.2780 146.90 141.86 12.10
9542 21.2800 116.90 137.33 10.90
9543 21.2820 119.90 133.38 11.00
9544 21.2840 113.10 129.95 10.70
9545 21.2860 130.60 126.93 11.50
9546 21.2880 141.10 124.22 11.80
9547 21.2900 123.30 121.81 11.10
9548 21.2920 111.10 119.65 10.70
9549 21.2940 119.60 117.75 11.00
9550 21.2960 126.70 116.05 11.30
9551 21.2980 100.10 114.54 10.00
9552 21.3000 113.70 113.19 10.70
9553 21.3020 111.70 111.99 10.70
9554 21.3040 124.40 110.93 11.20
9555 21.3060 110.50 110.01 10.60
9556 21.3080 110.30 109.22 10.50
9557 21.3100 113.20 108.56 10.70
9558 21.3120 107.30 108.05 10.40
9559 21.3140 122.90 107.71 11.10
9560 21.3160 137.80 107.57 11.80
9561 21.3180 140.70 107.67 11.90
9562 21.3200 117.00 108.11 10.90
9563 21.3220 106.20 108.99 10.50
9564 21.3240 122.60 110.47 11.10
9565 21.3260 119.50 112.69 11.00
9566 21.3280 110.30 115.69 10.50
9567 21.3300 110.30 119.09 10.60
9568 21.3320 113.50 121.71 10.80
9569 21.3340 121.20 122.10 11.00
9570 21.3360 118.60 120.20 11.00
9571 21.3380 132.00 117.49 11.50
9572 21.3400 126.20 115.44 11.30
9573 21.3420 125.10 114.65 11.40
9574 21.3440 142.90 115.18 12.00
9575 21.3460 121.30 116.54 11.10
9576 21.3480 118.30 117.55 10.90
9577 21.3500 112.20 116.79 10.70
9578 21.3520 130.70 114.07 11.50
9579 21.3540 125.10 110.58 11.20
9580 21.3560 99.90 107.46 10.10
9581 21.3580 123.40 105.10 11.10
9582 21.3600 109.30 103.51 10.50
9583 21.3620 103.70 102.57 10.30
9584 21.3640 99.10 102.04 10.00
9585 21.3660 114.90 101.57 10.80
9586 21.3680 114.80 100.82 10.70
9587 21.3700 89.50 99.73 9.50
9588 21.3720 96.00 98.55 10.00
9589 21.3740 105.90 97.51 10.30
9590 21.3760 125.60 96.64 11.30
9591 21.3780 107.80 95.96 10.40
9592 21.3800 111.40 95.42 10.60
9593 21.3820 103.10 95.00 10.30
9594 21.3840 103.20 94.66 10.20
9595 21.3860 93.10 94.39 9.70
9596 21.3880 101.50 94.19 10.10
9597 21.3900 99.20 94.04 10.00
9598 21.3920 94.00 93.91 9.80
9599 21.3940 92.20 93.77 9.60
9600 21.3960 98.90 93.56 10.00
9601 21.3980 100.80 93.30 10.10
9602 21.4000 107.30 93.04 10.40
9603 21.4020 88.10 92.80 9.60
9604 21.4040 99.10 92.59 10.00
9605 21.4060 107.70 92.40 10.50
9606 21.4080 101.70 92.24 10.10
9607 21.4100 107.60 92.10 10.40
9608 21.4120 91.60 91.97 9.70
9609 21.4140 98.50 91.85 10.00
9610 21.4160 99.30 91.74 10.00
9611 21.4180 91.30 91.64 9.60
9612 21.4200 87.60 91.54 9.40
9613 21.4220 101.80 91.45 10.20
9614 21.4240 98.50 91.36 9.90
9615 21.4260 91.30 91.28 9.70
9616 21.4280 88.00 91.20 9.40
9617 21.4300 109.90 91.13 10.50
9618 21.4320 88.60 91.06 9.60
9619 21.4340 82.50 90.99 9.10
9620 21.4360 101.30 90.93 10.10
9621 21.4380 99.20 90.86 10.00
9622 21.4400 94.70 90.81 9.80
9623 21.4420 88.40 90.76 9.50
9624 21.4440 86.80 90.71 9.40
9625 21.4460 93.30 90.66 9.70
9626 21.4480 89.60 90.61 9.50
9627 21.4500 110.30 90.57 10.50
9628 21.4520 102.40 90.54 10.30
9629 21.4540 94.50 90.50 9.80
9630 21.4560 104.40 90.47 10.30
9631 21.4580 100.70 90.45 10.10
9632 21.4600 93.40 90.42 9.70
9633 21.4620 78.50 90.41 9.00
9634 21.4640 86.60 88.50 9.40
9635 21.4660 83.70 88.53 9.20
9636 21.4680 81.60 88.56 9.10
9637 21.4700 86.20 88.59 9.30
9638 21.4720 116.60 88.64 10.90
9639 21.4740 102.10 88.69 10.20
9640 21.4760 84.40 88.75 9.30
9641 21.4780 80.20 88.82 9.00
9642 21.4800 92.90 88.91 9.70
9643 21.4820 91.80 89.02 9.70
9644 21.4840 78.20 89.14 8.90
9645 21.4860 89.20 89.31 9.50
9646 21.4880 109.60 89.53 10.50
9647 21.4900 104.10 89.81 10.20
9648 21.4920 81.80 90.18 9.10
9649 21.4940 89.00 90.65 9.50
9650 21.4960 88.90 91.25 9.50
9651 21.4980 101.00 91.93 10.10
9652 21.5000 84.10 92.62 9.20
9653 21.5020 99.40 93.24 10.10
9654 21.5040 108.50 93.91 10.50
9655 21.5060 104.10 94.88 10.30
9656 21.5080 104.40 96.37 10.30
9657 21.5100 96.90 98.51 9.90
9658 21.5120 112.90 101.22 10.70
9659 21.5140 90.20 103.91 9.50
9660 21.5160 94.70 105.34 9.80
9661 21.5180 105.90 104.54 10.30
9662 21.5200 98.70 102.04 10.00
9663 21.5220 80.10 99.13 9.00
9664 21.5240 96.80 96.64 9.90
9665 21.5260 101.50 94.77 10.10
9666 21.5280 92.90 93.42 9.60
9667 21.5300 107.80 92.49 10.40
9668 21.5320 92.80 91.85 9.70
9669 21.5340 105.50 91.42 10.40
9670 21.5360 95.60 91.14 9.80
9671 21.5380 112.00 90.98 10.60
9672 21.5400 88.60 90.92 9.40
9673 21.5420 82.10 90.99 9.10
9674 21.5440 107.00 91.10 10.40
9675 21.5460 99.90 91.29 10.10
9676 21.5480 88.30 91.58 9.40
9677 21.5500 106.90 91.99 10.40
9678 21.5520 92.50 92.54 9.70
9679 21.5540 88.10 93.30 9.40
9680 21.5560 99.90 94.33 10.10
9681 21.5580 111.20 95.73 10.60
9682 21.5600 113.60 97.65 10.70
9683 21.5620 106.80 100.21 10.40
9684 21.5640 123.00 103.43 11.20
9685 21.5660 91.70 106.98 9.60
9686 21.5680 102.90 109.97 10.20
9687 21.5700 101.40 111.71 10.10
9688 21.5720 99.90 112.58 10.10
9689 21.5740 111.80 113.41 10.60
9690 21.5760 105.40 114.08 10.30
9691 21.5780 122.60 113.68 11.10
9692 21.5800 99.70 112.02 10.00
9693 21.5820 110.20 110.08 10.60
9694 21.5840 107.70 108.78 10.50
9695 21.5860 113.60 108.56 10.70
9696 21.5880 108.60 109.65 10.40
9697 21.5900 111.40 112.35 10.60
9698 21.5920 106.60 116.91 10.40
9699 21.5940 124.90 123.28 11.20
9700 21.5960 108.70 130.36 10.50
9701 21.5980 118.10 135.59 10.90
9702 21.6000 110.50 136.16 10.50
9703 21.6020 138.30 131.79 11.90
9704 21.6040 109.80 124.56 10.50
9705 21.6060 90.20 116.90 9.60
9706 21.6080 104.70 110.29 10.30
9707 21.6100 97.00 105.19 9.80
9708 21.6120 104.30 101.43 10.30
9709 21.6140 76.90 98.71 8.80
9710 21.6160 99.40 96.75 10.00
9711 21.6180 109.90 95.33 10.50
9712 21.6200 75.10 94.30 8.80
9713 21.6220 84.70 93.56 9.30
9714 21.6240 94.50 93.06 9.80
9715 21.6260 90.90 92.77 9.60
9716 21.6280 111.50 92.67 10.60
9717 21.6300 84.30 92.79 9.20
9718 21.6320 90.50 93.16 9.60
9719 21.6340 83.70 93.86 9.20
9720 21.6360 99.60 94.96 10.00
9721 21.6380 109.50 96.50 10.50
9722 21.6400 98.80 98.40 10.00
9723 21.6420 99.30 100.10 10.00
9724 21.6440 94.70 100.69 9.80
9725 21.6460 94.30 99.71 9.80
9726 21.6480 86.30 97.74 9.30
9727 21.6500 102.50 95.69 10.20
9728 21.6520 101.90 94.00 10.20
9729 21.6540 108.40 92.76 10.50
9730 21.6560 84.20 91.89 9.20
9731 21.6580 97.20 91.32 9.90
9732 21.6600 90.50 90.97 9.50
9733 21.6620 93.00 90.81 9.70
9734 21.6640 95.60 90.82 9.90
9735 21.6660 89.30 91.00 9.50
9736 21.6680 106.00 91.36 10.30
9737 21.6700 107.10 91.96 10.40
9738 21.6720 85.80 92.82 9.30
9739 21.6740 88.90 94.04 9.40
9740 21.6760 79.90 95.68 9.00
9741 21.6780 86.40 97.68 9.30
9742 21.6800 83.50 99.51 9.20
9743 21.6820 90.50 100.22 9.60
9744 21.6840 89.50 99.28 9.50
9745 21.6860 103.70 97.26 10.20
9746 21.6880 88.60 95.09 9.40
9747 21.6900 84.50 93.29 9.20
9748 21.6920 80.40 91.93 9.00
9749 21.6940 75.00 90.94 8.70
9750 21.6960 90.90 90.23 9.60
9751 21.6980 102.00 89.73 10.10
9752 21.7000 97.10 89.36 9.90
9753 21.7020 82.30 89.10 9.20
9754 21.7040 65.80 88.91 8.20
9755 21.7060 102.70 88.79 10.20
9756 21.7080 80.40 88.70 9.00
9757 21.7100 107.10 88.67 10.40
9758 21.7120 103.90 88.67 10.30
9759 21.7140 88.70 88.71 9.50
9760 21.7160 94.60 88.78 9.70
9761 21.7180 84.40 88.91 9.20
9762 21.7200 83.80 89.09 9.20
9763 21.7220 89.60 89.33 9.50
9764 21.7240 72.70 89.62 8.60
9765 21.7260 90.70 89.99 9.50
9766 21.7280 96.10 90.47 9.80
9767 21.7300 93.10 91.14 9.70
9768 21.7320 83.40 92.08 9.20
9769 21.7340 103.40 93.41 10.20
9770 21.7360 116.40 95.27 10.80
9771 21.7380 94.80 97.86 9.70
9772 21.7400 96.90 101.31 9.90
9773 21.7420 129.50 105.48 11.40
9774 21.7440 98.90 109.45 10.00
9775 21.7460 96.30 111.35 9.90
9776 21.7480 114.00 109.93 10.70
9777 21.7500 105.90 106.12 10.30
9778 21.7520 88.60 101.85 9.50
9779 21.7540 103.80 98.22 10.20
9780 21.7560 92.40 95.47 9.60
9781 21.7580 93.40 93.46 9.70
9782 21.7600 101.50 92.02 10.10
9783 21.7620 80.80 90.98 9.10
9784 21.7640 111.60 90.21 10.60
9785 21.7660 79.10 89.64 9.00
9786 21.7680 84.80 89.21 9.20
9787 21.7700 86.50 88.88 9.30
9788 21.7720 85.70 88.62 9.40
9789 21.7740 99.60 88.41 10.00
9790 21.7760 70.20 88.26 8.40
9791 21.7780 72.70 88.14 8.60
9792 21.7800 81.50 88.05 9.10
9793 21.7820 83.90 87.99 9.20
9794 21.7840 92.60 87.95 9.70
9795 21.7860 95.00 87.94 9.80
9796 21.7880 94.20 87.96 9.80
9797 21.7900 98.40 88.00 10.00
9798 21.7920 121.30 88.06 11.20
9799 21.7940 95.10 88.16 9.80
9800 21.7960 84.70 88.31 9.30
9801 21.7980 75.80 88.50 8.70
9802 21.8000 91.80 88.76 9.60
9803 21.8020 88.30 89.11 9.50
9804 21.8040 70.60 89.59 8.40
9805 21.8060 82.20 90.26 9.20
9806 21.8080 87.80 91.21 9.40
9807 21.8100 79.50 92.60 9.00
9808 21.8120 90.30 94.63 9.60
9809 21.8140 95.50 97.46 9.80
9810 21.8160 95.20 100.95 9.80
9811 21.8180 86.30 104.03 9.30
9812 21.8200 95.10 105.37 9.80
9813 21.8220 99.10 104.65 10.00
9814 21.8240 72.50 102.26 8.50
9815 21.8260 101.50 99.18 10.20
9816 21.8280 95.80 96.35 9.80
9817 21.8300 91.20 94.15 9.60
9818 21.8320 75.10 92.57 8.80
9819 21.8340 92.40 91.46 9.70
9820 21.8360 92.10 90.71 9.70
9821 21.8380 75.20 90.21 8.70
9822 21.8400 94.80 89.90 9.80
9823 21.8420 85.90 89.73 9.30
9824 21.8440 85.80 89.68 9.40
9825 21.8460 83.00 89.74 9.20
9826 21.8480 94.90 89.91 9.80
9827 21.8500 85.40 90.19 9.30
9828 21.8520 95.30 90.60 9.80
9829 21.8540 100.10 91.18 10.10
9830 21.8560 85.00 91.99 9.30
9831 21.8580 90.30 93.10 9.50
9832 21.8600 93.70 94.65 9.70
9833 21.8620 103.30 96.86 10.30
9834 21.8640 93.10 99.88 9.70
9835 21.8660 114.00 104.00 10.80
9836 21.8680 106.20 109.35 10.30
9837 21.8700 132.20 115.44 11.50
9838 21.8720 120.10 120.71 11.00
9839 21.8740 113.00 122.76 10.70
9840 21.8760 112.90 120.37 10.70
9841 21.8780 110.60 114.88 10.50
9842 21.8800 105.20 108.82 10.30
9843 21.8820 89.20 103.68 9.50
9844 21.8840 109.00 99.83 10.50
9845 21.8860 118.30 97.09 10.90
9846 21.8880 99.30 95.20 10.00
9847 21.8900 91.80 93.96 9.50
9848 21.8920 93.80 93.21 9.80
9849 21.8940 97.50 92.87 9.90
9850 21.8960 96.80 92.91 9.90
9851 21.8980 101.30 93.36 10.00
9852 21.9000 112.50 94.29 10.60
9853 21.9020 83.80 95.81 9.20
9854 21.9040 86.60 98.00 9.40
9855 21.9060 106.70 100.73 10.40
9856 21.9080 96.60 103.33 9.80
9857 21.9100 84.20 104.46 9.20
9858 21.9120 108.20 103.27 10.50
9859 21.9140 104.40 100.44 10.30
9860 21.9160 93.00 97.32 9.70
9861 21.9180 109.30 94.68 10.60
9862 21.9200 98.70 92.66 9.90
9863 21.9220 77.90 91.18 8.90
9864 21.9240 77.30 90.10 8.80
9865 21.9260 88.00 89.30 9.50
9866 21.9280 94.00 88.70 9.70
9867 21.9300 71.60 88.24 8.40
9868 21.9320 94.60 87.88 9.80
9869 21.9340 90.80 87.59 9.60
9870 21.9360 78.90 87.35 8.90
9871 21.9380 90.60 87.15 9.50
9872 21.9400 88.70 86.99 9.40
9873 21.9420 89.00 86.85 9.50
9874 21.9440 81.90 86.73 9.10
9875 21.9460 79.30 86.62 8.90
9876 21.9480 101.50 86.53 10.20
9877 21.9500 94.10 87.31 9.60
9878 21.9520 86.90 87.26 9.40
9879 21.9540 95.00 87.21 9.80
9880 21.9560 85.10 87.18 9.30
9881 21.9580 81.40 87.14 9.00
9882 21.9600 89.40 87.12 9.50
9883 21.9620 94.20 87.09 9.70
9884 21.9640 87.30 87.08 9.40
9885 21.9660 77.20 87.06 8.80
9886 21.9680 83.70 87.06 9.20
9887 21.9700 91.40 87.05 9.60
9888 21.9720 68.40 87.05 8.40
9889 21.9740 78.10 87.06 8.90
9890 21.9760 77.60 87.07 8.90
9891 21.9780 80.60 87.08 9.00
9892 21.9800 100.90 87.10 10.10
9893 21.9820 77.90 87.12 8.90
9894 21.9840 90.10 87.14 9.50
9895 21.9860 90.20 87.17 9.60
9896 21.9880 84.20 87.21 9.20
9897 21.9900 74.90 87.27 8.70
9898 21.9920 89.80 87.34 9.60
9899 21.9940 88.90 87.43 9.50
9900 21.9960 85.00 87.54 9.30
9901 21.9980 94.00 87.66 9.70
9902 22.0000 81.00 87.77 9.00
9903 22.0020 82.00 87.84 9.20
9904 22.0040 92.80 87.86 9.70
9905 22.0060 83.50 87.88 9.20
9906 22.0080 91.20 87.91 9.60
9907 22.0100 94.90 87.98 9.80
9908 22.0120 76.80 88.08 8.80
9909 22.0140 85.40 88.21 9.30
9910 22.0160 79.80 88.39 9.00
9911 22.0180 90.90 88.62 9.50
9912 22.0200 83.90 88.91 9.20
9913 22.0220 108.10 89.28 10.50
9914 22.0240 100.70 89.77 10.10
9915 22.0260 94.00 90.43 9.70
9916 22.0280 86.70 91.33 9.40
9917 22.0300 75.50 92.56 8.70
9918 22.0320 94.80 94.24 9.80
9919 22.0340 82.20 96.44 9.10
9920 22.0360 86.00 99.06 9.30
9921 22.0380 87.00 101.39 9.40
9922 22.0400 102.50 102.34 10.10
9923 22.0420 86.80 101.31 9.40
9924 22.0440 106.90 99.03 10.40
9925 22.0460 82.50 96.59 9.10
9926 22.0480 92.20 94.59 9.70
9927 22.0500 86.70 93.10 9.30
9928 22.0520 79.80 92.05 9.00
9929 22.0540 85.40 91.32 9.30
9930 22.0560 79.00 90.83 9.00
9931 22.0580 96.40 90.50 9.90
9932 22.0600 83.50 90.29 9.10
9933 22.0620 128.30 90.16 11.40
9934 22.0640 101.70 90.10 10.20
9935 22.0660 105.50 90.10 10.30
9936 22.0680 96.40 90.14 9.80
9937 22.0700 95.80 90.22 9.80
9938 22.0720 95.10 90.34 9.80
9939 22.0740 82.60 90.51 9.20
9940 22.0760 88.50 90.71 9.50
9941 22.0780 100.00 90.97 10.00
9942 22.0800 90.50 91.30 9.50
9943 22.0820 90.10 91.71 9.50
9944 22.0840 98.80 92.24 10.00
9945 22.0860 101.00 92.96 10.20
9946 22.0880 106.30 93.99 10.30
9947 22.0900 92.20 95.54 9.60
9948 22.0920 99.40 98.03 10.00
9949 22.0940 95.80 101.99 9.80
9950 22.0960 112.20 107.42 10.70
9951 22.0980 117.30 111.55 10.80
9952 22.1000 138.70 110.03 11.80
9953 22.1020 116.50 105.35 10.80
9954 22.1040 95.80 101.65 9.80
9955 22.1060 102.10 99.63 10.20
9956 22.1080 124.20 98.79 11.20
9957 22.1100 104.10 98.69 10.10
9958 22.1120 109.30 99.04 10.50
9959 22.1140 82.70 99.71 9.10
9960 22.1160 109.70 100.69 10.50
9961 22.1180 105.80 102.08 10.20
9962 22.1200 98.60 104.01 9.90
9963 22.1220 99.40 106.62 10.00
9964 22.1240 102.20 110.07 10.10
9965 22.1260 100.30 114.31 10.10
9966 22.1280 104.70 118.80 10.20
9967 22.1300 110.20 122.19 10.50
9968 22.1320 116.30 123.17 10.80
9969 22.1340 128.00 121.97 11.40
9970 22.1360 95.10 120.03 9.80
9971 22.1380 124.40 118.52 11.20
9972 22.1400 115.90 117.92 10.70
9973 22.1420 118.60 118.36 10.90
9974 22.1440 103.90 119.84 10.20
9975 22.1460 123.90 122.33 11.20
9976 22.1480 92.30 125.89 9.60
9977 22.1500 119.40 130.56 10.90
9978 22.1520 109.30 136.28 10.50
9979 22.1540 121.00 142.77 11.00
9980 22.1560 134.90 149.87 11.70
9981 22.1580 132.80 157.64 11.50
9982 22.1600 157.80 166.08 12.50
9983 22.1620 151.00 175.32 12.40
9984 22.1640 193.10 186.50 13.90
9985 22.1660 205.60 201.34 14.40
9986 22.1680 226.30 221.24 15.00
9987 22.1700 254.80 247.26 16.00
9988 22.1720 287.60 280.84 17.10
9989 22.1740 387.30 326.42 19.70
9990 22.1760 444.20 394.02 21.20
9991 22.1780 571.90 502.12 23.90
9992 22.1800 707.80 683.61 26.60
9993 22.1820 977.70 992.14 31.60
9994 22.1840 1481.80 1492.67 38.90
9995 22.1860 2178.70 2140.42 47.60
9996 22.1880 2520.00 2488.24 51.10
9997 22.1900 2073.70 2106.59 46.00
9998 22.1920 1457.00 1458.99 38.80
9999 22.1940 973.00 970.18 31.50
10000 22.1960 680.10 667.98 26.20
10001 22.1980 516.80 488.01 22.80
10002 22.2000 394.50 378.43 19.90
10003 22.2020 311.80 307.79 17.70
10004 22.2040 265.10 259.79 16.30
10005 22.2060 222.80 225.68 15.00
10006 22.2080 191.80 200.60 13.90
10007 22.2100 186.00 181.72 13.60
10008 22.2120 157.50 167.15 12.60
10009 22.2140 129.30 155.75 11.50
10010 22.2160 146.40 146.67 12.10
10011 22.2180 141.30 139.36 11.90
10012 22.2200 138.90 133.46 11.80
10013 22.2220 107.20 128.66 10.40
10014 22.2240 123.80 124.80 11.20
10015 22.2260 110.50 121.77 10.60
10016 22.2280 105.50 119.51 10.40
10017 22.2300 108.40 118.01 10.40
10018 22.2320 126.00 117.32 11.30
10019 22.2340 108.50 117.47 10.50
10020 22.2360 108.10 118.32 10.50
10021 22.2380 122.30 119.33 11.10
10022 22.2400 86.50 119.38 9.30
10023 22.2420 100.40 117.61 10.10
10024 22.2440 100.90 114.44 10.10
10025 22.2460 95.20 111.03 9.80
10026 22.2480 116.20 108.11 10.80
10027 22.2500 101.10 105.90 10.00
10028 22.2520 93.80 104.38 9.80
10029 22.2540 101.00 103.48 10.10
10030 22.2560 87.30 103.17 9.40
10031 22.2580 90.50 103.51 9.60
10032 22.2600 99.20 104.57 10.00
10033 22.2620 101.00 106.43 10.10
10034 22.2640 112.70 109.06 10.70
10035 22.2660 108.50 111.89 10.50
10036 22.2680 107.40 113.58 10.40
10037 22.2700 93.50 112.79 9.70
10038 22.2720 113.00 109.75 10.70
10039 22.2740 101.10 105.97 10.10
10040 22.2760 102.90 102.60 10.20
10041 22.2780 111.80 99.96 10.70
10042 22.2800 109.10 98.02 10.40
10043 22.2820 73.60 96.63 8.70
10044 22.2840 92.70 95.65 9.70
10045 22.2860 90.90 95.00 9.60
10046 22.2880 79.60 94.62 9.00
10047 22.2900 84.50 94.50 9.20
10048 22.2920 91.70 94.65 9.70
10049 22.2940 94.80 95.18 9.80
10050 22.2960 102.70 96.22 10.10
10051 22.2980 100.80 97.96 10.10
10052 22.3000 102.90 100.39 10.10
10053 22.3020 102.10 102.64 10.10
10054 22.3040 98.80 103.32 10.00
10055 22.3060 103.40 102.93 10.20
10056 22.3080 93.30 102.88 9.70
10057 22.3100 97.10 103.26 9.80
10058 22.3120 113.90 103.41 10.70
10059 22.3140 115.20 103.11 10.80
10060 22.3160 89.70 102.93 9.50
10061 22.3180 112.30 103.52 10.60
10062 22.3200 106.80 105.26 10.30
10063 22.3220 107.00 108.10 10.40
10064 22.3240 112.50 111.40 10.60
10065 22.3260 99.70 113.61 10.10
10066 22.3280 108.80 113.11 10.50
10067 22.3300 111.80 110.07 10.60
10068 22.3320 98.00 106.18 10.00
10069 22.3340 94.10 102.80 9.80
10070 22.3360 103.10 100.43 10.20
10071 22.3380 107.70 99.08 10.40
10072 22.3400 107.70 98.70 10.30
10073 22.3420 93.50 99.16 9.70
10074 22.3440 106.60 100.27 10.40
10075 22.3460 88.60 101.56 9.40
10076 22.3480 111.00 102.15 10.60
10077 22.3500 104.80 101.36 10.20
10078 22.3520 105.40 99.51 10.30
10079 22.3540 114.80 97.43 10.80
10080 22.3560 101.20 95.69 10.10
10081 22.3580 94.50 94.49 9.80
10082 22.3600 116.10 93.80 10.70
10083 22.3620 83.60 93.61 9.20
10084 22.3640 99.60 93.91 10.00
10085 22.3660 90.40 94.74 9.50
10086 22.3680 88.80 96.16 9.40
10087 22.3700 95.60 98.18 9.70
10088 22.3720 94.10 100.65 9.70
10089 22.3740 93.70 103.10 9.70
10090 22.3760 93.70 104.72 9.70
10091 22.3780 107.10 104.51 10.30
10092 22.3800 103.70 102.39 10.20
10093 22.3820 102.70 99.40 10.20
10094 22.3840 83.00 96.58 9.10
10095 22.3860 91.80 94.32 9.60
10096 22.3880 75.90 92.60 8.70
10097 22.3900 103.80 91.34 10.20
10098 22.3920 82.80 90.45 9.20
10099 22.3940 85.80 89.88 9.30
10100 22.3960 93.40 89.57 9.70
10101 22.3980 94.70 89.53 9.70
10102 22.4000 82.50 89.74 9.10
10103 22.4020 80.90 90.15 9.00
10104 22.4040 88.70 90.53 9.50
10105 22.4060 83.60 90.63 9.20
10106 22.4080 77.80 90.40 8.80
10107 22.4100 90.90 89.85 9.50
10108 22.4120 88.70 89.11 9.50
10109 22.4140 91.10 88.37 9.60
10110 22.4160 77.30 87.75 8.80
10111 22.4180 72.90 87.28 8.60
10112 22.4200 76.60 86.91 8.70
10113 22.4220 97.50 86.63 9.90
10114 22.4240 82.80 86.42 9.10
10115 22.4260 77.70 86.25 8.90
10116 22.4280 91.00 85.30 9.60
10117 22.4300 69.50 85.21 8.30
10118 22.4320 79.50 85.13 9.00
10119 22.4340 80.80 85.06 9.00
10120 22.4360 93.50 85.01 9.70
10121 22.4380 92.20 84.97 9.60
10122 22.4400 83.80 84.93 9.10
10123 22.4420 91.80 84.90 9.60
10124 22.4440 75.80 84.88 8.70
10125 22.4460 99.20 84.86 10.00
10126 22.4480 83.20 84.84 9.10
10127 22.4500 83.60 84.83 9.10
10128 22.4520 89.30 84.83 9.50
10129 22.4540 96.30 84.82 9.80
10130 22.4560 84.10 84.83 9.20
10131 22.4580 75.10 84.83 8.70
10132 22.4600 99.10 84.84 10.00
10133 22.4620 72.60 84.86 8.60
10134 22.4640 89.30 84.87 9.40
10135 22.4660 87.70 84.90 9.40
10136 22.4680 99.80 84.93 10.00
10137 22.4700 85.20 84.96 9.20
10138 22.4720 81.20 85.00 9.00
10139 22.4740 99.90 85.05 10.00
10140 22.4760 86.80 85.10 9.30
10141 22.4780 84.80 85.17 9.20
10142 22.4800 75.10 85.24 8.70
10143 22.4820 107.90 85.33 10.50
10144 22.4840 94.60 85.43 9.80
10145 22.4860 88.00 85.54 9.40
10146 22.4880 78.20 85.68 8.80
10147 22.4900 86.40 85.84 9.30
10148 22.4920 86.40 86.04 9.40
10149 22.4940 103.60 86.26 10.20
10150 22.4960 94.10 86.54 9.80
10151 22.4980 90.70 86.88 9.60
10152 22.5000 109.00 87.29 10.40
10153 22.5020 92.20 87.80 9.70
10154 22.5040 109.60 88.45 10.50
10155 22.5060 95.50 89.29 9.80
10156 22.5080 104.50 90.39 10.30
10157 22.5100 91.50 91.85 9.60
10158 22.5120 83.30 93.79 9.30
10159 22.5140 95.00 96.38 9.70
10160 22.5160 123.70 99.77 11.20
10161 22.5180 144.20 104.22 12.00
10162 22.5200 94.30 109.95 9.70
10163 22.5220 114.40 116.61 10.90
10164 22.5240 108.80 122.40 10.40
10165 22.5260 105.50 124.29 10.40
10166 22.5280 102.20 120.94 10.10
10167 22.5300 113.30 114.45 10.70
10168 22.5320 110.90 107.73 10.70
10169 22.5340 98.90 102.19 10.00
10170 22.5360 101.60 98.04 10.10
10171 22.5380 114.20 95.04 10.70
10172 22.5400 90.70 92.90 9.50
10173 22.5420 95.50 91.36 9.90
10174 22.5440 87.10 90.25 9.40
10175 22.5460 91.30 89.46 9.70
10176 22.5480 95.70 88.89 9.90
10177 22.5500 91.10 88.50 9.60
10178 22.5520 94.00 88.26 9.90
10179 22.5540 81.90 88.14 9.10
10180 22.5560 86.20 88.14 9.40
10181 22.5580 90.10 88.27 9.60
10182 22.5600 87.90 88.50 9.40
10183 22.5620 85.40 90.34 9.40
10184 22.5640 101.10 90.75 10.10
10185 22.5660 86.40 91.29 9.40
10186 22.5680 93.90 92.08 9.80
10187 22.5700 96.10 93.27 9.90
10188 22.5720 88.30 95.00 9.50
10189 22.5740 108.50 97.46 10.50
10190 22.5760 124.90 100.73 11.30
10191 22.5780 101.50 104.67 10.20
10192 22.5800 107.10 108.40 10.40
10193 22.5820 94.50 110.29 9.80
10194 22.5840 125.30 109.14 11.30
10195 22.5860 105.40 105.68 10.40
10196 22.5880 94.60 101.63 9.80
10197 22.5900 95.90 98.12 9.80
10198 22.5920 85.10 95.43 9.40
10199 22.5940 96.10 93.47 9.90
10200 22.5960 91.40 92.07 9.70
10201 22.5980 93.30 91.08 9.70
10202 22.6000 87.60 90.37 9.40
10203 22.6020 77.00 89.87 8.90
10204 22.6040 92.30 89.51 9.70
10205 22.6060 100.90 89.27 10.10
10206 22.6080 96.40 89.11 9.90
10207 22.6100 111.50 89.03 10.60
10208 22.6120 91.00 89.00 9.70
10209 22.6140 84.60 89.03 9.20
10210 22.6160 106.10 89.12 10.40
10211 22.6180 97.90 89.26 10.00
10212 22.6200 105.70 89.48 10.30
10213 22.6220 104.50 89.78 10.30
10214 22.6240 91.50 90.20 9.60
10215 22.6260 94.00 90.77 9.80
10216 22.6280 84.40 91.56 9.20
10217 22.6300 104.20 92.62 10.30
10218 22.6320 90.30 94.06 9.60
10219 22.6340 87.90 95.95 9.40
10220 22.6360 93.00 98.19 9.70
10221 22.6380 93.10 100.30 9.70
10222 22.6400 107.50 101.42 10.40
10223 22.6420 115.40 101.05 10.80
10224 22.6440 94.60 99.74 9.70
10225 22.6460 99.50 98.40 10.10
10226 22.6480 115.40 97.58 10.80
10227 22.6500 97.40 97.46 9.90
10228 22.6520 86.80 98.10 9.40
10229 22.6540 102.30 99.52 10.20
10230 22.6560 110.40 101.70 10.60
10231 22.6580 99.90 104.40 10.00
10232 22.6600 101.40 106.91 10.10
10233 22.6620 110.80 108.29 10.60
10234 22.6640 103.30 108.15 10.20
10235 22.6660 89.50 106.84 9.50
10236 22.6680 107.70 104.70 10.40
10237 22.6700 99.90 102.13 10.00
10238 22.6720 102.70 99.73 10.20
10239 22.6740 100.90 97.77 10.20
10240 22.6760 107.60 96.36 10.40
10241 22.6780 87.90 95.40 9.40
10242 22.6800 107.20 94.79 10.30
10243 22.6820 82.00 94.46 9.10
10244 22.6840 103.20 94.33 10.20
10245 22.6860 93.50 94.39 9.70
10246 22.6880 101.10 94.61 10.10
10247 22.6900 92.80 95.00 9.60
10248 22.6920 85.60 95.58 9.30
10249 22.6940 103.10 96.40 10.20
10250 22.6960 102.80 97.54 10.10
10251 22.6980 101.90 99.08 10.10
10252 22.7000 103.30 101.13 10.20
10253 22.7020 93.70 103.74 9.70
10254 22.7040 91.70 106.68 9.60
10255 22.7060 96.70 109.21 9.90
10256 22.7080 114.50 110.17 10.80
10257 22.7100 114.70 109.19 10.70
10258 22.7120 111.10 107.14 10.60
10259 22.7140 106.70 105.10 10.40
10260 22.7160 105.20 103.57 10.30
10261 22.7180 97.30 102.61 9.90
10262 22.7200 106.50 102.14 10.30
10263 22.7220 120.70 102.07 11.10
10264 22.7240 93.20 102.33 9.70
10265 22.7260 116.30 102.85 10.90
10266 22.7280 96.80 103.63 9.90
10267 22.7300 108.10 104.66 10.40
10268 22.7320 106.30 105.97 10.40
10269 22.7340 107.10 107.61 10.40
10270 22.7360 120.70 109.68 11.00
10271 22.7380 116.40 112.24 10.90
10272 22.7400 103.10 115.38 10.20
10273 22.7420 127.10 118.97 11.40
10274 22.7440 121.70 122.61 11.10
10275 22.7460 133.30 125.81 11.60
10276 22.7480 138.80 128.69 11.80
10277 22.7500 128.80 132.08 11.30
10278 22.7520 128.70 136.67 11.50
10279 22.7540 119.90 142.41 11.00
10280 22.7560 143.90 148.12 12.00
10281 22.7580 163.10 151.86 12.80
10282 22.7600 132.30 152.79 11.50
10283 22.7620 140.00 152.36 11.90
10284 22.7640 139.40 152.47 11.90
10285 22.7660 159.90 154.12 12.80
10286 22.7680 146.90 157.58 12.20
10287 22.7700 158.50 162.85 12.60
10288 22.7720 154.40 170.01 12.50
10289 22.7740 152.70 179.23 12.50
10290 22.7760 168.00 190.82 13.00
10291 22.7780 178.60 205.36 13.50
10292 22.7800 193.80 223.57 13.90
10293 22.7820 223.80 246.51 15.10
10294 22.7840 226.60 275.64 15.10
10295 22.7860 230.40 313.30 15.30
10296 22.7880 316.10 363.42 17.90
10297 22.7900 365.30 432.12 19.20
10298 22.7920 475.30 530.15 21.90
10299 22.7940 670.50 676.34 26.20
10300 22.7960 920.60 906.66 30.70
10301 22.7980 1372.80 1286.46 37.50
10302 22.8000 1966.20 1916.87 44.90
10303 22.8020 3286.40 2894.80 58.60
10304 22.8040 4523.50 4025.93 69.40
10305 22.8060 4559.20 4394.48 69.40
10306 22.8080 3528.00 3539.21 60.90
10307 22.8100 2313.40 2417.32 48.60
10308 22.8120 1562.40 1611.04 40.10
10309 22.8140 1211.50 1116.51 35.20
10310 22.8160 920.70 820.94 30.70
10311 22.8180 737.80 636.19 27.30
10312 22.8200 593.80 508.35 24.30
10313 22.8220 470.40 415.98 21.80
10314 22.8240 443.40 349.22 21.10
10315 22.8260 403.40 300.48 20.10
10316 22.8280 303.70 264.10 17.50
10317 22.8300 273.90 236.23 16.50
10318 22.8320 236.70 214.41 15.40
10319 22.8340 199.10 196.98 14.20
10320 22.8360 168.10 182.87 13.10
10321 22.8380 176.50 171.26 13.30
10322 22.8400 177.80 161.62 13.30
10323 22.8420 127.40 153.53 11.30
10324 22.8440 175.30 146.69 13.30
10325 22.8460 162.90 140.86 12.80
10326 22.8480 136.80 135.88 11.70
10327 22.8500 127.20 131.60 11.20
10328 22.8520 113.30 127.94 10.70
10329 22.8540 116.50 124.81 10.80
10330 22.8560 121.50 122.18 11.10
10331 22.8580 116.20 120.02 10.80
10332 22.8600 106.30 118.35 10.30
10333 22.8620 118.80 117.19 10.90
10334 22.8640 112.20 116.57 10.60
10335 22.8660 119.80 116.49 11.00
10336 22.8680 116.40 116.72 10.80
10337 22.8700 126.40 116.68 11.20
10338 22.8720 132.80 115.64 11.60
10339 22.8740 130.50 113.56 11.50
10340 22.8760 110.10 111.11 10.50
10341 22.8780 116.30 108.93 10.80
10342 22.8800 113.60 107.32 10.60
10343 22.8820 97.40 106.31 9.90
10344 22.8840 115.00 105.90 10.80
10345 22.8860 115.80 106.07 10.80
10346 22.8880 104.80 106.64 10.30
10347 22.8900 104.00 107.21 10.20
10348 22.8920 98.50 107.08 10.00
10349 22.8940 91.40 105.85 9.60
10350 22.8960 116.30 103.92 10.80
10351 22.8980 99.90 101.90 9.90
10352 22.9000 100.90 100.19 10.00
10353 22.9020 115.30 98.88 10.80
10354 22.9040 96.60 97.98 9.90
10355 22.9060 103.80 97.47 10.20
10356 22.9080 81.10 97.41 9.10
10357 22.9100 97.20 97.94 9.80
10358 22.9120 101.10 99.35 10.10
10359 22.9140 87.10 101.84 9.30
10360 22.9160 91.20 104.62 9.60
10361 22.9180 90.90 104.88 9.50
10362 22.9200 105.30 101.91 10.20
10363 22.9220 90.10 98.58 9.50
10364 22.9240 82.90 96.29 9.10
10365 22.9260 96.20 94.94 9.90
10366 22.9280 91.70 94.24 9.60
10367 22.9300 101.20 94.00 10.00
10368 22.9320 96.20 94.09 9.90
10369 22.9340 103.40 94.42 10.20
10370 22.9360 118.70 94.78 10.90
10371 22.9380 90.90 94.85 9.60
10372 22.9400 84.10 94.43 9.10
10373 22.9420 78.00 93.68 8.90
10374 22.9440 95.20 92.92 9.80
10375 22.9460 90.00 92.31 9.60
10376 22.9480 93.80 91.89 9.70
10377 22.9500 82.40 91.65 9.10
10378 22.9520 94.90 91.57 9.90
10379 22.9540 110.20 91.64 10.50
10380 22.9560 94.30 91.87 9.80
10381 22.9580 97.10 92.28 9.90
10382 22.9600 108.10 92.92 10.30
10383 22.9620 107.00 93.85 10.40
10384 22.9640 92.60 95.18 9.70
10385 22.9660 132.80 97.04 11.60
10386 22.9680 93.80 99.53 9.70
10387 22.9700 98.70 102.64 9.90
10388 22.9720 98.10 106.03 10.00
10389 22.9740 98.30 109.30 10.00
10390 22.9760 97.90 112.38 9.90
10391 22.9780 105.40 115.06 10.30
10392 22.9800 119.70 116.18 10.90
10393 22.9820 121.10 114.46 11.10
10394 22.9840 124.30 110.47 11.20
10395 22.9860 114.30 105.95 10.70
10396 22.9880 103.00 102.07 10.20
10397 22.9900 115.30 99.19 10.70
10398 22.9920 125.70 97.29 11.30
10399 22.9940 111.30 96.24 10.60
10400 22.9960 102.70 95.95 10.20
10401 22.9980 92.60 96.36 9.70
10402 23.0000 89.00 97.35 9.40
10403 23.0020 87.30 98.59 9.40
10404 23.0040 95.70 99.31 9.80
10405 23.0060 80.10 98.77 9.00
10406 23.0080 109.40 97.06 10.50
10407 23.0100 106.50 94.96 10.30
10408 23.0120 95.00 93.10 9.80
10409 23.0140 109.90 91.67 10.60
10410 23.0160 109.10 90.65 10.50
10411 23.0180 90.20 89.96 9.50
10412 23.0200 72.40 89.53 8.50
10413 23.0220 91.90 89.25 9.70
10414 23.0240 92.90 89.00 9.70
10415 23.0260 99.90 88.64 10.00
10416 23.0280 101.20 88.20 10.10
10417 23.0300 71.90 87.75 8.50
10418 23.0320 83.60 87.36 9.20
10419 23.0340 87.10 87.03 9.40
10420 23.0360 81.20 86.78 9.10
10421 23.0380 82.70 86.57 9.10
10422 23.0400 105.90 86.40 10.30
10423 23.0420 103.20 86.26 10.20
10424 23.0440 88.60 86.15 9.50
10425 23.0460 85.30 86.06 9.30
10426 23.0480 83.90 85.99 9.20
10427 23.0500 80.80 85.95 9.00
10428 23.0520 87.80 84.45 9.50
10429 23.0540 101.80 84.49 10.10
10430 23.0560 92.50 84.50 9.70
10431 23.0580 68.60 84.43 8.40
10432 23.0600 96.60 84.32 9.80
10433 23.0620 87.80 84.24 9.40
10434 23.0640 87.50 84.17 9.40
10435 23.0660 102.10 84.12 10.20
10436 23.0680 108.80 84.10 10.40
10437 23.0700 91.70 84.08 9.50
10438 23.0720 93.10 84.06 9.70
10439 23.0740 102.50 84.06 10.20
10440 23.0760 73.90 84.05 8.70
10441 23.0780 91.40 84.05 9.60
10442 23.0800 94.80 84.06 9.70
10443 23.0820 78.60 84.07 8.90
10444 23.0840 77.80 84.09 8.90
10445 23.0860 75.70 84.11 8.80
10446 23.0880 81.90 84.15 9.10
10447 23.0900 110.00 84.20 10.50
10448 23.0920 105.10 84.27 10.30
10449 23.0940 87.90 84.34 9.40
10450 23.0960 79.20 84.39 9.00
10451 23.0980 85.30 84.41 9.20
10452 23.1000 81.00 84.38 9.00
10453 23.1020 66.90 84.35 8.20
10454 23.1040 81.40 84.32 9.00
10455 23.1060 85.00 84.31 9.30
10456 23.1080 74.60 84.32 8.60
10457 23.1100 83.40 84.33 9.10
10458 23.1120 70.20 84.36 8.40
10459 23.1140 97.30 84.40 9.90
10460 23.1160 109.60 84.46 10.50
10461 23.1180 77.80 84.52 8.80
10462 23.1200 85.20 84.60 9.20
10463 23.1220 93.80 84.69 9.70
10464 23.1240 71.80 84.80 8.50
10465 23.1260 86.20 84.93 9.30
10466 23.1280 81.30 85.08 9.00
10467 23.1300 72.10 85.27 8.50
10468 23.1320 82.00 85.50 9.00
10469 23.1340 92.90 85.78 9.70
10470 23.1360 84.90 86.13 9.20
10471 23.1380 85.70 86.59 9.30
10472 23.1400 84.50 87.18 9.20
10473 23.1420 96.10 87.95 9.80
10474 23.1440 99.10 89.01 10.00
10475 23.1460 68.20 90.46 8.30
10476 23.1480 91.00 92.46 9.50
10477 23.1500 81.20 95.15 9.00
10478 23.1520 90.40 98.57 9.50
10479 23.1540 96.60 102.31 9.90
10480 23.1560 101.90 105.16 10.10
10481 23.1580 103.80 105.54 10.10
10482 23.1600 92.90 103.22 9.60
10483 23.1620 99.60 99.64 10.00
10484 23.1640 91.70 96.18 9.60
10485 23.1660 86.70 93.44 9.30
10486 23.1680 85.90 91.42 9.30
10487 23.1700 88.00 90.01 9.40
10488 23.1720 80.30 89.03 9.00
10489 23.1740 101.50 88.38 10.10
10490 23.1760 96.10 87.98 9.80
10491 23.1780 75.50 87.79 8.70
10492 23.1800 86.90 87.77 9.30
10493 23.1820 92.20 87.93 9.60
10494 23.1840 86.20 88.31 9.30
10495 23.1860 86.20 88.94 9.30
10496 23.1880 91.10 89.90 9.60
10497 23.1900 96.80 91.26 9.80
10498 23.1920 84.60 93.04 9.30
10499 23.1940 91.50 95.03 9.60
10500 23.1960 90.60 96.58 9.50
10501 23.1980 93.20 96.85 9.70
10502 23.2000 88.10 95.67 9.30
10503 23.2020 83.70 93.77 9.20
10504 23.2040 90.50 91.93 9.50
10505 23.2060 81.90 90.48 9.10
10506 23.2080 80.00 89.43 8.90
10507 23.2100 79.80 88.68 8.90
10508 23.2120 95.70 88.11 9.90
10509 23.2140 112.90 87.68 10.60
10510 23.2160 95.30 87.39 9.80
10511 23.2180 83.20 87.24 9.10
10512 23.2200 94.70 87.22 9.80
10513 23.2220 97.40 87.33 9.90
10514 23.2240 85.80 87.56 9.30
10515 23.2260 85.40 87.91 9.30
10516 23.2280 89.00 88.30 9.40
10517 23.2300 85.10 88.71 9.30
10518 23.2320 107.10 89.17 10.50
10519 23.2340 92.80 89.80 9.70
10520 23.2360 94.90 90.76 9.80
10521 23.2380 100.30 92.18 10.10
10522 23.2400 102.60 94.16 10.10
10523 23.2420 103.40 96.64 10.30
10524 23.2440 101.40 99.20 10.10
10525 23.2460 114.10 100.88 10.80
10526 23.2480 102.20 100.88 10.10
10527 23.2500 87.20 99.55 9.40
10528 23.2520 87.40 97.92 9.40
10529 23.2540 92.60 96.58 9.70
10530 23.2560 90.30 95.46 9.60
10531 23.2580 106.40 94.36 10.30
10532 23.2600 107.10 93.35 10.40
10533 23.2620 91.00 92.68 9.60
10534 23.2640 92.20 92.43 9.70
10535 23.2660 86.40 92.66 9.40
10536 23.2680 87.50 93.43 9.40
10537 23.2700 101.80 94.80 10.10
10538 23.2720 105.10 96.92 10.40
10539 23.2740 95.60 99.85 9.90
10540 23.2760 77.30 103.48 8.90
10541 23.2780 100.30 107.06 10.00
10542 23.2800 109.70 109.11 10.50
10543 23.2820 92.60 108.63 9.70
10544 23.2840 101.50 106.32 10.10
10545 23.2860 100.90 103.80 10.20
10546 23.2880 99.40 102.12 10.00
10547 23.2900 114.40 101.63 10.70
10548 23.2920 99.00 102.37 10.00
10549 23.2940 98.80 104.32 10.00
10550 23.2960 112.80 107.50 10.60
10551 23.2980 86.60 111.81 9.30
10552 23.3000 102.00 116.47 10.10
10553 23.3020 96.80 119.80 10.00
10554 23.3040 97.80 119.92 9.90
10555 23.3060 110.00 116.46 10.60
10556 23.3080 108.20 111.13 10.50
10557 23.3100 93.80 105.95 9.70
10558 23.3120 101.10 101.90 10.20
10559 23.3140 110.70 99.16 10.60
10560 23.3160 94.50 97.59 9.80
10561 23.3180 86.70 97.05 9.40
10562 23.3200 97.30 97.46 9.90
10563 23.3220 92.90 98.69 9.70
10564 23.3240 99.80 100.32 10.00
10565 23.3260 102.10 101.46 10.20
10566 23.3280 88.90 101.03 9.40
10567 23.3300 83.30 98.94 9.10
10568 23.3320 97.90 96.18 10.00
10569 23.3340 91.40 93.61 9.60
10570 23.3360 92.10 91.55 9.60
10571 23.3380 85.60 89.99 9.30
10572 23.3400 109.50 88.83 10.40
10573 23.3420 88.90 87.97 9.50
10574 23.3440 98.10 87.31 9.90
10575 23.3460 83.80 86.81 9.20
10576 23.3480 73.70 86.41 8.60
10577 23.3500 88.30 86.09 9.50
10578 23.3520 69.90 85.83 8.50
10579 23.3540 82.00 85.61 9.10
10580 23.3560 96.70 85.43 9.90
10581 23.3580 96.90 85.27 9.90
10582 23.3600 71.40 85.13 8.50
10583 23.3620 83.90 85.02 9.30
10584 23.3640 82.20 84.92 9.10
10585 23.3660 86.90 84.82 9.40
10586 23.3680 90.40 84.74 9.60
10587 23.3700 81.80 84.67 9.00
10588 23.3720 77.60 84.61 8.90
10589 23.3740 74.20 84.56 8.60
10590 23.3760 74.50 84.51 8.70
10591 23.3780 103.50 84.47 10.20
10592 23.3800 69.60 84.43 8.40
10593 23.3820 88.90 84.39 9.50
10594 23.3840 78.90 84.36 9.00
10595 23.3860 87.20 84.33 9.40
10596 23.3880 82.80 84.30 9.10
10597 23.3900 78.30 84.28 8.90
10598 23.3920 90.00 84.26 9.60
10599 23.3940 99.70 84.24 10.10
10600 23.3960 79.20 84.22 9.00
10601 23.3980 80.40 84.21 9.00
10602 23.4000 80.00 84.20 9.00
10603 23.4020 62.20 84.18 8.00
10604 23.4040 79.90 84.17 9.00
10605 23.4060 82.90 84.17 9.20
10606 23.4080 76.40 84.16 8.80
10607 23.4100 99.20 84.15 10.00
10608 23.4120 86.70 84.15 9.50
10609 23.4140 91.70 84.15 9.60
10610 23.4160 73.50 84.15 8.70
10611 23.4180 108.30 84.15 10.50
10612 23.4200 85.30 84.16 9.30
10613 23.4220 74.60 84.16 8.70
10614 23.4240 102.00 84.17 10.20
10615 23.4260 73.20 84.19 8.70
10616 23.4280 99.80 84.21 10.10
10617 23.4300 89.40 84.25 9.40
10618 23.4320 72.30 84.29 8.60
10619 23.4340 92.60 84.35 9.70
10620 23.4360 68.90 84.43 8.40
10621 23.4380 82.10 84.55 9.10
10622 23.4400 101.20 84.70 10.10
10623 23.4420 95.20 84.88 9.90
10624 23.4440 63.30 85.04 8.00
10625 23.4460 88.20 85.11 9.50
10626 23.4480 90.00 85.04 9.60
10627 23.4500 98.20 84.89 9.90
10628 23.4520 78.40 84.71 8.90
10629 23.4540 81.60 84.57 9.10
10630 23.4560 83.30 84.47 9.20
10631 23.4580 76.50 84.39 8.80
10632 23.4600 77.10 84.34 8.80
10633 23.4620 62.60 84.31 8.00
10634 23.4640 88.80 84.28 9.50
10635 23.4660 95.30 84.27 9.90
10636 23.4680 81.60 84.26 9.10
10637 23.4700 95.60 84.26 9.80
10638 23.4720 85.80 84.27 9.40
10639 23.4740 81.60 84.27 9.10
10640 23.4760 80.50 84.28 9.00
10641 23.4780 88.40 84.30 9.50
10642 23.4800 83.50 84.31 9.10
10643 23.4820 89.80 84.33 9.50
10644 23.4840 90.20 84.35 9.60
10645 23.4860 98.10 84.38 10.00
10646 23.4880 73.70 84.41 8.60
10647 23.4900 90.70 84.45 9.60
10648 23.4920 91.70 84.49 9.60
10649 23.4940 77.40 84.54 8.90
10650 23.4960 81.10 84.60 9.10
10651 23.4980 81.90 84.68 9.10
10652 23.5000 81.20 84.77 9.10
10653 23.5020 93.90 84.89 9.70
10654 23.5040 93.20 85.04 9.80
10655 23.5060 91.80 85.23 9.70
10656 23.5080 80.80 85.45 9.10
10657 23.5100 89.70 85.69 9.50
10658 23.5120 95.20 85.88 9.80
10659 23.5140 84.80 85.99 9.30
10660 23.5160 84.70 86.04 9.30
10661 23.5180 81.20 86.11 9.10
10662 23.5200 89.00 86.26 9.40
10663 23.5220 106.20 86.47 10.30
10664 23.5240 93.60 86.71 9.80
10665 23.5260 96.20 86.89 9.90
10666 23.5280 82.90 86.98 9.20
10667 23.5300 86.10 87.63 9.30
10668 23.5320 90.80 87.75 9.60
10669 23.5340 97.90 87.99 9.90
10670 23.5360 92.70 88.39 9.70
10671 23.5380 89.00 89.00 9.50
10672 23.5400 102.80 89.87 10.10
10673 23.5420 81.60 91.08 9.10
10674 23.5440 104.70 92.69 10.30
10675 23.5460 103.60 94.72 10.20
10676 23.5480 104.10 96.89 10.30
10677 23.5500 84.30 98.55 9.20
10678 23.5520 90.60 98.99 9.50
10679 23.5540 119.60 98.35 11.00
10680 23.5560 95.60 97.45 9.80
10681 23.5580 97.80 97.06 9.90
10682 23.5600 112.70 97.52 10.60
10683 23.5620 108.30 98.96 10.40
10684 23.5640 98.80 101.38 10.10
10685 23.5660 93.60 104.40 9.70
10686 23.5680 79.00 106.90 9.00
10687 23.5700 88.50 107.36 9.40
10688 23.5720 94.30 105.32 9.70
10689 23.5740 95.80 102.00 9.90
10690 23.5760 108.60 98.77 10.50
10691 23.5780 89.70 96.24 9.50
10692 23.5800 117.80 94.51 10.80
10693 23.5820 87.20 93.46 9.40
10694 23.5840 83.00 93.02 9.20
10695 23.5860 89.30 93.11 9.50
10696 23.5880 96.40 93.75 9.90
10697 23.5900 103.90 94.95 10.20
10698 23.5920 87.70 96.66 9.40
10699 23.5940 84.00 98.56 9.30
10700 23.5960 91.70 99.90 9.60
10701 23.5980 81.30 100.07 9.10
10702 23.6000 95.70 99.17 9.80
10703 23.6020 101.60 97.64 10.10
10704 23.6040 96.90 95.78 9.90
10705 23.6060 80.10 93.88 9.00
10706 23.6080 96.40 92.22 9.90
10707 23.6100 97.20 90.91 9.90
10708 23.6120 91.20 89.93 9.60
10709 23.6140 83.30 89.21 9.20
10710 23.6160 85.50 88.69 9.30
10711 23.6180 90.60 88.31 9.60
10712 23.6200 100.90 88.04 10.00
10713 23.6220 96.30 87.84 9.80
10714 23.6240 88.00 87.71 9.50
10715 23.6260 105.00 87.62 10.30
10716 23.6280 81.30 87.57 9.10
10717 23.6300 87.10 87.56 9.30
10718 23.6320 89.00 87.57 9.40
10719 23.6340 97.60 87.62 10.00
10720 23.6360 93.70 87.70 9.70
10721 23.6380 102.30 87.82 10.10
10722 23.6400 89.80 87.98 9.50
10723 23.6420 98.60 88.19 9.90
10724 23.6440 108.00 88.45 10.50
10725 23.6460 104.50 88.75 10.30
10726 23.6480 89.20 89.06 9.50
10727 23.6500 96.50 89.38 9.80
10728 23.6520 110.70 89.71 10.60
10729 23.6540 90.10 90.14 9.60
10730 23.6560 91.10 90.71 9.60
10731 23.6580 98.50 91.50 10.00
10732 23.6600 78.60 92.58 8.90
10733 23.6620 91.10 94.06 9.60
10734 23.6640 112.20 96.10 10.70
10735 23.6660 111.70 98.89 10.60
10736 23.6680 103.20 102.62 10.20
10737 23.6700 122.70 107.23 11.10
10738 23.6720 109.60 112.14 10.40
10739 23.6740 103.00 115.18 10.20
10740 23.6760 111.50 114.75 10.60
10741 23.6780 105.00 111.21 10.30
10742 23.6800 123.60 106.61 11.10
10743 23.6820 96.20 102.49 9.80
10744 23.6840 102.50 99.34 10.20
10745 23.6860 104.60 97.12 10.30
10746 23.6880 102.20 95.60 10.20
10747 23.6900 93.60 94.57 9.70
10748 23.6920 96.70 93.80 9.80
10749 23.6940 102.00 93.15 10.20
10750 23.6960 95.10 92.60 9.80
10751 23.6980 105.60 92.17 10.30
10752 23.7000 92.50 91.87 9.60
10753 23.7020 80.70 91.68 9.00
10754 23.7040 85.60 91.58 9.40
10755 23.7060 85.00 91.57 9.30
10756 23.7080 106.10 91.62 10.30
10757 23.7100 112.90 91.72 10.60
10758 23.7120 89.80 91.86 9.50
10759 23.7140 91.30 92.05 9.70
10760 23.7160 96.10 92.28 9.90
10761 23.7180 107.20 92.55 10.40
10762 23.7200 92.50 92.87 9.70
10763 23.7220 78.00 93.24 8.80
10764 23.7240 112.80 93.64 10.70
10765 23.7260 101.10 94.08 10.20
10766 23.7280 92.60 94.57 9.70
10767 23.7300 78.40 95.11 8.90
10768 23.7320 88.70 95.72 9.50
10769 23.7340 104.50 96.39 10.30
10770 23.7360 109.90 97.13 10.60
10771 23.7380 121.90 97.96 11.00
10772 23.7400 98.40 98.88 10.00
10773 23.7420 93.00 99.91 9.60
10774 23.7440 101.40 101.07 10.10
10775 23.7460 102.30 102.37 10.20
10776 23.7480 96.00 103.84 9.90
10777 23.7500 107.10 105.51 10.40
10778 23.7520 104.30 107.41 10.20
10779 23.7540 112.70 109.60 10.70
10780 23.7560 111.90 112.12 10.60
10781 23.7580 117.70 115.07 10.90
10782 23.7600 95.00 118.52 9.80
10783 23.7620 140.70 122.61 11.80
10784 23.7640 123.80 127.51 11.20
10785 23.7660 140.60 133.45 12.00
10786 23.7680 122.90 140.75 11.10
10787 23.7700 151.40 149.82 12.30
10788 23.7720 153.10 161.24 12.40
10789 23.7740 195.70 175.75 14.10
10790 23.7760 181.00 194.17 13.60
10791 23.7780 241.60 217.35 15.60
10792 23.7800 258.70 246.40 16.10
10793 23.7820 283.00 284.58 16.90
10794 23.7840 353.00 339.15 19.00
10795 23.7860 497.20 422.76 22.50
10796 23.7880 570.70 556.21 24.20
10797 23.7900 741.20 769.41 27.30
10798 23.7920 999.40 1093.02 31.80
10799 23.7940 1463.70 1494.33 38.80
10800 23.7960 1783.30 1739.57 42.80
10801 23.7980 1631.30 1571.38 40.90
10802 23.8000 1280.60 1177.35 36.10
10803 23.8020 855.30 833.82 29.40
10804 23.8040 570.80 603.25 24.10
10805 23.8060 416.90 458.43 20.50
10806 23.8080 317.90 368.85 18.00
10807 23.8100 288.90 311.41 17.00
10808 23.8120 217.50 268.22 14.80
10809 23.8140 209.30 231.38 14.60
10810 23.8160 178.30 202.15 13.50
10811 23.8180 168.90 180.46 13.10
10812 23.8200 157.10 164.34 12.60
10813 23.8220 157.50 152.16 12.60
10814 23.8240 122.90 142.70 11.20
10815 23.8260 104.50 135.19 10.30
10816 23.8280 100.60 129.11 10.10
10817 23.8300 95.00 124.12 9.80
10818 23.8320 116.20 119.99 10.80
10819 23.8340 121.70 116.52 11.10
10820 23.8360 104.20 113.60 10.30
10821 23.8380 90.00 111.16 9.60
10822 23.8400 96.60 109.14 9.90
10823 23.8420 105.70 107.52 10.30
10824 23.8440 103.30 106.27 10.20
10825 23.8460 115.10 105.20 10.80
10826 23.8480 115.20 103.90 10.80
10827 23.8500 84.20 102.36 9.20
10828 23.8520 87.40 100.94 9.40
10829 23.8540 83.90 99.76 9.20
10830 23.8560 87.70 98.79 9.50
10831 23.8580 86.20 97.98 9.30
10832 23.8600 81.80 97.28 9.10
10833 23.8620 93.80 96.68 9.70
10834 23.8640 107.60 96.16 10.50
10835 23.8660 92.60 95.70 9.70
10836 23.8680 104.50 95.31 10.30
10837 23.8700 89.30 94.98 9.50
10838 23.8720 92.60 94.71 9.60
10839 23.8740 84.20 94.50 9.20
10840 23.8760 91.90 94.35 9.70
10841 23.8780 79.40 94.27 8.90
10842 23.8800 109.50 94.28 10.50
10843 23.8820 101.90 94.37 10.10
10844 23.8840 89.20 94.58 9.50
10845 23.8860 92.00 94.88 9.60
10846 23.8880 84.60 95.22 9.30
10847 23.8900 114.30 95.53 10.70
10848 23.8920 91.20 95.80 9.60
10849 23.8940 115.20 96.16 10.80
10850 23.8960 107.80 96.77 10.40
10851 23.8980 108.30 97.76 10.50
10852 23.9000 89.00 99.22 9.40
10853 23.9020 102.00 101.13 10.10
10854 23.9040 116.90 103.33 10.80
10855 23.9060 105.30 105.50 10.30
10856 23.9080 122.20 107.01 11.10
10857 23.9100 103.10 107.03 10.20
10858 23.9120 96.70 105.42 9.90
10859 23.9140 101.70 103.02 10.20
10860 23.9160 82.80 100.74 9.20
10861 23.9180 107.40 98.97 10.40
10862 23.9200 105.70 97.73 10.30
10863 23.9220 100.80 96.93 10.00
10864 23.9240 81.90 96.48 9.10
10865 23.9260 98.60 96.30 10.00
10866 23.9280 117.30 96.33 10.90
10867 23.9300 110.90 96.56 10.60
10868 23.9320 99.60 96.98 10.00
10869 23.9340 116.30 97.58 10.80
10870 23.9360 105.70 98.37 10.40
10871 23.9380 89.90 99.40 9.50
10872 23.9400 116.90 100.74 10.80
10873 23.9420 117.50 102.45 10.90
10874 23.9440 114.80 104.71 10.80
10875 23.9460 120.80 107.67 11.10
10876 23.9480 124.40 111.46 11.20
10877 23.9500 121.60 115.96 11.10
10878 23.9520 142.20 120.53 12.00
10879 23.9540 146.40 123.98 12.10
10880 23.9560 143.30 125.70 12.10
10881 23.9580 150.90 126.62 12.30
10882 23.9600 138.30 128.21 11.80
10883 23.9620 154.00 131.24 12.40
10884 23.9640 170.30 135.60 13.20
10885 23.9660 163.80 140.68 13.00
10886 23.9680 173.70 146.35 13.20
10887 23.9700 194.80 153.76 14.00
10888 23.9720 190.60 164.85 13.90
10889 23.9740 190.50 181.92 13.90
10890 23.9760 232.20 208.04 15.40
10891 23.9780 259.30 247.68 16.10
10892 23.9800 265.80 306.77 16.40
10893 23.9820 357.50 389.89 19.00
10894 23.9840 436.60 489.05 21.10
10895 23.9860 518.40 562.62 23.00
10896 23.9880 576.90 554.46 24.30
10897 23.9900 544.90 474.01 23.50
10898 23.9920 479.50 379.59 22.00
10899 23.9940 343.60 303.30 18.60
10900 23.9960 275.50 249.84 16.70
10901 23.9980 223.10 214.90 15.00
10902 24.0000 190.70 192.28 13.80
10903 24.0020 148.70 174.82 12.20
10904 24.0040 141.00 158.26 12.00
10905 24.0060 129.00 143.85 11.40
10906 24.0080 123.70 132.78 11.20
10907 24.0100 131.30 124.64 11.50
10908 24.0120 117.30 118.65 10.90
10909 24.0140 106.60 114.15 10.40
10910 24.0160 103.10 110.73 10.20
10911 24.0180 94.10 108.11 9.80
10912 24.0200 101.00 106.12 10.10
10913 24.0220 116.70 104.66 10.90
10914 24.0240 105.40 103.68 10.30
10915 24.0260 112.30 103.17 10.70
10916 24.0280 84.00 103.14 9.20
10917 24.0300 92.70 103.56 9.70
10918 24.0320 98.90 104.38 10.00
10919 24.0340 110.00 105.50 10.60
10920 24.0360 112.10 106.71 10.70
10921 24.0380 113.90 107.35 10.70
10922 24.0400 114.70 106.81 10.80
10923 24.0420 95.10 105.30 9.80
10924 24.0440 101.40 103.68 10.10
10925 24.0460 102.40 102.60 10.20
10926 24.0480 103.80 102.29 10.20
10927 24.0500 105.90 102.71 10.30
10928 24.0520 101.40 103.44 10.10
10929 24.0540 92.00 103.75 9.70
10930 24.0560 99.20 102.94 10.00
10931 24.0580 104.60 101.19 10.30
10932 24.0600 101.10 99.20 10.10
10933 24.0620 107.70 97.51 10.40
10934 24.0640 111.10 96.26 10.60
10935 24.0660 105.90 94.87 10.40
10936 24.0680 99.70 94.45 10.00
10937 24.0700 83.20 94.37 9.10
10938 24.0720 90.60 94.62 9.50
10939 24.0740 121.50 95.22 11.10
10940 24.0760 91.10 96.23 9.60
10941 24.0780 94.10 97.65 9.80
10942 24.0800 109.00 100.46 10.40
10943 24.0820 107.10 102.55 10.30
10944 24.0840 114.50 104.83 10.80
10945 24.0860 116.10 107.23 10.90
10946 24.0880 118.30 109.53 10.90
10947 24.0900 96.50 111.74 9.80
10948 24.0920 112.60 114.46 10.60
10949 24.0940 109.20 117.87 10.50
10950 24.0960 123.80 120.18 11.30
10951 24.0980 117.00 118.98 10.80
10952 24.1000 131.40 114.67 11.50
10953 24.1020 133.50 109.49 11.60
10954 24.1040 116.30 104.98 10.80
10955 24.1060 117.40 101.65 10.90
10956 24.1080 94.60 99.45 9.80
10957 24.1100 99.10 98.19 10.00
10958 24.1120 118.70 97.68 10.90
10959 24.1140 101.40 97.76 10.10
10960 24.1160 86.00 98.15 9.40
10961 24.1180 112.90 98.37 10.60
10962 24.1200 105.00 97.92 10.30
10963 24.1220 100.60 96.77 10.00
10964 24.1240 105.00 95.36 10.30
10965 24.1260 105.30 94.06 10.30
10966 24.1280 90.10 93.02 9.50
10967 24.1300 106.80 92.25 10.30
10968 24.1320 125.40 91.69 11.20
10969 24.1340 104.40 91.30 10.20
10970 24.1360 89.80 91.03 9.60
10971 24.1380 95.80 90.86 9.80
10972 24.1400 109.80 90.77 10.50
10973 24.1420 96.00 90.75 9.80
10974 24.1440 97.00 90.80 9.90
10975 24.1460 89.80 90.91 9.50
10976 24.1480 112.30 91.09 10.60
10977 24.1500 100.80 91.36 10.10
10978 24.1520 91.50 91.74 9.60
10979 24.1540 92.70 92.24 9.60
10980 24.1560 123.90 92.93 11.20
10981 24.1580 106.60 93.87 10.30
10982 24.1600 91.20 95.16 9.50
10983 24.1620 108.30 96.93 10.40
10984 24.1640 86.70 99.37 9.40
10985 24.1660 116.80 102.63 10.90
10986 24.1680 109.70 106.72 10.50
10987 24.1700 114.00 111.08 10.70
10988 24.1720 112.70 114.17 10.60
10989 24.1740 126.40 114.28 11.30
10990 24.1760 128.10 111.45 11.40
10991 24.1780 110.60 107.42 10.60
10992 24.1800 95.20 103.74 9.80
10993 24.1820 98.70 101.00 10.00
10994 24.1840 112.80 99.26 10.70
10995 24.1860 110.70 98.50 10.60
10996 24.1880 116.60 98.75 10.90
10997 24.1900 115.70 100.26 10.80
10998 24.1920 125.00 103.37 11.20
10999 24.1940 118.90 107.87 10.90
11000 24.1960 132.50 111.11 11.60
11001 24.1980 127.30 109.26 11.30
11002 24.2000 113.70 104.17 10.70
11003 24.2020 109.90 99.68 10.50
11004 24.2040 114.30 96.70 10.80
11005 24.2060 101.20 94.88 10.10
11006 24.2080 81.80 93.78 9.10
11007 24.2100 95.40 93.08 9.80
11008 24.2120 101.00 92.57 10.10
11009 24.2140 90.50 92.18 9.60
11010 24.2160 97.10 91.87 9.90
11011 24.2180 89.40 91.65 9.50
11012 24.2200 87.70 91.49 9.40
11013 24.2220 73.90 91.40 8.60
11014 24.2240 81.70 91.37 9.00
11015 24.2260 96.60 91.36 9.90
11016 24.2280 84.60 91.39 9.30
11017 24.2300 81.80 91.44 9.10
11018 24.2320 93.90 91.51 9.70
11019 24.2340 93.90 91.61 9.70
11020 24.2360 96.00 91.73 9.90
11021 24.2380 90.40 91.87 9.50
11022 24.2400 101.20 92.04 10.10
11023 24.2420 105.70 92.23 10.30
11024 24.2440 102.50 92.46 10.20
11025 24.2460 90.90 92.72 9.60
11026 24.2480 96.60 93.03 9.90
11027 24.2500 96.10 93.41 9.80
11028 24.2520 90.80 93.86 9.60
11029 24.2540 107.00 94.41 10.40
11030 24.2560 95.40 95.09 9.90
11031 24.2580 81.90 95.89 9.10
11032 24.2600 93.80 96.76 9.70
11033 24.2620 91.00 97.54 9.60
11034 24.2640 82.90 98.15 9.20
11035 24.2660 92.10 98.68 9.70
11036 24.2680 102.10 99.35 10.10
11037 24.2700 94.90 100.33 9.80
11038 24.2720 101.00 101.58 10.10
11039 24.2740 94.00 102.81 9.80
11040 24.2760 110.20 103.49 10.60
11041 24.2780 110.10 103.31 10.60
11042 24.2800 93.50 102.58 9.70
11043 24.2820 94.80 101.79 9.80
11044 24.2840 111.50 101.24 10.60
11045 24.2860 99.10 100.99 10.00
11046 24.2880 100.10 101.00 10.10
11047 24.2900 88.60 101.23 9.40
11048 24.2920 106.40 101.65 10.40
11049 24.2940 98.10 102.22 9.90
11050 24.2960 114.50 102.95 10.80
11051 24.2980 105.30 103.84 10.30
11052 24.3000 119.90 104.90 11.00
11053 24.3020 101.10 106.16 10.10
11054 24.3040 117.20 107.47 10.80
11055 24.3060 104.10 109.15 10.30
11056 24.3080 108.20 110.92 10.40
11057 24.3100 104.20 112.57 10.30
11058 24.3120 114.80 113.97 10.70
11059 24.3140 133.10 115.28 11.60
11060 24.3160 112.10 116.76 10.60
11061 24.3180 117.00 118.58 10.90
11062 24.3200 120.50 120.82 11.00
11063 24.3220 107.70 123.54 10.40
11064 24.3240 114.10 126.79 10.70
11065 24.3260 150.50 130.68 12.40
11066 24.3280 131.90 135.35 11.50
11067 24.3300 133.60 140.99 11.60
11068 24.3320 137.80 147.80 11.80
11069 24.3340 154.00 155.96 12.40
11070 24.3360 176.80 165.34 13.40
11071 24.3380 178.20 175.34 13.30
11072 24.3400 204.00 185.18 14.30
11073 24.3420 214.90 195.03 14.60
11074 24.3440 226.50 206.51 15.10
11075 24.3460 281.90 221.29 16.80
11076 24.3480 310.80 240.57 17.70
11077 24.3500 327.50 265.27 18.10
11078 24.3520 387.70 296.24 19.70
11079 24.3540 433.00 335.29 20.80
11080 24.3560 513.40 386.54 22.90
11081 24.3580 550.90 458.03 23.50
11082 24.3600 672.40 561.93 26.00
11083 24.3620 824.50 717.74 28.90
11084 24.3640 941.90 955.98 31.00
11085 24.3660 1211.80 1318.11 35.40
11086 24.3680 1595.80 1838.92 40.40
11087 24.3700 2096.00 2454.73 46.20
11088 24.3720 2724.50 2842.25 52.90
11089 24.3740 2867.00 2644.01 54.60
11090 24.3760 2281.80 2057.09 48.40
11091 24.3780 1567.80 1485.87 40.00
11092 24.3800 1100.90 1071.94 33.30
11093 24.3820 709.70 797.56 26.60
11094 24.3840 538.90 618.27 23.30
11095 24.3860 369.60 498.16 19.40
11096 24.3880 317.80 414.16 17.80
11097 24.3900 279.40 352.60 16.70
11098 24.3920 250.70 306.05 15.90
11099 24.3940 225.30 269.93 15.00
11100 24.3960 179.00 241.29 13.50
11101 24.3980 166.00 218.49 12.90
11102 24.4000 160.70 200.25 12.70
11103 24.4020 142.70 185.57 11.90
11104 24.4040 154.80 173.64 12.50
11105 24.4060 146.20 163.85 12.10
11106 24.4080 153.60 155.78 12.40
11107 24.4100 146.00 149.03 12.00
11108 24.4120 123.00 143.36 11.10
11109 24.4140 113.40 138.47 10.70
11110 24.4160 126.90 134.07 11.30
11111 24.4180 109.50 129.99 10.40
11112 24.4200 109.30 126.24 10.50
11113 24.4220 110.00 122.89 10.40
11114 24.4240 118.10 119.94 10.80
11115 24.4260 110.00 117.37 10.60
11116 24.4280 109.90 115.10 10.50
11117 24.4300 110.50 113.10 10.50
11118 24.4320 97.10 111.33 9.80
11119 24.4340 129.60 109.74 11.40
11120 24.4360 102.20 108.33 10.20
11121 24.4380 107.50 107.05 10.40
11122 24.4400 107.80 105.91 10.40
11123 24.4420 92.80 104.88 9.60
11124 24.4440 118.60 103.96 10.90
11125 24.4460 106.10 103.14 10.40
11126 24.4480 96.80 102.41 9.80
11127 24.4500 95.20 101.79 9.70
11128 24.4520 88.90 101.26 9.40
11129 24.4540 109.00 100.84 10.50
11130 24.4560 110.70 100.51 10.60
11131 24.4580 93.40 100.27 9.60
11132 24.4600 110.30 100.05 10.50
11133 24.4620 85.10 99.80 9.20
11134 24.4640 94.50 99.55 9.80
11135 24.4660 95.20 99.41 9.80
11136 24.4680 93.70 99.48 9.70
11137 24.4700 115.20 99.84 10.70
11138 24.4720 101.90 100.58 10.10
11139 24.4740 85.10 101.79 9.30
11140 24.4760 105.90 103.58 10.40
11141 24.4780 104.30 105.90 10.20
11142 24.4800 128.90 108.65 11.30
11143 24.4820 126.00 111.01 11.30
11144 24.4840 104.80 110.88 10.30
11145 24.4860 103.20 108.05 10.20
11146 24.4880 106.50 104.68 10.30
11147 24.4900 117.80 101.86 10.90
11148 24.4920 101.00 99.79 10.10
11149 24.4940 92.40 98.39 9.60
11150 24.4960 107.20 97.54 10.40
11151 24.4980 101.10 97.15 10.10
11152 24.5000 95.90 97.18 9.80
11153 24.5020 107.70 97.60 10.40
11154 24.5040 104.00 98.35 10.20
11155 24.5060 74.90 99.23 8.70
11156 24.5080 92.50 99.75 9.70
11157 24.5100 93.40 99.42 9.60
11158 24.5120 88.40 98.28 9.50
11159 24.5140 87.80 96.85 9.40
11160 24.5160 87.30 95.54 9.40
11161 24.5180 101.30 94.49 10.10
11162 24.5200 107.40 93.70 10.40
11163 24.5220 102.60 93.12 10.20
11164 24.5240 81.30 92.68 9.10
11165 24.5260 74.50 92.35 8.70
11166 24.5280 97.20 92.10 9.90
11167 24.5300 112.00 91.92 10.60
11168 24.5320 76.20 91.80 8.80
11169 24.5340 94.70 91.74 9.80
11170 24.5360 105.00 91.72 10.40
11171 24.5380 88.50 91.73 9.50
11172 24.5400 88.30 91.72 9.40
11173 24.5420 88.90 91.70 9.50
11174 24.5440 106.70 91.69 10.40
11175 24.5460 106.10 91.72 10.40
11176 24.5480 90.00 91.82 9.50
11177 24.5500 95.10 92.01 9.80
11178 24.5520 77.70 92.31 8.90
11179 24.5540 100.10 92.75 10.10
11180 24.5560 84.70 93.37 9.30
11181 24.5580 94.30 94.23 9.80
11182 24.5600 110.70 95.37 10.60
11183 24.5620 114.50 96.77 10.80
11184 24.5640 84.00 98.20 9.20
11185 24.5660 94.00 99.40 9.80
11186 24.5680 99.40 100.26 10.10
11187 24.5700 93.10 101.07 9.70
11188 24.5720 118.30 102.07 11.00
11189 24.5740 103.40 103.13 10.30
11190 24.5760 88.50 103.92 9.60
11191 24.5780 108.50 104.01 10.50
11192 24.5800 119.40 103.03 11.00
11193 24.5820 99.10 101.14 10.10
11194 24.5840 107.90 99.00 10.50
11195 24.5860 99.20 97.16 10.10
11196 24.5880 124.50 95.78 11.30
11197 24.5900 96.30 94.83 9.90
11198 24.5920 104.90 94.23 10.30
11199 24.5940 97.00 93.91 10.00
11200 24.5960 105.90 93.84 10.40
11201 24.5980 109.40 93.99 10.60
11202 24.6000 98.40 94.38 10.00
11203 24.6020 109.30 95.06 10.50
11204 24.6040 98.70 96.12 10.00
11205 24.6060 100.00 97.69 10.10
11206 24.6080 102.00 99.82 10.20
11207 24.6100 103.70 102.22 10.30
11208 24.6120 110.70 104.35 10.60
11209 24.6140 104.60 106.51 10.30
11210 24.6160 113.10 109.64 10.70
11211 24.6180 100.80 113.90 10.10
11212 24.6200 131.80 118.30 11.50
11213 24.6220 107.40 120.85 10.40
11214 24.6240 115.90 120.01 10.80
11215 24.6260 109.40 116.63 10.50
11216 24.6280 129.20 112.83 11.40
11217 24.6300 99.70 110.06 10.00
11218 24.6320 113.30 108.82 10.70
11219 24.6340 112.30 109.18 10.70
11220 24.6360 107.90 111.04 10.50
11221 24.6380 131.10 113.93 11.50
11222 24.6400 113.70 116.61 10.70
11223 24.6420 136.50 117.19 11.70
11224 24.6440 106.10 114.82 10.40
11225 24.6460 98.70 110.66 10.00
11226 24.6480 88.80 106.42 9.50
11227 24.6500 104.20 102.98 10.30
11228 24.6520 109.00 100.49 10.40
11229 24.6540 92.80 98.84 9.70
11230 24.6560 131.70 97.91 11.60
11231 24.6580 125.80 97.61 11.30
11232 24.6600 103.30 97.89 10.20
11233 24.6620 92.00 98.75 9.60
11234 24.6640 119.40 100.14 11.00
11235 24.6660 106.20 101.80 10.40
11236 24.6680 91.20 102.24 9.60
11237 24.6700 96.50 102.94 9.90
11238 24.6720 84.00 102.86 9.20
11239 24.6740 87.60 102.05 9.40
11240 24.6760 109.50 100.48 10.60
11241 24.6780 86.10 98.57 9.30
11242 24.6800 95.80 96.44 9.80
11243 24.6820 100.80 94.63 10.00
11244 24.6840 96.60 93.21 9.90
11245 24.6860 117.60 92.15 10.90
11246 24.6880 93.60 91.35 9.70
11247 24.6900 103.80 90.76 10.20
11248 24.6920 108.00 90.32 10.40
11249 24.6940 90.10 89.99 9.60
11250 24.6960 107.90 89.74 10.50
11251 24.6980 112.30 89.56 10.70
11252 24.7000 79.40 89.43 8.90
11253 24.7020 87.60 89.35 9.30
11254 24.7040 96.40 89.31 9.90
11255 24.7060 90.70 89.32 9.60
11256 24.7080 90.20 89.38 9.50
11257 24.7100 96.10 89.50 9.90
11258 24.7120 85.70 89.71 9.20
11259 24.7140 90.80 90.01 9.60
11260 24.7160 95.20 90.43 9.80
11261 24.7180 97.90 90.97 10.00
11262 24.7200 92.10 91.55 9.60
11263 24.7220 92.80 92.01 9.60
11264 24.7240 98.10 92.10 10.00
11265 24.7260 93.50 91.79 9.70
11266 24.7280 85.70 91.31 9.30
11267 24.7300 96.80 90.85 9.90
11268 24.7320 79.30 90.52 8.90
11269 24.7340 92.90 90.33 9.70
11270 24.7360 89.20 90.26 9.50
11271 24.7380 108.30 90.29 10.40
11272 24.7400 93.90 90.43 9.80
11273 24.7420 111.40 90.67 10.60
11274 24.7440 102.40 91.02 10.10
11275 24.7460 92.20 91.51 9.70
11276 24.7480 100.20 92.19 10.10
11277 24.7500 112.70 93.13 10.70
11278 24.7520 90.60 94.41 9.50
11279 24.7540 99.10 96.16 10.00
11280 24.7560 98.60 98.52 10.00
11281 24.7580 104.60 101.53 10.20
11282 24.7600 94.40 104.96 9.70
11283 24.7620 111.70 107.97 10.60
11284 24.7640 111.80 109.49 10.60
11285 24.7660 89.20 109.15 9.50
11286 24.7680 124.20 107.56 11.30
11287 24.7700 92.00 105.46 9.60
11288 24.7720 103.70 103.20 10.20
11289 24.7740 90.80 100.90 9.60
11290 24.7760 108.50 98.84 10.50
11291 24.7780 91.90 97.27 9.60
11292 24.7800 93.40 96.27 9.70
11293 24.7820 96.10 95.84 9.80
11294 24.7840 87.80 95.92 9.40
11295 24.7860 91.40 96.47 9.60
11296 24.7880 100.30 97.30 10.10
11297 24.7900 96.00 98.02 9.90
11298 24.7920 109.20 98.11 10.50
11299 24.7940 101.60 97.40 10.20
11300 24.7960 104.90 96.31 10.30
11301 24.7980 99.00 95.30 10.00
11302 24.8000 96.90 94.59 9.90
11303 24.8020 116.00 94.23 10.80
11304 24.8040 94.10 94.20 9.80
11305 24.8060 109.60 94.48 10.60
11306 24.8080 102.30 95.06 10.10
11307 24.8100 107.20 95.98 10.40
11308 24.8120 95.80 97.33 9.80
11309 24.8140 97.20 99.20 9.90
11310 24.8160 89.50 101.55 9.60
11311 24.8180 120.10 104.04 11.00
11312 24.8200 104.20 105.92 10.30
11313 24.8220 107.40 106.61 10.30
11314 24.8240 106.80 106.52 10.40
11315 24.8260 104.80 106.69 10.30
11316 24.8280 103.70 107.87 10.20
11317 24.8300 110.10 110.37 10.50
11318 24.8320 107.90 113.90 10.40
11319 24.8340 111.90 117.35 10.60
11320 24.8360 131.10 118.84 11.50
11321 24.8380 124.90 117.27 11.20
11322 24.8400 110.00 113.40 10.50
11323 24.8420 115.10 108.80 10.70
11324 24.8440 111.70 104.61 10.60
11325 24.8460 116.90 101.27 10.90
11326 24.8480 81.00 98.77 9.10
11327 24.8500 121.80 96.96 11.00
11328 24.8520 101.00 95.67 10.00
11329 24.8540 101.30 94.75 10.10
11330 24.8560 110.50 94.11 10.60
11331 24.8580 94.30 93.68 9.70
11332 24.8600 104.30 93.41 10.20
11333 24.8620 98.60 93.28 9.80
11334 24.8640 94.90 93.27 9.80
11335 24.8660 105.70 93.38 10.40
11336 24.8680 111.40 93.61 10.60
11337 24.8700 98.40 93.99 9.90
11338 24.8720 109.00 94.54 10.40
11339 24.8740 92.70 95.33 9.70
11340 24.8760 104.10 96.42 10.30
11341 24.8780 115.30 97.91 10.70
11342 24.8800 107.40 99.89 10.40
11343 24.8820 103.20 102.38 10.10
11344 24.8840 113.80 105.08 10.70
11345 24.8860 101.10 107.18 10.10
11346 24.8880 105.90 107.71 10.40
11347 24.8900 106.70 106.57 10.30
11348 24.8920 95.60 104.70 9.80
11349 24.8940 104.10 102.98 10.30
11350 24.8960 99.70 101.81 10.10
11351 24.8980 97.40 101.24 9.90
11352 24.9000 115.80 101.24 10.80
11353 24.9020 103.20 101.78 10.10
11354 24.9040 108.00 102.85 10.50
11355 24.9060 97.40 104.48 9.90
11356 24.9080 91.00 106.72 9.60
11357 24.9100 106.80 109.53 10.40
11358 24.9120 106.80 112.59 10.30
11359 24.9140 106.60 115.34 10.40
11360 24.9160 107.80 117.48 10.40
11361 24.9180 111.60 119.52 10.60
11362 24.9200 119.50 122.39 10.90
11363 24.9220 100.70 126.86 10.00
11364 24.9240 133.50 133.59 11.50
11365 24.9260 132.80 143.41 11.50
11366 24.9280 152.60 157.68 12.50
11367 24.9300 185.00 178.57 13.60
11368 24.9320 198.20 209.60 14.10
11369 24.9340 218.60 256.86 14.90
11370 24.9360 335.60 329.60 18.50
11371 24.9380 519.90 436.30 22.90
11372 24.9400 599.90 555.99 24.50
11373 24.9420 646.00 599.51 25.60
11374 24.9440 499.00 515.00 22.40
11375 24.9460 443.00 389.35 21.20
11376 24.9480 299.10 291.17 17.40
11377 24.9500 220.70 227.22 14.90
11378 24.9520 214.40 186.98 14.60
11379 24.9540 183.40 161.37 13.60
11380 24.9560 162.00 144.43 12.80
11381 24.9580 132.00 132.74 11.50
11382 24.9600 137.80 124.35 11.80
11383 24.9620 121.20 118.16 11.00
11384 24.9640 141.00 113.50 12.00
11385 24.9660 112.60 109.93 10.70
11386 24.9680 92.50 107.17 9.70
11387 24.9700 96.30 104.97 9.80
11388 24.9720 108.20 103.14 10.40
11389 24.9740 106.60 101.56 10.40
11390 24.9760 95.00 100.16 9.80
11391 24.9780 112.60 98.98 10.70
11392 24.9800 93.90 98.01 9.80
11393 24.9820 100.30 97.22 10.00
11394 24.9840 111.70 96.61 10.60
11395 24.9860 79.60 96.16 9.00
11396 24.9880 89.40 95.86 9.50
11397 24.9900 113.00 95.71 10.60
11398 24.9920 108.30 95.72 10.40
11399 24.9940 105.00 95.94 10.30
11400 24.9960 105.80 96.42 10.40
11401 24.9980 95.40 97.24 9.80
11402 25.0000 94.80 98.45 9.70
11403 25.0020 97.60 100.17 9.90
11404 25.0040 103.80 102.35 10.20
11405 25.0060 100.70 104.61 10.10
11406 25.0080 105.70 106.08 10.40
11407 25.0100 117.30 105.98 10.80
11408 25.0120 113.50 104.55 10.70
11409 25.0140 93.30 102.81 9.70
11410 25.0160 102.10 101.54 10.20
11411 25.0180 108.90 101.02 10.50
11412 25.0200 117.80 101.23 10.80
11413 25.0220 117.30 101.88 10.80
11414 25.0240 105.30 102.38 10.30
11415 25.0260 98.00 102.09 10.00
11416 25.0280 107.20 100.99 10.40
11417 25.0300 108.00 99.65 10.50
11418 25.0320 104.10 98.60 10.20
11419 25.0340 95.30 98.04 9.80
11420 25.0360 116.80 98.06 10.90
11421 25.0380 120.30 98.70 11.00
11422 25.0400 112.50 100.03 10.60
11423 25.0420 103.90 102.18 10.20
11424 25.0440 99.00 105.23 10.00
11425 25.0460 113.40 109.09 10.70
11426 25.0480 112.70 113.06 10.60
11427 25.0500 109.70 115.55 10.50
11428 25.0520 103.20 115.03 10.20
11429 25.0540 106.20 111.72 10.40
11430 25.0560 95.10 107.32 9.80
11431 25.0580 99.50 103.23 10.00
11432 25.0600 111.80 99.95 10.60
11433 25.0620 109.80 97.48 10.50
11434 25.0640 101.90 95.66 10.10
11435 25.0660 85.00 94.32 9.30
11436 25.0680 74.30 93.34 8.70
11437 25.0700 95.80 92.62 9.80
11438 25.0720 97.00 92.08 9.90
11439 25.0740 91.00 91.70 9.60
11440 25.0760 77.30 91.43 8.90
11441 25.0780 100.00 91.27 10.00
11442 25.0800 92.80 91.21 9.70
11443 25.0820 96.60 91.25 9.80
11444 25.0840 114.50 91.42 10.70
11445 25.0860 90.80 91.74 9.50
11446 25.0880 98.40 92.26 10.00
11447 25.0900 100.70 93.03 10.00
11448 25.0920 96.40 94.09 9.80
11449 25.0940 96.70 95.42 9.90
11450 25.0960 114.80 96.81 10.80
11451 25.0980 99.00 97.72 10.00
11452 25.1000 110.90 97.62 10.60
11453 25.1020 101.00 96.54 10.00
11454 25.1040 85.40 95.04 9.20
11455 25.1060 86.30 93.60 9.40
11456 25.1080 99.90 92.44 10.00
11457 25.1100 100.00 91.58 10.00
11458 25.1120 110.70 90.93 10.40
11459 25.1140 93.70 90.42 9.70
11460 25.1160 93.00 90.01 9.70
11461 25.1180 100.20 89.67 10.00
11462 25.1200 92.40 89.38 9.60
11463 25.1220 88.90 89.16 9.40
11464 25.1240 110.30 88.97 10.50
11465 25.1260 81.00 89.73 9.00
11466 25.1280 88.60 89.62 9.50
11467 25.1300 109.40 89.53 10.50
11468 25.1320 88.80 89.46 9.40
11469 25.1340 91.30 89.40 9.60
11470 25.1360 91.60 89.35 9.60
11471 25.1380 84.70 89.31 9.20
11472 25.1400 88.30 89.28 9.40
11473 25.1420 100.60 89.25 10.00
11474 25.1440 101.40 89.23 10.10
11475 25.1460 97.90 89.21 9.90
11476 25.1480 108.00 89.20 10.40
11477 25.1500 103.10 89.19 10.20
11478 25.1520 96.10 89.19 9.70
11479 25.1540 81.40 89.18 9.10
11480 25.1560 91.40 89.19 9.60
11481 25.1580 96.40 89.18 9.90
11482 25.1600 87.00 89.19 9.30
11483 25.1620 96.50 89.20 9.80
11484 25.1640 88.00 89.20 9.40
11485 25.1660 95.00 89.22 9.80
11486 25.1680 118.50 89.23 11.00
11487 25.1700 89.70 89.24 9.40
11488 25.1720 97.00 89.26 9.80
11489 25.1740 85.70 89.28 9.30
11490 25.1760 90.10 89.30 9.50
11491 25.1780 91.40 89.33 9.60
11492 25.1800 85.60 89.35 9.20
11493 25.1820 102.20 89.38 10.10
11494 25.1840 90.30 89.41 9.50
11495 25.1860 79.20 89.44 8.90
11496 25.1880 82.50 89.48 9.10
11497 25.1900 78.10 89.52 8.80
11498 25.1920 93.00 89.56 9.60
11499 25.1940 113.60 89.61 10.70
11500 25.1960 111.60 89.66 10.60
11501 25.1980 82.80 89.71 9.10
11502 25.2000 82.70 89.77 9.10
11503 25.2020 102.90 89.83 10.10
11504 25.2040 101.20 89.90 10.00
11505 25.2060 104.50 89.98 10.30
11506 25.2080 76.80 89.89 8.80
11507 25.2100 104.10 89.99 10.20
11508 25.2120 119.30 90.10 10.90
11509 25.2140 96.60 90.22 9.90
11510 25.2160 102.10 90.36 10.10
11511 25.2180 84.00 90.53 9.20
11512 25.2200 101.80 90.73 10.10
11513 25.2220 89.20 90.98 9.40
11514 25.2240 93.70 92.20 9.70
11515 25.2260 113.20 92.59 10.70
11516 25.2280 91.00 93.09 9.60
11517 25.2300 108.30 93.71 10.40
11518 25.2320 104.90 94.49 10.30
11519 25.2340 90.80 95.44 9.50
11520 25.2360 92.50 96.61 9.70
11521 25.2380 108.60 97.95 10.50
11522 25.2400 98.90 99.21 10.00
11523 25.2420 100.70 99.91 10.10
11524 25.2440 115.20 99.84 10.80
11525 25.2460 99.60 99.24 10.10
11526 25.2480 94.50 98.50 9.80
11527 25.2500 119.00 97.82 10.90
11528 25.2520 86.80 97.33 9.40
11529 25.2540 109.30 97.13 10.50
11530 25.2560 102.20 97.58 10.20
11531 25.2580 108.60 98.06 10.50
11532 25.2600 110.80 98.75 10.60
11533 25.2620 119.30 99.34 11.00
11534 25.2640 121.70 99.45 11.10
11535 25.2660 95.20 98.98 9.90
11536 25.2680 89.60 98.23 9.60
11537 25.2700 103.10 97.54 10.20
11538 25.2720 110.70 97.05 10.50
11539 25.2740 98.40 96.81 10.00
11540 25.2760 96.20 96.78 9.90
11541 25.2780 108.10 96.94 10.50
11542 25.2800 115.20 97.27 10.80
11543 25.2820 73.70 97.72 8.60
11544 25.2840 93.70 98.13 9.70
11545 25.2860 89.90 98.34 9.60
11546 25.2880 88.50 98.30 9.50
11547 25.2900 103.00 98.13 10.20
11548 25.2920 98.10 98.00 9.90
11549 25.2940 94.70 97.97 9.80
11550 25.2960 105.20 98.04 10.30
11551 25.2980 89.70 98.21 9.60
11552 25.3000 120.50 98.47 11.00
11553 25.3020 105.00 98.80 10.20
11554 25.3040 115.50 99.21 10.80
11555 25.3060 107.00 99.68 10.50
11556 25.3080 112.20 100.21 10.70
11557 25.3100 111.50 100.84 10.60
11558 25.3120 114.50 101.56 10.70
11559 25.3140 126.20 102.39 11.30
11560 25.3160 117.60 103.36 10.90
11561 25.3180 98.90 104.51 10.00
11562 25.3200 96.70 105.86 9.90
11563 25.3220 102.10 107.45 10.10
11564 25.3240 116.50 109.27 10.80
11565 25.3260 122.40 111.35 11.20
11566 25.3280 124.10 113.82 11.20
11567 25.3300 114.50 116.93 10.70
11568 25.3320 113.50 120.89 10.70
11569 25.3340 149.70 125.70 12.30
11570 25.3360 126.20 130.92 11.30
11571 25.3380 117.60 135.77 10.90
11572 25.3400 135.60 139.32 11.70
11573 25.3420 159.50 140.77 12.60
11574 25.3440 148.20 140.22 12.30
11575 25.3460 145.30 139.07 12.10
11576 25.3480 131.50 138.76 11.60
11577 25.3500 140.00 139.90 11.80
11578 25.3520 154.30 142.17 12.50
11579 25.3540 147.20 144.54 12.20
11580 25.3560 137.30 145.98 11.80
11581 25.3580 156.80 146.49 12.60
11582 25.3600 137.70 147.01 11.70
11583 25.3620 130.40 148.42 11.50
11584 25.3640 154.30 151.15 12.50
11585 25.3660 155.20 155.35 12.60
11586 25.3680 150.60 161.15 12.40
11587 25.3700 172.80 168.72 13.20
11588 25.3720 195.60 178.38 14.10
11589 25.3740 220.20 190.52 14.90
11590 25.3760 203.00 205.68 14.40
11591 25.3780 232.90 224.45 15.40
11592 25.3800 276.70 247.64 16.70
11593 25.3820 288.70 277.00 17.10
11594 25.3840 364.30 315.65 19.20
11595 25.3860 442.70 368.94 21.30
11596 25.3880 522.20 445.18 23.10
11597 25.3900 664.70 558.77 25.90
11598 25.3920 766.00 734.13 28.10
11599 25.3940 1013.40 1008.74 32.20
11600 25.3960 1407.50 1428.69 38.30
11601 25.3980 2002.30 1993.51 45.50
11602 25.4000 2421.00 2482.89 50.30
11603 25.4020 2462.30 2461.07 50.40
11604 25.4040 2078.10 1954.39 46.20
11605 25.4060 1332.80 1399.28 37.30
11606 25.4080 1004.00 993.56 32.00
11607 25.4100 662.30 728.23 25.90
11608 25.4120 571.80 557.67 24.20
11609 25.4140 450.00 446.09 21.40
11610 25.4160 382.60 370.98 19.80
11611 25.4180 300.70 318.71 17.60
11612 25.4200 246.10 281.39 15.70
11613 25.4220 258.20 254.31 16.10
11614 25.4240 233.00 234.14 15.40
11615 25.4260 218.50 218.43 15.00
11616 25.4280 192.70 205.30 13.90
11617 25.4300 150.60 194.05 12.30
11618 25.4320 176.10 184.71 13.30
11619 25.4340 164.50 177.37 12.90
11620 25.4360 157.90 171.95 12.70
11621 25.4380 157.00 168.30 12.60
11622 25.4400 160.30 166.31 12.70
11623 25.4420 156.80 165.95 12.60
11624 25.4440 149.00 167.19 12.20
11625 25.4460 157.70 169.84 12.70
11626 25.4480 142.10 173.15 12.10
11627 25.4500 151.00 175.65 12.40
11628 25.4520 165.80 176.22 12.80
11629 25.4540 172.00 175.40 13.20
11630 25.4560 182.40 174.82 13.60
11631 25.4580 175.60 175.68 13.30
11632 25.4600 167.80 178.48 13.00
11633 25.4620 193.10 183.43 13.90
11634 25.4640 168.90 190.70 13.10
11635 25.4660 193.70 200.49 14.10
11636 25.4680 201.40 213.04 14.30
11637 25.4700 228.40 228.82 15.20
11638 25.4720 254.30 248.88 16.00
11639 25.4740 287.50 274.93 17.10
11640 25.4760 327.90 309.79 18.40
11641 25.4780 397.30 357.79 20.10
11642 25.4800 466.60 426.40 21.80
11643 25.4820 584.80 528.10 24.20
11644 25.4840 726.80 684.69 27.20
11645 25.4860 997.00 932.09 32.00
11646 25.4880 1297.20 1319.33 36.60
11647 25.4900 1945.20 1878.97 44.70
11648 25.4920 2340.20 2472.52 49.20
11649 25.4940 2609.30 2644.99 51.90
11650 25.4960 2275.50 2201.25 48.90
11651 25.4980 1467.90 1584.62 38.90
11652 25.5000 1153.10 1106.74 34.20
11653 25.5020 857.60 793.84 29.40
11654 25.5040 653.50 595.29 25.80
11655 25.5060 538.50 467.91 23.50
11656 25.5080 427.40 383.12 20.80
11657 25.5100 366.30 324.26 19.30
11658 25.5120 290.40 281.92 17.10
11659 25.5140 263.30 250.51 16.30
11660 25.5160 281.80 226.65 17.00
11661 25.5180 220.70 208.16 14.90
11662 25.5200 192.70 193.66 14.00
11663 25.5220 193.20 182.10 13.90
11664 25.5240 175.70 172.85 13.30
11665 25.5260 182.50 165.40 13.70
11666 25.5280 148.60 159.40 12.30
11667 25.5300 161.60 154.61 12.80
11668 25.5320 140.90 150.82 11.90
11669 25.5340 128.40 147.89 11.40
11670 25.5360 138.90 145.67 11.90
11671 25.5380 177.10 144.01 13.40
11672 25.5400 149.90 142.85 12.30
11673 25.5420 168.90 142.23 12.90
11674 25.5440 147.90 142.24 12.20
11675 25.5460 158.70 142.94 12.70
11676 25.5480 157.10 144.41 12.60
11677 25.5500 177.00 146.74 13.40
11678 25.5520 166.60 150.10 12.90
11679 25.5540 180.60 154.68 13.40
11680 25.5560 187.50 160.80 13.90
11681 25.5580 200.10 168.93 14.20
11682 25.5600 213.20 179.71 14.60
11683 25.5620 230.50 194.19 15.20
11684 25.5640 280.00 213.89 16.80
11685 25.5660 256.60 241.31 16.20
11686 25.5680 293.00 280.30 17.20
11687 25.5700 368.30 336.99 19.30
11688 25.5720 422.90 419.94 20.60
11689 25.5740 468.50 539.44 21.70
11690 25.5760 553.80 699.54 23.90
11691 25.5780 764.30 871.43 27.80
11692 25.5800 899.20 966.35 30.20
11693 25.5820 999.60 906.43 31.70
11694 25.5840 839.00 742.72 29.20
11695 25.5860 623.90 574.85 25.20
11696 25.5880 494.50 445.00 22.50
11697 25.5900 364.90 354.33 19.10
11698 25.5920 273.20 292.79 16.50
11699 25.5940 201.20 249.94 14.20
11700 25.5960 184.90 218.40 13.70
11701 25.5980 157.70 194.38 12.60
11702 25.6000 149.10 176.17 12.30
11703 25.6020 123.40 162.30 11.10
11704 25.6040 123.30 151.56 11.10
11705 25.6060 129.60 143.12 11.50
11706 25.6080 129.30 136.33 11.40
11707 25.6100 135.90 130.80 11.80
11708 25.6120 101.60 126.23 10.10
11709 25.6140 110.10 122.40 10.60
11710 25.6160 97.30 119.16 10.00
11711 25.6180 126.80 116.39 11.40
11712 25.6200 130.40 114.00 11.50
11713 25.6220 112.10 111.93 10.60
11714 25.6240 113.90 110.11 10.70
11715 25.6260 113.10 108.52 10.80
11716 25.6280 114.50 107.10 10.70
11717 25.6300 129.30 105.84 11.50
11718 25.6320 99.40 104.71 10.00
11719 25.6340 114.40 103.70 10.70
11720 25.6360 105.30 102.78 10.40
11721 25.6380 106.80 101.96 10.40
11722 25.6400 120.60 101.21 11.00
11723 25.6420 94.70 100.53 9.70
11724 25.6440 98.70 99.91 10.00
11725 25.6460 107.00 99.34 10.40
11726 25.6480 100.30 98.83 10.10
11727 25.6500 103.10 98.36 10.20
11728 25.6520 103.10 97.95 10.20
11729 25.6540 109.70 97.58 10.50
11730 25.6560 103.40 97.26 10.30
11731 25.6580 100.60 96.99 10.10
11732 25.6600 96.30 96.75 9.80
11733 25.6620 99.90 96.53 10.00
11734 25.6640 107.30 96.28 10.40
11735 25.6660 102.80 95.97 10.20
11736 25.6680 95.90 95.64 9.80
11737 25.6700 131.20 95.33 11.60
11738 25.6720 89.50 95.07 9.50
11739 25.6740 79.80 94.88 8.90
11740 25.6760 81.40 94.76 9.10
11741 25.6780 85.80 93.86 9.40
11742 25.6800 104.10 93.91 10.20
11743 25.6820 96.60 93.95 9.80
11744 25.6840 75.40 93.83 8.70
11745 25.6860 97.30 93.49 10.00
11746 25.6880 114.10 93.08 10.80
11747 25.6900 103.70 92.72 10.20
11748 25.6920 92.90 92.43 9.60
11749 25.6940 98.30 92.20 9.90
11750 25.6960 99.20 92.01 10.10
11751 25.6980 110.50 91.86 10.60
11752 25.7000 99.90 91.72 10.00
11753 25.7020 93.20 91.60 9.70
11754 25.7040 93.10 91.50 9.70
11755 25.7060 102.00 91.40 10.20
11756 25.7080 93.10 91.32 9.80
11757 25.7100 110.40 91.24 10.50
11758 25.7120 95.40 91.17 9.80
11759 25.7140 115.90 91.12 10.80
11760 25.7160 95.60 91.07 9.80
11761 25.7180 93.60 91.03 9.80
11762 25.7200 80.50 91.00 9.00
11763 25.7220 95.60 90.99 9.80
11764 25.7240 93.50 90.99 9.70
11765 25.7260 111.80 91.01 10.70
11766 25.7280 92.10 91.05 9.70
11767 25.7300 80.90 91.12 9.10
11768 25.7320 96.60 91.23 9.80
11769 25.7340 96.60 91.39 9.80
11770 25.7360 92.30 91.62 9.70
11771 25.7380 102.80 91.94 10.20
11772 25.7400 88.20 92.41 9.40
11773 25.7420 91.00 93.04 9.50
11774 25.7440 95.40 93.85 9.80
11775 25.7460 110.00 94.77 10.60
11776 25.7480 103.50 95.57 10.30
11777 25.7500 108.50 96.00 10.50
11778 25.7520 93.90 95.97 9.70
11779 25.7540 102.70 95.56 10.20
11780 25.7560 91.40 94.91 9.70
11781 25.7580 99.40 94.23 10.00
11782 25.7600 91.40 93.70 9.60
11783 25.7620 99.10 94.29 10.00
11784 25.7640 100.40 94.33 10.00
11785 25.7660 100.10 93.78 10.10
11786 25.7680 103.40 94.45 10.30
11787 25.7700 96.00 95.34 9.90
11788 25.7720 91.90 96.22 9.60
11789 25.7740 107.50 96.75 10.40
11790 25.7760 109.20 96.75 10.50
11791 25.7780 106.60 96.14 10.40
11792 25.7800 86.00 95.02 9.30
11793 25.7820 96.70 93.87 9.80
11794 25.7840 92.30 93.00 9.60
11795 25.7860 99.10 92.37 10.10
11796 25.7880 85.40 91.89 9.30
11797 25.7900 98.70 91.47 10.00
11798 25.7920 81.50 91.13 9.00
11799 25.7940 92.40 90.86 9.60
11800 25.7960 88.70 90.66 9.50
11801 25.7980 91.60 90.51 9.70
11802 25.8000 82.70 90.40 9.20
11803 25.8020 77.30 90.33 8.80
11804 25.8040 79.40 90.28 8.90
11805 25.8060 98.60 90.24 10.00
11806 25.8080 86.60 90.22 9.40
11807 25.8100 95.20 90.22 9.80
11808 25.8120 88.80 90.23 9.40
11809 25.8140 106.90 90.25 10.40
11810 25.8160 97.10 90.28 10.00
11811 25.8180 86.90 90.32 9.40
11812 25.8200 93.10 90.38 9.70
11813 25.8220 92.00 90.44 9.60
11814 25.8240 102.80 90.51 10.20
11815 25.8260 98.10 90.60 10.00
11816 25.8280 90.70 90.71 9.60
11817 25.8300 89.00 90.83 9.50
11818 25.8320 92.00 90.98 9.60
11819 25.8340 70.90 91.15 8.50
11820 25.8360 96.30 91.36 9.90
11821 25.8380 101.10 91.61 10.10
11822 25.8400 74.50 91.92 8.70
11823 25.8420 89.30 92.31 9.40
11824 25.8440 86.10 92.80 9.30
11825 25.8460 108.40 93.44 10.50
11826 25.8480 97.80 94.27 10.00
11827 25.8500 104.10 95.33 10.20
11828 25.8520 92.30 96.62 9.60
11829 25.8540 96.70 98.02 9.90
11830 25.8560 107.40 99.22 10.40
11831 25.8580 98.00 100.01 10.00
11832 25.8600 98.30 100.62 9.90
11833 25.8620 107.10 101.41 10.30
11834 25.8640 101.90 102.64 10.10
11835 25.8660 104.90 104.15 10.40
11836 25.8680 112.40 105.33 10.70
11837 25.8700 110.60 105.46 10.60
11838 25.8720 110.70 104.47 10.50
11839 25.8740 94.30 103.03 9.80
11840 25.8760 130.90 101.81 11.50
11841 25.8780 108.90 101.14 10.50
11842 25.8800 107.20 101.13 10.40
11843 25.8820 104.60 101.81 10.20
11844 25.8840 128.00 103.20 11.40
11845 25.8860 104.80 105.27 10.30
11846 25.8880 117.50 107.73 11.00
11847 25.8900 118.90 109.85 11.00
11848 25.8920 97.80 110.69 9.90
11849 25.8940 123.30 110.11 11.10
11850 25.8960 121.90 108.97 11.20
11851 25.8980 108.10 108.28 10.40
11852 25.9000 119.30 108.57 11.00
11853 25.9020 110.30 110.09 10.50
11854 25.9040 101.80 112.89 10.10
11855 25.9060 110.90 116.74 10.60
11856 25.9080 123.70 120.38 11.20
11857 25.9100 123.80 122.59 11.20
11858 25.9120 116.00 121.56 10.70
11859 25.9140 101.50 117.89 10.10
11860 25.9160 111.80 113.46 10.60
11861 25.9180 107.10 109.62 10.50
11862 25.9200 127.30 106.76 11.40
11863 25.9220 113.40 104.83 10.60
11864 25.9240 110.00 103.68 10.50
11865 25.9260 112.60 103.15 10.70
11866 25.9280 128.40 103.13 11.40
11867 25.9300 104.80 103.56 10.30
11868 25.9320 120.80 104.47 10.90
11869 25.9340 123.80 105.94 11.10
11870 25.9360 116.80 108.07 10.90
11871 25.9380 97.50 111.31 9.90
11872 25.9400 123.30 114.39 11.20
11873 25.9420 132.10 116.96 11.40
11874 25.9440 115.40 118.10 10.70
11875 25.9460 102.50 117.91 10.20
11876 25.9480 127.10 117.49 11.40
11877 25.9500 110.50 117.85 10.60
11878 25.9520 117.20 119.55 10.80
11879 25.9540 121.10 122.82 11.00
11880 25.9560 123.90 127.57 11.30
11881 25.9580 128.10 133.09 11.40
11882 25.9600 117.10 137.85 10.90
11883 25.9620 124.90 140.25 11.10
11884 25.9640 118.50 139.89 10.90
11885 25.9660 136.80 137.68 11.80
11886 25.9680 132.20 135.23 11.60
11887 25.9700 134.50 133.96 11.70
11888 25.9720 150.30 134.33 12.20
11889 25.9740 139.20 135.64 11.80
11890 25.9760 146.90 136.26 12.20
11891 25.9780 148.00 134.82 12.20
11892 25.9800 138.60 131.73 11.90
11893 25.9820 116.60 128.40 10.80
11894 25.9840 158.90 125.84 12.60
11895 25.9860 143.10 124.35 12.00
11896 25.9880 151.10 123.85 12.40
11897 25.9900 131.70 124.21 11.60
11898 25.9920 122.40 125.32 11.00
11899 25.9940 139.70 127.09 11.90
11900 25.9960 127.30 129.52 11.40
11901 25.9980 146.20 132.61 12.20
11902 26.0000 128.10 136.43 11.40
11903 26.0020 125.00 141.08 11.10
11904 26.0040 140.50 146.72 11.90
11905 26.0060 166.90 153.54 13.00
11906 26.0080 167.60 161.86 13.00
11907 26.0100 142.50 172.09 12.10
11908 26.0120 164.80 184.78 12.80
11909 26.0140 176.80 200.76 13.40
11910 26.0160 207.10 221.18 14.50
11911 26.0180 226.70 247.76 15.20
11912 26.0200 244.00 283.15 15.70
11913 26.0220 328.00 331.68 18.10
11914 26.0240 368.10 400.48 19.30
11915 26.0260 499.40 501.76 22.60
11916 26.0280 685.50 656.93 26.40
11917 26.0300 924.00 899.03 30.70
11918 26.0320 1368.90 1271.02 37.20
11919 26.0340 1959.50 1784.15 45.10
11920 26.0360 2452.10 2266.70 50.40
11921 26.0380 2414.00 2315.58 50.30
11922 26.0400 1769.70 1878.87 42.60
11923 26.0420 1290.30 1356.01 36.00
11924 26.0440 972.80 963.88 31.40
11925 26.0460 719.80 704.47 27.30
11926 26.0480 621.70 536.47 25.20
11927 26.0500 507.40 425.85 22.70
11928 26.0520 392.90 350.72 19.80
11929 26.0540 336.10 298.02 18.40
11930 26.0560 292.50 259.96 17.20
11931 26.0580 301.50 231.97 17.50
11932 26.0600 253.80 211.06 16.00
11933 26.0620 220.00 195.35 14.70
11934 26.0640 206.90 183.39 14.40
11935 26.0660 194.70 173.76 14.10
11936 26.0680 187.90 165.15 13.90
11937 26.0700 144.90 156.86 12.10
11938 26.0720 160.40 149.14 12.60
11939 26.0740 148.50 142.37 12.30
11940 26.0760 170.10 136.69 13.20
11941 26.0780 137.70 132.04 11.80
11942 26.0800 135.30 128.26 11.70
11943 26.0820 110.00 125.21 10.50
11944 26.0840 143.30 122.81 12.00
11945 26.0860 151.60 120.99 12.40
11946 26.0880 130.90 119.73 11.50
11947 26.0900 135.90 119.00 11.70
11948 26.0920 152.00 118.69 12.30
11949 26.0940 132.70 118.46 11.50
11950 26.0960 116.30 117.86 10.90
11951 26.0980 116.40 116.70 10.80
11952 26.1000 117.40 115.33 10.90
11953 26.1020 132.60 114.23 11.40
11954 26.1040 119.00 113.71 10.90
11955 26.1060 132.50 113.91 11.60
11956 26.1080 122.30 114.85 11.20
11957 26.1100 137.80 116.35 11.80
11958 26.1120 120.70 117.83 11.00
11959 26.1140 103.60 118.32 10.10
11960 26.1160 130.50 117.21 11.60
11961 26.1180 102.90 115.04 10.20
11962 26.1200 121.40 112.78 11.00
11963 26.1220 131.60 111.02 11.40
11964 26.1240 94.30 109.94 9.70
11965 26.1260 121.90 109.57 11.20
11966 26.1280 129.00 109.99 11.40
11967 26.1300 123.10 111.39 11.20
11968 26.1320 130.30 113.94 11.30
11969 26.1340 133.90 117.21 11.50
11970 26.1360 132.10 119.33 11.60
11971 26.1380 124.70 118.98 11.20
11972 26.1400 119.90 117.93 10.90
11973 26.1420 127.60 118.01 11.20
11974 26.1440 115.10 119.39 10.70
11975 26.1460 116.70 121.32 10.90
11976 26.1480 128.10 122.54 11.40
11977 26.1500 126.90 122.08 11.30
11978 26.1520 140.00 120.17 11.70
11979 26.1540 118.60 117.87 10.90
11980 26.1560 130.60 116.06 11.50
11981 26.1580 121.40 115.10 11.10
11982 26.1600 109.70 114.96 10.50
11983 26.1620 118.00 115.44 10.80
11984 26.1640 133.60 116.26 11.60
11985 26.1660 102.40 117.27 10.20
11986 26.1680 97.00 118.64 9.90
11987 26.1700 120.30 120.71 11.00
11988 26.1720 104.80 123.70 10.20
11989 26.1740 119.10 127.65 10.90
11990 26.1760 136.20 132.16 11.80
11991 26.1780 133.80 136.55 11.60
11992 26.1800 145.90 140.18 12.20
11993 26.1820 144.50 142.85 11.90
11994 26.1840 128.40 144.69 11.40
11995 26.1860 130.40 146.39 11.50
11996 26.1880 135.50 149.03 11.70
11997 26.1900 133.80 153.49 11.60
11998 26.1920 175.00 160.60 13.20
11999 26.1940 162.60 170.58 12.80
12000 26.1960 193.40 184.45 14.00
12001 26.1980 199.50 203.67 14.30
12002 26.2000 186.40 230.54 13.70
12003 26.2020 266.10 269.10 16.30
12004 26.2040 304.20 326.27 17.40
12005 26.2060 458.20 413.95 21.60
12006 26.2080 581.70 550.61 24.30
12007 26.2100 838.00 759.89 29.40
12008 26.2120 1162.30 1046.62 34.10
12009 26.2140 1330.90 1312.35 36.80
12010 26.2160 1371.40 1334.28 37.70
12011 26.2180 1028.80 1087.10 32.60
12012 26.2200 759.90 793.44 27.70
12013 26.2220 615.20 572.68 24.80
12014 26.2240 441.70 427.38 21.10
12015 26.2260 368.10 334.09 19.40
12016 26.2280 310.30 273.39 17.80
12017 26.2300 279.60 232.44 16.80
12018 26.2320 267.40 203.85 16.30
12019 26.2340 222.50 183.29 15.00
12020 26.2360 169.10 168.15 13.20
12021 26.2380 169.00 156.90 13.10
12022 26.2400 144.30 148.50 12.10
12023 26.2420 131.80 142.20 11.40
12024 26.2440 141.80 137.23 12.00
12025 26.2460 128.30 132.74 11.40
12026 26.2480 132.80 128.16 11.70
12027 26.2500 122.90 123.51 11.20
12028 26.2520 131.10 119.21 11.40
12029 26.2540 96.40 115.48 9.80
12030 26.2560 114.80 112.36 10.80
12031 26.2580 92.50 109.76 9.70
12032 26.2600 88.80 107.58 9.50
12033 26.2620 89.40 105.75 9.40
12034 26.2640 102.20 104.17 10.20
12035 26.2660 98.00 102.81 10.00
12036 26.2680 123.60 101.62 11.20
12037 26.2700 100.00 100.57 10.10
12038 26.2720 86.30 99.64 9.30
12039 26.2740 111.60 98.82 10.60
12040 26.2760 90.50 98.07 9.60
12041 26.2780 96.80 97.41 10.00
12042 26.2800 102.50 96.80 10.20
12043 26.2820 96.00 96.25 9.80
12044 26.2840 94.20 95.76 9.80
12045 26.2860 84.80 95.30 9.30
12046 26.2880 86.30 94.89 9.40
12047 26.2900 103.10 94.51 10.20
12048 26.2920 93.40 94.17 9.60
12049 26.2940 82.80 93.86 9.10
12050 26.2960 106.30 93.58 10.40
12051 26.2980 104.90 93.33 10.40
12052 26.3000 89.00 93.12 9.50
12053 26.3020 98.90 92.93 9.90
12054 26.3040 77.70 92.77 8.90
12055 26.3060 90.50 92.62 9.60
12056 26.3080 86.00 92.46 9.40
12057 26.3100 87.80 92.27 9.40
12058 26.3120 98.50 92.11 9.90
12059 26.3140 100.60 91.17 10.00
12060 26.3160 90.90 91.05 9.70
12061 26.3180 106.70 90.92 10.40
12062 26.3200 84.20 90.76 9.20
12063 26.3220 95.10 90.59 9.70
12064 26.3240 81.00 90.42 9.00
12065 26.3260 103.10 90.28 10.20
12066 26.3280 107.90 90.17 10.50
12067 26.3300 85.40 90.08 9.30
12068 26.3320 111.10 90.01 10.50
12069 26.3340 86.10 89.98 9.30
12070 26.3360 90.10 89.97 9.60
12071 26.3380 89.00 90.00 9.50
12072 26.3400 94.00 90.08 9.80
12073 26.3420 103.40 90.21 10.10
12074 26.3440 85.10 90.39 9.30
12075 26.3460 83.50 90.62 9.30
12076 26.3480 93.70 90.81 9.80
12077 26.3500 95.40 90.86 9.80
12078 26.3520 103.70 90.71 10.10
12079 26.3540 89.70 90.43 9.50
12080 26.3560 89.50 90.12 9.50
12081 26.3580 95.70 89.85 9.90
12082 26.3600 82.20 89.64 9.10
12083 26.3620 75.40 89.47 8.60
12084 26.3640 92.50 89.35 9.60
12085 26.3660 82.70 89.26 9.20
12086 26.3680 117.30 89.21 10.90
12087 26.3700 103.70 89.18 10.20
12088 26.3720 86.60 89.17 9.30
12089 26.3740 92.90 89.18 9.60
12090 26.3760 77.60 89.20 8.90
12091 26.3780 98.20 89.24 10.00
12092 26.3800 73.60 89.29 8.60
12093 26.3820 87.30 89.32 9.30
12094 26.3840 88.30 89.33 9.40
12095 26.3860 90.80 89.32 9.60
12096 26.3880 75.90 89.32 8.80
12097 26.3900 95.30 89.34 9.80
12098 26.3920 93.70 89.39 9.60
12099 26.3940 87.90 89.46 9.30
12100 26.3960 104.50 89.54 10.30
12101 26.3980 91.00 89.60 9.60
12102 26.4000 83.20 89.63 9.20
12103 26.4020 76.10 89.67 8.70
12104 26.4040 75.70 89.71 8.70
12105 26.4060 78.30 89.78 8.90
12106 26.4080 63.70 89.87 8.10
12107 26.4100 90.90 89.99 9.50
12108 26.4120 91.40 90.12 9.50
12109 26.4140 101.40 90.26 10.10
12110 26.4160 95.20 90.43 9.90
12111 26.4180 101.30 90.63 10.10
12112 26.4200 95.30 90.84 9.80
12113 26.4220 88.40 91.08 9.30
12114 26.4240 92.60 91.36 9.60
12115 26.4260 94.20 91.66 9.70
12116 26.4280 100.90 92.01 10.10
12117 26.4300 101.00 92.39 10.10
12118 26.4320 82.30 92.83 9.00
12119 26.4340 80.10 93.33 8.90
12120 26.4360 78.30 93.89 8.90
12121 26.4380 72.50 94.54 8.60
12122 26.4400 98.30 95.29 9.90
12123 26.4420 96.00 96.15 9.70
12124 26.4440 100.50 97.15 10.00
12125 26.4460 97.60 98.32 9.90
12126 26.4480 84.30 99.71 9.20
12127 26.4500 94.50 101.37 9.70
12128 26.4520 122.00 103.37 11.00
12129 26.4540 113.90 105.80 10.60
12130 26.4560 97.60 108.79 10.00
12131 26.4580 113.00 112.54 10.70
12132 26.4600 111.20 117.30 10.60
12133 26.4620 100.00 123.47 9.90
12134 26.4640 127.50 131.64 11.30
12135 26.4660 117.30 142.78 10.90
12136 26.4680 152.90 158.45 12.50
12137 26.4700 169.80 181.24 13.10
12138 26.4720 227.80 215.59 15.00
12139 26.4740 283.30 268.10 16.90
12140 26.4760 387.00 347.14 19.80
12141 26.4780 493.00 454.23 22.40
12142 26.4800 599.70 557.58 24.50
12143 26.4820 593.60 578.40 24.30
12144 26.4840 437.20 495.14 20.90
12145 26.4860 388.00 382.53 19.90
12146 26.4880 306.40 292.82 17.70
12147 26.4900 249.00 231.88 15.90
12148 26.4920 220.90 192.05 14.90
12149 26.4940 183.50 165.34 13.70
12150 26.4960 161.90 147.54 12.80
12151 26.4980 131.60 135.03 11.50
12152 26.5000 123.90 125.92 11.10
12153 26.5020 135.20 119.10 11.60
12154 26.5040 127.00 113.87 11.30
12155 26.5060 126.20 109.79 11.30
12156 26.5080 105.50 106.55 10.30
12157 26.5100 91.10 103.93 9.50
12158 26.5120 98.10 101.79 9.90
12159 26.5140 120.00 100.01 11.00
12160 26.5160 93.40 98.54 9.70
12161 26.5180 91.50 97.31 9.70
12162 26.5200 110.00 96.27 10.50
12163 26.5220 92.30 95.40 9.60
12164 26.5240 102.60 94.65 10.20
12165 26.5260 99.40 94.03 10.10
12166 26.5280 87.40 93.51 9.50
12167 26.5300 67.90 93.09 8.30
12168 26.5320 83.70 92.75 9.20
12169 26.5340 90.80 92.50 9.60
12170 26.5360 101.50 92.34 10.20
12171 26.5380 86.00 92.27 9.40
12172 26.5400 90.90 92.29 9.50
12173 26.5420 86.60 92.38 9.40
12174 26.5440 89.70 92.51 9.50
12175 26.5460 98.20 92.67 10.00
12176 26.5480 89.10 92.87 9.50
12177 26.5500 115.40 93.17 10.80
12178 26.5520 78.90 93.64 8.90
12179 26.5540 94.70 94.39 9.90
12180 26.5560 92.20 95.53 9.70
12181 26.5580 103.20 97.16 10.30
12182 26.5600 111.30 99.38 10.60
12183 26.5620 108.90 102.10 10.50
12184 26.5640 90.50 104.84 9.60
12185 26.5660 123.70 106.63 11.30
12186 26.5680 105.60 106.71 10.40
12187 26.5700 95.70 105.52 9.90
12188 26.5720 109.90 104.19 10.50
12189 26.5740 102.00 103.57 10.20
12190 26.5760 96.60 103.94 9.90
12191 26.5780 113.90 105.00 10.80
12192 26.5800 96.80 105.92 9.90
12193 26.5820 113.30 105.57 10.70
12194 26.5840 104.10 103.59 10.30
12195 26.5860 94.30 100.72 9.90
12196 26.5880 86.50 97.90 9.40
12197 26.5900 80.80 95.57 9.10
12198 26.5920 91.30 93.79 9.60
12199 26.5940 93.90 92.47 9.80
12200 26.5960 107.70 91.50 10.50
12201 26.5980 107.20 90.80 10.40
12202 26.6000 86.90 90.30 9.40
12203 26.6020 83.60 89.96 9.20
12204 26.6040 93.60 89.76 9.70
12205 26.6060 104.50 89.68 10.30
12206 26.6080 83.20 89.73 9.30
12207 26.6100 95.40 89.92 9.80
12208 26.6120 75.50 90.25 8.70
12209 26.6140 90.90 90.70 9.70
12210 26.6160 99.50 91.15 10.10
12211 26.6180 83.50 91.41 9.20
12212 26.6200 91.20 91.33 9.60
12213 26.6220 96.50 91.02 9.90
12214 26.6240 99.20 90.69 10.00
12215 26.6260 94.50 90.53 9.80
12216 26.6280 90.60 90.59 9.70
12217 26.6300 89.20 90.89 9.50
12218 26.6320 86.60 91.32 9.30
12219 26.6340 86.30 91.62 9.30
12220 26.6360 67.40 91.52 8.30
12221 26.6380 74.10 90.98 8.70
12222 26.6400 100.50 90.24 10.10
12223 26.6420 97.10 89.55 9.80
12224 26.6440 107.90 89.00 10.40
12225 26.6460 82.10 88.60 9.10
12226 26.6480 103.40 88.33 10.30
12227 26.6500 77.80 88.18 8.90
12228 26.6520 96.10 88.11 9.80
12229 26.6540 88.10 88.12 9.40
12230 26.6560 97.20 88.22 9.90
12231 26.6580 91.70 88.42 9.70
12232 26.6600 114.40 88.72 10.70
12233 26.6620 106.80 89.18 10.30
12234 26.6640 101.60 89.82 10.10
12235 26.6660 93.40 90.72 9.70
12236 26.6680 93.80 91.91 9.80
12237 26.6700 79.90 93.38 9.00
12238 26.6720 82.80 94.91 9.10
12239 26.6740 94.10 95.99 9.70
12240 26.6760 59.80 96.11 7.80
12241 26.6780 92.10 95.27 9.70
12242 26.6800 91.60 94.08 9.60
12243 26.6820 86.30 93.07 9.20
12244 26.6840 95.60 92.49 9.80
12245 26.6860 81.00 92.42 9.10
12246 26.6880 90.00 92.92 9.60
12247 26.6900 98.80 94.03 10.00
12248 26.6920 100.90 95.85 10.10
12249 26.6940 88.80 98.19 9.50
12250 26.6960 91.10 100.01 9.60
12251 26.6980 91.20 99.68 9.60
12252 26.7000 84.90 97.34 9.30
12253 26.7020 97.90 94.69 9.90
12254 26.7040 94.30 92.66 9.70
12255 26.7060 94.10 91.36 9.80
12256 26.7080 101.50 90.64 10.20
12257 26.7100 88.90 90.33 9.50
12258 26.7120 86.10 90.28 9.20
12259 26.7140 92.80 90.35 9.70
12260 26.7160 89.60 90.42 9.50
12261 26.7180 87.20 90.37 9.40
12262 26.7200 70.00 90.09 8.40
12263 26.7220 75.40 89.61 8.70
12264 26.7240 86.80 89.09 9.30
12265 26.7260 81.40 88.65 9.10
12266 26.7280 77.10 88.34 8.90
12267 26.7300 87.80 88.18 9.40
12268 26.7320 90.60 88.15 9.50
12269 26.7340 104.00 88.26 10.20
12270 26.7360 85.70 88.52 9.30
12271 26.7380 67.50 88.96 8.30
12272 26.7400 80.20 89.60 9.00
12273 26.7420 106.90 90.46 10.30
12274 26.7440 82.60 91.46 9.10
12275 26.7460 80.00 92.34 9.00
12276 26.7480 75.90 92.69 8.90
12277 26.7500 90.80 92.62 9.50
12278 26.7520 90.70 91.77 9.50
12279 26.7540 87.40 90.87 9.40
12280 26.7560 76.20 90.15 8.80
12281 26.7580 82.40 89.66 9.20
12282 26.7600 90.90 89.40 9.60
12283 26.7620 84.50 89.33 9.10
12284 26.7640 77.90 89.45 8.90
12285 26.7660 85.10 89.75 9.30
12286 26.7680 84.10 90.26 9.30
12287 26.7700 82.80 91.01 9.20
12288 26.7720 83.80 91.89 9.20
12289 26.7740 85.90 93.27 9.30
12290 26.7760 78.00 95.00 8.90
12291 26.7780 74.60 97.09 8.70
12292 26.7800 94.10 99.71 9.80
12293 26.7820 78.20 103.08 8.80
12294 26.7840 99.90 107.25 10.00
12295 26.7860 89.80 111.39 9.50
12296 26.7880 103.10 112.99 10.30
12297 26.7900 103.40 110.12 10.20
12298 26.7920 92.50 104.93 9.60
12299 26.7940 93.10 100.13 9.70
12300 26.7960 93.90 96.56 9.80
12301 26.7980 67.40 94.11 8.30
12302 26.8000 79.70 92.48 9.00
12303 26.8020 84.00 91.45 9.10
12304 26.8040 86.80 90.85 9.40
12305 26.8060 86.10 90.61 9.30
12306 26.8080 86.90 90.67 9.40
12307 26.8100 82.30 91.03 9.10
12308 26.8120 74.10 91.62 8.60
12309 26.8140 85.80 92.29 9.30
12310 26.8160 99.20 92.69 10.00
12311 26.8180 94.50 92.51 9.80
12312 26.8200 75.60 91.74 8.80
12313 26.8220 90.80 90.72 9.50
12314 26.8240 87.50 89.73 9.30
12315 26.8260 82.60 88.92 9.20
12316 26.8280 83.50 88.29 9.20
12317 26.8300 99.20 87.81 10.00
12318 26.8320 79.50 87.46 8.90
12319 26.8340 99.50 87.19 10.00
12320 26.8360 99.70 86.99 10.00
12321 26.8380 88.10 86.84 9.40
12322 26.8400 81.00 86.73 9.00
12323 26.8420 72.20 86.65 8.40
12324 26.8440 79.60 86.60 9.00
12325 26.8460 77.80 86.56 8.90
12326 26.8480 84.60 86.55 9.30
12327 26.8500 74.00 86.55 8.70
12328 26.8520 69.30 86.57 8.30
12329 26.8540 71.20 86.60 8.40
12330 26.8560 82.50 86.66 9.20
12331 26.8580 91.00 86.73 9.60
12332 26.8600 75.80 86.83 8.70
12333 26.8620 92.50 86.95 9.50
12334 26.8640 76.00 87.10 8.80
12335 26.8660 85.40 87.29 9.20
12336 26.8680 85.20 87.52 9.30
12337 26.8700 77.80 87.80 8.90
12338 26.8720 83.40 88.16 9.10
12339 26.8740 78.00 88.61 8.80
12340 26.8760 65.30 89.19 8.20
12341 26.8780 100.60 89.95 10.10
12342 26.8800 108.40 90.96 10.50
12343 26.8820 79.20 92.31 8.80
12344 26.8840 94.10 94.13 9.70
12345 26.8860 97.40 96.58 9.90
12346 26.8880 92.80 99.76 9.70
12347 26.8900 96.50 103.55 9.80
12348 26.8920 93.30 107.33 9.60
12349 26.8940 95.10 109.90 9.70
12350 26.8960 120.30 110.14 11.00
12351 26.8980 97.00 107.89 9.90
12352 26.9000 86.50 104.23 9.30
12353 26.9020 87.80 100.45 9.30
12354 26.9040 92.50 97.30 9.60
12355 26.9060 81.10 94.89 9.00
12356 26.9080 87.70 93.15 9.50
12357 26.9100 105.20 91.92 10.30
12358 26.9120 90.40 91.09 9.50
12359 26.9140 80.30 90.58 9.00
12360 26.9160 105.80 90.32 10.40
12361 26.9180 71.60 90.31 8.50
12362 26.9200 89.20 90.57 9.40
12363 26.9220 74.70 91.15 8.60
12364 26.9240 85.00 92.16 9.20
12365 26.9260 100.70 93.63 10.10
12366 26.9280 101.60 95.07 10.20
12367 26.9300 98.90 95.35 10.00
12368 26.9320 87.50 94.09 9.30
12369 26.9340 87.50 92.40 9.40
12370 26.9360 96.60 91.08 9.90
12371 26.9380 73.10 90.23 8.70
12372 26.9400 75.80 89.77 8.80
12373 26.9420 88.40 89.59 9.30
12374 26.9440 85.10 89.62 9.30
12375 26.9460 88.40 89.83 9.50
12376 26.9480 87.90 90.24 9.50
12377 26.9500 84.00 90.94 9.20
12378 26.9520 84.10 92.08 9.20
12379 26.9540 104.40 93.91 10.20
12380 26.9560 96.10 96.74 9.90
12381 26.9580 77.00 100.65 8.80
12382 26.9600 101.90 104.46 10.10
12383 26.9620 87.40 105.24 9.30
12384 26.9640 111.70 102.22 10.60
12385 26.9660 80.40 98.21 9.10
12386 26.9680 85.20 95.11 9.30
12387 26.9700 87.20 93.08 9.40
12388 26.9720 86.00 91.83 9.20
12389 26.9740 86.20 91.11 9.30
12390 26.9760 79.40 90.71 9.10
12391 26.9780 72.70 90.56 8.60
12392 26.9800 82.40 90.59 9.10
12393 26.9820 90.60 90.77 9.50
12394 26.9840 90.30 91.11 9.60
12395 26.9860 69.60 91.59 8.40
12396 26.9880 100.30 92.18 10.20
12397 26.9900 97.20 92.78 9.90
12398 26.9920 104.30 93.33 10.20
12399 26.9940 89.10 93.87 9.50
12400 26.9960 95.60 94.58 9.90
12401 26.9980 102.00 95.62 10.20
12402 27.0000 81.70 97.11 9.10
12403 27.0020 85.80 99.10 9.20
12404 27.0040 106.50 101.50 10.30
12405 27.0060 87.20 103.81 9.50
12406 27.0080 95.00 105.18 9.80
12407 27.0100 89.30 105.04 9.50
12408 27.0120 102.90 103.70 10.10
12409 27.0140 92.20 101.95 9.60
12410 27.0160 99.50 100.37 10.10
12411 27.0180 86.70 99.16 9.50
12412 27.0200 98.80 98.34 9.90
12413 27.0220 76.70 97.87 8.70
12414 27.0240 100.70 97.73 10.10
12415 27.0260 94.70 97.87 9.90
12416 27.0280 97.80 98.28 10.00
12417 27.0300 110.10 98.93 10.50
12418 27.0320 83.90 99.82 9.10
12419 27.0340 111.10 100.94 10.60
12420 27.0360 97.50 102.24 10.00
12421 27.0380 94.30 103.67 9.80
12422 27.0400 111.20 105.21 10.60
12423 27.0420 111.00 106.99 10.50
12424 27.0440 108.00 109.17 10.40
12425 27.0460 121.60 111.86 11.10
12426 27.0480 104.50 115.14 10.40
12427 27.0500 127.00 118.92 11.30
12428 27.0520 122.90 122.96 11.10
12429 27.0540 114.70 127.00 10.70
12430 27.0560 128.90 131.18 11.50
12431 27.0580 149.30 136.10 12.30
12432 27.0600 163.30 142.46 12.80
12433 27.0620 149.10 150.88 12.20
12434 27.0640 185.40 161.89 13.60
12435 27.0660 207.90 176.14 14.50
12436 27.0680 222.90 194.26 15.00
12437 27.0700 223.50 217.25 15.00
12438 27.0720 271.90 247.28 16.50
12439 27.0740 292.30 288.96 17.20
12440 27.0760 371.40 349.16 19.50
12441 27.0780 400.10 436.89 20.20
12442 27.0800 452.40 561.72 21.20
12443 27.0820 618.70 724.48 24.90
12444 27.0840 765.00 890.98 27.70
12445 27.0860 895.80 971.53 30.30
12446 27.0880 1008.80 900.98 32.10
12447 27.0900 813.10 735.98 28.70
12448 27.0920 658.00 569.57 25.60
12449 27.0940 407.70 439.91 20.10
12450 27.0960 314.50 347.91 18.00
12451 27.0980 234.70 283.99 15.40
12452 27.1000 210.40 239.39 14.40
12453 27.1020 175.60 207.64 13.20
12454 27.1040 162.80 184.45 12.80
12455 27.1060 133.00 167.13 11.60
12456 27.1080 140.60 153.84 11.90
12457 27.1100 107.10 143.47 10.30
12458 27.1120 122.50 135.23 11.00
12459 27.1140 120.10 128.58 10.90
12460 27.1160 108.20 123.47 10.60
12461 27.1180 122.30 119.00 11.10
12462 27.1200 117.80 115.27 10.80
12463 27.1220 94.30 112.14 9.70
12464 27.1240 111.70 109.51 10.60
12465 27.1260 94.80 107.28 9.90
12466 27.1280 94.10 105.38 9.70
12467 27.1300 97.90 103.78 9.90
12468 27.1320 104.90 102.43 10.20
12469 27.1340 88.60 101.31 9.40
12470 27.1360 106.10 100.42 10.40
12471 27.1380 106.00 99.75 10.30
12472 27.1400 106.20 99.28 10.30
12473 27.1420 85.60 98.99 9.20
12474 27.1440 89.70 98.89 9.50
12475 27.1460 103.40 99.03 10.30
12476 27.1480 98.10 99.48 9.90
12477 27.1500 100.40 100.20 10.00
12478 27.1520 94.50 101.09 9.70
12479 27.1540 106.90 102.02 10.30
12480 27.1560 117.70 102.89 11.00
12481 27.1580 92.90 103.37 9.60
12482 27.1600 115.20 102.98 10.70
12483 27.1620 96.90 101.63 9.80
12484 27.1640 99.80 99.88 10.00
12485 27.1660 104.00 98.29 10.30
12486 27.1680 100.00 97.18 10.10
12487 27.1700 96.60 96.60 9.80
12488 27.1720 103.20 96.58 10.10
12489 27.1740 102.20 97.16 10.10
12490 27.1760 96.80 98.39 10.00
12491 27.1780 117.90 100.25 10.90
12492 27.1800 93.70 102.50 9.70
12493 27.1820 103.60 104.34 10.10
12494 27.1840 95.80 104.57 9.80
12495 27.1860 105.10 102.81 10.40
12496 27.1880 97.50 100.17 9.90
12497 27.1900 102.30 97.87 10.10
12498 27.1920 90.30 96.34 9.40
12499 27.1940 101.80 95.58 10.20
12500 27.1960 104.60 95.52 10.30
12501 27.1980 87.50 96.09 9.40
12502 27.2000 95.50 97.14 9.70
12503 27.2020 100.30 98.29 10.00
12504 27.2040 107.80 98.87 10.30
12505 27.2060 83.40 98.28 9.20
12506 27.2080 100.60 96.67 10.00
12507 27.2100 87.30 94.73 9.30
12508 27.2120 87.70 92.95 9.30
12509 27.2140 86.20 91.53 9.30
12510 27.2160 106.70 90.45 10.50
12511 27.2180 81.70 89.65 9.00
12512 27.2200 84.70 89.07 9.20
12513 27.2220 73.40 88.64 8.50
12514 27.2240 86.80 88.34 9.40
12515 27.2260 96.10 88.14 9.90
12516 27.2280 77.20 88.03 8.90
12517 27.2300 101.80 88.02 10.00
12518 27.2320 95.50 88.12 9.80
12519 27.2340 84.30 88.33 9.20
12520 27.2360 101.00 88.68 10.20
12521 27.2380 76.90 89.17 8.90
12522 27.2400 102.60 89.77 10.10
12523 27.2420 87.50 90.29 9.40
12524 27.2440 91.10 90.49 9.60
12525 27.2460 90.80 90.28 9.70
12526 27.2480 73.90 89.82 8.60
12527 27.2500 82.20 89.39 9.10
12528 27.2520 85.70 89.14 9.30
12529 27.2540 99.40 89.12 10.10
12530 27.2560 93.20 89.36 9.90
12531 27.2580 86.50 89.89 9.40
12532 27.2600 87.70 90.72 9.40
12533 27.2620 91.90 91.80 9.60
12534 27.2640 98.70 92.90 10.00
12535 27.2660 97.10 93.55 10.00
12536 27.2680 98.70 93.33 10.00
12537 27.2700 98.60 92.34 9.90
12538 27.2720 80.60 91.06 9.00
12539 27.2740 82.00 89.90 9.10
12540 27.2760 93.10 88.98 9.80
12541 27.2780 82.80 88.31 9.10
12542 27.2800 79.70 87.85 8.90
12543 27.2820 92.70 87.54 9.60
12544 27.2840 78.10 87.36 8.90
12545 27.2860 104.20 87.28 10.40
12546 27.2880 106.80 87.29 10.40
12547 27.2900 101.70 87.37 10.00
12548 27.2920 89.70 87.47 9.40
12549 27.2940 87.10 87.56 9.40
12550 27.2960 87.10 87.64 9.50
12551 27.2980 91.40 87.77 9.60
12552 27.3000 91.80 88.00 9.60
12553 27.3020 87.80 88.37 9.40
12554 27.3040 83.50 88.91 9.10
12555 27.3060 95.70 89.57 10.00
12556 27.3080 95.30 90.24 9.80
12557 27.3100 83.90 90.70 9.20
12558 27.3120 90.20 90.84 9.50
12559 27.3140 87.50 90.75 9.40
12560 27.3160 103.60 90.67 10.30
12561 27.3180 83.90 90.75 9.20
12562 27.3200 83.20 90.94 9.10
12563 27.3220 82.40 91.03 9.00
12564 27.3240 73.10 90.80 8.60
12565 27.3260 85.80 90.29 9.40
12566 27.3280 82.30 89.71 9.20
12567 27.3300 100.50 89.22 10.00
12568 27.3320 80.30 88.87 9.00
12569 27.3340 77.40 88.67 8.90
12570 27.3360 105.90 88.58 10.50
12571 27.3380 91.30 88.59 9.70
12572 27.3400 85.20 88.68 9.20
12573 27.3420 87.10 88.84 9.40
12574 27.3440 90.30 89.08 9.50
12575 27.3460 92.00 89.38 9.80
12576 27.3480 71.60 89.78 8.50
12577 27.3500 80.00 90.27 9.00
12578 27.3520 92.40 90.89 9.60
12579 27.3540 91.80 91.69 9.70
12580 27.3560 109.00 92.69 10.60
12581 27.3580 107.60 93.98 10.50
12582 27.3600 94.50 95.60 9.70
12583 27.3620 77.40 97.56 8.80
12584 27.3640 88.90 99.74 9.50
12585 27.3660 102.60 101.86 10.30
12586 27.3680 95.80 103.50 9.90
12587 27.3700 105.10 104.24 10.30
12588 27.3720 70.90 103.90 8.50
12589 27.3740 82.90 102.85 9.20
12590 27.3760 112.90 101.75 10.80
12591 27.3780 89.50 101.04 9.50
12592 27.3800 98.60 100.83 9.90
12593 27.3820 95.40 101.13 9.70
12594 27.3840 104.10 101.90 10.30
12595 27.3860 99.00 103.12 10.10
12596 27.3880 118.80 104.76 11.00
12597 27.3900 100.60 106.84 10.00
12598 27.3920 110.20 109.41 10.50
12599 27.3940 106.30 112.63 10.40
12600 27.3960 118.30 117.02 11.00
12601 27.3980 125.90 122.05 11.40
12602 27.4000 128.50 127.87 11.40
12603 27.4020 134.10 133.83 11.60
12604 27.4040 137.90 139.11 11.80
12605 27.4060 151.30 143.80 12.50
12606 27.4080 162.10 149.09 12.90
12607 27.4100 182.30 156.52 13.50
12608 27.4120 184.30 167.31 13.50
12609 27.4140 213.30 182.79 14.70
12610 27.4160 227.70 204.88 15.40
12611 27.4180 240.60 236.59 15.70
12612 27.4200 285.10 282.91 16.90
12613 27.4220 338.20 351.48 18.40
12614 27.4240 396.30 452.66 20.00
12615 27.4260 509.00 596.33 22.90
12616 27.4280 701.80 772.38 26.90
12617 27.4300 836.90 910.98 29.00
12618 27.4320 945.40 905.23 31.00
12619 27.4340 855.30 760.35 29.50
12620 27.4360 538.10 584.86 23.50
12621 27.4380 465.80 443.48 21.70
12622 27.4400 293.40 344.26 17.20
12623 27.4420 269.60 276.85 16.50
12624 27.4440 232.40 230.97 15.20
12625 27.4460 205.00 199.15 14.60
12626 27.4480 148.40 176.37 12.30
12627 27.4500 151.40 159.64 12.30
12628 27.4520 131.90 147.04 11.50
12629 27.4540 114.50 137.38 10.70
12630 27.4560 138.00 129.83 11.90
12631 27.4580 99.40 123.90 10.10
12632 27.4600 102.50 119.24 10.10
12633 27.4620 123.00 115.59 11.10
12634 27.4640 126.30 112.82 11.30
12635 27.4660 109.30 110.83 10.70
12636 27.4680 110.50 109.52 10.60
12637 27.4700 106.90 108.75 10.30
12638 27.4720 90.80 108.11 9.50
12639 27.4740 108.50 107.09 10.40
12640 27.4760 85.50 105.36 9.40
12641 27.4780 95.70 103.12 9.90
12642 27.4800 89.00 100.78 9.40
12643 27.4820 79.40 98.67 8.90
12644 27.4840 94.20 96.88 9.70
12645 27.4860 96.50 95.42 10.00
12646 27.4880 87.60 94.23 9.50
12647 27.4900 86.60 93.25 9.30
12648 27.4920 95.30 92.44 9.70
12649 27.4940 85.20 91.76 9.30
12650 27.4960 93.50 91.19 9.80
12651 27.4980 85.70 90.72 9.40
12652 27.5000 87.60 90.32 9.40
12653 27.5020 95.20 89.99 9.70
12654 27.5040 79.00 89.73 8.90
12655 27.5060 105.40 89.55 10.40
12656 27.5080 92.20 89.44 9.70
12657 27.5100 92.80 89.43 9.60
12658 27.5120 108.90 89.52 10.40
12659 27.5140 97.00 89.76 9.90
12660 27.5160 76.50 90.19 8.90
12661 27.5180 86.50 90.86 9.40
12662 27.5200 74.50 91.86 8.70
12663 27.5220 90.30 93.22 9.50
12664 27.5240 73.70 94.86 8.60
12665 27.5260 87.40 96.53 9.40
12666 27.5280 98.90 97.82 10.10
12667 27.5300 97.40 97.95 9.90
12668 27.5320 80.80 96.43 9.00
12669 27.5340 88.20 94.13 9.40
12670 27.5360 85.40 92.16 9.30
12671 27.5380 84.40 90.79 9.30
12672 27.5400 100.10 89.92 10.00
12673 27.5420 95.30 89.43 9.70
12674 27.5440 103.60 89.22 10.20
12675 27.5460 89.20 89.26 9.60
12676 27.5480 75.20 89.52 8.80
12677 27.5500 83.10 89.89 9.20
12678 27.5520 69.30 90.16 8.30
12679 27.5540 94.40 90.05 9.70
12680 27.5560 79.30 89.53 9.00
12681 27.5580 89.70 88.79 9.60
12682 27.5600 93.30 88.05 9.70
12683 27.5620 103.20 87.43 10.10
12684 27.5640 89.80 86.94 9.50
12685 27.5660 81.40 86.57 9.10
12686 27.5680 86.30 86.29 9.40
12687 27.5700 99.30 86.09 10.00
12688 27.5720 91.70 85.94 9.60
12689 27.5740 84.40 85.83 9.20
12690 27.5760 83.70 85.76 9.20
12691 27.5780 68.30 85.71 8.40
12692 27.5800 85.10 85.69 9.20
12693 27.5820 86.40 85.69 9.30
12694 27.5840 85.20 85.70 9.20
12695 27.5860 76.50 85.72 8.90
12696 27.5880 74.00 85.75 8.70
12697 27.5900 67.90 85.80 8.30
12698 27.5920 85.00 85.86 9.20
12699 27.5940 92.00 85.94 9.60
12700 27.5960 84.50 86.05 9.30
12701 27.5980 90.20 86.17 9.60
12702 27.6000 78.90 86.33 8.90
12703 27.6020 77.00 86.53 8.80
12704 27.6040 82.90 86.78 9.10
12705 27.6060 81.00 87.12 9.10
12706 27.6080 88.60 87.57 9.50
12707 27.6100 95.10 88.15 9.80
12708 27.6120 81.40 88.75 9.00
12709 27.6140 77.70 89.09 8.80
12710 27.6160 81.90 89.04 9.20
12711 27.6180 81.60 88.88 9.10
12712 27.6200 92.50 88.82 9.60
12713 27.6220 82.00 88.91 9.10
12714 27.6240 71.80 89.11 8.50
12715 27.6260 77.70 89.41 8.90
12716 27.6280 88.40 89.80 9.60
12717 27.6300 89.40 90.26 9.50
12718 27.6320 94.20 90.80 9.70
12719 27.6340 83.90 91.44 9.20
12720 27.6360 109.40 92.18 10.60
12721 27.6380 96.10 93.05 9.90
12722 27.6400 92.10 94.08 9.60
12723 27.6420 85.80 95.56 9.30
12724 27.6440 107.40 96.89 10.40
12725 27.6460 85.90 98.28 9.40
12726 27.6480 96.60 99.79 9.90
12727 27.6500 102.00 101.60 10.10
12728 27.6520 83.00 103.82 9.10
12729 27.6540 85.10 106.47 9.20
12730 27.6560 89.80 109.49 9.60
12731 27.6580 86.70 112.73 9.40
12732 27.6600 108.80 116.21 10.40
12733 27.6620 107.70 120.21 10.30
12734 27.6640 99.50 125.20 10.00
12735 27.6660 99.80 131.68 10.10
12736 27.6680 145.30 140.17 12.20
12737 27.6700 131.40 151.42 11.50
12738 27.6720 145.00 166.54 12.00
12739 27.6740 184.00 187.38 13.50
12740 27.6760 217.80 216.88 15.00
12741 27.6780 312.60 260.15 17.80
12742 27.6800 336.00 325.29 18.40
12743 27.6820 464.00 424.19 21.40
12744 27.6840 577.60 570.36 24.10
12745 27.6860 852.10 758.17 29.70
12746 27.6880 957.40 912.71 31.40
12747 27.6900 856.60 904.60 29.40
12748 27.6920 751.30 743.61 27.50
12749 27.6940 505.50 561.48 22.50
12750 27.6960 419.00 424.13 20.60
12751 27.6980 322.20 331.67 18.10
12752 27.7000 267.50 269.88 16.40
12753 27.7020 219.60 226.88 14.80
12754 27.7040 210.00 195.89 14.50
12755 27.7060 178.10 173.13 13.50
12756 27.7080 175.90 156.26 13.40
12757 27.7100 161.10 143.57 12.70
12758 27.7120 160.70 133.89 12.70
12759 27.7140 152.80 126.43 12.40
12760 27.7160 133.20 120.61 11.60
12761 27.7180 108.90 116.05 10.50
12762 27.7200 125.50 112.51 11.20
12763 27.7220 110.40 109.79 10.50
12764 27.7240 107.50 107.77 10.40
12765 27.7260 110.90 106.31 10.60
12766 27.7280 110.90 105.28 10.70
12767 27.7300 124.50 104.58 11.20
12768 27.7320 98.50 104.25 9.90
12769 27.7340 95.80 104.28 9.80
12770 27.7360 116.40 104.34 10.90
12771 27.7380 86.90 103.81 9.40
12772 27.7400 94.20 102.29 9.70
12773 27.7420 106.20 100.07 10.30
12774 27.7440 105.90 97.77 10.30
12775 27.7460 114.50 95.75 10.80
12776 27.7480 92.60 93.82 9.70
12777 27.7500 80.30 92.53 9.00
12778 27.7520 81.90 91.53 9.00
12779 27.7540 85.10 90.74 9.30
12780 27.7560 86.90 90.12 9.40
12781 27.7580 74.60 89.63 8.80
12782 27.7600 92.10 89.27 9.60
12783 27.7620 81.50 89.01 9.00
12784 27.7640 103.50 88.85 10.20
12785 27.7660 108.30 88.80 10.50
12786 27.7680 90.20 88.87 9.60
12787 27.7700 102.40 89.10 10.20
12788 27.7720 84.70 89.52 9.20
12789 27.7740 98.20 90.19 9.90
12790 27.7760 98.10 91.18 10.00
12791 27.7780 100.80 92.56 10.10
12792 27.7800 98.60 94.31 10.00
12793 27.7820 107.70 96.14 10.30
12794 27.7840 98.30 97.37 10.00
12795 27.7860 101.80 97.30 10.20
12796 27.7880 84.50 95.92 9.30
12797 27.7900 103.20 93.96 10.20
12798 27.7920 89.40 92.07 9.50
12799 27.7940 91.30 90.56 9.60
12800 27.7960 89.50 89.44 9.50
12801 27.7980 98.90 88.65 10.10
12802 27.8000 85.20 88.13 9.30
12803 27.8020 104.20 87.82 10.20
12804 27.8040 103.90 87.70 10.20
12805 27.8060 85.10 87.75 9.30
12806 27.8080 81.10 87.98 9.10
12807 27.8100 98.20 88.41 10.00
12808 27.8120 87.10 89.06 9.30
12809 27.8140 92.60 89.97 9.70
12810 27.8160 101.40 91.12 10.20
12811 27.8180 81.00 92.37 9.10
12812 27.8200 105.70 93.51 10.30
12813 27.8220 97.10 94.47 9.90
12814 27.8240 95.80 95.33 9.80
12815 27.8260 90.50 96.04 9.60
12816 27.8280 84.40 96.18 9.40
12817 27.8300 105.80 95.39 10.30
12818 27.8320 77.40 93.93 8.80
12819 27.8340 97.70 92.33 9.90
12820 27.8360 89.40 90.97 9.60
12821 27.8380 102.60 89.96 10.20
12822 27.8400 96.10 89.29 9.80
12823 27.8420 96.80 88.92 9.80
12824 27.8440 76.60 88.80 8.80
12825 27.8460 93.40 88.93 9.80
12826 27.8480 115.90 89.30 10.90
12827 27.8500 85.50 89.96 9.30
12828 27.8520 91.90 90.99 9.60
12829 27.8540 107.70 92.49 10.40
12830 27.8560 99.70 94.57 10.10
12831 27.8580 104.50 97.25 10.40
12832 27.8600 102.40 100.17 10.10
12833 27.8620 107.30 102.32 10.40
12834 27.8640 114.00 102.64 10.70
12835 27.8660 92.10 101.14 9.70
12836 27.8680 113.50 98.84 10.80
12837 27.8700 89.60 96.68 9.50
12838 27.8720 94.00 95.11 9.70
12839 27.8740 82.80 94.19 9.10
12840 27.8760 99.70 93.84 10.10
12841 27.8780 112.90 93.90 10.70
12842 27.8800 101.40 94.16 10.10
12843 27.8820 88.00 94.32 9.40
12844 27.8840 103.60 94.19 10.20
12845 27.8860 94.00 93.86 9.80
12846 27.8880 97.80 93.56 9.90
12847 27.8900 100.40 93.43 10.10
12848 27.8920 80.30 93.52 8.90
12849 27.8940 85.80 93.85 9.30
12850 27.8960 98.60 94.40 10.00
12851 27.8980 99.40 95.16 10.10
12852 27.9000 109.30 96.14 10.50
12853 27.9020 85.40 97.36 9.20
12854 27.9040 91.00 98.84 9.50
12855 27.9060 99.60 100.63 10.10
12856 27.9080 105.40 102.79 10.40
12857 27.9100 106.60 105.40 10.30
12858 27.9120 97.80 108.59 9.90
12859 27.9140 108.10 112.52 10.40
12860 27.9160 125.50 117.41 11.30
12861 27.9180 110.10 123.56 10.60
12862 27.9200 141.50 131.43 12.00
12863 27.9220 151.00 141.57 12.20
12864 27.9240 129.10 154.76 11.40
12865 27.9260 142.20 171.97 12.00
12866 27.9280 181.70 194.46 13.70
12867 27.9300 222.20 224.56 14.90
12868 27.9320 240.10 267.14 15.40
12869 27.9340 331.80 330.93 18.30
12870 27.9360 479.20 427.08 22.00
12871 27.9380 581.30 562.77 24.40
12872 27.9400 815.50 714.94 28.70
12873 27.9420 846.00 795.50 29.00
12874 27.9440 688.50 728.48 26.30
12875 27.9460 552.90 577.32 23.80
12876 27.9480 422.20 436.08 20.80
12877 27.9500 341.30 334.25 18.50
12878 27.9520 260.70 266.15 16.10
12879 27.9540 238.20 221.34 15.50
12880 27.9560 218.30 191.35 14.90
12881 27.9580 162.40 170.53 12.80
12882 27.9600 159.70 155.11 12.70
12883 27.9620 165.60 142.90 12.90
12884 27.9640 159.10 133.01 12.60
12885 27.9660 148.10 125.01 12.20
12886 27.9680 137.40 118.65 11.90
12887 27.9700 103.90 113.64 10.20
12888 27.9720 121.60 109.67 11.00
12889 27.9740 119.00 106.44 10.90
12890 27.9760 109.80 103.72 10.60
12891 27.9780 96.50 101.33 9.90
12892 27.9800 113.20 99.20 10.70
12893 27.9820 100.90 97.34 10.00
12894 27.9840 111.20 95.44 10.60
12895 27.9860 95.00 94.07 9.80
12896 27.9880 79.90 92.93 9.00
12897 27.9900 92.90 91.98 9.70
12898 27.9920 93.40 91.20 9.70
12899 27.9940 101.50 90.58 10.10
12900 27.9960 89.20 90.13 9.50
12901 27.9980 114.50 89.83 10.80
12902 28.0000 76.30 89.70 8.80
12903 28.0020 99.50 89.73 10.00
12904 28.0040 98.70 89.85 10.00
12905 28.0060 87.40 89.91 9.40
12906 28.0080 86.20 89.70 9.40
12907 28.0100 80.20 89.15 9.00
12908 28.0120 93.30 88.38 9.60
12909 28.0140 82.90 87.61 9.20
12910 28.0160 92.90 86.94 9.70
12911 28.0180 77.00 86.39 8.90
12912 28.0200 104.20 85.97 10.30
12913 28.0220 92.60 85.65 9.60
12914 28.0240 90.00 85.42 9.50
12915 28.0260 94.90 85.25 9.90
12916 28.0280 97.90 85.16 10.00
12917 28.0300 69.50 85.13 8.40
12918 28.0320 90.00 85.18 9.50
12919 28.0340 86.80 85.30 9.40
12920 28.0360 71.90 85.52 8.60
12921 28.0380 75.40 85.87 8.80
12922 28.0400 87.40 86.37 9.40
12923 28.0420 100.30 87.07 10.00
12924 28.0440 78.90 87.97 8.90
12925 28.0460 93.90 89.02 9.80
12926 28.0480 89.10 90.05 9.60
12927 28.0500 89.60 90.83 9.50
12928 28.0520 95.60 91.40 9.80
12929 28.0540 108.00 92.08 10.50
12930 28.0560 101.80 93.21 10.20
12931 28.0580 92.90 94.96 9.70
12932 28.0600 99.30 97.16 10.00
12933 28.0620 89.50 99.21 9.50
12934 28.0640 98.10 100.19 9.90
12935 28.0660 104.20 99.69 10.30
12936 28.0680 114.40 98.34 10.80
12937 28.0700 101.30 97.05 10.10
12938 28.0720 119.50 96.26 10.90
12939 28.0740 98.80 95.93 10.00
12940 28.0760 89.40 95.74 9.60
12941 28.0780 83.10 95.20 9.20
12942 28.0800 93.60 93.97 9.70
12943 28.0820 103.70 92.24 10.20
12944 28.0840 81.10 90.48 9.00
12945 28.0860 85.10 89.01 9.30
12946 28.0880 89.30 87.91 9.60
12947 28.0900 85.50 87.16 9.30
12948 28.0920 98.00 86.72 9.90
12949 28.0940 96.10 86.56 9.80
12950 28.0960 80.90 86.66 9.10
12951 28.0980 102.40 87.04 10.20
12952 28.1000 80.40 87.70 9.00
12953 28.1020 87.40 88.63 9.30
12954 28.1040 103.50 89.78 10.20
12955 28.1060 103.20 91.10 10.30
12956 28.1080 109.70 92.64 10.60
12957 28.1100 108.00 94.32 10.40
12958 28.1120 103.00 95.67 10.10
12959 28.1140 112.60 95.92 10.60
12960 28.1160 100.20 94.80 10.10
12961 28.1180 80.70 92.87 9.10
12962 28.1200 107.50 90.91 10.40
12963 28.1220 85.20 89.34 9.20
12964 28.1240 87.90 88.25 9.40
12965 28.1260 98.70 87.63 10.00
12966 28.1280 91.70 87.42 9.60
12967 28.1300 94.40 87.60 9.70
12968 28.1320 104.50 88.17 10.20
12969 28.1340 85.50 89.18 9.20
12970 28.1360 70.50 90.66 8.50
12971 28.1380 104.70 92.57 10.30
12972 28.1400 89.60 95.26 9.50
12973 28.1420 102.20 97.12 10.10
12974 28.1440 90.60 98.27 9.50
12975 28.1460 95.70 98.41 9.80
12976 28.1480 103.80 97.19 10.30
12977 28.1500 102.30 94.87 10.10
12978 28.1520 96.00 92.46 9.80
12979 28.1540 86.40 90.57 9.30
12980 28.1560 80.50 89.24 9.00
12981 28.1580 97.70 88.29 9.90
12982 28.1600 100.30 87.61 10.00
12983 28.1620 89.70 87.21 9.50
12984 28.1640 86.20 87.13 9.30
12985 28.1660 89.80 87.37 9.60
12986 28.1680 93.40 87.95 9.70
12987 28.1700 89.20 88.80 9.50
12988 28.1720 84.80 89.73 9.20
12989 28.1740 94.60 90.43 9.80
12990 28.1760 90.50 90.75 9.60
12991 28.1780 94.50 90.88 9.80
12992 28.1800 94.80 91.21 9.80
12993 28.1820 89.90 91.94 9.50
12994 28.1840 88.20 92.87 9.40
12995 28.1860 89.70 93.43 9.50
12996 28.1880 93.00 93.00 9.70
12997 28.1900 87.20 91.57 9.40
12998 28.1920 79.20 89.72 8.90
12999 28.1940 97.20 87.99 9.90
13000 28.1960 85.70 86.59 9.40
13001 28.1980 97.50 85.54 9.90
13002 28.2000 101.80 84.77 10.10
13003 28.2020 88.60 84.23 9.40
13004 28.2040 88.50 83.86 9.40
13005 28.2060 96.20 83.61 9.90
13006 28.2080 107.40 83.44 10.50
13007 28.2100 97.00 83.29 9.90
13008 28.2120 89.50 83.16 9.40
13009 28.2140 98.80 83.06 10.00
13010 28.2160 91.40 83.03 9.60
13011 28.2180 74.80 83.09 8.70
13012 28.2200 98.90 83.25 10.00
13013 28.2220 101.20 83.57 10.10
13014 28.2240 92.00 84.12 9.60
13015 28.2260 91.00 84.97 9.60
13016 28.2280 92.40 86.29 9.70
13017 28.2300 93.10 88.17 9.70
13018 28.2320 102.90 90.27 10.10
13019 28.2340 98.10 91.35 10.00
13020 28.2360 96.40 90.40 9.90
13021 28.2380 68.90 88.36 8.40
13022 28.2400 83.20 86.51 9.20
13023 28.2420 93.50 85.23 9.70
13024 28.2440 81.80 84.42 9.10
13025 28.2460 85.00 83.70 9.30
13026 28.2480 75.30 83.48 8.80
13027 28.2500 80.90 83.43 9.00
13028 28.2520 84.30 83.54 9.20
13029 28.2540 80.60 83.81 9.00
13030 28.2560 94.10 84.25 9.80
13031 28.2580 90.20 84.90 9.60
13032 28.2600 88.60 85.77 9.50
13033 28.2620 68.00 86.83 8.30
13034 28.2640 76.00 87.87 8.80
13035 28.2660 74.00 88.49 8.70
13036 28.2680 86.60 88.39 9.40
13037 28.2700 88.10 87.67 9.50
13038 28.2720 88.00 86.77 9.40
13039 28.2740 74.10 86.00 8.70
13040 28.2760 85.30 85.48 9.30
13041 28.2780 100.40 85.23 10.10
13042 28.2800 81.30 85.23 9.10
13043 28.2820 91.40 85.48 9.60
13044 28.2840 94.50 86.00 9.80
13045 28.2860 97.10 86.81 9.90
13046 28.2880 97.20 87.94 10.00
13047 28.2900 97.00 89.29 9.90
13048 28.2920 96.10 90.57 9.80
13049 28.2940 93.40 91.29 9.70
13050 28.2960 96.10 91.14 9.90
13051 28.2980 98.90 90.29 10.00
13052 28.3000 101.20 89.13 10.10
13053 28.3020 101.30 87.92 10.00
13054 28.3040 97.60 86.84 9.90
13055 28.3060 80.20 85.96 9.00
13056 28.3080 98.20 85.31 10.00
13057 28.3100 87.90 84.85 9.40
13058 28.3120 92.40 84.54 9.60
13059 28.3140 90.10 84.34 9.60
13060 28.3160 93.90 84.24 9.80
13061 28.3180 96.80 84.20 9.90
13062 28.3200 78.50 84.22 8.90
13063 28.3220 87.90 84.30 9.30
13064 28.3240 105.20 84.42 10.30
13065 28.3260 88.10 84.60 9.50
13066 28.3280 88.80 84.84 9.50
13067 28.3300 101.60 85.14 10.10
13068 28.3320 103.40 85.52 10.20
13069 28.3340 94.90 85.98 9.80
13070 28.3360 83.00 86.51 9.20
13071 28.3380 94.90 87.10 9.80
13072 28.3400 88.40 87.77 9.50
13073 28.3420 95.30 88.59 9.70
13074 28.3440 77.60 89.65 8.90
13075 28.3460 99.20 91.02 10.00
13076 28.3480 80.50 92.63 9.10
13077 28.3500 81.40 94.25 9.10
13078 28.3520 90.80 95.42 9.50
13079 28.3540 100.20 95.73 10.00
13080 28.3560 99.10 95.20 10.00
13081 28.3580 101.10 94.34 10.10
13082 28.3600 84.00 93.66 9.20
13083 28.3620 106.20 93.43 10.30
13084 28.3640 107.50 93.75 10.30
13085 28.3660 115.60 94.53 10.90
13086 28.3680 102.20 95.31 10.20
13087 28.3700 105.50 95.43 10.30
13088 28.3720 95.30 94.93 9.70
13089 28.3740 91.80 94.45 9.60
13090 28.3760 96.80 94.32 9.90
13091 28.3780 95.60 94.54 9.80
13092 28.3800 94.90 95.06 9.80
13093 28.3820 104.00 95.81 10.20
13094 28.3840 106.50 96.79 10.30
13095 28.3860 86.20 97.98 9.40
13096 28.3880 110.10 99.42 10.50
13097 28.3900 94.40 101.12 9.80
13098 28.3920 113.30 103.15 10.60
13099 28.3940 107.00 105.79 10.40
13100 28.3960 100.40 108.67 10.10
13101 28.3980 94.30 112.06 9.80
13102 28.4000 91.80 115.92 9.60
13103 28.4020 98.20 120.03 9.90
13104 28.4040 104.40 124.13 10.20
13105 28.4060 132.10 128.25 11.60
13106 28.4080 134.60 132.76 11.60
13107 28.4100 127.60 138.15 11.30
13108 28.4120 140.10 144.85 11.80
13109 28.4140 137.60 153.33 11.80
13110 28.4160 172.70 164.15 13.20
13111 28.4180 168.50 178.14 13.00
13112 28.4200 178.10 196.45 13.30
13113 28.4220 225.00 220.73 14.90
13114 28.4240 251.00 253.71 15.90
13115 28.4260 294.40 299.63 17.30
13116 28.4280 352.60 365.58 18.80
13117 28.4300 493.60 463.13 22.30
13118 28.4320 624.80 609.67 24.90
13119 28.4340 911.30 827.93 30.20
13120 28.4360 1210.50 1127.39 35.20
13121 28.4380 1602.90 1442.90 40.50
13122 28.4400 1726.40 1571.61 41.80
13123 28.4420 1473.00 1390.35 38.50
13124 28.4440 1048.00 1067.23 32.30
13125 28.4460 769.70 783.41 28.00
13126 28.4480 593.40 581.99 24.40
13127 28.4500 460.20 447.19 21.50
13128 28.4520 356.00 357.00 18.80
13129 28.4540 348.80 295.60 18.60
13130 28.4560 280.80 252.61 16.80
13131 28.4580 241.00 221.94 15.60
13132 28.4600 210.30 199.78 14.40
13133 28.4620 199.60 183.67 14.10
13134 28.4640 188.00 171.85 13.70
13135 28.4660 185.50 162.72 13.70
13136 28.4680 150.80 154.77 12.30
13137 28.4700 138.50 147.15 11.90
13138 28.4720 127.90 140.04 11.30
13139 28.4740 131.00 134.04 11.40
13140 28.4760 128.30 129.40 11.40
13141 28.4780 126.50 126.01 11.30
13142 28.4800 112.70 123.42 10.70
13143 28.4820 129.60 121.03 11.30
13144 28.4840 123.50 118.50 11.10
13145 28.4860 110.50 116.06 10.60
13146 28.4880 113.00 114.14 10.70
13147 28.4900 96.90 112.84 9.90
13148 28.4920 94.40 111.83 9.70
13149 28.4940 92.90 110.45 9.60
13150 28.4960 107.10 108.40 10.40
13151 28.4980 118.80 106.00 11.00
13152 28.5000 96.80 103.83 9.90
13153 28.5020 110.20 102.21 10.50
13154 28.5040 116.20 101.23 10.80
13155 28.5060 131.60 100.85 11.60
13156 28.5080 103.70 100.98 10.20
13157 28.5100 86.50 101.43 9.30
13158 28.5120 109.20 101.75 10.50
13159 28.5140 104.40 101.36 10.30
13160 28.5160 116.80 100.08 10.90
13161 28.5180 80.20 98.31 9.10
13162 28.5200 102.00 96.65 10.10
13163 28.5220 108.80 95.48 10.40
13164 28.5240 109.20 94.99 10.50
13165 28.5260 100.20 95.24 10.10
13166 28.5280 91.00 96.07 9.60
13167 28.5300 92.00 96.68 9.70
13168 28.5320 104.30 95.90 10.20
13169 28.5340 105.30 93.83 10.40
13170 28.5360 96.10 91.63 9.90
13171 28.5380 76.40 89.88 8.80
13172 28.5400 64.60 88.62 8.10
13173 28.5420 81.20 87.73 9.10
13174 28.5440 78.10 87.11 8.90
13175 28.5460 90.50 86.67 9.60
13176 28.5480 84.20 86.37 9.30
13177 28.5500 98.70 86.19 10.00
13178 28.5520 89.30 86.12 9.50
13179 28.5540 86.40 86.18 9.40
13180 28.5560 100.50 86.37 10.10
13181 28.5580 79.00 86.74 9.00
13182 28.5600 97.70 87.33 9.90
13183 28.5620 96.30 88.18 9.90
13184 28.5640 81.10 89.29 9.10
13185 28.5660 97.00 90.53 10.00
13186 28.5680 95.30 91.54 9.90
13187 28.5700 96.90 91.81 10.00
13188 28.5720 85.00 91.21 9.30
13189 28.5740 91.00 90.13 9.70
13190 28.5760 98.40 89.09 10.00
13191 28.5780 103.30 88.36 10.40
13192 28.5800 88.30 88.01 9.50
13193 28.5820 101.40 88.04 10.10
13194 28.5840 91.80 88.38 9.70
13195 28.5860 74.70 88.85 8.70
13196 28.5880 67.10 89.19 8.30
13197 28.5900 79.00 89.21 8.90
13198 28.5920 95.40 88.99 9.80
13199 28.5940 92.40 88.70 9.80
13200 28.5960 82.10 88.38 9.20
13201 28.5980 112.30 87.90 10.70
13202 28.6000 91.10 87.22 9.60
13203 28.6020 91.50 86.48 9.50
13204 28.6040 71.60 85.87 8.50
13205 28.6060 86.50 85.49 9.40
13206 28.6080 83.70 85.33 9.20
13207 28.6100 95.60 85.26 9.80
13208 28.6120 97.70 85.06 9.90
13209 28.6140 85.50 84.63 9.40
13210 28.6160 58.60 84.13 7.80
13211 28.6180 81.90 83.71 9.10
13212 28.6200 75.60 83.40 8.70
13213 28.6220 90.30 83.20 9.50
13214 28.6240 94.00 83.08 9.70
13215 28.6260 95.80 83.03 9.90
13216 28.6280 78.60 83.04 9.00
13217 28.6300 82.60 83.10 9.10
13218 28.6320 68.70 83.22 8.30
13219 28.6340 81.50 83.41 9.10
13220 28.6360 112.50 83.69 10.70
13221 28.6380 81.30 84.10 9.10
13222 28.6400 88.10 84.59 9.40
13223 28.6420 86.60 85.14 9.30
13224 28.6440 85.20 85.63 9.30
13225 28.6460 105.30 85.87 10.40
13226 28.6480 80.60 85.77 9.10
13227 28.6500 70.20 85.45 8.40
13228 28.6520 73.00 85.12 8.60
13229 28.6540 76.90 84.87 8.80
13230 28.6560 85.60 84.72 9.30
13231 28.6580 78.00 84.67 8.90
13232 28.6600 105.50 84.68 10.30
13233 28.6620 89.80 84.78 9.50
13234 28.6640 93.60 84.97 9.70
13235 28.6660 87.70 85.27 9.50
13236 28.6680 71.00 85.69 8.50
13237 28.6700 77.60 86.25 8.90
13238 28.6720 85.30 86.96 9.20
13239 28.6740 89.30 87.80 9.50
13240 28.6760 89.20 88.69 9.50
13241 28.6780 102.60 89.56 10.30
13242 28.6800 113.00 90.43 10.60
13243 28.6820 91.20 91.49 9.60
13244 28.6840 93.90 92.96 9.70
13245 28.6860 89.80 94.92 9.60
13246 28.6880 111.00 97.25 10.60
13247 28.6900 107.00 99.49 10.40
13248 28.6920 111.70 101.01 10.60
13249 28.6940 110.60 101.55 10.50
13250 28.6960 101.50 101.40 10.20
13251 28.6980 96.00 100.76 9.80
13252 28.7000 100.20 99.79 10.10
13253 28.7020 93.70 98.83 9.70
13254 28.7040 97.50 98.21 9.90
13255 28.7060 99.70 98.11 10.00
13256 28.7080 98.80 98.43 10.10
13257 28.7100 91.50 98.85 9.60
13258 28.7120 96.80 99.01 9.90
13259 28.7140 97.10 98.85 9.90
13260 28.7160 108.30 98.64 10.50
13261 28.7180 102.70 98.65 10.20
13262 28.7200 107.30 99.04 10.40
13263 28.7220 112.30 99.83 10.60
13264 28.7240 107.50 101.05 10.30
13265 28.7260 113.60 102.70 10.80
13266 28.7280 125.90 104.80 11.30
13267 28.7300 114.50 107.43 10.70
13268 28.7320 130.20 110.67 11.40
13269 28.7340 138.20 114.63 11.80
13270 28.7360 145.90 119.52 12.10
13271 28.7380 181.10 125.60 13.60
13272 28.7400 174.70 133.22 13.20
13273 28.7420 166.60 142.43 12.90
13274 28.7440 182.90 155.09 13.50
13275 28.7460 194.10 171.78 14.10
13276 28.7480 215.50 194.31 14.80
13277 28.7500 209.10 225.21 14.60
13278 28.7520 256.20 268.00 16.00
13279 28.7540 301.60 327.39 17.40
13280 28.7560 322.80 407.26 18.10
13281 28.7580 422.40 505.82 20.60
13282 28.7600 489.70 602.25 22.30
13283 28.7620 604.50 651.35 24.60
13284 28.7640 605.80 619.73 24.70
13285 28.7660 578.80 529.83 24.20
13286 28.7680 487.10 428.95 22.30
13287 28.7700 340.80 344.16 18.50
13288 28.7720 278.50 280.58 16.70
13289 28.7740 196.00 234.58 14.00
13290 28.7760 170.40 201.60 13.10
13291 28.7780 139.60 177.82 11.90
13292 28.7800 125.30 160.49 11.20
13293 28.7820 145.00 147.70 12.10
13294 28.7840 120.30 138.25 11.00
13295 28.7860 85.50 131.28 9.40
13296 28.7880 105.80 126.60 10.40
13297 28.7900 96.50 122.58 9.90
13298 28.7920 97.30 119.15 9.90
13299 28.7940 100.00 116.14 10.00
13300 28.7960 115.90 113.51 10.90
13301 28.7980 117.00 111.05 10.90
13302 28.8000 114.20 108.37 10.70
13303 28.8020 95.10 105.31 9.70
13304 28.8040 104.10 102.18 10.30
13305 28.8060 97.50 99.34 10.00
13306 28.8080 82.50 96.93 9.20
13307 28.8100 81.80 94.95 9.10
13308 28.8120 90.90 93.32 9.60
13309 28.8140 87.00 91.97 9.30
13310 28.8160 73.90 90.85 8.70
13311 28.8180 87.30 89.90 9.40
13312 28.8200 96.50 89.09 9.90
13313 28.8220 79.10 88.40 8.90
13314 28.8240 104.70 87.82 10.20
13315 28.8260 76.80 87.33 8.80
13316 28.8280 109.80 86.88 10.60
13317 28.8300 91.40 86.45 9.60
13318 28.8320 87.40 86.03 9.40
13319 28.8340 86.50 85.64 9.30
13320 28.8360 72.90 85.28 8.60
13321 28.8380 85.80 84.96 9.30
13322 28.8400 102.20 84.68 10.10
13323 28.8420 103.00 84.43 10.10
13324 28.8440 87.60 84.21 9.30
13325 28.8460 84.20 84.02 9.30
13326 28.8480 94.50 83.85 9.80
13327 28.8500 95.90 83.71 9.90
13328 28.8520 78.60 83.60 8.90
13329 28.8540 82.80 83.51 9.20
13330 28.8560 87.30 83.46 9.40
13331 28.8580 96.70 83.45 9.90
13332 28.8600 96.10 83.48 9.90
13333 28.8620 79.70 83.56 8.90
13334 28.8640 80.10 83.71 8.90
13335 28.8660 86.00 83.94 9.30
13336 28.8680 88.50 84.30 9.50
13337 28.8700 82.30 84.81 9.10
13338 28.8720 98.20 85.51 9.90
13339 28.8740 102.60 86.41 10.10
13340 28.8760 89.50 87.43 9.50
13341 28.8780 91.20 88.31 9.60
13342 28.8800 102.20 88.67 10.10
13343 28.8820 104.90 88.32 10.30
13344 28.8840 94.50 87.49 9.70
13345 28.8860 94.20 86.58 9.80
13346 28.8880 96.30 85.78 9.90
13347 28.8900 85.10 85.12 9.30
13348 28.8920 88.10 84.56 9.40
13349 28.8940 103.20 84.10 10.20
13350 28.8960 82.30 83.73 9.10
13351 28.8980 84.20 83.48 9.20
13352 28.9000 71.00 83.34 8.40
13353 28.9020 78.00 83.30 8.90
13354 28.9040 93.00 83.35 9.60
13355 28.9060 76.70 83.50 8.80
13356 28.9080 79.60 83.77 9.00
13357 28.9100 91.80 84.15 9.60
13358 28.9120 99.30 84.61 9.90
13359 28.9140 73.00 85.06 8.60
13360 28.9160 99.80 85.35 10.10
13361 28.9180 78.20 85.38 8.90
13362 28.9200 92.20 85.22 9.70
13363 28.9220 84.40 84.98 9.20
13364 28.9240 119.10 84.74 10.90
13365 28.9260 94.80 84.52 9.80
13366 28.9280 75.50 84.37 8.70
13367 28.9300 107.20 84.32 10.40
13368 28.9320 78.80 84.41 8.90
13369 28.9340 76.40 84.65 8.80
13370 28.9360 96.40 85.08 9.90
13371 28.9380 90.70 85.71 9.60
13372 28.9400 94.80 86.52 9.70
13373 28.9420 94.40 87.35 9.70
13374 28.9440 86.10 88.10 9.30
13375 28.9460 93.20 88.99 9.80
13376 28.9480 102.00 90.30 10.20
13377 28.9500 101.00 92.19 10.10
13378 28.9520 102.70 94.63 10.20
13379 28.9540 107.60 97.30 10.40
13380 28.9560 88.00 99.49 9.50
13381 28.9580 116.50 100.40 10.90
13382 28.9600 78.20 99.97 8.90
13383 28.9620 98.40 98.85 9.90
13384 28.9640 104.80 97.77 10.30
13385 28.9660 103.30 96.93 10.20
13386 28.9680 99.50 96.02 10.10
13387 28.9700 88.20 94.68 9.40
13388 28.9720 121.60 93.00 11.10
13389 28.9740 88.80 91.36 9.50
13390 28.9760 81.50 90.03 9.10
13391 28.9780 90.10 89.11 9.60
13392 28.9800 96.40 88.56 9.90
13393 28.9820 96.70 88.34 9.80
13394 28.9840 100.60 88.44 10.00
13395 28.9860 109.00 88.81 10.50
13396 28.9880 105.90 89.37 10.40
13397 28.9900 86.80 89.95 9.40
13398 28.9920 96.80 90.27 9.80
13399 28.9940 85.20 90.18 9.30
13400 28.9960 91.30 89.85 9.70
13401 28.9980 96.60 89.54 9.90
13402 29.0000 98.60 89.42 10.00
13403 29.0020 99.80 89.57 10.00
13404 29.0040 96.20 90.04 9.80
13405 29.0060 80.10 90.83 9.00
13406 29.0080 80.00 91.99 9.00
13407 29.0100 85.50 93.51 9.30
13408 29.0120 99.80 95.24 10.00
13409 29.0140 106.60 96.80 10.30
13410 29.0160 98.30 97.59 10.00
13411 29.0180 95.60 97.39 9.80
13412 29.0200 113.70 96.56 10.70
13413 29.0220 102.00 95.67 10.10
13414 29.0240 95.10 95.06 9.80
13415 29.0260 101.30 94.84 10.20
13416 29.0280 100.30 94.98 10.10
13417 29.0300 96.60 95.47 9.90
13418 29.0320 113.00 96.30 10.60
13419 29.0340 98.30 97.52 10.00
13420 29.0360 89.10 99.16 9.60
13421 29.0380 101.00 101.29 10.10
13422 29.0400 110.00 103.93 10.50
13423 29.0420 116.50 106.97 10.80
13424 29.0440 103.00 110.05 10.10
13425 29.0460 103.20 112.58 10.20
13426 29.0480 118.10 114.02 10.90
13427 29.0500 101.60 114.51 10.20
13428 29.0520 102.70 114.78 10.10
13429 29.0540 117.80 115.50 10.90
13430 29.0560 106.50 117.00 10.40
13431 29.0580 110.70 119.39 10.50
13432 29.0600 113.60 122.73 10.70
13433 29.0620 138.90 127.12 11.80
13434 29.0640 119.20 132.68 11.00
13435 29.0660 117.00 139.63 10.90
13436 29.0680 142.90 148.24 12.00
13437 29.0700 149.00 159.01 12.30
13438 29.0720 166.60 172.68 12.90
13439 29.0740 170.00 190.36 13.10
13440 29.0760 215.90 213.77 14.80
13441 29.0780 257.80 245.45 16.10
13442 29.0800 267.60 289.41 16.40
13443 29.0820 343.90 352.41 18.50
13444 29.0840 414.70 444.94 20.50
13445 29.0860 598.80 582.59 24.60
13446 29.0880 798.00 785.11 28.50
13447 29.0900 1189.50 1057.56 34.80
13448 29.0920 1414.00 1332.58 37.80
13449 29.0940 1370.90 1431.59 37.40
13450 29.0960 1279.00 1260.79 36.40
13451 29.0980 898.00 971.60 30.20
13452 29.1000 732.60 717.77 27.20
13453 29.1020 512.60 536.69 22.60
13454 29.1040 437.30 414.55 20.90
13455 29.1060 317.10 332.81 18.00
13456 29.1080 346.10 276.88 18.60
13457 29.1100 239.70 237.44 15.50
13458 29.1120 235.70 208.48 15.30
13459 29.1140 179.80 186.43 13.40
13460 29.1160 193.80 169.16 14.10
13461 29.1180 179.60 155.53 13.50
13462 29.1200 141.20 144.67 11.90
13463 29.1220 153.00 135.91 12.30
13464 29.1240 153.40 128.79 12.40
13465 29.1260 119.50 122.91 11.00
13466 29.1280 134.80 118.01 11.70
13467 29.1300 119.60 113.90 10.90
13468 29.1320 118.00 110.41 10.80
13469 29.1340 110.20 107.42 10.50
13470 29.1360 114.60 104.85 10.80
13471 29.1380 120.40 102.41 11.00
13472 29.1400 97.50 100.47 9.90
13473 29.1420 113.40 98.78 10.60
13474 29.1440 105.70 97.29 10.30
13475 29.1460 93.00 95.99 9.70
13476 29.1480 85.30 94.84 9.30
13477 29.1500 91.40 93.83 9.60
13478 29.1520 106.70 92.96 10.30
13479 29.1540 95.80 92.22 9.80
13480 29.1560 82.30 91.60 9.10
13481 29.1580 94.50 91.11 9.70
13482 29.1600 95.90 90.75 9.80
13483 29.1620 79.80 90.52 8.90
13484 29.1640 94.50 90.41 9.70
13485 29.1660 103.90 90.31 10.30
13486 29.1680 82.10 90.07 9.10
13487 29.1700 107.60 89.60 10.40
13488 29.1720 85.20 88.95 9.20
13489 29.1740 79.60 88.28 8.90
13490 29.1760 91.50 87.69 9.70
13491 29.1780 92.10 87.22 9.70
13492 29.1800 81.20 86.86 9.00
13493 29.1820 89.10 86.60 9.40
13494 29.1840 103.30 86.43 10.20
13495 29.1860 80.80 86.36 9.00
13496 29.1880 86.50 86.39 9.30
13497 29.1900 110.50 86.52 10.50
13498 29.1920 95.40 86.78 9.80
13499 29.1940 92.40 87.21 9.60
13500 29.1960 91.60 87.84 9.60
13501 29.1980 90.60 88.76 9.50
13502 29.2000 99.20 90.01 10.00
13503 29.2020 112.40 91.66 10.50
13504 29.2040 88.90 93.64 9.40
13505 29.2060 91.10 95.79 9.60
13506 29.2080 102.40 97.76 10.10
13507 29.2100 109.50 99.07 10.40
13508 29.2120 109.70 99.24 10.50
13509 29.2140 98.40 98.42 9.90
13510 29.2160 86.60 97.34 9.30
13511 29.2180 97.90 96.58 10.00
13512 29.2200 82.20 96.25 9.10
13513 29.2220 95.90 96.13 9.80
13514 29.2240 111.00 96.13 10.60
13515 29.2260 102.30 96.39 10.20
13516 29.2280 91.10 96.98 9.50
13517 29.2300 96.50 97.60 9.80
13518 29.2320 108.70 97.59 10.50
13519 29.2340 113.20 96.52 10.70
13520 29.2360 114.70 94.50 10.80
13521 29.2380 114.30 92.10 10.70
13522 29.2400 105.40 89.87 10.30
13523 29.2420 107.60 88.04 10.40
13524 29.2440 85.30 86.63 9.30
13525 29.2460 96.40 85.57 9.90
13526 29.2480 102.80 84.80 10.20
13527 29.2500 92.40 84.24 9.70
13528 29.2520 87.30 83.88 9.40
13529 29.2540 82.30 83.66 9.10
13530 29.2560 80.50 83.56 9.10
13531 29.2580 87.90 83.50 9.40
13532 29.2600 81.70 83.38 9.10
13533 29.2620 75.50 83.17 8.70
13534 29.2640 100.90 82.95 10.10
13535 29.2660 96.00 82.79 10.00
13536 29.2680 71.70 82.74 8.50
13537 29.2700 78.20 82.75 8.80
13538 29.2720 96.80 82.78 9.90
13539 29.2740 97.30 82.77 9.90
13540 29.2760 85.70 82.71 9.40
13541 29.2780 73.40 82.65 8.60
13542 29.2800 92.00 82.61 9.60
13543 29.2820 93.80 82.56 9.70
13544 29.2840 80.60 82.43 9.10
13545 29.2860 85.30 82.20 9.40
13546 29.2880 85.50 81.91 9.30
13547 29.2900 99.20 81.63 10.00
13548 29.2920 85.90 81.39 9.30
13549 29.2940 94.60 81.21 9.80
13550 29.2960 92.80 81.08 9.70
13551 29.2980 82.90 80.99 9.20
13552 29.3000 101.00 80.94 10.10
13553 29.3020 80.70 80.92 9.00
13554 29.3040 93.90 80.94 9.70
13555 29.3060 87.40 80.98 9.50
13556 29.3080 90.10 81.07 9.50
13557 29.3100 88.70 81.20 9.50
13558 29.3120 69.80 81.37 8.40
13559 29.3140 87.60 81.56 9.40
13560 29.3160 84.10 81.77 9.30
13561 29.3180 94.10 82.01 9.70
13562 29.3200 103.40 82.30 10.20
13563 29.3220 91.20 82.66 9.60
13564 29.3240 97.60 83.04 10.00
13565 29.3260 94.50 83.37 9.80
13566 29.3280 101.60 83.59 10.20
13567 29.3300 96.50 83.79 9.80
13568 29.3320 74.30 84.09 8.70
13569 29.3340 86.40 84.58 9.40
13570 29.3360 88.70 85.23 9.50
13571 29.3380 97.40 85.90 9.90
13572 29.3400 68.10 86.40 8.30
13573 29.3420 99.90 86.66 10.00
13574 29.3440 80.30 86.74 9.00
13575 29.3460 83.80 86.66 9.30
13576 29.3480 83.40 86.41 9.20
13577 29.3500 87.20 86.11 9.30
13578 29.3520 90.40 85.95 9.60
13579 29.3540 94.60 86.10 9.80
13580 29.3560 97.80 86.64 10.00
13581 29.3580 80.90 87.62 9.10
13582 29.3600 93.30 89.01 9.70
13583 29.3620 90.50 90.58 9.60
13584 29.3640 96.60 91.90 9.90
13585 29.3660 102.50 92.53 10.30
13586 29.3680 94.80 92.44 9.80
13587 29.3700 80.10 91.95 9.00
13588 29.3720 85.40 91.16 9.30
13589 29.3740 88.50 89.99 9.50
13590 29.3760 90.50 88.53 9.60
13591 29.3780 67.40 87.03 8.30
13592 29.3800 72.10 85.67 8.50
13593 29.3820 107.80 84.54 10.40
13594 29.3840 90.30 83.64 9.60
13595 29.3860 107.20 82.97 10.40
13596 29.3880 107.70 82.47 10.50
13597 29.3900 80.10 82.11 9.00
13598 29.3920 77.40 81.88 8.90
13599 29.3940 94.50 81.74 9.80
13600 29.3960 86.50 81.69 9.40
13601 29.3980 84.20 81.74 9.20
13602 29.4000 83.70 81.88 9.20
13603 29.4020 78.10 81.67 8.90
13604 29.4040 90.20 82.09 9.60
13605 29.4060 78.20 82.69 9.00
13606 29.4080 79.30 83.43 9.00
13607 29.4100 79.30 84.21 9.00
13608 29.4120 94.10 84.75 9.70
13609 29.4140 83.60 84.75 9.20
13610 29.4160 89.20 84.20 9.60
13611 29.4180 81.50 83.63 9.10
13612 29.4200 85.00 82.86 9.20
13613 29.4220 84.20 82.24 9.20
13614 29.4240 88.60 81.78 9.50
13615 29.4260 82.40 81.46 9.20
13616 29.4280 84.00 81.21 9.30
13617 29.4300 89.20 81.04 9.50
13618 29.4320 81.30 80.90 9.10
13619 29.4340 67.10 80.81 8.30
13620 29.4360 88.00 80.79 9.50
13621 29.4380 76.10 80.84 8.80
13622 29.4400 83.70 80.97 9.20
13623 29.4420 84.60 81.18 9.20
13624 29.4440 78.90 81.48 9.00
13625 29.4460 101.10 81.83 10.10
13626 29.4480 77.10 82.14 8.90
13627 29.4500 80.30 82.26 9.00
13628 29.4520 86.40 82.16 9.30
13629 29.4540 85.50 81.93 9.30
13630 29.4560 101.10 81.70 10.10
13631 29.4580 77.80 81.56 8.90
13632 29.4600 82.40 81.52 9.00
13633 29.4620 75.00 81.60 8.70
13634 29.4640 80.80 81.80 9.00
13635 29.4660 74.80 82.09 8.80
13636 29.4680 90.30 82.44 9.60
13637 29.4700 90.60 82.78 9.60
13638 29.4720 72.80 83.04 8.50
13639 29.4740 93.80 83.22 9.80
13640 29.4760 79.60 83.44 9.00
13641 29.4780 86.50 83.78 9.40
13642 29.4800 93.90 84.24 9.70
13643 29.4820 86.60 84.81 9.30
13644 29.4840 84.20 85.47 9.30
13645 29.4860 90.40 86.27 9.60
13646 29.4880 94.00 87.22 9.80
13647 29.4900 93.10 88.17 9.60
13648 29.4920 96.40 88.84 9.90
13649 29.4940 88.50 89.10 9.50
13650 29.4960 100.30 89.04 10.10
13651 29.4980 81.00 88.96 9.10
13652 29.5000 83.30 89.09 9.10
13653 29.5020 98.40 89.43 9.90
13654 29.5040 90.60 89.68 9.60
13655 29.5060 90.90 89.38 9.70
13656 29.5080 96.20 88.38 9.90
13657 29.5100 83.50 87.02 9.20
13658 29.5120 101.00 85.71 10.10
13659 29.5140 100.70 84.63 10.10
13660 29.5160 84.80 83.83 9.30
13661 29.5180 86.00 83.28 9.40
13662 29.5200 100.50 82.92 10.00
13663 29.5220 87.70 82.74 9.40
13664 29.5240 86.10 82.71 9.30
13665 29.5260 90.80 82.84 9.60
13666 29.5280 94.80 83.13 9.80
13667 29.5300 83.40 83.61 9.20
13668 29.5320 84.20 84.48 9.20
13669 29.5340 87.20 85.31 9.40
13670 29.5360 81.60 86.11 9.10
13671 29.5380 73.40 86.58 8.60
13672 29.5400 78.30 86.50 8.90
13673 29.5420 77.00 85.98 8.80
13674 29.5440 75.10 85.31 8.80
13675 29.5460 85.70 84.69 9.30
13676 29.5480 80.90 84.26 9.00
13677 29.5500 79.10 84.04 8.90
13678 29.5520 87.90 83.98 9.40
13679 29.5540 65.60 83.97 8.20
13680 29.5560 68.50 83.85 8.30
13681 29.5580 86.60 83.54 9.40
13682 29.5600 81.30 83.09 9.00
13683 29.5620 98.30 82.65 9.90
13684 29.5640 82.10 82.28 9.10
13685 29.5660 94.20 82.00 9.80
13686 29.5680 81.70 81.80 9.10
13687 29.5700 83.70 81.67 9.20
13688 29.5720 75.50 81.58 8.70
13689 29.5740 84.80 81.54 9.30
13690 29.5760 84.10 81.53 9.20
13691 29.5780 86.90 81.56 9.40
13692 29.5800 73.70 81.61 8.60
13693 29.5820 81.60 81.69 9.00
13694 29.5840 80.30 81.81 9.00
13695 29.5860 94.70 81.96 9.80
13696 29.5880 89.70 82.15 9.60
13697 29.5900 82.70 82.41 9.10
13698 29.5920 90.50 82.73 9.50
13699 29.5940 107.00 83.16 10.40
13700 29.5960 91.00 83.73 9.60
13701 29.5980 83.60 84.48 9.20
13702 29.6000 81.50 85.46 9.10
13703 29.6020 107.10 86.69 10.40
13704 29.6040 83.10 88.08 9.20
13705 29.6060 82.40 89.34 9.20
13706 29.6080 92.00 89.98 9.70
13707 29.6100 83.00 89.69 9.20
13708 29.6120 87.70 88.70 9.40
13709 29.6140 88.00 87.52 9.50
13710 29.6160 87.40 86.50 9.40
13711 29.6180 84.50 85.75 9.30
13712 29.6200 93.30 85.26 9.70
13713 29.6220 93.80 85.01 9.70
13714 29.6240 94.70 84.96 9.80
13715 29.6260 95.10 85.05 9.90
13716 29.6280 80.20 85.24 9.00
13717 29.6300 81.10 85.50 9.00
13718 29.6320 72.70 85.83 8.60
13719 29.6340 99.70 86.32 10.00
13720 29.6360 78.80 87.04 9.00
13721 29.6380 85.70 88.01 9.30
13722 29.6400 89.20 89.16 9.50
13723 29.6420 90.00 90.24 9.50
13724 29.6440 99.80 90.80 10.10
13725 29.6460 98.00 90.56 10.00
13726 29.6480 65.30 89.72 8.10
13727 29.6500 99.80 88.72 10.10
13728 29.6520 96.80 87.85 9.90
13729 29.6540 102.60 87.22 10.20
13730 29.6560 86.60 86.83 9.40
13731 29.6580 91.30 86.64 9.60
13732 29.6600 110.00 86.62 10.50
13733 29.6620 86.00 86.75 9.30
13734 29.6640 91.60 87.01 9.60
13735 29.6660 87.80 87.40 9.50
13736 29.6680 96.10 87.90 9.90
13737 29.6700 71.60 88.45 8.50
13738 29.6720 95.30 88.96 9.80
13739 29.6740 98.80 89.35 10.00
13740 29.6760 84.40 89.65 9.30
13741 29.6780 94.90 89.96 9.80
13742 29.6800 90.80 90.38 9.60
13743 29.6820 99.00 90.94 9.90
13744 29.6840 91.90 91.65 9.60
13745 29.6860 90.60 92.52 9.60
13746 29.6880 90.00 93.55 9.60
13747 29.6900 90.70 94.79 9.50
13748 29.6920 84.70 96.29 9.20
13749 29.6940 92.00 98.09 9.60
13750 29.6960 113.90 100.27 10.70
13751 29.6980 122.00 102.86 11.10
13752 29.7000 93.00 105.88 9.70
13753 29.7020 108.10 109.29 10.40
13754 29.7040 125.30 113.03 11.30
13755 29.7060 125.40 117.24 11.30
13756 29.7080 108.90 122.23 10.50
13757 29.7100 134.30 128.43 11.70
13758 29.7120 142.60 136.46 11.90
13759 29.7140 172.90 147.17 13.10
13760 29.7160 168.10 161.75 13.10
13761 29.7180 232.20 182.10 15.40
13762 29.7200 227.50 211.14 15.00
13763 29.7220 280.00 253.39 16.80
13764 29.7240 375.20 315.91 19.40
13765 29.7260 407.90 407.34 20.40
13766 29.7280 558.30 531.32 23.80
13767 29.7300 670.90 664.19 26.10
13768 29.7320 739.40 729.45 27.20
13769 29.7340 791.20 669.09 28.30
13770 29.7360 541.20 537.32 23.50
13771 29.7380 430.50 412.52 20.90
13772 29.7400 331.90 320.34 18.20
13773 29.7420 295.70 257.59 17.10
13774 29.7440 204.30 214.96 14.30
13775 29.7460 198.10 185.21 14.20
13776 29.7480 153.50 163.84 12.40
13777 29.7500 147.40 148.19 12.20
13778 29.7520 154.40 136.58 12.40
13779 29.7540 138.00 127.83 11.80
13780 29.7560 135.20 121.13 11.70
13781 29.7580 135.90 115.95 11.70
13782 29.7600 122.00 111.92 11.10
13783 29.7620 92.00 108.81 9.60
13784 29.7640 96.20 106.40 9.80
13785 29.7660 101.80 104.54 10.20
13786 29.7680 117.70 103.00 10.90
13787 29.7700 127.00 101.57 11.30
13788 29.7720 100.30 100.14 10.00
13789 29.7740 97.30 98.81 9.90
13790 29.7760 96.90 97.70 9.90
13791 29.7780 95.10 96.90 9.80
13792 29.7800 99.80 96.46 10.00
13793 29.7820 91.00 96.40 9.50
13794 29.7840 93.50 96.74 9.70
13795 29.7860 120.40 97.43 11.10
13796 29.7880 100.70 98.28 10.20
13797 29.7900 117.30 98.88 10.90
13798 29.7920 86.80 98.75 9.30
13799 29.7940 101.20 97.86 10.10
13800 29.7960 78.30 96.61 9.00
13801 29.7980 85.50 95.47 9.30
13802 29.8000 99.50 94.67 10.00
13803 29.8020 94.90 94.29 9.80
13804 29.8040 96.00 94.36 9.80
13805 29.8060 91.80 94.91 9.70
13806 29.8080 89.20 95.95 9.60
13807 29.8100 96.40 97.51 9.80
13808 29.8120 96.80 99.46 9.90
13809 29.8140 91.00 101.37 9.60
13810 29.8160 100.70 102.48 10.20
13811 29.8180 103.00 102.16 10.20
13812 29.8200 94.10 100.60 9.70
13813 29.8220 91.10 98.59 9.50
13814 29.8240 100.00 96.77 10.00
13815 29.8260 97.90 95.40 10.00
13816 29.8280 93.30 94.48 9.80
13817 29.8300 95.40 93.95 9.80
13818 29.8320 94.40 93.75 9.70
13819 29.8340 98.90 93.78 10.00
13820 29.8360 89.00 93.99 9.50
13821 29.8380 96.40 94.31 9.90
13822 29.8400 114.40 94.75 10.70
13823 29.8420 124.80 95.33 11.20
13824 29.8440 102.70 96.09 10.10
13825 29.8460 120.60 97.07 11.10
13826 29.8480 128.20 98.28 11.40
13827 29.8500 96.50 99.77 9.90
13828 29.8520 118.10 101.58 10.90
13829 29.8540 100.30 103.77 10.00
13830 29.8560 129.80 106.43 11.60
13831 29.8580 119.60 109.67 11.10
13832 29.8600 115.20 113.61 10.70
13833 29.8620 148.20 118.48 12.20
13834 29.8640 136.70 124.49 11.70
13835 29.8660 147.20 131.92 12.20
13836 29.8680 182.80 141.61 13.70
13837 29.8700 178.70 153.53 13.40
13838 29.8720 184.30 169.44 13.60
13839 29.8740 200.70 191.25 14.20
13840 29.8760 240.70 221.89 15.70
13841 29.8780 244.50 265.28 15.80
13842 29.8800 272.20 326.14 16.60
13843 29.8820 343.80 408.00 18.60
13844 29.8840 439.40 503.90 20.90
13845 29.8860 546.60 581.99 23.80
13846 29.8880 614.70 594.04 25.00
13847 29.8900 555.40 530.62 23.60
13848 29.8920 486.80 435.71 22.10
13849 29.8940 370.50 348.81 19.20
13850 29.8960 287.80 282.63 17.10
13851 29.8980 248.10 235.40 15.90
13852 29.9000 202.50 201.83 14.30
13853 29.9020 149.70 177.68 12.20
13854 29.9040 139.30 160.17 11.80
13855 29.9060 141.00 147.31 12.00
13856 29.9080 133.10 137.57 11.70
13857 29.9100 112.20 129.69 10.60
13858 29.9120 106.10 122.98 10.30
13859 29.9140 112.80 117.22 10.60
13860 29.9160 104.80 112.38 10.30
13861 29.9180 96.80 108.40 9.90
13862 29.9200 94.70 105.12 9.70
13863 29.9220 99.80 102.42 10.00
13864 29.9240 93.00 100.18 9.60
13865 29.9260 87.30 98.32 9.40
13866 29.9280 105.20 96.76 10.40
13867 29.9300 89.50 95.45 9.50
13868 29.9320 80.60 94.35 9.00
13869 29.9340 85.40 93.44 9.30
13870 29.9360 96.10 92.68 9.90
13871 29.9380 101.50 92.02 10.10
13872 29.9400 97.60 91.42 9.90
13873 29.9420 101.90 90.79 10.10
13874 29.9440 94.10 90.16 9.70
13875 29.9460 93.80 89.55 9.80
13876 29.9480 82.60 89.00 9.20
13877 29.9500 93.30 88.52 9.70
13878 29.9520 109.40 88.12 10.50
13879 29.9540 74.50 87.78 8.60
13880 29.9560 92.00 87.49 9.70
13881 29.9580 95.40 87.26 9.90
13882 29.9600 88.60 87.07 9.40
13883 29.9620 86.50 86.94 9.30
13884 29.9640 87.50 86.86 9.30
13885 29.9660 81.60 86.85 9.10
13886 29.9680 90.10 86.90 9.60
13887 29.9700 90.20 87.05 9.50
13888 29.9720 85.00 87.29 9.20
13889 29.9740 76.40 87.62 8.70
13890 29.9760 98.40 87.97 10.00
13891 29.9780 102.10 88.22 10.30
13892 29.9800 90.60 88.22 9.60
13893 29.9820 87.70 87.97 9.40
13894 29.9840 103.60 87.62 10.20
13895 29.9860 102.90 87.30 10.30
13896 29.9880 109.80 87.09 10.60
13897 29.9900 80.40 87.00 9.00
13898 29.9920 87.50 87.02 9.40
13899 29.9940 91.20 87.17 9.60
13900 29.9960 89.60 87.43 9.50
13901 29.9980 93.20 87.83 9.80
13902 30.0000 98.70 88.39 10.00
13903 30.0020 88.40 89.17 9.50
13904 30.0040 104.00 90.22 10.20
13905 30.0060 89.70 91.64 9.60
13906 30.0080 92.80 93.49 9.70
13907 30.0100 115.10 95.79 10.80
13908 30.0120 92.40 98.31 9.60
13909 30.0140 102.90 100.52 10.20
13910 30.0160 101.20 101.82 10.10
13911 30.0180 97.70 102.21 10.00
13912 30.0200 96.40 102.34 9.80
13913 30.0220 103.20 102.83 10.20
13914 30.0240 103.50 103.81 10.20
13915 30.0260 102.20 104.96 10.30
13916 30.0280 100.70 105.79 10.20
13917 30.0300 99.40 105.79 10.00
13918 30.0320 100.60 104.61 10.00
13919 30.0340 106.10 102.43 10.30
13920 30.0360 121.20 99.96 11.10
13921 30.0380 101.30 97.79 10.10
13922 30.0400 98.50 96.15 9.90
13923 30.0420 77.90 94.99 8.80
13924 30.0440 87.50 94.22 9.50
13925 30.0460 114.80 93.72 10.80
13926 30.0480 85.20 93.04 9.30
13927 30.0500 109.90 92.39 10.60
13928 30.0520 97.90 91.48 9.90
13929 30.0540 88.70 90.51 9.50
13930 30.0560 80.60 89.67 9.10
13931 30.0580 90.00 88.97 9.60
13932 30.0600 86.60 88.32 9.40
13933 30.0620 89.20 87.72 9.50
13934 30.0640 99.10 87.23 10.00
13935 30.0660 106.10 86.88 10.40
13936 30.0680 96.90 86.66 10.00
13937 30.0700 95.30 86.54 9.80
13938 30.0720 90.70 86.50 9.50
13939 30.0740 103.90 86.54 10.20
13940 30.0760 98.70 86.66 10.10
13941 30.0780 89.20 86.87 9.50
13942 30.0800 105.50 87.15 10.30
13943 30.0820 97.50 87.55 9.80
13944 30.0840 97.70 88.09 9.90
13945 30.0860 89.70 88.81 9.60
13946 30.0880 101.60 89.76 10.20
13947 30.0900 78.00 90.99 8.80
13948 30.0920 91.50 92.46 9.60
13949 30.0940 89.70 93.97 9.50
13950 30.0960 98.00 95.07 10.00
13951 30.0980 97.10 95.28 9.90
13952 30.1000 85.80 94.60 9.30
13953 30.1020 89.30 93.47 9.40
13954 30.1040 94.40 92.39 9.70
13955 30.1060 88.90 91.56 9.50
13956 30.1080 93.00 91.04 9.70
13957 30.1100 80.90 90.81 9.00
13958 30.1120 76.90 90.82 8.80
13959 30.1140 98.60 91.07 9.90
13960 30.1160 86.50 91.54 9.40
13961 30.1180 91.50 92.26 9.60
13962 30.1200 94.50 93.26 9.70
13963 30.1220 108.60 94.57 10.40
13964 30.1240 105.60 96.19 10.20
13965 30.1260 93.70 98.01 9.80
13966 30.1280 80.60 99.85 9.10
13967 30.1300 94.90 101.39 9.80
13968 30.1320 89.30 102.22 9.40
13969 30.1340 90.10 102.04 9.50
13970 30.1360 109.20 101.07 10.60
13971 30.1380 94.20 99.88 9.70
13972 30.1400 99.80 98.90 10.00
13973 30.1420 109.30 98.30 10.40
13974 30.1440 107.60 98.09 10.30
13975 30.1460 114.60 98.22 10.80
13976 30.1480 113.70 98.63 10.70
13977 30.1500 96.80 99.31 9.90
13978 30.1520 105.20 100.21 10.20
13979 30.1540 99.70 101.35 10.00
13980 30.1560 109.90 102.74 10.60
13981 30.1580 114.80 104.38 10.80
13982 30.1600 112.60 106.30 10.60
13983 30.1620 112.10 108.56 10.50
13984 30.1640 124.10 111.22 11.10
13985 30.1660 121.60 114.34 11.10
13986 30.1680 119.40 118.03 11.10
13987 30.1700 125.50 122.44 11.20
13988 30.1720 132.10 127.72 11.40
13989 30.1740 136.70 134.13 11.70
13990 30.1760 151.60 141.95 12.40
13991 30.1780 157.10 151.60 12.70
13992 30.1800 179.40 163.59 13.40
13993 30.1820 190.90 178.62 13.80
13994 30.1840 208.00 197.91 14.50
13995 30.1860 254.20 223.31 16.10
13996 30.1880 260.50 257.52 16.30
13997 30.1900 324.40 304.68 18.00
13998 30.1920 359.00 370.60 19.00
13999 30.1940 491.80 463.70 22.20
14000 30.1960 544.70 595.65 23.70
14001 30.1980 758.50 773.98 27.80
14002 30.2000 841.90 977.41 29.10
14003 30.2020 1149.00 1119.92 34.00
14004 30.2040 1190.30 1094.50 34.80
14005 30.2060 955.80 921.50 31.30
14006 30.2080 748.60 716.34 27.60
14007 30.2100 518.30 548.09 22.80
14008 30.2120 410.50 426.42 20.20
14009 30.2140 342.40 341.94 18.50
14010 30.2160 259.20 283.08 16.30
14011 30.2180 238.20 241.49 15.60
14012 30.2200 193.60 211.48 13.90
14013 30.2220 183.30 189.22 13.50
14014 30.2240 162.60 172.35 12.80
14015 30.2260 161.90 159.37 12.90
14016 30.2280 123.30 149.24 11.10
14017 30.2300 144.60 141.38 12.10
14018 30.2320 131.00 135.34 11.50
14019 30.2340 127.60 130.74 11.40
14020 30.2360 114.60 127.16 10.90
14021 30.2380 113.00 124.04 10.70
14022 30.2400 107.70 120.81 10.40
14023 30.2420 121.70 117.25 11.00
14024 30.2440 124.40 113.62 11.20
14025 30.2460 99.40 110.09 10.10
14026 30.2480 98.00 107.21 10.00
14027 30.2500 104.00 104.80 10.20
14028 30.2520 89.40 102.82 9.50
14029 30.2540 99.80 101.21 10.00
14030 30.2560 118.90 99.90 11.10
14031 30.2580 101.40 98.86 10.10
14032 30.2600 100.70 98.09 10.00
14033 30.2620 108.60 97.56 10.40
14034 30.2640 114.00 97.31 10.70
14035 30.2660 110.60 97.38 10.70
14036 30.2680 84.30 97.80 9.30
14037 30.2700 83.70 98.66 9.20
14038 30.2720 87.90 99.95 9.40
14039 30.2740 95.00 101.53 9.80
14040 30.2760 110.00 102.91 10.70
14041 30.2780 110.80 103.41 10.60
14042 30.2800 103.70 102.72 10.20
14043 30.2820 94.50 101.24 9.70
14044 30.2840 92.10 99.57 9.60
14045 30.2860 101.30 98.02 10.30
14046 30.2880 100.80 96.70 10.10
14047 30.2900 114.00 95.67 10.70
14048 30.2920 115.40 94.88 10.70
14049 30.2940 92.10 94.02 9.60
14050 30.2960 102.40 92.90 10.30
14051 30.2980 96.90 91.76 10.00
14052 30.3000 103.30 90.88 10.10
14053 30.3020 90.10 90.32 9.50
14054 30.3040 107.40 90.06 10.40
14055 30.3060 92.90 90.08 9.80
14056 30.3080 91.30 90.32 9.60
14057 30.3100 74.40 90.67 8.70
14058 30.3120 96.10 90.92 9.80
14059 30.3140 87.90 90.79 9.40
14060 30.3160 85.20 90.20 9.40
14061 30.3180 87.50 89.34 9.40
14062 30.3200 89.40 88.47 9.50
14063 30.3220 94.20 87.71 9.70
14064 30.3240 88.30 87.10 9.40
14065 30.3260 84.50 86.62 9.30
14066 30.3280 93.90 86.25 9.80
14067 30.3300 76.20 85.96 8.80
14068 30.3320 84.30 85.75 9.20
14069 30.3340 83.80 85.59 9.20
14070 30.3360 63.20 85.47 8.10
14071 30.3380 82.00 85.40 9.10
14072 30.3400 69.40 85.37 8.40
14073 30.3420 91.30 85.36 9.60
14074 30.3440 94.00 85.34 9.70
14075 30.3460 93.90 85.27 9.80
14076 30.3480 85.90 85.17 9.40
14077 30.3500 86.40 85.05 9.30
14078 30.3520 93.50 84.94 9.60
14079 30.3540 87.40 84.87 9.30
14080 30.3560 84.20 84.83 9.30
14081 30.3580 92.00 84.83 9.60
14082 30.3600 104.40 84.87 10.20
14083 30.3620 84.00 84.96 9.20
14084 30.3640 95.30 85.11 9.70
14085 30.3660 85.90 85.32 9.40
14086 30.3680 85.50 85.58 9.30
14087 30.3700 105.90 85.81 10.30
14088 30.3720 84.70 85.95 9.20
14089 30.3740 88.80 86.08 9.40
14090 30.3760 94.40 86.30 9.80
14091 30.3780 89.80 86.68 9.60
14092 30.3800 81.20 87.24 9.00
14093 30.3820 75.80 87.95 8.70
14094 30.3840 91.40 88.74 9.50
14095 30.3860 97.00 89.49 9.90
14096 30.3880 98.10 90.15 9.90
14097 30.3900 94.10 90.86 9.70
14098 30.3920 96.90 91.92 9.80
14099 30.3940 103.30 93.52 10.10
14100 30.3960 86.10 95.49 9.40
14101 30.3980 108.30 96.95 10.50
14102 30.4000 92.40 96.75 9.60
14103 30.4020 92.50 95.04 9.60
14104 30.4040 88.60 92.95 9.40
14105 30.4060 76.80 91.19 8.80
14106 30.4080 80.10 89.94 9.00
14107 30.4100 89.50 89.14 9.40
14108 30.4120 99.60 88.72 9.90
14109 30.4140 99.60 88.62 10.00
14110 30.4160 93.20 88.81 9.70
14111 30.4180 96.80 89.29 9.90
14112 30.4200 100.30 90.10 10.00
14113 30.4220 99.20 91.28 10.00
14114 30.4240 107.40 92.86 10.20
14115 30.4260 118.00 94.77 11.00
14116 30.4280 104.00 96.74 10.20
14117 30.4300 87.60 98.27 9.40
14118 30.4320 99.00 99.01 9.90
14119 30.4340 89.00 98.96 9.40
14120 30.4360 89.10 98.52 9.50
14121 30.4380 114.20 98.12 10.70
14122 30.4400 111.20 98.02 10.50
14123 30.4420 117.50 98.25 10.80
14124 30.4440 110.00 98.92 10.40
14125 30.4460 99.50 100.18 10.00
14126 30.4480 91.60 102.01 9.60
14127 30.4500 103.70 103.97 10.20
14128 30.4520 106.90 105.26 10.30
14129 30.4540 99.30 105.13 9.90
14130 30.4560 83.50 103.46 9.20
14131 30.4580 84.00 100.87 9.20
14132 30.4600 95.60 98.24 9.80
14133 30.4620 95.70 96.11 9.70
14134 30.4640 94.10 94.54 9.70
14135 30.4660 110.90 93.31 10.70
14136 30.4680 100.00 92.13 10.00
14137 30.4700 92.80 90.86 9.70
14138 30.4720 91.10 89.60 9.50
14139 30.4740 100.00 88.49 10.00
14140 30.4760 90.70 87.58 9.60
14141 30.4780 98.90 86.88 10.00
14142 30.4800 78.40 86.33 8.90
14143 30.4820 99.50 85.92 9.90
14144 30.4840 82.40 85.61 9.10
14145 30.4860 83.10 85.41 9.20
14146 30.4880 80.40 85.28 9.00
14147 30.4900 107.90 85.23 10.50
14148 30.4920 95.30 85.25 9.70
14149 30.4940 87.80 85.33 9.40
14150 30.4960 87.30 85.47 9.40
14151 30.4980 84.00 85.66 9.20
14152 30.5000 65.50 85.93 8.10
14153 30.5020 86.00 86.24 9.20
14154 30.5040 89.20 86.49 9.50
14155 30.5060 86.80 86.57 9.40
14156 30.5080 78.40 86.42 8.90
14157 30.5100 81.80 86.14 9.10
14158 30.5120 77.20 85.85 8.80
14159 30.5140 73.50 85.62 8.60
14160 30.5160 85.50 85.46 9.30
14161 30.5180 85.10 85.38 9.30
14162 30.5200 93.40 85.35 9.70
14163 30.5220 75.80 85.35 8.70
14164 30.5240 83.90 85.36 9.20
14165 30.5260 72.10 85.37 8.60
14166 30.5280 73.70 85.35 8.60
14167 30.5300 87.70 85.31 9.50
14168 30.5320 94.20 85.32 9.70
14169 30.5340 66.80 85.43 8.30
14170 30.5360 75.60 85.66 8.80
14171 30.5380 93.70 86.05 9.80
14172 30.5400 78.70 86.23 8.90
14173 30.5420 83.10 86.96 9.10
14174 30.5440 86.20 87.79 9.40
14175 30.5460 83.40 88.63 9.30
14176 30.5480 79.60 89.32 9.00
14177 30.5500 86.30 89.61 9.40
14178 30.5520 84.10 89.31 9.20
14179 30.5540 76.60 88.52 8.90
14180 30.5560 73.90 87.55 8.70
14181 30.5580 75.20 86.64 8.80
14182 30.5600 89.70 85.88 9.60
14183 30.5620 97.70 85.30 9.90
14184 30.5640 67.80 84.86 8.30
14185 30.5660 80.40 84.56 9.10
14186 30.5680 75.50 84.35 8.80
14187 30.5700 81.70 84.22 9.10
14188 30.5720 92.50 84.16 9.70
14189 30.5740 95.20 84.13 9.90
14190 30.5760 73.60 84.14 8.70
14191 30.5780 80.80 84.15 9.10
14192 30.5800 81.50 84.20 9.10
14193 30.5820 75.40 84.28 8.70
14194 30.5840 69.80 84.43 8.40
14195 30.5860 93.30 84.67 9.90
14196 30.5880 82.10 85.02 9.20
14197 30.5900 78.50 85.52 8.90
14198 30.5920 98.00 86.21 10.00
14199 30.5940 88.60 87.10 9.50
14200 30.5960 97.00 88.10 10.00
14201 30.5980 72.40 89.00 8.60
14202 30.6000 85.30 89.62 9.30
14203 30.6020 110.50 90.04 10.60
14204 30.6040 77.50 90.33 8.80
14205 30.6060 83.30 90.34 9.30
14206 30.6080 73.20 89.85 8.70
14207 30.6100 75.30 88.93 8.80
14208 30.6120 80.80 87.89 9.10
14209 30.6140 87.70 86.98 9.40
14210 30.6160 94.00 86.28 9.80
14211 30.6180 83.70 85.79 9.20
14212 30.6200 75.20 85.48 8.70
14213 30.6220 98.20 85.33 9.90
14214 30.6240 83.40 85.33 9.10
14215 30.6260 58.00 85.48 7.70
14216 30.6280 91.80 85.76 9.70
14217 30.6300 94.90 86.16 9.80
14218 30.6320 84.20 86.61 9.20
14219 30.6340 84.70 86.97 9.20
14220 30.6360 81.60 87.05 9.20
14221 30.6380 113.10 86.78 10.70
14222 30.6400 84.60 86.28 9.20
14223 30.6420 98.10 85.72 9.90
14224 30.6440 107.40 85.21 10.40
14225 30.6460 78.60 84.79 9.00
14226 30.6480 84.60 84.48 9.30
14227 30.6500 69.10 84.25 8.40
14228 30.6520 73.30 84.09 8.60
14229 30.6540 103.60 83.98 10.10
14230 30.6560 77.00 83.91 8.90
14231 30.6580 88.80 83.89 9.50
14232 30.6600 76.60 83.90 8.80
14233 30.6620 77.00 83.96 8.80
14234 30.6640 85.10 84.05 9.20
14235 30.6660 85.50 84.20 9.30
14236 30.6680 83.10 84.38 9.20
14237 30.6700 100.60 84.59 10.10
14238 30.6720 75.90 84.76 8.80
14239 30.6740 89.80 84.84 9.40
14240 30.6760 91.10 84.83 9.60
14241 30.6780 70.30 84.79 8.50
14242 30.6800 79.50 84.77 8.90
14243 30.6820 71.10 84.83 8.40
14244 30.6840 73.80 84.98 8.60
14245 30.6860 97.30 85.23 9.90
14246 30.6880 81.90 85.61 9.10
14247 30.6900 79.90 86.14 9.00
14248 30.6920 76.00 86.87 8.70
14249 30.6940 89.40 87.85 9.40
14250 30.6960 90.50 89.09 9.60
14251 30.6980 82.80 90.53 9.20
14252 30.7000 76.30 91.92 8.80
14253 30.7020 87.50 92.76 9.40
14254 30.7040 83.50 92.65 9.10
14255 30.7060 91.90 91.67 9.70
14256 30.7080 81.70 90.34 9.20
14257 30.7100 81.70 89.10 9.10
14258 30.7120 85.20 88.15 9.20
14259 30.7140 93.10 87.51 9.60
14260 30.7160 93.20 87.16 9.80
14261 30.7180 88.80 87.04 9.50
14262 30.7200 71.80 87.06 8.50
14263 30.7220 89.90 87.08 9.50
14264 30.7240 86.80 86.95 9.30
14265 30.7260 86.20 86.83 9.40
14266 30.7280 79.70 86.42 9.00
14267 30.7300 73.10 85.99 8.60
14268 30.7320 92.20 85.61 9.60
14269 30.7340 93.40 85.31 9.60
14270 30.7360 87.40 85.09 9.50
14271 30.7380 92.10 84.95 9.70
14272 30.7400 92.00 84.88 9.60
14273 30.7420 75.20 84.87 8.70
14274 30.7440 83.60 84.92 9.10
14275 30.7460 80.40 85.04 9.00
14276 30.7480 79.80 85.22 9.00
14277 30.7500 97.80 85.46 10.00
14278 30.7520 83.70 85.78 9.20
14279 30.7540 104.90 86.22 10.20
14280 30.7560 100.70 86.80 10.20
14281 30.7580 74.30 87.58 8.70
14282 30.7600 68.20 88.53 8.30
14283 30.7620 88.00 89.54 9.40
14284 30.7640 88.80 90.30 9.40
14285 30.7660 84.60 90.48 9.30
14286 30.7680 73.90 89.98 8.70
14287 30.7700 72.20 89.09 8.50
14288 30.7720 82.80 88.14 9.20
14289 30.7740 64.40 87.35 8.00
14290 30.7760 73.40 86.78 8.70
14291 30.7780 83.60 86.38 9.30
14292 30.7800 81.40 86.11 9.10
14293 30.7820 94.50 85.90 9.80
14294 30.7840 98.10 85.71 9.90
14295 30.7860 96.70 85.56 10.00
14296 30.7880 97.10 85.45 10.00
14297 30.7900 59.60 85.41 7.80
14298 30.7920 93.60 85.44 9.70
14299 30.7940 91.00 85.51 9.50
14300 30.7960 75.70 85.63 8.80
14301 30.7980 85.50 85.78 9.40
14302 30.8000 84.30 85.97 9.20
14303 30.8020 80.70 86.26 9.00
14304 30.8040 90.90 86.68 9.50
14305 30.8060 94.50 87.26 9.80
14306 30.8080 79.50 88.05 9.00
14307 30.8100 75.10 89.10 8.70
14308 30.8120 75.70 90.42 8.70
14309 30.8140 77.10 91.96 8.80
14310 30.8160 93.40 93.44 9.80
14311 30.8180 77.60 94.33 8.90
14312 30.8200 101.50 94.15 10.10
14313 30.8220 95.90 93.00 9.80
14314 30.8240 91.20 91.44 9.50
14315 30.8260 91.70 89.95 9.60
14316 30.8280 83.60 88.74 9.20
14317 30.8300 93.60 87.84 9.70
14318 30.8320 71.80 87.18 8.50
14319 30.8340 94.00 86.72 9.60
14320 30.8360 64.80 86.75 8.20
14321 30.8380 79.30 86.58 9.00
14322 30.8400 95.10 86.52 9.70
14323 30.8420 81.90 86.56 9.10
14324 30.8440 74.80 86.71 8.60
14325 30.8460 88.60 86.98 9.50
14326 30.8480 80.40 87.39 9.00
14327 30.8500 95.40 87.98 9.80
14328 30.8520 86.50 88.76 9.30
14329 30.8540 85.50 89.71 9.20
14330 30.8560 92.20 90.69 9.70
14331 30.8580 88.50 91.41 9.50
14332 30.8600 86.20 91.65 9.30
14333 30.8620 78.40 91.48 8.90
14334 30.8640 80.40 91.22 8.90
14335 30.8660 95.40 91.13 9.90
14336 30.8680 76.90 91.26 8.90
14337 30.8700 88.20 91.44 9.40
14338 30.8720 84.20 91.36 9.20
14339 30.8740 100.60 90.82 10.00
14340 30.8760 94.30 89.92 9.80
14341 30.8780 77.30 88.93 8.90
14342 30.8800 83.20 88.06 9.20
14343 30.8820 88.40 87.36 9.40
14344 30.8840 81.10 86.83 9.00
14345 30.8860 90.60 86.42 9.60
14346 30.8880 85.70 86.13 9.40
14347 30.8900 81.60 85.91 9.10
14348 30.8920 85.70 85.74 9.30
14349 30.8940 82.20 85.62 9.10
14350 30.8960 91.00 85.53 9.60
14351 30.8980 93.80 85.47 9.80
14352 30.9000 96.60 85.44 9.90
14353 30.9020 86.10 85.42 9.30
14354 30.9040 85.90 85.42 9.20
14355 30.9060 71.10 85.43 8.50
14356 30.9080 83.30 85.45 9.20
14357 30.9100 76.20 85.46 8.70
14358 30.9120 95.10 85.47 9.70
14359 30.9140 74.30 85.48 8.60
14360 30.9160 86.20 85.50 9.40
14361 30.9180 91.80 85.53 9.60
14362 30.9200 88.10 85.56 9.40
14363 30.9220 78.80 85.60 8.80
14364 30.9240 81.00 85.65 9.00
14365 30.9260 79.50 85.71 9.00
14366 30.9280 92.60 85.77 9.70
14367 30.9300 77.10 85.84 8.80
14368 30.9320 90.40 85.90 9.50
14369 30.9340 96.30 85.97 9.90
14370 30.9360 74.20 86.03 8.70
14371 30.9380 80.10 86.11 9.00
14372 30.9400 81.00 86.21 9.00
14373 30.9420 84.80 86.33 9.30
14374 30.9440 98.70 86.47 9.90
14375 30.9460 72.70 86.64 8.60
14376 30.9480 101.90 86.85 10.20
14377 30.9500 100.60 87.10 10.10
14378 30.9520 73.90 87.40 8.60
14379 30.9540 87.60 87.76 9.50
14380 30.9560 78.80 88.16 9.00
14381 30.9580 98.20 88.56 10.00
14382 30.9600 85.00 88.87 9.20
14383 30.9620 86.30 89.04 9.30
14384 30.9640 84.50 89.11 9.20
14385 30.9660 98.80 89.15 10.10
14386 30.9680 80.70 89.22 9.10
14387 30.9700 90.90 89.37 9.60
14388 30.9720 115.20 89.63 10.80
14389 30.9740 87.90 90.01 9.40
14390 30.9760 98.00 90.53 10.10
14391 30.9780 100.90 91.22 10.20
14392 30.9800 91.90 92.11 9.70
14393 30.9820 104.20 93.27 10.20
14394 30.9840 85.40 94.77 9.30
14395 30.9860 91.70 96.65 9.70
14396 30.9880 104.90 98.86 10.40
14397 30.9900 96.60 101.13 9.90
14398 30.9920 103.50 102.87 10.20
14399 30.9940 99.90 103.57 9.90
14400 30.9960 119.00 103.19 11.10
14401 30.9980 101.80 102.10 10.20
14402 31.0000 97.60 100.74 9.90
14403 31.0020 95.10 99.46 9.80
14404 31.0040 108.50 98.51 10.50
14405 31.0060 86.70 97.96 9.40
14406 31.0080 120.50 97.80 11.10
14407 31.0100 82.50 97.97 9.10
14408 31.0120 87.60 98.45 9.40
14409 31.0140 104.80 99.22 10.30
14410 31.0160 97.20 100.27 9.90
14411 31.0180 75.60 101.63 8.80
14412 31.0200 97.00 103.33 9.90
14413 31.0220 116.10 105.45 10.80
14414 31.0240 98.80 108.07 9.90
14415 31.0260 113.10 111.31 10.70
14416 31.0280 111.50 115.38 10.70
14417 31.0300 127.70 120.52 11.30
14418 31.0320 118.30 127.09 10.90
14419 31.0340 153.40 135.65 12.40
14420 31.0360 160.00 147.22 12.70
14421 31.0380 148.10 162.38 12.30
14422 31.0400 194.00 183.22 14.00
14423 31.0420 215.40 212.85 14.60
14424 31.0440 285.20 255.73 16.80
14425 31.0460 299.30 317.67 17.40
14426 31.0480 437.60 401.40 21.10
14427 31.0500 502.80 493.36 22.60
14428 31.0520 553.60 547.96 23.60
14429 31.0540 530.40 520.72 23.10
14430 31.0560 429.10 435.17 20.90
14431 31.0580 358.90 345.22 19.10
14432 31.0600 303.10 275.00 17.50
14433 31.0620 220.20 225.57 14.70
14434 31.0640 184.80 191.61 13.60
14435 31.0660 147.10 168.00 12.20
14436 31.0680 131.20 151.26 11.50
14437 31.0700 137.10 139.13 11.80
14438 31.0720 123.50 130.15 11.10
14439 31.0740 122.00 123.34 11.00
14440 31.0760 105.30 118.11 10.40
14441 31.0780 138.80 114.03 11.90
14442 31.0800 109.60 110.81 10.50
14443 31.0820 110.50 108.21 10.50
14444 31.0840 117.40 106.04 10.80
14445 31.0860 93.90 104.17 9.80
14446 31.0880 97.80 102.55 10.00
14447 31.0900 98.00 101.18 10.00
14448 31.0920 83.50 100.03 9.10
14449 31.0940 100.10 99.08 10.00
14450 31.0960 97.50 98.31 10.00
14451 31.0980 89.70 97.68 9.60
14452 31.1000 97.00 97.17 9.90
14453 31.1020 88.40 96.78 9.40
14454 31.1040 105.80 96.48 10.30
14455 31.1060 111.80 96.28 10.70
14456 31.1080 86.50 96.16 9.40
14457 31.1100 100.20 96.14 10.00
14458 31.1120 106.00 96.20 10.30
14459 31.1140 96.30 96.36 9.80
14460 31.1160 104.00 96.62 10.30
14461 31.1180 93.70 96.99 9.80
14462 31.1200 109.10 97.47 10.50
14463 31.1220 93.90 98.05 9.60
14464 31.1240 87.60 98.71 9.30
14465 31.1260 103.70 99.45 10.30
14466 31.1280 107.80 100.18 10.40
14467 31.1300 106.50 100.82 10.30
14468 31.1320 90.90 101.36 9.50
14469 31.1340 105.20 101.92 10.20
14470 31.1360 85.60 102.69 9.30
14471 31.1380 95.90 103.77 9.90
14472 31.1400 101.60 105.26 10.10
14473 31.1420 125.90 107.21 11.20
14474 31.1440 108.20 109.67 10.30
14475 31.1460 93.90 112.57 9.80
14476 31.1480 126.30 115.59 11.30
14477 31.1500 141.80 118.23 11.90
14478 31.1520 140.50 119.93 11.80
14479 31.1540 115.70 120.47 10.70
14480 31.1560 104.50 120.25 10.30
14481 31.1580 127.30 120.01 11.30
14482 31.1600 125.50 120.34 11.20
14483 31.1620 125.20 121.47 11.10
14484 31.1640 107.10 123.49 10.30
14485 31.1660 116.90 126.37 10.80
14486 31.1680 125.60 130.02 11.30
14487 31.1700 137.60 134.31 11.70
14488 31.1720 151.30 139.23 12.30
14489 31.1740 153.00 145.05 12.40
14490 31.1760 198.20 152.26 14.10
14491 31.1780 178.50 161.47 13.50
14492 31.1800 193.10 173.36 13.80
14493 31.1820 198.00 188.82 14.10
14494 31.1840 252.90 209.23 15.80
14495 31.1860 237.60 236.47 15.50
14496 31.1880 324.10 273.59 18.10
14497 31.1900 333.40 324.82 18.30
14498 31.1920 366.00 396.50 19.00
14499 31.1940 419.30 496.24 20.40
14500 31.1960 568.30 629.65 24.00
14501 31.1980 682.70 789.15 26.30
14502 31.2000 892.20 929.99 29.90
14503 31.2020 937.20 974.15 30.70
14504 31.2040 920.90 889.53 30.40
14505 31.2060 791.70 735.05 28.30
14506 31.2080 615.30 582.15 25.00
14507 31.2100 472.00 460.47 21.70
14508 31.2120 367.50 370.83 19.10
14509 31.2140 273.10 306.54 16.50
14510 31.2160 254.60 260.19 16.00
14511 31.2180 198.60 226.41 14.20
14512 31.2200 166.10 201.41 12.90
14513 31.2220 167.00 182.49 12.90
14514 31.2240 151.10 168.00 12.30
14515 31.2260 136.00 156.69 11.70
14516 31.2280 128.70 147.72 11.50
14517 31.2300 141.40 140.34 11.90
14518 31.2320 112.90 134.06 10.70
14519 31.2340 98.10 128.60 9.90
14520 31.2360 108.50 123.89 10.50
14521 31.2380 107.90 119.87 10.40
14522 31.2400 104.50 116.45 10.30
14523 31.2420 127.20 113.57 11.30
14524 31.2440 101.90 111.27 10.10
14525 31.2460 108.90 109.17 10.50
14526 31.2480 103.00 107.38 10.20
14527 31.2500 109.70 106.14 10.40
14528 31.2520 104.40 104.83 10.30
14529 31.2540 108.60 103.72 10.50
14530 31.2560 78.70 102.80 9.00
14531 31.2580 94.60 102.04 9.80
14532 31.2600 89.00 101.48 9.50
14533 31.2620 94.20 101.10 9.70
14534 31.2640 95.00 100.92 9.80
14535 31.2660 105.30 100.94 10.40
14536 31.2680 111.30 101.05 10.70
14537 31.2700 117.00 101.06 10.80
14538 31.2720 97.80 100.76 10.00
14539 31.2740 98.20 100.13 9.90
14540 31.2760 87.40 99.39 9.40
14541 31.2780 101.80 98.76 10.20
14542 31.2800 105.00 98.39 10.30
14543 31.2820 104.80 98.33 10.30
14544 31.2840 82.00 98.54 9.10
14545 31.2860 97.00 98.80 10.00
14546 31.2880 88.50 98.72 9.50
14547 31.2900 101.30 98.14 10.10
14548 31.2920 99.40 97.31 10.00
14549 31.2940 94.70 96.56 9.80
14550 31.2960 98.80 96.01 10.00
14551 31.2980 99.80 95.67 10.10
14552 31.3000 104.70 95.53 10.20
14553 31.3020 93.50 95.58 9.70
14554 31.3040 119.00 95.82 10.90
14555 31.3060 90.10 96.19 9.60
14556 31.3080 97.80 96.59 10.00
14557 31.3100 100.90 96.82 10.00
14558 31.3120 96.70 96.73 9.80
14559 31.3140 84.20 96.32 9.20
14560 31.3160 91.20 95.78 9.70
14561 31.3180 82.10 95.29 9.10
14562 31.3200 83.30 94.91 9.20
14563 31.3220 95.80 94.65 9.80
14564 31.3240 94.40 94.52 9.80
14565 31.3260 97.10 94.49 9.90
14566 31.3280 103.40 94.55 10.30
14567 31.3300 83.60 94.70 9.20
14568 31.3320 88.60 94.94 9.50
14569 31.3340 102.50 95.26 10.20
14570 31.3360 100.20 95.68 10.10
14571 31.3380 78.80 96.22 9.00
14572 31.3400 105.70 96.90 10.30
14573 31.3420 99.10 97.78 10.00
14574 31.3440 114.40 98.88 10.70
14575 31.3460 93.60 100.26 9.80
14576 31.3480 104.10 101.93 10.30
14577 31.3500 90.70 103.82 9.60
14578 31.3520 99.70 105.71 10.00
14579 31.3540 98.30 107.37 10.00
14580 31.3560 99.50 108.65 10.10
14581 31.3580 113.30 109.55 10.70
14582 31.3600 123.80 110.18 11.10
14583 31.3620 124.10 110.81 11.10
14584 31.3640 94.20 111.56 9.80
14585 31.3660 116.40 111.98 10.90
14586 31.3680 111.70 111.40 10.70
14587 31.3700 118.60 110.15 10.90
14588 31.3720 117.70 109.07 10.90
14589 31.3740 122.10 108.57 11.10
14590 31.3760 129.10 108.68 11.50
14591 31.3780 124.90 109.29 11.30
14592 31.3800 127.20 110.35 11.30
14593 31.3820 145.60 111.65 12.10
14594 31.3840 130.70 113.52 11.50
14595 31.3860 144.20 115.82 12.20
14596 31.3880 142.40 118.59 12.10
14597 31.3900 127.70 121.90 11.40
14598 31.3920 152.90 125.86 12.40
14599 31.3940 155.20 130.66 12.50
14600 31.3960 176.60 136.53 13.40
14601 31.3980 160.00 143.73 12.80
14602 31.4000 189.70 152.59 13.80
14603 31.4020 166.70 163.34 12.90
14604 31.4040 179.30 176.05 13.50
14605 31.4060 204.70 190.58 14.40
14606 31.4080 221.40 207.38 15.00
14607 31.4100 288.30 228.08 17.10
14608 31.4120 257.00 255.52 16.10
14609 31.4140 300.90 293.49 17.40
14610 31.4160 326.30 346.46 18.30
14611 31.4180 373.10 419.64 19.50
14612 31.4200 444.60 518.06 21.20
14613 31.4220 568.20 639.95 23.80
14614 31.4240 656.50 764.98 25.90
14615 31.4260 818.70 843.47 28.90
14616 31.4280 885.50 828.27 30.20
14617 31.4300 798.50 729.68 28.40
14618 31.4320 694.30 602.46 26.40
14619 31.4340 536.80 487.03 23.30
14620 31.4360 377.90 396.25 19.60
14621 31.4380 328.70 328.49 18.30
14622 31.4400 222.50 278.36 15.00
14623 31.4420 219.00 241.20 14.90
14624 31.4440 184.10 213.29 13.60
14625 31.4460 171.00 192.03 13.20
14626 31.4480 129.00 175.54 11.40
14627 31.4500 125.80 162.61 11.30
14628 31.4520 123.80 152.26 11.10
14629 31.4540 136.60 143.88 11.80
14630 31.4560 132.80 137.00 11.60
14631 31.4580 112.90 131.31 10.70
14632 31.4600 120.70 126.59 11.00
14633 31.4620 111.80 122.63 10.60
14634 31.4640 110.30 119.30 10.60
14635 31.4660 119.80 116.46 11.10
14636 31.4680 112.70 114.05 10.80
14637 31.4700 105.10 111.99 10.30
14638 31.4720 86.60 110.21 9.30
14639 31.4740 108.00 108.67 10.50
14640 31.4760 95.40 107.34 9.90
14641 31.4780 90.20 106.19 9.60
14642 31.4800 106.10 105.19 10.30
14643 31.4820 82.20 104.34 9.10
14644 31.4840 101.10 103.61 10.10
14645 31.4860 106.80 103.00 10.40
14646 31.4880 102.30 102.51 10.20
14647 31.4900 103.80 102.11 10.30
14648 31.4920 101.40 101.81 10.10
14649 31.4940 99.20 101.58 10.00
14650 31.4960 111.70 101.39 10.60
14651 31.4980 94.40 101.23 9.90
14652 31.5000 92.00 101.08 9.60
14653 31.5020 98.60 100.98 10.00
14654 31.5040 97.10 100.97 9.90
14655 31.5060 98.00 101.02 10.00
14656 31.5080 100.20 101.16 10.20
14657 31.5100 96.90 101.38 9.90
14658 31.5120 116.00 101.68 10.70
14659 31.5140 81.90 102.09 9.10
14660 31.5160 109.00 102.59 10.50
14661 31.5180 125.30 103.22 11.30
14662 31.5200 80.10 103.98 9.00
14663 31.5220 106.40 104.90 10.30
14664 31.5240 84.60 106.01 9.20
14665 31.5260 114.30 107.36 10.80
14666 31.5280 111.30 108.97 10.70
14667 31.5300 101.70 110.83 10.10
14668 31.5320 108.50 112.82 10.40
14669 31.5340 112.70 114.72 10.70
14670 31.5360 99.40 116.33 10.00
14671 31.5380 121.00 117.70 11.10
14672 31.5400 97.30 119.13 9.90
14673 31.5420 104.60 120.92 10.20
14674 31.5440 99.30 123.23 10.00
14675 31.5460 125.50 126.18 11.30
14676 31.5480 135.50 129.84 11.80
14677 31.5500 122.40 134.32 11.10
14678 31.5520 127.50 139.79 11.30
14679 31.5540 130.00 146.46 11.40
14680 31.5560 143.10 154.62 12.00
14681 31.5580 144.40 164.66 12.10
14682 31.5600 164.10 177.18 12.80
14683 31.5620 180.30 192.99 13.40
14684 31.5640 190.80 213.30 13.90
14685 31.5660 227.40 239.98 15.20
14686 31.5680 262.40 275.67 16.40
14687 31.5700 318.30 323.97 17.90
14688 31.5720 400.10 391.69 20.00
14689 31.5740 515.30 487.54 22.80
14690 31.5760 647.00 623.94 25.70
14691 31.5780 883.20 814.02 30.20
14692 31.5800 1203.60 1051.09 35.00
14693 31.5820 1391.90 1265.67 37.60
14694 31.5840 1371.60 1323.77 37.40
14695 31.5860 1003.80 1176.27 32.20
14696 31.5880 894.90 936.29 30.30
14697 31.5900 660.20 717.28 26.10
14698 31.5920 574.60 553.55 24.10
14699 31.5940 455.60 438.26 21.50
14700 31.5960 416.10 358.06 20.60
14701 31.5980 355.10 301.20 19.00
14702 31.6000 340.10 259.85 18.60
14703 31.6020 244.70 228.95 15.60
14704 31.6040 235.50 205.30 15.40
14705 31.6060 223.30 186.95 15.10
14706 31.6080 210.30 172.48 14.70
14707 31.6100 208.30 160.76 14.50
14708 31.6120 171.80 151.09 13.10
14709 31.6140 158.80 143.04 12.70
14710 31.6160 127.60 136.33 11.40
14711 31.6180 154.70 130.71 12.60
14712 31.6200 152.90 126.18 12.40
14713 31.6220 118.40 122.21 10.90
14714 31.6240 111.80 118.84 10.60
14715 31.6260 129.20 115.97 11.50
14716 31.6280 122.80 113.53 11.20
14717 31.6300 116.10 111.45 10.80
14718 31.6320 106.90 109.68 10.30
14719 31.6340 98.50 108.21 10.00
14720 31.6360 105.70 107.02 10.30
14721 31.6380 117.90 106.09 11.00
14722 31.6400 107.50 105.45 10.40
14723 31.6420 107.70 105.11 10.40
14724 31.6440 102.90 105.07 10.20
14725 31.6460 105.30 105.29 10.30
14726 31.6480 96.50 105.62 9.90
14727 31.6500 100.40 105.80 10.10
14728 31.6520 88.50 105.66 9.50
14729 31.6540 101.80 105.26 10.10
14730 31.6560 81.20 104.87 9.10
14731 31.6580 75.50 104.76 8.80
14732 31.6600 87.70 105.02 9.40
14733 31.6620 115.60 105.51 10.70
14734 31.6640 108.10 105.92 10.40
14735 31.6660 105.60 105.71 10.30
14736 31.6680 91.10 104.50 9.70
14737 31.6700 123.90 102.51 11.20
14738 31.6720 99.50 100.33 10.00
14739 31.6740 89.90 98.37 9.60
14740 31.6760 99.80 96.75 10.10
14741 31.6780 90.80 95.47 9.60
14742 31.6800 108.20 94.45 10.40
14743 31.6820 82.80 93.64 9.00
14744 31.6840 92.80 92.98 9.70
14745 31.6860 98.20 92.43 10.00
14746 31.6880 111.10 91.97 10.60
14747 31.6900 86.80 91.58 9.40
14748 31.6920 90.90 91.25 9.50
14749 31.6940 85.40 90.96 9.30
14750 31.6960 87.10 90.70 9.40
14751 31.6980 95.40 90.48 9.90
14752 31.7000 96.50 90.28 9.90
14753 31.7020 91.60 90.11 9.60
14754 31.7040 99.40 89.96 10.00
14755 31.7060 90.80 89.84 9.60
14756 31.7080 88.60 89.73 9.50
14757 31.7100 104.50 89.65 10.30
14758 31.7120 94.00 89.59 9.70
14759 31.7140 83.10 89.55 9.10
14760 31.7160 104.00 89.54 10.30
14761 31.7180 90.70 89.57 9.60
14762 31.7200 96.50 89.64 9.90
14763 31.7220 89.80 89.77 9.50
14764 31.7240 84.60 89.96 9.20
14765 31.7260 90.50 90.25 9.60
14766 31.7280 89.50 90.66 9.60
14767 31.7300 90.40 91.18 9.60
14768 31.7320 79.90 91.77 9.00
14769 31.7340 113.40 92.26 10.70
14770 31.7360 103.40 92.46 10.20
14771 31.7380 112.60 92.36 10.70
14772 31.7400 99.80 92.17 10.10
14773 31.7420 97.60 92.08 9.80
14774 31.7440 104.30 92.21 10.30
14775 31.7460 103.50 92.61 10.30
14776 31.7480 88.20 93.28 9.50
14777 31.7500 93.40 94.19 9.80
14778 31.7520 86.80 95.28 9.40
14779 31.7540 94.00 96.40 9.80
14780 31.7560 108.60 97.36 10.50
14781 31.7580 98.20 97.97 10.00
14782 31.7600 99.60 98.23 10.10
14783 31.7620 100.90 98.30 10.00
14784 31.7640 86.50 98.43 9.30
14785 31.7660 105.60 98.61 10.40
14786 31.7680 91.00 98.60 9.60
14787 31.7700 110.70 98.11 10.60
14788 31.7720 87.50 97.21 9.40
14789 31.7740 87.30 96.20 9.40
14790 31.7760 99.70 95.42 10.10
14791 31.7780 91.40 94.96 9.60
14792 31.7800 86.20 94.77 9.40
14793 31.7820 79.30 94.67 8.90
14794 31.7840 94.30 94.44 9.70
14795 31.7860 93.00 94.03 9.70
14796 31.7880 86.40 93.43 9.40
14797 31.7900 103.60 92.67 10.30
14798 31.7920 74.80 91.85 8.70
14799 31.7940 87.80 91.09 9.40
14800 31.7960 84.70 90.46 9.30
14801 31.7980 94.90 90.01 9.80
14802 31.8000 82.60 89.67 9.20
14803 31.8020 86.30 89.45 9.30
14804 31.8040 96.00 89.33 9.80
14805 31.8060 100.10 89.31 10.10
14806 31.8080 81.90 89.38 9.10
14807 31.8100 80.80 89.54 9.10
14808 31.8120 86.90 89.80 9.30
14809 31.8140 74.50 90.12 8.60
14810 31.8160 80.10 90.48 9.00
14811 31.8180 105.80 90.87 10.30
14812 31.8200 93.30 91.00 9.70
14813 31.8220 94.40 91.35 9.70
14814 31.8240 96.20 91.55 9.80
14815 31.8260 73.90 91.58 8.70
14816 31.8280 74.20 91.56 8.70
14817 31.8300 98.30 91.63 10.00
14818 31.8320 98.70 91.86 10.00
14819 31.8340 83.90 92.18 9.20
14820 31.8360 101.50 92.42 10.20
14821 31.8380 87.50 92.42 9.40
14822 31.8400 92.30 92.16 9.70
14823 31.8420 80.40 91.73 8.90
14824 31.8440 87.70 91.26 9.40
14825 31.8460 81.60 90.86 9.10
14826 31.8480 82.20 90.60 9.10
14827 31.8500 90.40 90.47 9.60
14828 31.8520 81.50 90.50 9.10
14829 31.8540 89.80 90.66 9.50
14830 31.8560 83.90 90.96 9.20
14831 31.8580 82.00 91.42 9.20
14832 31.8600 99.70 92.04 10.00
14833 31.8620 94.30 92.84 9.70
14834 31.8640 97.80 93.84 9.90
14835 31.8660 103.60 95.08 10.20
14836 31.8680 107.20 96.63 10.40
14837 31.8700 92.10 98.50 9.70
14838 31.8720 106.90 100.57 10.30
14839 31.8740 114.40 102.39 10.70
14840 31.8760 97.90 103.37 9.90
14841 31.8780 91.20 103.21 9.60
14842 31.8800 101.40 102.22 10.10
14843 31.8820 98.70 100.93 9.90
14844 31.8840 93.00 99.71 9.70
14845 31.8860 97.80 98.64 10.00
14846 31.8880 99.00 97.68 10.00
14847 31.8900 85.30 96.89 9.30
14848 31.8920 95.70 96.35 9.80
14849 31.8940 93.00 96.12 9.60
14850 31.8960 99.90 96.19 10.10
14851 31.8980 88.30 96.53 9.50
14852 31.9000 118.60 97.15 10.90
14853 31.9020 101.50 98.05 10.10
14854 31.9040 99.40 99.27 10.00
14855 31.9060 95.40 100.86 9.80
14856 31.9080 102.10 102.85 10.10
14857 31.9100 108.80 105.28 10.50
14858 31.9120 100.70 108.16 10.00
14859 31.9140 107.70 111.32 10.40
14860 31.9160 120.60 114.34 11.10
14861 31.9180 112.60 116.70 10.70
14862 31.9200 92.80 118.85 9.70
14863 31.9220 134.10 121.24 11.60
14864 31.9240 110.20 124.43 10.50
14865 31.9260 115.60 128.17 10.80
14866 31.9280 118.00 132.69 10.90
14867 31.9300 128.70 137.12 11.40
14868 31.9320 134.50 141.19 11.60
14869 31.9340 142.10 145.18 11.90
14870 31.9360 163.20 149.92 12.80
14871 31.9380 143.70 156.47 12.10
14872 31.9400 161.20 165.74 12.70
14873 31.9420 158.00 178.82 13.00
14874 31.9440 213.90 197.77 15.20
14875 31.9460 217.60 225.79 15.90
14876 31.9480 282.70 267.38 18.00
14877 31.9500 320.30 327.89 19.00
14878 31.9520 432.60 411.00 22.00
14879 31.9540 591.10 506.78 25.90
14880 31.9560 566.60 575.41 25.50
14881 31.9580 580.20 565.91 25.90
14882 31.9600 415.00 485.93 21.60
14883 31.9620 383.20 389.06 20.70
14884 31.9640 312.60 308.91 18.80
14885 31.9660 243.80 250.66 16.80
14886 31.9680 217.50 209.98 15.70
14887 31.9700 190.20 181.59 14.70
14888 31.9720 177.80 161.37 14.10
14889 31.9740 167.40 146.67 13.70
14890 31.9760 119.40 135.73 11.70
14891 31.9780 141.50 127.37 12.80
14892 31.9800 123.10 120.87 11.80
14893 31.9820 128.60 115.74 12.00
14894 31.9840 103.90 111.89 10.80
14895 31.9860 115.90 108.52 11.60
14896 31.9880 97.90 105.75 10.60
14897 31.9900 96.50 103.44 10.40
14898 31.9920 111.70 101.50 11.20
14899 31.9940 78.40 99.86 9.50
14900 31.9960 112.40 98.46 11.40
14901 31.9980 89.70 97.25 10.10
14902 32.0000 104.20 96.22 10.90
14903 32.0020 108.90 95.33 11.00
14904 32.0040 117.10 94.56 11.50
14905 32.0060 102.30 93.89 10.90
14906 32.0080 108.60 93.31 11.20
14907 32.0100 108.00 92.82 11.10
14908 32.0120 93.60 92.40 10.30
14909 32.0140 117.10 92.06 11.50
14910 32.0160 115.30 91.78 11.50
14911 32.0180 90.70 91.57 10.20
14912 32.0200 94.60 91.44 10.30
14913 32.0220 97.70 91.39 10.50
14914 32.0240 98.00 91.43 10.50
14915 32.0260 94.50 91.57 10.50
14916 32.0280 84.80 91.85 9.90
14917 32.0300 102.20 92.30 10.80
14918 32.0320 122.80 92.98 11.70
14919 32.0340 94.30 93.94 10.30
14920 32.0360 87.10 95.27 10.10
14921 32.0380 93.50 97.01 10.40
14922 32.0400 93.70 99.06 10.30
14923 32.0420 125.40 101.08 11.80
14924 32.0440 106.50 102.40 11.10
14925 32.0460 109.50 102.50 11.30
14926 32.0480 84.10 101.49 9.80
14927 32.0500 99.30 100.03 10.60
14928 32.0520 97.60 98.69 10.40
14929 32.0540 94.10 97.61 10.30
14930 32.0560 92.90 96.59 10.40
14931 32.0580 93.80 95.39 10.40
14932 32.0600 98.50 94.02 10.50
14933 32.0620 121.50 92.67 11.70
14934 32.0640 97.00 91.49 10.50
14935 32.0660 82.10 90.54 9.80
14936 32.0680 113.00 89.78 11.40
14937 32.0700 80.30 89.20 9.60
14938 32.0720 103.10 88.74 10.80
14939 32.0740 106.60 88.38 11.00
14940 32.0760 78.60 88.10 9.50
14941 32.0780 111.80 87.87 11.30
14942 32.0800 95.80 87.69 10.50
14943 32.0820 86.40 87.54 9.80
14944 32.0840 96.00 87.43 10.40
14945 32.0860 103.50 87.34 11.00
14946 32.0880 81.90 87.28 9.70
14947 32.0900 78.80 87.23 9.50
14948 32.0920 80.60 87.21 9.50
14949 32.0940 94.10 87.20 10.30
14950 32.0960 83.80 87.21 9.80
14951 32.0980 95.90 87.24 10.50
14952 32.1000 99.50 87.29 10.60
14953 32.1020 97.40 87.37 10.50
14954 32.1040 80.70 87.47 9.50
14955 32.1060 84.40 87.60 9.80
14956 32.1080 94.20 87.77 10.40
14957 32.1100 85.90 87.98 9.90
14958 32.1120 69.70 88.26 8.80
14959 32.1140 79.50 88.61 9.50
14960 32.1160 85.30 89.06 9.90
14961 32.1180 86.60 89.63 9.90
14962 32.1200 101.20 90.36 10.70
14963 32.1220 102.10 91.26 10.70
14964 32.1240 97.80 92.31 10.40
14965 32.1260 78.50 93.38 9.50
14966 32.1280 106.10 94.27 11.00
14967 32.1300 69.10 94.69 8.80
14968 32.1320 96.90 94.57 10.40
14969 32.1340 87.90 94.13 10.00
14970 32.1360 106.40 93.69 11.00
14971 32.1380 99.20 93.43 10.60
14972 32.1400 100.30 93.46 10.60
14973 32.1420 109.00 93.78 11.00
14974 32.1440 108.80 94.43 11.00
14975 32.1460 108.40 95.43 11.10
14976 32.1480 113.40 96.82 11.40
14977 32.1500 97.50 98.61 10.50
14978 32.1520 89.60 100.82 10.00
14979 32.1540 116.00 103.40 11.40
14980 32.1560 92.90 106.43 10.30
14981 32.1580 112.10 110.22 11.30
14982 32.1600 114.40 115.28 11.30
14983 32.1620 107.90 122.15 10.90
14984 32.1640 102.80 131.12 10.80
14985 32.1660 109.60 141.68 11.20
14986 32.1680 153.10 151.50 13.20
14987 32.1700 156.70 156.56 13.30
14988 32.1720 156.60 153.96 13.20
14989 32.1740 180.20 145.22 14.10
14990 32.1760 132.60 134.43 12.40
14991 32.1780 125.20 124.60 11.90
14992 32.1800 112.30 116.74 11.30
14993 32.1820 111.30 110.73 11.10
14994 32.1840 113.50 106.14 11.40
14995 32.1860 95.20 102.57 10.50
14996 32.1880 100.10 99.77 10.70
14997 32.1900 110.70 97.58 11.20
14998 32.1920 103.70 95.88 10.70
14999 32.1940 95.70 94.57 10.40
15000 32.1960 88.20 93.56 10.00
15001 32.1980 98.80 92.78 10.70
15002 32.2000 102.50 92.19 10.70
15003 32.2020 98.80 91.75 10.50
15004 32.2040 89.40 91.46 10.00
15005 32.2060 105.70 91.29 11.10
15006 32.2080 93.10 91.25 10.30
15007 32.2100 96.90 91.34 10.50
15008 32.2120 131.00 91.58 12.10
15009 32.2140 86.70 91.98 9.90
15010 32.2160 85.00 92.53 9.90
15011 32.2180 100.50 93.17 10.70
15012 32.2200 104.80 93.76 10.90
15013 32.2220 92.20 94.09 10.10
15014 32.2240 84.30 94.05 9.70
15015 32.2260 87.70 93.78 10.10
15016 32.2280 100.80 93.48 10.80
15017 32.2300 102.40 93.33 10.70
15018 32.2320 93.90 93.39 10.30
15019 32.2340 74.50 93.68 9.20
15020 32.2360 97.80 94.16 10.60
15021 32.2380 96.20 94.78 10.60
15022 32.2400 102.00 95.42 10.70
15023 32.2420 111.20 95.95 11.20
15024 32.2440 88.70 96.35 10.00
15025 32.2460 115.70 96.79 11.60
15026 32.2480 101.90 97.42 10.80
15027 32.2500 108.60 98.29 11.10
15028 32.2520 92.20 99.33 10.20
15029 32.2540 96.60 100.34 10.50
15030 32.2560 99.80 101.14 10.70
15031 32.2580 89.40 101.63 10.10
15032 32.2600 103.20 101.84 10.80
15033 32.2620 112.40 101.92 11.30
15034 32.2640 94.30 102.11 10.30
15035 32.2660 122.10 102.51 11.90
15036 32.2680 110.60 103.12 11.30
15037 32.2700 131.00 103.94 12.10
15038 32.2720 111.30 105.07 11.20
15039 32.2740 97.30 106.64 10.40
15040 32.2760 101.30 108.74 10.90
15041 32.2780 104.50 111.24 11.00
15042 32.2800 112.90 113.80 11.30
15043 32.2820 112.30 115.92 11.20
15044 32.2840 122.70 117.43 11.80
15045 32.2860 107.70 118.53 11.20
15046 32.2880 111.90 119.71 11.30
15047 32.2900 121.10 121.34 11.70
15048 32.2920 119.20 123.75 11.60
15049 32.2940 117.70 127.16 11.50
15050 32.2960 135.50 131.59 12.50
15051 32.2980 133.90 137.53 12.50
15052 32.3000 184.50 144.90 14.40
15053 32.3020 177.90 154.01 14.10
15054 32.3040 158.60 165.62 13.40
15055 32.3060 206.40 180.84 15.40
15056 32.3080 223.10 201.41 15.90
15057 32.3100 248.70 229.74 16.80
15058 32.3120 301.80 269.29 18.40
15059 32.3140 314.20 325.48 18.80
15060 32.3160 406.70 405.47 21.70
15061 32.3180 558.40 517.55 25.20
15062 32.3200 637.10 661.28 26.90
15063 32.3220 827.10 803.88 30.50
15064 32.3240 905.00 867.35 32.00
15065 32.3260 827.30 800.61 30.90
15066 32.3280 650.50 657.22 27.40
15067 32.3300 553.70 514.60 25.00
15068 32.3320 391.60 403.63 20.90
15069 32.3340 368.00 324.76 20.40
15070 32.3360 251.00 269.06 17.00
15071 32.3380 262.60 228.91 17.30
15072 32.3400 195.10 199.70 14.80
15073 32.3420 191.70 178.08 14.60
15074 32.3440 164.10 161.83 13.50
15075 32.3460 174.80 149.43 14.10
15076 32.3480 138.60 139.86 12.60
15077 32.3500 112.20 132.38 11.30
15078 32.3520 125.70 126.54 11.80
15079 32.3540 116.00 122.04 11.40
15080 32.3560 122.50 118.68 11.80
15081 32.3580 116.20 116.30 11.60
15082 32.3600 116.20 114.52 11.40
15083 32.3620 114.80 112.64 11.30
15084 32.3640 100.70 110.04 10.60
15085 32.3660 122.40 106.99 11.80
15086 32.3680 96.40 104.11 10.50
15087 32.3700 103.90 101.70 10.80
15088 32.3720 100.00 99.73 10.60
15089 32.3740 134.10 98.12 12.30
15090 32.3760 93.90 96.78 10.40
15091 32.3780 85.30 95.65 9.80
15092 32.3800 93.30 94.68 10.30
15093 32.3820 90.60 93.83 10.10
15094 32.3840 94.20 93.09 10.20
15095 32.3860 73.30 92.44 9.20
15096 32.3880 98.80 91.87 10.60
15097 32.3900 95.30 91.36 10.30
15098 32.3920 83.60 90.90 9.70
15099 32.3940 113.10 90.50 11.20
15100 32.3960 89.10 90.14 10.10
15101 32.3980 105.40 89.83 11.00
15102 32.4000 119.50 89.56 11.60
15103 32.4020 83.70 89.33 9.70
15104 32.4040 103.30 89.14 10.70
15105 32.4060 92.30 89.00 10.30
15106 32.4080 95.00 88.89 10.40
15107 32.4100 93.60 88.84 10.20
15108 32.4120 95.40 88.85 10.30
15109 32.4140 96.10 88.94 10.30
15110 32.4160 94.10 89.37 10.40
15111 32.4180 95.60 89.66 10.50
15112 32.4200 99.00 90.11 10.50
15113 32.4220 100.50 90.75 10.60
15114 32.4240 103.50 91.63 10.80
15115 32.4260 117.60 92.81 11.60
15116 32.4280 100.60 94.23 10.70
15117 32.4300 99.70 95.68 10.50
15118 32.4320 95.20 96.71 10.40
15119 32.4340 82.80 96.84 9.60
15120 32.4360 100.30 96.02 10.80
15121 32.4380 109.00 94.71 11.10
15122 32.4400 84.70 93.43 9.70
15123 32.4420 87.90 92.44 9.90
15124 32.4440 102.40 91.84 10.70
15125 32.4460 101.80 91.62 10.80
15126 32.4480 96.00 91.77 10.50
15127 32.4500 85.40 92.26 9.80
15128 32.4520 99.10 93.00 10.50
15129 32.4540 80.90 93.77 9.50
15130 32.4560 95.60 94.23 10.40
15131 32.4580 108.20 94.15 11.10
15132 32.4600 92.60 93.66 10.20
15133 32.4620 84.20 93.08 9.70
15134 32.4640 84.40 92.69 9.70
15135 32.4660 90.60 92.61 10.20
15136 32.4680 77.60 92.82 9.40
15137 32.4700 89.80 93.27 10.00
15138 32.4720 92.70 93.94 10.20
15139 32.4740 104.80 94.82 10.80
15140 32.4760 80.10 95.79 9.60
15141 32.4780 89.00 96.51 10.00
15142 32.4800 102.50 96.56 10.70
15143 32.4820 81.40 95.80 9.60
15144 32.4840 89.10 94.55 10.00
15145 32.4860 109.00 93.21 11.10
15146 32.4880 92.90 92.07 10.30
15147 32.4900 106.80 91.23 10.90
15148 32.4920 79.60 90.62 9.50
15149 32.4940 76.90 90.07 9.30
15150 32.4960 97.90 89.43 10.70
15151 32.4980 99.80 88.68 10.60
15152 32.5000 86.10 87.94 9.80
15153 32.5020 86.80 87.28 9.80
15154 32.5040 97.00 86.74 10.50
15155 32.5060 106.00 86.32 11.00
15156 32.5080 83.40 85.99 9.70
15157 32.5100 85.00 85.72 9.80
15158 32.5120 75.60 85.49 9.20
15159 32.5140 94.00 85.28 10.30
15160 32.5160 88.90 85.10 10.20
15161 32.5180 91.90 84.96 10.30
15162 32.5200 84.80 84.85 9.70
15163 32.5220 83.40 84.77 9.70
15164 32.5240 86.00 84.72 9.90
15165 32.5260 92.20 84.70 10.30
15166 32.5280 93.70 84.70 10.40
15167 32.5300 81.20 84.73 9.60
15168 32.5320 74.40 84.79 9.20
15169 32.5340 99.10 84.90 10.60
15170 32.5360 93.30 85.06 10.40
15171 32.5380 91.00 85.29 10.20
15172 32.5400 75.40 85.61 9.30
15173 32.5420 77.60 86.06 9.30
15174 32.5440 91.10 86.68 10.20
15175 32.5460 79.80 87.51 9.60
15176 32.5480 97.10 88.51 10.60
15177 32.5500 91.40 89.44 10.20
15178 32.5520 79.70 89.98 9.50
15179 32.5540 85.20 89.98 9.90
15180 32.5560 92.70 89.55 10.40
15181 32.5580 79.10 88.82 9.60
15182 32.5600 84.60 87.94 9.80
15183 32.5620 91.00 87.10 10.10
15184 32.5640 93.40 86.38 10.30
15185 32.5660 93.20 85.82 10.50
15186 32.5680 97.90 85.39 10.60
15187 32.5700 80.10 85.09 9.60
15188 32.5720 90.10 84.86 10.10
15189 32.5740 71.00 84.69 9.10
15190 32.5760 78.20 84.57 9.60
15191 32.5780 87.90 84.49 10.10
15192 32.5800 87.60 84.44 10.10
15193 32.5820 103.00 84.41 10.80
15194 32.5840 101.90 84.41 10.80
15195 32.5860 83.50 84.43 9.90
15196 32.5880 99.70 84.47 10.80
15197 32.5900 77.20 84.54 9.40
15198 32.5920 73.80 84.64 9.20
15199 32.5940 102.90 84.76 10.80
15200 32.5960 97.30 84.91 10.60
15201 32.5980 97.60 85.13 10.60
15202 32.6000 81.80 85.40 9.70
15203 32.6020 81.60 85.73 9.60
15204 32.6040 79.40 86.10 9.50
15205 32.6060 97.40 86.47 10.70
15206 32.6080 74.00 86.82 9.30
15207 32.6100 97.90 87.17 10.60
15208 32.6120 83.50 87.59 9.70
15209 32.6140 95.10 88.15 10.40
15210 32.6160 103.00 88.91 10.90
15211 32.6180 81.80 89.92 9.70
15212 32.6200 95.10 91.19 10.40
15213 32.6220 81.00 92.69 9.60
15214 32.6240 106.60 94.26 11.00
15215 32.6260 91.20 95.58 10.30
15216 32.6280 103.20 96.25 10.90
15217 32.6300 91.60 96.22 10.20
15218 32.6320 95.80 95.72 10.40
15219 32.6340 94.80 95.16 10.40
15220 32.6360 108.00 94.30 11.20
15221 32.6380 77.00 93.58 9.40
15222 32.6400 103.70 93.08 10.80
15223 32.6420 109.60 92.67 11.10
15224 32.6440 101.20 92.21 10.70
15225 32.6460 87.20 91.71 10.00
15226 32.6480 96.30 91.31 10.50
15227 32.6500 72.60 91.15 9.10
15228 32.6520 113.30 91.28 11.40
15229 32.6540 79.00 91.64 9.50
15230 32.6560 107.40 92.06 11.10
15231 32.6580 105.90 92.28 11.00
15232 32.6600 94.90 92.13 10.40
15233 32.6620 92.00 91.68 10.20
15234 32.6640 78.10 91.17 9.30
15235 32.6660 91.20 90.79 10.20
15236 32.6680 90.30 90.32 10.20
15237 32.6700 82.70 90.34 9.70
15238 32.6720 89.00 90.54 10.00
15239 32.6740 102.00 90.95 10.70
15240 32.6760 92.20 91.61 10.30
15241 32.6780 94.60 92.57 10.40
15242 32.6800 95.70 93.84 10.40
15243 32.6820 86.70 95.32 9.90
15244 32.6840 86.90 96.77 9.80
15245 32.6860 101.60 97.74 10.80
15246 32.6880 97.10 97.94 10.60
15247 32.6900 96.40 97.44 10.50
15248 32.6920 100.50 96.62 10.60
15249 32.6940 98.90 95.83 10.60
15250 32.6960 102.40 95.25 10.90
15251 32.6980 84.30 94.88 9.80
15252 32.7000 101.70 94.68 10.80
15253 32.7020 114.30 94.62 11.30
15254 32.7040 78.00 94.73 9.40
15255 32.7060 91.50 95.02 10.30
15256 32.7080 94.70 95.53 10.50
15257 32.7100 104.10 96.25 10.90
15258 32.7120 89.60 97.22 10.00
15259 32.7140 107.90 98.45 11.00
15260 32.7160 100.60 99.97 10.80
15261 32.7180 72.20 101.82 9.10
15262 32.7200 110.00 104.01 11.20
15263 32.7220 102.20 106.53 10.70
15264 32.7240 120.10 109.34 11.60
15265 32.7260 102.90 112.39 10.80
15266 32.7280 115.00 115.62 11.50
15267 32.7300 132.00 118.90 12.20
15268 32.7320 139.30 122.30 12.50
15269 32.7340 123.00 126.22 11.80
15270 32.7360 148.80 131.18 13.10
15271 32.7380 167.90 137.73 13.90
15272 32.7400 145.90 146.43 12.80
15273 32.7420 167.10 158.04 13.70
15274 32.7440 192.70 173.53 14.70
15275 32.7460 208.50 194.60 15.50
15276 32.7480 239.60 223.71 16.60
15277 32.7500 278.70 264.60 17.80
15278 32.7520 329.60 322.92 19.20
15279 32.7540 394.60 405.43 21.00
15280 32.7560 523.00 517.23 24.60
15281 32.7580 585.90 647.63 26.00
15282 32.7600 720.70 748.38 28.60
15283 32.7620 808.20 751.77 30.10
15284 32.7640 631.80 655.13 26.70
15285 32.7660 565.10 525.68 25.50
15286 32.7680 408.50 413.11 21.70
15287 32.7700 329.70 329.09 19.30
15288 32.7720 252.80 269.83 16.90
15289 32.7740 215.90 228.21 15.60
15290 32.7760 193.60 198.68 14.90
15291 32.7780 186.80 177.62 14.60
15292 32.7800 158.70 162.34 13.40
15293 32.7820 150.70 151.07 13.00
15294 32.7840 145.10 142.50 12.80
15295 32.7860 127.10 135.54 12.10
15296 32.7880 155.10 129.48 13.40
15297 32.7900 121.60 124.06 11.80
15298 32.7920 128.20 119.28 12.00
15299 32.7940 115.60 115.14 11.40
15300 32.7960 122.30 111.63 11.90
15301 32.7980 123.20 108.75 11.90
15302 32.8000 123.70 106.49 11.90
15303 32.8020 115.50 104.79 11.30
15304 32.8040 124.40 103.55 11.80
15305 32.8060 104.90 102.67 11.00
15306 32.8080 75.00 101.99 9.30
15307 32.8100 112.50 101.40 11.20
15308 32.8120 113.30 100.95 11.30
15309 32.8140 109.50 100.81 11.10
15310 32.8160 105.10 101.10 11.10
15311 32.8180 111.90 101.86 11.40
15312 32.8200 94.30 102.89 10.40
15313 32.8220 102.20 103.75 10.70
15314 32.8240 92.70 103.83 10.20
15315 32.8260 115.50 102.88 11.50
15316 32.8280 85.10 101.20 9.90
15317 32.8300 103.40 99.36 10.80
15318 32.8320 117.30 97.77 11.50
15319 32.8340 88.00 96.60 9.90
15320 32.8360 103.20 95.91 10.90
15321 32.8380 96.20 95.75 10.60
15322 32.8400 102.60 96.18 10.70
15323 32.8420 84.90 97.14 9.80
15324 32.8440 109.30 98.19 11.00
15325 32.8460 96.80 98.52 10.50
15326 32.8480 84.10 97.71 9.80
15327 32.8500 106.70 96.20 11.00
15328 32.8520 88.80 94.55 10.00
15329 32.8540 99.30 93.04 10.50
15330 32.8560 112.50 91.80 11.40
15331 32.8580 103.00 90.88 10.90
15332 32.8600 94.30 90.27 10.30
15333 32.8620 86.60 89.93 9.80
15334 32.8640 100.10 89.86 10.50
15335 32.8660 108.90 90.04 11.20
15336 32.8680 100.00 90.46 10.70
15337 32.8700 86.00 91.12 9.80
15338 32.8720 77.80 91.90 9.40
15339 32.8740 91.00 92.60 10.10
15340 32.8760 99.50 92.95 10.70
15341 32.8780 89.80 92.82 10.20
15342 32.8800 106.80 92.27 11.00
15343 32.8820 95.80 91.46 10.40
15344 32.8840 101.70 90.57 10.60
15345 32.8860 99.10 89.77 10.70
15346 32.8880 77.80 89.14 9.40
15347 32.8900 85.50 88.69 9.80
15348 32.8920 119.20 88.40 11.60
15349 32.8940 99.60 88.26 10.60
15350 32.8960 93.60 88.25 10.30
15351 32.8980 112.20 88.34 11.30
15352 32.9000 98.60 88.55 10.50
15353 32.9020 88.10 88.89 9.90
15354 32.9040 88.90 89.38 10.00
15355 32.9060 93.60 90.07 10.40
15356 32.9080 84.70 91.02 9.90
15357 32.9100 94.60 92.31 10.30
15358 32.9120 88.30 93.98 9.90
15359 32.9140 100.40 95.89 10.70
15360 32.9160 85.60 97.49 10.00
15361 32.9180 87.40 98.19 10.00
15362 32.9200 84.40 98.19 9.80
15363 32.9220 110.30 98.23 11.10
15364 32.9240 91.50 98.79 10.10
15365 32.9260 87.50 99.92 10.00
15366 32.9280 99.80 101.43 10.70
15367 32.9300 83.20 103.01 9.70
15368 32.9320 114.10 104.35 11.30
15369 32.9340 115.10 105.41 11.40
15370 32.9360 96.40 106.32 10.60
15371 32.9380 96.40 107.16 10.50
15372 32.9400 98.30 107.89 10.60
15373 32.9420 110.00 108.55 11.10
15374 32.9440 108.40 109.38 11.00
15375 32.9460 107.30 110.75 11.20
15376 32.9480 110.10 112.89 11.20
15377 32.9500 104.00 115.90 10.80
15378 32.9520 115.40 119.72 11.40
15379 32.9540 119.50 124.20 11.60
15380 32.9560 134.80 129.20 12.50
15381 32.9580 128.30 134.93 12.20
15382 32.9600 152.50 142.06 13.10
15383 32.9620 156.10 151.48 13.20
15384 32.9640 174.40 164.36 14.00
15385 32.9660 179.80 182.23 14.40
15386 32.9680 212.90 207.26 15.70
15387 32.9700 223.30 242.93 15.90
15388 32.9720 303.00 293.76 18.50
15389 32.9740 437.40 365.74 22.10
15390 32.9760 501.40 462.48 24.10
15391 32.9780 612.00 573.89 26.70
15392 32.9800 729.90 656.48 28.70
15393 32.9820 681.60 654.05 27.70
15394 32.9840 561.90 568.26 25.20
15395 32.9860 399.40 456.90 21.50
15396 32.9880 358.90 360.71 20.40
15397 32.9900 272.90 289.39 17.60
15398 32.9920 264.00 238.79 17.20
15399 32.9940 222.60 203.12 15.80
15400 32.9960 156.60 177.69 13.50
15401 32.9980 149.60 159.12 13.10
15402 33.0000 185.20 145.27 14.50
15403 33.0020 159.10 134.71 13.40
15404 33.0040 131.10 126.45 12.10
15405 33.0060 130.80 119.88 12.30
15406 33.0080 130.10 114.61 12.30
15407 33.0100 98.20 110.35 10.50
15408 33.0120 108.40 106.86 11.10
15409 33.0140 105.30 104.01 10.90
15410 33.0160 103.90 101.69 10.90
15411 33.0180 115.20 99.79 11.50
15412 33.0200 113.80 98.27 11.30
15413 33.0220 78.50 97.20 9.40
15414 33.0240 106.80 96.22 10.90
15415 33.0260 118.60 95.32 11.70
15416 33.0280 80.80 94.39 9.70
15417 33.0300 82.10 93.34 9.60
15418 33.0320 95.20 92.21 10.40
15419 33.0340 104.60 91.11 10.80
15420 33.0360 91.40 90.11 10.20
15421 33.0380 92.30 89.23 10.30
15422 33.0400 82.60 88.46 9.60
15423 33.0420 86.80 87.82 9.90
15424 33.0440 103.90 87.28 10.80
15425 33.0460 99.10 86.83 10.70
15426 33.0480 114.60 86.46 11.50
15427 33.0500 85.20 86.17 9.80
15428 33.0520 99.00 85.93 10.60
15429 33.0540 84.80 85.74 9.70
15430 33.0560 85.50 85.53 9.90
15431 33.0580 93.80 85.28 10.40
15432 33.0600 94.30 84.97 10.30
15433 33.0620 83.60 84.64 9.70
15434 33.0640 91.70 84.32 10.10
15435 33.0660 73.20 84.04 9.20
15436 33.0680 91.90 83.81 10.30
15437 33.0700 75.70 83.62 9.20
15438 33.0720 75.80 83.46 9.20
15439 33.0740 83.00 83.35 9.60
15440 33.0760 78.40 83.26 9.50
15441 33.0780 77.50 83.22 9.40
15442 33.0800 73.10 83.21 9.10
15443 33.0820 89.40 83.25 10.00
15444 33.0840 89.00 83.34 10.00
15445 33.0860 103.20 83.50 10.90
15446 33.0880 91.50 83.73 10.20
15447 33.0900 72.20 84.07 9.00
15448 33.0920 80.80 84.55 9.50
15449 33.0940 78.80 85.22 9.40
15450 33.0960 85.60 86.10 10.00
15451 33.0980 81.00 87.16 9.70
15452 33.1000 101.20 88.25 10.60
15453 33.1020 84.20 89.06 9.70
15454 33.1040 94.30 89.30 10.30
15455 33.1060 91.80 88.91 10.30
15456 33.1080 80.00 87.90 9.50
15457 33.1100 84.30 86.99 9.70
15458 33.1120 107.30 86.06 10.90
15459 33.1140 94.10 85.20 10.30
15460 33.1160 78.00 84.49 9.50
15461 33.1180 96.50 83.95 10.50
15462 33.1200 84.40 83.60 9.70
15463 33.1220 78.80 83.43 9.40
15464 33.1240 96.10 83.42 10.30
15465 33.1260 85.10 83.58 9.90
15466 33.1280 96.30 83.93 10.50
15467 33.1300 102.80 84.49 10.80
15468 33.1320 78.80 85.26 9.40
15469 33.1340 80.40 86.19 9.50
15470 33.1360 91.10 87.06 10.30
15471 33.1380 63.90 87.56 8.50
15472 33.1400 96.40 87.40 10.40
15473 33.1420 80.60 86.68 9.50
15474 33.1440 92.50 85.72 10.10
15475 33.1460 96.40 84.80 10.50
15476 33.1480 81.60 84.05 9.70
15477 33.1500 75.20 83.43 9.20
15478 33.1520 85.70 82.93 9.80
15479 33.1540 91.10 82.54 10.10
15480 33.1560 86.70 82.26 10.00
15481 33.1580 81.00 82.10 9.60
15482 33.1600 94.10 82.03 10.30
15483 33.1620 81.60 82.05 9.60
15484 33.1640 68.10 82.10 8.60
15485 33.1660 85.70 82.16 9.90
15486 33.1680 74.40 82.23 9.20
15487 33.1700 78.70 82.38 9.40
15488 33.1720 88.60 82.62 10.00
15489 33.1740 77.90 82.97 9.20
15490 33.1760 81.50 83.33 9.70
15491 33.1780 89.50 83.55 10.10
15492 33.1800 96.30 83.47 10.40
15493 33.1820 95.20 83.09 10.30
15494 33.1840 77.90 82.53 9.30
15495 33.1860 81.20 81.97 9.60
15496 33.1880 73.80 81.48 9.10
15497 33.1900 93.00 81.09 10.20
15498 33.1920 87.10 80.79 9.90
15499 33.1940 85.70 80.57 9.70
15500 33.1960 90.90 80.40 10.20
15501 33.1980 74.60 80.28 9.20
15502 33.2000 74.40 80.20 9.10
15503 33.2020 86.80 80.15 9.80
15504 33.2040 87.90 80.12 9.90
15505 33.2060 69.40 80.10 8.90
15506 33.2080 74.80 80.09 9.20
15507 33.2100 86.70 80.10 9.90
15508 33.2120 77.70 80.13 9.30
15509 33.2140 80.40 80.19 9.40
15510 33.2160 74.70 80.28 9.30
15511 33.2180 73.90 80.40 9.10
15512 33.2200 85.30 80.57 9.80
15513 33.2220 80.50 80.80 9.50
15514 33.2240 79.80 81.09 9.50
15515 33.2260 99.00 81.47 10.70
15516 33.2280 80.60 81.94 9.60
15517 33.2300 87.00 82.51 9.90
15518 33.2320 95.80 83.13 10.40
15519 33.2340 90.70 83.73 10.10
15520 33.2360 73.80 84.27 9.30
15521 33.2380 80.30 84.83 9.60
15522 33.2400 77.90 85.49 9.40
15523 33.2420 71.60 86.32 9.00
15524 33.2440 86.90 87.26 9.90
15525 33.2460 84.30 88.08 9.90
15526 33.2480 82.60 88.54 9.70
15527 33.2500 82.70 88.54 9.70
15528 33.2520 58.50 88.29 8.20
15529 33.2540 86.50 87.98 9.90
15530 33.2560 105.90 87.64 11.20
15531 33.2580 83.50 87.10 9.80
15532 33.2600 95.30 86.32 10.40
15533 33.2620 84.40 85.41 9.80
15534 33.2640 84.30 84.58 9.80
15535 33.2660 85.60 83.94 10.00
15536 33.2680 100.30 83.54 10.70
15537 33.2700 88.00 83.69 10.00
15538 33.2720 101.80 83.72 10.80
15539 33.2740 79.20 83.94 9.50
15540 33.2760 95.10 84.30 10.50
15541 33.2780 64.60 84.72 8.60
15542 33.2800 66.30 85.04 8.70
15543 33.2820 86.10 85.18 9.90
15544 33.2840 79.10 85.16 9.40
15545 33.2860 68.20 85.17 8.90
15546 33.2880 84.20 85.36 9.80
15547 33.2900 74.90 85.85 9.20
15548 33.2920 93.60 86.66 10.20
15549 33.2940 79.90 87.77 9.50
15550 33.2960 94.10 88.95 10.50
15551 33.2980 78.70 89.79 9.50
15552 33.3000 90.00 89.84 10.10
15553 33.3020 95.20 89.09 10.40
15554 33.3040 85.80 87.87 9.80
15555 33.3060 90.00 86.56 10.20
15556 33.3080 98.20 85.41 10.60
15557 33.3100 83.30 84.49 9.70
15558 33.3120 77.80 83.80 9.40
15559 33.3140 89.00 83.31 10.00
15560 33.3160 70.80 82.97 9.10
15561 33.3180 90.00 82.76 10.10
15562 33.3200 98.20 82.63 10.60
15563 33.3220 81.40 82.59 9.60
15564 33.3240 97.10 82.60 10.50
15565 33.3260 89.50 82.67 10.20
15566 33.3280 74.00 82.79 9.20
15567 33.3300 92.50 82.98 10.20
15568 33.3320 83.90 83.01 9.80
15569 33.3340 79.90 83.33 9.50
15570 33.3360 104.70 83.71 11.00
15571 33.3380 80.50 84.14 9.60
15572 33.3400 83.10 84.60 9.70
15573 33.3420 83.00 85.10 9.60
15574 33.3440 94.80 85.63 10.40
15575 33.3460 89.00 86.11 10.20
15576 33.3480 79.90 86.53 9.60
15577 33.3500 107.50 86.84 11.00
15578 33.3520 89.90 87.14 10.10
15579 33.3540 97.30 87.54 10.40
15580 33.3560 90.40 88.07 10.30
15581 33.3580 100.10 88.78 10.70
15582 33.3600 106.50 89.69 11.00
15583 33.3620 91.10 90.83 10.20
15584 33.3640 105.30 92.24 10.90
15585 33.3660 95.70 94.00 10.50
15586 33.3680 99.70 96.16 10.70
15587 33.3700 110.10 98.74 11.20
15588 33.3720 132.20 101.59 12.20
15589 33.3740 115.40 104.48 11.40
15590 33.3760 99.30 107.46 10.70
15591 33.3780 113.60 110.90 11.40
15592 33.3800 126.00 115.10 11.90
15593 33.3820 153.20 120.14 13.10
15594 33.3840 140.80 126.21 12.60
15595 33.3860 141.40 133.88 12.70
15596 33.3880 139.90 143.95 12.70
15597 33.3900 144.20 157.46 12.80
15598 33.3920 163.00 175.75 13.50
15599 33.3940 182.90 200.31 14.40
15600 33.3960 197.70 232.52 15.20
15601 33.3980 233.10 272.67 16.40
15602 33.4000 211.40 316.80 15.40
15603 33.4020 272.20 353.89 17.50
15604 33.4040 320.40 367.52 19.10
15605 33.4060 344.00 350.21 19.90
15606 33.4080 314.30 311.25 19.00
15607 33.4100 290.00 267.03 18.20
15608 33.4120 260.40 227.63 17.20
15609 33.4140 211.30 196.14 15.50
15610 33.4160 166.60 172.15 13.90
15611 33.4180 115.10 154.20 11.60
15612 33.4200 125.60 140.75 11.90
15613 33.4220 108.80 130.66 11.10
15614 33.4240 114.50 123.07 11.40
15615 33.4260 96.60 117.30 10.60
15616 33.4280 107.70 112.87 11.10
15617 33.4300 88.60 109.39 10.00
15618 33.4320 111.00 106.61 11.20
15619 33.4340 90.80 104.45 10.10
15620 33.4360 99.80 102.81 10.80
15621 33.4380 94.80 101.60 10.50
15622 33.4400 87.70 100.70 9.90
15623 33.4420 102.70 99.97 10.80
15624 33.4440 110.50 99.18 11.20
15625 33.4460 95.90 98.19 10.60
15626 33.4480 83.90 97.11 9.90
15627 33.4500 80.30 96.19 9.50
15628 33.4520 70.00 95.57 8.90
15629 33.4540 84.80 95.28 9.80
15630 33.4560 92.30 95.30 10.30
15631 33.4580 97.60 95.61 10.60
15632 33.4600 102.10 96.12 10.70
15633 33.4620 101.10 96.59 10.70
15634 33.4640 89.30 96.74 10.00
15635 33.4660 95.30 96.41 10.60
15636 33.4680 97.70 95.56 10.60
15637 33.4700 112.90 94.40 11.30
15638 33.4720 103.20 93.29 10.80
15639 33.4740 99.40 92.56 10.60
15640 33.4760 99.50 92.31 10.70
15641 33.4780 109.50 92.56 11.20
15642 33.4800 96.10 93.17 10.40
15643 33.4820 82.20 93.88 9.60
15644 33.4840 106.60 94.29 10.90
15645 33.4860 96.00 94.14 10.60
15646 33.4880 104.30 93.51 11.00
15647 33.4900 102.70 92.70 10.90
15648 33.4920 104.90 92.02 10.90
15649 33.4940 90.20 91.24 10.00
15650 33.4960 80.80 90.28 9.70
15651 33.4980 97.00 89.09 10.60
15652 33.5000 87.80 87.84 10.00
15653 33.5020 87.80 86.69 10.00
15654 33.5040 78.80 85.76 9.40
15655 33.5060 91.50 85.03 10.30
15656 33.5080 85.80 84.49 9.80
15657 33.5100 69.30 84.10 8.90
15658 33.5120 101.00 83.84 10.70
15659 33.5140 97.90 83.68 10.50
15660 33.5160 104.50 83.61 11.00
15661 33.5180 83.30 83.61 9.80
15662 33.5200 83.70 83.67 9.70
15663 33.5220 100.90 83.77 10.70
15664 33.5240 108.50 83.91 11.00
15665 33.5260 99.20 84.11 10.70
15666 33.5280 89.60 84.40 10.20
15667 33.5300 89.50 84.80 10.10
15668 33.5320 80.20 85.34 9.50
15669 33.5340 98.10 86.05 10.50
15670 33.5360 80.20 86.93 9.60
15671 33.5380 84.00 87.95 9.90
15672 33.5400 91.60 88.99 10.10
15673 33.5420 76.60 89.84 9.30
15674 33.5440 70.10 90.28 8.90
15675 33.5460 87.30 90.26 10.00
15676 33.5480 84.80 89.96 9.90
15677 33.5500 84.00 89.67 9.80
15678 33.5520 101.40 89.57 10.70
15679 33.5540 103.10 89.74 10.80
15680 33.5560 97.30 90.21 10.60
15681 33.5580 92.40 91.00 10.30
15682 33.5600 86.00 92.07 9.90
15683 33.5620 91.60 93.38 10.20
15684 33.5640 79.90 94.72 9.40
15685 33.5660 95.00 95.80 10.50
15686 33.5680 97.70 96.40 10.60
15687 33.5700 89.90 96.61 10.10
15688 33.5720 105.40 96.74 10.90
15689 33.5740 98.70 97.05 10.50
15690 33.5760 102.60 97.67 10.90
15691 33.5780 86.80 98.64 10.00
15692 33.5800 96.20 99.98 10.50
15693 33.5820 101.80 101.69 10.70
15694 33.5840 103.60 103.82 10.80
15695 33.5860 92.30 106.39 10.30
15696 33.5880 112.60 109.51 11.40
15697 33.5900 114.80 113.26 11.40
15698 33.5920 110.90 117.79 11.20
15699 33.5940 102.80 123.29 10.70
15700 33.5960 120.80 129.98 11.80
15701 33.5980 128.10 138.13 12.10
15702 33.6000 148.30 147.98 13.00
15703 33.6020 150.60 159.85 13.00
15704 33.6040 167.10 174.21 13.70
15705 33.6060 182.00 192.06 14.50
15706 33.6080 222.80 215.31 15.90
15707 33.6100 234.40 246.96 16.30
15708 33.6120 330.00 290.84 19.40
15709 33.6140 347.80 352.78 19.70
15710 33.6160 443.10 440.95 22.60
15711 33.6180 585.10 563.15 26.00
15712 33.6200 746.60 720.47 29.10
15713 33.6220 875.50 884.37 31.50
15714 33.6240 981.10 977.14 33.30
15715 33.6260 883.70 931.27 31.90
15716 33.6280 702.60 782.02 28.50
15717 33.6300 592.70 615.82 26.10
15718 33.6320 439.60 479.55 22.30
15719 33.6340 376.50 379.32 20.50
15720 33.6360 315.30 308.25 19.10
15721 33.6380 256.10 257.58 17.10
15722 33.6400 245.90 221.21 16.70
15723 33.6420 259.50 194.50 17.10
15724 33.6440 195.40 174.45 14.80
15725 33.6460 163.50 159.25 13.70
15726 33.6480 131.60 147.52 12.30
15727 33.6500 142.70 138.30 12.80
15728 33.6520 131.20 130.91 12.20
15729 33.6540 123.30 124.73 11.70
15730 33.6560 117.80 119.33 11.70
15731 33.6580 129.40 114.54 12.20
15732 33.6600 120.70 110.34 11.70
15733 33.6620 112.90 106.73 11.30
15734 33.6640 99.60 103.66 10.60
15735 33.6660 104.20 101.06 10.90
15736 33.6680 101.70 98.85 10.80
15737 33.6700 110.60 96.97 11.30
15738 33.6720 86.80 95.34 9.90
15739 33.6740 79.20 93.93 9.40
15740 33.6760 112.40 92.69 11.40
15741 33.6780 94.80 91.63 10.50
15742 33.6800 86.20 90.72 9.90
15743 33.6820 90.80 89.98 10.10
15744 33.6840 90.20 89.38 10.10
15745 33.6860 92.90 88.93 10.40
15746 33.6880 82.30 88.58 9.70
15747 33.6900 81.40 88.52 9.60
15748 33.6920 88.80 88.33 10.00
15749 33.6940 85.40 88.23 9.80
15750 33.6960 87.20 88.28 10.10
15751 33.6980 80.80 88.52 9.60
15752 33.7000 100.60 88.96 10.70
15753 33.7020 86.00 89.50 9.80
15754 33.7040 110.70 90.08 11.10
15755 33.7060 83.40 90.79 9.80
15756 33.7080 89.30 91.85 10.10
15757 33.7100 91.70 93.34 10.20
15758 33.7120 94.50 95.08 10.30
15759 33.7140 98.10 96.60 10.50
15760 33.7160 102.90 97.40 10.80
15761 33.7180 88.40 97.32 10.10
15762 33.7200 111.60 96.59 11.20
15763 33.7220 89.40 95.40 10.00
15764 33.7240 92.90 93.78 10.10
15765 33.7260 101.40 91.82 10.80
15766 33.7280 84.10 89.81 9.80
15767 33.7300 83.90 88.01 9.70
15768 33.7320 92.90 86.54 10.20
15769 33.7340 80.30 85.43 9.50
15770 33.7360 82.10 84.64 9.70
15771 33.7380 90.70 84.14 10.20
15772 33.7400 100.60 83.90 10.70
15773 33.7420 79.50 83.87 9.40
15774 33.7440 85.10 83.99 9.80
15775 33.7460 96.20 84.10 10.50
15776 33.7480 94.90 84.03 10.50
15777 33.7500 101.10 83.73 10.60
15778 33.7520 79.40 83.30 9.50
15779 33.7540 81.20 82.93 9.50
15780 33.7560 82.10 82.74 9.70
15781 33.7580 63.70 82.75 8.60
15782 33.7600 78.50 82.95 9.40
15783 33.7620 94.40 83.22 10.30
15784 33.7640 76.10 83.42 9.20
15785 33.7660 88.90 83.42 10.10
15786 33.7680 96.20 83.16 10.50
15787 33.7700 94.60 82.74 10.30
15788 33.7720 71.70 82.29 9.00
15789 33.7740 113.70 81.83 11.30
15790 33.7760 88.10 81.33 10.10
15791 33.7780 79.60 80.81 9.50
15792 33.7800 79.00 80.30 9.40
15793 33.7820 83.60 79.87 9.70
15794 33.7840 89.80 79.52 10.00
15795 33.7860 89.60 79.27 10.20
15796 33.7880 79.90 79.10 9.60
15797 33.7900 85.40 79.01 9.80
15798 33.7920 79.70 78.99 9.50
15799 33.7940 80.30 79.05 9.50
15800 33.7960 76.80 79.17 9.50
15801 33.7980 71.50 79.33 9.10
15802 33.8000 78.30 79.46 9.40
15803 33.8020 76.90 79.51 9.30
15804 33.8040 80.60 79.42 9.50
15805 33.8060 80.90 79.24 9.70
15806 33.8080 81.50 79.03 9.70
15807 33.8100 86.50 78.84 9.90
15808 33.8120 75.90 78.71 9.20
15809 33.8140 80.50 78.63 9.50
15810 33.8160 77.00 78.59 9.50
15811 33.8180 80.00 78.59 9.60
15812 33.8200 70.80 78.61 8.90
15813 33.8220 80.00 78.65 9.50
15814 33.8240 103.90 78.71 10.80
15815 33.8260 91.00 78.79 10.30
15816 33.8280 84.10 78.89 9.80
15817 33.8300 87.00 79.02 9.90
15818 33.8320 82.20 79.20 9.60
15819 33.8340 96.10 79.41 10.40
15820 33.8360 75.90 79.66 9.40
15821 33.8380 89.80 79.88 10.20
15822 33.8400 93.80 80.26 10.30
15823 33.8420 76.70 80.71 9.30
15824 33.8440 95.80 81.20 10.30
15825 33.8460 96.60 81.68 10.60
15826 33.8480 71.80 82.11 9.10
15827 33.8500 98.70 82.57 10.60
15828 33.8520 96.40 83.15 10.40
15829 33.8540 104.90 83.89 10.90
15830 33.8560 85.50 84.82 10.00
15831 33.8580 83.90 85.99 9.80
15832 33.8600 100.70 87.39 10.70
15833 33.8620 98.10 88.99 10.50
15834 33.8640 97.80 90.65 10.50
15835 33.8660 81.70 92.18 9.70
15836 33.8680 98.50 93.43 10.70
15837 33.8700 90.80 94.45 10.10
15838 33.8720 94.10 95.53 10.30
15839 33.8740 98.60 96.96 10.50
15840 33.8760 123.50 98.96 11.90
15841 33.8780 119.90 101.71 11.70
15842 33.8800 106.40 105.42 11.00
15843 33.8820 126.70 110.30 11.90
15844 33.8840 91.70 116.72 10.10
15845 33.8860 125.70 125.24 12.10
15846 33.8880 130.20 136.60 12.20
15847 33.8900 139.60 151.87 12.60
15848 33.8920 170.40 172.49 13.70
15849 33.8940 195.70 200.00 14.90
15850 33.8960 207.00 235.10 15.40
15851 33.8980 246.20 275.48 16.80
15852 33.9000 274.50 311.52 17.60
15853 33.9020 279.00 327.32 17.70
15854 33.9040 295.90 313.23 18.20
15855 33.9060 279.40 277.79 17.90
15856 33.9080 226.20 237.15 16.20
15857 33.9100 213.50 201.54 15.50
15858 33.9120 171.70 173.75 13.90
15859 33.9140 152.50 152.98 13.10
15860 33.9160 132.60 137.61 12.40
15861 33.9180 126.20 126.29 12.00
15862 33.9200 112.00 117.80 11.30
15863 33.9220 126.40 111.24 11.90
15864 33.9240 96.60 106.02 10.40
15865 33.9260 84.90 101.72 9.90
15866 33.9280 91.00 98.15 10.30
15867 33.9300 113.50 95.20 11.30
15868 33.9320 85.10 92.77 9.80
15869 33.9340 81.70 90.76 9.60
15870 33.9360 73.00 89.09 9.20
15871 33.9380 76.60 87.71 9.40
15872 33.9400 88.20 86.55 10.00
15873 33.9420 94.20 85.58 10.20
15874 33.9440 93.70 84.76 10.30
15875 33.9460 72.80 84.07 9.20
15876 33.9480 82.50 83.49 9.70
15877 33.9500 77.10 83.01 9.40
15878 33.9520 64.80 82.61 8.50
15879 33.9540 71.90 82.29 9.00
15880 33.9560 86.70 82.04 9.90
15881 33.9580 82.90 81.87 9.80
15882 33.9600 92.80 81.76 10.20
15883 33.9620 91.70 81.71 10.10
15884 33.9640 82.80 81.71 9.60
15885 33.9660 82.30 81.71 9.70
15886 33.9680 87.60 81.68 10.00
15887 33.9700 72.70 81.62 9.10
15888 33.9720 98.50 81.55 10.50
15889 33.9740 74.40 81.52 9.20
15890 33.9760 79.20 81.54 9.50
15891 33.9780 93.50 81.62 10.40
15892 33.9800 82.80 81.77 9.70
15893 33.9820 81.40 81.63 9.60
15894 33.9840 90.60 81.87 10.00
15895 33.9860 96.40 82.15 10.60
15896 33.9880 80.10 82.47 9.60
15897 33.9900 70.20 82.84 8.90
15898 33.9920 82.30 83.29 9.60
15899 33.9940 94.70 83.81 10.30
15900 33.9960 75.20 84.41 9.30
15901 33.9980 76.20 85.09 9.30
15902 34.0000 86.90 85.87 9.90
15903 34.0020 68.50 86.77 8.80
15904 34.0040 84.00 87.81 9.70
15905 34.0060 83.60 89.03 9.90
15906 34.0080 82.90 90.44 9.70
15907 34.0100 94.50 92.07 10.40
15908 34.0120 95.20 93.96 10.30
15909 34.0140 94.20 96.17 10.20
15910 34.0160 97.20 98.78 10.60
15911 34.0180 106.30 101.92 11.00
15912 34.0200 99.40 105.75 10.60
15913 34.0220 110.70 110.43 11.10
15914 34.0240 111.40 116.22 11.30
15915 34.0260 115.70 123.44 11.60
15916 34.0280 142.30 132.42 13.00
15917 34.0300 131.00 143.74 12.60
15918 34.0320 164.10 158.20 14.70
15919 34.0340 177.70 177.31 15.30
15920 34.0360 223.60 203.30 17.40
15921 34.0380 243.80 239.41 18.00
15922 34.0400 337.50 290.32 21.10
15923 34.0420 413.90 361.15 23.30
15924 34.0440 539.90 453.54 26.90
15925 34.0460 631.40 554.57 29.20
15926 34.0480 680.90 623.06 30.20
15927 34.0500 645.10 612.18 29.10
15928 34.0520 494.50 530.49 25.60
15929 34.0540 422.40 428.30 23.70
15930 34.0560 330.00 340.64 21.00
15931 34.0580 291.80 275.00 19.70
15932 34.0600 243.30 227.94 17.90
15933 34.0620 210.00 194.68 16.60
15934 34.0640 192.20 170.90 15.90
15935 34.0660 158.90 153.61 14.50
15936 34.0680 141.80 140.84 13.80
15937 34.0700 154.10 131.12 14.20
15938 34.0720 128.70 123.40 13.00
15939 34.0740 137.40 116.95 13.50
15940 34.0760 108.90 111.49 12.00
15941 34.0780 102.20 106.96 11.70
15942 34.0800 86.30 103.29 10.70
15943 34.0820 105.70 100.41 11.80
15944 34.0840 102.50 98.24 11.70
15945 34.0860 110.80 96.62 12.20
15946 34.0880 105.40 95.38 11.80
15947 34.0900 90.50 94.28 10.90
15948 34.0920 87.80 93.08 10.80
15949 34.0940 101.20 91.66 11.60
15950 34.0960 111.70 90.03 12.20
15951 34.0980 87.40 88.37 10.80
15952 34.1000 93.30 86.85 11.10
15953 34.1020 79.70 85.55 10.30
15954 34.1040 73.80 84.48 9.90
15955 34.1060 86.40 83.60 10.70
15956 34.1080 85.60 82.89 10.60
15957 34.1100 104.10 82.32 11.70
15958 34.1120 88.40 81.90 10.70
15959 34.1140 82.90 81.66 10.50
15960 34.1160 81.70 81.61 10.40
15961 34.1180 79.60 81.80 10.30
15962 34.1200 83.50 82.27 10.40
15963 34.1220 67.70 83.02 9.40
15964 34.1240 81.90 83.93 10.40
15965 34.1260 76.10 84.62 10.00
15966 34.1280 90.20 84.78 10.90
15967 34.1300 89.10 84.49 10.80
15968 34.1320 76.20 84.01 10.00
15969 34.1340 84.90 83.47 10.60
15970 34.1360 92.10 82.88 11.10
15971 34.1380 86.90 82.15 10.70
15972 34.1400 82.20 81.24 10.40
15973 34.1420 65.70 80.23 9.30
15974 34.1440 79.90 79.25 10.30
15975 34.1460 71.90 78.42 9.70
15976 34.1480 94.50 77.73 11.20
15977 34.1500 75.00 77.19 9.90
15978 34.1520 82.20 76.77 10.40
15979 34.1540 80.00 76.45 10.30
15980 34.1560 86.00 76.20 10.70
15981 34.1580 88.70 76.02 10.80
15982 34.1600 80.90 75.90 10.30
15983 34.1620 87.10 75.83 10.70
15984 34.1640 79.50 75.80 10.20
15985 34.1660 72.80 75.78 9.80
15986 34.1680 87.10 75.75 10.70
15987 34.1700 91.20 75.70 10.90
15988 34.1720 86.60 75.64 10.70
15989 34.1740 75.70 75.62 10.00
15990 34.1760 84.40 75.65 10.60
15991 34.1780 73.60 75.75 9.90
15992 34.1800 100.20 75.94 11.50
15993 34.1820 73.80 76.22 9.90
15994 34.1840 77.60 76.62 10.10
15995 34.1860 71.40 77.14 9.80
15996 34.1880 79.50 77.75 10.30
15997 34.1900 96.90 78.40 11.30
15998 34.1920 84.40 78.98 10.60
15999 34.1940 107.00 79.37 11.90
16000 34.1960 83.70 79.49 10.60
16001 34.1980 81.60 79.38 10.40
16002 34.2000 72.80 79.23 9.80
16003 34.2020 92.80 79.22 11.00
16004 34.2040 87.50 79.58 10.80
16005 34.2060 84.90 80.14 10.60
16006 34.2080 79.90 81.01 10.30
16007 34.2100 105.00 82.16 11.70
16008 34.2120 95.00 83.42 11.20
16009 34.2140 95.10 84.46 11.20
16010 34.2160 81.60 84.90 10.50
16011 34.2180 77.50 84.63 10.10
16012 34.2200 83.30 83.84 10.50
16013 34.2220 90.80 82.87 11.00
16014 34.2240 88.60 81.91 10.80
16015 34.2260 91.30 80.94 11.10
16016 34.2280 75.60 79.90 10.00
16017 34.2300 106.20 78.84 11.80
16018 34.2320 78.50 77.87 10.10
16019 34.2340 56.90 77.06 8.70
16020 34.2360 75.80 76.43 10.10
16021 34.2380 100.00 75.97 11.50
16022 34.2400 71.70 75.65 9.70
16023 34.2420 74.00 75.45 9.90
16024 34.2440 69.30 75.33 9.60
16025 34.2460 74.00 75.30 10.00
16026 34.2480 80.80 75.35 10.40
16027 34.2500 81.50 75.47 10.40
16028 34.2520 70.40 75.62 9.70
16029 34.2540 88.00 75.73 10.80
16030 34.2560 83.10 75.73 10.60
16031 34.2580 81.80 75.60 10.50
16032 34.2600 70.60 75.44 9.70
16033 34.2620 84.80 75.32 10.60
16034 34.2640 79.30 75.32 10.30
16035 34.2660 75.90 75.45 10.00
16036 34.2680 71.70 75.74 9.80
16037 34.2700 82.30 76.20 10.40
16038 34.2720 77.60 76.86 10.10
16039 34.2740 84.30 77.68 10.60
16040 34.2760 73.70 78.57 9.90
16041 34.2780 80.70 79.34 10.40
16042 34.2800 70.70 79.73 9.70
16043 34.2820 79.40 79.63 10.20
16044 34.2840 70.30 79.14 9.70
16045 34.2860 67.10 78.44 9.50
16046 34.2880 71.30 77.68 9.70
16047 34.2900 58.90 76.96 8.90
16048 34.2920 69.90 76.35 9.60
16049 34.2940 65.50 75.85 9.30
16050 34.2960 70.00 75.46 9.70
16051 34.2980 88.80 75.16 10.90
16052 34.3000 75.60 74.93 10.00
16053 34.3020 78.00 74.74 10.20
16054 34.3040 82.10 74.53 10.40
16055 34.3060 83.80 74.31 10.50
16056 34.3080 67.10 74.09 9.50
16057 34.3100 68.50 73.91 9.50
16058 34.3120 70.40 73.80 9.70
16059 34.3140 85.60 73.65 10.70
16060 34.3160 70.90 73.66 9.70
16061 34.3180 83.70 73.72 10.50
16062 34.3200 95.00 73.85 11.20
16063 34.3220 65.60 74.06 9.30
16064 34.3240 68.80 74.37 9.50
16065 34.3260 90.40 74.79 10.90
16066 34.3280 72.90 75.29 9.90
16067 34.3300 88.10 75.79 10.80
16068 34.3320 71.50 76.14 9.70
16069 34.3340 75.60 76.23 10.00
16070 34.3360 77.30 76.11 10.10
16071 34.3380 84.90 75.94 10.70
16072 34.3400 80.20 75.79 10.30
16073 34.3420 80.30 75.70 10.30
16074 34.3440 81.50 75.67 10.40
16075 34.3460 74.70 75.74 9.90
16076 34.3480 81.50 75.94 10.40
16077 34.3500 76.80 76.27 10.00
16078 34.3520 75.90 76.67 10.00
16079 34.3540 67.90 77.03 9.50
16080 34.3560 67.60 77.28 9.50
16081 34.3580 63.20 77.37 9.20
16082 34.3600 87.40 77.25 10.70
16083 34.3620 55.70 76.88 8.60
16084 34.3640 91.40 76.34 11.00
16085 34.3660 76.80 75.75 10.10
16086 34.3680 78.60 75.25 10.20
16087 34.3700 67.40 74.86 9.40
16088 34.3720 70.40 74.62 9.70
16089 34.3740 66.50 74.51 9.40
16090 34.3760 98.90 74.53 11.50
16091 34.3780 85.80 74.69 10.70
16092 34.3800 62.80 74.99 9.10
16093 34.3820 88.50 75.46 10.80
16094 34.3840 79.80 76.09 10.20
16095 34.3860 75.30 76.86 9.90
16096 34.3880 85.30 77.70 10.70
16097 34.3900 88.30 78.47 10.70
16098 34.3920 77.20 79.10 10.10
16099 34.3940 77.80 79.55 10.20
16100 34.3960 81.30 79.73 10.40
16101 34.3980 71.90 79.48 9.80
16102 34.4000 73.80 78.74 9.80
16103 34.4020 80.30 77.73 10.30
16104 34.4040 66.70 76.72 9.40
16105 34.4060 79.50 75.86 10.30
16106 34.4080 76.10 75.19 10.10
16107 34.4100 65.80 74.49 9.30
16108 34.4120 91.20 74.16 10.90
16109 34.4140 71.60 73.95 9.70
16110 34.4160 77.80 73.84 10.10
16111 34.4180 70.00 73.83 9.60
16112 34.4200 80.50 73.91 10.20
16113 34.4220 76.50 74.08 10.00
16114 34.4240 74.00 74.37 9.80
16115 34.4260 75.20 74.80 9.90
16116 34.4280 87.90 75.39 10.80
16117 34.4300 86.40 76.19 10.60
16118 34.4320 94.10 77.22 11.10
16119 34.4340 81.70 78.48 10.40
16120 34.4360 88.30 79.84 10.80
16121 34.4380 101.50 81.03 11.60
16122 34.4400 73.60 81.69 9.70
16123 34.4420 89.10 81.57 10.80
16124 34.4440 85.20 80.75 10.60
16125 34.4460 75.40 79.57 10.00
16126 34.4480 80.00 78.40 10.30
16127 34.4500 76.60 77.42 10.00
16128 34.4520 69.50 76.70 9.50
16129 34.4540 80.00 76.24 10.20
16130 34.4560 65.00 75.99 9.30
16131 34.4580 72.90 75.88 9.80
16132 34.4600 79.10 75.82 10.10
16133 34.4620 64.80 75.71 9.20
16134 34.4640 51.30 75.55 8.20
16135 34.4660 68.70 75.40 9.60
16136 34.4680 66.70 75.28 9.40
16137 34.4700 67.80 75.18 9.40
16138 34.4720 68.90 75.09 9.60
16139 34.4740 84.10 74.96 10.50
16140 34.4760 74.80 74.78 10.00
16141 34.4780 78.80 74.58 10.20
16142 34.4800 79.30 74.41 10.10
16143 34.4820 66.90 74.32 9.40
16144 34.4840 73.50 74.40 9.80
16145 34.4860 71.10 74.50 9.80
16146 34.4880 81.00 74.71 10.40
16147 34.4900 78.30 75.01 10.10
16148 34.4920 67.40 75.39 9.50
16149 34.4940 65.80 75.76 9.40
16150 34.4960 91.00 76.05 11.00
16151 34.4980 60.00 76.17 9.00
16152 34.5000 82.00 76.16 10.30
16153 34.5020 68.80 76.11 9.50
16154 34.5040 88.40 76.13 10.80
16155 34.5060 83.40 76.26 10.60
16156 34.5080 93.00 76.56 11.00
16157 34.5100 81.70 77.05 10.40
16158 34.5120 103.30 77.75 11.70
16159 34.5140 78.70 78.64 10.20
16160 34.5160 65.70 79.60 9.40
16161 34.5180 70.50 80.47 9.70
16162 34.5200 69.50 81.10 9.60
16163 34.5220 75.10 81.50 9.90
16164 34.5240 84.40 81.83 10.60
16165 34.5260 70.50 82.19 9.70
16166 34.5280 81.80 82.48 10.50
16167 34.5300 76.70 82.58 10.00
16168 34.5320 87.80 82.43 10.80
16169 34.5340 81.30 82.14 10.40
16170 34.5360 90.30 81.81 11.00
16171 34.5380 78.60 81.41 10.30
16172 34.5400 78.10 80.98 10.20
16173 34.5420 93.00 80.60 11.10
16174 34.5440 72.20 80.34 9.90
16175 34.5460 81.00 80.22 10.50
16176 34.5480 80.80 80.23 10.50
16177 34.5500 85.50 80.36 10.60
16178 34.5520 88.70 80.64 10.80
16179 34.5540 86.10 81.10 10.80
16180 34.5560 106.10 81.78 12.00
16181 34.5580 109.40 82.70 12.10
16182 34.5600 96.20 83.90 11.40
16183 34.5620 92.90 85.43 11.10
16184 34.5640 87.30 87.33 10.80
16185 34.5660 99.90 89.59 11.70
16186 34.5680 115.20 92.09 12.60
16187 34.5700 99.00 94.70 11.40
16188 34.5720 119.10 97.56 12.60
16189 34.5740 113.00 100.97 12.20
16190 34.5760 105.50 105.22 12.00
16191 34.5780 106.60 110.55 12.00
16192 34.5800 100.90 117.02 11.50
16193 34.5820 136.00 124.81 13.40
16194 34.5840 124.20 134.38 12.90
16195 34.5860 109.30 146.64 12.10
16196 34.5880 130.70 162.98 13.30
16197 34.5900 169.10 184.61 15.10
16198 34.5920 178.60 212.12 15.30
16199 34.5940 188.60 243.56 15.80
16200 34.5960 226.60 272.25 17.50
16201 34.5980 264.50 286.72 18.90
16202 34.6000 271.40 279.30 18.80
16203 34.6020 227.40 253.86 17.30
16204 34.6040 243.50 221.66 18.00
16205 34.6060 174.50 191.33 15.20
16206 34.6080 162.50 166.44 14.80
16207 34.6100 163.80 147.10 14.70
16208 34.6120 133.40 132.39 13.30
16209 34.6140 119.20 121.20 12.50
16210 34.6160 86.90 112.58 10.90
16211 34.6180 101.30 105.89 11.60
16212 34.6200 89.60 100.67 10.90
16213 34.6220 89.10 96.53 10.90
16214 34.6240 76.20 93.16 10.00
16215 34.6260 78.90 90.36 10.40
16216 34.6280 89.60 87.97 10.90
16217 34.6300 77.40 85.93 10.10
16218 34.6320 80.80 84.21 10.30
16219 34.6340 89.20 82.76 10.90
16220 34.6360 79.70 81.54 10.30
16221 34.6380 94.10 80.51 11.20
16222 34.6400 78.20 79.64 10.20
16223 34.6420 84.50 78.91 10.50
16224 34.6440 64.10 78.30 9.20
16225 34.6460 79.30 77.80 10.30
16226 34.6480 65.20 77.39 9.40
16227 34.6500 64.40 77.07 9.20
16228 34.6520 73.90 76.85 9.90
16229 34.6540 74.60 76.72 10.00
16230 34.6560 65.20 76.69 9.30
16231 34.6580 71.10 76.76 9.80
16232 34.6600 62.10 76.98 9.10
16233 34.6620 88.70 77.34 10.80
16234 34.6640 78.20 77.83 10.10
16235 34.6660 72.10 78.40 9.80
16236 34.6680 68.90 78.93 9.60
16237 34.6700 62.00 79.30 9.00
16238 34.6720 67.50 79.40 9.40
16239 34.6740 66.10 79.16 9.40
16240 34.6760 75.70 78.59 10.10
16241 34.6780 82.50 77.79 10.50
16242 34.6800 81.40 76.93 10.30
16243 34.6820 92.30 76.14 11.00
16244 34.6840 72.20 75.50 9.80
16245 34.6860 78.00 75.02 10.20
16246 34.6880 65.70 74.68 9.40
16247 34.6900 79.80 74.44 10.30
16248 34.6920 79.80 74.27 10.20
16249 34.6940 84.40 74.12 10.60
16250 34.6960 74.30 74.01 10.00
16251 34.6980 76.80 73.97 10.10
16252 34.7000 89.60 74.01 10.90
16253 34.7020 60.30 74.15 8.90
16254 34.7040 78.50 74.39 10.20
16255 34.7060 74.30 74.67 10.00
16256 34.7080 74.20 74.92 9.90
16257 34.7100 83.80 75.01 10.50
16258 34.7120 95.30 74.86 11.10
16259 34.7140 81.90 74.49 10.40
16260 34.7160 76.30 74.03 10.10
16261 34.7180 66.20 73.60 9.40
16262 34.7200 74.70 73.24 10.00
16263 34.7220 83.90 72.98 10.50
16264 34.7240 84.10 72.80 10.60
16265 34.7260 72.20 72.70 9.80
16266 34.7280 99.70 72.66 11.50
16267 34.7300 76.10 72.69 10.00
16268 34.7320 66.90 72.80 9.40
16269 34.7340 69.70 72.98 9.60
16270 34.7360 63.80 73.25 9.30
16271 34.7380 67.90 73.63 9.50
16272 34.7400 69.70 74.11 9.60
16273 34.7420 67.00 74.66 9.40
16274 34.7440 65.30 75.23 9.30
16275 34.7460 65.80 75.72 9.40
16276 34.7480 71.10 76.09 9.70
16277 34.7500 72.70 76.25 9.80
16278 34.7520 70.50 76.16 9.70
16279 34.7540 69.10 75.78 9.60
16280 34.7560 86.00 75.20 10.80
16281 34.7580 98.80 74.64 11.50
16282 34.7600 53.80 74.22 8.40
16283 34.7620 70.30 73.97 9.70
16284 34.7640 51.50 73.84 8.30
16285 34.7660 64.90 73.77 9.40
16286 34.7680 82.90 73.67 10.50
16287 34.7700 64.60 73.56 9.20
16288 34.7720 67.50 73.48 9.40
16289 34.7740 82.30 73.45 10.50
16290 34.7760 74.60 73.49 10.00
16291 34.7780 70.20 73.54 9.70
16292 34.7800 75.60 73.55 10.00
16293 34.7820 71.90 73.57 9.70
16294 34.7840 66.20 73.65 9.40
16295 34.7860 58.30 73.84 8.80
16296 34.7880 84.80 74.18 10.70
16297 34.7900 76.90 74.68 10.10
16298 34.7920 61.30 75.33 9.00
16299 34.7940 69.80 76.08 9.60
16300 34.7960 56.10 76.85 8.70
16301 34.7980 68.60 77.48 9.60
16302 34.8000 54.80 77.80 8.50
16303 34.8020 61.00 77.71 8.90
16304 34.8040 64.90 77.22 9.30
16305 34.8060 82.60 76.52 10.50
16306 34.8080 81.20 75.81 10.40
16307 34.8100 76.70 75.23 10.10
16308 34.8120 88.80 74.80 10.80
16309 34.8140 83.30 74.51 10.50
16310 34.8160 83.30 74.35 10.50
16311 34.8180 77.60 74.29 10.30
16312 34.8200 93.00 74.32 11.00
16313 34.8220 72.40 74.42 9.80
16314 34.8240 74.80 74.60 9.90
16315 34.8260 69.50 74.84 9.70
16316 34.8280 63.90 75.15 9.20
16317 34.8300 85.70 75.52 10.70
16318 34.8320 69.90 75.95 9.60
16319 34.8340 74.40 76.42 9.90
16320 34.8360 91.40 76.93 11.00
16321 34.8380 78.10 77.50 10.20
16322 34.8400 66.90 78.13 9.40
16323 34.8420 73.20 78.87 9.80
16324 34.8440 82.80 79.75 10.40
16325 34.8460 100.90 80.83 11.60
16326 34.8480 102.10 82.16 11.60
16327 34.8500 74.80 83.79 10.00
16328 34.8520 85.30 85.81 10.70
16329 34.8540 80.80 88.32 10.40
16330 34.8560 107.70 91.47 12.00
16331 34.8580 108.50 95.49 12.00
16332 34.8600 99.20 100.67 11.40
16333 34.8620 106.30 107.40 11.80
16334 34.8640 112.20 116.26 12.20
16335 34.8660 112.70 128.10 12.20
16336 34.8680 136.40 143.98 13.40
16337 34.8700 173.30 165.26 15.10
16338 34.8720 198.60 192.75 16.10
16339 34.8740 205.60 224.10 16.50
16340 34.8760 251.60 250.39 18.20
16341 34.8780 299.70 258.11 19.90
16342 34.8800 258.20 242.12 18.40
16343 34.8820 232.10 212.53 17.50
16344 34.8840 220.80 182.30 16.90
16345 34.8860 151.10 157.51 14.20
16346 34.8880 144.10 138.89 13.80
16347 34.8900 124.00 125.40 12.70
16348 34.8920 112.80 115.62 12.10
16349 34.8940 104.00 108.39 11.70
16350 34.8960 111.50 102.86 12.20
16351 34.8980 102.00 98.44 11.60
16352 34.9000 103.70 94.89 11.70
16353 34.9020 72.20 92.14 9.70
16354 34.9040 101.80 90.16 11.60
16355 34.9060 89.90 88.86 10.90
16356 34.9080 86.30 88.06 10.70
16357 34.9100 85.30 87.55 10.60
16358 34.9120 100.80 87.02 11.50
16359 34.9140 100.90 86.28 11.50
16360 34.9160 91.90 85.41 11.10
16361 34.9180 100.20 84.63 11.50
16362 34.9200 79.90 84.10 10.20
16363 34.9220 90.50 83.82 10.90
16364 34.9240 79.40 83.72 10.20
16365 34.9260 87.00 83.75 10.80
16366 34.9280 62.40 83.85 9.10
16367 34.9300 85.50 83.97 10.60
16368 34.9320 83.70 83.93 10.50
16369 34.9340 98.50 83.47 11.40
16370 34.9360 88.50 82.44 11.00
16371 34.9380 100.40 81.02 11.60
16372 34.9400 77.10 79.52 10.10
16373 34.9420 79.70 78.21 10.30
16374 34.9440 77.40 77.19 10.10
16375 34.9460 75.80 76.46 10.10
16376 34.9480 86.00 76.02 10.70
16377 34.9500 85.10 75.83 10.60
16378 34.9520 80.50 75.82 10.30
16379 34.9540 62.60 75.82 9.10
16380 34.9560 80.10 75.61 10.40
16381 34.9580 83.40 75.09 10.60
16382 34.9600 69.10 74.42 9.50
16383 34.9620 65.30 73.79 9.20
16384 34.9640 69.10 73.29 9.60
16385 34.9660 71.80 72.91 9.90
16386 34.9680 103.40 72.64 11.80
16387 34.9700 77.40 72.45 10.20
16388 34.9720 79.00 72.34 10.20
16389 34.9740 68.60 72.27 9.60
16390 34.9760 58.50 72.26 8.90
16391 34.9780 79.30 72.26 10.30
16392 34.9800 81.70 72.29 10.30
16393 34.9820 81.00 72.32 10.30
16394 34.9840 75.10 72.40 9.90
16395 34.9860 102.60 72.54 11.80
16396 34.9880 64.00 72.78 9.20
16397 34.9900 92.20 73.13 11.00
16398 34.9920 78.10 73.63 10.20
16399 34.9940 68.30 74.29 9.50
16400 34.9960 76.70 75.05 10.20
16401 34.9980 91.30 75.79 11.00
16402 35.0000 72.50 76.24 9.80
16403 35.0020 80.20 76.20 10.30
16404 35.0040 78.20 75.67 10.20
16405 35.0060 74.70 74.89 10.00
16406 35.0080 77.60 74.10 10.20
16407 35.0100 68.50 73.44 9.50
16408 35.0120 73.20 72.93 9.80
16409 35.0140 66.60 72.58 9.40
16410 35.0160 67.80 72.35 9.50
16411 35.0180 55.30 72.24 8.60
16412 35.0200 80.40 72.23 10.30
16413 35.0220 63.60 72.33 9.20
16414 35.0240 56.40 72.54 8.60
16415 35.0260 75.40 72.89 10.00
16416 35.0280 71.50 73.38 9.70
16417 35.0300 82.60 74.01 10.40
16418 35.0320 70.20 74.73 9.60
16419 35.0340 59.50 75.43 8.90
16420 35.0360 73.10 75.94 10.00
16421 35.0380 74.80 76.10 10.00
16422 35.0400 84.60 75.81 10.60
16423 35.0420 65.00 75.07 9.30
16424 35.0440 83.90 74.23 10.50
16425 35.0460 86.10 73.41 10.70
16426 35.0480 68.50 72.72 9.60
16427 35.0500 57.60 72.18 8.80
16428 35.0520 73.10 71.77 9.80
16429 35.0540 89.10 71.47 10.80
16430 35.0560 96.30 71.25 11.40
16431 35.0580 56.20 71.10 8.70
16432 35.0600 72.20 70.99 9.80
16433 35.0620 83.70 70.90 10.50
16434 35.0640 69.00 70.82 9.50
16435 35.0660 79.40 70.76 10.30
16436 35.0680 93.40 70.71 11.10
16437 35.0700 78.70 70.70 10.20
16438 35.0720 71.50 70.72 9.70
16439 35.0740 60.50 70.78 9.00
16440 35.0760 72.00 70.85 9.90
16441 35.0780 59.10 70.94 8.90
16442 35.0800 58.50 71.04 8.80
16443 35.0820 70.70 71.16 9.70
16444 35.0840 86.10 71.34 10.60
16445 35.0860 71.70 71.60 9.90
16446 35.0880 65.50 71.97 9.40
16447 35.0900 75.20 72.45 10.00
16448 35.0920 69.50 73.06 9.50
16449 35.0940 75.50 73.79 10.00
16450 35.0960 68.30 74.54 9.60
16451 35.0980 77.30 75.15 10.10
16452 35.1000 80.50 75.41 10.30
16453 35.1020 65.20 75.27 9.20
16454 35.1040 94.80 74.84 11.10
16455 35.1060 72.90 74.34 9.90
16456 35.1080 67.70 73.85 9.60
16457 35.1100 71.50 73.40 9.70
16458 35.1120 72.80 72.96 9.80
16459 35.1140 76.10 72.56 10.00
16460 35.1160 69.00 72.22 9.60
16461 35.1180 56.20 71.94 8.70
16462 35.1200 63.90 71.71 9.20
16463 35.1220 69.10 71.55 9.50
16464 35.1240 80.90 71.46 10.30
16465 35.1260 91.70 71.44 11.00
16466 35.1280 68.70 71.47 9.60
16467 35.1300 63.40 71.51 9.10
16468 35.1320 87.40 71.49 10.60
16469 35.1340 59.50 71.39 8.90
16470 35.1360 58.20 71.24 8.80
16471 35.1380 79.20 71.07 10.30
16472 35.1400 69.10 70.94 9.50
16473 35.1420 78.40 70.86 10.10
16474 35.1440 66.60 70.82 9.30
16475 35.1460 81.00 70.84 10.40
16476 35.1480 72.00 70.90 9.80
16477 35.1500 64.90 71.00 9.20
16478 35.1520 67.80 71.16 9.40
16479 35.1540 79.60 71.36 10.20
16480 35.1560 66.20 71.61 9.40
16481 35.1580 64.10 71.89 9.20
16482 35.1600 68.90 72.21 9.50
16483 35.1620 77.80 72.60 10.00
16484 35.1640 54.20 73.02 8.40
16485 35.1660 54.50 73.44 8.50
16486 35.1680 75.00 73.83 10.00
16487 35.1700 77.50 74.22 10.00
16488 35.1720 75.40 74.73 10.00
16489 35.1740 71.60 75.49 9.70
16490 35.1760 66.80 76.35 9.50
16491 35.1780 81.40 77.20 10.30
16492 35.1800 87.70 77.70 10.70
16493 35.1820 81.40 77.62 10.30
16494 35.1840 74.80 76.99 9.90
16495 35.1860 72.30 76.12 9.80
16496 35.1880 62.10 75.31 9.00
16497 35.1900 79.40 74.69 10.20
16498 35.1920 70.10 74.29 9.50
16499 35.1940 67.20 74.00 9.40
16500 35.1960 98.60 73.71 11.50
16501 35.1980 77.50 73.33 10.10
16502 35.2000 67.00 72.85 9.40
16503 35.2020 81.70 72.35 10.30
16504 35.2040 77.40 71.89 10.10
16505 35.2060 80.00 71.52 10.40
16506 35.2080 84.00 71.22 10.50
16507 35.2100 91.00 71.00 11.00
16508 35.2120 60.90 70.85 8.90
16509 35.2140 89.90 70.76 10.90
16510 35.2160 75.10 70.72 10.00
16511 35.2180 85.50 70.71 10.70
16512 35.2200 60.60 70.75 9.00
16513 35.2220 67.10 70.83 9.30
16514 35.2240 74.00 70.97 9.90
16515 35.2260 43.80 71.20 7.70
16516 35.2280 67.90 71.51 9.50
16517 35.2300 63.30 71.83 9.20
16518 35.2320 62.90 72.01 9.10
16519 35.2340 69.60 71.90 9.60
16520 35.2360 75.70 71.59 10.20
16521 35.2380 75.60 71.23 10.00
16522 35.2400 67.50 70.95 9.50
16523 35.2420 62.80 70.77 9.00
16524 35.2440 77.90 70.68 10.20
16525 35.2460 54.60 70.67 8.60
16526 35.2480 61.00 70.72 9.10
16527 35.2500 79.90 70.81 10.30
16528 35.2520 84.70 70.93 10.50
16529 35.2540 65.30 71.03 9.30
16530 35.2560 75.60 71.10 10.10
16531 35.2580 79.80 71.14 10.40
16532 35.2600 70.30 71.20 9.60
16533 35.2620 72.80 71.30 9.80
16534 35.2640 89.60 71.44 10.80
16535 35.2660 70.00 71.59 9.80
16536 35.2680 80.90 71.67 10.40
16537 35.2700 80.40 71.63 10.40
16538 35.2720 62.10 71.48 9.00
16539 35.2740 69.40 71.23 9.60
16540 35.2760 58.10 71.06 8.90
16541 35.2780 74.10 70.94 9.90
16542 35.2800 57.50 70.88 8.80
16543 35.2820 79.10 70.89 10.10
16544 35.2840 67.00 70.97 9.40
16545 35.2860 73.80 71.12 9.90
16546 35.2880 63.20 71.36 9.20
16547 35.2900 76.20 71.70 10.00
16548 35.2920 82.50 72.16 10.40
16549 35.2940 76.30 72.75 10.00
16550 35.2960 76.40 73.45 10.10
16551 35.2980 65.00 74.16 9.30
16552 35.3000 87.40 74.70 10.80
16553 35.3020 87.90 74.89 10.70
16554 35.3040 88.60 74.68 10.70
16555 35.3060 73.80 74.19 10.00
16556 35.3080 77.10 73.60 10.10
16557 35.3100 75.30 73.09 10.00
16558 35.3120 65.70 72.72 9.20
16559 35.3140 88.40 72.54 10.80
16560 35.3160 68.60 72.56 9.60
16561 35.3180 97.50 72.78 11.40
16562 35.3200 70.50 73.18 9.70
16563 35.3220 66.00 73.63 9.30
16564 35.3240 73.90 73.83 9.80
16565 35.3260 79.90 73.58 10.50
16566 35.3280 75.70 73.01 10.00
16567 35.3300 77.40 72.41 10.10
16568 35.3320 87.00 71.94 10.70
16569 35.3340 88.50 71.62 10.80
16570 35.3360 86.80 71.45 10.90
16571 35.3380 70.30 71.41 9.70
16572 35.3400 82.00 71.47 10.40
16573 35.3420 65.70 71.65 9.20
16574 35.3440 81.50 71.93 10.40
16575 35.3460 73.50 72.32 10.00
16576 35.3480 76.50 72.77 10.10
16577 35.3500 76.20 73.19 10.10
16578 35.3520 74.70 73.42 9.90
16579 35.3540 76.40 73.38 10.00
16580 35.3560 70.70 73.11 9.90
16581 35.3580 64.90 72.74 9.30
16582 35.3600 57.10 72.38 8.70
16583 35.3620 79.60 72.04 10.20
16584 35.3640 67.80 71.75 9.50
16585 35.3660 84.60 71.51 10.70
16586 35.3680 70.90 71.34 9.70
16587 35.3700 56.20 71.24 8.70
16588 35.3720 76.80 71.21 10.00
16589 35.3740 71.60 71.26 9.80
16590 35.3760 83.70 71.39 10.70
16591 35.3780 76.60 71.60 10.10
16592 35.3800 79.50 71.92 10.30
16593 35.3820 83.90 72.34 10.50
16594 35.3840 83.00 72.86 10.50
16595 35.3860 68.30 73.45 9.60
16596 35.3880 66.20 74.05 9.40
16597 35.3900 73.60 74.61 10.00
16598 35.3920 76.10 75.04 10.00
16599 35.3940 75.60 75.25 10.00
16600 35.3960 88.50 75.11 11.00
16601 35.3980 61.30 74.64 9.00
16602 35.4000 70.50 73.97 9.70
16603 35.4020 80.40 73.24 10.30
16604 35.4040 59.10 72.59 8.80
16605 35.4060 94.90 72.05 11.40
16606 35.4080 62.20 71.63 9.10
16607 35.4100 70.00 71.32 9.60
16608 35.4120 86.10 71.08 10.70
16609 35.4140 65.60 70.91 9.30
16610 35.4160 66.70 70.79 9.60
16611 35.4180 65.20 70.71 9.40
16612 35.4200 70.60 70.67 9.70
16613 35.4220 74.50 70.67 9.90
16614 35.4240 86.80 70.70 10.70
16615 35.4260 65.80 70.78 9.50
16616 35.4280 68.50 70.90 9.60
16617 35.4300 83.30 71.07 10.50
16618 35.4320 62.90 71.28 9.10
16619 35.4340 82.50 71.53 10.40
16620 35.4360 56.30 71.75 8.70
16621 35.4380 70.70 71.87 9.70
16622 35.4400 71.10 71.83 9.70
16623 35.4420 69.80 71.67 9.60
16624 35.4440 88.00 71.45 10.70
16625 35.4460 69.80 71.24 9.80
16626 35.4480 66.90 71.07 9.50
16627 35.4500 75.90 70.94 10.10
16628 35.4520 59.60 70.86 8.90
16629 35.4540 71.70 70.82 9.70
16630 35.4560 69.50 70.81 9.70
16631 35.4580 71.00 70.81 9.70
16632 35.4600 66.30 70.82 9.40
16633 35.4620 91.40 70.85 11.00
16634 35.4640 70.50 70.90 9.60
16635 35.4660 70.00 70.97 9.80
16636 35.4680 81.00 71.06 10.40
16637 35.4700 83.20 71.18 10.60
16638 35.4720 70.70 71.33 9.70
16639 35.4740 78.00 71.50 10.10
16640 35.4760 77.70 71.71 10.20
16641 35.4780 88.00 71.95 10.80
16642 35.4800 56.80 72.25 8.70
16643 35.4820 71.20 72.62 9.80
16644 35.4840 67.80 73.08 9.40
16645 35.4860 67.80 73.65 9.60
16646 35.4880 73.20 74.36 9.90
16647 35.4900 78.90 75.19 10.30
16648 35.4920 91.10 76.14 11.00
16649 35.4940 69.00 77.19 9.50
16650 35.4960 63.80 78.34 9.30
16651 35.4980 78.10 79.49 10.20
16652 35.5000 72.10 80.47 9.80
16653 35.5020 87.70 81.15 10.80
16654 35.5040 72.50 81.46 9.70
16655 35.5060 68.00 81.29 9.60
16656 35.5080 82.10 80.62 10.50
16657 35.5100 72.30 79.61 9.80
16658 35.5120 74.90 78.55 10.00
16659 35.5140 79.70 77.68 10.30
16660 35.5160 72.50 77.06 9.90
16661 35.5180 81.90 76.83 10.50
16662 35.5200 76.30 76.70 10.10
16663 35.5220 76.90 76.79 10.10
16664 35.5240 90.20 77.07 10.80
16665 35.5260 70.40 77.55 9.80
16666 35.5280 88.70 78.23 10.80
16667 35.5300 74.80 79.11 9.90
16668 35.5320 63.40 80.20 9.20
16669 35.5340 78.00 81.49 10.10
16670 35.5360 74.50 82.90 10.00
16671 35.5380 70.90 84.32 9.70
16672 35.5400 81.00 85.76 10.30
16673 35.5420 100.90 87.38 11.50
16674 35.5440 63.60 89.49 9.10
16675 35.5460 91.20 92.41 11.20
16676 35.5480 101.90 96.50 11.60
16677 35.5500 101.90 102.20 11.70
16678 35.5520 111.10 110.13 12.10
16679 35.5540 127.90 121.13 12.90
16680 35.5560 132.70 136.10 13.40
16681 35.5580 150.60 155.34 14.10
16682 35.5600 164.30 176.85 14.70
16683 35.5620 170.50 193.79 15.00
16684 35.5640 192.30 197.01 15.80
16685 35.5660 149.60 184.67 14.20
16686 35.5680 155.20 164.57 14.40
16687 35.5700 151.50 145.01 14.20
16688 35.5720 119.30 129.28 12.60
16689 35.5740 120.30 117.54 12.60
16690 35.5760 91.60 109.03 11.20
16691 35.5780 101.40 102.83 11.60
16692 35.5800 94.00 98.23 11.20
16693 35.5820 86.00 94.65 10.70
16694 35.5840 116.00 91.65 12.30
16695 35.5860 81.90 89.16 10.60
16696 35.5880 91.40 86.87 11.00
16697 35.5900 94.30 85.00 11.20
16698 35.5920 93.80 83.57 11.20
16699 35.5940 104.80 82.53 11.80
16700 35.5960 91.60 81.73 11.10
16701 35.5980 72.60 80.96 9.80
16702 35.6000 76.30 80.07 10.00
16703 35.6020 79.70 79.06 10.30
16704 35.6040 87.10 78.04 10.70
16705 35.6060 84.20 77.13 10.70
16706 35.6080 91.80 76.34 11.00
16707 35.6100 60.70 75.69 9.00
16708 35.6120 72.50 75.15 9.80
16709 35.6140 86.50 74.69 10.60
16710 35.6160 74.60 74.32 10.00
16711 35.6180 101.30 74.00 11.60
16712 35.6200 79.50 73.73 10.30
16713 35.6220 78.40 73.48 10.20
16714 35.6240 66.20 73.25 9.30
16715 35.6260 66.00 73.13 9.50
16716 35.6280 93.70 72.96 11.10
16717 35.6300 69.60 72.84 9.60
16718 35.6320 69.40 72.74 9.60
16719 35.6340 71.30 72.67 9.70
16720 35.6360 83.30 72.62 10.60
16721 35.6380 54.40 72.61 8.50
16722 35.6400 89.30 72.63 10.90
16723 35.6420 85.40 72.68 10.70
16724 35.6440 58.00 72.77 8.70
16725 35.6460 52.30 72.88 8.40
16726 35.6480 79.90 73.03 10.30
16727 35.6500 95.30 73.22 11.30
16728 35.6520 105.80 73.48 11.80
16729 35.6540 84.70 73.83 10.50
16730 35.6560 91.50 74.30 11.10
16731 35.6580 83.10 74.89 10.50
16732 35.6600 86.20 75.58 10.60
16733 35.6620 82.00 76.30 10.50
16734 35.6640 84.10 76.94 10.50
16735 35.6660 100.90 77.43 11.70
16736 35.6680 81.40 77.78 10.40
16737 35.6700 83.00 78.00 10.50
16738 35.6720 82.60 78.07 10.50
16739 35.6740 76.70 78.00 9.90
16740 35.6760 86.60 77.80 10.80
16741 35.6780 92.70 77.44 11.10
16742 35.6800 71.90 76.92 9.70
16743 35.6820 80.00 76.34 10.30
16744 35.6840 67.90 75.83 9.50
16745 35.6860 74.80 75.48 10.00
16746 35.6880 72.80 75.34 9.80
16747 35.6900 87.20 75.40 10.80
16748 35.6920 81.50 75.67 10.40
16749 35.6940 79.80 76.12 10.20
16750 35.6960 65.10 76.70 9.40
16751 35.6980 90.20 77.29 10.90
16752 35.7000 77.30 77.76 10.10
16753 35.7020 89.20 78.03 10.90
16754 35.7040 74.30 78.08 9.80
16755 35.7060 69.40 77.96 9.70
16756 35.7080 56.30 77.75 8.60
16757 35.7100 72.30 77.53 9.80
16758 35.7120 80.60 77.27 10.40
16759 35.7140 77.50 76.91 10.10
16760 35.7160 84.50 76.38 10.60
16761 35.7180 90.90 75.73 11.00
16762 35.7200 75.20 75.08 10.00
16763 35.7220 69.80 74.50 9.60
16764 35.7240 80.10 74.03 10.30
16765 35.7260 81.90 73.66 10.50
16766 35.7280 83.40 73.39 10.50
16767 35.7300 80.50 73.20 10.30
16768 35.7320 94.20 73.08 11.10
16769 35.7340 82.40 73.03 10.50
16770 35.7360 91.10 73.03 11.00
16771 35.7380 70.00 73.09 9.70
16772 35.7400 81.80 73.21 10.40
16773 35.7420 89.40 73.40 10.90
16774 35.7440 74.90 73.66 9.90
16775 35.7460 82.90 73.99 10.60
16776 35.7480 82.70 74.34 10.40
16777 35.7500 78.60 74.64 10.20
16778 35.7520 73.90 74.79 9.90
16779 35.7540 76.50 74.76 10.00
16780 35.7560 85.10 74.64 10.80
16781 35.7580 60.10 74.50 8.90
16782 35.7600 59.90 74.41 8.90
16783 35.7620 84.10 74.39 10.60
16784 35.7640 82.60 74.44 10.40
16785 35.7660 86.90 74.55 10.80
16786 35.7680 57.10 74.77 8.70
16787 35.7700 96.80 75.10 11.40
16788 35.7720 81.90 75.55 10.40
16789 35.7740 72.00 76.07 9.70
16790 35.7760 73.20 76.53 10.00
16791 35.7780 85.30 76.76 10.70
16792 35.7800 85.30 76.67 10.60
16793 35.7820 94.10 76.33 11.20
16794 35.7840 73.10 75.92 9.80
16795 35.7860 75.70 75.55 10.10
16796 35.7880 86.70 75.29 10.70
16797 35.7900 78.40 75.17 10.30
16798 35.7920 68.80 75.17 9.60
16799 35.7940 73.20 75.29 9.80
16800 35.7960 79.90 75.52 10.40
16801 35.7980 84.70 75.87 10.70
16802 35.8000 75.60 76.45 10.00
16803 35.8020 73.80 77.01 9.90
16804 35.8040 68.90 77.65 9.60
16805 35.8060 75.80 78.29 10.10
16806 35.8080 75.60 78.80 10.10
16807 35.8100 72.80 79.10 9.80
16808 35.8120 67.70 79.18 9.50
16809 35.8140 79.20 79.07 10.20
16810 35.8160 81.10 78.79 10.40
16811 35.8180 67.90 78.42 9.60
16812 35.8200 75.20 78.03 10.00
16813 35.8220 80.60 77.71 10.30
16814 35.8240 71.90 77.50 9.70
16815 35.8260 82.80 77.40 10.60
16816 35.8280 72.20 77.40 9.80
16817 35.8300 94.40 77.49 11.20
16818 35.8320 68.60 77.67 9.50
16819 35.8340 90.30 77.92 10.90
16820 35.8360 75.90 78.25 10.10
16821 35.8380 77.00 78.67 10.10
16822 35.8400 97.20 79.18 11.30
16823 35.8420 99.80 79.79 11.50
16824 35.8440 101.50 80.51 11.50
16825 35.8460 96.10 81.34 11.40
16826 35.8480 99.50 82.25 11.50
16827 35.8500 75.80 83.18 10.00
16828 35.8520 80.40 84.09 10.30
16829 35.8540 81.30 84.94 10.40
16830 35.8560 76.00 85.77 10.10
16831 35.8580 71.80 86.67 9.80
16832 35.8600 105.40 87.72 11.70
16833 35.8620 103.40 89.03 11.70
16834 35.8640 104.50 90.64 11.70
16835 35.8660 81.10 92.62 10.40
16836 35.8680 105.00 95.05 11.80
16837 35.8700 109.20 98.02 12.00
16838 35.8720 124.10 101.66 12.80
16839 35.8740 109.40 106.19 12.00
16840 35.8760 125.30 111.83 13.00
16841 35.8780 121.90 118.99 12.70
16842 35.8800 107.10 128.24 11.90
16843 35.8820 143.50 140.35 13.80
16844 35.8840 170.20 156.55 14.90
16845 35.8860 187.30 178.51 15.70
16846 35.8880 195.80 208.74 16.20
16847 35.8900 245.70 250.14 18.10
16848 35.8920 303.60 304.72 20.00
16849 35.8940 394.50 369.41 22.70
16850 35.8960 458.70 427.28 24.80
16851 35.8980 431.40 448.76 23.90
16852 35.9000 418.60 419.69 23.30
16853 35.9020 334.30 359.92 21.00
16854 35.9040 289.70 298.21 19.40
16855 35.9060 224.80 247.77 17.30
16856 35.9080 197.30 209.91 16.20
16857 35.9100 167.00 182.24 14.90
16858 35.9120 183.90 161.90 15.50
16859 35.9140 161.50 146.86 14.60
16860 35.9160 138.80 135.71 13.50
16861 35.9180 142.90 127.40 13.80
16862 35.9200 103.70 121.17 11.60
16863 35.9220 143.20 116.57 13.70
16864 35.9240 120.00 113.27 12.50
16865 35.9260 106.90 111.03 12.00
16866 35.9280 116.50 109.72 12.30
16867 35.9300 102.80 109.22 11.60
16868 35.9320 93.50 109.49 11.10
16869 35.9340 100.00 110.51 11.40
16870 35.9360 92.70 112.32 11.10
16871 35.9380 103.40 115.02 11.70
16872 35.9400 94.00 118.79 11.10
16873 35.9420 104.70 123.85 11.70
16874 35.9440 145.20 130.35 13.80
16875 35.9460 135.80 138.51 13.50
16876 35.9480 146.00 148.61 13.90
16877 35.9500 133.20 161.35 13.20
16878 35.9520 179.00 178.08 15.40
16879 35.9540 162.60 201.00 14.70
16880 35.9560 256.90 233.10 18.60
16881 35.9580 268.30 277.59 18.90
16882 35.9600 384.60 336.66 22.50
16883 35.9620 407.20 405.45 23.20
16884 35.9640 473.20 464.06 24.80
16885 35.9660 467.90 480.28 25.10
16886 35.9680 368.80 442.55 22.10
16887 35.9700 343.70 375.25 21.20
16888 35.9720 309.90 308.35 20.30
16889 35.9740 260.30 254.45 18.50
16890 35.9760 226.90 214.42 17.40
16891 35.9780 184.60 185.25 15.60
16892 35.9800 150.00 164.02 14.10
16893 35.9820 155.20 148.28 14.30
16894 35.9840 136.00 136.49 13.30
16895 35.9860 111.20 127.61 12.20
16896 35.9880 119.90 120.89 12.60
16897 35.9900 114.50 115.86 12.20
16898 35.9920 114.00 112.12 12.30
16899 35.9940 138.50 109.48 13.50
16900 35.9960 126.60 107.76 13.10
16901 35.9980 109.90 106.88 12.10
16902 36.0000 123.00 106.75 12.70
16903 36.0020 116.00 107.32 12.40
16904 36.0040 124.00 108.49 12.80
16905 36.0060 109.10 110.28 12.10
16906 36.0080 115.30 112.71 12.60
16907 36.0100 111.10 115.90 12.70
16908 36.0120 129.70 120.11 14.20
16909 36.0140 107.30 125.83 13.10
16910 36.0160 151.70 133.88 15.60
16911 36.0180 131.40 145.39 14.40
16912 36.0200 160.90 161.61 15.90
16913 36.0220 179.10 183.70 16.80
16914 36.0240 199.80 211.80 17.80
16915 36.0260 253.70 242.16 20.10
16916 36.0280 246.60 264.55 19.70
16917 36.0300 281.00 266.54 21.00
16918 36.0320 231.60 246.53 19.20
16919 36.0340 207.90 215.62 18.10
16920 36.0360 173.70 185.42 16.70
16921 36.0380 143.10 160.72 15.00
16922 36.0400 132.80 141.85 14.50
16923 36.0420 136.70 127.86 14.60
16924 36.0440 120.50 117.43 13.80
16925 36.0460 119.40 109.56 13.80
16926 36.0480 84.50 103.56 11.50
16927 36.0500 90.40 98.90 11.90
16928 36.0520 93.90 95.23 12.30
16929 36.0540 80.30 92.29 11.30
16930 36.0560 94.90 89.91 12.30
16931 36.0580 96.10 87.96 12.30
16932 36.0600 87.00 86.34 11.80
16933 36.0620 91.10 84.99 11.90
16934 36.0640 85.90 83.86 11.60
16935 36.0660 69.40 82.90 10.50
16936 36.0680 68.30 82.09 10.40
16937 36.0700 80.20 81.40 11.20
16938 36.0720 82.60 80.83 11.40
16939 36.0740 80.20 80.36 11.30
16940 36.0760 99.40 79.97 12.60
16941 36.0780 62.20 79.68 9.90
16942 36.0800 82.20 79.48 11.40
16943 36.0820 78.40 79.37 11.10
16944 36.0840 90.50 79.36 12.00
16945 36.0860 95.00 79.45 12.30
16946 36.0880 76.60 79.60 11.00
16947 36.0900 71.60 79.78 10.60
16948 36.0920 67.40 79.92 10.30
16949 36.0940 92.50 79.98 12.10
16950 36.0960 85.80 79.97 11.70
16951 36.0980 78.00 79.98 11.00
16952 36.1000 94.10 80.08 12.10
16953 36.1020 89.40 80.29 11.80
16954 36.1040 79.30 80.47 11.20
16955 36.1060 74.50 80.43 10.90
16956 36.1080 101.50 80.18 12.60
16957 36.1100 73.60 79.89 10.70
16958 36.1120 66.40 79.77 10.20
16959 36.1140 79.00 79.69 11.20
16960 36.1160 74.80 79.69 11.00
16961 36.1180 78.40 79.71 11.00
16962 36.1200 66.90 79.68 10.20
16963 36.1220 96.60 79.61 12.40
16964 36.1240 81.40 79.57 11.30
16965 36.1260 71.90 79.62 10.70
16966 36.1280 68.90 79.84 10.40
16967 36.1300 105.30 80.26 12.80
16968 36.1320 65.70 80.89 10.20
16969 36.1340 97.20 81.67 12.40
16970 36.1360 81.30 82.44 11.40
16971 36.1380 88.80 82.97 11.90
16972 36.1400 102.70 83.08 12.60
16973 36.1420 87.90 82.77 11.70
16974 36.1440 53.70 82.24 9.30
16975 36.1460 75.80 81.74 11.00
16976 36.1480 87.20 81.40 11.70
16977 36.1500 77.20 81.26 10.90
16978 36.1520 75.90 81.25 11.00
16979 36.1540 79.10 81.28 11.10
16980 36.1560 54.70 81.26 9.40
16981 36.1580 75.40 81.17 10.80
16982 36.1600 77.30 81.10 11.00
16983 36.1620 82.60 81.12 11.30
16984 36.1640 82.50 81.29 11.40
16985 36.1660 95.30 81.63 12.30
16986 36.1680 95.20 82.15 12.20
16987 36.1700 81.90 82.84 11.20
16988 36.1720 106.00 83.65 12.90
16989 36.1740 84.30 84.49 11.60
16990 36.1760 85.70 85.28 11.70
16991 36.1780 84.90 86.10 11.60
16992 36.1800 90.20 87.09 11.90
16993 36.1820 95.40 88.30 12.20
16994 36.1840 79.80 89.69 11.20
16995 36.1860 77.50 91.16 11.10
16996 36.1880 85.60 92.67 11.60
16997 36.1900 120.10 94.25 13.70
16998 36.1920 96.90 95.96 12.40
16999 36.1940 97.60 97.79 12.50
17000 36.1960 104.80 99.79 13.00
17001 36.1980 119.70 102.12 13.70
17002 36.2000 114.20 105.01 13.30
17003 36.2020 122.80 108.72 13.90
17004 36.2040 136.00 113.51 14.70
17005 36.2060 152.20 119.72 15.50
17006 36.2080 128.70 127.77 14.30
17007 36.2100 122.40 138.23 13.70
17008 36.2120 145.40 151.92 15.10
17009 36.2140 157.70 170.08 15.70
17010 36.2160 194.40 194.10 17.70
17011 36.2180 233.60 225.92 19.10
17012 36.2200 268.20 267.35 20.50
17013 36.2220 288.00 317.96 21.30
17014 36.2240 362.80 372.27 23.90
17015 36.2260 344.00 414.82 23.40
17016 36.2280 413.60 425.77 25.50
17017 36.2300 418.10 398.49 25.60
17018 36.2320 354.50 347.79 23.60
17019 36.2340 310.50 293.29 22.20
17020 36.2360 219.00 246.16 18.80
17021 36.2380 175.30 209.15 16.60
17022 36.2400 159.80 181.07 15.80
17023 36.2420 146.50 159.90 15.20
17024 36.2440 120.00 143.99 13.80
17025 36.2460 118.40 131.87 13.80
17026 36.2480 91.50 122.50 12.00
17027 36.2500 107.20 115.22 12.90
17028 36.2520 103.80 109.47 12.80
17029 36.2540 89.50 104.84 11.90
17030 36.2560 84.70 100.99 11.70
17031 36.2580 85.60 97.69 11.60
17032 36.2600 108.60 94.82 13.00
17033 36.2620 106.80 92.32 13.00
17034 36.2640 83.00 90.18 11.40
17035 36.2660 76.40 88.36 11.10
17036 36.2680 72.40 86.81 10.70
17037 36.2700 68.80 85.49 10.40
17038 36.2720 88.70 84.35 11.80
17039 36.2740 73.90 83.35 10.90
17040 36.2760 69.80 82.46 10.60
17041 36.2780 67.80 81.66 10.40
17042 36.2800 96.90 80.80 12.30
17043 36.2820 79.20 80.15 11.20
17044 36.2840 97.10 79.58 12.30
17045 36.2860 69.90 79.08 10.60
17046 36.2880 63.70 78.63 10.00
17047 36.2900 81.80 78.24 11.30
17048 36.2920 87.00 77.91 11.70
17049 36.2940 98.00 77.61 12.50
17050 36.2960 77.70 77.36 11.10
17051 36.2980 87.90 77.21 11.70
17052 36.3000 77.00 77.04 11.00
17053 36.3020 79.50 76.92 11.10
17054 36.3040 88.30 76.84 11.80
17055 36.3060 59.80 76.81 9.80
17056 36.3080 65.20 76.83 10.20
17057 36.3100 91.40 76.92 11.90
17058 36.3120 84.80 77.07 11.60
17059 36.3140 66.60 77.26 10.30
17060 36.3160 79.50 77.46 11.30
17061 36.3180 82.50 77.63 11.30
17062 36.3200 98.60 77.78 12.40
17063 36.3220 76.20 77.97 10.90
17064 36.3240 93.30 78.26 12.20
17065 36.3260 80.60 78.71 11.30
17066 36.3280 85.90 79.32 11.50
17067 36.3300 85.20 80.06 11.50
17068 36.3320 88.30 80.84 11.80
17069 36.3340 92.30 81.59 12.10
17070 36.3360 77.80 82.28 11.10
17071 36.3380 90.20 82.80 11.90
17072 36.3400 75.80 83.00 10.90
17073 36.3420 91.40 82.73 12.00
17074 36.3440 92.40 82.04 12.10
17075 36.3460 85.40 81.07 11.70
17076 36.3480 83.60 79.89 11.40
17077 36.3500 76.50 78.95 10.90
17078 36.3520 92.00 78.20 12.00
17079 36.3540 73.90 77.66 10.80
17080 36.3560 84.90 77.31 11.60
17081 36.3580 92.10 77.12 12.00
17082 36.3600 86.80 77.06 11.60
17083 36.3620 97.90 77.09 12.40
17084 36.3640 88.00 77.22 11.80
17085 36.3660 84.80 77.47 11.60
17086 36.3680 72.10 77.85 10.60
17087 36.3700 84.50 78.34 11.40
17088 36.3720 86.20 78.81 11.60
17089 36.3740 85.20 79.10 11.60
17090 36.3760 90.50 79.14 12.00
17091 36.3780 81.20 79.04 11.30
17092 36.3800 102.10 78.95 12.60
17093 36.3820 74.00 78.89 10.80
17094 36.3840 91.60 78.77 12.00
17095 36.3860 97.00 78.49 12.40
17096 36.3880 92.40 78.04 12.00
17097 36.3900 83.60 77.48 11.40
17098 36.3920 77.90 76.88 11.00
17099 36.3940 78.40 76.32 11.20
17100 36.3960 81.20 75.83 11.30
17101 36.3980 69.00 75.49 10.40
17102 36.4000 65.10 75.19 10.00
17103 36.4020 65.80 74.96 10.20
17104 36.4040 95.60 74.79 12.30
17105 36.4060 67.60 74.67 10.30
17106 36.4080 78.20 74.60 11.00
17107 36.4100 88.50 74.56 11.70
17108 36.4120 88.40 74.56 11.80
17109 36.4140 85.40 74.58 11.60
17110 36.4160 90.20 74.63 11.90
17111 36.4180 81.20 74.70 11.30
17112 36.4200 63.20 74.80 9.80
17113 36.4220 81.40 74.93 11.20
17114 36.4240 90.50 75.10 12.00
17115 36.4260 97.30 75.32 12.30
17116 36.4280 71.80 75.65 10.60
17117 36.4300 77.10 75.99 10.90
17118 36.4320 63.30 76.40 9.90
17119 36.4340 71.50 76.87 10.60
17120 36.4360 76.70 77.33 11.00
17121 36.4380 71.70 77.85 10.60
17122 36.4400 72.30 78.32 10.50
17123 36.4420 72.20 78.73 10.60
17124 36.4440 81.10 79.17 11.30
17125 36.4460 69.80 79.71 10.50
17126 36.4480 60.60 80.39 9.70
17127 36.4500 76.70 81.14 10.90
17128 36.4520 79.90 81.83 11.10
17129 36.4540 83.20 82.30 11.50
17130 36.4560 84.20 82.53 11.60
17131 36.4580 85.80 82.62 11.60
17132 36.4600 78.40 82.68 11.00
17133 36.4620 101.80 82.82 12.70
17134 36.4640 101.70 83.12 12.70
17135 36.4660 96.30 83.65 12.30
17136 36.4680 94.10 84.47 12.10
17137 36.4700 99.10 85.63 12.40
17138 36.4720 90.00 87.18 11.80
17139 36.4740 75.40 89.21 11.00
17140 36.4760 93.00 91.85 12.10
17141 36.4780 100.20 95.27 12.50
17142 36.4800 88.50 99.71 11.70
17143 36.4820 92.30 105.50 12.00
17144 36.4840 77.60 113.11 11.10
17145 36.4860 105.90 123.07 12.90
17146 36.4880 146.90 136.31 15.20
17147 36.4900 150.60 154.07 15.30
17148 36.4920 200.30 177.41 17.80
17149 36.4940 223.40 205.21 18.80
17150 36.4960 219.20 230.87 18.70
17151 36.4980 234.70 241.72 19.20
17152 36.5000 237.50 230.29 19.20
17153 36.5020 192.60 204.06 17.40
17154 36.5040 178.10 175.62 16.80
17155 36.5060 153.80 151.70 15.60
17156 36.5080 139.20 133.69 14.70
17157 36.5100 115.10 120.54 13.40
17158 36.5120 104.10 110.99 12.80
17159 36.5140 123.30 104.05 14.10
17160 36.5160 112.20 98.96 13.40
17161 36.5180 90.60 95.21 12.00
17162 36.5200 99.90 92.48 12.60
17163 36.5220 93.70 90.55 12.20
17164 36.5240 86.00 89.26 11.70
17165 36.5260 111.30 88.49 13.40
17166 36.5280 87.20 88.08 11.70
17167 36.5300 88.20 87.77 11.80
17168 36.5320 92.80 87.29 12.10
17169 36.5340 78.10 86.49 11.20
17170 36.5360 86.10 85.51 11.70
17171 36.5380 81.00 84.57 11.30
17172 36.5400 84.00 83.83 11.60
17173 36.5420 93.00 83.31 12.10
17174 36.5440 81.30 82.88 11.40
17175 36.5460 94.20 82.38 12.30
17176 36.5480 73.80 81.69 10.80
17177 36.5500 84.10 80.88 11.50
17178 36.5520 84.00 80.05 11.60
17179 36.5540 66.90 79.32 10.40
17180 36.5560 93.10 78.74 12.20
17181 36.5580 71.60 78.31 10.60
17182 36.5600 78.70 78.03 11.30
17183 36.5620 103.80 77.89 12.80
17184 36.5640 104.50 77.88 12.90
17185 36.5660 82.40 78.00 11.50
17186 36.5680 85.30 78.23 11.70
17187 36.5700 72.30 78.55 10.70
17188 36.5720 69.10 78.91 10.50
17189 36.5740 79.20 79.32 11.30
17190 36.5760 101.40 79.80 12.80
17191 36.5780 70.00 80.39 10.60
17192 36.5800 71.40 81.05 10.60
17193 36.5820 93.00 81.72 12.20
17194 36.5840 84.80 82.30 11.60
17195 36.5860 96.90 82.62 12.50
17196 36.5880 83.20 82.47 11.50
17197 36.5900 77.90 81.81 11.10
17198 36.5920 103.70 80.81 12.80
17199 36.5940 87.10 79.74 11.80
17200 36.5960 68.10 78.78 10.50
17201 36.5980 80.80 78.00 11.40
17202 36.6000 97.00 77.41 12.40
17203 36.6020 82.60 76.97 11.30
17204 36.6040 74.60 76.67 10.90
17205 36.6060 86.30 76.47 11.80
17206 36.6080 76.90 76.37 11.00
17207 36.6100 71.70 76.35 10.60
17208 36.6120 76.20 76.42 11.00
17209 36.6140 90.70 76.58 12.00
17210 36.6160 90.10 76.83 12.00
17211 36.6180 89.30 77.19 11.90
17212 36.6200 68.20 77.66 10.40
17213 36.6220 77.70 78.24 11.00
17214 36.6240 62.10 78.87 9.90
17215 36.6260 81.80 79.45 11.50
17216 36.6280 78.40 79.84 11.10
17217 36.6300 84.10 79.97 11.40
17218 36.6320 90.30 79.87 12.00
17219 36.6340 68.80 79.64 10.50
17220 36.6360 91.50 79.38 12.10
17221 36.6380 85.50 79.18 11.60
17222 36.6400 93.80 79.12 12.20
17223 36.6420 84.40 79.22 11.50
17224 36.6440 86.80 79.50 11.70
17225 36.6460 77.80 79.97 11.20
17226 36.6480 83.70 80.61 11.40
17227 36.6500 96.40 81.37 12.20
17228 36.6520 65.00 82.13 10.10
17229 36.6540 104.50 82.73 12.90
17230 36.6560 69.10 83.08 10.50
17231 36.6580 84.90 83.13 11.50
17232 36.6600 88.90 83.34 11.80
17233 36.6620 77.50 83.72 11.00
17234 36.6640 88.80 84.36 11.80
17235 36.6660 89.80 85.31 12.00
17236 36.6680 91.60 86.59 11.90
17237 36.6700 91.50 88.20 12.00
17238 36.6720 91.50 90.18 11.90
17239 36.6740 88.60 92.61 11.90
17240 36.6760 103.70 95.66 13.00
17241 36.6780 105.40 99.58 12.80
17242 36.6800 134.30 104.78 14.50
17243 36.6820 102.80 111.71 12.70
17244 36.6840 137.00 121.06 14.80
17245 36.6860 145.90 133.72 15.20
17246 36.6880 148.40 150.60 15.20
17247 36.6900 196.90 172.45 17.80
17248 36.6920 201.50 198.32 17.70
17249 36.6940 247.10 222.41 19.90
17250 36.6960 225.80 234.07 19.00
17251 36.6980 222.60 225.99 18.60
17252 36.7000 202.80 203.34 17.80
17253 36.7020 141.90 177.31 14.90
17254 36.7040 172.00 154.88 16.50
17255 36.7060 129.20 137.71 14.30
17256 36.7080 134.40 125.16 14.40
17257 36.7100 149.30 115.97 15.30
17258 36.7120 102.70 108.93 12.70
17259 36.7140 100.90 103.21 12.70
17260 36.7160 89.90 98.45 12.00
17261 36.7180 83.60 94.50 11.40
17262 36.7200 93.90 91.27 12.10
17263 36.7220 98.50 88.69 12.40
17264 36.7240 93.30 86.62 12.20
17265 36.7260 86.60 84.96 11.80
17266 36.7280 78.00 83.64 11.10
17267 36.7300 95.20 82.59 12.20
17268 36.7320 103.80 81.75 12.80
17269 36.7340 82.70 81.05 11.50
17270 36.7360 81.20 80.45 11.50
17271 36.7380 58.90 79.99 9.70
17272 36.7400 82.20 79.44 11.30
17273 36.7420 77.00 78.92 11.00
17274 36.7440 73.80 78.45 10.80
17275 36.7460 75.20 78.05 11.00
17276 36.7480 83.10 77.71 11.40
17277 36.7500 82.00 77.43 11.30
17278 36.7520 79.10 77.21 11.20
17279 36.7540 56.30 77.03 9.50
17280 36.7560 85.40 76.88 11.70
17281 36.7580 75.20 76.78 10.80
17282 36.7600 65.30 76.71 10.20
17283 36.7620 72.80 76.67 10.70
17284 36.7640 60.60 76.67 9.80
17285 36.7660 62.90 76.71 10.10
17286 36.7680 87.90 76.78 11.70
17287 36.7700 74.80 76.90 10.80
17288 36.7720 75.60 77.08 10.90
17289 36.7740 67.80 77.32 10.40
17290 36.7760 80.20 77.64 11.40
17291 36.7780 81.10 78.08 11.20
17292 36.7800 71.50 78.64 10.60
17293 36.7820 81.60 79.36 11.30
17294 36.7840 78.30 80.21 11.20
17295 36.7860 86.70 81.13 11.80
17296 36.7880 73.40 81.93 10.60
17297 36.7900 85.30 82.37 11.60
17298 36.7920 58.70 82.33 9.60
17299 36.7940 67.00 81.95 10.30
17300 36.7960 65.40 81.45 10.30
17301 36.7980 71.80 81.02 10.60
17302 36.8000 81.80 80.73 11.30
17303 36.8020 74.40 80.60 10.80
17304 36.8040 99.70 80.63 12.60
17305 36.8060 90.60 80.80 12.00
17306 36.8080 80.80 81.01 11.20
17307 36.8100 65.60 81.16 10.20
17308 36.8120 81.80 81.16 11.30
17309 36.8140 94.10 81.00 12.20
17310 36.8160 100.60 80.80 12.80
17311 36.8180 68.80 80.64 10.30
17312 36.8200 100.80 80.59 12.60
17313 36.8220 81.20 80.65 11.30
17314 36.8240 90.20 80.82 11.90
17315 36.8260 72.90 81.09 10.80
17316 36.8280 92.10 81.45 11.90
17317 36.8300 106.20 81.91 12.90
17318 36.8320 78.50 82.45 11.10
17319 36.8340 80.40 83.11 11.30
17320 36.8360 101.20 83.87 12.70
17321 36.8380 79.80 84.77 11.20
17322 36.8400 85.10 85.80 11.50
17323 36.8420 69.00 87.01 10.40
17324 36.8440 81.00 88.40 11.30
17325 36.8460 79.40 90.03 11.30
17326 36.8480 115.40 91.95 13.30
17327 36.8500 90.20 94.24 11.90
17328 36.8520 112.00 96.97 13.30
17329 36.8540 87.40 100.23 11.90
17330 36.8560 107.30 104.09 13.10
17331 36.8580 97.50 108.59 12.30
17332 36.8600 119.30 113.71 13.60
17333 36.8620 124.30 119.52 13.90
17334 36.8640 142.50 126.37 15.00
17335 36.8660 138.40 134.89 14.80
17336 36.8680 158.30 145.84 15.60
17337 36.8700 159.20 160.20 15.70
17338 36.8720 157.50 178.98 15.70
17339 36.8740 163.60 203.45 16.20
17340 36.8760 179.80 234.57 17.00
17341 36.8780 215.90 272.10 18.30
17342 36.8800 238.80 313.09 19.10
17343 36.8820 281.50 349.20 21.10
17344 36.8840 337.70 368.75 23.20
17345 36.8860 360.00 363.08 23.80
17346 36.8880 354.10 334.37 23.40
17347 36.8900 299.40 294.05 21.50
17348 36.8920 272.30 253.20 20.60
17349 36.8940 214.20 217.85 18.50
17350 36.8960 206.00 189.54 18.10
17351 36.8980 160.00 167.50 15.70
17352 36.9000 140.20 150.58 14.80
17353 36.9020 114.40 137.54 13.50
17354 36.9040 124.30 127.45 14.10
17355 36.9060 118.90 119.58 13.80
17356 36.9080 85.60 113.33 11.50
17357 36.9100 87.20 108.27 11.70
17358 36.9120 94.40 104.05 12.20
17359 36.9140 111.90 100.47 13.40
17360 36.9160 72.90 97.42 10.80
17361 36.9180 88.00 94.86 11.70
17362 36.9200 101.60 92.73 12.60
17363 36.9220 66.40 90.99 10.20
17364 36.9240 88.60 89.59 11.90
17365 36.9260 93.40 88.48 12.20
17366 36.9280 80.90 87.62 11.20
17367 36.9300 86.50 86.92 11.70
17368 36.9320 75.90 86.29 11.00
17369 36.9340 74.20 85.60 10.90
17370 36.9360 108.80 84.77 13.20
17371 36.9380 67.70 83.88 10.30
17372 36.9400 70.00 82.99 10.50
17373 36.9420 78.20 82.18 11.10
17374 36.9440 94.00 81.44 12.30
17375 36.9460 88.40 80.79 12.00
17376 36.9480 74.10 80.23 10.80
17377 36.9500 64.20 79.75 10.10
17378 36.9520 71.20 79.36 10.60
17379 36.9540 83.70 79.05 11.60
17380 36.9560 89.50 78.81 12.00
17381 36.9580 101.00 78.64 12.60
17382 36.9600 56.60 78.54 9.40
17383 36.9620 72.30 78.49 10.60
17384 36.9640 74.50 78.49 10.90
17385 36.9660 74.40 78.55 10.90
17386 36.9680 78.50 78.66 11.10
17387 36.9700 74.40 78.84 10.80
17388 36.9720 80.40 79.07 11.30
17389 36.9740 84.60 79.31 11.70
17390 36.9760 79.10 79.52 11.30
17391 36.9780 74.10 79.70 10.80
17392 36.9800 93.20 79.87 12.20
17393 36.9820 94.80 80.03 12.10
17394 36.9840 85.70 80.16 11.70
17395 36.9860 79.40 80.21 11.30
17396 36.9880 74.20 80.19 10.80
17397 36.9900 85.50 80.06 11.60
17398 36.9920 77.80 79.83 11.00
17399 36.9940 107.10 79.49 13.10
17400 36.9960 77.90 79.14 11.20
17401 36.9980 84.00 78.85 11.50
17402 37.0000 97.00 78.69 12.30
17403 37.0020 76.90 78.65 11.00
17404 37.0040 88.80 78.70 11.90
17405 37.0060 84.50 78.79 11.60
17406 37.0080 70.20 78.87 10.50
17407 37.0100 83.80 78.96 11.50
17408 37.0120 89.80 79.10 11.80
17409 37.0140 56.40 79.54 9.60
17410 37.0160 109.00 79.98 13.20
17411 37.0180 91.60 80.64 11.90
17412 37.0200 99.90 81.56 12.40
17413 37.0220 89.80 82.71 11.90
17414 37.0240 80.00 84.03 11.30
17415 37.0260 96.20 85.29 12.40
17416 37.0280 103.30 86.13 12.80
17417 37.0300 90.00 86.25 11.80
17418 37.0320 86.20 85.60 11.60
17419 37.0340 79.90 84.46 11.40
17420 37.0360 92.40 83.20 12.10
17421 37.0380 89.10 82.07 11.80
17422 37.0400 92.20 81.19 12.00
17423 37.0420 79.80 80.57 11.20
17424 37.0440 81.80 80.19 11.40
17425 37.0460 68.90 80.01 10.50
17426 37.0480 78.60 80.02 11.10
17427 37.0500 83.90 80.22 11.40
17428 37.0520 92.80 80.58 12.00
17429 37.0540 90.50 81.04 12.10
17430 37.0560 76.10 81.43 11.00
17431 37.0580 81.60 81.61 11.30
17432 37.0600 78.60 81.49 11.10
17433 37.0620 73.10 81.11 10.70
17434 37.0640 73.30 80.58 10.90
17435 37.0660 86.00 80.01 11.70
17436 37.0680 78.10 79.52 11.00
17437 37.0700 68.80 79.15 10.30
17438 37.0720 78.70 78.90 11.10
17439 37.0740 79.80 78.77 11.30
17440 37.0760 84.00 78.75 11.50
17441 37.0780 58.80 78.83 9.60
17442 37.0800 79.30 79.01 11.10
17443 37.0820 71.50 79.27 10.60
17444 37.0840 85.50 79.60 11.70
17445 37.0860 81.60 79.97 11.40
17446 37.0880 84.80 80.35 11.60
17447 37.0900 84.00 80.75 11.50
17448 37.0920 80.30 81.17 11.20
17449 37.0940 85.80 81.63 11.70
17450 37.0960 84.30 82.12 11.60
17451 37.0980 88.80 82.59 11.80
17452 37.1000 87.40 83.18 11.60
17453 37.1020 74.40 83.86 10.80
17454 37.1040 85.30 84.63 11.70
17455 37.1060 99.00 85.47 12.60
17456 37.1080 80.50 86.34 11.30
17457 37.1100 112.50 87.26 13.20
17458 37.1120 102.00 88.28 12.50
17459 37.1140 101.00 89.49 12.70
17460 37.1160 113.20 90.97 13.40
17461 37.1180 103.50 92.78 12.80
17462 37.1200 96.50 95.01 12.20
17463 37.1220 85.40 97.72 11.60
17464 37.1240 99.20 101.05 12.60
17465 37.1260 98.00 105.15 12.50
17466 37.1280 122.80 110.30 13.80
17467 37.1300 140.10 116.86 14.70
17468 37.1320 137.40 125.30 14.60
17469 37.1340 144.00 136.35 15.10
17470 37.1360 168.70 150.92 16.30
17471 37.1380 162.60 170.38 15.90
17472 37.1400 188.80 196.41 17.00
17473 37.1420 272.60 230.77 20.70
17474 37.1440 308.40 274.32 22.00
17475 37.1460 290.90 323.40 21.40
17476 37.1480 340.70 365.22 23.10
17477 37.1500 350.10 380.37 23.10
17478 37.1520 326.30 359.73 22.70
17479 37.1540 313.50 316.10 22.30
17480 37.1560 281.70 268.64 21.10
17481 37.1580 240.80 227.82 19.40
17482 37.1600 189.60 196.06 17.10
17483 37.1620 169.20 171.89 16.20
17484 37.1640 175.10 153.61 16.80
17485 37.1660 133.70 139.81 14.50
17486 37.1680 120.60 129.23 13.70
17487 37.1700 125.60 120.81 13.90
17488 37.1720 98.10 113.86 12.40
17489 37.1740 84.00 108.07 11.60
17490 37.1760 104.40 103.28 12.80
17491 37.1780 85.90 99.36 11.60
17492 37.1800 84.70 96.16 11.30
17493 37.1820 114.40 93.57 13.50
17494 37.1840 93.30 91.45 12.20
17495 37.1860 96.40 89.70 12.30
17496 37.1880 95.80 88.21 12.30
17497 37.1900 78.40 86.91 11.00
17498 37.1920 87.20 85.71 11.70
17499 37.1940 84.50 84.62 11.70
17500 37.1960 76.50 83.65 11.10
17501 37.1980 88.40 82.82 11.80
17502 37.2000 75.10 82.12 10.80
17503 37.2020 89.30 81.55 11.90
17504 37.2040 97.20 81.08 12.50
17505 37.2060 94.30 80.68 12.20
17506 37.2080 88.80 80.44 11.90
17507 37.2100 77.60 80.08 10.90
17508 37.2120 67.60 79.73 10.40
17509 37.2140 70.50 79.41 10.60
17510 37.2160 56.90 79.16 9.60
17511 37.2180 82.70 79.01 11.40
17512 37.2200 94.20 78.93 12.10
17513 37.2220 73.20 78.87 10.70
17514 37.2240 60.90 78.74 9.90
17515 37.2260 59.50 78.51 9.70
17516 37.2280 72.50 78.24 10.70
17517 37.2300 92.50 78.01 12.00
17518 37.2320 84.80 77.83 11.60
17519 37.2340 52.30 77.70 9.20
17520 37.2360 76.80 77.58 11.10
17521 37.2380 79.40 77.43 11.30
17522 37.2400 79.00 77.29 11.00
17523 37.2420 70.40 77.17 10.60
17524 37.2440 68.40 77.11 10.50
17525 37.2460 77.40 77.11 11.10
17526 37.2480 81.00 77.17 11.30
17527 37.2500 83.40 77.29 11.40
17528 37.2520 87.70 77.43 11.70
17529 37.2540 75.20 77.54 11.00
17530 37.2560 74.50 77.57 10.90
17531 37.2580 74.00 77.50 10.80
17532 37.2600 64.30 77.39 10.00
17533 37.2620 90.00 77.28 11.90
17534 37.2640 72.50 77.23 10.90
17535 37.2660 92.60 77.22 12.10
17536 37.2680 72.70 77.28 10.80
17537 37.2700 78.00 77.39 11.00
17538 37.2720 59.50 77.58 9.70
17539 37.2740 81.40 77.86 11.50
17540 37.2760 70.80 78.25 10.60
17541 37.2780 81.10 78.78 11.30
17542 37.2800 81.50 79.49 11.30
17543 37.2820 75.50 80.47 10.90
17544 37.2840 87.80 81.78 11.80
17545 37.2860 67.00 83.43 10.40
17546 37.2880 94.10 85.26 12.20
17547 37.2900 76.20 86.76 10.90
17548 37.2920 109.30 87.25 13.10
17549 37.2940 94.00 86.61 12.30
17550 37.2960 76.30 85.42 11.00
17551 37.2980 92.00 84.31 12.10
17552 37.3000 85.40 83.51 11.50
17553 37.3020 75.90 83.01 10.90
17554 37.3040 65.90 82.73 10.30
17555 37.3060 88.50 82.64 11.80
17556 37.3080 78.40 82.76 11.20
17557 37.3100 78.40 83.12 11.00
17558 37.3120 85.90 83.70 11.70
17559 37.3140 97.90 84.39 12.50
17560 37.3160 102.70 84.98 12.70
17561 37.3180 93.60 85.29 12.20
17562 37.3200 95.90 85.31 12.20
17563 37.3220 112.20 85.18 13.20
17564 37.3240 87.10 85.04 11.90
17565 37.3260 97.90 84.98 12.40
17566 37.3280 84.90 84.92 11.60
17567 37.3300 87.70 84.73 11.70
17568 37.3320 89.30 84.29 11.80
17569 37.3340 108.00 83.65 13.20
17570 37.3360 93.10 82.98 12.20
17571 37.3380 86.50 82.41 11.70
17572 37.3400 83.00 82.01 11.40
17573 37.3420 57.80 81.77 9.60
17574 37.3440 84.30 81.68 11.60
17575 37.3460 81.10 81.66 11.40
17576 37.3480 89.00 81.81 11.90
17577 37.3500 96.40 82.06 12.30
17578 37.3520 100.20 82.41 12.50
17579 37.3540 82.20 82.85 11.50
17580 37.3560 94.20 83.39 12.30
17581 37.3580 78.30 84.03 11.10
17582 37.3600 101.30 84.78 12.70
17583 37.3620 75.60 85.64 10.90
17584 37.3640 84.10 86.62 11.60
17585 37.3660 69.00 87.74 10.50
17586 37.3680 116.70 89.01 13.60
17587 37.3700 102.20 90.40 12.60
17588 37.3720 94.40 92.03 12.20
17589 37.3740 108.40 93.93 13.20
17590 37.3760 95.50 96.16 12.30
17591 37.3780 104.80 98.80 12.90
17592 37.3800 119.50 101.98 13.70
17593 37.3820 109.10 105.82 13.10
17594 37.3840 114.40 110.49 13.60
17595 37.3860 121.40 116.21 13.90
17596 37.3880 107.30 123.33 13.00
17597 37.3900 157.30 132.24 15.70
17598 37.3920 118.70 143.61 13.60
17599 37.3940 172.90 158.45 16.60
17600 37.3960 184.80 177.99 17.20
17601 37.3980 215.00 204.19 18.40
17602 37.4000 226.70 239.68 18.80
17603 37.4020 289.80 287.68 21.40
17604 37.4040 357.80 350.94 24.00
17605 37.4060 464.20 428.18 27.30
17606 37.4080 479.90 505.23 27.50
17607 37.4100 522.20 550.68 28.60
17608 37.4120 573.10 536.98 30.10
17609 37.4140 439.10 473.33 26.40
17610 37.4160 405.00 393.28 25.40
17611 37.4180 326.70 321.77 22.50
17612 37.4200 255.20 265.84 20.00
17613 37.4220 221.80 224.06 18.60
17614 37.4240 220.10 193.29 18.80
17615 37.4260 181.00 170.28 17.00
17616 37.4280 152.40 152.80 15.50
17617 37.4300 139.10 139.39 14.80
17618 37.4320 141.60 128.97 14.90
17619 37.4340 122.30 120.76 14.00
17620 37.4360 139.20 114.20 14.90
17621 37.4380 121.40 108.91 13.80
17622 37.4400 107.50 104.56 13.00
17623 37.4420 73.40 100.97 10.70
17624 37.4440 86.80 98.01 11.80
17625 37.4460 76.50 95.54 11.10
17626 37.4480 85.80 93.49 11.60
17627 37.4500 94.30 91.78 12.20
17628 37.4520 87.50 90.33 11.70
17629 37.4540 92.10 89.08 12.10
17630 37.4560 81.40 87.93 11.50
17631 37.4580 83.50 86.87 11.40
17632 37.4600 96.80 85.87 12.30
17633 37.4620 95.30 84.97 12.30
17634 37.4640 97.70 84.18 12.50
17635 37.4660 104.20 83.53 12.90
17636 37.4680 94.90 83.00 12.20
17637 37.4700 64.90 82.60 10.10
17638 37.4720 94.00 82.34 12.10
17639 37.4740 82.60 82.21 11.50
17640 37.4760 93.70 82.21 12.30
17641 37.4780 70.60 82.34 10.60
17642 37.4800 90.40 82.54 11.90
17643 37.4820 68.80 82.70 10.40
17644 37.4840 78.40 82.64 11.20
17645 37.4860 71.00 82.29 10.70
17646 37.4880 99.50 81.68 12.50
17647 37.4900 79.00 80.97 11.20
17648 37.4920 73.00 80.30 10.70
17649 37.4940 84.80 79.73 11.60
17650 37.4960 78.20 79.26 11.20
17651 37.4980 92.00 78.90 12.00
17652 37.5000 99.30 78.63 12.40
17653 37.5020 72.60 78.44 10.70
17654 37.5040 74.40 78.31 10.90
17655 37.5060 89.90 78.25 12.00
17656 37.5080 85.50 78.25 11.50
17657 37.5100 88.40 78.32 11.80
17658 37.5120 82.60 78.47 11.40
17659 37.5140 95.50 78.70 12.40
17660 37.5160 87.60 79.00 11.80
17661 37.5180 85.20 79.33 11.60
17662 37.5200 74.60 79.62 10.80
17663 37.5220 82.90 79.77 11.40
17664 37.5240 79.20 79.71 11.20
17665 37.5260 76.10 79.50 11.10
17666 37.5280 68.60 79.24 10.30
17667 37.5300 81.30 79.02 11.30
17668 37.5320 73.30 78.87 10.70
17669 37.5340 92.20 78.82 12.20
17670 37.5360 83.40 78.85 11.50
17671 37.5380 71.00 78.97 10.60
17672 37.5400 64.10 79.17 10.00
17673 37.5420 77.20 79.46 11.00
17674 37.5440 67.20 79.84 10.30
17675 37.5460 86.10 80.29 11.70
17676 37.5480 93.50 80.74 12.10
17677 37.5500 94.20 81.09 12.20
17678 37.5520 91.50 81.35 12.00
17679 37.5540 88.10 81.71 11.90
17680 37.5560 77.30 82.03 11.20
17681 37.5580 82.10 82.48 11.30
17682 37.5600 77.70 83.06 11.10
17683 37.5620 76.40 83.79 10.90
17684 37.5640 98.20 84.56 12.50
17685 37.5660 75.70 85.63 11.00
17686 37.5680 71.20 86.90 10.60
17687 37.5700 89.00 88.39 11.80
17688 37.5720 80.30 90.15 11.20
17689 37.5740 89.20 92.18 11.90
17690 37.5760 88.40 94.57 11.90
17691 37.5780 91.50 97.40 12.00
17692 37.5800 94.70 100.79 12.10
17693 37.5820 113.50 104.84 13.30
17694 37.5840 82.70 109.72 11.50
17695 37.5860 104.30 115.75 12.90
17696 37.5880 113.40 123.40 13.30
17697 37.5900 146.50 133.31 15.20
17698 37.5920 121.10 146.39 13.80
17699 37.5940 142.50 163.99 15.10
17700 37.5960 184.20 188.03 17.20
17701 37.5980 224.00 220.61 18.70
17702 37.6000 273.50 263.70 20.60
17703 37.6020 367.10 316.46 24.00
17704 37.6040 367.50 368.98 24.00
17705 37.6060 423.40 400.38 26.10
17706 37.6080 361.50 391.83 23.90
17707 37.6100 308.80 348.94 22.00
17708 37.6120 252.50 294.44 19.90
17709 37.6140 297.10 245.19 21.80
17710 37.6160 208.50 206.38 18.30
17711 37.6180 171.40 177.48 16.30
17712 37.6200 146.50 156.31 15.10
17713 37.6220 140.80 140.75 14.80
17714 37.6240 121.00 129.17 13.90
17715 37.6260 133.50 120.51 14.60
17716 37.6280 114.00 113.86 13.30
17717 37.6300 102.60 108.56 12.70
17718 37.6320 126.70 104.18 14.00
17719 37.6340 92.40 100.43 12.10
17720 37.6360 109.80 97.18 13.30
17721 37.6380 114.90 94.41 13.40
17722 37.6400 106.60 92.11 12.90
17723 37.6420 95.50 90.21 12.20
17724 37.6440 71.00 88.67 10.70
17725 37.6460 101.00 87.46 12.70
17726 37.6480 98.20 86.54 12.40
17727 37.6500 85.50 85.90 11.50
17728 37.6520 71.90 85.52 10.60
17729 37.6540 73.90 85.41 10.90
17730 37.6560 108.20 85.56 13.20
17731 37.6580 88.40 85.95 11.70
17732 37.6600 75.60 86.46 10.80
17733 37.6620 97.70 86.90 12.40
17734 37.6640 84.20 87.12 11.60
17735 37.6660 87.10 87.05 11.80
17736 37.6680 90.60 86.67 11.90
17737 37.6700 91.30 85.98 12.00
17738 37.6720 80.60 85.06 11.20
17739 37.6740 101.00 84.09 12.70
17740 37.6760 89.70 83.24 12.00
17741 37.6780 102.10 82.59 12.60
17742 37.6800 84.70 82.09 11.50
17743 37.6820 83.40 81.61 11.40
17744 37.6840 82.10 81.04 11.40
17745 37.6860 99.40 80.37 12.70
17746 37.6880 78.50 79.67 11.00
17747 37.6900 73.90 79.05 10.80
17748 37.6920 54.60 78.53 9.30
17749 37.6940 70.70 78.09 10.70
17750 37.6960 82.10 77.70 11.50
17751 37.6980 88.60 77.32 11.70
17752 37.7000 82.90 76.93 11.40
17753 37.7020 86.00 76.57 11.60
17754 37.7040 64.60 76.24 10.20
17755 37.7060 64.60 75.96 10.20
17756 37.7080 83.10 75.72 11.40
17757 37.7100 69.10 75.53 10.40
17758 37.7120 71.10 75.37 10.60
17759 37.7140 79.30 75.24 11.30
17760 37.7160 76.30 75.14 11.10
17761 37.7180 72.60 75.08 10.60
17762 37.7200 84.40 75.03 11.50
17763 37.7220 66.60 75.01 10.20
17764 37.7240 89.10 75.02 11.90
17765 37.7260 87.60 75.07 11.90
17766 37.7280 88.20 75.15 11.70
17767 37.7300 64.10 75.29 10.00
17768 37.7320 55.20 75.48 9.30
17769 37.7340 74.70 75.72 11.00
17770 37.7360 84.40 75.97 11.70
17771 37.7380 79.10 76.14 11.10
17772 37.7400 72.40 76.14 10.70
17773 37.7420 76.00 76.00 10.90
17774 37.7440 66.90 75.79 10.30
17775 37.7460 69.20 75.61 10.60
17776 37.7480 73.20 75.48 10.80
17777 37.7500 77.70 75.42 11.00
17778 37.7520 64.70 75.41 10.10
17779 37.7540 85.20 75.46 11.70
17780 37.7560 89.00 75.56 12.00
17781 37.7580 74.20 75.70 10.70
17782 37.7600 80.10 75.90 11.20
17783 37.7620 84.80 76.15 11.50
17784 37.7640 63.20 76.47 10.10
17785 37.7660 70.40 76.87 10.70
17786 37.7680 76.10 77.34 10.80
17787 37.7700 80.80 77.88 11.30
17788 37.7720 73.80 78.49 10.80
17789 37.7740 76.50 79.14 11.00
17790 37.7760 93.90 79.88 12.30
17791 37.7780 84.70 80.77 11.50
17792 37.7800 80.80 81.92 11.20
17793 37.7820 68.70 83.44 10.50
17794 37.7840 93.70 85.48 12.20
17795 37.7860 95.20 88.23 12.40
17796 37.7880 86.70 91.96 11.60
17797 37.7900 110.80 97.05 13.20
17798 37.7920 115.80 103.86 13.50
17799 37.7940 101.90 112.63 12.80
17800 37.7960 112.70 122.66 13.50
17801 37.7980 160.10 131.37 15.70
17802 37.8000 146.90 134.58 15.10
17803 37.8020 119.80 130.44 13.70
17804 37.8040 104.50 121.69 12.90
17805 37.8060 108.50 112.31 13.20
17806 37.8080 119.10 104.30 13.60
17807 37.8100 92.80 97.83 12.00
17808 37.8120 105.70 93.00 13.00
17809 37.8140 79.80 89.30 11.30
17810 37.8160 95.10 86.50 12.40
17811 37.8180 91.40 84.42 11.90
17812 37.8200 83.50 82.89 11.50
17813 37.8220 82.30 81.80 11.40
17814 37.8240 89.70 81.08 12.00
17815 37.8260 100.40 80.66 12.80
17816 37.8280 95.10 80.52 12.20
17817 37.8300 93.30 80.59 12.10
17818 37.8320 93.00 80.81 12.10
17819 37.8340 68.20 81.07 10.50
17820 37.8360 104.60 81.27 13.00
17821 37.8380 64.70 81.37 10.00
17822 37.8400 68.30 81.33 10.30
17823 37.8420 69.70 81.09 10.50
17824 37.8440 52.80 80.67 9.10
17825 37.8460 87.70 80.18 11.90
17826 37.8480 76.30 79.77 10.90
17827 37.8500 94.40 79.53 12.20
17828 37.8520 87.10 79.44 11.70
17829 37.8540 80.00 79.45 11.30
17830 37.8560 82.00 79.49 11.50
17831 37.8580 90.50 79.48 11.80
17832 37.8600 107.60 79.36 13.00
17833 37.8620 92.70 79.09 12.20
17834 37.8640 89.90 78.65 11.90
17835 37.8660 98.10 78.16 12.50
17836 37.8680 75.40 77.70 10.90
17837 37.8700 83.50 77.34 11.40
17838 37.8720 89.20 77.09 11.90
17839 37.8740 85.50 76.91 11.60
17840 37.8760 70.30 76.79 10.70
17841 37.8780 66.80 76.72 10.20
17842 37.8800 67.90 76.71 10.30
17843 37.8820 86.50 76.76 11.70
17844 37.8840 62.60 76.89 10.00
17845 37.8860 69.70 77.10 10.60
17846 37.8880 108.70 77.40 12.90
17847 37.8900 69.70 77.78 10.40
17848 37.8920 83.00 78.20 11.50
17849 37.8940 109.60 78.58 13.10
17850 37.8960 74.70 78.80 11.00
17851 37.8980 72.70 78.85 10.60
17852 37.9000 87.30 78.79 11.60
17853 37.9020 96.70 78.75 12.30
17854 37.9040 81.40 78.77 11.40
17855 37.9060 85.40 78.86 11.70
17856 37.9080 97.60 79.00 12.30
17857 37.9100 87.90 79.15 11.70
17858 37.9120 79.50 79.31 11.30
17859 37.9140 78.90 79.55 11.20
17860 37.9160 72.80 79.90 10.80
17861 37.9180 82.40 80.41 11.20
17862 37.9200 75.90 81.10 10.90
17863 37.9220 83.90 81.96 11.40
17864 37.9240 77.00 82.94 11.10
17865 37.9260 58.40 83.87 9.70
17866 37.9280 80.10 84.57 11.20
17867 37.9300 96.90 84.97 12.30
17868 37.9320 90.80 85.15 12.00
17869 37.9340 93.90 85.32 12.20
17870 37.9360 96.90 85.58 12.40
17871 37.9380 67.80 85.94 10.30
17872 37.9400 83.50 86.36 11.40
17873 37.9420 99.10 86.80 12.50
17874 37.9440 126.20 87.30 14.10
17875 37.9460 123.80 87.98 14.50
17876 37.9480 96.30 88.90 12.70
17877 37.9500 118.00 90.11 14.90
17878 37.9520 106.80 91.67 14.50
17879 37.9540 111.70 93.61 14.70
17880 37.9560 97.80 96.03 13.70
17881 37.9580 110.90 99.03 14.40
17882 37.9600 104.30 102.76 14.10
17883 37.9620 91.60 107.42 13.40
17884 37.9640 126.40 113.31 15.50
17885 37.9660 117.60 120.76 15.10
17886 37.9680 112.60 130.30 14.50
17887 37.9700 147.40 142.68 16.70
17888 37.9720 162.60 158.72 17.90
17889 37.9740 186.60 179.54 18.90
17890 37.9760 205.00 206.18 19.90
17891 37.9780 190.40 238.65 18.80
17892 37.9800 228.30 274.32 20.80
17893 37.9820 254.40 305.65 22.30
17894 37.9840 299.80 321.50 23.90
17895 37.9860 287.30 314.07 23.50
17896 37.9880 286.20 287.25 23.00
17897 37.9900 253.80 252.09 22.10
17898 37.9920 206.90 217.81 20.20
17899 37.9940 190.10 188.88 19.10
17900 37.9960 181.30 165.90 18.70
17901 37.9980 173.60 148.05 17.90
17902 38.0000 133.00 134.34 15.90
17903 38.0020 98.20 123.75 14.00
17904 38.0040 102.70 115.46 14.10
17905 38.0060 91.20 108.92 13.20
17906 38.0080 82.60 103.59 12.50
17907 38.0100 102.50 99.38 14.10
17908 38.0120 80.30 95.93 12.60
17909 38.0140 82.50 93.09 12.60
17910 38.0160 67.00 90.72 11.40
17911 38.0180 80.20 88.74 12.30
17912 38.0200 79.10 87.07 12.30
17913 38.0220 83.70 85.65 12.80
17914 38.0240 81.30 84.43 12.50
17915 38.0260 86.20 83.38 12.90
17916 38.0280 77.60 82.46 12.10
17917 38.0300 89.90 81.67 13.10
17918 38.0320 71.10 81.00 11.90
17919 38.0340 66.70 80.43 11.40
17920 38.0360 119.70 79.96 15.30
17921 38.0380 73.50 79.59 11.80
17922 38.0400 77.50 79.31 12.20
17923 38.0420 91.10 79.13 13.50
17924 38.0440 81.10 79.06 12.50
17925 38.0460 91.30 79.10 13.30
17926 38.0480 75.40 79.27 12.00
17927 38.0500 96.50 79.55 13.60
17928 38.0520 85.70 79.93 13.00
17929 38.0540 81.40 80.33 12.60
17930 38.0560 82.30 80.65 12.60
17931 38.0580 75.20 80.86 11.90
17932 38.0600 114.10 81.03 14.90
17933 38.0620 96.40 81.25 13.80
17934 38.0640 77.00 81.58 12.10
17935 38.0660 93.40 81.95 13.50
17936 38.0680 82.40 82.20 12.50
17937 38.0700 90.20 82.12 13.20
17938 38.0720 68.80 81.62 11.60
17939 38.0740 66.00 80.81 11.30
17940 38.0760 92.50 79.93 13.40
17941 38.0780 86.80 79.15 12.70
17942 38.0800 85.40 78.56 12.90
17943 38.0820 71.70 78.17 11.90
17944 38.0840 88.30 77.97 13.00
17945 38.0860 92.60 77.89 13.40
17946 38.0880 76.80 77.90 12.00
17947 38.0900 102.10 77.95 14.00
17948 38.0920 91.30 78.06 13.40
17949 38.0940 93.00 78.29 13.40
17950 38.0960 95.00 78.69 13.60
17951 38.0980 67.50 79.30 11.20
17952 38.1000 67.80 80.10 11.40
17953 38.1020 112.80 81.00 14.90
17954 38.1040 113.60 81.80 14.70
17955 38.1060 112.50 82.33 14.70
17956 38.1080 77.60 82.54 12.10
17957 38.1100 81.80 82.61 12.60
17958 38.1120 97.40 82.72 13.80
17959 38.1140 78.00 82.87 12.30
17960 38.1160 83.60 82.94 12.80
17961 38.1180 94.50 82.76 13.30
17962 38.1200 81.60 82.37 12.50
17963 38.1220 79.20 81.95 12.40
17964 38.1240 95.50 81.63 13.50
17965 38.1260 70.00 81.35 11.60
17966 38.1280 77.60 80.93 12.00
17967 38.1300 90.80 80.36 13.20
17968 38.1320 87.80 79.83 13.00
17969 38.1340 61.50 79.51 10.90
17970 38.1360 91.50 79.43 13.30
17971 38.1380 102.60 79.49 13.90
17972 38.1400 93.50 79.57 13.40
17973 38.1420 75.70 79.51 12.20
17974 38.1440 99.60 79.24 13.90
17975 38.1460 84.60 78.80 12.80
17976 38.1480 88.00 78.32 12.80
17977 38.1500 85.00 77.92 12.80
17978 38.1520 76.20 77.78 12.20
17979 38.1540 111.00 77.70 14.60
17980 38.1560 72.90 77.70 11.90
17981 38.1580 69.20 77.65 11.40
17982 38.1600 96.00 77.41 13.50
17983 38.1620 75.40 76.95 12.20
17984 38.1640 101.70 76.36 13.90
17985 38.1660 70.30 75.75 11.70
17986 38.1680 74.90 75.21 11.90
17987 38.1700 87.40 74.76 13.00
17988 38.1720 123.20 74.40 15.40
17989 38.1740 80.10 74.13 12.40
17990 38.1760 78.20 73.93 12.30
17991 38.1780 91.60 73.78 13.20
17992 38.1800 74.70 73.68 12.00
17993 38.1820 64.50 73.59 11.30
17994 38.1840 72.20 73.53 11.80
17995 38.1860 76.20 73.49 12.10
17996 38.1880 58.90 73.47 10.50
17997 38.1900 73.00 73.48 11.90
17998 38.1920 72.80 73.53 11.90
17999 38.1940 78.10 73.63 12.30
18000 38.1960 89.10 73.77 13.10
18001 38.1980 80.20 73.97 12.30
18002 38.2000 71.20 74.22 11.70
18003 38.2020 80.20 74.51 12.60
18004 38.2040 75.40 74.85 12.00
18005 38.2060 75.90 75.29 12.10
18006 38.2080 77.20 75.83 12.00
18007 38.2100 82.00 76.42 12.70
18008 38.2120 80.60 76.97 12.50
18009 38.2140 84.40 77.30 12.70
18010 38.2160 85.50 77.26 12.90
18011 38.2180 59.40 76.92 10.60
18012 38.2200 73.90 76.42 11.90
18013 38.2220 77.80 75.96 12.40
18014 38.2240 64.50 75.61 11.10
18015 38.2260 62.20 75.39 11.00
18016 38.2280 63.00 75.31 10.90
18017 38.2300 72.30 75.35 11.90
18018 38.2320 87.30 75.47 13.10
18019 38.2340 86.40 75.63 12.90
18020 38.2360 80.70 75.78 12.60
18021 38.2380 90.00 75.85 13.00
18022 38.2400 89.20 75.81 13.20
18023 38.2420 60.10 75.60 10.90
18024 38.2440 76.70 75.25 12.10
18025 38.2460 98.20 74.84 13.90
18026 38.2480 72.70 74.46 11.70
18027 38.2500 73.10 74.14 11.90
18028 38.2520 92.30 73.90 13.50
18029 38.2540 91.50 73.74 13.30
18030 38.2560 49.70 73.65 9.80
18031 38.2580 67.30 73.62 11.30
18032 38.2600 75.90 73.62 12.20
18033 38.2620 83.50 73.63 12.80
18034 38.2640 77.40 73.60 12.20
18035 38.2660 74.70 73.53 12.10
18036 38.2680 63.10 73.44 10.90
18037 38.2700 78.10 73.35 12.40
18038 38.2720 65.50 73.29 11.30
18039 38.2740 75.30 73.26 12.10
18040 38.2760 85.70 73.33 12.90
18041 38.2780 70.70 73.38 11.60
18042 38.2800 67.40 73.47 11.40
18043 38.2820 84.00 73.61 12.80
18044 38.2840 84.70 73.79 12.70
18045 38.2860 76.70 74.02 12.20
18046 38.2880 73.70 74.31 11.80
18047 38.2900 105.40 74.64 14.30
18048 38.2920 78.40 75.02 12.30
18049 38.2940 78.80 75.41 12.30
18050 38.2960 56.50 75.79 10.50
18051 38.2980 61.90 76.12 10.80
18052 38.3000 73.80 76.41 11.90
18053 38.3020 72.70 76.69 12.00
18054 38.3040 69.50 76.94 11.60
18055 38.3060 88.20 77.06 13.10
18056 38.3080 65.00 76.99 11.00
18057 38.3100 78.70 76.71 12.40
18058 38.3120 57.20 76.33 10.60
18059 38.3140 84.10 75.93 12.60
18060 38.3160 81.80 75.55 12.60
18061 38.3180 82.00 75.24 12.40
18062 38.3200 86.60 75.01 12.90
18063 38.3220 62.30 74.87 11.10
18064 38.3240 85.90 74.82 12.90
18065 38.3260 78.60 74.84 12.30
18066 38.3280 61.90 74.93 10.80
18067 38.3300 80.50 75.06 12.50
18068 38.3320 57.60 75.19 10.60
18069 38.3340 76.10 75.32 12.00
18070 38.3360 91.30 75.44 13.30
18071 38.3380 77.50 75.58 12.00
18072 38.3400 65.50 75.78 11.30
18073 38.3420 92.40 76.04 13.40
18074 38.3440 67.80 76.37 11.40
18075 38.3460 80.90 76.71 12.50
18076 38.3480 95.10 77.01 13.30
18077 38.3500 85.70 77.20 12.90
18078 38.3520 82.70 77.26 12.60
18079 38.3540 62.40 77.26 11.00
18080 38.3560 88.90 77.28 13.10
18081 38.3580 74.70 77.37 11.80
18082 38.3600 75.60 77.54 12.10
18083 38.3620 62.80 77.81 11.00
18084 38.3640 69.80 78.15 11.60
18085 38.3660 86.30 78.58 13.00
18086 38.3680 85.00 79.11 12.60
18087 38.3700 105.20 79.76 14.20
18088 38.3720 96.90 80.54 13.70
18089 38.3740 76.50 81.44 12.20
18090 38.3760 60.70 82.36 10.80
18091 38.3780 81.00 83.17 12.30
18092 38.3800 90.30 83.76 13.20
18093 38.3820 88.50 84.18 13.10
18094 38.3840 102.10 84.57 13.90
18095 38.3860 92.40 85.10 13.40
18096 38.3880 92.10 85.86 13.10
18097 38.3900 97.80 86.89 13.70
18098 38.3920 107.30 88.15 14.40
18099 38.3940 87.10 89.61 12.90
18100 38.3960 78.80 91.24 12.40
18101 38.3980 91.90 93.09 13.10
18102 38.4000 92.70 95.26 13.30
18103 38.4020 103.30 97.82 14.10
18104 38.4040 98.60 100.82 13.80
18105 38.4060 112.50 104.34 14.70
18106 38.4080 119.80 108.59 14.90
18107 38.4100 127.40 113.78 15.60
18108 38.4120 107.10 120.35 14.30
18109 38.4140 164.50 128.85 17.70
18110 38.4160 97.60 140.08 13.70
18111 38.4180 156.50 154.99 17.10
18112 38.4200 177.60 174.77 18.40
18113 38.4220 216.00 200.75 20.40
18114 38.4240 197.40 233.61 19.40
18115 38.4260 265.30 271.60 22.40
18116 38.4280 262.40 307.95 22.20
18117 38.4300 258.50 330.02 22.20
18118 38.4320 335.40 326.73 25.40
18119 38.4340 298.90 300.00 24.00
18120 38.4360 271.70 262.20 22.80
18121 38.4380 223.80 225.17 20.40
18122 38.4400 213.30 194.09 20.10
18123 38.4420 164.30 169.71 17.70
18124 38.4440 127.70 151.26 15.60
18125 38.4460 135.30 137.32 16.20
18126 38.4480 132.40 126.74 15.80
18127 38.4500 91.80 118.60 13.20
18128 38.4520 90.30 112.18 13.20
18129 38.4540 91.90 106.85 13.30
18130 38.4560 119.30 102.48 15.20
18131 38.4580 107.80 98.85 14.20
18132 38.4600 87.90 95.86 12.90
18133 38.4620 88.00 93.43 13.00
18134 38.4640 84.40 91.48 12.70
18135 38.4660 79.90 89.95 12.30
18136 38.4680 97.70 88.76 13.50
18137 38.4700 75.20 87.84 12.00
18138 38.4720 87.80 87.11 13.00
18139 38.4740 77.20 86.53 12.20
18140 38.4760 101.70 86.06 14.00
18141 38.4780 98.40 85.68 13.60
18142 38.4800 75.70 85.39 12.00
18143 38.4820 90.50 85.24 13.20
18144 38.4840 85.20 85.26 12.80
18145 38.4860 99.30 85.46 13.80
18146 38.4880 69.80 85.78 11.40
18147 38.4900 79.50 86.13 12.30
18148 38.4920 93.40 86.40 13.40
18149 38.4940 85.80 86.59 12.90
18150 38.4960 78.00 86.73 12.30
18151 38.4980 85.80 86.82 12.60
18152 38.5000 91.70 86.79 13.10
18153 38.5020 103.90 86.60 14.10
18154 38.5040 89.90 86.29 13.20
18155 38.5060 86.20 85.95 12.90
18156 38.5080 88.50 85.64 12.90
18157 38.5100 91.90 85.44 13.30
18158 38.5120 83.80 85.40 12.80
18159 38.5140 93.00 85.57 13.40
18160 38.5160 88.80 85.94 13.10
18161 38.5180 98.20 86.46 13.60
18162 38.5200 91.00 87.06 13.30
18163 38.5220 106.10 87.71 14.40
18164 38.5240 88.90 88.45 13.10
18165 38.5260 90.70 89.34 13.30
18166 38.5280 91.90 90.45 13.20
18167 38.5300 108.20 91.80 14.40
18168 38.5320 89.20 93.44 13.20
18169 38.5340 99.80 95.48 14.00
18170 38.5360 102.20 98.05 14.20
18171 38.5380 104.40 101.35 14.00
18172 38.5400 109.50 105.61 14.60
18173 38.5420 112.50 111.06 14.90
18174 38.5440 109.10 118.06 14.50
18175 38.5460 128.10 127.09 15.80
18176 38.5480 136.80 138.79 16.10
18177 38.5500 153.70 154.10 17.20
18178 38.5520 152.40 174.53 17.30
18179 38.5540 156.80 201.94 17.40
18180 38.5560 265.10 237.47 23.00
18181 38.5580 295.20 279.64 23.70
18182 38.5600 358.20 320.17 26.30
18183 38.5620 332.50 342.36 25.70
18184 38.5640 322.30 333.29 25.00
18185 38.5660 293.40 298.74 23.70
18186 38.5680 261.10 255.79 22.30
18187 38.5700 175.20 216.91 18.40
18188 38.5720 168.20 185.76 18.10
18189 38.5740 178.80 161.90 18.70
18190 38.5760 149.40 144.05 17.10
18191 38.5780 158.80 130.68 17.30
18192 38.5800 140.50 120.55 16.60
18193 38.5820 136.20 112.82 16.40
18194 38.5840 95.90 106.89 13.70
18195 38.5860 81.30 102.28 12.70
18196 38.5880 101.30 98.71 13.80
18197 38.5900 116.00 95.94 15.10
18198 38.5920 92.90 93.76 13.50
18199 38.5940 93.90 92.05 13.50
18200 38.5960 89.00 90.66 13.20
18201 38.5980 112.90 89.46 14.60
18202 38.6000 118.80 88.30 15.30
18203 38.6020 83.30 87.11 12.80
18204 38.6040 82.30 85.92 12.60
18205 38.6060 91.10 84.83 13.50
18206 38.6080 94.50 83.92 13.20
18207 38.6100 90.70 83.23 13.30
18208 38.6120 97.50 82.76 13.90
18209 38.6140 92.10 82.53 13.40
18210 38.6160 94.80 82.54 13.50
18211 38.6180 86.30 82.78 12.80
18212 38.6200 78.80 83.23 12.40
18213 38.6220 89.30 83.84 13.30
18214 38.6240 77.30 84.55 12.20
18215 38.6260 80.10 85.35 12.60
18216 38.6280 72.50 86.17 11.70
18217 38.6300 81.80 86.83 12.60
18218 38.6320 74.00 86.92 12.00
18219 38.6340 83.10 86.21 12.80
18220 38.6360 81.70 84.97 12.70
18221 38.6380 86.60 83.69 12.70
18222 38.6400 94.50 82.68 13.50
18223 38.6420 68.30 82.00 11.60
18224 38.6440 80.90 81.64 12.50
18225 38.6460 73.20 81.56 12.00
18226 38.6480 87.30 81.70 12.80
18227 38.6500 89.50 82.03 13.10
18228 38.6520 64.60 82.53 11.20
18229 38.6540 107.60 83.18 14.40
18230 38.6560 83.30 84.00 12.80
18231 38.6580 73.90 85.02 11.70
18232 38.6600 97.20 86.25 13.70
18233 38.6620 108.80 87.69 14.60
18234 38.6640 100.90 89.43 14.00
18235 38.6660 121.20 91.59 15.30
18236 38.6680 101.00 94.38 13.70
18237 38.6700 136.90 98.09 16.20
18238 38.6720 100.90 103.07 14.00
18239 38.6740 114.90 109.74 14.90
18240 38.6760 128.10 118.73 15.80
18241 38.6780 134.50 130.87 15.90
18242 38.6800 154.30 146.97 17.10
18243 38.6820 175.60 167.37 18.50
18244 38.6840 171.10 190.59 18.10
18245 38.6860 205.80 210.92 20.00
18246 38.6880 214.90 219.10 19.80
18247 38.6900 192.20 210.12 19.20
18248 38.6920 183.10 189.20 18.80
18249 38.6940 171.20 165.68 18.20
18250 38.6960 161.10 145.22 17.70
18251 38.6980 122.10 129.22 15.10
18252 38.7000 123.00 117.16 15.30
18253 38.7020 134.80 108.20 16.20
18254 38.7040 111.50 101.45 14.70
18255 38.7060 106.10 96.30 14.40
18256 38.7080 89.20 92.35 12.90
18257 38.7100 102.50 89.29 14.00
18258 38.7120 80.30 86.89 12.60
18259 38.7140 104.30 85.03 14.20
18260 38.7160 56.70 83.58 10.50
18261 38.7180 66.20 82.48 11.10
18262 38.7200 76.80 81.65 12.20
18263 38.7220 86.80 81.04 13.10
18264 38.7240 105.60 80.56 14.30
18265 38.7260 87.20 80.12 13.10
18266 38.7280 88.70 79.66 12.80
18267 38.7300 62.30 79.20 11.00
18268 38.7320 68.80 78.80 11.60
18269 38.7340 82.80 78.50 12.60
18270 38.7360 63.80 78.31 11.20
18271 38.7380 77.90 78.17 12.10
18272 38.7400 69.30 78.04 11.60
18273 38.7420 63.70 77.91 11.20
18274 38.7440 62.80 77.82 11.00
18275 38.7460 73.40 77.81 12.00
18276 38.7480 64.80 77.88 11.00
18277 38.7500 64.80 77.95 11.20
18278 38.7520 77.70 77.95 12.30
18279 38.7540 68.90 77.83 11.60
18280 38.7560 90.10 77.59 13.30
18281 38.7580 64.50 77.28 11.00
18282 38.7600 69.30 76.93 11.60
18283 38.7620 68.00 76.56 11.60
18284 38.7640 82.70 76.16 12.60
18285 38.7660 69.90 75.76 11.70
18286 38.7680 95.80 75.37 13.40
18287 38.7700 78.30 75.08 12.30
18288 38.7720 89.80 74.83 13.20
18289 38.7740 75.90 74.70 12.20
18290 38.7760 61.10 74.66 11.00
18291 38.7780 70.70 74.70 11.50
18292 38.7800 79.80 74.74 12.40
18293 38.7820 74.90 74.69 12.20
18294 38.7840 66.30 74.49 11.30
18295 38.7860 86.70 74.16 13.10
18296 38.7880 85.70 73.78 12.70
18297 38.7900 61.10 73.41 10.90
18298 38.7920 44.00 73.10 9.30
18299 38.7940 62.40 72.85 11.00
18300 38.7960 75.90 72.67 12.10
18301 38.7980 69.00 72.55 11.40
18302 38.8000 79.80 72.47 12.40
18303 38.8020 87.20 72.43 13.00
18304 38.8040 70.70 72.40 11.70
18305 38.8060 81.30 72.40 12.60
18306 38.8080 78.20 72.43 12.10
18307 38.8100 61.30 72.52 11.00
18308 38.8120 60.20 72.65 10.90
18309 38.8140 69.60 72.81 11.50
18310 38.8160 67.90 72.93 11.60
18311 38.8180 78.50 72.94 12.20
18312 38.8200 90.40 72.83 13.30
18313 38.8220 81.00 72.68 12.70
18314 38.8240 71.00 72.55 11.70
18315 38.8260 62.80 72.47 11.10
18316 38.8280 98.10 72.43 13.50
18317 38.8300 68.50 72.42 11.50
18318 38.8320 72.60 72.47 11.90
18319 38.8340 76.90 72.57 12.20
18320 38.8360 70.90 72.74 11.70
18321 38.8380 65.90 72.95 11.20
18322 38.8400 70.90 73.16 11.80
18323 38.8420 74.10 73.33 12.10
18324 38.8440 81.70 73.38 12.50
18325 38.8460 64.70 73.31 11.30
18326 38.8480 67.20 73.15 11.20
18327 38.8500 80.90 72.97 12.50
18328 38.8520 66.00 72.81 11.30
18329 38.8540 74.80 72.68 12.10
18330 38.8560 94.50 72.60 13.50
18331 38.8580 70.40 72.54 11.50
18332 38.8600 87.60 72.53 13.00
18333 38.8620 62.60 72.57 11.10
18334 38.8640 100.30 72.65 13.90
18335 38.8660 77.60 72.76 12.30
18336 38.8680 78.80 72.88 12.10
18337 38.8700 65.30 72.96 11.20
18338 38.8720 85.70 72.98 12.80
18339 38.8740 95.20 72.95 13.50
18340 38.8760 71.70 72.85 11.80
18341 38.8780 55.60 72.70 10.20
18342 38.8800 66.20 72.43 11.20
18343 38.8820 82.20 72.27 12.60
18344 38.8840 69.30 72.15 11.60
18345 38.8860 88.20 72.08 13.10
18346 38.8880 63.40 72.07 10.90
18347 38.8900 56.00 72.13 10.40
18348 38.8920 69.60 72.25 11.70
18349 38.8940 64.00 72.43 11.10
18350 38.8960 79.20 72.67 12.40
18351 38.8980 80.20 72.96 12.20
18352 38.9000 65.50 73.25 11.20
18353 38.9020 75.10 73.49 12.10
18354 38.9040 77.30 73.63 12.20
18355 38.9060 78.10 73.69 12.30
18356 38.9080 59.10 73.72 10.50
18357 38.9100 60.40 73.77 10.80
18358 38.9120 76.60 73.90 12.30
18359 38.9140 79.40 74.11 12.30
18360 38.9160 66.90 74.43 11.40
18361 38.9180 78.00 74.85 12.20
18362 38.9200 86.60 75.35 12.80
18363 38.9220 74.60 75.84 12.00
18364 38.9240 58.90 76.22 10.70
18365 38.9260 56.70 76.39 10.50
18366 38.9280 76.30 76.34 12.00
18367 38.9300 100.10 76.17 13.90
18368 38.9320 81.50 75.98 12.70
18369 38.9340 58.60 75.81 10.70
18370 38.9360 77.50 75.63 12.30
18371 38.9380 66.00 75.39 11.20
18372 38.9400 59.20 75.13 10.70
18373 38.9420 47.80 74.88 9.70
18374 38.9440 77.60 74.65 12.20
18375 38.9460 74.10 74.44 12.00
18376 38.9480 65.70 74.21 11.10
18377 38.9500 69.30 73.97 11.60
18378 38.9520 75.60 73.75 12.20
18379 38.9540 66.90 73.58 11.40
18380 38.9560 54.60 73.49 10.30
18381 38.9580 72.70 73.48 11.70
18382 38.9600 78.50 73.55 12.40
18383 38.9620 82.60 73.66 12.80
18384 38.9640 82.00 73.77 12.60
18385 38.9660 73.40 73.86 12.00
18386 38.9680 80.20 73.92 12.30
18387 38.9700 90.90 73.99 13.30
18388 38.9720 73.10 74.10 12.00
18389 38.9740 90.10 74.18 13.20
18390 38.9760 87.40 74.43 13.00
18391 38.9780 92.80 74.76 13.30
18392 38.9800 98.80 75.16 13.90
18393 38.9820 78.00 75.64 12.40
18394 38.9840 50.60 76.21 9.90
18395 38.9860 80.70 76.85 12.50
18396 38.9880 87.00 77.59 12.70
18397 38.9900 89.90 78.42 13.20
18398 38.9920 60.70 79.36 10.90
18399 38.9940 73.50 80.38 12.00
18400 38.9960 75.30 81.41 12.10
18401 38.9980 80.20 82.29 12.40
18402 39.0000 89.40 82.83 13.20
18403 39.0020 103.90 83.00 14.30
18404 39.0040 78.90 82.92 12.40
18405 39.0060 94.50 82.81 13.50
18406 39.0080 79.80 82.86 12.20
18407 39.0100 91.00 83.16 13.20
18408 39.0120 113.80 83.76 14.90
18409 39.0140 107.80 84.68 14.40
18410 39.0160 95.20 85.94 13.60
18411 39.0180 107.90 87.58 14.20
18412 39.0200 103.40 89.61 14.10
18413 39.0220 75.60 92.06 12.20
18414 39.0240 82.50 94.88 12.60
18415 39.0260 115.50 97.98 14.90
18416 39.0280 125.50 101.25 15.30
18417 39.0300 117.50 104.77 15.00
18418 39.0320 96.30 108.79 13.70
18419 39.0340 97.40 113.70 13.80
18420 39.0360 128.90 119.93 15.80
18421 39.0380 120.30 127.97 15.00
18422 39.0400 127.30 138.42 15.60
18423 39.0420 146.70 151.82 17.00
18424 39.0440 156.10 168.84 17.30
18425 39.0460 152.20 190.07 17.10
18426 39.0480 191.80 215.47 18.90
18427 39.0500 182.00 243.32 18.60
18428 39.0520 213.10 269.05 20.50
18429 39.0540 219.70 284.98 20.60
18430 39.0560 250.10 284.51 21.90
18431 39.0580 272.40 267.69 22.70
18432 39.0600 255.90 241.18 22.00
18433 39.0620 244.40 212.74 21.80
18434 39.0640 201.60 187.03 19.70
18435 39.0660 164.30 165.77 17.90
18436 39.0680 128.30 148.80 15.50
18437 39.0700 109.50 135.41 14.50
18438 39.0720 128.50 124.80 16.00
18439 39.0740 89.40 116.24 13.10
18440 39.0760 84.30 109.32 12.80
18441 39.0780 111.00 103.69 14.40
18442 39.0800 86.30 99.10 12.90
18443 39.0820 88.10 95.34 13.20
18444 39.0840 94.00 92.27 13.50
18445 39.0860 90.70 89.74 13.20
18446 39.0880 87.80 87.66 12.90
18447 39.0900 87.70 85.95 13.10
18448 39.0920 92.40 84.56 13.40
18449 39.0940 90.90 83.43 13.30
18450 39.0960 83.20 82.56 12.80
18451 39.0980 79.90 81.91 12.20
18452 39.1000 81.10 81.49 12.60
18453 39.1020 83.60 81.18 12.80
18454 39.1040 79.20 81.04 12.40
18455 39.1060 73.60 80.89 11.90
18456 39.1080 99.00 80.58 13.60
18457 39.1100 75.60 80.08 12.10
18458 39.1120 73.40 79.47 12.00
18459 39.1140 66.20 78.86 11.30
18460 39.1160 85.30 78.34 12.90
18461 39.1180 85.80 77.90 12.70
18462 39.1200 76.20 77.49 12.20
18463 39.1220 82.90 77.07 12.70
18464 39.1240 90.10 76.62 13.20
18465 39.1260 71.90 76.19 11.80
18466 39.1280 74.20 75.83 11.90
18467 39.1300 73.50 75.57 12.00
18468 39.1320 78.20 75.40 12.40
18469 39.1340 78.60 75.32 12.30
18470 39.1360 94.60 75.43 13.60
18471 39.1380 70.40 75.53 11.50
18472 39.1400 82.20 75.71 12.70
18473 39.1420 81.40 75.94 12.60
18474 39.1440 95.00 76.20 13.50
18475 39.1460 54.30 76.45 10.30
18476 39.1480 81.00 76.73 12.30
18477 39.1500 90.20 77.06 13.20
18478 39.1520 60.90 77.50 10.90
18479 39.1540 106.80 78.08 14.30
18480 39.1560 63.50 78.85 11.10
18481 39.1580 106.60 79.82 14.20
18482 39.1600 85.30 81.02 12.70
18483 39.1620 95.30 82.48 13.60
18484 39.1640 94.50 84.26 13.50
18485 39.1660 101.90 86.46 14.00
18486 39.1680 93.10 89.27 13.20
18487 39.1700 82.00 92.90 12.50
18488 39.1720 103.30 97.70 14.10
18489 39.1740 122.50 104.05 15.30
18490 39.1760 103.20 112.51 14.00
18491 39.1780 112.40 123.78 14.40
18492 39.1800 125.80 138.46 15.50
18493 39.1820 177.90 156.05 18.50
18494 39.1840 184.60 173.63 18.70
18495 39.1860 199.00 184.73 19.40
18496 39.1880 175.00 183.28 18.00
18497 39.1900 205.30 170.16 19.60
18498 39.1920 160.50 152.13 17.60
18499 39.1940 150.70 135.02 16.90
18500 39.1960 140.00 121.10 16.30
18501 39.1980 103.70 110.53 13.90
18502 39.2000 104.50 102.69 14.20
18503 39.2020 97.30 96.90 13.80
18504 39.2040 89.70 92.59 13.00
18505 39.2060 91.70 89.29 13.20
18506 39.2080 84.90 86.70 12.80
18507 39.2100 63.10 84.67 11.00
18508 39.2120 82.10 83.10 12.60
18509 39.2140 91.40 81.93 13.20
18510 39.2160 93.70 81.02 13.50
18511 39.2180 83.60 80.18 12.60
18512 39.2200 78.90 79.23 12.40
18513 39.2220 98.70 78.14 14.00
18514 39.2240 71.70 77.03 11.70
18515 39.2260 62.00 76.02 11.00
18516 39.2280 79.70 75.17 12.50
18517 39.2300 77.90 74.50 12.30
18518 39.2320 54.90 73.98 10.40
18519 39.2340 66.00 73.59 11.20
18520 39.2360 87.60 73.31 13.00
18521 39.2380 69.60 73.10 11.70
18522 39.2400 91.80 72.94 13.40
18523 39.2420 72.30 72.79 11.90
18524 39.2440 74.60 72.66 12.00
18525 39.2460 78.80 72.54 12.20
18526 39.2480 65.70 72.38 11.30
18527 39.2500 36.00 72.17 8.40
18528 39.2520 68.20 71.88 11.50
18529 39.2540 87.30 71.53 12.90
18530 39.2560 41.80 71.17 9.10
18531 39.2580 80.70 70.82 12.60
18532 39.2600 66.20 70.52 11.30
18533 39.2620 73.60 70.26 12.00
18534 39.2640 81.00 70.05 12.50
18535 39.2660 71.80 69.87 11.80
18536 39.2680 70.60 69.72 11.70
18537 39.2700 93.50 69.60 13.50
18538 39.2720 61.20 69.50 11.00
18539 39.2740 91.50 69.43 13.20
18540 39.2760 59.00 69.38 10.70
18541 39.2780 71.70 69.35 11.80
18542 39.2800 51.90 69.34 10.10
18543 39.2820 70.10 69.36 11.70
18544 39.2840 93.10 69.41 13.40
18545 39.2860 79.00 69.49 12.30
18546 39.2880 65.70 69.57 11.20
18547 39.2900 85.90 69.65 12.90
18548 39.2920 56.30 69.68 10.50
18549 39.2940 65.60 69.64 11.20
18550 39.2960 84.30 69.56 12.80
18551 39.2980 75.10 69.47 12.00
18552 39.3000 82.40 69.39 12.60
18553 39.3020 41.40 69.35 9.00
18554 39.3040 47.50 69.35 9.50
18555 39.3060 64.70 69.41 11.10
18556 39.3080 90.50 69.53 13.30
18557 39.3100 78.60 69.73 12.30
18558 39.3120 92.00 69.99 13.50
18559 39.3140 62.90 70.29 11.10
18560 39.3160 70.80 70.58 11.70
18561 39.3180 72.10 70.76 11.80
18562 39.3200 57.40 70.77 10.50
18563 39.3220 70.80 70.68 11.80
18564 39.3240 57.40 70.60 10.50
18565 39.3260 73.30 70.59 11.90
18566 39.3280 73.80 70.69 11.90
18567 39.3300 76.80 70.85 12.20
18568 39.3320 76.50 71.00 12.30
18569 39.3340 73.80 71.06 12.00
18570 39.3360 65.10 70.99 11.20
18571 39.3380 63.20 70.82 11.10
18572 39.3400 78.90 70.63 12.40
18573 39.3420 75.10 70.45 12.20
18574 39.3440 85.80 70.29 12.90
18575 39.3460 80.60 70.15 12.40
18576 39.3480 89.80 70.04 13.20
18577 39.3500 85.70 69.97 12.90
18578 39.3520 60.50 69.96 10.90
18579 39.3540 86.50 70.01 13.00
18580 39.3560 106.80 70.11 14.30
18581 39.3580 91.30 70.25 13.40
18582 39.3600 67.90 70.45 11.50
18583 39.3620 77.40 70.71 12.40
18584 39.3640 81.10 71.02 12.50
18585 39.3660 78.50 71.39 12.30
18586 39.3680 83.40 71.86 12.70
18587 39.3700 67.80 72.43 11.60
18588 39.3720 79.60 73.09 12.50
18589 39.3740 88.00 73.76 13.10
18590 39.3760 66.30 74.32 11.30
18591 39.3780 72.70 74.69 11.90
18592 39.3800 77.70 74.77 12.30
18593 39.3820 61.60 74.64 11.00
18594 39.3840 75.10 74.44 12.10
18595 39.3860 75.80 74.23 12.00
18596 39.3880 63.60 73.93 11.10
18597 39.3900 79.10 73.48 12.50
18598 39.3920 85.30 72.89 12.90
18599 39.3940 59.80 72.27 10.80
18600 39.3960 62.10 71.74 11.00
18601 39.3980 79.20 71.33 12.40
18602 39.4000 79.60 71.07 12.50
18603 39.4020 58.90 70.95 10.80
18604 39.4040 65.70 70.94 11.40
18605 39.4060 81.90 71.00 12.50
18606 39.4080 72.50 71.10 11.90
18607 39.4100 48.70 71.20 9.80
18608 39.4120 66.50 71.33 11.40
18609 39.4140 60.90 71.53 10.90
18610 39.4160 102.80 71.83 14.10
18611 39.4180 92.90 72.21 13.30
18612 39.4200 75.10 72.60 12.10
18613 39.4220 85.10 72.86 12.90
18614 39.4240 87.10 72.91 13.10
18615 39.4260 69.00 72.74 11.50
18616 39.4280 70.30 72.46 11.70
18617 39.4300 80.90 72.14 12.50
18618 39.4320 56.70 71.83 10.50
18619 39.4340 77.20 71.51 12.20
18620 39.4360 79.10 71.17 12.40
18621 39.4380 76.10 70.81 12.00
18622 39.4400 71.70 70.46 11.90
18623 39.4420 73.10 70.16 11.90
18624 39.4440 68.40 69.91 11.50
18625 39.4460 80.80 69.71 12.50
18626 39.4480 61.10 69.56 10.80
18627 39.4500 60.40 69.47 10.90
18628 39.4520 73.00 69.43 11.90
18629 39.4540 68.30 69.45 11.60
18630 39.4560 64.80 69.52 11.20
18631 39.4580 73.60 69.65 11.80
18632 39.4600 85.90 69.85 12.90
18633 39.4620 74.50 70.10 12.10
18634 39.4640 63.80 70.42 11.10
18635 39.4660 64.60 70.78 11.20
18636 39.4680 57.40 71.10 10.50
18637 39.4700 75.60 71.29 12.10
18638 39.4720 92.70 71.30 13.50
18639 39.4740 96.20 71.15 13.60
18640 39.4760 81.30 70.91 12.60
18641 39.4780 74.40 70.69 11.80
18642 39.4800 77.70 70.51 12.30
18643 39.4820 81.70 70.40 12.60
18644 39.4840 72.10 70.36 11.80
18645 39.4860 78.50 70.38 12.30
18646 39.4880 73.00 70.45 11.70
18647 39.4900 66.30 70.56 11.40
18648 39.4920 57.70 70.71 10.70
18649 39.4940 76.80 70.89 12.30
18650 39.4960 72.50 71.11 11.80
18651 39.4980 68.30 71.38 11.40
18652 39.5000 82.30 71.69 12.70
18653 39.5020 69.60 72.09 11.70
18654 39.5040 73.90 72.51 11.90
18655 39.5060 80.90 73.01 12.60
18656 39.5080 79.90 73.58 12.20
18657 39.5100 88.10 74.25 13.10
18658 39.5120 57.30 75.04 10.70
18659 39.5140 76.40 75.97 12.10
18660 39.5160 73.60 77.08 11.90
18661 39.5180 86.70 78.39 12.80
18662 39.5200 81.10 79.96 12.50
18663 39.5220 69.30 81.81 11.60
18664 39.5240 84.70 83.92 12.80
18665 39.5260 62.70 86.21 11.10
18666 39.5280 102.70 88.53 13.90
18667 39.5300 85.70 90.83 12.90
18668 39.5320 109.30 93.25 14.70
18669 39.5340 103.60 96.12 14.10
18670 39.5360 98.80 99.84 13.90
18671 39.5380 81.10 104.79 12.30
18672 39.5400 104.30 111.42 14.20
18673 39.5420 106.00 120.28 14.40
18674 39.5440 106.50 132.08 14.30
18675 39.5460 145.40 147.86 16.80
18676 39.5480 169.70 169.00 17.70
18677 39.5500 203.10 196.57 19.90
18678 39.5520 216.60 230.54 20.70
18679 39.5540 245.20 266.91 21.70
18680 39.5560 273.00 294.53 22.90
18681 39.5580 286.90 299.84 23.10
18682 39.5600 236.10 279.58 21.40
18683 39.5620 251.70 244.76 22.20
18684 39.5640 190.20 208.55 19.00
18685 39.5660 161.00 177.89 17.60
18686 39.5680 162.20 154.01 17.30
18687 39.5700 162.40 136.04 17.80
18688 39.5720 127.00 122.62 15.80
18689 39.5740 104.80 112.53 14.30
18690 39.5760 108.40 104.87 14.50
18691 39.5780 132.50 99.00 15.80
18692 39.5800 107.60 94.45 14.40
18693 39.5820 84.00 90.86 12.80
18694 39.5840 81.20 88.00 12.60
18695 39.5860 79.60 85.65 12.40
18696 39.5880 88.50 83.69 12.90
18697 39.5900 78.40 82.05 12.30
18698 39.5920 86.20 80.66 13.00
18699 39.5940 77.70 79.48 12.30
18700 39.5960 67.30 78.45 11.40
18701 39.5980 69.00 77.53 11.40
18702 39.6000 85.40 76.69 12.80
18703 39.6020 77.40 75.95 12.40
18704 39.6040 81.00 75.35 12.50
18705 39.6060 87.80 74.84 13.00
18706 39.6080 72.60 74.49 11.60
18707 39.6100 85.30 74.21 12.90
18708 39.6120 60.70 73.92 10.90
18709 39.6140 69.10 73.60 11.60
18710 39.6160 73.30 73.26 12.00
18711 39.6180 61.30 72.96 10.80
18712 39.6200 65.30 72.77 11.30
18713 39.6220 76.70 72.70 12.30
18714 39.6240 66.10 72.76 11.30
18715 39.6260 77.50 72.88 12.30
18716 39.6280 70.10 72.96 11.40
18717 39.6300 74.80 72.89 12.00
18718 39.6320 65.80 72.59 11.50
18719 39.6340 73.00 72.12 11.90
18720 39.6360 75.60 71.58 12.10
18721 39.6380 65.00 71.08 11.10
18722 39.6400 92.10 70.65 13.40
18723 39.6420 53.30 70.31 10.30
18724 39.6440 71.60 70.07 11.80
18725 39.6460 93.70 69.92 13.40
18726 39.6480 74.80 69.85 11.80
18727 39.6500 80.90 69.86 12.60
18728 39.6520 62.50 69.96 11.10
18729 39.6540 58.80 70.15 10.70
18730 39.6560 74.40 70.44 12.00
18731 39.6580 94.80 70.83 13.30
18732 39.6600 90.00 71.29 13.20
18733 39.6620 82.10 71.75 12.70
18734 39.6640 79.30 72.12 12.40
18735 39.6660 79.40 72.37 12.30
18736 39.6680 80.80 72.52 12.20
18737 39.6700 65.40 72.67 11.20
18738 39.6720 85.20 72.88 13.00
18739 39.6740 107.20 73.16 14.40
18740 39.6760 56.40 73.43 10.50
18741 39.6780 85.20 73.64 12.60
18742 39.6800 83.00 73.78 12.70
18743 39.6820 82.90 73.84 12.80
18744 39.6840 76.30 73.86 12.20
18745 39.6860 78.20 73.81 12.20
18746 39.6880 91.80 73.66 13.10
18747 39.6900 73.90 73.38 12.00
18748 39.6920 91.00 73.02 13.40
18749 39.6940 79.30 72.63 12.40
18750 39.6960 80.20 72.19 12.50
18751 39.6980 46.80 71.69 9.40
18752 39.7000 92.10 71.10 13.40
18753 39.7020 65.80 70.48 11.30
18754 39.7040 80.30 69.90 12.40
18755 39.7060 76.70 69.40 12.20
18756 39.7080 76.40 68.99 12.00
18757 39.7100 66.50 68.68 11.30
18758 39.7120 69.10 68.44 11.70
18759 39.7140 94.80 68.26 13.60
18760 39.7160 75.70 68.15 12.10
18761 39.7180 74.80 68.07 11.80
18762 39.7200 84.70 68.04 12.80
18763 39.7220 93.40 68.02 13.60
18764 39.7240 56.10 68.01 10.40
18765 39.7260 67.00 67.99 11.40
18766 39.7280 85.30 67.98 12.70
18767 39.7300 78.30 67.98 12.40
18768 39.7320 67.80 68.01 11.60
18769 39.7340 77.90 68.08 12.30
18770 39.7360 75.60 68.20 12.10
18771 39.7380 69.30 68.34 11.40
18772 39.7400 60.10 68.48 10.80
18773 39.7420 71.30 68.60 11.90
18774 39.7440 67.60 68.67 11.50
18775 39.7460 65.80 68.72 11.20
18776 39.7480 80.80 68.77 12.30
18777 39.7500 74.30 68.85 12.10
18778 39.7520 78.50 68.95 12.50
18779 39.7540 78.50 69.05 12.30
18780 39.7560 77.20 69.12 12.30
18781 39.7580 66.40 69.13 11.30
18782 39.7600 78.00 69.08 12.30
18783 39.7620 67.70 68.95 11.60
18784 39.7640 56.80 68.76 10.50
18785 39.7660 80.40 68.57 12.50
18786 39.7680 54.20 68.41 10.10
18787 39.7700 89.60 68.30 13.20
18788 39.7720 76.80 68.25 12.40
18789 39.7740 83.20 68.26 12.70
18790 39.7760 68.60 68.33 11.50
18791 39.7780 81.00 68.47 12.30
18792 39.7800 63.20 68.68 11.10
18793 39.7820 59.60 68.98 10.90
18794 39.7840 89.10 69.38 13.10
18795 39.7860 83.20 69.88 12.70
18796 39.7880 63.30 70.47 10.90
18797 39.7900 58.40 71.08 10.70
18798 39.7920 84.20 71.60 12.90
18799 39.7940 61.00 71.91 10.90
18800 39.7960 78.30 71.95 12.30
18801 39.7980 89.40 71.78 13.00
18802 39.8000 64.00 71.46 11.20
18803 39.8020 66.00 71.12 11.40
18804 39.8040 65.90 70.62 11.30
18805 39.8060 74.30 70.11 12.10
18806 39.8080 82.50 69.64 12.50
18807 39.8100 67.70 69.25 11.40
18808 39.8120 79.70 68.95 12.60
18809 39.8140 72.70 68.74 11.90
18810 39.8160 71.50 68.59 11.90
18811 39.8180 57.70 68.49 10.40
18812 39.8200 80.60 68.45 12.60
18813 39.8220 79.60 68.43 12.60
18814 39.8240 67.50 68.43 11.30
18815 39.8260 71.20 68.42 11.80
18816 39.8280 76.00 68.39 12.00
18817 39.8300 57.70 68.34 10.60
18818 39.8320 60.20 68.30 10.90
18819 39.8340 74.70 68.26 12.10
18820 39.8360 63.50 68.23 11.10
18821 39.8380 66.50 68.23 11.20
18822 39.8400 64.00 68.24 11.10
18823 39.8420 62.30 68.27 11.10
18824 39.8440 71.10 68.31 11.70
18825 39.8460 75.40 68.37 12.10
18826 39.8480 74.30 68.45 11.80
18827 39.8500 46.90 68.53 9.60
18828 39.8520 56.40 68.63 10.60
18829 39.8540 61.70 68.76 10.90
18830 39.8560 76.90 68.90 12.30
18831 39.8580 60.30 69.08 10.70
18832 39.8600 67.60 69.30 11.40
18833 39.8620 57.40 69.64 10.70
18834 39.8640 77.90 69.95 12.30
18835 39.8660 73.80 70.30 11.90
18836 39.8680 62.80 70.65 10.80
18837 39.8700 77.00 70.93 12.30
18838 39.8720 71.00 71.10 11.80
18839 39.8740 91.30 71.17 13.20
18840 39.8760 73.50 71.21 11.90
18841 39.8780 68.90 71.27 11.40
18842 39.8800 70.70 71.37 11.70
18843 39.8820 85.60 71.52 13.00
18844 39.8840 71.40 71.73 11.80
18845 39.8860 71.10 72.01 11.80
18846 39.8880 77.40 72.37 12.00
18847 39.8900 78.50 72.82 12.30
18848 39.8920 59.40 73.36 10.90
18849 39.8940 56.20 74.03 10.40
18850 39.8960 88.90 74.83 13.10
18851 39.8980 78.00 75.77 12.10
18852 39.9000 70.60 76.87 11.70
18853 39.9020 77.80 78.13 12.40
18854 39.9040 74.90 79.57 12.10
18855 39.9060 102.10 81.23 14.00
18856 39.9080 75.40 83.20 11.90
18857 39.9100 58.00 85.63 10.60
18858 39.9120 99.30 88.75 14.00
18859 39.9140 84.00 92.85 12.70
18860 39.9160 96.00 98.35 13.60
18861 39.9180 135.60 105.72 15.90
18862 39.9200 115.10 115.65 14.90
18863 39.9220 154.00 128.42 17.40
18864 39.9240 158.90 143.68 17.40
18865 39.9260 161.20 158.99 17.50
18866 39.9280 167.50 169.05 17.70
18867 39.9300 166.90 168.61 17.90
18868 39.9320 148.20 157.94 17.00
18869 39.9340 109.80 142.48 14.50
18870 39.9360 112.60 127.37 14.80
18871 39.9380 110.00 114.87 14.30
18872 39.9400 91.20 105.25 13.30
18873 39.9420 94.20 98.02 13.60
18874 39.9440 66.20 92.62 11.30
18875 39.9460 69.50 88.58 11.60
18876 39.9480 90.70 85.52 13.00
18877 39.9500 80.30 83.19 12.40
18878 39.9520 73.10 81.43 11.90
18879 39.9540 84.70 80.07 12.80
18880 39.9560 90.60 79.03 13.20
18881 39.9580 81.90 78.22 12.40
18882 39.9600 68.60 77.58 11.50
18883 39.9620 88.30 77.05 13.20
18884 39.9640 65.30 76.55 11.30
18885 39.9660 93.80 76.07 13.40
18886 39.9680 90.40 75.63 13.00
18887 39.9700 51.70 75.26 10.00
18888 39.9720 86.20 74.99 13.00
18889 39.9740 79.20 74.83 12.40
18890 39.9760 77.90 74.76 12.30
18891 39.9780 77.80 74.74 12.10
18892 39.9800 82.70 74.71 12.60
18893 39.9820 79.50 74.53 12.50
18894 39.9840 61.20 74.36 10.90
18895 39.9860 69.00 74.14 11.60
18896 39.9880 66.80 73.89 11.20
18897 39.9900 83.90 73.64 12.70
18898 39.9920 74.20 73.42 12.10
18899 39.9940 83.50 73.24 13.60
loop_
_pd_proc_info_excluded_regions
'from 1.001 to 2.202'
loop_
_refln_index_h
_refln_index_k
_refln_index_l
_refln_index_m_1
_refln_index_m_2
_refln_F_squared_calc
_refln_F_squared_meas
_refln_observed_status
_refln_d_spacing
1 0 1 0 1 419.10 487.28 o 7.102116
0 0 0 1 0 882.64 1109.81 o 5.292748
1 1 2 -1 0 818.33 911.29 o 5.100790
1 0 1 -1 0 248.75 286.67 o 5.043658
1 0 1 0 0 539.22 477.14 o 4.770762
2 0 0 0 1 516.88 632.13 o 4.021492
2 -1 1 0 1 466.99 620.12 o 3.908911
0 0 2 1 0 9.81 13.19 o 3.901666
1 0 3 0 1 194.38 249.86 o 3.539724
2 1 1 -1 0 512.54 466.34 o 3.431349
2 0 2 0 1 0.18 0.10 o 3.300018
1 0 3 -1 0 361.46 451.97 o 3.173472
2 0 0 -1 0 522.93 610.00 o 3.149645
1 1 2 0 0 68555.73 67213.42 o 3.117867
1 0 3 0 0 847.22 751.10 o 3.102038
1 1 2 0 1 419.07 432.47 o 2.897862
1 0 1 1 0 56.10 54.63 o 2.887266
0 0 4 0 0 43657.84 43402.92 o 2.887107
2 -1 3 0 1 434.25 534.99 o 2.823552
2 2 0 -1 0 301.12 281.90 o 2.806731
1 1 4 -1 0 2.81 2.62 o 2.790590
2 0 2 -1 0 12.59 5.57 o 2.765045
1 0 1 0 -1 182.56 118.50 o 2.677952
2 1 3 -1 0 142.38 135.10 o 2.626881
2 0 0 0 0 36556.44 35383.82 o 2.619336
2 1 1 0 1 180.23 174.11 o 2.616282
0 0 4 1 0 524.13 547.83 o 2.534548
2 2 2 -1 0 16.29 16.99 o 2.524314
1 1 2 0 -1 327.36 323.68 o 2.515363
2 0 2 0 0 618.60 653.83 o 2.385381
1 0 3 1 0 33.10 33.97 o 2.357399
2 0 4 0 1 239.27 283.19 o 2.345298
2 -1 1 0 0 1274.41 1329.30 o 2.296035
2 1 1 0 0 1463.00 1526.01 o 2.296035
3 0 1 0 1 202.14 247.06 o 2.283874
1 1 4 0 0 2946.44 3243.35 o 2.277161
1 0 3 0 -1 41.88 45.84 o 2.239275
1 0 5 0 1 146.23 161.64 o 2.237293
2 -1 1 -1 0 150.68 189.73 o 2.211066
2 1 3 0 1 392.24 215.14 o 2.202842
1 1 4 0 1 28.14 21.19 o 2.187082
3 -1 2 0 1 384.42 361.97 o 2.180497
1 0 5 -1 0 157.85 230.07 o 2.135572
2 0 4 -1 0 496.24 372.62 o 2.128266
1 0 5 0 0 217.24 326.69 o 2.113395
1 1 2 1 0 664.23 536.39 o 2.046800
2 -1 5 0 1 130.68 147.95 o 2.018648
2 -1 1 1 0 114.36 97.11 o 2.015272
2 2 4 -1 0 569.75 488.31 o 2.012474
1 1 4 0 -1 30.27 34.83 o 2.007929
3 1 2 -1 0 288.00 324.21 o 2.002829
2 -1 3 0 0 276.21 313.10 o 2.001303
2 1 3 0 0 1081.26 1225.66 o 2.001303
3 0 1 -1 0 331.33 371.53 o 1.999321
3 0 3 0 1 465.17 525.77 o 1.993235
3 -2 1 0 1 500.66 539.57 o 1.973262
2 0 0 1 0 327.98 359.04 o 1.953299
2 -1 3 -1 0 167.51 188.21 o 1.944283
2 1 5 -1 0 331.29 334.62 o 1.942985
2 0 4 0 0 58657.16 58576.39 o 1.939926
3 2 1 -1 0 562.54 536.65 o 1.902413
1 1 6 -1 0 394.36 522.19 o 1.895328
2 2 0 0 1 561.42 403.24 o 1.862635
3 1 2 0 1 335.49 327.88 o 1.853853
2 2 0 0 0 55048.14 55455.23 o 1.852150
2 0 2 1 0 0.12 0.13 o 1.850299
1 0 5 1 0 61.13 55.22 o 1.826007
3 -1 4 0 1 6.14 5.99 o 1.824824
2 0 0 0 -1 402.54 414.47 o 1.822503
2 1 1 0 -1 50.04 26.17 o 1.811665
0 0 6 1 0 36.74 12.08 o 1.808845
2 -1 3 1 0 69.52 21.29 o 1.807132
3 0 3 -1 0 371.35 203.09 o 1.795604
3 -2 3 0 1 646.51 484.58 o 1.776655
2 2 2 0 1 4.48 3.25 o 1.772687
1 0 5 0 -1 142.96 53.37 o 1.769433
2 2 2 0 0 7.68 8.59 o 1.763642
2 1 5 0 1 270.92 118.45 o 1.751292
1 1 4 1 0 1.57 0.77 o 1.744279
2 0 2 0 -1 4.93 1.74 o 1.737988
2 0 6 0 1 51.32 22.96 o 1.736134
3 0 1 0 0 25.78 29.56 o 1.726597
3 2 3 -1 0 523.54 404.21 o 1.724417
3 1 4 -1 0 5.73 3.88 o 1.716825
1 1 6 0 0 42348.06 42082.58 o 1.707943
1 1 6 0 1 387.56 228.72 o 1.668934
2 1 3 0 -1 64.53 42.49 o 1.655971
2 1 1 1 0 1.61 0.71 o 1.653306
2 2 0 0 -1 753.74 341.45 o 1.652557
3 -1 2 -1 0 651.23 555.60 o 1.646415
2 1 5 0 0 171.03 159.44 o 1.644779
2 -1 5 0 0 710.80 662.64 o 1.644779
2 0 6 -1 0 122.33 110.65 o 1.642355
3 0 5 0 1 538.58 392.65 o 1.640291
4 0 0 0 1 174.46 197.61 o 1.623334
1 0 7 0 1 210.99 240.89 o 1.622776
3 1 4 0 1 1.51 1.13 o 1.620193
2 0 4 1 0 595.91 545.86 o 1.617819
4 -1 1 0 1 425.41 461.78 o 1.615661
2 -1 5 -1 0 301.48 340.57 o 1.612685
2 -1 1 0 -1 44.31 44.67 o 1.610962
3 -1 2 0 0 33329.31 33676.69 o 1.592375
3 1 2 0 0 45163.29 45634.02 o 1.592375
3 0 3 0 0 167.80 184.83 o 1.590254
2 2 2 0 -1 7.66 7.96 o 1.588771
2 2 6 -1 0 0.01 0.01 o 1.587355
1 1 6 0 -1 567.68 602.80 o 1.585122
1 0 7 -1 0 129.51 165.01 o 1.582679
1 0 7 0 0 118.97 256.40 o 1.573589
2 2 4 0 1 215.55 234.95 o 1.565170
4 0 2 0 1 3.83 3.63 o 1.562751
2 2 4 0 0 35486.52 37131.92 o 1.558933
2 0 6 0 0 0.97 1.10 o 1.551019
3 2 1 0 1 210.94 183.10 o 1.546509
2 0 4 0 -1 494.87 431.66 o 1.541131
3 3 2 -1 0 208.63 181.58 o 1.540864
2 -1 7 0 1 529.66 395.89 o 1.533284
2 1 3 1 0 16.97 12.54 o 1.532439
2 -1 5 1 0 188.35 134.82 o 1.531803
3 0 5 -1 0 128.01 66.77 o 1.524763
3 -2 5 0 1 554.28 483.47 o 1.513109
4 1 1 -1 0 423.54 322.64 o 1.504918
4 -1 3 0 1 407.06 482.76 o 1.502317
4 -2 0 0 1 341.90 327.93 o 1.499767
2 1 7 -1 0 264.08 244.77 o 1.499328
2 -1 3 0 -1 59.65 52.83 o 1.498538
3 -1 6 0 1 155.12 139.55 o 1.490273
3 2 5 -1 0 372.65 261.37 o 1.480447
4 0 0 -1 0 383.00 272.79 o 1.478578
3 -1 4 -1 0 0.98 0.78 o 1.476204
4 1 1 0 1 306.10 200.46 o 1.468469
4 -2 2 0 1 14.19 16.91 o 1.451602
3 2 3 0 1 87.19 108.04 o 1.446241
1 1 6 1 0 386.52 363.38 o 1.445426
1 0 7 1 0 149.25 144.02 o 1.443573
0 0 8 0 0 27503.96 26631.23 o 1.443554
3 2 1 0 0 960.00 844.10 o 1.441582
3 -2 1 0 0 173.68 152.71 o 1.441582
4 2 0 -1 0 203.00 147.13 o 1.438064
3 1 4 0 0 88.91 67.15 o 1.436875
3 -1 4 0 0 100.94 76.23 o 1.436875
2 1 5 0 -1 88.70 63.09 o 1.436456
2 2 4 0 -1 349.40 231.27 o 1.434226
4 0 2 -1 0 11.50 8.24 o 1.432364
1 1 8 -1 0 2.60 1.31 o 1.431021
3 1 6 -1 0 394.21 216.43 o 1.429688
3 -1 2 1 0 278.93 201.11 o 1.426775
3 0 1 1 0 28.26 18.32 o 1.425506
1 0 7 0 -1 5.24 4.44 o 1.415129
4 0 4 0 1 366.48 313.99 o 1.414997
4 1 3 -1 0 471.63 316.04 o 1.412056
2 1 7 0 1 179.66 66.95 o 1.405797
3 3 4 -1 0 0.52 0.32 o 1.398689
4 2 2 -1 0 14.64 14.95 o 1.395439
3 0 5 0 0 593.97 577.20 o 1.392928
3 -2 1 -1 0 61.23 58.83 o 1.392737
0 0 8 1 0 293.94 282.80 o 1.392683
3 -2 1 1 0 84.90 32.71 o 1.389095
4 1 3 0 1 328.31 161.93 o 1.381815
2 2 0 1 0 380.42 295.68 o 1.376900
3 1 6 0 1 169.96 75.78 o 1.372426
2 0 6 1 0 23.64 11.14 o 1.370982
3 -2 3 0 0 966.84 978.57 o 1.359342
3 2 3 0 0 3.18 3.22 o 1.359342
2 0 8 0 1 424.10 412.01 o 1.358671
2 1 5 1 0 6.00 2.42 o 1.353581
2 1 7 0 0 105.35 97.49 o 1.348890
2 -1 7 0 0 303.94 281.26 o 1.348890
3 0 1 0 -1 1.04 0.96 o 1.347708
3 0 7 0 1 104.12 88.03 o 1.346411
3 0 3 1 0 71.77 61.24 o 1.345839
1 1 8 0 0 820.04 685.40 o 1.345031
2 2 2 1 0 6.16 5.47 o 1.339348
2 2 6 0 1 20.42 18.86 o 1.338499
4 -1 1 -1 0 151.85 107.28 o 1.334923
2 2 6 0 0 2.11 1.43 o 1.334592
4 -1 5 0 1 389.36 309.26 o 1.332688
2 -1 7 -1 0 35.71 23.78 o 1.331017
4 -2 4 0 1 66.59 57.99 o 1.330907
2 -1 5 0 -1 21.44 13.75 o 1.330048
1 1 8 0 1 4.72 2.97 o 1.325730
3 1 2 0 -1 590.18 372.77 o 1.325493
2 0 6 0 -1 72.69 45.80 o 1.323371
3 -2 3 -1 0 77.40 58.88 o 1.318160
4 0 4 -1 0 216.50 112.62 o 1.316033
3 -2 3 1 0 17.96 9.70 o 1.315071
2 0 8 -1 0 330.94 214.82 o 1.312289
3 -1 4 1 0 1.55 1.22 o 1.311695
4 0 0 0 0 31264.01 32030.04 o 1.309668
4 -3 1 0 1 439.53 369.53 o 1.297555
3 2 5 0 1 123.36 76.84 o 1.293076
4 2 4 -1 0 280.87 119.29 o 1.287221
4 2 0 0 1 101.05 126.89 o 1.284719
2 -1 7 1 0 0.10 0.12 o 1.284443
2 2 8 -1 0 136.39 175.58 o 1.283718
1 1 8 0 -1 6.14 7.11 o 1.282536
3 -1 6 -1 0 200.63 171.68 o 1.281576
3 0 7 -1 0 377.29 336.78 o 1.280284
3 0 3 0 -1 12.27 10.98 o 1.279792
3 1 2 1 0 397.02 363.32 o 1.279477
4 0 2 0 0 1014.34 957.61 o 1.277227
4 3 1 -1 0 586.86 566.66 o 1.276781
3 2 1 0 -1 57.10 92.85 o 1.274458
3 -2 7 0 1 195.01 280.02 o 1.273361
1 0 9 0 1 170.92 176.24 o 1.270332
4 -1 3 -1 0 200.36 178.63 o 1.268829
4 1 5 -1 0 415.15 375.86 o 1.268468
2 0 8 0 0 33338.93 32636.83 o 1.264269
4 -1 1 0 0 216.97 163.23 o 1.262944
4 1 1 0 0 53.46 40.22 o 1.262944
3 -1 6 0 0 36821.35 38372.04 o 1.255588
3 1 6 0 0 22336.67 23277.36 o 1.255588
4 2 2 0 1 42.18 41.59 o 1.254054
2 2 6 0 -1 5.24 4.88 o 1.253819
3 2 7 -1 0 189.24 176.45 o 1.253711
1 0 9 -1 0 50.09 51.45 o 1.250819
4 1 5 0 1 108.61 126.99 o 1.246411
1 0 9 0 0 84.08 94.27 o 1.246317
2 2 4 1 0 312.45 299.12 o 1.242800
4 0 6 0 1 8.25 9.93 o 1.240911
3 -1 2 0 -1 359.97 446.46 o 1.240518
4 -3 3 0 1 470.75 464.49 o 1.236611
5 0 1 0 1 558.00 553.09 o 1.235500
3 1 4 0 -1 8.68 6.79 o 1.231706
3 -1 8 0 1 79.13 53.84 o 1.230716
3 3 6 -1 0 239.86 164.27 o 1.229868
3 -2 5 0 0 123.81 82.72 o 1.229843
3 2 5 0 0 464.71 310.48 o 1.229843
3 3 2 0 1 189.24 128.15 o 1.228012
2 1 7 0 -1 65.78 53.48 o 1.226655
2 -1 9 0 1 225.62 205.78 o 1.226003
3 0 5 1 0 0.51 0.31 o 1.219815
4 3 3 -1 0 234.62 136.02 o 1.218590
5 -1 2 0 1 105.93 62.13 o 1.218318
3 2 3 0 -1 40.83 42.65 o 1.216570
2 1 9 -1 0 432.14 441.27 o 1.208435
3 3 2 0 0 27164.26 28545.72 o 1.207468
4 -1 3 0 0 0.29 0.32 o 1.206542
4 1 3 0 0 269.58 292.70 o 1.206542
1 1 8 1 0 29.80 29.95 o 1.205093
3 0 7 0 0 261.71 340.55 o 1.199215
3 -2 5 -1 0 90.27 112.36 o 1.199093
3 -2 5 1 0 36.59 39.15 o 1.196767
3 1 8 -1 0 9.11 8.55 o 1.195927
3 1 4 1 0 0.03 0.03 o 1.194522
4 0 4 0 0 26263.50 27818.49 o 1.192690
4 -2 6 0 1 7.12 4.00 o 1.183025
5 0 3 0 1 157.01 92.19 o 1.182546
1 0 9 1 0 67.45 70.77 o 1.178667
5 -2 1 0 1 518.05 551.37 o 1.178334
4 -2 0 -1 0 266.52 282.71 o 1.176238
2 1 7 1 0 27.96 18.84 o 1.173831
4 2 4 0 1 183.21 126.23 o 1.173756
4 0 6 -1 0 2.70 2.71 o 1.172542
4 2 0 0 0 29318.45 30238.19 o 1.171403
4 -2 0 0 0 28504.06 29398.26 o 1.171403
3 0 5 0 -1 21.54 22.05 o 1.169994
3 -1 6 1 0 256.75 268.30 o 1.169471
1 0 9 0 -1 40.19 37.26 o 1.163031
3 -1 4 0 -1 5.06 5.59 o 1.162634
3 1 8 0 1 6.27 5.46 o 1.161802
4 -1 5 -1 0 141.17 127.25 o 1.161600
2 0 8 1 0 178.62 146.92 o 1.160925
4 -1 7 0 1 434.38 362.64 o 1.160127
2 -1 7 0 -1 30.81 35.19 o 1.158384
2 1 9 0 1 3.60 2.37 o 1.157834
5 1 2 -1 0 276.39 160.23 o 1.153425
5 0 1 -1 0 232.57 139.32 o 1.152754
4 -2 2 -1 0 10.99 6.49 o 1.152568
3 3 4 0 1 11.99 7.35 o 1.152320
4 2 6 -1 0 0.39 0.26 o 1.152027
5 1 2 0 1 119.27 121.06 o 1.151354
3 2 1 1 0 6.57 6.02 o 1.148985
1 1 10 -1 0 89.72 81.92 o 1.148396
4 -2 2 0 0 345.73 315.86 o 1.148017
4 2 2 0 0 222.03 202.84 o 1.148017
5 -1 4 0 1 8.14 6.80 o 1.144299
4 -1 1 1 0 4.05 3.83 o 1.143974
2 2 8 0 1 199.43 180.47 o 1.141003
2 2 8 0 0 23143.61 23221.26 o 1.138580
4 -3 5 0 1 445.27 345.57 o 1.136728
3 3 4 0 0 77.11 92.93 o 1.135295
3 -2 1 0 -1 16.48 17.62 o 1.134487
3 2 7 0 1 184.51 180.56 o 1.133713
5 2 1 -1 0 325.95 292.14 o 1.133243
4 0 0 1 0 269.71 243.57 o 1.132275
3 3 2 0 -1 268.36 242.35 o 1.132253
5 -2 3 0 1 360.96 324.70 o 1.132131
2 0 8 0 -1 385.95 340.29 o 1.131589
0 0 10 1 0 73.95 53.74 o 1.128297
2 1 9 0 0 292.19 272.76 o 1.125414
2 -1 9 0 0 16.71 15.60 o 1.125414
3 0 9 0 1 317.15 317.05 o 1.123974
4 3 5 -1 0 392.22 290.20 o 1.122682
3 2 5 0 -1 22.96 24.86 o 1.121102
2 2 6 1 0 2.12 1.72 o 1.119855
4 4 0 -1 0 225.50 199.45 o 1.117200
4 1 7 -1 0 112.93 100.73 o 1.117018
2 -1 9 -1 0 105.57 93.44 o 1.114972
4 -2 0 1 0 173.55 129.17 o 1.113769
4 -1 5 0 0 91.59 66.18 o 1.113241
4 1 5 0 0 52.69 38.07 o 1.113241
3 1 6 0 -1 224.02 161.87 o 1.111719
4 0 2 1 0 13.47 10.44 o 1.111114
2 0 10 0 1 6.73 7.23 o 1.109982
5 0 3 -1 0 217.26 240.06 o 1.109387
3 2 3 1 0 0.32 0.24 o 1.106026
3 -1 8 -1 0 29.55 34.44 o 1.105124
1 1 10 0 0 23851.17 21965.67 o 1.102507
4 1 7 0 1 157.16 139.91 o 1.101868
4 -1 3 1 0 26.44 23.63 o 1.101554
4 4 2 -1 0 0.16 0.13 o 1.096858
5 0 5 0 1 260.38 243.34 o 1.094308
4 3 1 0 1 106.76 101.51 o 1.093770
4 -2 2 1 0 0.69 0.70 o 1.093610
3 -2 3 0 -1 4.08 4.30 o 1.093076
5 2 3 -1 0 457.02 361.62 o 1.091963
1 1 10 0 1 307.46 244.52 o 1.091802
3 -2 7 0 0 104.26 97.51 o 1.090371
3 2 7 0 0 298.43 279.13 o 1.090371
5 1 4 -1 0 4.59 4.18 o 1.090028
4 -2 4 -1 0 390.96 357.40 o 1.089304
3 -1 8 0 0 34.76 33.83 o 1.088331
3 1 8 0 0 25.84 25.15 o 1.088331
5 1 4 0 1 13.08 11.46 o 1.088279
2 2 8 0 -1 243.04 207.23 o 1.087178
2 -1 9 1 0 75.07 64.01 o 1.087164
4 2 4 0 0 21065.67 21831.82 o 1.085460
4 -2 4 0 0 21622.43 22408.83 o 1.085460
3 0 9 -1 0 76.73 79.29 o 1.084638
2 0 10 -1 0 0.96 0.99 o 1.084258
3 1 6 1 0 197.49 209.30 o 1.084147
3 0 7 1 0 13.08 11.62 o 1.083365
4 0 6 0 0 0.94 0.84 o 1.082778
3 -2 9 0 1 268.90 288.80 o 1.080420
4 0 0 0 -1 448.30 452.63 o 1.079620
4 0 8 0 1 55.72 59.32 o 1.078731
4 1 1 0 -1 9.06 13.12 o 1.077353
3 3 4 0 -1 22.99 15.86 o 1.072106
3 3 8 -1 0 2.14 1.50 o 1.071452
5 -1 2 -1 0 226.73 160.19 o 1.071327
3 -2 7 -1 0 184.46 142.26 o 1.068770
4 2 6 0 1 1.45 1.16 o 1.068551
3 2 9 -1 0 209.27 152.42 o 1.068338
2 2 10 -1 0 20.98 14.08 o 1.067974
1 1 10 0 -1 500.99 342.49 o 1.067294
3 -2 7 1 0 156.17 105.39 o 1.067121
5 2 1 0 1 160.00 119.98 o 1.065090
4 1 1 1 0 4.94 1.64 o 1.063741
5 -3 2 0 1 175.09 51.45 o 1.063241
4 0 2 0 -1 2.05 1.59 o 1.061229
3 -1 6 0 -1 330.99 237.93 o 1.060140
2 0 10 0 0 56.05 28.97 o 1.056697
4 3 3 0 1 192.56 102.04 o 1.056517
4 0 4 1 0 146.78 126.82 o 1.054108
5 -2 5 0 1 359.74 311.35 o 1.053992
3 3 6 0 1 242.27 168.30 o 1.052303
2 1 9 0 -1 0.74 0.50 o 1.051448
3 0 7 0 -1 6.74 4.37 o 1.048011
5 -1 6 0 1 212.31 83.89 o 1.046183
4 3 1 0 0 24.09 27.42 o 1.043449
4 -3 1 0 0 130.78 148.90 o 1.043449
5 0 1 0 0 0.89 1.03 o 1.043449
1 0 11 0 1 8.75 7.25 o 1.042797
4 -1 7 -1 0 166.24 114.71 o 1.041965
4 4 4 -1 0 137.01 90.64 o 1.041913
4 1 3 0 -1 17.08 11.43 o 1.041700
4 2 0 0 -1 169.12 157.07 o 1.040849
5 3 2 -1 0 170.70 174.28 o 1.040567
4 -2 8 0 1 263.77 265.45 o 1.040052
3 3 6 0 0 20689.14 20944.39 o 1.039289
4 -2 4 1 0 235.40 238.78 o 1.039127
3 -1 10 0 1 231.18 154.50 o 1.036870
5 0 5 -1 0 285.58 204.98 o 1.035566
3 0 9 0 0 98.04 77.93 o 1.034013
4 -3 1 1 0 120.94 101.11 o 1.033612
4 0 8 -1 0 331.20 273.23 o 1.032907
3 2 5 1 0 10.72 8.76 o 1.032831
1 0 11 -1 0 177.65 153.61 o 1.031922
3 -1 8 1 0 40.29 29.62 o 1.030805
5 2 3 0 1 222.62 155.55 o 1.030602
4 -1 1 0 -1 4.96 3.22 o 1.030215
1 0 11 0 0 3.41 1.72 o 1.029389
4 1 3 1 0 2.26 0.98 o 1.029379
4 -1 5 1 0 40.86 20.57 o 1.029186
4 2 2 0 -1 16.74 11.68 o 1.024340
4 -3 7 0 1 576.04 405.75 o 1.023901
3 -2 5 0 -1 9.91 7.56 o 1.022262
1 1 10 1 0 130.75 105.11 o 1.021408
5 2 5 -1 0 227.89 183.86 o 1.021351
5 -1 4 -1 0 0.36 0.29 o 1.019955
4 2 8 -1 0 183.27 153.00 o 1.018800
2 -1 11 0 1 204.14 174.31 o 1.017855
2 1 9 1 0 110.16 93.09 o 1.017607
3 1 10 -1 0 240.96 204.77 o 1.015809
4 -3 1 -1 0 133.00 118.79 o 1.014153
4 3 7 -1 0 383.18 323.07 o 1.013600
5 -3 4 0 1 2.16 1.74 o 1.012970
3 2 7 0 -1 35.48 36.61 o 1.012437
5 1 2 0 0 16807.16 17528.80 o 1.011502
5 -1 2 0 0 23827.28 24850.32 o 1.011502
4 0 4 0 -1 339.48 356.80 o 1.011230
5 0 3 0 0 6.02 6.21 o 1.010958
4 -3 3 0 0 32.10 33.09 o 1.010958
4 3 3 0 0 255.84 263.70 o 1.010958
4 -1 9 0 1 154.41 143.26 o 1.008640
2 1 11 -1 0 148.84 143.34 o 1.007734
2 -1 9 0 -1 2.55 2.03 o 1.007494
4 -1 7 0 0 95.41 54.69 o 1.006636
4 1 7 0 0 50.64 29.03 o 1.006636
6 0 0 0 1 132.35 89.76 o 1.005737
5 1 6 -1 0 129.58 115.48 o 1.004226
6 -1 1 0 1 370.03 310.99 o 1.003904
4 -2 6 -1 0 7.34 5.93 o 1.003660
5 1 6 0 1 171.83 169.59 o 1.002859
4 -3 3 1 0 22.38 18.78 o 1.002003
4 2 6 0 0 0.61 0.40 o 1.000651
4 -2 6 0 0 2.32 1.51 o 1.000651
4 -1 3 0 -1 4.02 3.06 o 0.998908
2 2 8 1 0 336.10 223.95 o 0.996346
3 1 10 0 1 194.53 104.81 o 0.994647
2 0 10 1 0 8.35 4.36 o 0.994097
5 3 4 -1 0 15.49 14.78 o 0.993305
5 0 7 0 1 222.61 178.70 o 0.992573
4 3 5 0 1 59.26 44.32 o 0.992171
5 -2 1 -1 0 184.07 120.81 o 0.991166
3 2 9 0 1 149.74 91.21 o 0.991136
6 0 2 0 1 0.06 0.04 o 0.990820
3 1 8 0 -1 17.75 10.91 o 0.990602
1 0 11 1 0 160.84 99.25 o 0.990276
3 3 6 0 -1 377.92 235.72 o 0.990160
3 3 2 1 0 224.16 161.30 o 0.989191
4 -3 3 -1 0 18.56 26.58 o 0.984246
2 2 10 0 1 13.83 12.18 o 0.981502
1 0 11 0 -1 20.88 26.37 o 0.980948
2 2 10 0 0 0.02 0.02 o 0.979958
4 1 9 -1 0 178.63 97.30 o 0.979923
4 1 5 0 -1 2.46 1.36 o 0.979869
4 2 4 0 -1 326.70 184.55 o 0.979160
4 2 0 1 0 326.91 190.90 o 0.978058
2 1 11 0 1 76.75 42.63 o 0.977824
4 0 6 1 0 7.94 9.92 o 0.975930
2 0 10 0 -1 0.15 0.14 o 0.975490
6 -1 3 0 1 452.10 420.17 o 0.974869
6 -2 0 0 1 39.23 34.91 o 0.974171
3 1 8 1 0 0.20 0.20 o 0.970947
5 2 5 0 1 250.15 252.68 o 0.970615
4 0 8 0 0 18447.60 18376.37 o 0.969963
4 1 9 0 1 205.98 202.67 o 0.969646
4 1 5 1 0 6.45 6.34 o 0.969594
5 2 1 0 0 173.22 169.82 o 0.969364
5 -2 1 0 0 91.84 90.04 o 0.969364
5 1 4 0 0 12.47 7.25 o 0.967929
5 -1 4 0 0 5.75 3.34 o 0.967929
4 4 6 -1 0 22.26 19.57 o 0.966227
4 3 1 0 -1 43.13 36.47 o 0.965647
6 1 1 0 1 228.93 203.09 o 0.965436
4 2 2 1 0 2.82 3.77 o 0.964322
4 -2 6 1 0 0.20 0.28 o 0.964005
5 -4 1 0 1 298.54 392.46 o 0.963666
5 -2 3 -1 0 196.35 187.40 o 0.963192
0 0 12 0 0 25017.25 25027.88 o 0.962369
5 -2 7 0 1 309.81 308.77 o 0.962194
3 -2 9 0 0 183.10 189.84 o 0.961784
3 2 9 0 0 0.34 0.36 o 0.961784
6 -2 2 0 1 22.76 19.62 o 0.960596
4 -2 0 0 -1 373.09 306.42 o 0.960322
4 2 8 0 1 179.18 168.16 o 0.959696
1 1 12 -1 0 51.01 51.11 o 0.958629
3 -1 10 -1 0 165.14 163.17 o 0.958383
2 -1 11 0 0 166.03 169.34 o 0.958060
2 1 11 0 0 32.27 32.91 o 0.958060
6 1 1 -1 0 206.03 207.05 o 0.957975
3 0 11 0 1 124.74 147.22 o 0.957171
3 0 9 1 0 0.12 0.14 o 0.956965
5 4 1 -1 0 433.17 489.82 o 0.955064
4 3 5 0 0 45.77 71.26 o 0.954152
5 0 5 0 0 6.87 10.70 o 0.954152
4 -3 5 0 0 111.24 173.20 o 0.954152
3 -1 8 0 -1 7.62 11.01 o 0.953588
2 -1 11 -1 0 47.19 35.43 o 0.951593
6 0 0 -1 0 256.12 198.09 o 0.951073
6 0 4 0 1 60.59 53.63 o 0.949759
5 -1 6 -1 0 281.30 349.85 o 0.948638
3 3 4 1 0 19.49 19.59 o 0.948325
5 0 7 -1 0 251.67 245.48 o 0.948114
3 3 8 0 1 0.81 0.81 o 0.947873
3 1 10 0 0 19650.81 18906.12 o 0.947368
3 -1 10 0 0 15928.49 15324.86 o 0.947368
4 -2 2 0 -1 0.03 0.03 o 0.947310
3 -2 9 -1 0 88.56 82.19 o 0.946861
0 0 12 1 0 213.28 197.97 o 0.946844
4 -3 5 1 0 38.67 36.12 o 0.946613
2 2 10 0 -1 63.23 59.06 o 0.946608
3 2 7 1 0 4.59 3.21 o 0.946014
3 -2 9 1 0 39.28 26.85 o 0.945714
4 -1 5 0 -1 18.61 15.26 o 0.944002
5 -1 8 0 1 4.10 3.66 o 0.943393
4 4 0 0 1 124.86 109.54 o 0.943320
4 -1 7 1 0 14.94 13.57 o 0.943211
5 2 3 0 0 38.39 37.40 o 0.943148
5 -2 3 0 0 82.29 80.16 o 0.943148
5 -3 6 0 1 66.44 60.88 o 0.943010
5 3 2 0 1 135.74 105.70 o 0.942173
4 0 6 0 -1 1.12 0.64 o 0.941606
4 0 10 0 1 7.38 6.96 o 0.941016
6 2 0 -1 0 196.18 161.82 o 0.940026
4 3 3 0 -1 75.29 63.97 o 0.939723
6 1 3 0 1 175.35 155.70 o 0.939529
6 0 2 -1 0 5.20 4.57 o 0.938429
3 3 8 0 0 48.23 41.66 o 0.938328
5 -4 3 0 1 491.65 450.32 o 0.937897
3 -2 7 0 -1 10.96 10.04 o 0.937872
5 2 7 -1 0 437.73 378.24 o 0.937169
3 3 10 -1 0 153.16 87.81 o 0.936173
2 0 12 0 1 155.55 99.22 o 0.935943
2 -1 11 1 0 65.96 74.72 o 0.934129
6 1 3 -1 0 259.62 180.46 o 0.932648
3 0 11 -1 0 91.40 63.88 o 0.932526
3 0 9 0 -1 92.77 65.81 o 0.932336
4 -3 5 -1 0 129.85 99.62 o 0.931598
1 1 12 0 0 0.17 0.16 o 0.931448
4 4 2 0 1 4.64 4.42 o 0.930978
5 -1 2 1 0 219.09 212.14 o 0.930527
5 0 1 1 0 0.40 0.39 o 0.930175
5 4 3 -1 0 420.57 410.61 o 0.929961
3 -2 11 0 1 99.96 101.33 o 0.929841
4 -1 9 -1 0 269.02 228.84 o 0.928072
6 2 2 -1 0 1.80 1.44 o 0.927812
5 3 6 -1 0 177.07 155.67 o 0.927083
4 2 4 1 0 248.27 257.63 o 0.926346
4 4 0 0 0 12340.91 12997.33 o 0.926075
1 1 12 0 1 16.88 18.19 o 0.924966
6 -1 5 0 1 253.38 259.24 o 0.923635
6 -2 4 0 1 169.45 180.16 o 0.923042
3 2 11 -1 0 491.59 413.92 o 0.922106
2 0 12 -1 0 181.56 212.35 o 0.920365
5 -2 1 1 0 6.28 6.97 o 0.919832
4 2 6 0 -1 7.20 6.61 o 0.915552
4 -3 9 0 1 133.30 143.49 o 0.915238
4 -2 10 0 1 27.61 26.90 o 0.915009
4 3 7 0 1 99.37 99.69 o 0.914473
4 4 2 0 0 0.88 0.94 o 0.914390
5 -2 5 -1 0 47.58 40.18 o 0.913686
5 1 8 -1 0 22.58 22.58 o 0.912282
4 -2 8 -1 0 165.30 163.70 o 0.911858
6 -3 1 0 1 385.42 368.79 o 0.911695
5 1 8 0 1 10.31 10.26 o 0.911257
4 -2 4 0 -1 216.34 216.21 o 0.911235
2 1 11 0 -1 71.79 72.27 o 0.911180
2 2 12 -1 0 145.03 147.37 o 0.910343
4 0 10 -1 0 30.64 31.15 o 0.910133
1 1 12 0 -1 10.26 10.38 o 0.909921
4 -2 8 0 0 15971.79 16097.46 o 0.909600
4 2 8 0 0 16118.80 16245.62 o 0.909600
6 -1 1 -1 0 255.72 256.11 o 0.909362
3 -1 10 1 0 189.93 185.07 o 0.908694
4 3 9 -1 0 423.70 370.65 o 0.907859
6 2 0 0 1 158.74 163.28 o 0.907209
3 2 9 0 -1 58.09 58.55 o 0.907023
5 0 3 1 0 2.47 2.47 o 0.906937
5 3 4 0 1 0.32 0.33 o 0.906660
5 -1 6 0 0 11564.04 11693.35 o 0.906351
5 1 6 0 0 21657.74 21899.93 o 0.906351
4 1 7 0 -1 22.74 25.77 o 0.904814
2 0 12 0 0 13509.31 12898.86 o 0.903328
6 0 4 -1 0 222.11 211.27 o 0.903322
4 -1 9 0 0 12.14 11.66 o 0.902845
4 1 9 0 0 64.33 61.82 o 0.902845
3 3 8 0 -1 0.10 0.08 o 0.901698
4 2 10 -1 0 11.67 12.01 o 0.900438
3 0 11 0 0 25.30 22.56 o 0.899762
5 2 7 0 1 76.93 86.33 o 0.897512
5 -2 3 1 0 52.08 57.68 o 0.897343
4 1 7 1 0 0.19 0.20 o 0.896704
4 4 4 0 1 104.75 104.36 o 0.896671
5 -2 5 0 0 27.05 28.66 o 0.896523
5 2 5 0 0 1.14 1.20 o 0.896523
5 -1 4 1 0 0.00 0.00 o 0.896268
6 2 2 0 1 12.35 12.19 o 0.896215
6 2 4 -1 0 111.84 115.83 o 0.893841
4 3 5 0 -1 6.83 7.33 o 0.893580
6 1 5 0 1 218.44 248.20 o 0.893413
5 0 1 0 -1 12.24 12.76 o 0.893287
5 0 9 0 1 283.97 260.29 o 0.892657
5 -4 5 0 1 545.16 513.39 o 0.892010
6 0 6 0 1 6.74 6.23 o 0.891381
4 0 8 1 0 296.79 241.17 o 0.890912
3 -1 12 0 1 5.96 4.98 o 0.890848
6 3 1 -1 0 430.85 380.93 o 0.890323
3 3 6 1 0 286.80 262.31 o 0.890195
6 -3 3 0 1 449.18 432.52 o 0.889783
2 1 11 1 0 0.90 0.83 o 0.888891
5 3 2 0 0 16597.90 17154.30 o 0.887743
5 -3 2 0 0 14610.53 15100.31 o 0.887743
6 -1 3 -1 0 95.51 98.96 o 0.887614
6 1 5 -1 0 363.50 378.45 o 0.887490
5 1 2 0 -1 208.42 240.10 o 0.886727
5 1 2 1 0 135.97 152.60 o 0.885785
5 4 5 -1 0 287.94 324.76 o 0.885174
2 2 10 1 0 8.53 9.23 o 0.884823
4 -3 7 0 0 94.60 106.04 o 0.884448
5 0 7 0 0 1.17 1.31 o 0.884448
4 3 7 0 0 24.78 27.78 o 0.884448
1 0 13 0 1 224.51 233.93 o 0.884051
4 4 0 0 -1 326.96 319.94 o 0.884000
4 4 8 -1 0 79.53 70.46 o 0.883512
5 -3 2 -1 0 211.74 179.62 o 0.883056
4 -1 11 0 1 256.10 223.83 o 0.882895
2 -1 11 0 -1 5.73 5.84 o 0.882126
4 4 4 0 0 17836.96 18343.96 o 0.881821
4 -2 8 1 0 91.56 94.49 o 0.881812
1 1 12 1 0 4.95 4.99 o 0.880984
3 1 10 0 -1 168.33 184.17 o 0.880793
4 3 1 1 0 5.05 2.89 o 0.878794
4 -3 7 1 0 9.14 6.59 o 0.878434
1 0 13 -1 0 23.47 18.54 o 0.877396
3 1 12 -1 0 15.75 12.10 o 0.877384
4 -1 7 0 -1 7.14 5.37 o 0.876346
1 0 13 0 0 1.40 1.37 o 0.875838
4 4 2 0 -1 0.04 0.04 o 0.873819
6 0 0 0 0 14893.55 15324.62 o 0.873112
5 0 3 0 -1 5.45 5.66 o 0.872646
4 -3 1 0 -1 1.29 1.39 o 0.872255
4 2 6 1 0 0.48 0.48 o 0.871940
3 2 11 0 1 14.13 11.22 o 0.871084
5 2 1 0 -1 8.58 6.49 o 0.870949
5 -2 9 0 1 338.04 275.75 o 0.870366
5 -1 8 -1 0 0.76 0.62 o 0.870004
6 3 3 -1 0 327.02 261.55 o 0.869882
6 -2 6 0 1 0.47 0.37 o 0.869183
2 -1 13 0 1 78.90 59.08 o 0.868700
5 -3 2 1 0 91.96 72.02 o 0.868161
3 1 10 1 0 198.80 111.41 o 0.866890
4 -3 7 -1 0 15.67 8.57 o 0.866395
4 0 10 0 0 200.89 111.91 o 0.866190
5 -3 8 0 1 20.74 10.92 o 0.865657
6 2 4 0 1 57.42 31.42 o 0.865486
5 0 5 1 0 0.00 0.00 o 0.865250
4 0 8 0 -1 134.87 51.27 o 0.864570
3 1 12 0 1 46.66 21.71 o 0.863639
4 1 11 -1 0 89.26 40.87 o 0.863443
6 0 2 0 0 251.73 118.43 o 0.863299
2 0 12 1 0 148.29 67.56 o 0.863279
2 1 13 -1 0 135.95 69.30 o 0.862383
6 -1 7 0 1 208.81 110.52 o 0.859979
5 0 9 -1 0 97.30 51.55 o 0.859903
5 -1 2 0 -1 251.86 133.45 o 0.859883
4 -2 6 0 -1 0.31 0.16 o 0.859303
4 3 3 1 0 4.22 1.99 o 0.859119
4 2 10 0 1 8.25 4.68 o 0.858855
6 1 1 0 0 113.25 78.55 o 0.858847
6 -1 1 0 0 7.75 5.38 o 0.858847
3 2 9 1 0 3.51 1.89 o 0.858335
5 3 4 0 0 150.83 69.49 o 0.857849
5 -3 4 0 0 117.64 54.20 o 0.857849
5 1 4 0 -1 30.35 15.36 o 0.856932
5 -2 5 1 0 7.75 4.00 o 0.856907
4 1 11 0 1 302.59 183.60 o 0.856387
4 -1 9 1 0 22.92 13.88 o 0.856240
5 1 4 1 0 10.40 6.44 o 0.856082
5 3 6 0 1 32.33 31.02 o 0.855464
2 2 12 0 1 156.16 169.02 o 0.854992
3 -1 10 0 -1 245.60 234.73 o 0.854469
6 -2 0 -1 0 146.89 137.56 o 0.854076
2 2 12 0 0 16000.03 14909.19 o 0.853971
5 -3 4 -1 0 3.41 3.11 o 0.853618
5 3 8 -1 0 0.01 0.01 o 0.853288
4 -3 3 0 -1 0.30 0.23 o 0.853007
6 0 6 -1 0 1.09 0.73 o 0.852658
3 -2 9 0 -1 10.18 7.72 o 0.852240
5 -2 7 -1 0 62.36 54.65 o 0.851931
5 2 3 0 -1 2.05 1.78 o 0.851786
5 2 9 -1 0 219.98 198.82 o 0.851712
1 0 13 1 0 0.03 0.03 o 0.851366
2 0 12 0 -1 158.97 150.09 o 0.851010
3 2 11 0 0 62.45 57.08 o 0.850956
3 -2 11 0 0 72.25 66.05 o 0.850956
3 3 10 0 1 38.61 30.00 o 0.850349
6 -3 5 0 1 206.66 160.58 o 0.850317
5 5 2 -1 0 93.99 79.73 o 0.849123
6 -1 5 -1 0 175.94 145.36 o 0.848423
3 0 11 1 0 16.24 12.01 o 0.847613
5 -1 10 0 1 62.85 33.67 o 0.847110
4 4 6 0 1 26.62 13.82 o 0.847058
5 -1 6 1 0 81.25 42.75 o 0.846718
1 0 13 0 -1 80.97 57.01 o 0.845416
5 4 1 0 1 35.50 25.05 o 0.845331
4 4 4 0 -1 194.50 142.12 o 0.845265
6 -2 2 -1 0 1.24 1.12 o 0.844884
6 2 6 -1 0 17.28 17.66 o 0.844671
4 2 8 0 -1 358.11 333.43 o 0.844271
3 3 10 0 0 14688.15 13942.41 o 0.843438
2 1 13 0 1 64.74 61.47 o 0.843414
7 0 1 0 1 164.89 115.66 o 0.842149
6 -4 0 0 1 69.44 47.59 o 0.842050
3 -2 11 -1 0 132.62 76.87 o 0.840568
6 1 3 0 0 5.52 3.15 o 0.840455
6 -1 3 0 0 125.82 71.76 o 0.840455
5 -3 4 1 0 7.03 3.99 o 0.840140
3 -2 11 1 0 98.06 58.65 o 0.839766
3 -1 12 -1 0 2.28 1.55 o 0.839580
5 2 1 1 0 0.55 0.36 o 0.838845
5 -2 7 0 0 36.43 15.35 o 0.837967
5 2 7 0 0 0.92 0.39 o 0.837967
5 1 8 0 0 10.54 4.98 o 0.837040
5 -1 8 0 0 2.05 0.97 o 0.837040
7 -1 2 0 1 88.09 77.98 o 0.836646
6 0 4 0 0 13924.38 14094.77 o 0.835732
4 3 7 0 -1 9.68 9.81 o 0.835563
6 1 7 0 1 398.30 405.51 o 0.835426
5 0 5 0 -1 0.91 0.92 o 0.835323
4 3 9 0 1 43.02 47.46 o 0.834569
4 4 6 0 0 0.51 0.52 o 0.834505
5 -4 7 0 1 229.97 213.04 o 0.834278
6 -4 2 0 1 0.13 0.12 o 0.833236
6 3 5 -1 0 287.79 280.70 o 0.832897
5 -1 4 0 -1 0.28 0.28 o 0.832632
3 -1 12 0 0 0.14 0.11 o 0.832145
3 1 12 0 0 0.84 0.68 o 0.832145
6 3 1 0 1 99.72 80.97 o 0.831880
2 2 12 0 -1 231.04 183.35 o 0.831629
6 4 0 -1 0 45.51 45.08 o 0.830652
2 1 13 0 0 17.36 16.65 o 0.830633
2 -1 13 0 0 137.32 131.72 o 0.830633
6 1 7 -1 0 202.65 199.48 o 0.830577
3 0 11 0 -1 0.88 0.82 o 0.830357
3 0 13 0 1 101.28 88.55 o 0.830053
5 4 7 -1 0 312.58 313.50 o 0.828678
6 2 0 0 0 11904.20 12047.13 o 0.828307
6 -2 0 0 0 12618.37 12769.87 o 0.828307
4 0 12 0 1 92.24 95.52 o 0.827830
5 4 3 0 1 101.32 104.15 o 0.827776
4 -1 11 -1 0 32.65 35.27 o 0.827340
4 1 9 0 -1 9.23 10.16 o 0.827207
2 -1 13 -1 0 89.73 77.93 o 0.826407
6 0 8 0 1 109.55 112.69 o 0.825206
7 0 3 0 1 353.44 319.94 o 0.824787
3 3 12 -1 0 42.98 39.05 o 0.824527
5 1 10 -1 0 206.19 179.97 o 0.824371
3 3 8 1 0 2.51 2.17 o 0.824264
4 -2 10 -1 0 1.84 1.84 o 0.824057
5 1 10 0 1 53.47 53.70 o 0.823613
4 3 5 1 0 2.19 2.37 o 0.823435
7 -2 1 0 1 307.78 321.06 o 0.823354
5 5 4 -1 0 2.47 2.43 o 0.822851
1 1 14 -1 0 264.69 229.74 o 0.822529
4 2 10 0 0 64.14 57.69 o 0.822389
4 -2 10 0 0 68.15 61.29 o 0.822389
6 4 2 -1 0 4.70 4.26 o 0.822188
5 -2 1 0 -1 25.79 23.80 o 0.822108
5 2 3 1 0 9.02 7.97 o 0.821683
5 2 9 0 1 125.06 106.77 o 0.821617
5 3 2 0 -1 254.13 223.59 o 0.821257
4 1 9 1 0 1.49 1.31 o 0.820997
6 2 6 0 1 10.78 10.06 o 0.820622
6 2 2 0 0 67.56 78.53 o 0.819914
6 -2 2 0 0 97.71 113.57 o 0.819914
6 -2 4 -1 0 167.71 142.18 o 0.818992
4 -3 11 0 1 201.71 271.84 o 0.818209
4 -3 5 0 -1 36.28 50.29 o 0.818049
5 2 5 0 -1 17.32 12.90 o 0.816972
5 -4 1 1 0 40.70 37.56 o 0.816620
3 3 10 0 -1 198.64 183.71 o 0.816536
5 4 1 0 0 1.12 1.26 o 0.816098
5 -4 1 0 0 85.91 96.42 o 0.816098
6 3 3 0 1 129.80 117.04 o 0.815133
0 0 14 1 0 40.86 38.72 o 0.815048
2 -1 13 1 0 32.09 32.83 o 0.814892
5 -3 6 0 0 14735.24 15577.69 o 0.814103
5 3 6 0 0 11770.09 12443.02 o 0.814103
7 1 2 0 1 84.88 89.94 o 0.813986
3 0 13 -1 0 117.01 123.83 o 0.813826
5 1 6 0 -1 319.10 327.90 o 0.813319
4 3 11 -1 0 206.43 205.96 o 0.812924
5 1 6 1 0 233.66 204.15 o 0.812592
3 2 11 0 -1 0.17 0.14 o 0.812324
5 0 7 1 0 13.53 11.64 o 0.812262
3 -2 13 0 1 261.91 209.94 o 0.812040
4 -3 9 0 0 29.20 26.49 o 0.811559
5 0 9 0 0 14.22 12.90 o 0.811559
4 3 9 0 0 144.27 130.87 o 0.811559
7 -1 4 0 1 1.00 0.86 o 0.811481
5 -3 6 -1 0 207.77 186.44 o 0.810484
4 -2 12 0 1 120.89 113.50 o 0.809958
4 2 8 1 0 84.47 74.94 o 0.809709
4 1 11 0 0 30.36 28.38 o 0.809318
4 -1 11 0 0 3.70 3.46 o 0.809318
4 0 10 1 0 0.74 0.52 o 0.808500
6 -4 4 0 1 86.64 61.91 o 0.808369
2 0 14 0 1 6.84 5.80 o 0.808064
6 -2 8 0 1 60.32 63.49 o 0.807499
7 -2 3 0 1 285.46 279.21 o 0.807107
6 -1 5 0 0 2.17 2.14 o 0.806958
6 1 5 0 0 16.93 16.69 o 0.806958
4 -3 9 1 0 69.62 72.93 o 0.806905
3 2 13 -1 0 43.60 46.14 o 0.806873
4 0 12 -1 0 153.98 180.08 o 0.806570
5 -2 3 0 -1 1.80 1.60 o 0.805933
3 -1 12 1 0 0.32 0.30 o 0.805568
5 -2 7 1 0 3.79 3.45 o 0.805348
4 -1 9 0 -1 8.54 7.72 o 0.805286
1 1 14 0 0 12949.96 11643.59 o 0.805166
7 1 2 -1 0 143.25 120.93 o 0.804380
7 0 1 -1 0 196.78 124.96 o 0.804152
4 4 6 0 -1 8.12 4.92 o 0.803324
4 4 10 -1 0 1.38 1.19 o 0.802958
5 0 11 0 1 174.20 214.52 o 0.801956
4 -2 10 1 0 19.39 24.01 o 0.801681
1 1 14 0 1 81.02 62.43 o 0.800968
5 -4 3 1 0 19.16 16.28 o 0.800761
5 -4 3 0 0 0.44 0.47 o 0.800268
5 4 3 0 0 30.16 31.75 o 0.800268
6 -3 7 0 1 314.00 283.07 o 0.799870
4 2 12 -1 0 103.13 94.82 o 0.799799
4 -2 8 0 -1 188.21 175.33 o 0.799559
2 1 13 0 -1 6.20 5.68 o 0.799522
5 -3 6 1 0 112.65 98.69 o 0.798921
6 -1 7 -1 0 110.85 107.84 o 0.798293
6 4 4 -1 0 149.92 147.70 o 0.798269
2 0 14 -1 0 4.84 4.23 o 0.797975
4 -3 9 -1 0 42.00 35.11 o 0.797545
7 2 1 -1 0 302.58 255.25 o 0.797441
5 3 4 0 -1 5.61 4.74 o 0.797417
6 -1 1 1 0 2.49 2.24 o 0.797188
5 -4 1 -1 0 24.13 24.19 o 0.796875
5 3 8 0 1 13.89 13.85 o 0.796463
6 -2 4 0 0 12578.28 12660.24 o 0.796187
6 2 4 0 0 13208.14 13294.20 o 0.796187
5 4 5 0 1 109.68 111.53 o 0.795716
6 0 6 0 0 0.04 0.05 o 0.795127
6 0 8 -1 0 71.47 55.65 o 0.794197
6 0 0 1 0 142.99 133.77 o 0.793198
7 0 5 0 1 319.48 314.08 o 0.793060
5 -1 10 -1 0 139.14 139.69 o 0.792778
6 -1 9 0 1 169.61 174.87 o 0.792531
5 -1 6 0 -1 188.54 190.74 o 0.792456
3 0 13 0 0 32.93 37.56 o 0.791775
2 2 14 -1 0 29.51 28.59 o 0.791416
1 1 14 0 -1 41.38 37.96 o 0.791139
7 1 4 0 1 0.01 0.01 o 0.790756
5 2 5 1 0 9.14 15.04 o 0.790299
4 4 0 1 0 93.53 82.45 o 0.790015
4 4 8 0 1 92.71 86.05 o 0.789666
5 -3 10 0 1 88.96 79.59 o 0.789484
5 -1 8 1 0 1.42 1.20 o 0.789391
7 0 3 -1 0 232.94 193.42 o 0.788995
2 2 12 1 0 161.02 137.43 o 0.788796
4 0 10 0 -1 20.80 17.64 o 0.788660
6 2 8 -1 0 151.11 113.65 o 0.787731
5 0 7 0 -1 5.95 4.26 o 0.787352
2 0 14 0 0 19.99 16.54 o 0.786794
6 -2 0 1 0 71.54 59.52 o 0.786755
5 -2 9 -1 0 45.28 51.24 o 0.786219
3 1 12 0 -1 32.71 32.01 o 0.785937
6 0 2 1 0 6.73 6.59 o 0.785818
5 -2 11 0 1 137.78 139.45 o 0.785676
6 -3 1 -1 0 52.24 52.72 o 0.785577
6 3 7 -1 0 206.75 214.75 o 0.785320
6 3 5 0 1 141.61 83.26 o 0.784466
2 1 13 1 0 21.40 12.06 o 0.784336
5 5 6 -1 0 70.09 35.50 o 0.784010
4 4 2 1 0 3.34 2.50 o 0.782723
7 2 3 -1 0 230.99 164.60 o 0.782654
6 -1 3 1 0 0.03 0.00 o 0.782414
5 -4 3 -1 0 22.27 18.78 o 0.782118
7 1 4 -1 0 0.77 0.77 o 0.781940
7 2 1 0 1 204.77 214.32 o 0.781725
7 -3 2 0 1 53.64 48.23 o 0.780993
6 -2 6 -1 0 4.74 4.20 o 0.780669
4 -1 13 0 1 93.31 101.44 o 0.780208
5 3 10 -1 0 45.68 48.01 o 0.780067
2 -1 13 0 -1 15.87 16.89 o 0.779677
6 -2 2 1 0 8.93 9.52 o 0.779552
4 4 8 0 0 13115.47 13964.94 o 0.779467
6 3 1 0 0 10.79 11.37 o 0.779156
6 -3 1 0 0 54.13 57.07 o 0.779156
3 -1 14 0 1 89.08 90.92 o 0.778506
5 0 11 -1 0 238.03 205.96 o 0.777954
4 3 7 1 0 15.10 12.14 o 0.777373
7 -2 5 0 1 370.01 306.04 o 0.777305
3 2 11 1 0 18.54 18.97 o 0.776792
5 -2 5 0 -1 2.15 1.98 o 0.776256
3 1 12 1 0 61.81 59.39 o 0.776012
4 0 12 0 0 12014.85 11513.63 o 0.775509
4 -1 11 1 0 2.98 2.81 o 0.775238
5 2 9 0 0 1.71 1.63 o 0.775203
5 -2 9 0 0 53.16 50.73 o 0.775203
7 -1 2 -1 0 148.53 147.35 o 0.774950
7 -1 6 0 1 29.52 20.71 o 0.774157
4 3 9 0 -1 1.03 1.07 o 0.773298
6 1 9 0 1 77.36 83.11 o 0.773190
4 2 10 0 -1 0.22 0.24 o 0.773160
4 -3 7 0 -1 0.37 0.37 o 0.772837
5 4 1 0 -1 2.03 1.93 o 0.772688
5 -4 9 0 1 340.95 317.90 o 0.772280
3 -2 11 0 -1 1.64 1.54 o 0.772266
3 2 13 0 1 167.75 148.67 o 0.772021
5 2 7 0 -1 0.28 0.25 o 0.771928
1 1 14 1 0 239.23 211.97 o 0.771897
5 2 11 -1 0 174.51 152.93 o 0.771873
5 -4 5 1 0 44.05 38.00 o 0.771631
6 -4 6 0 1 0.59 0.52 o 0.771453
6 -3 3 -1 0 129.76 112.87 o 0.771428
5 -4 5 0 0 1.79 1.28 o 0.771190
5 4 5 0 0 19.79 14.14 o 0.771190
4 2 12 0 1 66.92 53.82 o 0.770232
5 3 2 1 0 194.59 156.48 o 0.770227
3 1 14 -1 0 87.31 70.22 o 0.769472
6 1 9 -1 0 276.43 229.21 o 0.769341
6 1 1 1 0 0.00 0.00 o 0.768513
6 2 8 0 1 54.93 54.80 o 0.768117
5 4 9 -1 0 257.57 255.59 o 0.767831
7 2 3 0 1 110.28 109.39 o 0.767779
5 1 10 0 0 10163.66 10035.14 o 0.767595
5 -1 10 0 0 13194.18 13027.34 o 0.767595
1 0 15 0 1 25.88 25.31 o 0.767098
3 -1 12 0 -1 5.36 5.24 o 0.767064
4 1 13 -1 0 244.61 217.29 o 0.766687
6 -5 1 0 1 351.79 318.59 o 0.765736
6 0 0 0 -1 150.17 129.25 o 0.765542
6 3 3 0 0 5.82 6.10 o 0.765345
6 -3 3 0 0 35.96 37.66 o 0.765345
6 0 4 1 0 133.35 143.48 o 0.764857
6 1 1 0 -1 0.35 0.33 o 0.764733
3 3 12 0 1 16.25 15.97 o 0.764079
6 1 7 0 0 4.17 4.66 o 0.763465
6 -1 7 0 0 1.21 1.35 o 0.763465
7 3 2 -1 0 94.57 77.37 o 0.763065
5 3 8 0 0 109.31 92.79 o 0.762763
5 -3 8 0 0 64.31 54.59 o 0.762763
1 0 15 -1 0 118.80 109.79 o 0.762738
6 4 6 -1 0 1.74 1.63 o 0.762660
5 1 8 0 -1 1.43 1.19 o 0.762118
4 4 4 1 0 203.21 176.40 o 0.762002
5 3 6 0 -1 147.02 118.48 o 0.761916
4 1 13 0 1 28.39 21.56 o 0.761735
5 -1 12 0 1 66.24 50.57 o 0.761727
1 0 15 0 0 2.96 2.22 o 0.761713
5 1 8 1 0 8.65 6.56 o 0.761520
5 -3 2 0 -1 229.33 171.84 o 0.761475
6 5 1 -1 0 339.66 250.74 o 0.761399
7 0 5 -1 0 113.04 82.49 o 0.761087
6 2 6 0 0 1.07 1.11 o 0.760844
6 -2 6 0 0 0.03 0.03 o 0.760844
7 -3 4 0 1 7.24 6.40 o 0.760405
3 1 14 0 1 83.32 58.37 o 0.760151
2 0 14 1 0 8.14 6.32 o 0.759905
5 -3 8 -1 0 8.98 5.81 o 0.759784
6 4 0 0 1 51.91 26.80 o 0.759643
5 4 3 0 -1 34.71 13.57 o 0.759212
6 -2 4 1 0 105.48 39.65 o 0.759076
3 3 12 0 0 1.54 0.55 o 0.759054
4 3 11 0 1 72.46 27.33 o 0.759044
6 0 2 0 -1 6.05 2.09 o 0.758902
6 0 10 0 1 6.80 3.02 o 0.758438
3 -2 13 0 0 66.15 26.68 o 0.757905
3 2 13 0 0 15.36 6.20 o 0.757905
3 3 10 1 0 175.77 77.16 o 0.757707
2 -1 15 0 1 115.71 59.77 o 0.757004
6 -3 1 1 0 6.01 3.56 o 0.756917
7 1 6 0 1 37.61 33.75 o 0.756100
3 0 13 1 0 5.52 2.35 o 0.755541
7 2 5 -1 0 281.84 130.42 o 0.755390
6 1 3 1 0 1.93 0.89 o 0.755251
6 -1 5 1 0 0.15 0.07 o 0.755174
5 -4 5 -1 0 60.49 28.23 o 0.754908
7 -1 4 -1 0 18.94 9.62 o 0.754824
5 0 9 1 0 2.46 1.63 o 0.754718
2 2 14 0 1 5.75 2.79 o 0.754235
5 4 7 0 1 46.99 20.95 o 0.753923
4 4 8 0 -1 161.41 71.26 o 0.753876
2 2 14 0 0 1.01 0.45 o 0.753534
4 1 11 0 -1 18.15 8.94 o 0.753493
6 4 2 0 1 9.27 5.06 o 0.753153
2 1 15 -1 0 9.16 6.90 o 0.752813
6 -5 3 0 1 313.84 228.67 o 0.752615
6 1 3 0 -1 0.10 0.06 o 0.751662
7 0 7 0 1 169.54 90.92 o 0.751662
2 0 14 0 -1 4.21 2.28 o 0.751496
6 2 0 0 -1 320.98 172.56 o 0.751342
3 -2 13 -1 0 1.90 1.57 o 0.750538
5 3 4 1 0 3.00 2.75 o 0.750458
5 -3 8 1 0 1.66 1.27 o 0.750233
3 -2 13 1 0 5.18 4.01 o 0.749967
5 2 7 1 0 0.80 0.71 o 0.749311
5 2 11 0 1 46.79 32.76 o 0.749261
5 -2 9 1 0 9.52 7.46 o 0.749162
4 1 11 1 0 1.09 0.97 o 0.748790
6 5 3 -1 0 322.90 260.84 o 0.748495
7 1 6 -1 0 129.47 102.32 o 0.748382
5 5 2 0 1 74.36 75.96 o 0.747398
6 -1 1 0 -1 1.68 1.71 o 0.747313
6 0 8 0 0 10649.86 10801.44 o 0.747089
7 0 1 0 0 9.69 9.73 o 0.746815
4 2 10 1 0 25.55 23.69 o 0.746354
1 0 15 1 0 18.45 14.40 o 0.745451
6 -3 5 -1 0 76.89 68.88 o 0.745282
5 1 12 -1 0 0.06 0.05 o 0.745066
6 2 2 0 -1 5.52 5.00 o 0.745061
5 -1 8 0 -1 1.06 0.93 o 0.744872
4 -2 12 -1 0 143.57 129.47 o 0.744835
6 -3 9 0 1 352.91 342.91 o 0.744746
6 -2 10 0 1 1.79 1.85 o 0.744623
5 1 12 0 1 0.24 0.27 o 0.744507
6 3 7 0 1 114.25 110.68 o 0.744334
6 -3 3 1 0 13.22 12.18 o 0.744237
7 3 4 -1 0 0.01 0.01 o 0.743829
4 2 12 0 0 11499.20 10989.22 o 0.743603
4 -2 12 0 0 11333.06 10830.45 o 0.743603
3 -1 14 -1 0 228.12 217.60 o 0.743591
6 -1 9 -1 0 127.69 121.20 o 0.743473
3 0 13 0 -1 2.83 2.65 o 0.743242
7 -2 1 -1 0 83.20 79.43 o 0.742930
5 -3 4 0 -1 3.17 2.10 o 0.742355
7 2 5 0 1 130.74 102.90 o 0.741990
4 3 11 0 0 1.45 1.29 o 0.741609
5 0 11 0 0 21.20 18.76 o 0.741609
4 -3 11 0 0 97.29 86.10 o 0.741609
1 0 15 0 -1 11.26 8.78 o 0.741447
4 -1 13 -1 0 124.32 98.45 o 0.741076
2 1 15 0 1 193.78 180.45 o 0.740095
6 0 4 0 -1 174.72 174.28 o 0.739971
6 3 5 0 0 137.34 141.17 o 0.739792
6 -3 5 0 0 80.19 82.42 o 0.739792
3 3 12 0 -1 9.09 10.41 o 0.739267
7 -4 1 0 1 470.12 452.50 o 0.738872
3 -1 14 0 0 10082.97 9600.46 o 0.738411
3 1 14 0 0 11224.79 10687.65 o 0.738411
4 -2 10 0 -1 15.24 14.41 o 0.738383
7 -2 7 0 1 199.59 186.77 o 0.738208
4 -3 11 1 0 42.63 39.72 o 0.738053
2 2 14 0 -1 18.65 17.37 o 0.738050
5 5 8 -1 0 19.00 18.56 o 0.737845
5 -2 7 0 -1 1.12 0.78 o 0.737309
4 -1 11 0 -1 17.05 11.37 o 0.736813
5 3 10 0 1 166.57 122.68 o 0.735943
4 0 14 0 1 14.85 15.47 o 0.735391
6 -1 3 0 -1 2.66 2.67 o 0.735101
6 -2 8 -1 0 242.98 244.35 o 0.735059
7 1 2 0 0 10948.35 11160.67 o 0.734836
5 5 2 0 0 10094.91 10290.68 o 0.734836
7 -1 2 0 0 9291.25 9471.43 o 0.734836
6 4 4 0 1 72.17 74.10 o 0.734639
7 0 3 0 0 5.95 6.12 o 0.734628
5 0 9 0 -1 1.18 1.21 o 0.734610
4 -3 13 0 1 194.12 199.96 o 0.734493
6 2 0 1 0 95.39 94.28 o 0.734266
5 4 5 0 -1 21.87 21.30 o 0.734249
6 0 10 -1 0 4.85 5.19 o 0.734154
6 0 6 1 0 3.97 3.20 o 0.733364
5 -4 7 1 0 87.48 69.73 o 0.733342
4 0 12 1 0 106.02 81.90 o 0.733288
3 3 14 -1 0 75.49 54.43 o 0.733072
5 -4 7 0 0 4.97 2.95 o 0.732964
5 4 7 0 0 42.45 25.19 o 0.732964
6 3 9 -1 0 260.98 172.81 o 0.732959
2 -1 15 0 0 4.94 4.50 o 0.731414
2 1 15 0 0 106.79 97.31 o 0.731414
3 0 15 0 1 55.10 42.92 o 0.731018
7 -2 3 -1 0 119.79 86.80 o 0.730928
4 -3 11 -1 0 72.84 53.71 o 0.730870
4 4 6 1 0 13.38 9.86 o 0.730846
6 1 5 1 0 0.00 0.00 o 0.730664
4 3 13 -1 0 245.04 169.63 o 0.730663
4 4 10 0 1 2.50 1.68 o 0.730570
5 -1 10 1 0 100.10 65.84 o 0.730352
3 2 13 0 -1 83.81 45.85 o 0.730227
7 -1 8 0 1 23.49 15.56 o 0.729614
7 -3 6 0 1 93.60 55.91 o 0.729437
5 5 4 0 1 0.27 0.17 o 0.729295
4 4 12 -1 0 110.06 70.52 o 0.729145
7 3 2 0 1 34.52 25.80 o 0.729050
6 2 10 -1 0 2.54 1.95 o 0.729037
2 -1 15 -1 0 27.41 20.61 o 0.728524
6 2 2 1 0 4.29 3.33 o 0.728400
6 -5 5 0 1 355.43 282.11 o 0.728276
6 -2 6 1 0 3.19 2.53 o 0.728263
4 -2 12 1 0 89.91 74.10 o 0.728188
4 1 13 0 0 61.96 50.97 o 0.728041
4 -1 13 0 0 0.11 0.09 o 0.728041
8 0 0 0 1 40.37 32.32 o 0.727532
6 1 5 0 -1 0.04 0.03 o 0.727413
7 4 1 -1 0 283.46 238.92 o 0.727357
6 -4 8 0 1 76.68 64.60 o 0.727350
6 2 4 0 -1 168.72 161.71 o 0.727123
7 -4 3 0 1 236.52 237.68 o 0.727063
6 -1 11 0 1 286.71 288.28 o 0.727005
8 -1 1 0 1 228.65 223.83 o 0.726837
4 3 9 1 0 4.92 4.90 o 0.726486
6 4 0 0 0 12581.49 12505.48 o 0.726473
6 -4 0 0 0 12130.78 12057.49 o 0.726473
6 5 5 -1 0 316.73 266.93 o 0.724542
7 -1 6 -1 0 147.60 122.51 o 0.724507
7 0 7 -1 0 162.73 133.51 o 0.724273
4 -3 9 0 -1 5.92 6.43 o 0.722779
4 -2 14 0 1 4.43 4.67 o 0.722777
5 0 13 0 1 207.29 195.85 o 0.722667
4 4 10 0 0 0.00 0.00 o 0.722471
5 -2 11 -1 0 112.95 95.41 o 0.722124
5 2 9 0 -1 9.89 8.41 o 0.722035
8 0 2 0 1 2.17 1.86 o 0.721825
0 0 16 0 0 8857.32 7549.24 o 0.721777
6 3 1 0 -1 1.81 1.55 o 0.721538
5 -1 12 -1 0 51.13 44.29 o 0.721497
6 4 2 0 0 0.08 0.06 o 0.720791
6 -4 2 0 0 0.00 0.00 o 0.720791
6 -3 5 1 0 42.61 38.11 o 0.720677
5 3 6 1 0 94.19 87.25 o 0.720643
2 -1 15 1 0 8.88 8.76 o 0.720598
4 0 14 -1 0 7.56 6.22 o 0.720366
6 -4 0 -1 0 194.58 167.14 o 0.720230
1 1 16 -1 0 7.46 6.83 o 0.720195
6 4 8 -1 0 101.69 90.00 o 0.719966
3 0 15 -1 0 165.44 150.86 o 0.719861
3 -1 14 1 0 78.39 68.09 o 0.719652
7 2 7 -1 0 270.69 271.43 o 0.719359
5 3 8 0 -1 11.04 11.07 o 0.719340
6 -2 0 0 -1 123.21 128.08 o 0.719308
6 -4 0 1 0 132.17 142.29 o 0.719221
6 -1 7 1 0 0.53 0.55 o 0.719173
5 -3 12 0 1 0.01 0.01 o 0.719011
5 -4 7 -1 0 121.52 125.18 o 0.718942
3 -2 15 0 1 127.73 131.94 o 0.718624
6 2 8 0 0 9929.49 10256.67 o 0.718438
6 -2 8 0 0 10128.91 10462.66 o 0.718438
4 0 12 0 -1 195.11 201.27 o 0.718388
7 -2 1 0 0 150.64 154.48 o 0.718194
7 2 1 0 0 0.00 0.00 o 0.718194
7 1 4 0 0 3.87 3.68 o 0.717610
7 -1 4 0 0 8.86 8.44 o 0.717610
5 5 4 0 0 152.85 145.62 o 0.717610
7 4 3 -1 0 346.43 320.22 o 0.716084
8 -1 3 0 1 210.97 139.93 o 0.715587
4 2 14 -1 0 19.18 11.57 o 0.715530
8 -2 0 0 1 113.14 72.76 o 0.715311
0 0 16 1 0 117.67 72.86 o 0.715158
6 1 9 0 0 32.48 19.17 o 0.715095
6 -1 9 0 0 73.42 43.32 o 0.715095
3 2 15 -1 0 167.26 108.40 o 0.715035
7 3 6 -1 0 99.11 65.76 o 0.714767
6 -4 2 -1 0 2.92 1.86 o 0.714692
7 1 8 0 1 7.86 7.39 o 0.714439
6 -2 2 0 -1 1.30 0.88 o 0.713791
6 -4 2 1 0 0.21 0.15 o 0.713706
5 2 11 0 0 95.45 62.71 o 0.713561
5 -2 11 0 0 5.19 3.41 o 0.713561
5 -3 6 0 -1 114.81 77.80 o 0.713459
6 2 10 0 1 12.63 8.63 o 0.713406
6 -1 5 0 -1 31.47 24.69 o 0.712373
7 3 4 0 1 8.07 6.33 o 0.712218
4 3 11 0 -1 26.77 22.67 o 0.712074
6 1 11 0 1 100.89 84.83 o 0.711990
7 0 5 0 0 114.11 98.57 o 0.711942
5 3 12 -1 0 13.59 11.63 o 0.711876
8 1 1 0 1 183.18 156.11 o 0.711832
6 2 4 1 0 116.24 100.92 o 0.711612
6 0 6 0 -1 1.59 1.46 o 0.711342
5 -4 11 0 1 169.47 136.41 o 0.711279
5 4 1 1 0 13.25 11.31 o 0.711026
5 -2 13 0 1 301.11 245.56 o 0.710686
6 -3 7 -1 0 42.72 36.46 o 0.710613
6 3 3 0 -1 0.10 0.00 o 0.710529
2 0 16 0 1 49.87 42.56 o 0.710425
2 1 15 0 -1 63.24 68.84 o 0.709905
8 -2 2 0 1 6.88 7.56 o 0.709885
5 5 2 0 -1 203.92 212.93 o 0.709768
5 3 10 0 0 9555.90 9502.21 o 0.709110
5 -3 10 0 0 8757.55 8708.35 o 0.709110
6 1 11 -1 0 120.90 120.32 o 0.708981
5 1 10 0 -1 139.07 139.51 o 0.708592
7 -2 5 -1 0 98.73 100.23 o 0.708573
1 1 16 0 0 51.48 50.81 o 0.708454
5 1 10 1 0 92.30 94.13 o 0.708111
7 1 8 -1 0 3.52 3.46 o 0.707918
5 4 11 -1 0 333.35 309.84 o 0.707799
7 2 7 0 1 106.07 96.93 o 0.707758
2 2 14 1 0 18.01 15.34 o 0.707619
5 -4 1 0 -1 10.28 9.19 o 0.707549
7 2 3 0 0 204.56 172.97 o 0.707335
7 -2 3 0 0 31.62 26.73 o 0.707335
5 4 9 0 1 107.26 88.63 o 0.707236
5 -3 10 -1 0 168.07 174.03 o 0.706714
4 2 12 0 -1 97.10 103.00 o 0.706615
6 4 6 0 1 0.18 0.19 o 0.706601
6 -3 7 0 0 111.26 75.28 o 0.705850
6 3 7 0 0 115.23 77.97 o 0.705850
1 1 16 0 1 15.85 12.61 o 0.705589
3 1 14 0 -1 226.29 179.62 o 0.705553
8 0 4 0 1 51.98 43.66 o 0.705477
7 0 9 0 1 200.22 179.56 o 0.705370
7 -4 5 0 1 227.39 242.59 o 0.705050
5 0 13 -1 0 46.71 49.21 o 0.704956
6 4 4 0 0 7885.79 8115.95 o 0.704512
6 -4 4 0 0 8208.44 8448.02 o 0.704512
3 0 15 0 0 54.71 56.48 o 0.704465
3 2 13 1 0 16.08 16.47 o 0.704091
2 0 16 -1 0 107.99 113.22 o 0.703540
5 2 9 1 0 2.99 2.74 o 0.703425
4 -1 13 1 0 34.44 35.18 o 0.702933
5 -1 12 0 0 0.21 0.16 o 0.702359
5 1 12 0 0 0.89 0.65 o 0.702359
8 1 1 -1 0 250.51 181.12 o 0.701986
4 4 10 0 -1 2.80 2.10 o 0.701953
5 5 6 0 1 66.21 44.12 o 0.701842
8 1 3 0 1 251.31 188.37 o 0.701254
5 4 7 0 -1 23.77 17.24 o 0.701030
3 -2 13 0 -1 30.73 24.49 o 0.700715
5 4 3 1 0 1.30 1.06 o 0.700484
5 2 13 -1 0 135.79 107.42 o 0.700422
6 2 6 0 -1 2.84 2.40 o 0.699906
6 3 9 0 1 48.82 29.49 o 0.699303
8 0 0 -1 0 58.25 36.92 o 0.699256
2 1 15 1 0 2.25 1.48 o 0.699210
2 2 16 -1 0 148.53 102.83 o 0.699033
5 -3 10 1 0 111.30 78.44 o 0.699009
1 1 16 0 -1 20.13 14.04 o 0.698842
6 -4 4 -1 0 148.65 102.55 o 0.698814
3 1 14 1 0 120.62 94.92 o 0.698346
4 0 14 0 0 82.20 60.15 o 0.697979
6 -2 4 0 -1 190.73 137.86 o 0.697972
6 1 7 1 0 20.06 14.79 o 0.697908
6 -4 4 1 0 36.07 26.13 o 0.697892
5 0 11 1 0 2.25 1.80 o 0.697487
5 -4 3 0 -1 13.98 15.83 o 0.697159
6 6 0 -1 0 134.03 166.49 o 0.696993
6 0 10 0 0 92.55 93.45 o 0.696464
4 -1 15 0 1 182.29 147.80 o 0.696281
2 -1 15 0 -1 43.26 35.87 o 0.695904
2 0 16 0 0 9713.71 8039.75 o 0.695842
6 -5 7 0 1 336.04 277.13 o 0.695826
6 0 12 0 1 74.75 67.34 o 0.695324
6 0 8 1 0 59.39 48.82 o 0.695166
6 1 7 0 -1 6.09 4.22 o 0.695073
7 4 5 -1 0 196.48 137.79 o 0.695024
8 2 0 -1 0 131.69 99.97 o 0.694831
3 3 12 1 0 0.69 0.54 o 0.694760
5 -1 10 0 -1 170.47 140.74 o 0.694667
8 -1 5 0 1 230.18 206.30 o 0.694571
8 -2 4 0 1 27.06 26.81 o 0.694318
7 -2 9 0 1 286.52 300.03 o 0.694215
5 5 4 0 -1 0.99 1.04 o 0.694209
8 0 2 -1 0 1.33 1.39 o 0.694185
4 2 14 0 1 34.57 35.63 o 0.694124
7 -3 2 -1 0 180.09 197.42 o 0.693998
5 -2 9 0 -1 10.94 7.99 o 0.693468
5 -2 11 1 0 38.69 28.90 o 0.693095
4 4 8 1 0 182.41 140.04 o 0.693020
6 5 7 -1 0 229.25 190.67 o 0.692567
6 6 2 -1 0 2.20 2.20 o 0.691970
8 1 3 -1 0 169.78 165.58 o 0.691835
7 -3 8 0 1 0.00 0.00 o 0.691819
3 -1 14 0 -1 101.34 98.68 o 0.691803
7 1 6 0 0 7512.53 7393.65 o 0.691409
5 5 6 0 0 8700.71 8563.03 o 0.691409
7 -1 6 0 0 10016.29 9857.79 o 0.691409
6 -2 8 1 0 96.10 95.04 o 0.690817
4 3 13 0 1 35.40 35.01 o 0.690793
3 2 15 0 1 12.50 12.07 o 0.690444
5 -4 9 1 0 2.36 2.11 o 0.690164
3 -1 16 0 1 33.40 29.14 o 0.690089
6 3 5 0 -1 12.05 10.11 o 0.689942
8 2 2 -1 0 0.17 0.15 o 0.689854
5 -4 9 0 0 13.83 12.08 o 0.689849
5 4 9 0 0 53.46 46.71 o 0.689849
3 3 14 0 1 128.28 111.63 o 0.689611
6 -3 11 0 1 320.45 282.84 o 0.689594
8 -3 1 0 1 271.25 245.55 o 0.689450
6 3 1 1 0 20.94 19.11 o 0.689363
6 -3 7 1 0 4.68 4.29 o 0.689189
5 5 10 -1 0 135.85 116.53 o 0.688956
6 5 1 0 1 67.89 64.78 o 0.688641
6 -1 11 -1 0 88.46 81.07 o 0.688582
7 -1 2 1 0 61.28 52.17 o 0.688419
7 0 1 1 0 1.77 1.54 o 0.688276
5 -1 14 0 1 68.07 68.12 o 0.687880
7 -1 8 -1 0 0.82 0.81 o 0.687608
8 2 0 0 1 11.45 10.90 o 0.687504
7 -2 5 0 0 8.44 8.31 o 0.687017
7 2 5 0 0 0.01 0.01 o 0.687017
6 -2 10 -1 0 2.25 2.06 o 0.686686
4 1 15 -1 0 131.96 121.07 o 0.686620
4 1 13 0 -1 0.35 0.32 o 0.686601
7 3 6 0 1 98.00 89.84 o 0.686582
6 2 6 1 0 2.02 1.83 o 0.686040
4 2 12 1 0 129.76 117.20 o 0.685977
3 3 14 0 0 8484.23 7635.13 o 0.685909
6 4 0 0 -1 124.11 111.14 o 0.685504
1 1 16 1 0 14.21 12.71 o 0.685473
6 -2 12 0 1 35.15 28.14 o 0.684632
5 3 8 1 0 7.92 5.87 o 0.684302
7 -2 1 1 0 7.41 6.34 o 0.684054
3 1 16 -1 0 13.50 13.26 o 0.683773
5 2 13 0 1 113.83 120.48 o 0.683394
7 -5 2 0 1 49.72 52.87 o 0.683291
4 1 15 0 1 89.33 95.50 o 0.683056
7 -3 2 0 0 8367.65 8943.75 o 0.683042
7 3 2 0 0 8283.28 8853.57 o 0.683042
4 1 13 1 0 15.67 16.76 o 0.683038
8 2 2 0 1 8.32 8.87 o 0.682682
7 0 9 -1 0 165.14 172.68 o 0.682589
7 -1 10 0 1 103.37 110.78 o 0.682241
8 -1 1 -1 0 131.37 136.00 o 0.682168
6 -1 7 0 -1 9.87 9.78 o 0.681916
7 0 7 0 0 146.82 129.99 o 0.681537
5 0 11 0 -1 0.12 0.10 o 0.681524
8 1 5 0 1 105.98 95.10 o 0.681441
7 4 1 0 1 137.42 118.12 o 0.681311
5 4 5 1 0 18.46 15.80 o 0.680734
6 4 2 0 -1 0.81 0.72 o 0.680723
8 0 6 0 1 0.06 0.07 o 0.680538
6 -4 10 0 1 6.88 7.63 o 0.680389
3 2 15 0 0 30.24 37.51 o 0.680291
3 -2 15 0 0 3.41 4.23 o 0.680291
6 3 11 -1 0 142.74 139.99 o 0.680204
6 -3 1 0 -1 13.01 13.34 o 0.679983
8 -3 3 0 1 244.06 252.45 o 0.679826
4 -2 12 0 -1 140.49 141.94 o 0.679773
6 3 3 1 0 9.26 9.24 o 0.679743
6 4 6 0 0 0.22 0.22 o 0.679671
6 -4 6 0 0 0.19 0.19 o 0.679671
8 0 4 -1 0 134.57 128.75 o 0.679607
7 -3 4 -1 0 1.97 1.89 o 0.679432
7 3 8 -1 0 8.95 7.70 o 0.679266
6 5 3 0 1 72.41 52.62 o 0.679051
7 0 3 1 0 3.26 1.69 o 0.678701
7 -2 7 -1 0 162.01 87.88 o 0.678580
3 0 15 1 0 58.29 31.94 o 0.678579
7 2 9 -1 0 78.18 39.36 o 0.678470
6 -1 9 1 0 24.91 11.70 o 0.678314
5 -3 8 0 -1 15.52 6.15 o 0.678143
5 -4 9 -1 0 22.74 9.01 o 0.678121
5 3 12 0 1 5.46 3.84 o 0.677867
5 -4 5 0 -1 5.87 5.45 o 0.677681
4 3 13 0 0 10.52 8.63 o 0.677574
4 -3 13 0 0 72.03 59.10 o 0.677574
5 0 13 0 0 11.79 9.67 o 0.677574
6 6 4 -1 0 36.17 27.02 o 0.677529
1 0 17 0 1 48.57 40.59 o 0.677395
3 1 16 0 1 4.06 3.24 o 0.677207
7 5 2 -1 0 80.20 63.72 o 0.677159
2 0 16 1 0 148.04 137.75 o 0.677033
6 0 12 -1 0 126.53 101.34 o 0.676469
6 0 8 0 -1 230.15 178.66 o 0.676323
8 2 4 -1 0 86.37 77.72 o 0.675542
5 1 14 -1 0 79.79 69.93 o 0.675536
7 -4 7 0 1 241.72 213.68 o 0.675484
4 -2 14 -1 0 12.00 10.09 o 0.675364
5 1 14 0 1 75.95 59.82 o 0.675119
4 3 11 1 0 2.25 1.54 o 0.675021
3 -2 15 -1 0 28.65 20.05 o 0.674948
4 -3 13 1 0 44.78 29.63 o 0.674858
7 -2 3 1 0 2.82 2.11 o 0.674652
6 -4 6 -1 0 0.02 0.01 o 0.674550
3 -2 15 1 0 15.41 8.89 o 0.674532
4 2 14 0 0 17.44 9.29 o 0.674445
4 -2 14 0 0 38.64 20.58 o 0.674445
1 0 17 -1 0 22.61 11.29 o 0.674387
6 4 10 -1 0 11.58 6.41 o 0.674334
7 -1 4 1 0 1.84 1.20 o 0.674194
8 3 1 -1 0 180.22 119.21 o 0.674020
4 -1 13 0 -1 22.41 16.03 o 0.673910
5 3 10 0 -1 178.76 136.53 o 0.673819
6 -2 6 0 -1 6.61 5.13 o 0.673793
6 -4 6 1 0 0.03 0.02 o 0.673721
1 0 17 0 0 61.20 51.28 o 0.673679
4 4 12 0 1 62.99 53.72 o 0.673662
5 -1 12 1 0 30.52 32.56 o 0.673491
6 2 10 0 0 33.82 26.59 o 0.673077
6 -2 10 0 0 34.91 27.44 o 0.673077
2 2 16 0 1 65.96 53.48 o 0.673014
6 -5 1 1 0 48.64 40.65 o 0.672851
8 -1 3 -1 0 141.42 118.14 o 0.672842
8 1 5 -1 0 137.86 116.68 o 0.672788
2 2 16 0 0 8069.16 6740.79 o 0.672516
6 2 12 -1 0 110.68 91.82 o 0.672459
6 4 8 0 1 44.75 37.56 o 0.672245
4 -3 11 0 -1 0.32 0.29 o 0.672045
7 4 3 0 1 39.65 36.16 o 0.672019
5 2 11 0 -1 4.86 3.03 o 0.671447
3 3 14 0 -1 97.47 50.74 o 0.671205
6 -3 9 -1 0 91.65 44.92 o 0.671118
2 0 16 0 -1 106.77 52.60 o 0.671066
6 -3 3 0 -1 20.66 12.12 o 0.670745
8 -2 6 0 1 10.51 12.54 o 0.670504
2 -1 17 0 1 12.95 13.03 o 0.670414
5 5 6 0 -1 107.88 121.53 o 0.670406
7 1 10 0 1 51.44 15.89 o 0.669786
7 1 2 1 0 97.13 28.94 o 0.669698
3 0 15 0 -1 2.99 0.99 o 0.669627
6 5 1 0 0 71.78 17.67 o 0.669615
6 -5 1 0 0 1.03 0.25 o 0.669615
7 -5 4 0 1 3.96 1.50 o 0.669376
4 -3 13 -1 0 45.44 16.02 o 0.669354
7 -3 4 0 0 6.34 2.39 o 0.669141
7 3 4 0 0 16.54 6.25 o 0.669141
8 2 4 0 1 77.93 45.13 o 0.668803
7 2 9 0 1 182.87 102.96 o 0.668711
5 5 8 0 1 8.52 8.03 o 0.668143
4 -1 15 -1 0 21.06 19.70 o 0.668042
2 1 17 -1 0 95.18 97.98 o 0.667498
4 4 12 0 0 6446.63 6697.15 o 0.667296
6 3 9 0 0 18.32 19.13 o 0.667101
6 -3 9 0 0 0.86 0.90 o 0.667101
7 0 1 0 -1 14.47 14.94 o 0.667063
6 4 4 0 -1 152.73 160.97 o 0.666961
4 0 14 1 0 12.29 13.08 o 0.666720
7 4 7 -1 0 221.14 217.03 o 0.666652
6 2 8 0 -1 71.25 72.23 o 0.666472
6 -1 13 0 1 97.24 94.28 o 0.666381
8 -1 7 0 1 307.62 324.15 o 0.666252
6 1 11 0 0 106.42 121.00 o 0.665855
6 -1 11 0 0 3.45 3.93 o 0.665855
3 -1 16 -1 0 16.17 14.00 o 0.665419
8 3 3 -1 0 240.79 219.75 o 0.665019
7 1 10 -1 0 82.87 55.64 o 0.664404
7 1 2 0 -1 187.54 121.93 o 0.664318
6 -5 3 1 0 10.97 8.68 o 0.663897
7 5 4 -1 0 7.74 6.25 o 0.663607
4 4 14 -1 0 3.02 2.44 o 0.663602
4 -3 15 0 1 225.73 153.88 o 0.663207
5 4 9 0 -1 51.48 33.48 o 0.663028
4 -2 14 1 0 17.61 11.28 o 0.662880
5 -2 13 -1 0 53.50 27.77 o 0.662616
1 0 17 1 0 4.26 2.91 o 0.662350
6 3 7 0 -1 19.32 17.67 o 0.662163
7 -3 2 1 0 74.53 57.75 o 0.661984
8 -3 5 0 1 292.85 227.42 o 0.661729
3 -1 16 0 0 4.27 3.33 o 0.661699
3 1 16 0 0 4.66 3.63 o 0.661699
6 3 5 1 0 3.64 2.86 o 0.661652
2 2 16 0 -1 107.91 84.88 o 0.661440
6 5 5 0 1 8.92 5.46 o 0.661013
6 5 3 0 0 7.00 3.65 o 0.660787
6 -5 3 0 0 81.39 42.47 o 0.660787
7 0 5 1 0 0.05 0.03 o 0.660690
6 1 9 1 0 0.37 0.23 o 0.660384
4 3 15 -1 0 38.91 25.28 o 0.660383
6 2 12 0 1 69.65 75.09 o 0.660133
3 2 15 0 -1 7.01 7.37 o 0.660061
7 -2 7 0 0 4.41 4.66 o 0.659576
7 2 7 0 0 0.19 0.20 o 0.659576
1 0 17 0 -1 61.55 63.03 o 0.659537
4 0 16 0 1 141.34 144.74 o 0.659523
5 4 11 0 1 19.50 20.55 o 0.659496
7 1 8 0 0 2.27 2.14 o 0.659123
7 -1 8 0 0 11.28 10.62 o 0.659123
5 5 8 0 0 99.17 93.35 o 0.659123
6 -5 9 0 1 120.47 140.56 o 0.658620
2 1 17 0 1 29.53 35.52 o 0.658585
4 1 15 0 0 4.06 3.80 o 0.658446
4 -1 15 0 0 22.54 21.14 o 0.658446
7 0 3 0 -1 0.07 0.07 o 0.658335
7 0 11 0 1 53.12 41.68 o 0.657982
6 1 9 0 -1 1.87 1.47 o 0.657982
8 -2 0 -1 0 192.43 150.75 o 0.657876
3 3 16 -1 0 3.25 2.56 o 0.657850
5 -1 14 -1 0 105.29 82.97 o 0.657821
8 -4 0 0 1 42.18 33.28 o 0.657810
7 2 1 0 -1 0.29 0.21 o 0.657605
8 0 6 -1 0 0.54 0.30 o 0.657228
7 -3 6 -1 0 79.16 48.65 o 0.657069
7 -2 5 1 0 1.92 1.23 o 0.656953
5 3 12 0 0 2.57 1.82 o 0.656725
5 -3 12 0 0 0.14 0.10 o 0.656725
7 1 4 1 0 0.41 0.32 o 0.656581
5 2 11 1 0 3.34 2.02 o 0.656403
5 1 12 0 -1 1.21 0.54 o 0.656314
6 -5 1 -1 0 54.51 29.42 o 0.656104
5 2 13 0 0 108.28 61.57 o 0.655981
5 -2 13 0 0 4.87 2.77 o 0.655981
5 -3 14 0 1 80.77 47.28 o 0.655935
5 1 12 1 0 0.89 0.52 o 0.655932
6 5 9 -1 0 273.44 152.10 o 0.655854
4 0 14 0 -1 7.09 6.00 o 0.655462
6 6 6 -1 0 8.36 7.54 o 0.655348
8 -1 5 -1 0 149.51 133.85 o 0.655282
7 3 8 0 1 0.95 0.83 o 0.654938
8 0 0 0 0 8716.36 7654.69 o 0.654834
4 3 13 0 -1 16.86 14.74 o 0.654826
5 -3 12 -1 0 0.06 0.05 o 0.654821
6 1 13 0 1 110.10 96.92 o 0.654760
8 1 7 0 1 93.60 82.65 o 0.654637
7 4 5 0 1 78.52 68.85 o 0.654522
6 2 8 1 0 118.93 102.94 o 0.654467
5 0 15 0 1 25.59 22.14 o 0.654463
5 -4 13 0 1 155.65 133.81 o 0.654207
5 4 7 1 0 9.78 10.22 o 0.654010
6 0 10 1 0 12.20 10.97 o 0.653828
8 -2 2 -1 0 1.48 1.64 o 0.653648
8 -4 2 0 1 0.22 0.23 o 0.653582
8 2 6 -1 0 0.65 0.67 o 0.653549
6 -3 5 0 -1 7.00 9.04 o 0.653345
6 3 11 0 1 115.96 135.59 o 0.653049
6 -3 9 1 0 5.40 6.49 o 0.652984
8 3 1 0 1 122.50 138.79 o 0.652927
7 -1 2 0 -1 134.16 145.94 o 0.652803
2 -1 17 0 0 2.73 2.25 o 0.652445
2 1 17 0 0 19.29 15.89 o 0.652445
6 1 13 -1 0 112.26 93.12 o 0.652418
7 -1 6 1 0 109.75 85.31 o 0.652328
3 0 17 0 1 159.97 130.18 o 0.652164
4 4 10 1 0 0.61 0.49 o 0.652042
7 1 4 0 -1 4.94 5.41 o 0.651509
5 4 13 -1 0 98.73 105.99 o 0.651496
5 -4 7 0 -1 15.73 16.38 o 0.651302
7 -3 10 0 1 31.36 25.58 o 0.651041
4 4 12 0 -1 144.46 117.85 o 0.651028
8 0 2 0 0 5.23 3.43 o 0.650663
5 3 14 -1 0 137.79 86.75 o 0.650505
2 -1 17 -1 0 104.64 71.25 o 0.650391
4 -2 16 0 1 18.57 12.50 o 0.650379
6 -2 10 1 0 0.21 0.15 o 0.650206
7 -4 1 -1 0 59.89 60.87 o 0.649755
8 0 8 0 1 50.16 45.78 o 0.649685
7 -3 4 1 0 0.73 0.73 o 0.649306
7 2 3 0 -1 0.21 0.20 o 0.649238
6 4 8 0 0 6530.88 6443.96 o 0.648931
6 -4 8 0 0 6417.40 6331.99 o 0.648931
7 -2 11 0 1 177.03 174.48 o 0.648900
7 -4 1 0 0 0.02 0.02 o 0.648751
8 1 1 0 0 2.27 2.24 o 0.648751
8 -1 1 0 0 116.22 114.49 o 0.648751
7 4 1 0 0 38.18 37.53 o 0.648751
7 2 1 1 0 9.54 9.33 o 0.648708
5 -3 12 1 0 3.12 3.04 o 0.648678
4 0 16 -1 0 55.43 53.39 o 0.648620
5 -2 11 0 -1 20.76 19.41 o 0.648289
3 -1 16 1 0 22.53 21.09 o 0.648099
8 3 5 -1 0 314.32 294.60 o 0.648050
7 -5 6 0 1 81.51 76.47 o 0.647961
6 -5 3 -1 0 10.59 9.97 o 0.647793
7 -3 6 0 0 7086.35 6762.55 o 0.647748
7 3 6 0 0 7090.54 6766.54 o 0.647748
7 -1 10 -1 0 104.29 100.77 o 0.647528
8 2 6 0 1 1.68 1.63 o 0.647441
5 5 2 1 0 85.29 83.68 o 0.647082
6 -5 5 1 0 17.78 17.39 o 0.647011
8 4 0 -1 0 89.10 86.75 o 0.646990
8 1 7 -1 0 149.26 143.62 o 0.646955
6 -1 9 0 -1 4.94 4.77 o 0.646787
6 0 12 0 0 7151.19 6752.98 o 0.646642
4 2 14 0 -1 11.42 10.75 o 0.646483
7 0 9 0 0 1.97 1.86 o 0.646464
6 4 6 0 -1 0.02 0.02 o 0.645769
5 -4 11 1 0 24.51 17.47 o 0.645588
5 -2 15 0 1 85.91 58.59 o 0.645524
5 -4 11 0 0 103.50 72.45 o 0.645330
5 4 11 0 0 7.74 5.42 o 0.645330
5 -1 12 0 -1 22.72 16.14 o 0.645203
4 2 16 -1 0 97.61 73.23 o 0.645084
5 3 10 1 0 81.17 58.86 o 0.644765
8 3 3 0 1 111.23 85.09 o 0.644735
2 -1 17 1 0 91.52 70.02 o 0.644733
6 -4 8 -1 0 97.50 91.22 o 0.644469
3 0 17 -1 0 12.00 11.11 o 0.644205
6 5 5 0 0 29.31 26.58 o 0.644132
6 -5 5 0 0 45.09 40.89 o 0.644132
7 -2 9 -1 0 54.98 55.13 o 0.643939
6 4 0 1 0 143.70 144.11 o 0.643935
6 -2 8 0 -1 119.41 119.06 o 0.643809
6 -4 8 1 0 45.18 43.58 o 0.643746
5 0 13 1 0 0.58 0.55 o 0.643428
3 -2 17 0 1 177.73 164.15 o 0.643318
5 -1 14 0 0 7776.42 7146.59 o 0.643219
5 1 14 0 0 6430.66 5909.82 o 0.643219
8 4 2 -1 0 1.87 1.70 o 0.642967
7 5 6 -1 0 76.25 68.05 o 0.642724
6 5 1 0 -1 14.69 8.74 o 0.642405
7 0 5 0 -1 0.56 0.67 o 0.641859
7 -4 3 -1 0 55.66 62.78 o 0.641680
8 -2 4 -1 0 94.20 101.83 o 0.641434
8 -4 4 0 1 44.87 50.37 o 0.641373
7 -4 9 0 1 235.81 265.19 o 0.641292
5 0 15 -1 0 108.57 122.41 o 0.641221
8 -2 8 0 1 32.55 35.37 o 0.640938
5 5 8 0 -1 2.24 2.50 o 0.640852
3 2 17 -1 0 85.78 104.91 o 0.640740
7 -4 3 0 0 20.04 25.63 o 0.640714
8 1 3 0 0 58.28 74.54 o 0.640714
8 -1 3 0 0 0.08 0.10 o 0.640714
7 4 3 0 0 0.08 0.10 o 0.640714
7 2 3 1 0 0.42 0.48 o 0.640672
7 -1 4 0 -1 1.60 1.92 o 0.640636
5 5 12 -1 0 3.74 4.39 o 0.640620
3 2 15 1 0 4.82 6.19 o 0.640570
7 3 10 -1 0 119.34 150.52 o 0.640546
1 1 18 -1 0 78.18 99.01 o 0.640468
5 -2 13 1 0 1.02 0.64 o 0.639975
6 4 2 1 0 0.07 0.04 o 0.639968
4 -1 15 1 0 3.57 2.55 o 0.639697
5 -3 10 0 -1 78.16 61.79 o 0.639605
7 0 11 -1 0 177.08 142.50 o 0.639375
2 2 16 1 0 62.88 44.05 o 0.639269
6 -4 0 0 -1 191.15 183.48 o 0.638794
6 -2 12 -1 0 83.89 80.52 o 0.638793
8 0 4 0 0 6184.34 5956.83 o 0.638614
7 -4 1 1 0 3.78 3.81 o 0.638263
6 0 10 0 -1 0.45 0.46 o 0.638077
9 0 1 0 1 268.81 269.26 o 0.638041
3 -2 15 0 -1 0.28 0.28 o 0.638024
6 0 14 0 1 4.44 4.13 o 0.637802
5 2 15 -1 0 177.50 165.38 o 0.637803
3 1 16 0 -1 0.85 0.76 o 0.637744
3 3 14 1 0 58.68 47.91 o 0.637367
6 -3 13 0 1 92.87 74.97 o 0.637216
8 -3 7 0 1 294.70 248.56 o 0.637103
2 1 17 0 -1 9.26 7.78 o 0.637040
6 3 7 1 0 0.86 0.73 o 0.637034
0 0 18 1 0 0.28 0.22 o 0.636917
6 5 7 0 1 33.17 33.00 o 0.636464
6 -1 13 -1 0 136.02 122.02 o 0.636418
7 1 6 1 0 49.49 47.51 o 0.636334
7 0 7 1 0 1.17 1.19 o 0.636176
7 2 11 -1 0 182.98 206.90 o 0.635986
6 -1 11 1 0 0.05 0.05 o 0.635857
7 -2 1 0 -1 0.25 0.27 o 0.635805
5 -4 11 -1 0 40.22 42.04 o 0.635698
9 -1 2 0 1 31.87 31.56 o 0.635638
7 3 2 0 -1 113.68 113.42 o 0.635411
8 2 0 0 0 6277.04 6226.34 o 0.635282
8 -2 0 0 0 5918.48 5870.68 o 0.635282
5 5 4 1 0 10.90 10.84 o 0.635226
7 -1 12 0 1 0.58 0.58 o 0.635210
7 -6 1 0 1 247.95 244.90 o 0.635020
6 -4 2 0 -1 1.21 1.17 o 0.634921
6 4 10 0 1 2.81 2.80 o 0.634650
6 5 3 0 -1 39.40 37.09 o 0.634598
7 4 9 -1 0 224.38 149.87 o 0.633720
6 -4 12 0 1 53.83 34.24 o 0.633714
2 0 18 0 1 28.08 19.23 o 0.633567
7 2 5 0 -1 1.07 0.76 o 0.633420
8 -1 9 0 1 127.26 91.46 o 0.633375
3 0 17 0 0 1.85 1.39 o 0.633100
7 -2 7 1 0 6.00 5.92 o 0.632838
7 6 1 -1 0 226.92 188.38 o 0.632540
3 1 16 1 0 1.18 1.02 o 0.632407
1 1 18 0 0 6889.96 5927.18 o 0.632168
4 0 16 0 0 6852.56 5896.71 o 0.632135
6 -5 5 -1 0 30.75 26.34 o 0.632078
7 1 6 0 -1 73.81 69.84 o 0.631713
8 2 2 0 0 2.02 1.30 o 0.631472
8 -2 2 0 0 0.01 0.00 o 0.631472
8 -1 7 -1 0 64.26 37.90 o 0.631343
8 4 4 -1 0 72.62 38.24 o 0.631332
5 5 10 0 1 20.60 10.86 o 0.631194
5 0 13 0 -1 15.38 9.52 o 0.630832
7 4 7 0 1 62.47 46.08 o 0.630663
7 -4 3 1 0 12.44 10.31 o 0.630605
4 2 14 1 0 3.83 3.21 o 0.630565
4 3 15 0 1 94.95 81.30 o 0.630507
9 0 3 0 1 107.78 97.45 o 0.630391
1 1 18 0 1 78.60 84.41 o 0.630130
6 -3 11 -1 0 10.75 12.21 o 0.629918
6 3 9 0 -1 0.00 0.00 o 0.629860
6 3 13 -1 0 251.62 277.20 o 0.629786
6 2 10 0 -1 11.79 13.51 o 0.629785
9 -2 1 0 1 224.40 247.13 o 0.629750
7 -3 6 1 0 30.72 32.81 o 0.629705
6 -3 7 0 -1 0.33 0.33 o 0.629610
6 -2 14 0 1 18.73 18.11 o 0.629520
8 0 8 -1 0 141.58 122.69 o 0.629312
2 1 17 1 0 8.81 7.82 o 0.629278
4 2 16 0 1 48.09 41.35 o 0.629267
8 3 5 0 1 57.57 48.48 o 0.629236
7 -3 8 -1 0 6.08 5.21 o 0.629172
6 4 12 -1 0 42.25 40.61 o 0.628813
2 0 18 -1 0 50.75 47.64 o 0.628669
6 4 4 1 0 71.18 77.83 o 0.628492
5 3 12 0 -1 16.65 17.13 o 0.628396
7 -2 3 0 -1 22.66 22.09 o 0.628234
7 2 11 0 1 106.64 103.94 o 0.627927
6 2 12 0 0 6053.34 5892.54 o 0.627794
6 -2 12 0 0 6270.33 6103.76 o 0.627794
6 6 8 -1 0 57.41 55.16 o 0.627661
7 -2 9 0 0 46.36 44.17 o 0.627632
7 2 9 0 0 163.66 155.93 o 0.627632
3 -1 16 0 -1 16.12 15.37 o 0.627535
7 -6 3 0 1 227.79 217.33 o 0.627476
4 1 15 0 -1 9.12 8.66 o 0.627315
6 6 0 0 1 11.36 10.02 o 0.627167
4 -1 17 0 1 57.34 50.62 o 0.627140
2 -1 17 0 -1 7.12 5.40 o 0.626864
7 5 2 0 1 35.20 32.77 o 0.626829
6 3 11 0 0 6.59 5.16 o 0.626593
6 -3 11 0 0 53.53 41.94 o 0.626593
7 -4 5 -1 0 37.79 24.82 o 0.626395
8 2 8 -1 0 74.97 52.87 o 0.626080
3 3 16 0 1 8.76 6.81 o 0.625898
4 -2 14 0 -1 7.85 5.55 o 0.625736
4 3 13 1 0 0.68 0.48 o 0.625665
9 1 2 0 1 25.80 20.36 o 0.625529
7 -4 5 0 0 151.71 117.49 o 0.625496
8 1 5 0 0 110.08 85.25 o 0.625496
8 -1 5 0 0 44.89 34.77 o 0.625496
7 4 5 0 0 125.84 97.45 o 0.625496
7 2 5 1 0 16.70 14.22 o 0.625457
2 2 18 -1 0 3.14 2.79 o 0.625447
1 1 18 0 -1 102.31 97.26 o 0.625310
7 1 12 0 1 4.05 4.15 o 0.625121
7 6 3 -1 0 247.54 250.92 o 0.625083
7 -1 8 1 0 1.43 1.54 o 0.625006
8 -3 1 -1 0 60.76 65.13 o 0.624997
8 3 7 -1 0 158.31 183.56 o 0.624867
5 2 15 0 1 69.79 77.09 o 0.624866
5 -1 16 0 1 3.27 3.64 o 0.624603
4 1 15 1 0 0.68 0.74 o 0.624593
9 -1 4 0 1 7.57 8.36 o 0.624390
5 3 14 0 1 22.20 21.83 o 0.624249
7 3 4 0 -1 8.45 8.30 o 0.624175
6 -5 7 1 0 20.81 20.56 o 0.623936
6 -4 4 0 -1 78.08 77.84 o 0.623710
7 1 10 0 0 6604.44 6577.99 o 0.623573
7 -1 10 0 0 6029.75 6005.61 o 0.623573
5 5 10 0 0 6361.36 6335.89 o 0.623573
6 6 2 0 1 1.59 1.58 o 0.623500
8 1 9 0 1 147.02 146.37 o 0.623372
4 -3 13 0 -1 0.16 0.15 o 0.623293
5 4 11 0 -1 0.84 0.83 o 0.623214
2 0 18 0 0 0.22 0.22 o 0.623158
6 0 14 -1 0 11.79 11.58 o 0.623156
3 3 16 0 0 2.87 2.88 o 0.623127
3 2 17 0 1 34.46 33.14 o 0.622865
5 4 9 1 0 15.99 14.56 o 0.622830
5 2 13 0 -1 9.88 8.91 o 0.622816
8 -2 6 -1 0 2.32 2.00 o 0.622517
8 -4 6 0 1 0.33 0.27 o 0.622461
9 -2 3 0 1 194.98 169.22 o 0.622391
7 -1 6 0 -1 124.96 108.10 o 0.621787
6 5 7 0 0 39.54 24.18 o 0.621353
6 -5 7 0 0 29.86 18.26 o 0.621353
7 -5 8 0 1 0.08 0.05 o 0.621162
6 1 11 1 0 0.12 0.10 o 0.621018
7 -3 8 0 0 0.80 0.64 o 0.620974
7 3 8 0 0 14.98 11.85 o 0.620974
4 4 14 0 1 0.00 0.00 o 0.620960
5 -1 14 1 0 83.31 79.14 o 0.620826
7 1 12 -1 0 18.01 17.14 o 0.620738
8 2 8 0 1 33.12 31.54 o 0.620704
5 -4 9 0 -1 3.98 3.80 o 0.620490
8 2 4 0 0 6376.22 6102.94 o 0.620440
8 -2 4 0 0 6715.09 6427.29 o 0.620440
4 3 15 0 0 116.14 111.12 o 0.620408
4 -3 15 0 0 58.32 55.80 o 0.620408
5 0 15 0 0 41.77 39.96 o 0.620408
4 1 17 -1 0 156.48 151.94 o 0.620053
7 3 10 0 1 16.87 15.93 o 0.620026
6 2 14 -1 0 1.26 1.19 o 0.620018
8 0 6 0 0 0.42 0.40 o 0.619937
6 5 5 0 -1 0.11 0.00 o 0.619802
6 2 10 1 0 0.27 0.26 o 0.619626
6 -5 11 0 1 222.53 217.00 o 0.619550
8 -5 1 0 1 241.56 204.66 o 0.619446
7 0 7 0 -1 0.95 0.82 o 0.619312
6 4 8 0 -1 144.89 144.20 o 0.619231
6 1 11 0 -1 1.47 1.57 o 0.619018
3 -1 18 0 1 54.52 57.71 o 0.619016
6 1 13 0 0 74.55 63.29 o 0.618345
6 -1 13 0 0 17.21 14.61 o 0.618345
4 -3 15 1 0 1.33 0.94 o 0.618321
8 -3 3 -1 0 47.88 49.36 o 0.617801
4 -1 15 0 -1 2.07 1.93 o 0.617591
4 1 17 0 1 26.54 25.15 o 0.617425
6 6 0 0 0 4874.90 4613.60 o 0.617383
6 5 11 -1 0 139.40 132.56 o 0.617246
5 5 6 1 0 116.24 117.07 o 0.616837
8 1 9 -1 0 182.55 164.03 o 0.616727
7 5 8 -1 0 0.14 0.12 o 0.616544
9 1 2 -1 0 83.32 69.54 o 0.616520
9 0 1 -1 0 145.03 101.09 o 0.616417
8 4 0 0 1 56.84 52.63 o 0.616207
7 -4 5 1 0 10.43 10.57 o 0.616080
7 5 4 0 1 2.24 2.22 o 0.616034
4 4 14 0 0 0.53 0.47 o 0.615964
9 0 5 0 1 140.40 112.61 o 0.615880
1 1 18 1 0 75.52 59.76 o 0.615678
8 0 10 0 1 5.72 5.07 o 0.615563
3 -2 17 0 0 71.72 79.29 o 0.615380
3 2 17 0 0 116.78 129.10 o 0.615380
7 3 2 1 0 77.05 84.36 o 0.615365
5 1 16 -1 0 16.04 17.88 o 0.615318
4 -2 16 -1 0 137.12 125.99 o 0.615188
5 1 16 0 1 16.40 14.18 o 0.615003
6 4 10 0 0 0.24 0.21 o 0.614921
6 -4 10 0 0 0.17 0.15 o 0.614921
6 -3 11 1 0 0.05 0.00 o 0.614851
9 1 4 0 1 2.73 2.42 o 0.614800
4 2 16 0 0 5883.02 5208.94 o 0.614493
4 -2 16 0 0 6067.91 5372.65 o 0.614493
3 1 18 -1 0 80.69 70.91 o 0.614446
3 0 17 1 0 0.03 0.02 o 0.614112
4 -3 15 -1 0 5.45 4.85 o 0.614079
6 6 2 0 0 1.35 0.76 o 0.613884
7 -2 5 0 -1 4.79 3.47 o 0.613869
9 2 1 -1 0 147.72 117.81 o 0.613379
8 4 6 -1 0 4.15 3.75 o 0.613270
5 4 13 0 1 35.70 32.36 o 0.613243
7 -6 5 0 1 295.69 279.96 o 0.613162
6 6 4 0 1 59.39 52.37 o 0.612873
8 4 2 0 1 0.68 0.57 o 0.612728
8 5 1 -1 0 296.32 269.68 o 0.612613
8 -5 3 0 1 298.72 271.97 o 0.612437
8 3 1 0 0 161.06 155.96 o 0.612278
8 -3 1 0 0 5.58 5.40 o 0.612278
7 4 1 0 -1 23.32 21.17 o 0.612099
6 0 12 1 0 69.07 62.68 o 0.612088
3 3 16 0 -1 13.06 11.50 o 0.612040
7 0 13 0 1 150.80 138.82 o 0.612024
6 -1 15 0 1 190.85 196.00 o 0.611781
7 2 7 0 -1 0.05 0.05 o 0.611721
8 -1 1 1 0 1.88 1.37 o 0.611479
3 -2 17 -1 0 11.02 9.20 o 0.611417
6 -4 10 -1 0 18.53 18.40 o 0.611121
3 -2 17 1 0 1.13 1.14 o 0.611108
7 6 5 -1 0 238.48 255.37 o 0.610928
7 1 8 1 0 1.43 1.55 o 0.610897
5 2 13 1 0 8.15 8.60 o 0.610753
6 4 6 1 0 0.01 0.02 o 0.610666
4 4 12 1 0 56.29 60.37 o 0.610621
6 -2 10 0 -1 0.25 0.26 o 0.610558
9 2 1 0 1 98.56 97.25 o 0.610526
6 -5 7 -1 0 14.38 14.19 o 0.610512
6 -4 10 1 0 9.64 9.61 o 0.610505
6 2 14 0 1 0.10 0.10 o 0.610317
9 -3 2 0 1 45.02 52.74 o 0.610177
7 -3 12 0 1 7.50 5.77 o 0.609799
8 0 0 1 0 69.55 54.11 o 0.609673
6 -1 11 0 -1 0.12 0.09 o 0.609670
3 1 18 0 1 56.65 46.15 o 0.609668
2 0 18 1 0 18.38 15.07 o 0.609541
9 0 3 -1 0 155.67 130.26 o 0.609510
7 0 11 0 0 23.38 19.34 o 0.609399
6 -2 12 1 0 38.53 40.44 o 0.609113
5 -2 15 -1 0 111.85 91.74 o 0.608864
4 0 16 1 0 23.75 26.07 o 0.608634
9 -2 5 0 1 204.21 202.41 o 0.608414
8 -3 9 0 1 101.77 95.87 o 0.608175
6 3 9 1 0 0.20 0.18 o 0.608115
8 -2 10 0 1 4.26 3.88 o 0.608108
6 3 13 0 1 22.15 18.67 o 0.608049
5 5 10 0 -1 83.97 72.98 o 0.608035
8 3 7 0 1 102.87 92.13 o 0.607950
5 3 14 0 0 6306.39 5627.15 o 0.607621
5 -3 14 0 0 5784.51 5161.48 o 0.607621
6 5 9 0 1 56.96 50.90 o 0.607620
3 0 17 0 -1 16.32 14.43 o 0.607453
7 0 9 1 0 1.81 1.61 o 0.607369
5 1 14 0 -1 82.57 72.72 o 0.607294
7 -2 11 -1 0 57.58 51.26 o 0.607283
5 1 14 1 0 49.86 37.23 o 0.606992
7 -1 12 -1 0 0.23 0.16 o 0.606910
9 -1 6 0 1 64.42 44.51 o 0.606901
7 1 8 0 -1 5.93 5.14 o 0.606805
8 -2 0 1 0 53.08 44.36 o 0.606733
7 3 6 0 -1 153.31 131.35 o 0.606703
2 2 18 0 1 17.67 16.86 o 0.606603
9 2 3 -1 0 193.57 190.54 o 0.606573
7 -3 2 0 -1 74.63 76.08 o 0.606480
1 0 19 0 1 24.74 25.78 o 0.606433
8 0 2 1 0 2.82 2.90 o 0.606303
6 -4 6 0 -1 0.40 0.41 o 0.606276
4 -1 17 -1 0 51.25 51.99 o 0.606269
4 4 16 -1 0 69.53 71.08 o 0.606259
9 1 4 -1 0 7.00 7.14 o 0.606240
2 2 18 0 0 0.70 0.71 o 0.606238
5 -3 14 -1 0 74.92 71.40 o 0.606111
8 5 3 -1 0 157.94 151.58 o 0.605832
4 -2 16 1 0 85.57 82.23 o 0.605709
7 -5 2 0 0 6009.66 5760.34 o 0.605624
7 5 2 0 0 5546.46 5316.36 o 0.605624
8 3 3 0 0 26.66 25.59 o 0.605508
8 -3 3 0 0 164.66 158.08 o 0.605508
7 -4 7 -1 0 33.12 31.83 o 0.605387
7 4 3 0 -1 0.10 0.10 o 0.605335
2 0 18 0 -1 42.60 40.68 o 0.605176
7 3 4 1 0 1.28 1.22 o 0.605142
7 -4 11 0 1 155.27 154.83 o 0.605060
7 -3 8 1 0 11.92 12.54 o 0.605024
8 -1 3 1 0 3.38 2.91 o 0.604735
7 -2 13 0 1 137.26 113.18 o 0.604695
5 3 12 1 0 13.19 10.65 o 0.604633
7 -4 7 0 0 132.98 98.31 o 0.604575
8 1 7 0 0 115.44 85.34 o 0.604575
8 -1 7 0 0 41.69 30.82 o 0.604575
7 4 7 0 0 94.15 69.60 o 0.604575
7 2 7 1 0 8.68 6.92 o 0.604540
7 -2 9 1 0 0.05 0.04 o 0.604462
1 0 19 -1 0 48.30 49.20 o 0.604272
5 -2 13 0 -1 0.91 0.89 o 0.604201
8 -3 5 -1 0 83.96 81.08 o 0.604124
9 2 3 0 1 125.85 125.19 o 0.603813
1 0 19 0 0 62.96 62.53 o 0.603762
6 6 4 0 0 6250.35 6209.32 o 0.603734
5 2 15 0 0 13.43 13.33 o 0.603704
5 -2 15 0 0 85.53 84.89 o 0.603704
7 -5 2 1 0 29.09 28.57 o 0.603534
8 -2 2 1 0 1.03 1.00 o 0.603411
8 2 6 0 0 1.38 1.45 o 0.603271
8 -2 6 0 0 0.05 0.05 o 0.603271
8 -1 9 -1 0 101.71 97.56 o 0.603159
4 4 14 0 -1 3.55 3.38 o 0.603100
9 -1 2 -1 0 96.21 51.57 o 0.602965
4 3 15 0 -1 71.74 39.56 o 0.602803
6 1 15 0 1 109.49 57.31 o 0.602752
4 -3 17 0 1 65.84 27.82 o 0.602649
8 4 4 0 1 16.58 7.59 o 0.602633
7 4 9 0 1 42.50 18.28 o 0.602566
5 -4 15 0 1 130.92 66.65 o 0.602321
5 -4 13 1 0 16.79 11.64 o 0.602013
5 -1 16 -1 0 0.32 0.23 o 0.601841
5 -4 13 0 0 60.71 38.38 o 0.601803
5 4 13 0 0 21.98 13.89 o 0.601803
6 -3 9 0 -1 13.47 8.99 o 0.601647
2 -1 19 0 1 128.59 88.38 o 0.601409
5 -3 14 1 0 22.64 15.47 o 0.601230
7 3 12 -1 0 2.06 1.46 o 0.601150
3 -1 18 -1 0 69.52 47.25 o 0.601024
6 1 15 -1 0 54.36 42.11 o 0.600923
4 3 17 -1 0 107.81 98.12 o 0.600527
5 -3 16 0 1 13.67 11.33 o 0.600396
5 -3 12 0 -1 4.22 3.52 o 0.600371
3 2 17 0 -1 14.13 11.78 o 0.600285
9 -3 4 0 1 1.76 1.46 o 0.600207
5 4 15 -1 0 175.75 141.05 o 0.600203
6 6 0 0 -1 83.81 66.50 o 0.600175
4 0 16 0 -1 122.14 98.06 o 0.600033
7 -5 2 -1 0 69.61 60.27 o 0.599879
6 0 14 0 0 35.35 40.22 o 0.599608
6 5 7 0 -1 5.08 4.48 o 0.599429
2 1 19 -1 0 36.47 39.29 o 0.599301
7 5 6 0 1 33.75 37.90 o 0.599219
6 0 12 0 -1 74.77 68.97 o 0.599108
8 -5 5 0 1 156.22 143.84 o 0.599106
4 1 17 0 0 61.97 61.17 o 0.599069
4 -1 17 0 0 66.62 65.75 o 0.599069
7 4 11 -1 0 253.03 195.24 o 0.598688
8 -2 8 -1 0 63.22 50.19 o 0.598640
8 -4 8 0 1 58.26 48.31 o 0.598590
5 -1 14 0 -1 81.94 68.51 o 0.598460
8 -1 11 0 1 157.72 130.64 o 0.598398
3 1 18 0 0 5244.91 4316.34 o 0.598279
3 -1 18 0 0 6365.05 5238.17 o 0.598279
8 1 1 1 0 13.03 10.71 o 0.598247
8 0 10 -1 0 2.60 2.15 o 0.598151
2 2 18 0 -1 0.01 0.01 o 0.598087
9 1 6 0 1 45.31 37.24 o 0.598083
7 -3 10 -1 0 102.44 83.88 o 0.598032
7 -1 8 0 -1 3.26 2.66 o 0.597991
8 3 9 -1 0 193.41 167.33 o 0.597505
9 3 2 -1 0 93.08 86.28 o 0.597316
7 0 13 -1 0 47.47 49.13 o 0.596965
6 6 2 0 -1 6.01 6.22 o 0.596959
6 5 1 1 0 3.81 3.55 o 0.596878
6 6 10 -1 0 3.76 3.78 o 0.596733
6 -5 9 1 0 29.21 30.45 o 0.596690
7 -3 4 0 -1 7.64 7.97 o 0.596686
4 0 18 0 1 9.80 10.31 o 0.596669
8 0 4 1 0 48.24 50.62 o 0.596518
9 0 5 -1 0 101.94 106.58 o 0.596365
8 0 8 0 0 5164.15 5379.05 o 0.596345
6 6 6 0 1 2.16 2.26 o 0.596309
6 4 12 0 1 32.95 34.40 o 0.596267
5 3 16 -1 0 11.75 12.23 o 0.596223
5 0 17 0 1 95.68 99.23 o 0.596065
7 -4 7 1 0 12.59 13.19 o 0.596060
9 0 7 0 1 126.55 140.99 o 0.595879
7 -5 4 0 0 25.19 24.79 o 0.595872
7 5 4 0 0 30.07 29.59 o 0.595872
1 0 19 1 0 46.16 36.98 o 0.595566
6 3 11 0 -1 19.51 14.21 o 0.595431
3 3 18 -1 0 70.74 54.98 o 0.595429
8 2 10 -1 0 7.47 5.45 o 0.595374
6 -5 1 0 -1 24.68 24.80 o 0.594817
5 5 14 -1 0 29.41 29.68 o 0.594797
7 -1 10 1 0 27.69 28.18 o 0.594451
6 5 9 0 0 11.57 12.59 o 0.594430
6 -5 9 0 0 72.12 78.50 o 0.594430
7 2 13 -1 0 124.93 134.21 o 0.594204
6 -1 13 1 0 4.84 4.85 o 0.594099
7 -2 7 0 -1 28.01 30.40 o 0.594056
5 -4 13 -1 0 4.93 4.17 o 0.593969
7 -5 4 1 0 8.94 7.42 o 0.593880
5 0 15 1 0 9.57 8.27 o 0.593877
8 -2 4 1 0 36.34 29.18 o 0.593763
9 2 5 -1 0 138.70 109.62 o 0.593613
5 5 8 1 0 0.32 0.24 o 0.593584
7 -2 11 0 0 131.22 101.92 o 0.593547
7 2 11 0 0 18.65 14.49 o 0.593547
1 0 19 0 -1 0.03 0.00 o 0.593519
7 -6 7 0 1 202.42 147.08 o 0.593416
5 5 12 0 1 3.42 2.57 o 0.593399
9 -1 4 -1 0 2.65 2.06 o 0.593338
6 -2 14 -1 0 4.68 3.65 o 0.593334
4 2 16 0 -1 71.10 61.35 o 0.593122
8 5 5 -1 0 197.70 169.72 o 0.592918
2 1 19 0 1 46.73 43.54 o 0.592825
8 0 0 0 -1 142.40 133.90 o 0.592743
8 -3 1 1 0 0.01 0.00 o 0.592729
7 0 9 0 -1 1.20 1.12 o 0.592642
8 3 5 0 0 2.48 2.25 o 0.592614
8 -3 5 0 0 11.57 10.49 o 0.592614
7 4 5 0 -1 2.74 2.63 o 0.592453
8 1 1 0 -1 1.09 1.16 o 0.592367
6 2 12 0 -1 143.25 132.64 o 0.592228
8 1 3 1 0 2.82 2.86 o 0.591927
8 -1 5 1 0 0.52 0.43 o 0.591890
7 6 7 -1 0 306.10 272.24 o 0.591390
5 -2 15 1 0 27.79 25.14 o 0.591158
7 -5 10 0 1 30.03 27.18 o 0.591140
9 2 5 0 1 142.88 130.06 o 0.591026
7 -3 10 0 0 5310.68 4843.09 o 0.590978
7 3 10 0 0 5543.44 5055.36 o 0.590978
8 2 10 0 1 0.00 0.00 o 0.590745
6 5 3 1 0 27.00 24.87 o 0.590601
5 1 16 0 0 0.38 0.36 o 0.590598
5 -1 16 0 0 0.76 0.70 o 0.590598
8 -4 0 -1 0 71.78 65.88 o 0.590548
7 -1 14 0 1 25.73 24.31 o 0.590460
8 4 8 -1 0 57.23 57.77 o 0.590403
7 -5 4 -1 0 3.80 3.83 o 0.590397
9 1 6 -1 0 100.56 75.97 o 0.590194
8 1 11 0 1 182.21 142.23 o 0.589941
4 -2 18 0 1 10.45 8.47 o 0.589872
8 0 2 0 -1 1.03 0.96 o 0.589644
5 4 11 1 0 3.22 4.04 o 0.589482
6 4 10 0 -1 6.63 8.33 o 0.589475
9 -4 1 0 1 150.39 194.63 o 0.589446
5 -2 17 0 1 106.88 145.44 o 0.589288
6 -4 14 0 1 10.04 13.50 o 0.589258
6 -3 13 -1 0 71.05 95.97 o 0.589246
7 3 6 1 0 63.07 86.16 o 0.589180
9 -2 7 0 1 162.20 219.07 o 0.589109
6 -3 15 0 1 146.65 184.21 o 0.588981
6 -5 3 0 -1 16.59 16.32 o 0.588604
4 0 18 -1 0 6.32 5.99 o 0.588560
6 -1 15 -1 0 30.77 29.81 o 0.588351
2 -1 19 0 0 20.47 19.76 o 0.588335
2 1 19 0 0 26.03 25.12 o 0.588335
3 -1 18 1 0 56.89 51.14 o 0.588170
3 0 19 0 1 10.09 8.37 o 0.588129
6 4 8 1 0 59.51 49.23 o 0.588078
9 3 4 -1 0 0.02 0.01 o 0.587953
6 6 6 0 0 0.53 0.46 o 0.587881
7 2 13 0 1 99.54 58.43 o 0.587615
6 6 4 0 -1 118.91 70.34 o 0.587612
9 -2 1 -1 0 90.91 54.36 o 0.587509
5 -4 11 0 -1 14.31 8.43 o 0.587496
8 -4 2 -1 0 7.69 4.52 o 0.587484
7 5 10 -1 0 31.58 15.79 o 0.587156
7 1 12 0 0 0.01 0.00 o 0.587054
7 -1 12 0 0 2.23 2.01 o 0.587054
5 5 12 0 0 0.02 0.02 o 0.587054
8 4 6 0 1 1.29 1.23 o 0.586864
2 -1 19 -1 0 2.50 2.21 o 0.586828
8 -3 3 1 0 5.75 5.55 o 0.586580
6 3 13 0 0 9.05 8.92 o 0.586522
6 -3 13 0 0 76.70 75.61 o 0.586522
6 0 16 0 1 19.44 12.34 o 0.586397
8 1 3 0 -1 0.00 0.00 o 0.586230
8 2 0 0 -1 57.83 59.34 o 0.586078
3 3 16 1 0 14.84 13.86 o 0.586059
5 0 17 -1 0 57.21 52.48 o 0.586009
7 2 9 0 -1 7.10 6.52 o 0.585980
4 2 18 -1 0 3.25 2.89 o 0.585913
8 4 0 0 0 4788.74 4217.44 o 0.585701
8 -4 0 0 0 4985.97 4391.13 o 0.585701
3 2 17 1 0 1.22 1.09 o 0.585512
6 4 14 -1 0 18.69 14.97 o 0.585311
8 -3 7 -1 0 74.23 51.90 o 0.585212
5 3 14 0 -1 82.45 68.66 o 0.584975
6 -5 9 -1 0 28.19 27.47 o 0.584917
4 -1 17 1 0 21.12 16.65 o 0.584845
#BEGIN Loops that were not found in dictionaries:
loop_
_jana_atom_site_occ_fourier_absolute_site_label
_jana_atom_site_occ_fourier_absolute
Eu 0.5
Ca 0.25
#END Loops that were not found in dictionaries
