#------------------------------------------------------------------------------
#$Date: 2017-04-04 06:16:25 +0300 (Tue, 04 Apr 2017) $
#$Revision: 194723 $
#$URL: file:///home/coder/svn-repositories/cod/cif/4/34/56/4345610.cif $
#------------------------------------------------------------------------------
#
# This file is available in the Crystallography Open Database (COD),
# http://www.crystallography.net/
#
# All data on this site have been placed in the public domain by the
# contributors.
#
data_4345610
loop_
_publ_author_name
'Schmitt, Martin K.'
'Janka, Oliver'
'Niehaus, Oliver'
'Dresselhaus, Thomas'
'P\"ottgen, Rainer'
'Pielnhofer, Florian'
'Weihrich, Richard'
'Krzhizhanovskaya, Maria'
'Filatov, Stanislav'
'Bubnova, Rimma'
'Bayarjargal, Lkhamsuren'
'Winkler, Bj\"orn'
'Glaum, Robert'
'Huppertz, Hubert'
_publ_section_title
;
 Synthesis and Characterization of the High-Pressure Nickel Borate
 \g-NiB4O7.
;
_journal_issue                   7
_journal_name_full               'Inorganic chemistry'
_journal_page_first              4217
_journal_page_last               4228
_journal_paper_doi               10.1021/acs.inorgchem.7b00243
_journal_volume                  56
_journal_year                    2017
_chemical_formula_moiety         'B4 Ni O7'
_chemical_formula_sum            'B4 Ni O7'
_chemical_formula_weight         213.95
_chemical_name_common            'Nickel tetraborate'
_chemical_name_systematic        NiB4O7
_space_group_crystal_system      hexagonal
_space_group_IT_number           179
_space_group_name_Hall           'P 65 2 (0 0 1)'
_space_group_name_H-M_alt        'P 65 2 2'
_symmetry_space_group_name_Hall  'P 65 2 (0 0 1)'
_symmetry_space_group_name_H-M   'P 65 2 2'
_atom_sites_solution_primary     heavy
_atom_sites_solution_secondary   difmap
_audit_creation_method           SHELXL-2014/7
_cell_angle_alpha                90
_cell_angle_beta                 90
_cell_angle_gamma                120
_cell_formula_units_Z            6
_cell_length_a                   4.256(2)
_cell_length_b                   4.256(2)
_cell_length_c                   34.905(2)
_cell_measurement_reflns_used    9570
_cell_measurement_temperature    293(2)
_cell_measurement_theta_max      35.039
_cell_measurement_theta_min      3.502
_cell_volume                     547.5(4)
_computing_cell_refinement       'Bruker SAINT-V 8.34A'
_computing_data_collection       'Bruker Apex II'
_computing_data_reduction        'Bruker SAINT-V 8.34A'
_computing_molecular_graphics    'DIAMOND (Brandenburg & Berndt, 1999)'
_computing_publication_material  'WINGX (Farrugia, 2012)'
_computing_structure_refinement  'SHELXL-2014/7 (Sheldrick, 2015)'
_computing_structure_solution    SHELXS-2013/1
_diffrn_ambient_temperature      293(2)
_diffrn_detector_area_resol_mean 10.4
_diffrn_measured_fraction_theta_full 1.000
_diffrn_measured_fraction_theta_max 1.000
_diffrn_measurement_device_type  'Bruker D8 QUEST PHOTON 100'
_diffrn_measurement_method       '\f and \w scans'
_diffrn_radiation_monochromator  'multilayer optics'
_diffrn_radiation_type           MoK\a
_diffrn_radiation_wavelength     0.71073
_diffrn_reflns_av_R_equivalents  0.0317
_diffrn_reflns_av_unetI/netI     0.0080
_diffrn_reflns_Laue_measured_fraction_full 1.000
_diffrn_reflns_Laue_measured_fraction_max 1.000
_diffrn_reflns_limit_h_max       6
_diffrn_reflns_limit_h_min       -6
_diffrn_reflns_limit_k_max       6
_diffrn_reflns_limit_k_min       -6
_diffrn_reflns_limit_l_max       56
_diffrn_reflns_limit_l_min       -56
_diffrn_reflns_number            27860
_diffrn_reflns_point_group_measured_fraction_full 1.000
_diffrn_reflns_point_group_measured_fraction_max 1.000
_diffrn_reflns_theta_full        25.242
_diffrn_reflns_theta_max         35.039
_diffrn_reflns_theta_min         3.502
_diffrn_source                   'Incoatec Microfocus'
_exptl_absorpt_coefficient_mu    5.286
_exptl_absorpt_correction_T_max  0.7469
_exptl_absorpt_correction_T_min  0.6376
_exptl_absorpt_correction_type   multi-scan
_exptl_absorpt_process_details   SADABS-2014/5
_exptl_crystal_colour            green
_exptl_crystal_density_diffrn    3.893
_exptl_crystal_density_method    'not measured'
_exptl_crystal_description       block-like
_exptl_crystal_F_000             624
_exptl_crystal_size_max          0.09
_exptl_crystal_size_mid          0.05
_exptl_crystal_size_min          0.03
_refine_diff_density_max         0.349
_refine_diff_density_min         -0.776
_refine_diff_density_rms         0.141
_refine_ls_abs_structure_details
;
 Flack x determined using 207 quotients [(I+)-(I-)]/[(I+)+(I-)]
 (Parsons, Flack and Wagner, Acta Cryst. B69 (2013) 249-259).
;
_refine_ls_abs_structure_Flack   -0.010(5)
_refine_ls_extinction_method     none
_refine_ls_goodness_of_fit_ref   1.219
_refine_ls_hydrogen_treatment    undef
_refine_ls_matrix_type           full
_refine_ls_number_parameters     56
_refine_ls_number_reflns         801
_refine_ls_number_restraints     0
_refine_ls_restrained_S_all      1.219
_refine_ls_R_factor_all          0.0183
_refine_ls_R_factor_gt           0.0180
_refine_ls_shift/su_max          0.000
_refine_ls_shift/su_mean         0.000
_refine_ls_structure_factor_coef Fsqd
_refine_ls_weighting_details
'w=1/[\s^2^(Fo^2^)+(0.0205P)^2^+0.6816P] where P=(Fo^2^+2Fc^2^)/3'
_refine_ls_weighting_scheme      calc
_refine_ls_wR_factor_gt          0.0470
_refine_ls_wR_factor_ref         0.0471
_reflns_Friedel_coverage         0.362
_reflns_Friedel_fraction_full    1.000
_reflns_Friedel_fraction_max     1.000
_reflns_number_gt                790
_reflns_number_total             801
_reflns_threshold_expression     'I > 2\s(I)'
_cod_data_source_file            ic7b00243_si_002.cif
_cod_data_source_block           shelx
_cod_original_cell_volume        547.5(5)
_cod_database_code               4345610
_shelx_shelxl_version_number     2014/7
_shelx_space_group_comment
;
The symmetry employed for this shelxl refinement is uniquely defined
by the following loop, which should always be used as a source of
symmetry information in preference to the above space-group names.
They are only intended as comments.
;
_shelx_res_file
;

    shelx.res created by SHELXL-2014/7


TITL mas40n_1_0m in P6522
CELL  0.71073   4.2560   4.2560  34.9050   90.000   90.000  120.000
ZERR     6.00   0.0020   0.0020   0.0020    0.000    0.000    0.000
LATT  -1
SYMM  - X, - Y, 1/2 + Z
SYMM  - Y, - X, 1/6 - Z
SYMM    Y,   X, 2/3 - Z
SYMM    X - Y, - Y, - Z
SYMM  - X + Y,   Y, 1/2 - Z
SYMM    X,   X - Y, 5/6 - Z
SYMM  - X, - X + Y, 1/3 - Z
SYMM  - Y,   X - Y, 2/3 + Z
SYMM    Y, - X + Y, 1/6 + Z
SYMM    X - Y,   X, 5/6 + Z
SYMM  - X + Y, - X, 1/3 + Z
SFAC  B    NI   O
UNIT  24   6    42
MERG   2
FMAP   2
PLAN   10
BOND
L.S.  5
ACTA
WGHT    0.020500    0.681600
FVAR       0.61329
O1    3   -0.186566   -0.555290   -0.017019    11.00000    0.00253    0.00507 =
         0.00286   -0.00114   -0.00012    0.00182
O2    3   -0.210282   -0.018954   -0.374196    11.00000    0.00353    0.00236 =
         0.00477    0.00052    0.00113    0.00159
B1    1   -0.518920   -0.312960   -0.355933    11.00000    0.00378    0.00284 =
         0.00355    0.00010    0.00082    0.00214
B2    1   -0.520458   -0.201994   -0.546186    11.00000    0.00390    0.00315 =
         0.00318    0.00011   -0.00021    0.00167
O3    3   -0.561825   -0.166356   -0.045158    11.00000    0.00474    0.00258 =
         0.00523    0.00048    0.00140    0.00174
NI1   2   -0.086961   -0.173923   -0.250000    10.50000    0.00386    0.00331 =
         0.00373    0.00000    0.00075    0.00166
O4    3   -0.645852   -0.291703   -0.250000    10.50000    0.00481    0.00382 =
         0.00228    0.00000   -0.00039    0.00191
HKLF    4

REM  mas40n_1_0m in P6522
REM R1 =  0.0180 for     790 Fo > 4sig(Fo)  and  0.0183 for all     801 data
REM     56 parameters refined using      0 restraints

END

WGHT      0.0205      0.6864

REM Highest difference peak  0.349,  deepest hole -0.776,  1-sigma level  0.141
Q1    1  -0.0258 -0.2990 -0.2259  11.00000  0.05    0.35
Q2    1  -0.5719 -0.3480 -0.2326  11.00000  0.05    0.34
Q3    1  -0.2089 -0.1003 -0.0167  11.00000  0.05    0.31
Q4    1  -0.2497 -1.0000  0.0000  10.50000  0.05    0.30
Q5    1  -0.6805 -0.1603 -0.0596  11.00000  0.05    0.27
Q6    1  -0.2320 -0.3136 -0.2262  11.00000  0.05    0.27
Q7    1  -0.4617 -0.2421 -0.0635  11.00000  0.05    0.27
Q8    1  -0.1254 -0.3102 -0.0397  11.00000  0.05    0.27
Q9    1  -0.2824 -0.4630 -0.0028  11.00000  0.05    0.26
Q10   1  -0.1420 -0.0471 -0.2266  11.00000  0.05    0.25
;
_shelx_res_checksum              31736
_shelx_hkl_file
;
  -1   0   0 414.710 9.45507   5
  -1   0   0 412.933 10.5140   7
  -1   0   0 429.879 10.4991   8
  -1   0   0 432.928 11.4907  11
  -1   0   0 399.091 10.4451  11
  -1   0   0 425.351 10.7767  12
   1   0   0 409.340 10.9729   2
   1   0   0 428.320 10.6452   3
   1   0   0 417.107 10.8157   4
   1   0   0 400.554 10.5030   7
   1   0   0 437.331 10.5369   8
   1   0   0 433.225 10.8991  11
   1   0   0 410.160 10.5233  11
   1   0   0 399.631 10.6114  12
   0   1   0 392.722 10.4370   9
   0   1   0 447.706 10.9554  10
   0   1   0 441.588 9.40545  11
   0   1   0 415.197 10.5191  12
   1  -1   0 448.437 10.8212  11
   0   1   0 424.918 10.1848   7
  -1   0   0 408.657 10.9490   2
  -1   0   0 431.545 10.6633   3
  -1   0   0 433.532 10.9173   4
   0  -1   0 443.505 9.47964  11
   0   1   0 432.524 10.5306   3
  -1   1   0 402.557 11.3169   2
  -1   1   0 431.269 11.7475   3
  -1   1   0 425.184 10.5221   5
  -1   1   0 412.633 11.1638   8
  -1   1   0 428.985 11.1028  11
  -1   1   0 431.690 10.7483  11
   1  -1   0 429.749 11.4999   2
   1  -1   0 410.446 11.5641   3
   1  -1   0 434.436 10.6104   5
   1  -1   0 447.073 10.6292   6
   1  -1   0 418.939 11.1905   8
   1  -1   0 402.845 11.0781  11
   0  -1   0 429.458 10.1788   7
   0   1   0 419.270 10.4467   4
   0  -1   0 428.869 10.5129   4
   0  -1   0 434.814 10.5979   5
   0   1   0 424.023 10.5328   5
   0  -1   0 436.306 9.48811  11
  -2   1   0 5654.93 120.410   5
  -1   2   0 5668.12 120.193  12
  -2   1   0 5419.35 122.930  11
   2  -1   0 5588.80 120.779  12
  -1  -1   0 5503.59 121.458   7
  -1  -1   0 5499.12 122.247   9
  -1  -1   0 5481.14 122.367  12
   1   1   0 5395.82 121.912   2
   1   1   0 5755.05 120.665   3
   1   1   0 5818.69 121.054   5
   1   1   0 5293.13 122.861   8
   1   1   0 5806.29 120.411  10
   1   1   0 5730.44 120.394  11
   1   1   0 5589.02 120.216  11
   2  -1   0 5321.03 122.081  11
  -1   2   0 5746.72 120.904  11
   1  -2   0 5637.89 120.265  12
  -1   2   0 5561.18 123.427   3
  -1   2   0 5604.98 120.419   7
  -1   2   0 5601.21 123.002  10
  -1   2   0 5541.41 121.175  11
   2  -1   0 5599.40 122.328   8
  -1  -1   0 5667.58 122.190   4
   1  -2   0 5549.89 121.273   4
  -2   1   0 5792.89 120.928  12
  -1  -1   0 5564.45 120.565   5
   1  -2   0 5700.64 122.740   2
  -2   1   0 5681.09 123.623   3
   2  -1   0 5674.21 123.504   2
   1  -2   0 5140.46 121.445  11
   1  -2   0 5466.75 121.719   9
   0  -2   0 61.2717 3.78342   4
   0  -2   0 66.1188 3.92288  12
   0  -2   0 57.4496 3.77264   5
   2   0   0 56.6746 3.55995  11
   0   2   0 59.4889 3.95571   3
   0   2   0 62.2645 4.01622  10
   2  -2   0 57.3346 3.86065   9
  -2   2   0 57.4868 5.43224   3
   2  -2   0 68.2374 5.25370   2
   0  -2   0 58.2632 3.29098   7
   0  -2   0 66.6751 3.86255   9
   2   0   0 68.4964 4.71230   2
   2   0   0 51.8805 3.59597   8
   2  -2   0 64.5960 3.97843  11
   2  -2   0 51.7154 4.78615   6
  -2   2   0 62.4601 4.26278  11
  -2   0   0 63.2223 4.02282   3
  -2   0   0 63.4330 2.09108   5
  -2   0   0 62.9879 3.78746   7
  -2   0   0 69.1824 4.32168  11
  -2   0   0 54.9414 3.86887  12
   3  -2   0 932.590 25.9507   8
   1  -3   0 1013.52 23.3067  11
  -1   3   0 983.797 22.9732  11
   2   1   0 966.459 26.0236   2
   1  -3   0 986.724 24.9119   4
   1  -3   0 899.557 26.6959   9
   2   1   0 1053.61 25.2523   3
   3  -2   0 973.660 25.9908  11
  -3   1   0 973.334 26.7041  11
   1  -3   0  999.99 23.8991  12
  -3   1   0 993.637 23.3979  10
   3  -2   0 888.924 29.5562   2
  -1   3   0 983.146 27.1850   3
  -1  -2   0 945.682 25.7233   4
  -1  -2   0 975.450 24.1755   5
  -1  -2   0 973.718 24.6074   7
  -1  -2   0 989.657 26.0437   9
  -1  -2   0 961.401 25.9133  12
   1   2   0 982.722 25.2655   2
   1   2   0 991.861 23.4983   3
   1   2   0 1001.37 24.9268   8
   1   2   0 1003.09 24.2425  10
  -3   1   0 962.633 26.7837   3
  -3   1   0 980.606 22.3323   5
   2   1   0 974.763 23.6379  11
  -3   1   0 992.803 24.6265  12
  -1   3   0 971.526 26.7376  10
  -2  -1   0 1020.57 22.7103   5
  -3   2   0 978.874 25.4162  10
  -3   2   0 966.993 26.8328  11
  -2   3   0 965.815 28.4481   3
  -2   3   0 950.953 25.1009  11
   2  -3   0 946.341 26.7107   2
   2  -3   0 958.997 24.4974   4
   2  -3   0 965.651 25.8213   5
   2  -3   0 986.399 24.6967  11
   3  -1   0 961.183 25.3964   8
  -2  -1   0 995.302 24.4594  11
   2   1   0 961.930 24.4702   8
   2   1   0 996.959 24.1185  11
   3  -2   0 972.951 22.6521  12
  -2  -1   0 893.783 26.3274   7
  -3   1   0 956.778 24.9208   7
  -3   2   0 932.519 28.1349   3
  -1   3   0 987.267 22.9188  11
   3   0   0 1130.16 28.5240   8
   3  -3   0 1141.32 29.2884   9
   0  -3   0 1120.56 29.1246   4
   0  -3   0 1124.87 27.5800   7
   0   3   0 1074.61 29.2663   8
  -3   0   0 1142.02 28.3805   3
   0   3   0 1143.68 29.3300   3
   3  -3   0 1143.29 29.4851  11
  -3   3   0 1143.34 30.7255  10
  -3   0   0 1135.20 29.1891   7
   0  -3   0 1095.68 28.9315  12
  -3   0   0 1125.53 29.7637  11
   0  -3   0 1103.21 29.0644   5
   0   3   0 1114.10 29.6784  10
  -3   3   0 1099.84 32.8694   3
  -3   0   0 1112.14 29.5075  12
   3   0   0 1116.89 28.7623  11
  -3   3   0 1113.47 30.3621  11
   3   0   0 1133.26 30.9738   2
   3  -3   0 1136.76 31.7144   2
   0  -3   0 1064.37 29.0793   9
  -2   4   0 1341.30 33.7134  11
   2   2   0 1376.12 36.5838   2
   2  -4   0 1398.21 36.2019   9
  -2  -2   0 1370.91 35.1062   7
   2  -4   0 1479.58 34.0742  11
   2  -4   0 1401.41 31.8316  12
  -4   2   0 1371.13 37.8662  11
  -2   4   0 1351.28 39.0186   3
  -2   4   0 1399.95 38.0958  10
   2   2   0 1402.29 31.5209  10
  -2  -2   0 1379.32 36.9860  12
   4  -2   0 1313.21 38.5756   2
   4  -2   0 1382.15 36.3617   8
   4  -2   0 1420.39 40.8728  11
   2   2   0 1296.87 31.2161  11
  -4   2   0 1361.34 39.3889   3
  -4   2   0 1380.51 34.8136   7
  -4   2   0 1322.09 34.4768  10
   2  -4   0 1383.06 36.4578   5
  -4   2   0 1433.07 33.5233  12
  -2  -2   0 1365.49 36.5259   4
  -2  -2   0 1379.42 32.9310   5
   2   2   0 1354.72 34.6463   8
   2   2   0 1408.95 31.8829   3
   2  -4   0 1360.42 34.8348   4
  -4   3   0 19.8695 4.96405  11
   3   1   0 20.6398 4.23164   8
   1  -4   0 14.3291 4.21202   4
   1   3   0 12.1832 4.16829   2
   1   3   0 11.2972 3.87306   3
  -3  -1   0 17.0596 4.06442   7
  -4   1   0 14.7506 4.02512   7
  -4   1   0 15.3016 4.10255  12
  -1  -3   0 15.9231 3.73906   7
   1  -4   0 11.4814 3.60265  12
   3   1   0 15.3616 3.12629  11
  -3  -1   0 10.2187 3.95952  12
  -3  -1   0 14.5032 4.67422  11
  -3   4   0 20.3304 6.76150   3
  -3   4   0 12.8747 4.62324  10
  -1  -3   0 17.7893 4.46674   4
  -1  -3   0 18.1554 4.40017   5
   4  -1   0 12.1654 5.55326   2
   1  -4   0 17.7815 4.20642   9
  -1   4   0 17.8187 5.79326   3
  -1   4   0 13.0053 5.17774  10
   3   1   0 17.9987 4.89402   2
   1  -4   0 15.4003 4.35559   5
  -4   3   0 14.3474 6.38134   3
   1   3   0 18.3088 4.20247  10
   4  -1   0 15.9758 4.52114   8
   4  -1   0 13.5081 4.17282  11
   4  -3   0 9.96626 5.62224   2
  -4   3   0 13.9080 3.63151   7
  -4   3   0 16.8687 5.08652  10
   4  -3   0 19.7207 4.59262  11
   3  -4   0 22.5120 5.81158   2
   3  -4   0 18.2491 4.05724   4
  -3   4   0 18.5953 4.09609  11
  -1  -3   0 24.9288 4.91481   9
   1   3   0 13.8097 4.15580   8
  -1  -3   0 19.3373 4.48970  12
   3  -4   0 24.1378 4.39883  11
  -4   1   0 17.3311 5.26278  11
   3  -4   0 11.9545 3.81190   9
   0  -4   0 361.530 14.9480   5
   0   4   0 356.753 15.6022  10
   4   0   0 378.118 14.1434  11
   0   4   0 365.026 15.8368   3
  -4   0   0 368.537 15.1172  12
   4   0   0 360.123 16.9277   2
  -4   0   0 362.185 15.8640  11
  -4   0   0 350.848 14.3668   7
   0  -4   0 369.631 15.1807   4
  -4   0   0 357.314 13.8339   3
  -4   4   0 337.823 19.0878   3
  -4   4   0 364.135 16.9036  10
  -4   4   0 375.388 15.9637  11
   4  -4   0 364.979 14.6361   9
   0  -4   0 353.453 12.9315   7
   4   0   0 357.657 14.1686   8
   0  -4   0 371.018 14.8567  12
   0   4   0 367.709 12.3166   6
   0   4   0 359.525 14.6634   8
   0  -4   0 361.256 15.0778   9
   4  -4   0 359.723 15.4198  11
   4  -4   0 361.144 18.4277   2
  -2   5   0 6.50394 7.28968   3
   3  -5   0 18.3938 5.69017   9
  -5   3   0 14.3087 4.74310   7
  -3   5   0 2.65745 8.45052   3
  -3   5   0 22.9453 8.13090  10
  -3   5   0 22.2232 4.74996  11
   5  -3   0 16.9822 5.63614  11
   3   2   0 21.4233 3.36428  11
  -5   2   0 11.3713 4.87246   7
  -2   5   0 15.5493 3.41171  11
  -2   5   0 9.78101 7.76152  10
  -2  -3   0 25.1124 5.38621   7
   2   3   0 17.2117 5.71579   8
   5  -2   0 10.1973 5.61498   8
  -5   2   0 20.3888 9.33919   3
   2  -5   0 11.9287 5.67528   4
  -5   2   0 22.6834 6.54071  11
  -5   2   0 19.7026 4.79847  12
  -5   3   0 14.0097 6.67263  10
  -2  -3   0 14.8124 6.17904   4
   3   2   0 8.02698 6.24168   2
   2   3   0 7.33893 5.97308   2
  -5   3   0 20.0380 9.50908   3
  -3  -2   0 14.4645 5.28620   7
  -3  -2   0 27.5120 6.63275  12
  -3  -2   0 13.4707 6.42284   4
   3  -5   0 25.5415 5.80431   4
   2  -5   0 10.2833 5.42566   9
   5  -2   0 12.1645 7.63957   2
   5  -2   0 9.56758 5.45832  11
  -5   3   0 22.4911 7.08453  11
  -2  -3   0 16.7735 5.99614  12
   5  -3   0 21.9213 7.90070   2
   3   2   0 14.9356 5.53095   8
  -5   1   0 120.587 18.6231   3
  -4   5   0 135.488 10.8245  11
  -5   4   0 130.207 12.6126  11
  -1   5   0 113.195 11.8520   8
   5  -1   0 150.186 12.0653   8
   4   1   0 134.380 8.74859  11
   1  -5   0 140.300 11.1392  12
   4  -5   0 151.253 14.1086   2
   5  -1   0 121.409 10.2283  11
  -1  -4   0 127.102 9.88153   7
   5  -1   0 148.616 14.6406   2
  -1   5   0 140.336 15.0514   3
  -5   1   0 130.812 10.4040   7
  -1  -4   0 124.319 12.3509   9
  -5   4   0 127.390 13.4091  10
  -1  -4   0 139.296 12.1806   4
   4   1   0 123.779 13.5495   2
  -4   5   0 136.000 15.7504   3
   5  -4   0 107.105 11.9916  11
   1  -5   0 134.408 11.5303   9
  -1   5   0 132.578 12.6110  10
   5  -4   0 133.234 14.3695   2
  -5   4   0 142.966 9.21434   7
   1  -5   0 136.682 11.4236   4
  -4  -1   0 142.410 10.7494   7
  -5   1   0 146.195 13.0096  12
  -4  -1   0 97.9102 11.2787  12
   4  -5   0 129.368 9.96061   4
   5  -4   0 129.214 10.3789   9
  -5   1   0 157.786 13.8945  11
  -4   5   0 147.658 14.1675  10
  -5   4   0 134.796 16.8394   3
   1   4   0 140.157 10.1710   6
   1   4   0 142.127 11.7390   8
  -1  -4   0 131.170 13.0115  12
   1   4   0 131.777 11.6216   2
   4  -5   0 138.127 10.9186   9
   5  -5   0 51.3707 7.60072   9
   0  -5   0 54.2009 9.33397   4
   0   5   0 32.9641 8.02121   2
   5  -5   0 50.3946 11.4724   2
  -5   5   0 50.2448 8.59728  11
   5  -5   0 50.2207 9.50774  11
   0  -5   0 44.5050 8.84572   9
   0  -5   0 53.6740 9.03487  12
  -5   5   0 36.8971 12.9333   3
   0   5   0 38.5513 8.71934   8
   0   5   0 37.8784 9.64726  10
  -5   0   0 47.4884 8.47329   7
   5   0   0 43.0428 6.89680  11
  -5   5   0 57.0771 10.8413  10
   5  -5   0 49.1613 8.05942   4
   5   0   0 35.9303 10.7228   2
   3  -6   0 80.7343 10.6196   4
  -3   6   0 54.1026 7.27419  11
  -3   6   0 53.4248 13.5634   3
  -3   6   0 71.8011 12.4594  10
   3   3   0 65.6376 10.8577   2
  -3  -3   0 52.0071 10.4718  12
  -6   3   0 70.0135 8.99392   7
  -3  -3   0 82.3077 9.32910   7
  -3  -3   0 50.4371 10.1623   4
   6  -3   0 38.1555 11.5613   2
   3  -6   0 44.9679 9.78385   9
  -6   3   0 84.7362 15.8175   3
   6  -3   0 57.5976 9.57332  11
  -6   3   0 65.8146 11.3133  11
   6  -2   0 127.093 13.1209  11
   2  -6   0 139.530 14.4183   9
   6  -4   0 149.127 14.9620  11
   2   4   0 135.063 12.9588   6
   4  -6   0 114.185 13.7414   9
  -6   4   0 141.115 15.4409   7
  -4  -2   0 144.514 12.9749   7
   6  -4   0 131.621 15.6634   2
   6  -2   0 117.008 14.8830   2
   6  -4   0 114.359 12.2251   9
  -4   6   0 118.599 11.4065  11
   6  -2   0 130.402 17.9915   8
   2   4   0 137.291 14.3570   2
  -4   6   0 150.452 17.0147  10
  -2  -4   0 109.724 11.0567   7
  -2  -4   0 121.294 15.9393  12
  -6   4   0 156.743 15.6110  11
  -4   6   0 132.120 17.5222   3
  -6   2   0 109.472 12.8181   7
  -4  -2   0 118.489 13.7288  12
   2  -6   0 142.390 14.5403   4
  -6   4   0 129.948 18.0348   3
   4   2   0 122.396 14.0231   2
  -2   6   0 126.479 16.1518   8
  -2  -4   0 112.724 12.9197   4
  -2   6   0 103.717 14.4054  10
  -2   6   0 148.410 16.8191   3
  -5   6   0 33.0763 12.5144  10
  -6   5   0 14.3133 13.6046  10
  -6   1   0 31.8570 9.62801  12
   5   1   0 28.5076 6.70843  11
   6  -5   0 26.5025 10.6979  11
   6  -5   0 23.6381 13.4856   2
   1  -6   0 41.1701 10.3881   9
  -5  -1   0 15.0809 8.34569   7
   5  -6   0 25.7515 8.39769   9
  -6   5   0 46.2545 15.6347   3
  -1   6   0 10.9759 12.7610  10
  -5   6   0 33.1813 15.1040   3
   5   1   0 17.6660 12.2297   2
   6  -5   0 22.6985 8.34682   9
  -1  -5   0 6.40150 9.90269   9
  -6   5   0 32.6009 9.18065  11
  -5   6   0 27.7158 7.72386  11
   6  -1   0 33.1891 8.33117  11
   1  -6   0 32.9486 10.9291   4
  -1  -5   0 26.1018 10.8217   4
  -1  -5   0 22.9178 10.6468  12
  -1   6   0 31.3906 11.0508   8
  -6   1   0 38.0278 9.52507   7
  -5  -1   0 21.6054 10.3597  12
   6  -1   0 14.1411 12.7217   2
   1   5   0 13.4537 10.3262   2
   0  -1  -1 737.337 16.0719  11
  -1   0   1 748.945 16.8030   8
  -1   0   1 732.772 17.2744  12
   0   1  -1 728.647 16.9121   4
  -1   1   1 752.233 17.6302  10
  -1   1   1 731.871 17.0322   5
  -1   1  -1 686.131 17.5935   8
   0  -1   1 724.511 17.0734  12
   1   0   1 735.965 17.3749  11
   0   1   1 758.069 16.0384  11
   1  -1   1 692.236 17.6112   8
  -1   0  -1 689.491 16.9349  11
   0   1   1 753.311 17.3128  10
   0   1   1 726.590 17.1113   6
   1  -1  -1 730.146 17.2133  11
   1   0  -1 725.405 16.7727   8
   1  -1   1 714.478 18.1810  11
   1   0   1 745.337 16.9394   3
  -1   1  -1 686.756 18.0654   3
   1  -1   1 725.940 17.8792   2
   0  -1   1 729.799 16.6998   7
   0  -1   1 735.777 17.0278   9
   1   0  -1 734.830 17.2671   3
  -1   0  -1 765.532 16.0201  10
   0  -1  -1 714.648 16.9916   4
  -1   1  -1 718.298 17.8280   2
  -1   0  -1 678.934 17.0846  12
   1  -1   1 745.950 17.0043   5
  -1   0  -1 725.447 17.0724   8
  -1   0   1 669.876 16.8515  11
   0  -1  -1 724.290 16.5262   7
   1  -1  -1 722.135 18.2032  11
   1   0  -1 715.652 17.1977  12
   0  -1  -1 728.115 17.0633  12
   0   1  -1 726.341 16.7015   7
   0   1   1 722.672 17.0212  12
   1   0   1 745.139 19.4487   6
   0   1   1 761.958 17.0562   3
  -1   0   1 714.848 16.0052   5
  -1   0  -1 733.351 17.4033  11
   0   1  -1 726.862 17.0364  12
  -1   0   1 699.367 17.4062   2
   1   0   1 718.851 17.0001  11
   1   0   1 695.124 17.1165  12
   0   1  -1 711.264 16.8957   9
  -1   0   1 734.623 17.2178   3
   1   0  -1 728.403 17.3435  11
   0   1   1 715.678 16.5161   7
   1  -1  -1 729.545 16.8247   6
  -1   1  -1 726.323 17.1512  11
   0  -1   1 755.373 17.0169   4
   0  -1   1 736.237 17.0295   5
   0   1   1 676.036 16.9616   9
  -1   1   1 762.259 17.2370  11
  -1   1  -1 715.170 17.5392  11
   0   1   1 749.441 16.0260  11
  -1   1   1 693.380 17.4872   8
   1  -1   1 749.329 17.2791   6
   1  -1  -1 730.340 19.0500   3
   1   0  -1 707.286 17.4633   2
   1   0   1 801.131 17.6298   8
   0   1   1 724.761 16.9713   5
   0  -1  -1 746.451 17.0631   5
   0  -1  -1 670.179 16.9952   9
   1  -1   1 734.975 17.2240  11
  -1   1   1 685.118 18.2181   3
   1   0  -1 741.248 16.9930  11
   1  -1  -1 745.525 18.1237   2
   0   1  -1 748.016 17.0882   3
   1   0   1 714.874 17.2071   4
  -1   1  -1 727.237 16.9083   5
  -1   0   1 693.308 16.9446   7
   1   1   1 220.248 7.42546   2
  -2   1   1 199.160 8.37988   3
  -1  -1   1 213.565 7.50331   9
  -1   2   1 208.187 8.30816   3
  -1   2  -1 215.290 8.27641   3
   1  -2  -1 233.686 6.17197  12
  -2   1   1 210.164 6.36364   5
   1  -2  -1 221.823 6.97203   4
   2  -1  -1 223.893 7.14026  12
  -2   1   1 212.662 6.87057  10
  -1  -1  -1 215.211 7.41310   4
  -1  -1   1 215.426 6.33326   5
   1   1  -1 213.199 6.63063   3
  -1  -1  -1 215.813 6.96533   7
  -1   2  -1 214.066 6.67635  11
  -1  -1  -1 255.595 7.28289  11
   1   1   1 218.882 7.05719   8
   1   1   1 219.331 6.25547  10
   1   1  -1 222.534 6.09962  10
   1  -2   1 206.206 7.09477   9
  -1  -1  -1 214.563 6.25944   5
  -1   2   1 208.782 6.69183  11
   1   1  -1 207.112 7.23150   2
   1  -2  -1 220.829 7.46846   5
   1  -2   1 221.255 7.80346   2
  -1  -1   1 214.575 7.61013  12
  -1   2  -1 223.519 6.03481  12
   1  -2   1 218.856 6.48764  11
  -2   1   1 218.110 6.86489   7
  -1   2   1 222.848 6.57986  11
  -2   1  -1 225.114 8.62871   3
  -1  -1   1 219.315 7.50662   4
  -2   1  -1 209.356 7.98985  11
  -2   1  -1 230.749 6.60130  12
   1  -2  -1 222.087 8.06918   2
  -2   1  -1 212.584 6.14850   5
   1  -2   1 216.118 6.77384   4
   1   1   1 222.954 6.24909  11
   1   1   1 216.012 6.15978   3
   1   1  -1 217.513 6.81410   8
   1  -2   1 209.834 7.34718   5
   2  -1   1 209.489 6.43941  12
   1  -2   1 223.812 6.05402  12
   1   1  -1 211.908 6.01562  11
   1   1  -1 219.148 5.88149  11
   1   1   1 205.368 6.11519   5
  -1  -1  -1 233.317 7.77302   9
   2  -1   1 217.157 7.68754   8
  -2   1   1 210.030 7.96711  11
   1  -2  -1 208.552 7.12891   9
   2  -1  -1 221.664 8.56059   2
  -1   2   1 217.209 8.07208  10
   2  -1  -1 216.265 7.47472  11
   1   1   1 210.372 6.00021  11
   2  -1  -1 217.785 7.60117   8
  -1   2   1 220.709 6.09672   7
  -2   1   1 220.694 6.63506  12
  -1   2  -1 226.336 6.52647  11
   2  -1   1 206.764 7.39719  11
  -1  -1   1 203.730 6.89620   7
  -2   2   1 2572.96 59.7189  11
   2   0   1 2555.91 58.5469  11
  -2   0   1 2630.14 56.2101   5
   2   0  -1 2579.29 59.7794   2
   2  -2   1 2551.20 58.9341  11
   2   0  -1 2560.91 58.1665   8
   0   2   1 2605.91 59.1557  10
  -2   2   1 2591.11 59.7243  10
   2   0   1 2637.28 59.8810   2
   0  -2  -1 2561.87 58.6705   4
   0  -2  -1 2577.65 58.5464   5
   0  -2   1 2532.37 58.6657   9
  -2   0   1 2619.43 58.7066   3
   2  -2  -1 2561.21 58.8249   9
  -2   0  -1 2665.15 58.3933   3
   2  -2  -1 2638.23 58.4658   6
   2   0  -1 2609.06 58.5422  11
   0  -2   1 2642.99 58.7285  12
   2  -2   1 2633.40 58.6149   5
   0  -2   1 2552.40 58.5483   4
   0   2  -1 2632.14 58.7261   3
   0   2  -1 2658.18 59.1501  10
   2  -2  -1 2615.49 60.9065   2
   0  -2   1 2542.49 57.7482   7
  -2   0  -1 2613.76 58.6395   7
  -2   0   1 2618.47 59.2249  11
   0   2   1 2643.31 58.7691   3
  -2   2  -1 2631.08 61.4405   3
  -2   0   1 2585.07 58.6407   7
   2  -2  -1 2593.07 59.0551  11
   0  -2  -1 2557.87 58.8082   9
  -2   2  -1 2592.93 59.6838  11
   0  -2  -1 2633.63 56.2718  11
  -2   0  -1 2646.45 59.1008  12
   0  -2  -1 2509.30 57.5449   7
   2   0   1 2646.50 58.6177   8
  -2   0   1 2563.54 59.0775  12
   0  -2   1 2554.61 58.5472   5
   2  -2   1 2566.83 60.4480   2
  -2   2   1 2583.72 61.4636   3
   2  -2   1 2602.53 58.6165   6
   0  -2  -1 2551.89 58.6421  12
  -2   0  -1 2699.84 59.5358  11
   2   1  -1 535.367 14.4445  11
  -3   2  -1 483.272 17.9301   3
  -1   3  -1 505.861 16.9074   3
  -2  -1  -1 457.503 16.1944   7
  -1  -2   1 514.005 15.9969   4
  -3   2  -1 546.060 13.1749  12
   1   2   1 539.544 13.8295   3
   1   2   1 521.134 15.6239   2
   1   2   1 528.479 14.6188  10
  -1  -2   1 522.454 14.9225   7
   2   1  -1 515.612 14.6108   8
   2   1  -1 528.560 13.9313  11
  -1   3  -1 528.402 13.2992  11
  -1   3  -1 563.955 13.3470  11
   1  -3  -1 560.285 13.7755  11
   3  -2  -1 511.848 16.2366   8
   3  -2  -1 514.258 16.0395  11
   2  -3   1 524.504 14.9050  11
  -3   1   1 538.309 13.8931  10
   1   2   1 526.433 15.2305   8
  -1  -2   1 503.678 15.9912  12
  -3   1   1 532.172 13.2830   5
   2   1  -1 509.796 16.0460   2
  -3   2  -1 509.534 15.5835  10
  -3   1   1 507.021 16.5398  11
   3  -1   1 499.159 15.6254   8
  -2  -1  -1 571.258 15.1246  11
  -1   3  -1 556.748 12.9412   6
  -1  -2   1 520.914 15.9859   9
  -3   1   1 536.357 15.2367   7
  -1   3  -1 497.362 16.5414  10
  -1   3  -1 538.638 13.0689   6
   1  -3  -1 520.597 15.2582   4
  -1  -2   1 505.098 14.4002   5
   2  -3   1 497.208 15.8681   5
   2  -3   1 527.563 16.9114   2
  -3   1   1 528.176 14.9650  12
  -2  -1  -1 549.641 13.0260   5
  -3   2  -1 526.112 16.9962  11
   1  -3  -1 527.220 14.2498  12
  -2   3   1 517.416 18.0711   3
  -3   1   1 512.975 17.0105   3
   2  -3   1 507.967 14.5741   4
  -2   3   1 517.717 15.3776  11
   2   1   1 468.155 15.0891   2
   2   1   1 447.708 12.7193  11
  -3   2   1 470.734 15.7227  11
   1   2  -1 495.680 13.3520  10
  -1  -2  -1 449.563 14.7653  12
   1   2  -1 452.267 15.1578   3
  -1   3   1 484.274 16.0165   3
   2   1   1 479.663 13.8468   8
   1  -3   1 454.063 13.6329   4
   3  -2   1 460.461 11.8426  12
  -3   2   1 452.908 17.0237   3
   2   1   1 469.953 13.2993  11
  -3   2   1 468.206 13.3006   7
   2  -3  -1 454.264 13.5377   4
   1  -3   1 480.486 13.0348  12
  -3   1  -1 487.895 11.4269   5
   2   1   1 476.594 12.6560   3
  -3   1  -1 467.140 15.5274  11
  -3   2   1 482.384 14.5438  10
  -2   3  -1 417.334 17.0979   3
  -3   1  -1 475.398 15.6697   3
   2  -3  -1 482.195 13.8019  11
  -2  -1   1 485.374 12.0135   5
   1   2  -1 454.167 14.0534   2
   3  -2   1 483.214 15.3136   8
  -1   3   1 464.609 12.2152  11
  -1  -2  -1 466.873 13.2106   5
  -1  -2  -1 481.681 13.6485   7
  -3   1  -1 465.289 13.9536   7
  -3   1  -1 460.781 13.5473  12
   3  -1  -1 481.449 14.5277   8
  -1  -2  -1 460.867 14.8554   9
  -2   3  -1 465.516 14.0936  11
  -3   1  -1 477.151 12.6707  10
  -1  -2  -1 482.312 11.6583  11
  -1   3   1 462.909 15.4422  10
   3  -2   1 452.868 14.7203  11
  -1  -2  -1 413.351 15.4429   4
   2  -3  -1 439.798 15.5605   2
   3  -2   1 425.854 17.6037   2
   1   2  -1 463.511 13.6366   8
  -1   3   1 496.305 12.2819  11
   1  -3   1 464.473 14.4555   9
   0  -3   1 220.069 9.14605   4
   3  -3   1 215.887 9.16139   9
  -3   0   1 210.054 11.9931   3
   0   3   1 212.877 9.46510   3
  -3   0  -1 206.075 8.88747   7
  -3   0  -1 232.120 8.80996   3
  -3   0   1 197.294 9.20072  12
   3   0  -1 203.477 10.3206   2
   3   0   1 187.688 8.36570  11
   0   3   1 206.288 9.42308  10
   3   0   1 200.128 8.71782   8
   3  -3  -1 214.745 9.01399   9
   0  -3  -1 207.898 7.73743   7
   0   3  -1 194.885 8.98881   8
  -3   0  -1 210.838 9.63995  11
  -3   3  -1 205.737 11.3730   3
   0  -3  -1 195.324 9.11404   5
   0  -3   1 212.921 7.97326   7
   3   0   1 201.024 10.2356   2
  -3   0  -1 194.910 9.19754  12
   3   0  -1 204.140 8.58886   8
   3  -3  -1 214.954 11.0989   2
  -3   3  -1 203.669 9.74638  11
   3  -3  -1 209.871 9.12891  11
  -3   0   1 211.108 9.46263  11
   0  -3   1 204.768 8.99525  12
   0  -3   1 196.327 9.01576   5
   0  -3  -1 207.413 9.04984   9
  -3   3   1 192.645 10.1378  10
   3  -3   1 198.059 8.99067  11
   0   3  -1 202.381 9.17879   3
  -3   3   1 211.140 12.0064   3
   0  -3  -1 207.898 9.08426  12
  -3   3  -1 208.037 10.1470  10
   3   0  -1 215.609 8.66901  11
  -3   0   1 211.187 8.89965   7
   3  -3   1 216.496 11.0606   2
  -3   3   1 193.173 9.60554  11
   0  -3  -1 213.930 9.10537   4
   0   3  -1 200.908 7.54861   6
   0  -3   1 215.856 9.07080   9
   0   3  -1 205.437 9.49574  10
  -4   2   1 65.1795 6.54737  10
  -4   2  -1 63.1292 8.40198   3
  -4   2   1 69.9113 5.31110  12
  -4   2   1 62.2025 8.75306   3
   4  -2  -1 56.8386 7.86667   2
  -2  -2   1 65.9576 7.03228   4
  -2   4  -1 66.4494 5.20338  11
   2   2  -1 72.7251 4.01825  11
  -4   2  -1 66.2779 5.86308   7
  -2   4   1 71.4161 7.34245  10
  -2  -2  -1 73.2775 7.08990   4
   2   2   1 62.6840 4.20714   3
   2  -4  -1 62.0423 5.79493   4
   2  -4  -1 68.3242 6.63400   9
   2  -4   1 65.0165 5.75527   4
   4  -2  -1 60.5757 8.15428  11
  -2  -2  -1 77.5467 5.44418   5
   2  -4  -1 81.9076 6.28201  11
  -2  -2  -1 78.5923 6.33033   7
  -2  -2  -1 63.5178 6.89298  12
   2   2  -1 62.5447 3.32884  11
  -4   2  -1 74.4212 5.33627  12
   4  -2   1 74.9460 6.77396  11
  -4   2  -1 63.8032 7.88374  11
  -4   2  -1 73.6165 6.49890  10
  -2   4   1 68.7888 5.25288  11
  -2   4   1 71.8828 8.86688   3
  -2  -2   1 69.8235 7.12156  12
   2  -4  -1 69.2139 4.61882  12
   2   2  -1 69.3205 7.08001   2
   2   2  -1 63.9779 6.06116   8
   2   2   1 72.6477 4.50453  10
   2   2  -1 68.3323 4.20913  10
   2   2   1 70.0315 6.58767   8
   2  -4   1 69.7154 6.06610  11
  -2  -2   1 72.8784 5.25201   5
  -4   2   1 71.7066 7.93653  11
  -4   2   1 70.3789 5.83983   7
   4  -2  -1 78.6716 7.07518   8
   2   2   1 68.0540 6.78094   2
   2  -4   1 64.7291 4.37930  12
   2  -4   1 63.0110 6.86446   5
   4  -2   1 75.1048 8.78714   2
  -2  -2   1 57.5873 5.72828   7
   4  -2   1 83.8967 7.26966   8
  -2   4  -1 72.5250 8.80253   3
   2   2   1 64.9310 3.65143  11
   2  -4   1 76.3468 6.51303   9
  -2   4  -1 62.0504 7.70215  10
  -1   4  -1 457.423 17.6834  10
   1   3   1 469.203 15.9082   8
  -1   4  -1 448.961 18.1101   3
  -4   1   1 440.456 15.5409   7
   1  -4  -1 452.241 15.7739   4
   1  -4  -1 467.334 16.2876   9
   3  -4   1 451.438 15.5158  11
  -3   4   1 500.471 20.4609   3
   1  -4  -1 458.359 16.3318   5
  -3  -1  -1 450.437 15.6457   7
  -1  -3   1 451.332 16.5838   9
  -4   3  -1 476.985 17.0855  10
  -1  -3   1 447.940 16.1652   4
   3  -4   1 457.456 14.8677   4
   1   3   1 463.464 16.1317   2
   4  -1   1 470.104 16.2112   8
   4  -1   1 454.926 16.2887  11
  -4   1   1 475.494 17.7463  11
  -3  -1  -1 469.718 17.0812  12
  -1  -3   1 451.698 15.0399   5
  -4   1   1 461.255 17.9367   3
  -3  -1  -1 464.409 15.6167  11
  -3  -1  -1 443.871 17.0229   4
   1   3   1 447.897 15.0627  10
  -1  -3   1 442.215 16.4191  12
   1   3   1 491.092 14.6259   3
   4  -3  -1 438.395 16.4505  11
   3   1  -1 455.762 14.8281   8
  -1  -3   1 474.570 15.0403   7
   3  -4   1 447.582 18.1044   2
  -4   3  -1 424.044 19.3638   3
  -4   3  -1 448.683 17.6416  11
  -4   1   1 459.202 15.5649  12
   4  -3  -1 450.618 18.8146   2
  -3   4   1 442.740 17.9054  10
   3   1  -1 465.997 14.0545  11
  -3   4   1 450.478 15.9659  11
   4  -1   1 447.470 18.0644   2
   3   1  -1 468.720 17.3466   2
   1  -4  -1 450.954 14.6561  12
   3  -4   1 454.676 16.1991   9
   3   1   1 430.283 13.6257  11
   4  -1  -1 435.609 15.8185  11
  -4   3   1 428.998 16.9901  11
  -4   1  -1 418.807 14.9992   7
   1  -4   1 436.270 15.9052   5
   1   3  -1 429.891 15.0072   8
   1   3  -1 428.199 14.5861  10
  -1   4   1 462.689 18.7041   3
  -1  -3  -1 418.139 15.8086  12
   3  -4  -1 437.474 14.6951   4
   3  -4  -1 444.935 15.2410  11
  -4   3   1 435.508 19.4119   3
   1  -4   1 431.013 15.6124   9
   1  -4   1 437.143 14.0889  12
   4  -1  -1 440.876 15.4557   8
   3  -4  -1 416.446 17.5369   2
   4  -3   1 446.324 18.2605   2
  -3   4  -1 427.775 17.4165  10
  -3  -1   1 444.746 15.3419   7
  -3   4  -1 446.050 15.6048  11
  -3  -1   1 424.474 16.1872  12
  -1  -3  -1 420.824 14.6599   5
   4  -3   1 436.002 16.2020  11
  -4   3   1 435.777 13.9266   7
  -4   3   1 434.683 16.4856  10
   1  -4   1 440.828 15.2896   4
  -1  -3  -1 411.938 15.4680   4
   3   1   1 424.438 14.6674   8
  -1   4   1 430.545 17.2473  10
  -1  -3  -1 442.887 14.3514   7
  -1  -3  -1 425.797 16.0809   9
   1   3  -1 456.255 15.6281   2
  -4   1  -1 433.074 17.1233  11
   3   1   1 425.368 16.7818   2
  -3   4  -1 420.686 19.2368   3
  -3  -1   1 454.610 16.3859  11
  -4   1  -1 432.142 17.3707   3
   4  -1  -1 433.478 17.7737   2
   1   3  -1 439.945 14.1683   3
   3  -4  -1 420.292 15.4533   9
  -4   1  -1 429.245 14.9468  12
   0  -4   1 41.3031 6.08991  12
   4   0  -1 28.9016 5.41964   8
   0  -4  -1 30.4300 5.76188   9
   0   4   1 30.1297 4.30529   6
   4   0   1 29.5515 6.34690   2
   0  -4   1 34.7195 4.86641   7
   0   4   1 34.6306 8.74225   3
  -4   0  -1 34.1841 5.30826   7
  -4   4   1 30.1414 5.53748  11
   4  -4  -1 40.1043 8.24122   2
   0   4  -1 42.0508 6.34377   8
   0   4  -1 30.4127 6.78791   3
  -4   4  -1 34.4608 7.81102   3
  -4   0  -1 28.1893 6.42089  11
   4  -4   1 38.0621 6.06248  11
  -4   0  -1 36.5603 5.75814   3
   0   4   1 34.2544 5.72682   8
   0   4   1 41.9936 7.12379  10
   4  -4   1 35.5443 8.08048   2
   0  -4  -1 34.2229 6.19916   5
  -4   4  -1 36.3165 6.17363  11
   0   4  -1 36.7186 4.67669   6
  -4   4   1 33.0262 6.92360  10
   0  -4   1 31.0304 5.76964   9
   0  -4   1 30.5224 6.09136   4
  -4   0   1 33.0111 5.92815   3
  -4   0   1 42.2050 5.87204   7
   4   0   1 31.4073 5.42981   8
  -4   0   1 28.1478 5.68602  12
   0  -4   1 25.2480 5.97503   5
   0   4  -1 25.1363 5.80869  10
   0  -4  -1 24.2895 6.00841   4
   4   0  -1 34.2399 7.08395   2
   0  -4  -1 32.7916 4.93018   7
   4  -4  -1 38.6614 5.65316   9
  -4   4  -1 21.0201 6.75273  10
  -4   0   1 38.7814 6.84976  11
   4   0   1 36.4911 5.29257  11
  -4   0  -1 37.2081 6.05185  12
   4  -4   1 29.4666 5.19708   9
   4   0  -1 35.7313 5.03931  11
  -4   4   1 31.4943 8.06496   3
   0  -4  -1 29.4580 5.53470  12
   4  -4  -1 29.4222 5.69364  11
   2  -5  -1 302.626 14.9719   9
  -5   2   1 324.436 13.1209  12
  -5   2   1 283.183 13.5402   7
  -3  -2  -1 285.143 15.3851   4
  -5   3  -1 320.171 13.2643   7
   3   2  -1 309.050 9.89990  11
   3   2  -1 316.840 13.3203   8
   2   3   1 308.737 15.4669   2
   2  -5  -1 306.911 13.9121   4
   3  -5   1 298.267 14.8828   9
  -3   5   1 323.963 17.5675  10
  -5   3  -1 286.584 15.5838  10
  -3  -2  -1 309.295 15.6884  12
   3   2  -1 329.837 16.4483   2
  -5   3  -1 298.776 16.6998  11
   5  -2   1 321.983 17.9496   2
  -3   5   1 286.965 18.8001   3
  -5   2   1 305.688 16.6920  11
  -2   5  -1 327.828 18.3921   3
   3  -5   1 293.933 13.3634   4
  -2   5  -1 314.218 10.1910  11
   5  -2   1 293.287 14.7419  11
   5  -3  -1 314.251 17.9667   2
   5  -3  -1 317.161 15.7055  11
  -2   5  -1 299.474 19.3120  10
  -2  -3   1 295.964 15.2994  12
   5  -2   1 320.393 15.2267   8
  -5   2   1 293.473 19.4072   3
  -3   5   1 311.688 13.0715  11
   2   3   1 319.175 14.2200   8
  -2  -3   1 303.282 15.3272   4
  -2  -3   1 315.307 13.2570   5
  -2  -3   1 317.980 13.7670   7
  -3  -2  -1 312.223 14.2676   7
  -5   3  -1 317.352 20.4337   3
  -2   5   1 337.957 18.8801   3
   5  -2  -1 329.519 18.8011   2
  -2  -3  -1 340.217 16.4203  12
   3   2   1 357.199 11.1321  11
  -5   2  -1 346.786 14.7901   7
   2  -5   1 335.611 15.8419   9
   5  -2  -1 358.932 15.7886   8
  -3   5  -1 349.119 13.7082  11
  -5   2  -1 353.451 17.9486  11
  -3  -2   1 338.835 14.8096   7
   3   2   1 320.546 16.7141   2
   3   2   1 363.500 14.6009   8
  -2   5   1 355.259 11.4215  11
  -3   5  -1 351.286 20.4608   3
   2   3  -1 347.530 16.2854   2
   3  -5  -1 351.053 14.5151   4
   3  -5  -1 367.748 15.9682   9
  -2  -3  -1 349.472 14.5385   7
  -2   5   1 324.828 17.5605  10
   5  -2  -1 364.954 15.9573  11
  -5   3   1 365.350 14.0091   7
   2   3  -1 356.564 14.7239   8
   5  -3   1 325.985 18.3821   2
  -5   3   1 350.127 15.8779  10
  -3  -2   1 320.960 16.2790   4
   2  -5   1 364.062 15.1683   4
  -5   3   1 365.662 17.9788  11
  -3   5  -1 337.780 18.1668  10
  -2  -3  -1 327.199 16.0534   4
  -3  -2   1 340.958 16.7125  12
  -5   2  -1 355.000 20.3414   3
  -5   2  -1 345.453 13.6160  12
   5  -3   1 334.742 15.9768  11
  -5   3   1 339.627 21.8602   3
   1  -5  -1 250.847 14.4946   9
  -1  -4   1 243.960 14.9873   9
   5  -1   1 255.284 19.9878   8
  -1  -4   1 250.708 15.2307  12
   1   4   1 256.312 14.0576   8
   1   4   1 265.965 15.5267   2
   1  -5  -1 255.603 13.4806  12
   4   1  -1 262.464 11.4464  11
   1  -5  -1 249.106 13.8711   4
   5  -1   1 241.137 16.9772   2
  -1   5  -1 244.204 17.2621   3
  -4  -1  -1 236.468 14.7687  12
   4  -5   1 253.425 17.0444   2
  -4   5   1 251.078 13.7003  11
  -4   5   1 269.430 17.1121  10
   5  -4  -1 284.278 15.4175  11
  -1  -4   1 242.436 12.6718   7
  -1  -4   1 246.319 13.7977   5
   4   1  -1 239.976 15.7876   2
   5  -4  -1 246.452 13.1596   9
  -4  -1  -1 242.306 12.9550   7
  -5   1   1 245.291 13.5395  12
  -1   5  -1 248.350 15.9104  10
  -5   4  -1 254.307 15.6210  11
   4  -5   1 270.317 12.5789   4
   5  -4  -1 257.734 17.2743   2
   5  -1   1 237.551 13.1245  11
  -5   1   1 269.291 16.7087   3
  -5   4  -1 279.262 12.0914   7
  -5   4  -1 239.775 19.2207   3
  -5   1   1 242.206 16.2260  11
  -5   4  -1 234.248 15.5823  10
  -4   5   1 231.819 18.8732   3
  -5   1   1 235.176 13.1787   7
  -1  -4   1 259.273 15.5482   4
  -1   5  -1 264.302 14.7087   8
   4  -5   1 240.108 13.7108   9
  -4  -1   1 243.764 14.8730  12
   5  -1  -1 255.268 17.3835   2
   5  -1  -1 256.576 13.9588   8
  -5   1  -1 244.370 13.2921   7
  -4   5  -1 228.050 16.5298  10
  -5   4   1 258.345 11.4718   7
  -1  -4  -1 241.230 12.4721   7
   5  -4   1 237.691 17.0659   2
   4   1   1 260.884 16.9268   2
   1   4  -1 252.715 13.6302   8
  -1   5   1 277.245 17.7533   3
  -1   5   1 264.791 15.0975   8
  -4   5  -1 250.752 18.6849   3
   5  -4   1 249.181 12.9143   9
   4  -5  -1 243.784 13.4792   9
   1  -5   1 249.180 14.1225   4
  -5   1  -1 240.712 16.4261  11
   1   4  -1 267.184 14.2178   2
   4   1   1 253.393 12.8764   8
   1   4  -1 259.423 12.6449   6
  -5   4   1 219.708 19.1260   3
   5  -4   1 243.154 15.1499  11
  -1  -4  -1 252.476 15.3070   9
  -4   5  -1 248.929 13.6082  11
   4   1   1 255.904 11.5342  11
   1  -5   1 234.299 14.0334   9
  -1  -4  -1 252.968 17.4065  12
  -1   5   1 237.058 15.3652  10
  -5   4   1 266.208 15.8216  10
   1  -5   1 251.887 13.3003  12
  -1  -4  -1 239.374 14.2995   4
  -4  -1   1 243.174 13.7552   7
  -5   1  -1 242.336 14.3520  12
   4  -5  -1 264.120 18.4279   2
   5  -1  -1 245.109 13.3730  11
   4  -5  -1 223.147 12.2075   4
  -5   4   1 250.085 15.3607  11
   0  -5   1 -2.1696 7.25387  12
  -5   0   1 -8.6272 5.62299   7
   0   5   1 21.9144 7.35463   2
   0   5   1 3.92755 7.36305   8
   0  -5  -1 1.79593 7.58807  12
  -5   5  -1 15.9626 9.45165  10
   0   5  -1 8.13989 8.68508  10
   0  -5   1 7.79577 8.11660   4
  -5   5   1 3.95208 10.5450   3
   0   5   1 -6.4524 8.42866  10
  -5   5   1 -0.4238 8.85351  10
   0   5  -1 2.46643 7.45238   8
   5   0   1 3.59197 5.32870  11
   5  -5  -1 -6.8652 5.40446   9
   5  -5   1 -0.1200 5.34817   9
   5  -5   1 6.54684 8.01616  11
   0  -5   1 12.6217 7.43510   9
   0  -5   1 7.35205 6.60679   7
   5  -5  -1 7.38145 9.55229   2
   5  -5  -1 12.7751 8.15626  11
   0  -5  -1 2.89912 6.86959   9
   5  -5   1 8.79686 6.58342   4
   5   0   1 -6.1312 8.94448   2
   5  -5  -1 5.64526 6.75887   4
   0  -5  -1 2.76899 7.29382   4
   5  -5   1 -9.7096 8.84605   2
  -5   5   1 4.76319 6.27233  11
  -5   5  -1 -3.3010 10.2887   3
   5   0  -1 -5.3655 8.83781   2
   0   5  -1 0.91615 6.61845   2
  -5   0   1 2.75247 8.99597  12
  -5   0  -1 -7.8228 5.67138   7
  -5   5  -1 15.0232 6.66348  11
   5   0  -1 3.88378 5.12858  11
  -3  -3  -1 421.763 22.3971  12
  -6   3  -1 443.132 19.1905   7
  -3   6  -1 427.973 23.8913  10
  -3  -3   1 410.164 21.5777  12
  -3   6  -1 436.661 14.8863  11
  -6   3  -1 449.146 31.8787   3
  -6   3   1 503.606 29.1104   3
  -6   3   1 454.929 19.5782   7
  -6   3   1 447.236 23.6555  11
   3   3  -1 452.318 22.9058   2
   6  -3   1 448.603 21.1202  11
   3   3   1 458.319 22.0376   2
  -3   6   1 431.111 15.1666  11
   3  -6   1 393.865 20.3433   9
  -3  -3   1 461.424 22.7360   4
   6  -3  -1 431.123 20.8427  11
  -3   6   1 459.044 26.6896   3
  -3  -3  -1 442.069 19.1798   7
   6  -3   1 428.118 24.3480   2
   3  -6  -1 445.447 20.0996   4
  -3   6   1 418.372 23.8711  10
   3  -6  -1 426.203 20.9755   9
  -3  -3   1 433.351 19.1781   7
   3  -6   1 421.304 19.2837   4
  -6   3  -1 424.466 23.2817  11
  -3   6  -1 462.008 26.3265   3
  -3  -3  -1 437.049 21.4118   4
   6  -3  -1 440.885 24.7199   2
   6  -2   1 800.276 27.9600   8
   4   2  -1 765.571 31.0522   2
  -4  -2  -1 732.921 27.0608   7
  -4   6   1 726.001 25.1084  11
  -6   4  -1 763.681 36.1447   3
  -2  -4   1 764.318 26.2926   7
   6  -4  -1 721.644 28.7142  11
   2  -6  -1 729.400 28.4594   9
   6  -4  -1 719.625 32.0049   2
   4  -6   1 736.765 28.0005   9
   2   4   1 799.494 29.7623   2
  -2   6  -1 736.247 30.8665  10
  -2  -4   1 764.501 29.9028  12
  -6   4  -1 824.841 25.3673   7
  -6   4  -1 718.573 29.6588  11
  -2   6  -1 837.154 34.0668   3
   6  -2   1 774.271 27.9178  11
  -4   6   1 792.922 31.7844  10
   2  -6  -1 814.543 28.2049   4
  -6   2   1 798.469 27.8045   7
   6  -4  -1 715.676 26.0614   9
  -4  -2  -1 701.992 29.6691  12
  -2  -4   1 732.099 29.1206   4
  -4   6   1 726.982 34.5455   3
   6  -2   1 778.568 33.0967   2
  -2  -4  -1 794.150 25.9701   7
   4  -6  -1 760.056 25.9751   4
   6  -4   1 775.196 28.8555  11
  -4  -2   1 724.917 26.1070   7
   6  -4   1 720.384 32.2940   2
   6  -2  -1 656.570 31.3174   2
  -2   6   1 787.612 33.0524   3
  -4  -2   1 703.752 28.8786  12
  -2  -4  -1 658.930 27.9043   4
   4  -6  -1 682.878 27.2720   9
  -6   4   1 778.609 35.9353   3
   4   2   1 723.698 30.4370   2
  -2  -4  -1 722.099 29.4872  12
  -4   6  -1 687.627 24.3522  11
   2   4  -1 775.168 26.3920   6
   2  -6   1 737.678 26.9220   4
   2  -6   1 704.970 27.8054   9
   6  -2  -1 750.964 27.6246  11
  -2   6   1 789.654 31.9494  10
  -6   2  -1 739.659 26.9348   7
  -4   6  -1 727.419 30.7689  10
  -4   6  -1 654.732 34.0909   3
  -2   6   1 673.094 28.2128   8
  -6   4   1 694.064 29.2915  11
   2   4  -1 756.815 28.6533   2
   6  -4   1 740.631 26.1529   9
  -5   6   1 198.770 20.6857  10
  -5  -1  -1 158.158 16.6031  12
  -1   6  -1 187.011 17.7462   8
   5  -6   1 188.172 15.0014   9
  -5   6   1 132.943 19.8703   3
  -6   5  -1 190.020 21.1484  10
  -1  -5   1 168.551 17.6633  12
   6  -5  -1 146.458 17.6765  11
  -6   5  -1 151.592 16.3904  11
   6  -1   1 167.271 19.9480   2
   6  -1   1 176.780 14.1600  11
  -1  -5   1 151.909 16.8522   4
   6  -5  -1 164.961 18.4355   2
  -6   1   1 144.553 16.1895   7
  -5  -1  -1 180.164 15.0679   7
   1  -6  -1 140.423 16.7413   4
  -1   6  -1 169.880 20.5338  10
   1  -6  -1 180.016 17.3470   9
  -6   1   1 186.915 15.9237  12
   1   5   1 183.899 17.1880   2
   5   1  -1 175.963 12.2640  11
  -6   5  -1 184.222 21.3675   3
   5   1  -1 221.346 21.5051   2
   6  -5  -1 172.342 14.6639   9
  -1  -5   1 157.878 17.2141   9
  -5   6   1 169.962 14.5931  11
  -6   5   1 147.257 16.1020  11
   1   5  -1 137.598 14.6061   2
   6  -1  -1 142.009 17.3881   2
  -5   6  -1 165.842 20.7081  10
   5   1   1 141.730 11.8120  11
   6  -5   1 117.819 13.9508  11
  -6   1  -1 136.620 15.3796  12
   6  -5   1 158.268 18.0617   2
  -6   5   1 137.147 19.9634   3
  -1  -5  -1 186.343 17.5264  12
  -5  -1   1 130.055 14.3879   7
  -1   6   1 147.743 16.2900   8
  -5   6  -1 134.323 19.8660   3
   5  -6  -1 153.701 14.3289   9
   1  -6   1 151.219 16.8707   9
   1  -6   1 166.074 16.8219   4
   5   1   1 147.052 17.3060   2
  -5  -1   1 138.582 15.3053  12
  -1   6   1 138.172 16.4633  10
  -6   1  -1 163.399 15.3241   7
   6  -1  -1 139.387 13.5805  11
  -1  -5  -1 164.819 16.4938   4
  -5   6  -1 121.179 13.6121  11
  -6   5   1 144.897 17.1975  10
  -1  -5  -1 130.918 14.7464   9
   6  -5   1 154.878 14.5205   9
   0  -1   2 137.068 4.45047  12
   0  -1  -2 144.266 4.50179  12
   1   0   2 140.415 4.57692  12
  -1   0  -2 144.916 3.79285  10
   1  -1   2 139.094 4.52590  11
   0   1   2 137.221 4.87451   9
   0   1  -2 127.378 4.22778   9
   0  -1  -2 140.614 4.27336   3
   1   0  -2 139.292 4.35672  11
   0   1   2 146.920 4.77969  10
   1   0   2 135.059 4.38844  11
   1  -1   2 144.377 4.40117   5
   0  -1   2 141.066 4.24056   7
   1   0   2 139.104 4.68637  11
   1  -1   2 143.034 4.92143   6
   1   0  -2 136.770 4.65717  12
   1   0   2 147.679 3.71820  10
   1   0  -2 143.581 4.85450   3
   0  -1  -2 143.991 3.77413  11
   1  -1  -2 143.773 5.40083   2
  -1   1  -2 136.653 5.24198   3
   0  -1  -2 137.850 4.50296   9
  -1   0  -2 141.461 4.64224   8
   1   0   2 136.736 4.58326   8
  -1   0   2 130.812 4.57222  12
   1  -1  -2 138.455 4.54611  11
   0  -1  -2 138.230 4.48260   4
   0  -1  -2 148.579 4.51321   5
  -1   0   2 131.433 4.35001   7
  -1   1  -2 142.698 4.53259  11
   0  -1   2 142.256 4.45811   5
  -1   1   2 139.629 4.55225  11
  -1   1  -2 136.021 4.83033  11
  -1   0  -2 144.084 4.91093  11
   0   1   2 148.312 3.74357  11
   1  -1   2 146.071 5.21818   2
   0   1   2 134.374 4.46362  12
   0   1   2 143.274 3.96459   7
  -1   1  -2 133.363 5.04771   2
  -1   0   2 147.306 4.79598   3
   1   0  -2 141.842 4.09188   8
   1   0   2 142.857 4.88887   2
  -1   0  -2 141.320 4.75746  11
   1   0  -2 138.431 4.65486  11
  -1   0   2 131.770 4.32504  11
   0  -1   2 141.939 4.37226   4
   0   1   2 141.200 4.44057   3
   0  -1  -2 140.639 4.74074  10
   1   0  -2 124.671 4.34395   7
  -1   1   2 138.159 5.49061   3
  -1   0  -2 128.628 4.54161   3
  -1   1  -2 139.227 4.38225   5
  -1   0   2 138.697 4.08338   8
  -1   1   2 136.771 4.53914   5
   0  -1  -2 144.333 3.97392   7
   1   0   2 144.600 4.28938   3
   0   1   2 145.277 3.73882  11
  -1   1   2 137.145 4.79003  11
   0  -1   2 133.220 4.32013   9
   0   1  -2 137.485 4.26191   4
   0   1  -2 140.404 4.24653   7
   0   1  -2 139.364 4.46417  12
  -1   1  -2 145.424 4.81472   6
  -1   0   2 132.732 4.78411   2
   0   1   2 144.008 4.68057   6
  -1   0  -2 128.353 4.43892  12
  -1   1   2 129.749 4.82755   8
   1   0  -2 140.954 4.85120   2
   0   1   2 135.378 4.41448   5
   1   1   2 253.512 7.11195  10
   2  -1   2 243.370 7.18921  12
  -1  -1   2 258.216 8.38206   4
   2  -1  -2 255.195 8.37592  11
  -1  -1  -2 268.798 7.38863  11
   1  -2   2 257.662 8.27891   5
  -2   1   2 253.957 7.46937  12
   1  -2   2 261.511 6.82514  12
   2  -1   2 232.433 8.18574  11
  -1   2   2 240.718 7.48317  11
   1   1   2 250.778 6.88054  11
   1   1   2 262.773 7.16171  11
   1  -2  -2 259.760 8.93421   2
   1   1   2 250.768 6.90025   5
  -1  -1  -2 261.851 7.05741   5
   2  -1   2 243.836 8.94668   2
  -2   1   2 247.751 9.39212   3
  -1   2   2 257.235 9.01136  10
  -1   2   2 263.560 7.43913  11
   1   1   2 255.761 6.66392   3
  -1   2   2 252.274 6.65066   7
  -1  -1   2 246.575 8.40491  12
   1  -2  -2 251.094 7.97693   9
  -1  -1   2 252.112 8.24466   9
   2  -1   2 256.735 8.53533   8
   1   1   2 235.111 8.12755   2
   1  -2  -2 259.736 7.47919  11
  -2   1   2 264.388 7.75923  10
  -1   2  -2 254.988 7.25895  11
  -2   1  -2 250.716 9.15463   3
  -2   1  -2 256.736 7.25976  12
   1   1  -2 259.683 8.18317   2
   1   1  -2 251.974 7.72504   3
  -2   1  -2 250.510 6.82765   5
  -1  -1  -2 239.369 8.28281  12
  -1   2  -2 243.337 7.46194  11
   1   1  -2 258.951 6.85154  10
  -1  -1  -2 238.760 8.07611   4
   1   1  -2 250.691 6.80505  11
  -1  -1  -2 251.300 7.73336   7
  -1   2   2 251.357 9.31968   3
  -2   1  -2 251.086 8.99104  11
   2  -1  -2 258.986 8.31746   8
  -2   1   2 258.066 7.67582   7
   1  -2  -2 252.667 7.81880   4
  -2   1   2 248.052 8.82417  11
   1   1  -2 241.110 6.78697  11
   1  -2   2 264.248 7.33796  11
   1  -2  -2 261.170 6.97943  12
   1  -2   2 251.687 8.54615   2
   1  -2  -2 257.463 8.38231   5
   1   1   2 252.468 7.97208   8
   1  -2   2 265.120 7.53953   4
   2  -1  -2 256.016 9.36181   2
  -1  -1   2 252.602 7.16259   5
  -1  -1   2 240.275 7.75531   7
  -1   2  -2 258.091 6.82526   6
  -1   2  -2 248.856 9.08896   3
   1  -2   2 247.781 7.92768   9
   1   1  -2 254.458 7.43997   8
  -1   2  -2 256.163 6.75971  12
  -2   2   2 870.444 22.7153  10
  -2   2   2 873.731 22.6943  11
   0  -2   2 860.539 20.9719   7
  -2   0  -2 891.244 22.4208  11
   2  -2  -2 828.289 21.8706  11
  -2   0  -2 904.801 22.4283   4
  -2   0   2 883.422 22.2174  11
  -2   2  -2 874.764 24.0486   3
  -2   0  -2 862.846 22.0281  12
   2   0   2 880.340 22.9144   2
   2  -2   2 890.654 21.6508   5
   2   0  -2 902.744 21.6783  11
  -2   0  -2 891.601 21.3475   3
   2  -2   2 839.396 21.8808  11
  -2   0  -2 848.875 21.6527   7
   2   0   2 860.053 21.7504   8
   2   0  -2 838.136 22.6062   2
   2   0  -2 883.713 21.2675   8
   0  -2  -2 843.414 21.5961   5
   2  -2  -2 847.889 21.2570   6
   2   0   2 844.815 21.2776   3
   0  -2   2 859.502 21.6580   9
   2  -2   2 865.080 22.9778   8
   0  -2  -2 871.034 21.9383   9
   0   2   2 904.698 19.4561  11
  -2   2  -2 859.995 22.6744  11
   2  -2   2 860.852 23.3395   2
  -2   0  -2 895.885 19.3631  10
   0   2   2 832.396 21.9009   8
  -2   0   2 836.631 21.9848  12
   0   2   2 881.813 22.2659  10
   0   2  -2 875.866 22.0932  10
  -2   2   2 861.864 24.2291   3
   0   2   2 860.277 21.6654   3
   0  -2   2 848.621 21.4995   4
   0  -2  -2 848.058 21.6600   4
   0  -2  -2 845.294 21.6376  12
   2   0   2 903.210 21.8293  11
  -2   0   2 880.014 19.5395   5
  -2   0   2 890.409 21.7575   7
   2   0  -2 847.434 23.1742  11
   2  -2  -2 848.336 21.8027   9
   0  -2   2 839.620 21.5755   5
   0   2   2 839.627 19.3021  11
  -2   0   2 848.889 21.8531   3
   0  -2  -2 916.534 19.7153  11
   0  -2   2 865.647 21.7066  12
   0   2  -2 884.889 21.7897   3
   2  -2   2 840.954 22.1313   6
   0  -2  -2 871.260 20.6258   7
   2  -3   2 1062.25 28.8508   2
   2   1  -2 1060.95 28.1462   2
  -1   3  -2 1113.00 24.8461   6
  -1  -2   2 1056.89 28.1992  12
   2  -3   2 1073.68 26.5087   4
   2   1  -2 1057.55 25.7001  11
  -1  -2   2 1054.63 27.8405   4
   1   2   2 1079.02 24.1263  11
   1   2   2 1083.49 27.7184   2
   1   2   2 1092.14 26.5625  10
  -2   3   2 1069.59 27.4129  11
  -1  -2   2 1050.97 26.8133   7
  -3   1   2 1042.17 28.6755  11
   1  -3  -2 1081.29 26.1146  12
   3  -2  -2 1059.21 28.2143  11
  -1  -2   2 1059.79 27.9344   9
   2  -3   2 1062.71 27.9615   5
  -3   1   2 1081.28 29.2818   3
  -1   3  -2 1098.12 25.1108  11
   1   2   2 1119.08 25.5747   3
  -1   3  -2 1014.04 28.8387   3
  -2   3   2 1035.68 30.4720   3
  -3   1   2 1094.09 26.9841  12
  -2  -1  -2 1007.48 28.1608   7
   3  -1   2 1062.75 27.9224   8
   1  -3  -2 1070.48 27.2783   4
   2  -3   2 1098.65 26.8467  11
  -3   2  -2 1130.15 24.8989  12
  -1   3  -2 1050.12 28.7941  10
  -1  -2   2 1089.52 26.5421   5
  -1   3  -2 1134.76 24.9902  11
   1   2   2 1065.40 27.2745   8
   2   1  -2 1106.44 26.3708  11
  -3   2  -2 1031.77 30.1996   3
  -3   2  -2 1066.21 29.2239  11
   3  -2  -2 1025.64 28.2543   8
  -3   1   2 1051.09 26.9703   7
   1   2   2 1142.52 26.5205   3
   2   1  -2 1074.30 26.3233   8
   1  -3  -2 1135.55 25.6517  11
  -2  -1  -2 1146.85 27.1053  11
  -2  -1  -2 1110.90 24.6640   5
   1   2   2 1067.71 24.3750  11
  -3   1   2 1102.09 25.6433  10
   2   1   2 1043.06 26.2324   8
  -3   2   2 1028.19 25.4531   7
  -1   3   2 1036.25 24.5139  11
   2  -3  -2 1018.01 28.3365   2
   1   2  -2 1057.22 26.5885   2
   2  -3  -2 1003.00 25.9987   4
   2   1   2 1038.55 27.6534   2
   3  -1  -2 1059.55 26.6676   8
   2   1   2 1095.27 25.6943  11
  -1  -2  -2 1095.72 24.0651  11
  -2   3  -2 1040.36 26.5763  11
   3  -2   2 1006.56 27.6421   8
  -1  -2  -2 1030.26 25.8279   7
  -1  -2  -2 1047.34 25.4664   5
  -3   1  -2 1079.20 23.3288   5
   1   2  -2 1024.34 25.8005   8
   2   1   2 1055.63 24.2792   3
  -3   1  -2 1053.02 26.5330   7
  -3   1  -2 1034.14 28.0291  11
  -3   1  -2 1050.19 25.9498  12
   3  -2   2 988.064 27.1358  11
   3  -2   2 1036.05 23.8210  12
  -3   1  -2 1036.21 28.1491   3
  -3   2   2 1012.85 28.1990  11
  -2   3  -2 968.537 31.6906   3
   1  -3   2 971.633 26.4880   9
   1  -3   2 1078.87 25.2347  12
  -1   3   2 1028.55 28.3818   3
  -2  -1   2 1071.48 24.3110   5
   2   1   2 988.815 23.5042   5
  -1  -2  -2 1008.87 27.3204   9
  -3   2   2 1034.73 29.9525   3
  -1   3   2 1046.32 28.2094  10
   2   1   2 1054.02 25.2118  11
  -1  -2  -2 1012.17 27.3851  12
   1  -3   2 1038.85 25.8967   4
   3  -2   2 1013.58 29.1150   2
   1   2  -2 1067.06 25.4565  10
   2  -3  -2 1060.79 26.2094  11
  -1   3   2 1030.27 24.4210  11
  -3   2   2 1035.43 26.6589  10
  -3   0  -2 171.772 9.01066  11
   0  -3  -2 174.612 8.44791  12
   0  -3   2 163.911 8.15935   5
   0   3  -2 180.883 7.70478   6
   0   3   2 179.481 8.60557   3
  -3   3  -2 182.445 11.0123   3
  -3   0  -2 187.644 7.96373   3
  -3   3  -2 165.331 8.90703  11
   0   3  -2 166.342 8.59421  10
  -3   3  -2 192.824 9.66329  10
  -3   0  -2 182.006 8.36832   7
   3   0   2 172.882 9.44786   2
  -3   0   2 192.112 8.99906  11
  -3   0   2 170.562 8.53293  12
   3   0  -2 187.128 9.70808   2
  -3   3   2 170.773 8.91006  11
   3  -3  -2 168.752 9.96930   2
   3  -3   2 174.788 8.35095  11
  -3   3   2 192.046 11.6167   3
   0  -3   2 185.388 8.42607  12
   0  -3  -2 180.672 8.42754   9
   0   3  -2 167.310 8.49985   3
   0  -3  -2 178.345 8.38064   4
   3   0   2 175.851 7.85657  11
   0  -3   2 171.008 8.44168   4
  -3   0  -2 173.003 8.63401  12
   0   3   2 177.864 8.78287  10
   3  -3   2 183.946 8.40008   9
  -3   0   2 189.634 8.21742   7
   3  -3  -2 176.099 8.51742  11
   3   0   2 182.413 8.40150   8
   3   0  -2 184.117 7.78610   8
   3  -3   2 185.155 10.4411   2
   3   0  -2 183.714 7.98665  11
  -3   0   2 190.990 5.18979   5
   0  -3  -2 186.971 8.76151   5
  -3   0   2 181.525 8.31448   3
   0  -3   2 175.436 8.33301   9
   0  -3  -2 178.041 7.10620   7
   0  -3   2 177.205 7.33457   7
   3  -3  -2 174.490 8.13350   9
  -3   3   2 186.150 9.59118  10
   0   3   2 163.411 9.38491   8
   0   3  -2 195.656 8.64251   8
  -2   4  -2 621.943 22.5155   3
   4  -2   2 623.551 20.1139   8
   2   2   2 606.480 15.6561  11
  -4   2  -2 616.038 23.0976   3
  -4   2   2 613.872 18.3446  10
  -4   2  -2 646.266 17.2102  12
   2  -4   2 634.765 15.7531  12
   4  -2  -2 609.568 22.2660   2
   4  -2  -2 619.185 21.3221  11
   2  -4  -2 657.142 18.1006  11
   2  -4  -2 624.271 16.0213  12
   2  -4   2 638.136 18.6010   4
  -4   2  -2 618.167 18.7714   7
   4  -2   2 608.853 22.0057   2
  -4   2   2 621.368 22.8222   3
   2  -4   2 663.228 17.9127  11
  -4   2   2 620.061 18.4143   7
  -2  -2   2 625.950 17.1007   5
  -4   2  -2 610.874 21.2797  11
   4  -2   2 617.114 20.0752  11
   2   2   2 632.003 15.9353  10
  -2  -2  -2 623.311 20.4127  12
  -4   2  -2 634.916 18.5780  10
  -2  -2   2 616.996 18.9466   7
  -2   4   2 651.012 21.9949  10
   4  -2  -2 622.127 19.8150   8
   2   2  -2 615.737 20.0917   2
   2   2  -2 651.953 15.4443  10
   2   2  -2 656.271 15.3084  11
  -2   4  -2 622.300 17.5670  11
  -4   2   2 662.797 21.6621  11
   2   2  -2 616.835 14.9661  11
  -2   4   2 630.567 17.7893  11
   2  -4  -2 605.981 18.7220   4
   2  -4  -2 625.151 19.7852   9
  -2   4   2 623.885 22.7408   3
  -4   2   2 644.682 17.5852  12
  -2  -2  -2 625.136 16.8365   5
  -2  -2  -2 594.638 18.5603   7
  -2  -2   2 610.499 20.2565  12
   2  -4   2 625.650 19.7703   9
  -2   4  -2 584.954 20.9083  10
  -2  -2   2 624.154 20.0918   4
   2   2   2 608.928 20.1548   2
   2  -4   2 608.174 19.8016   5
  -2  -2  -2 607.287 19.8882   4
   2   2  -2 611.748 18.1954   8
   1   3   2 456.327 16.1692   8
   3  -4   2 436.486 15.9605   9
  -4   3  -2 440.244 19.6908   3
  -3  -1  -2 466.367 17.1472   4
   1  -4  -2 463.603 16.2006   9
  -3  -1  -2 475.662 17.2267  12
  -1   4  -2 442.626 17.4810  10
  -1  -3   2 460.517 16.6630  12
   4  -1   2 451.061 16.3004  11
   1  -4  -2 471.799 16.6450   5
   3  -4   2 488.974 15.9277  11
  -1   4  -2 451.277 18.1690   3
  -1  -3   2 457.658 15.2300   5
   1  -4  -2 455.602 14.7801  12
   3   1  -2 461.400 17.3359   2
   1   3   2 467.661 16.2659   2
  -3   4   2 479.870 16.2630  11
  -3   4   2 424.922 17.9654  10
   1   3   2 446.411 15.1433  10
  -4   1   2 466.711 15.8352  12
  -1  -3   2 430.300 15.9961   4
  -4   1   2 448.110 17.8777   3
  -4   3  -2 471.203 16.9553  10
  -4   3  -2 469.572 17.8754  11
   4  -3  -2 457.681 18.8720   2
  -1  -3   2 462.336 15.1433   7
  -3  -1  -2 446.280 15.6724   7
   1  -4  -2 447.835 15.8019   4
   3  -4   2 466.131 18.1256   2
   3  -4   2 485.773 15.0798   4
   3   1  -2 465.318 14.6939   8
   4  -1   2 462.484 17.3474   8
  -1  -3   2 476.043 16.8019   9
  -3   4   2 471.379 20.1934   3
   1   3   2 457.626 14.2689   3
  -3  -1  -2 453.987 15.7688  11
   3   1  -2 440.331 13.9276  11
  -4   1   2 463.118 17.6972  11
   4  -1   2 455.183 18.4345   2
  -4   1   2 462.542 15.6949   7
   4  -3  -2 448.007 16.6925  11
   4  -3   2 498.996 17.7937  11
   4  -1  -2 503.634 17.2563  11
   4  -1  -2 496.439 16.9099   8
  -4   1  -2 504.977 18.7693  11
  -3   4  -2 515.113 17.2012  11
   4  -1  -2 522.510 19.7091   2
   1   3  -2 506.552 15.7054   3
  -3   4  -2 514.629 21.2468   3
   3  -4  -2 521.951 19.6129   2
  -4   1  -2 479.275 18.6519   3
  -1  -3  -2 490.180 17.4670  12
   3  -4  -2 484.414 16.9732   9
  -4   3   2 501.226 18.2238  10
   1   3  -2 493.163 15.9392  10
   1  -4   2 510.453 17.3932   5
  -4   3   2 493.382 20.9839   3
   3   1   2 510.816 18.5471   2
  -1  -3  -2 504.662 15.8478   7
   3  -4  -2 503.351 16.1056   4
   3   1   2 514.220 15.4519  11
   4  -3   2 500.954 19.4532   2
  -1   4   2 499.879 19.0034   3
  -4   1  -2 524.658 17.0862   7
   3  -4  -2 484.681 16.5315  11
   1  -4   2 482.003 16.9626   9
  -1  -3  -2 516.062 17.5702   4
  -1  -3  -2 515.746 16.2324   5
   1  -4   2 518.483 15.6731  12
  -3   4  -2 518.448 19.1564  10
  -1   4   2 494.404 18.6591  10
   1  -4   2 497.631 16.4955   4
   1   3  -2 510.922 16.9931   2
  -4   3   2 508.310 18.8817  11
   1   3  -2 516.229 16.4914   8
  -3  -1   2 502.072 16.8260   7
  -4   1  -2 508.140 16.4423  12
  -3  -1   2 504.173 12.9016   5
  -1  -3  -2 485.208 17.5662   9
  -3  -1   2 542.029 18.4748  12
  -4   3   2 464.572 16.4205   7
   0  -4  -2 21.0092 5.11903  12
  -4   0   2 22.0490 5.42591  12
   0  -4   2 18.0762 5.39367   4
  -4   0  -2 22.8550 5.40094  12
   0   4  -2 14.3206 4.86218   8
   0   4  -2 13.3547 5.48059  10
   4   0   2 31.6615 7.44093   2
   0   4   2 24.5025 5.57934   8
   4  -4   2 13.4386 6.46228   2
   4  -4  -2 22.3593 4.95170   9
  -4   4   2 24.4092 5.48898  11
  -4   0  -2 20.7586 6.10753  11
   0   4   2 23.7407 8.59158   3
   0  -4   2 20.8594 5.17993   9
   4  -4  -2 27.6584 7.66440   2
  -4   4   2 14.7611 6.66362  10
  -4   4   2 14.1661 6.33202   3
   0   4  -2 22.1371 4.29837   6
  -4   4  -2 23.3477 7.00963  10
  -4   4  -2 33.2650 8.76465   3
   0  -4   2 18.9271 5.22514  12
   0  -4  -2 22.3042 4.29134   7
   0  -4  -2 21.8284 5.10302   9
   4   0  -2 30.5077 4.72832  11
   4  -4   2 22.4000 5.36043  11
  -4   0   2 13.4019 4.53648   7
   4   0   2 21.4031 4.55798  11
  -4   0   2 21.5300 5.88037  11
   4  -4   2 15.0905 4.60406   9
   4   0  -2 16.1814 4.91532   8
  -4   4  -2 23.6664 5.46208  11
   0   4   2 19.4132 3.86352   6
  -4   0   2 20.6314 5.51942   3
   0  -4   2 18.4106 5.28150   5
  -4   0  -2 22.5661 4.58234   7
   0  -4  -2 21.0694 5.92743   4
   0   4  -2 17.3349 6.06786   3
   0   4   2 26.6905 6.50627  10
   4   0  -2 16.3439 6.47944   2
   0  -4   2 24.8517 4.59627   7
   4   0   2 16.9767 5.17274   8
   4  -4  -2 18.6652 5.22842  11
   5  -3  -2 435.418 18.8186  11
  -2  -3   2 453.535 19.2128  12
  -5   3  -2 469.594 20.4902  11
  -3   5   2 457.599 21.2157  10
   3  -5   2 492.210 17.9624   4
  -3  -2  -2 473.578 19.3797   4
   5  -3  -2 461.287 21.5939   2
  -5   3  -2 457.322 18.5688  10
  -2   5  -2 459.134 21.6679   3
   3   2  -2 452.835 19.3241   2
  -5   2   2 469.370 16.5558  12
  -2  -3   2 456.038 16.2587   5
   2   3   2 453.735 18.9906   2
  -2  -3   2 484.045 19.3101   4
  -2  -3   2 451.372 17.0471   7
   5  -2   2 468.114 21.4878   2
  -5   3  -2 425.695 23.2793   3
   2   3   2 465.445 17.5399   8
   5  -2   2 448.385 18.6282   8
  -5   2   2 485.598 17.5391   7
  -3   5   2 441.762 23.0012   3
  -5   2   2 463.230 20.3987  11
   3  -5   2 438.398 18.1893   9
  -5   3  -2 473.340 16.8004   7
  -2   5  -2 448.395 24.0676  10
  -3  -2  -2 466.825 19.4365  12
  -5   2   2 468.741 22.8971   3
   3   2  -2 467.302 12.9112  11
  -3   5   2 438.807 16.2253  11
   2  -5  -2 456.675 17.6512   4
   2  -5  -2 483.089 18.9767   9
  -3  -2  -2 442.827 17.1840   7
  -2   5  -2 450.545 13.1377  11
   5  -2   2 446.485 18.4916  11
   3   2  -2 469.464 16.3851   8
   2  -5   2 440.048 16.8154   4
   3   2   2 432.434 18.9474   2
  -5   2  -2 453.337 15.4924  12
  -3   5  -2 417.146 22.7780   3
  -2   5   2 469.146 21.4214   3
  -3   5  -2 432.800 20.1911  10
   3  -5  -2 419.459 16.4105   4
  -2  -3  -2 439.532 16.4182   7
  -3  -2   2 423.967 18.3767  12
  -5   2  -2 431.619 21.6347   3
   5  -3   2 454.546 18.3267  11
  -2  -3  -2 440.406 18.3656   4
  -5   3   2 451.184 19.7626  11
  -2   5   2 432.959 13.2768  11
  -5   2  -2 442.868 20.2804  11
  -5   2  -2 436.647 16.8969   7
   5  -2  -2 389.244 20.5580   2
   5  -2  -2 421.867 17.4232   8
   2   3  -2 426.526 17.8339   2
  -3  -2   2 435.746 17.2187   7
   2  -5   2 412.035 17.6891   9
   3  -5  -2 450.274 17.8902   9
   5  -2  -2 408.980 17.5716  11
  -5   3   2 427.087 18.0149  10
  -5   3   2 456.554 23.6490   3
  -5   3   2 423.808 15.6287   7
   3   2   2 438.932 12.9671  11
  -3  -2   2 425.597 18.5982   4
   5  -3   2 413.241 18.3075   8
   3   2   2 414.440 16.2267   8
   2   3  -2 437.674 16.2451   8
  -2  -3  -2 418.932 18.5651  12
  -2   5   2 453.085 20.3029  10
  -3   5  -2 422.531 15.4170  11
   5  -3   2 405.418 20.5064   2
  -5   4  -2 102.179 11.7143  11
   1   4   2 122.393 11.2067   8
   5  -4  -2 115.001 14.0010   2
  -4   5   2 101.496 13.2974   3
   4  -5   2 101.807 9.26126   4
  -4   5   2 98.8305 10.1348  11
   1  -5  -2 104.732 10.9517   4
   1   4   2 115.528 14.3376  10
   1   4   2 127.752 11.0891   2
  -1  -4   2 117.420 10.5853   5
  -5   1   2 124.297 10.3629   7
   4   1  -2 142.461 13.4671   2
  -4   5   2 113.122 13.9965  10
   5  -1   2 127.905 10.4787  11
   5  -4  -2 122.253 11.9792  11
  -1   5  -2 119.628 14.1012   3
  -4  -1  -2 110.008 10.1859   7
  -1  -4   2 137.795 12.4175   9
   4   1  -2 104.458 8.33165  11
  -5   1   2 109.077 11.7983   3
  -1  -4   2 143.520 12.0859   4
  -1   5  -2 121.804 11.2492   8
  -5   1   2 123.430 12.6712  11
   1  -5  -2 129.622 11.3201   9
  -1  -4   2 111.530 9.63102   7
   4  -5   2 116.028 14.2420   2
   1  -5  -2 107.441 10.5336  12
  -5   4  -2 112.425 12.8647  10
  -4  -1  -2 97.2465 10.9675  12
   5  -1   2 118.656 13.2039   2
  -5   4  -2 127.335 9.21013   7
  -1   5  -2 126.791 12.5233  10
   5  -1   2 112.716 11.0873   8
  -5   1   2 130.412 10.8191  12
   5  -4  -2 102.317 9.58245   9
   4  -5   2 107.023 10.4514   9
  -5   4  -2 103.947 13.9772   3
  -1  -4   2 112.292 11.0604  12
  -1  -4  -2 108.663 13.7762  12
   1   4  -2 118.237 11.1218   2
   4  -5  -2 116.866 9.82487   4
  -5   4   2 133.671 17.0099   3
   1  -5   2 124.009 10.7579  12
   1  -5   2 119.760 11.0028   9
   5  -1  -2 103.450 9.73551  11
  -4   5  -2 89.3505 10.9967  10
   4   1   2 117.348 8.45652  11
   4  -5  -2 127.614 14.2618   2
   1   4  -2 100.331 11.7630   8
   5  -4   2 116.615 9.72090   9
  -5   4   2 118.509 8.61771   7
  -5   4   2 110.493 11.9629  11
  -5   1  -2 114.838 9.94905   7
   4   1   2 91.9251 10.9647   2
  -5   1  -2 124.475 10.6288  12
  -1  -4  -2 108.163 10.9974   4
   1  -5   2 112.024 11.4481   4
   5  -1  -2 104.793 10.6640   8
   5  -4   2 113.106 12.9278   2
  -1   5   2 147.461 13.7901  10
  -1   5   2 106.981 11.9308   8
   5  -1  -2 117.167 13.1867   2
  -1  -4  -2 115.120 9.74695   7
  -4   5  -2 125.691 10.5784  11
  -5   4   2 113.876 13.1876  10
  -4  -1   2 112.128 11.8183  12
  -1  -4  -2 130.231 12.3485   9
  -4  -1   2 117.495 10.1715   7
   4   1   2 133.533 10.7120   8
  -1   5   2 109.864 16.9747   3
   5  -4   2 114.682 11.9848  11
   4  -5  -2 128.077 10.5719   9
  -5   1  -2 112.770 14.0429  11
   1   4  -2 95.7362 9.39217   6
   1  -5   2 118.805 11.1611   5
  -4   5  -2 100.165 13.1762   3
   5   0   2 261.927 18.9323   2
   0  -5  -2 325.928 17.1522  12
   0  -5   2 283.595 14.4325   7
   0   5   2 305.392 16.4349   2
   0  -5   2 266.165 16.7454   9
   0  -5  -2 299.434 17.1999   9
  -5   0  -2 281.293 15.4260   7
  -5   0   2 275.477 20.2450  12
  -5   5   2 280.618 21.8697   3
   5  -5  -2 283.575 17.6382  11
   5   0  -2 286.724 14.4926  11
  -5   5  -2 257.900 22.1781   3
   5  -5   2 277.310 15.0789   9
   0  -5   2 271.167 16.5981  12
   5  -5   2 299.528 18.1705  11
   5  -5   2 285.570 20.4444   2
  -5   5   2 291.797 18.7488  10
   5   0  -2 298.648 19.7184   2
  -5   0   2 237.943 15.2031   7
   5  -5   2 298.776 14.5071   4
  -5   5  -2 280.498 16.4014  11
   0   5   2 312.045 18.6898  10
   0  -5  -2 319.181 17.2959   4
  -5   5   2 264.458 16.2106  11
  -5   5  -2 304.070 19.6539  10
   5  -5  -2 284.788 14.7034   4
   5  -5  -2 300.619 20.0635   2
   0  -5   2 288.813 19.4426   4
   0   5   2 300.316 17.0339   8
   5   0   2 267.398 14.5821  11
   0   5  -2 327.868 18.6968  10
   5  -5  -2 265.101 15.0758   9
   0   5  -2 303.604 16.1431   2
   0   5  -2 262.862 16.3218   8
  -6   3   2 152.120 14.4401   7
  -3   6  -2 147.793 15.9032  10
  -6   3  -2 125.306 15.9921  11
   6  -3   2 139.030 14.2626  11
   6  -3  -2 159.674 14.2457  11
   3  -6   2 120.743 13.7850   9
  -3  -3   2 122.721 14.4297  12
  -6   3  -2 129.775 12.6559   7
  -6   3   2 145.714 18.5875   3
  -6   3   2 126.625 16.4488  11
  -3  -3   2 148.100 15.0062   4
  -3   6  -2 186.940 20.9896   3
  -3  -3  -2 114.371 11.8994   7
   3  -6  -2 132.305 13.9181   9
   3   3  -2 144.410 16.7156   2
   3  -6   2 151.418 14.5647   4
  -6   3  -2 141.401 28.6631   3
  -3  -3  -2 138.979 14.3343   4
  -3  -3   2 144.514 12.4817   7
  -3   6   2 129.209 15.1341  10
  -3  -3  -2 162.162 15.8084  12
   3   3   2 160.830 15.5750   2
  -3   6  -2 139.592 8.54448  11
  -3   6   2 131.312 9.21366  11
   6  -3   2 135.817 15.8187   2
   6  -3  -2 188.377 18.1451   2
  -3   6   2 162.275 18.3264   3
  -4   6   2 26.9023 10.8951  10
   6  -4  -2 33.3553 8.90430  11
  -2   6  -2 -8.4574 12.4467   3
   6  -2   2 22.9655 7.60341  11
   2   4   2 48.0697 10.1157   2
   6  -4  -2 33.8000 7.61865   9
  -2   6  -2 33.2649 10.6269  10
  -6   4  -2 32.0256 7.34375   7
  -2  -4   2 29.1864 7.88543   7
   2  -6  -2 12.1817 8.56985   9
  -2  -4   2 23.2261 9.57761   4
   4  -6   2 22.5173 7.79402   9
  -4   6   2 29.2972 7.11337  11
  -6   4  -2 21.6165 8.96848  11
   4   2  -2 21.2621 10.6961   2
  -4  -2  -2 11.3224 8.53967  12
  -2  -4   2 31.3898 9.60750  12
   2  -6  -2 35.3462 9.59936   4
  -4   6   2 59.1216 14.0797   3
   6  -4  -2 22.6501 11.4678   2
   6  -2   2 37.4257 12.3044   2
  -6   2   2 34.4940 8.50790   7
  -6   4  -2 1.02649 13.6770   3
  -4  -2  -2 23.6249 7.60836   7
   6  -2   2 27.2419 9.96398   8
  -2   6   2 29.9617 9.78057   8
  -2  -4  -2 22.9276 9.38338  12
  -6   4   2 13.1933 9.12318  11
   4  -6  -2 25.0964 8.06531   9
  -4   6  -2 31.3601 11.1766  10
  -4   6  -2 17.3013 6.43400  11
  -2  -4  -2 32.9218 8.25956   7
   4   2   2 7.33373 9.91995   2
  -2   6   2 18.9318 12.4974   3
  -4   6  -2 15.4984 12.8021   3
  -6   2  -2 22.4088 8.17180   7
   6  -2  -2 17.1721 11.2861   2
   6  -4   2 26.6831 9.02898  11
  -4  -2   2 29.4211 9.21128  12
   2  -6   2 5.85355 8.30477   9
  -2   6   2 29.6783 11.9353  10
   2   4  -2 31.5329 9.60934   2
   2   4  -2 29.0146 8.15426   6
   6  -4   2 15.8811 11.2711   2
   2  -6   2 37.6772 9.52587   4
  -2  -4  -2 29.6945 9.80574   4
   6  -2  -2 26.4743 7.60582  11
  -6   2  -2 21.2585 12.9061  11
   6  -4   2 26.4140 7.57468   9
  -4  -2   2 13.9425 7.41006   7
  -6   4   2 5.95956 13.5970   3
  -1   6  -2 370.260 24.2723  10
  -5   6   2 335.638 18.4793  11
   6  -1   2 324.008 18.1160  11
   5  -6   2 345.465 18.9982   9
   1  -6  -2 338.931 21.0354   9
  -6   5  -2 322.351 24.2996  10
  -1  -5   2 313.655 21.5180  12
   6  -5  -2 351.360 22.0692  11
  -1  -5   2 350.339 18.3740   7
  -5   6   2 310.058 27.1613   3
  -5  -1  -2 337.844 18.9882   7
  -1  -5   2 369.662 21.8086   9
  -6   5  -2 370.652 21.0289  11
   6  -1   2 273.047 23.9167   2
   6  -5  -2 393.184 26.1324   2
   5   1  -2 364.253 15.9009  11
   6  -5  -2 338.266 18.3562   9
   1   5   2 316.280 20.6713   2
  -5   6   2 344.596 24.2907  10
  -6   5  -2 402.259 28.3922   3
   1  -6  -2 330.861 20.7905   4
  -6   1   2 348.096 19.6423  12
   5   1  -2 340.094 24.6012   2
  -1  -5   2 345.563 22.3648   4
  -5  -1  -2 353.274 21.1783  12
  -1   6  -2 352.370 20.2457   8
  -6   1   2 292.426 19.1967   7
   5   1   2 334.125 15.7739  11
  -5   6  -2 317.935 18.2556  11
   1  -6   2 408.099 21.7895   4
   5   1   2 347.173 25.5980   2
   6  -1  -2 302.371 17.8913  11
   5  -6  -2 352.715 19.2019   9
  -1  -5  -2 363.639 21.0957  12
  -1   6   2 338.101 21.7648   8
   6  -5   2 365.113 25.7514   2
  -6   5   2 317.837 20.1313  11
  -1  -5  -2 306.038 20.9123   9
   6  -5   2 347.296 18.3091   9
  -6   5   2 347.357 29.4623   3
  -6   5   2 350.594 24.8404  10
  -5  -1   2 374.263 21.6229  12
   6  -5   2 362.693 22.0841  11
  -5   6  -2 328.623 27.9307   3
  -1  -5  -2 352.218 20.8978   4
  -6   1  -2 298.599 19.6687   7
  -5  -1   2 309.538 18.6236   7
   1  -6   2 367.420 21.0326   9
  -1   6   2 389.558 23.7142  10
  -6   1  -2 353.938 22.1755  12
  -5   6  -2 358.220 24.9905  10
   6  -1  -2 366.728 24.2598   2
  -1   1  -3 74.7814 3.72687   3
   0  -1  -3 73.5550 3.15693   6
   1  -1  -3 81.1493 3.58874  10
   0   1   3 75.5906 2.51774   7
   1   0  -3 71.8567 2.82372  11
  -1   1   3 76.3956 3.41962  10
   0  -1   3 76.3672 3.06354  12
  -1   0  -3 74.7540 3.11342   4
  -1   0  -3 73.4246 2.62867  10
  -1   1  -3 76.1084 3.08390  11
   1  -1  -3 77.8403 3.87077   2
   0  -1  -3 74.8931 2.93184   3
   1   0  -3 71.4526 3.31972   2
   1   0  -3 72.9476 3.50742   3
  -1   0   3 66.9776 3.36142  11
   1   0   3 75.0149 2.70184   3
   1   0   3 70.5687 3.16049   8
  -1   0  -3 68.3956 3.02728  12
   0   1   3 77.9784 3.09022   3
   0   1   3 68.5107 3.00286   5
   1  -1  -3 73.9015 3.02215   9
  -1   0   3 63.7147 3.26784   2
   0   1   3 69.6783 3.14781   8
  -1   1   3 76.6062 3.30207  11
   1   0  -3 65.6795 3.15738  12
   0  -1  -3 80.5591 2.61707  11
   1   0   3 71.0752 2.91658  11
   1   0   3 70.3966 3.18598  11
   1   0   3 73.3218 3.12886   4
   1   0   3 72.3898 3.20262  12
   1   0   3 74.7131 2.53686  10
   0  -1   3 80.9614 2.91286   4
   0   1  -3 69.6529 2.82738   7
   1  -1   3 80.2850 3.63535   2
  -1   0   3 79.5773 3.46173   3
   0   1   3 72.3347 2.57721  11
  -1   0   3 73.1450 2.54505   8
   1   0  -3 76.9079 2.14020  10
   0   1   3 74.4850 3.39655   6
  -1   0   3 72.9461 2.10114  10
  -1   1  -3 77.7574 3.63746   6
  -1   0  -3 75.3626 3.28483  11
   0   1  -3 71.5554 2.79208   9
   1   0  -3 77.1806 3.17290  11
   0  -1  -3 78.6002 3.08675   5
  -1   0   3 77.5670 3.27637  11
   0  -1  -3 74.0726 2.47032   7
  -1   0  -3 77.6596 2.83831   3
   0  -1  -3 71.8029 2.49326  11
   0  -1   3 75.7141 2.88377   7
   0  -1   3 72.6056 2.83911   9
   0  -1  -3 64.9437 3.33483  10
   1  -1   3 74.8529 3.68187   6
  -1   1  -3 66.1544 3.20993  11
   0   1   3 78.1869 2.47979  11
   0  -1  -3 75.6744 3.08126  12
   1  -1   3 73.2863 3.02711  11
   0   1  -3 75.0935 2.82000   6
  -1   1   3 69.6082 3.01496  11
   1   0   3 72.5918 3.35976   2
   0   1  -3 72.8258 2.78828   4
   0  -1   3 76.9520 3.00466   5
  -1   1   3 74.5616 3.44533   8
  -1   0  -3 77.7205 4.19723   6
  -1   0  -3 71.5291 3.33263   8
  -1   1  -3 73.6087 2.99751   5
   0   1   3 73.1242 3.28151  10
  -1   1  -3 75.9352 3.49927   2
   0  -1  -3 73.6727 3.01180   4
   1  -1   3 70.9651 2.87850   5
   0   1   3 72.5499 3.07009  12
  -1  -1  -3 188.436 6.83025   4
   2  -1   3 182.096 7.18164   8
   1  -2   3 201.948 5.39891   6
   1   1  -3 194.145 6.76305   2
   1   1   3 201.460 5.27176   3
  -1   2  -3 208.370 6.02338   6
   1   1   3 197.480 6.78889   8
   1   1   3 206.244 6.12426  10
  -1  -1  -3 212.148 6.35293  11
  -2   1   3 188.114 8.10597   3
   2  -1   3 187.709 6.99890  11
  -1  -1  -3 190.200 7.09059  12
   1  -2   3 193.638 6.93876   5
   1   1   3 204.808 6.05780  11
   1   1  -3 200.703 6.09009   8
  -1   2   3 182.531 7.38965  10
   1  -2  -3 203.231 6.37909  11
   1  -2  -3 197.877 7.04197   5
   2  -1  -3 202.520 6.95829   8
  -2   1   3 196.718 6.30689   7
  -1  -1  -3 189.944 6.42110   7
  -1  -1  -3 204.310 7.33277   9
   1   1  -3 201.596 5.64162  10
   1   1   3 198.250 5.82404  11
  -1   2   3 187.220 7.94285   3
  -1   2   3 199.045 5.35320   7
   1  -2  -3 202.565 5.86151  12
  -1   2   3 197.607 6.24796  11
  -1   2   3 200.020 6.42019  11
   2  -1   3 185.335 6.05563  12
   2  -1  -3 204.794 8.12109   2
   1  -2   3 193.311 6.65846   9
   1  -2   3 205.156 6.12048  11
   1  -2   3 204.393 5.69116  12
   1   1  -3 197.060 5.43869  11
   1   1   3 190.988 6.95685   2
  -1  -1   3 193.665 6.59506   7
  -1  -1   3 193.188 6.95277   9
  -1  -1   3 201.022 7.30480  12
  -1   2  -3 209.717 6.12050  11
   1  -2   3 214.406 7.29393   2
   1   1  -3 208.111 7.59506   3
   1   1  -3 205.611 5.65962  11
  -1  -1  -3 208.696 5.86339   5
   1   1   3 191.987 5.73113   5
  -2   1   3 205.864 6.68060  10
  -2   1  -3 196.512 6.06725  12
   2  -1   3 193.981 7.76801   2
  -1  -1  -3 197.010 6.06734  10
  -2   1   3 207.086 6.40811  12
   1  -2  -3 191.395 6.72931   9
   2  -1  -3 190.438 7.03357  11
  -1  -1   3 190.708 5.98756   5
   1  -2  -3 198.933 6.68908   4
   1  -2   3 195.297 6.10510   4
  -1   2  -3 196.824 7.85677   3
  -2   1  -3 197.474 7.85781   3
  -1  -1   3 192.975 6.99035   4
  -1   2  -3 195.211 5.58243  12
  -2   1  -3 192.662 5.60434   5
  -1   2  -3 203.157 6.39419  11
  -2   2  -3 1395.90 35.1467   3
  -2   2   3 1339.56 33.4414  10
   0  -2  -3 1433.96 30.6965  11
  -2   2   3 1293.64 33.2702  11
  -2   0  -3 1382.99 31.9605   3
  -2   0  -3 1376.98 30.3682  10
   2  -2  -3 1427.99 30.1289  12
   2  -2   3 1368.25 33.9201   8
   0   2  -3 1395.81 32.6710   3
  -2   2  -3 1361.47 32.4266   6
   0   2   3 1380.46 32.9902   8
   2   0  -3 1340.39 31.6931   8
  -2   0   3 1393.51 30.4808   5
  -2   0   3 1376.77 32.4546   7
  -2   2  -3 1341.31 33.5052  11
   2   0  -3 1285.41 33.3845   2
   2   0  -3 1313.82 33.0612  11
   2   0  -3 1350.33 32.2633  11
   2  -2   3 1365.39 32.2814   5
  -2   0  -3 1342.01 32.7567  12
   2  -2   3 1371.50 32.7747  11
   2  -2  -3 1355.29 32.6254   9
   0  -2   3 1370.94 32.3130   4
   0  -2  -3 1382.46 32.6577   4
   0  -2  -3 1371.11 32.5510  12
   0  -2   3 1323.92 32.3654   5
   2  -2   3 1407.77 34.2317   2
   0  -2  -3 1357.28 32.7622   9
   0  -2  -3 1388.11 32.5366   5
   2   0   3 1390.78 32.5400  11
   0  -2  -3 1372.40 31.3040   7
   0   2   3 1393.49 32.6376   3
   2   0   3 1375.13 32.7000   8
  -2   0  -3 1326.92 32.9038   4
  -2   0  -3 1419.18 33.3966  11
   2   0   3 1376.69 33.6956   2
   0  -2   3 1369.45 31.9067   7
   0  -2   3 1317.55 32.3377   9
   0  -2   3 1412.39 32.6557  12
  -2   2   3 1327.66 35.1597   3
   2   0   3 1361.56 31.8380   3
   2  -2  -3 1372.77 34.6115   2
  -2   0   3 1376.20 33.0248  12
   0   2   3 1343.86 30.2782  11
  -2   0  -3 1370.37 32.5402   7
  -2   0   3 1438.14 33.0755  11
   2  -2  -3 1372.16 32.0585   6
   2  -2  -3 1395.76 32.9528  11
   0   2   3 1368.95 33.0770  10
   0   2   3 1410.57 30.4317  11
  -2   0   3 1421.68 33.0780   3
   3  -2  -3 220.408 15.8284   2
  -3   2  -3 181.641 10.3336   3
  -3   1   3 204.809 7.04210  10
   1  -3  -3 215.027 7.01040  11
   1   2   3 204.452 7.79777  10
   2  -3   3 189.688 8.29825   5
   2  -3   3 208.000 9.43154   2
   2  -3   3 201.262 7.37579   4
  -1  -2   3 182.278 8.37716   4
  -3   2  -3 211.059 6.26547  12
  -3   2  -3 191.620 9.39682  11
   2   1  -3 198.355 7.26497   8
   3  -1   3 196.068 8.86131   8
  -2  -1  -3 178.523 8.25705   7
   3  -2  -3 195.879 8.59110  11
  -1   3  -3 222.953 6.28720  11
   2  -3   3 203.859 7.77160  11
   1  -3  -3 206.818 7.42280  12
  -1  -2   3 210.306 8.69103   9
  -3   1   3 197.943 9.56604   3
  -1   3  -3 186.480 9.16706  10
   1   2   3 204.968 8.21562   8
  -3   1   3 204.780 7.98108  12
  -1  -2   3 195.725 7.81485   7
  -1   3  -3 207.963 6.32796  11
   2   1  -3 209.464 8.76510   2
  -3   1   3 195.953 9.06195  11
  -1  -2   3 202.185 7.59117   5
   1  -3  -3 190.653 8.01283   4
   1   2   3 199.968 8.47599   2
   1   2   3 208.779 6.76980   3
  -1  -2   3 198.587 8.85693  12
  -2   3   3 193.873 8.09691  11
   1   2   3 211.062 5.82051  11
   2   1  -3 197.040 7.45187  11
  -1   3  -3 210.626 6.59208   6
   1   2   3 201.077 6.75184   3
  -1   3  -3 208.932 9.67960   3
  -2   3   3 207.362 10.8755   3
  -2  -1  -3 204.612 8.13218  11
  -3   1   3 196.958 7.87028   7
   1   2   3 201.576 5.71742  11
   2   1  -3 195.367 6.70176  11
  -1   3   3 142.804 5.33138  11
  -3   1  -3 155.342 6.59573  12
   2   1   3 155.281 5.20808   3
  -3   1  -3 148.790 8.34550   3
  -3   2   3 139.773 9.41126   3
  -3   1  -3 141.160 7.68294  11
   1   2  -3 144.337 6.86875   2
   2   1   3 150.484 7.75177   2
   1  -3   3 152.136 5.94855  12
  -1  -2  -3 140.468 6.26332   7
  -1  -2  -3 134.076 7.43479  12
  -1   3   3 155.805 5.56760  11
  -1  -2  -3 167.840 6.51689  11
  -2  -1   3 134.700 7.03957  11
   1  -3   3 141.187 6.85123   9
   2   1   3 137.955 6.32001  11
   2  -3  -3 135.358 8.17665   2
   2  -3  -3 146.065 6.69556   4
   2   1   3 154.759 6.97312   8
   2  -3  -3 149.760 6.58601  11
   1   2  -3 145.285 6.07889  10
  -3   1  -3 153.385 4.35234   5
  -3   1  -3 146.433 6.84905   7
   1  -3   3 147.823 6.42957   4
  -1  -2  -3 142.283 8.56189   9
   1   2  -3 150.724 6.29342   8
  -2   3  -3 139.422 6.80651  11
   3  -1  -3 141.506 6.93262   8
  -2  -1   3 149.385 5.36409   5
   3  -2   3 142.738 7.27016  11
   3  -2   3 138.798 8.82903   2
   3  -1  -3 119.969 10.2009  11
  -1   3   3 141.895 8.08987  10
  -1  -2  -3 145.456 6.21440   5
  -1   3   3 135.612 8.29196   3
   2   1   3 143.628 5.88803  11
  -3   2   3 160.253 7.48283  10
  -3   2   3 147.332 6.14283   7
  -3   2   3 134.434 7.80031  11
   2   1   3 136.469 4.57118   5
   3  -2   3 154.717 7.94279   8
   3  -3   3 2419.12 57.2494  11
   0   3  -3 2460.27 55.3523   6
   0   3   3 2372.06 57.6485  10
   0  -3   3 2367.65 56.7306  12
   0  -3   3 2373.09 57.0781   9
   3  -3  -3 2369.28 56.8482   9
  -3   0  -3 2405.48 61.9899  11
   0  -3   3 2407.60 56.8348   4
  -3   3  -3 2401.11 61.1572   3
   3   0   3 2468.21 57.1654   8
   0  -3  -3 2410.68 57.2106   4
  -3   3   3 2439.63 58.7246  10
  -3   0  -3 2479.89 57.1371   7
  -3   3   3 2433.04 58.3905  11
   3   0   3 2478.38 56.8577  11
   3   0  -3 2420.97 56.5038  11
   0  -3   3 2387.85 55.6444   7
   0  -3  -3 2397.64 56.8558   5
   0  -3  -3 2434.47 55.0801   7
   0  -3  -3 2351.34 57.4188   9
   0  -3  -3 2392.56 57.1674  12
   0   3   3 2429.61 57.1450   3
   0   3   3 2403.47 57.3064   8
  -3   3   3 2496.93 61.9403   3
   3  -3   3 2438.16 59.5840   2
  -3   0  -3 2453.21 55.7472   3
  -3   0   3 2557.01 57.7626  11
   3  -3   3 2438.33 57.2152   9
  -3   0   3 2377.55 57.4326  12
   3  -3  -3 2435.83 57.5355  11
  -3   0   3 2506.50 53.0093   5
  -3   3  -3 2410.49 58.4133  11
   3   0  -3 2360.66 55.6391   8
   0   3  -3 2451.80 57.3485   3
   3   0   3 2423.75 58.9610   2
   3   0  -3 2392.07 58.7915   2
  -3   0   3 2453.58 56.8239   3
   0   3  -3 2409.06 57.3568  10
  -3   0  -3 2424.74 57.4191  12
   0  -3   3 2379.84 56.9076   5
  -3   0   3 2433.91 56.9371   7
   3  -3  -3 2375.93 59.7556   2
  -4   2  -3 83.1154 8.48364  11
   2  -4  -3 85.1987 6.67138   4
   2   2  -3 76.5157 6.14216   8
  -2   4   3 71.8333 9.21533   3
  -4   2  -3 98.9462 5.80399  12
   2  -4   3 89.1483 7.28257   5
   2  -4  -3 97.7136 7.42362   9
   2  -4  -3 84.9098 6.47231  11
  -4   2  -3 94.7752 6.63764   7
  -4   2  -3 90.4728 6.78344  10
   2   2   3 82.2559 4.99485  10
   2   2   3 90.6727 7.14872   8
   2  -4  -3 92.6963 5.07958  12
  -2  -2  -3 89.0033 6.52350   7
  -2   4  -3 80.6732 9.33755   3
  -4   2  -3 95.8679 10.7822   3
  -4   2   3 89.6562 8.51057  11
   2   2  -3 76.1021 7.59040   2
   4  -2  -3 79.4942 8.31174   2
   4  -2  -3 87.9703 7.70818   8
  -2  -2   3 83.5716 5.62715   5
   2  -4   3 88.5450 4.70392  12
   4  -2   3 80.7037 6.92006  11
  -2   4  -3 78.5038 8.10863  10
  -2   4  -3 76.2362 5.41782  11
   2   2  -3 95.6778 4.01714  11
   2   2  -3 88.9906 4.46182  10
  -2   4   3 100.577 8.65255  10
  -2  -2  -3 78.6489 7.15223  12
  -2  -2  -3 81.7431 7.33614   4
  -4   2   3 94.3920 6.38207   7
  -2   4   3 86.9868 5.78268  11
   2   2   3 84.9905 7.23785   2
   2  -4   3 90.7403 6.46116  11
   4  -2  -3 86.3975 7.06266  11
   4  -2   3 70.0912 7.81622   8
  -2  -2   3 90.0408 7.63635   4
   2   2   3 91.6878 4.55961  11
  -2  -2   3 88.4491 7.52259  12
   4  -2   3 80.0419 8.55665   2
  -4   2   3 108.567 10.7287   3
   2  -4   3 106.023 7.49348   9
  -4   2   3 85.7210 7.12728  10
   2  -4   3 76.2356 6.62260   4
  -2  -2   3 91.0821 6.53383   7
   3   1  -3 1342.28 32.8184  11
   1  -4  -3 1321.22 35.3593   9
   3  -4   3 1314.21 35.3197   9
  -1  -3   3 1295.36 35.5634  12
   4  -3  -3 1318.69 38.2989   2
   3   1  -3 1309.85 32.9565   8
  -4   3  -3 1340.20 39.8120   3
  -4   3  -3 1332.33 35.7617  10
  -3  -1  -3 1333.60 34.9283   7
  -3  -1  -3 1327.35 34.5678  11
  -3   4   3 1276.87 35.0026  11
   4  -1   3 1340.86 38.0463   2
   3   1  -3 1337.85 36.4648   2
  -1  -3   3 1333.52 35.8085   9
  -3  -1  -3 1388.67 36.4437   4
  -3   4   3 1345.23 40.0282   3
  -1  -3   3 1325.98 33.9612   7
  -1   4  -3 1317.80 36.6035  10
  -3   4   3 1269.15 37.3928  10
  -3  -1  -3 1352.45 36.2976  12
  -1   4  -3 1386.81 32.6769   6
  -1  -3   3 1345.42 35.5363   4
   1   3   3 1354.34 32.5087   3
   3  -4   3 1320.70 34.4421  11
  -4   1   3 1309.30 36.7706   3
   1   3   3 1314.80 35.2924   2
   1  -4  -3 1315.97 35.0134   4
  -4   1   3 1342.97 34.6355   7
   1   3   3 1343.80 35.2118   8
   4  -3  -3 1360.15 36.2432  11
  -4   1   3 1336.62 34.6222  12
  -1  -3   3 1307.07 33.8305   5
  -4   3  -3 1401.62 37.5701  11
   1  -4  -3 1344.20 33.5456  12
  -1   4  -3 1314.37 37.1142   3
   1   3   3 1324.41 34.1699  10
  -4   1   3 1254.92 36.3042  11
   3  -4   3 1337.89 33.3950   4
   4  -1   3 1344.58 35.5431  11
   4  -1   3 1360.78 35.4984   8
   3  -4   3 1320.15 37.2228   2
  -3   4  -3 1291.54 36.0564  10
   1   3  -3 1216.71 34.7431   2
   3   1   3 1243.81 31.7216  11
   1  -4   3 1238.16 32.8455   4
  -3  -1   3 1287.13 29.2136   5
  -1  -3  -3 1280.68 34.4617  12
   1  -4   3 1270.48 31.8759  12
  -4   3   3 1255.88 34.5908  10
  -1   4   3 1260.14 35.6076  10
  -3   4  -3 1227.10 37.9859   3
   4  -3   3 1236.60 36.4746   2
  -1  -3  -3 1262.93 32.4316   5
  -1  -3  -3 1252.50 32.0161   7
  -1  -3  -3 1272.55 34.8209   9
   4  -1  -3 1249.19 33.7814  11
   1  -4   3 1264.53 33.9840   5
  -4   1  -3 1226.27 35.3664  11
  -1   4   3 1258.00 35.8628   3
  -4   1  -3 1261.96 34.9233   3
  -3   4  -3 1315.00 33.9151  11
   1   3  -3 1274.35 32.3146  10
   3   1   3 1292.79 35.4436   2
   3   1   3 1270.44 33.1661   8
  -4   1  -3 1312.75 31.1431  10
  -3  -1   3 1233.17 34.6811  12
   3  -4  -3 1232.72 36.2252   2
  -3  -1   3 1283.06 33.4035   7
   3  -4  -3 1270.84 32.8133   4
  -1  -3  -3 1264.21 34.2414   4
   3  -4  -3 1292.80 33.3566  11
   4  -3   3 1273.56 34.4166  11
   4  -3   3 1237.67 35.1463   8
  -4   3   3 1270.71 38.6405   3
  -4   3   3 1254.22 35.5138  11
  -4   1  -3 1269.54 32.9254  12
   1   3  -3 1220.84 32.6454   8
   1   3  -3 1309.01 32.4171   3
   3  -4  -3 1254.72 33.9104   9
  -4   1  -3 1261.40 33.4386   7
   4  -1  -3 1278.70 36.9467   2
   1  -4   3 1276.31 33.7814   9
   0  -4   3 764.544 23.2400  12
  -4   0   3 762.521 24.0470  12
  -4   4  -3 730.698 28.3324   3
  -4   0  -3 701.584 24.0174  11
  -4   0  -3 739.329 23.6155  12
   4   0  -3 741.819 22.5160  11
   0  -4  -3 729.317 23.8936   9
   0  -4   3 759.496 23.4727   4
  -4   4  -3 766.072 25.6771  10
  -4   0  -3 772.717 23.6104   7
   0  -4  -3 746.118 23.2548  12
   0   4   3 758.381 23.9180   3
  -4   4   3 731.958 25.6781  10
  -4   4  -3 768.141 24.9232  11
   0   4  -3 733.079 23.8904  10
   0  -4  -3 759.377 23.9441   4
   4  -4   3 741.756 23.3914   9
  -4   0   3 733.127 23.1082   7
   4  -4  -3 720.906 26.7786   2
   4  -4  -3 733.047 23.3016   9
  -4   4   3 759.228 19.9344   7
  -4   0   3 740.816 23.9384  11
   0   4  -3 783.625 21.3486   6
   4  -4   3 742.279 26.3619   2
  -4   4   3 761.314 28.7147   3
   0   4   3 739.970 24.5015  10
   0   4   3 746.672 23.8089   8
   4   0   3 742.391 23.0168   8
   0  -4   3 744.771 23.4731   5
  -4   0   3 733.201 22.6088   3
   0  -4  -3 742.037 20.9024   7
   0  -4   3 746.006 23.7966   9
   4  -4   3 760.138 23.7047  11
   0   4   3 771.450 20.3714   6
   4  -4  -3 753.820 24.0373  11
   0   4  -3 753.682 23.2583   8
   0   4  -3 741.389 23.8842   3
   4   0   3 739.642 22.7200  11
   0   4  -3 766.059 22.6583   2
   4   0   3 758.828 26.1273   2
   0  -4   3 753.976 21.5920   7
  -4   4   3 749.841 24.7690  11
   4   0  -3 762.567 25.9281   2
   2   3   3 52.7399 6.87924   8
   3  -5   3 34.4397 6.77646   9
  -5   2   3 41.1993 6.29672  12
  -5   3  -3 54.5235 6.68369   7
  -2  -3   3 41.9614 6.37994   7
  -2   5  -3 38.0330 4.43961  11
  -2  -3   3 36.4035 7.04338   4
  -2  -3   3 40.6233 6.41984   5
  -3   5   3 40.0443 10.1821   3
   3   2  -3 42.9946 7.61537   2
  -5   3  -3 38.1048 7.66750  10
  -5   3  -3 43.8658 8.33590  11
   3   2  -3 36.9717 4.28217  11
  -5   2   3 45.4717 8.44788  11
   5  -2   3 44.6134 7.14256   8
   5  -2   3 36.0177 6.41664  11
  -3  -2  -3 36.0475 6.61586  12
  -5   2   3 37.1394 5.96229   7
  -5   2   3 40.8757 9.90867   3
   3  -5   3 40.9092 6.27306   4
  -3  -2  -3 42.1360 6.33772   7
  -3   5   3 29.8414 7.48029  10
   2  -5  -3 35.0138 6.81299   9
  -2  -3   3 30.7076 6.59206  12
  -3  -2  -3 50.7906 7.80872   4
   5  -2   3 44.1007 9.05806   2
  -2   5  -3 31.7894 8.53752  10
   5  -3  -3 42.4769 9.12471   2
  -5   3  -3 47.7671 10.6003   3
   2   3   3 45.9577 7.38079   2
  -3   5   3 36.0383 5.48448  11
  -2   5  -3 32.6850 9.15475   3
   2  -5  -3 37.2264 6.90961   4
   5  -3  -3 43.4063 6.92080  11
   2  -5   3 39.2035 7.48741   5
  -5   3   3 45.2977 10.9924   3
   3   2   3 51.0803 5.28863  11
   2  -5   3 49.8774 7.24165   4
  -5   3   3 50.6588 6.23299   7
  -2  -3  -3 40.1511 7.30758   4
  -2  -3  -3 49.1870 6.43146   7
  -2   5   3 45.1203 5.35863  11
   5  -2  -3 33.8967 9.02547   2
  -5   2  -3 41.0039 10.6061   3
  -3  -2   3 51.6638 6.76318   7
  -5   3   3 40.4015 7.31665  11
  -2   5   3 37.7829 9.42480   3
  -2   5   3 65.5855 9.59862  10
  -3   5  -3 53.2893 10.4638   3
   3  -5  -3 46.8313 6.77553   4
  -5   2  -3 53.5160 6.96103   7
  -5   2  -3 41.7328 8.84461  11
  -3   5  -3 53.5679 6.91304  11
   5  -2  -3 41.7475 6.81311  11
  -3   5  -3 60.9285 9.61867  10
   5  -3   3 48.3375 9.11305   2
  -5   3   3 42.6385 8.30714  10
  -3  -2   3 44.2123 7.70721  12
   3   2   3 49.1900 7.01057   8
   2   3  -3 44.6983 6.70703   8
  -2  -3  -3 53.1595 8.15438  12
   3   2   3 35.1740 7.56569   2
   5  -3   3 40.0816 6.94077  11
   2   3  -3 48.9846 7.85121   2
   2  -5   3 50.2479 7.53472   9
   5  -2  -3 57.4757 7.77330   8
   3  -5  -3 46.6460 6.93692   9
   5  -3   3 45.2092 7.88428   8
  -5   2  -3 45.5251 5.98492  12
   1   4   3 672.478 22.8299  10
  -1   5  -3 682.295 25.9536   3
   4   1  -3 656.856 25.2165   2
  -1  -4   3 703.895 24.4247   4
  -5   1   3 694.237 23.0403  12
  -1  -4   3 671.429 21.7672   7
   5  -4  -3 641.915 24.1537  11
   4  -5   3 645.804 25.6744   2
  -5   4  -3 668.857 25.3711  11
   1   4   3 682.372 23.6095   8
   4  -5   3 660.465 23.2972   9
  -4  -1  -3 657.513 22.7820   7
  -5   1   3 644.469 25.0386   3
  -5   1   3 654.705 23.0057   7
   4  -5   3 664.632 20.8968   4
  -1  -4   3 646.686 24.2175   9
  -1   5  -3 665.635 25.4460  10
   1  -5  -3 647.587 23.1802   4
   5  -4  -3 658.164 26.6420   2
  -1   5  -3 661.242 23.6917   8
  -5   4  -3 679.367 24.8464  10
  -1  -4   3 675.925 24.1249  12
   5  -4  -3 640.566 22.2642   9
  -5   4  -3 631.883 21.8896   7
  -1  -4   3 659.454 22.6470   5
   5  -1   3 651.724 23.1160  11
  -4   5   3 644.830 22.9994  11
   1  -5  -3 661.145 21.8399  12
  -5   4  -3 658.149 29.5426   3
  -5   1   3 690.227 25.7161  11
  -4  -1  -3 655.980 23.9972  12
  -4   5   3 634.212 25.9758  10
   5  -1   3 616.300 26.1250   2
   5  -1   3 693.591 23.8037   8
   1  -5  -3 677.035 24.1198   9
   1   4   3 654.445 23.7417   2
   4   1  -3 671.950 20.2433  11
  -4   5   3 711.819 29.9418   3
   1   4  -3 673.724 21.9772   6
   5  -1  -3 707.405 22.4592   8
  -1  -4  -3 693.803 25.3705   9
   1   4  -3 677.402 23.2261   2
   5  -4   3 682.435 24.5248  11
   4   1   3 695.832 26.1415   2
   1  -5   3 667.229 21.9634  12
   5  -1  -3 690.508 27.6644   2
  -5   1  -3 692.062 23.5886   7
  -5   4   3 677.413 25.6150  10
  -4   5  -3 635.135 28.7905   3
   1  -5   3 672.031 24.0585   9
   4  -5  -3 683.568 22.1536   4
  -1   5   3 692.555 24.9019   8
  -5   4   3 720.473 30.6878   3
  -1   5   3 684.182 25.9652   3
   5  -1  -3 656.106 23.0935  11
   4  -5  -3 640.980 26.9160   2
   4   1   3 675.466 20.8849  11
   1  -5   3 678.950 23.9914   5
  -5   4   3 683.528 25.6939  11
   4  -5  -3 673.741 23.7140   9
   5  -4   3 668.248 27.3049   2
  -1  -4  -3 664.741 24.6706  12
  -4   5  -3 672.286 23.3493  11
  -1   5   3 682.884 25.9178  10
   1   4  -3 678.785 22.7075   8
  -5   4   3 680.625 20.1896   7
   5  -4   3 663.093 22.8823   9
  -1  -4  -3 689.478 24.5947   4
  -5   1  -3 699.873 23.4915  12
  -4  -1   3 694.429 25.0592  12
  -4  -1   3 660.368 22.8625   7
  -4   5  -3 651.908 26.0301  10
  -5   1  -3 664.315 25.9390  11
   1  -5   3 685.725 23.3922   4
  -1  -4  -3 677.214 21.5186   7
   4   1   3 701.497 22.9393   8
   5  -5   3 421.716 23.4528   2
   5  -5  -3 376.216 22.7512   2
  -5   0   3 338.767 21.0009  12
   0  -5  -3 399.362 19.6442   9
   0   5  -3 429.327 19.2683   8
   0   5  -3 407.214 18.2143   2
   0  -5   3 428.372 19.4396  12
  -5   5   3 422.822 25.0476   3
  -5   5  -3 422.842 21.6888  10
   0  -5  -3 391.306 19.3597   4
   0   5   3 419.375 19.9824   8
   5   0  -3 348.352 21.6488   2
   0  -5   3 418.451 17.0049   7
   5   0   3 420.260 22.1122   2
   5   0   3 394.037 17.0417  11
   5  -5   3 358.218 17.4303   9
  -5   5  -3 399.860 18.9799  11
   0  -5   3 398.659 28.7816   4
   0  -5   3 378.237 21.6275   5
  -5   5   3 379.566 21.2521  10
   0  -5   3 410.180 19.4640   9
   5  -5   3 403.242 22.8784  11
  -5   0  -3 362.277 17.9426   7
   0   5   3 423.113 20.6064  10
   5  -5  -3 402.750 17.2178   4
   0   5   3 370.829 18.6924   2
  -5   5  -3 382.854 24.8684   3
  -5   0   3 356.020 17.9020   7
  -5   5   3 367.017 18.8167  11
   5  -5  -3 404.330 19.9615  11
   5  -5  -3 382.388 18.0062   9
   0  -5  -3 426.576 19.5723  12
   0   5  -3 393.056 20.2747  10
   5   0  -3 384.121 16.7175  11
   6  -3   3 33.0284 8.17897  11
   3  -6   3 39.6655 8.67868   9
  -3  -3  -3 27.7333 7.63004   7
  -6   3   3 14.2662 14.0195   3
   3  -6  -3 33.1847 8.66535   9
  -6   3  -3 46.7476 8.13517   7
  -3   6  -3 29.9360 10.7437  10
   6  -3  -3 34.2124 8.38948  11
  -3   6  -3 29.0592 13.1055   3
  -6   3   3 29.9974 11.0334   7
   6  -3  -3 39.7626 10.6117   2
   3   3   3 37.1654 10.0072   2
  -3   6   3 38.2337 5.89250  11
  -3  -3   3 35.8668 9.15580  12
   3   3  -3 36.4779 10.2661   2
  -3  -3  -3 31.0924 9.84016   4
  -3   6   3 51.6060 13.8199   3
  -3   6   3 33.4891 11.3122  10
  -3  -3   3 35.3311 7.53316   7
   3  -6  -3 42.5183 10.8331   4
  -6   3   3 35.5772 9.99020  11
  -3   6  -3 38.5523 6.31231  11
  -3  -3  -3 31.4901 9.05496  12
   6  -3   3 64.4930 12.6820   2
  -6   3  -3 21.1345 8.87466  11
  -2   6  -3 57.9077 14.4332   3
  -4   6   3 36.8530 14.3001   3
   6  -4  -3 32.9389 12.1143   2
   6  -4  -3 37.3897 9.25778  11
  -6   2   3 52.8884 9.12485   7
  -4   6   3 4.14112 9.91765  10
  -2  -4   3 37.8548 9.98948   4
   2  -6  -3 46.6348 9.67635   9
   2  -6  -3 40.1176 9.93671   4
  -6   4  -3 56.3979 10.3019  11
  -2  -4   3 49.3040 8.45944   7
   6  -2   3 43.1861 8.82999  11
  -4   6   3 38.5210 7.70423  11
  -2   6  -3 41.2227 11.4504  10
  -6   4  -3 25.3891 14.2836   3
  -2  -4   3 26.9131 9.01570  12
  -4  -2  -3 37.0600 7.93493   7
   6  -4  -3 42.5933 8.25126   9
   4  -6   3 33.5260 8.44571   9
   2   4   3 22.1675 10.2679   2
   6  -2   3 30.7220 11.2867   2
  -4  -2  -3 35.9102 9.70993  12
   4   2  -3 33.8215 11.5917   2
  -6   2  -3 22.5705 11.5893  11
  -2  -4  -3 17.2799 7.26002   7
  -2   6   3 22.9696 12.0781  10
   6  -4   3 25.3200 7.69838   9
   6  -2  -3 42.0833 12.3249   2
  -2   6   3 35.3400 10.4099   8
  -6   4   3 21.0620 13.9516   3
  -2  -4  -3 24.5666 9.34822  12
   2  -6   3 22.3309 8.58938   9
  -6   2  -3 17.6092 7.49517   7
  -4   6  -3 25.2359 13.0401   3
   4  -6  -3 39.0486 8.86133   9
  -2  -4  -3 40.7589 10.1373   4
   4   2   3 27.3317 10.6252   2
  -4   6  -3 31.9436 11.6808  10
   2   4  -3 26.0394 9.55890   6
   6  -2  -3 20.0489 7.38635  11
   6  -4   3 18.0207 8.08115  11
  -6   4   3 13.8688 9.18697  11
  -2   6   3 -11.362 14.0084   3
   2   4  -3 34.5592 11.8824   2
  -4  -2   3 20.4306 8.98891  12
  -4  -2   3 36.1703 7.94917   7
  -4   6  -3 34.8091 7.36771  11
   6  -4   3 40.2557 12.5926   2
   4  -6  -3 40.3727 10.4506   4
  -6   1   3 31.0537 9.44612   7
   1   5   3 64.5337 11.5752   2
  -5  -1  -3 27.5077 10.7925  12
  -6   5  -3 16.6451 13.2565  10
   6  -1   3 23.7137 7.60274  11
  -5   6   3 40.4542 12.9912  10
  -5  -1  -3 52.2376 9.57249   7
   1  -6  -3 30.5422 11.3341   4
  -6   5  -3 25.8621 15.0492   3
  -6   5  -3 32.0161 9.66006  11
   5   1  -3 39.7927 13.5006   2
  -1  -5   3 20.9815 10.5111   9
  -1   6  -3 26.9536 10.8798   8
  -6   1   3 50.0159 10.0780  12
  -5   6   3 27.4194 8.62678  11
   6  -5  -3 32.9491 10.6706  11
  -1  -5   3 30.4520 11.1446  12
   5  -6   3 46.2989 9.25729   9
   1   5   3 12.8141 10.5199   8
   6  -5  -3 34.8849 8.54948   9
  -1   6  -3 43.6354 13.5168  10
   6  -1   3 24.7354 12.1390   2
  -5   6   3 41.7587 15.2003   3
  -1  -5   3 21.0146 8.85652   7
   5   1  -3 27.7960 6.89937  11
   6  -5  -3 73.2294 14.2525   2
  -1  -5   3 17.7178 10.1889   4
   1  -6  -3 41.0042 10.2216   9
  -1  -5  -3 48.9417 11.4518   4
   6  -5   3 59.9806 9.23643   9
   6  -1  -3 36.7911 8.18015  11
   1  -6   3 48.2826 11.9848   4
  -5  -1   3 44.1981 10.8518  12
  -1  -5  -3 47.9794 11.0578  12
  -6   1  -3 34.3776 12.7272  12
   5   1   3 46.6056 7.86397  11
  -6   5   3 52.0666 15.8468   3
  -6   5   3 65.5628 15.1438  10
  -6   5   3 31.0596 9.35165  11
   6  -5   3 33.3503 13.2802   2
  -6   1  -3 33.6784 9.39711   7
   5  -6  -3 42.3535 8.89084   9
  -1  -5  -3 34.9708 10.6354   9
   1  -6   3 42.1617 10.6557   9
   6  -1  -3 45.4967 12.8462   2
  -1   6   3 35.9356 11.4808   8
  -5   6  -3 58.2731 15.8924   3
  -5  -1   3 44.8460 9.47150   7
  -5   6  -3 39.0935 12.6731  10
   5   1   3 46.6365 12.7792   2
   6  -5   3 61.3968 11.3018  11
  -5   6  -3 60.6351 9.56426  11
  -1   6   3 45.6657 13.6968  10
   0   0   4 0.71436 0.36206  11
   0   0  -4 0.52677 0.50826   8
   0   0   4 0.92637 0.44909  10
   0   0   4 0.04656 0.21981   9
   0   0   4 0.02357 0.53270   6
   0   0  -4 -0.0395 0.39245  11
   0   0   4 0.39428 0.32996  11
   0   0  -4 0.00347 0.31564  11
   0   0   4 0.46612 0.53949   3
   0   0  -4 0.14450 0.41782   3
   0   0  -4 0.24845 0.51617   6
   0   0   4 0.20632 0.34361   8
   0   0  -4 0.47684 0.45179  10
   1   0  -4 527.027 11.6949  10
   0  -1   4 509.106 11.3916  11
   0  -1  -4 517.279 11.8708   7
  -1   1  -4 512.964 13.4894   3
   0   1   4 495.040 12.6381  12
   1   0  -4 519.505 12.8309  11
   0  -1  -4 526.631 12.8896   6
   1  -1   4 525.594 12.7567  11
   0   1   4 523.183 13.1147   6
   1   0  -4 508.588 12.4876  11
  -1   0  -4 514.469 12.1782  10
  -1   1  -4 497.735 12.3716   5
   0   1   4 507.883 12.5599   5
   0   1   4 535.275 12.1096  11
   0   1  -4 495.836 12.2094   9
   0   1  -4 503.469 12.2166   4
  -1   0   4 517.939 11.6460  10
  -1   1  -4 487.382 12.8885   2
  -1   0   4 511.397 12.5265   7
   1   0  -4 532.075 11.8813   8
  -1   1  -4 480.795 13.0424  11
  -1   0  -4 526.103 13.1003  11
   0   1   4 488.294 12.8553   8
   0   1  -4 500.655 12.6296  12
   0  -1  -4 527.419 12.4628   3
   1   0   4 498.100 12.9001   8
   1   0   4 531.420 12.1068  10
   1   0   4 517.389 12.9627  11
  -1   1  -4 531.590 13.4404   6
   1   0   4 484.452 12.6560  12
  -1   0   4 523.686 13.3341   3
   0   1  -4 485.544 12.4314   7
   1   0   4 526.891 11.9593   3
   1   0   4 509.677 12.5782   4
  -1   1   4 510.853 14.0629   3
   1   0   4 499.868 13.0610   2
   1  -1  -4 504.407 12.8190  11
   0   1   4 532.620 12.0960  11
   0  -1   4 530.572 11.3513  11
  -1   1   4 532.404 13.2521  10
  -1   0   4 501.361 12.8973  12
   0   1   4 508.477 11.8499   7
   0   1   4 500.207 13.0483  10
   1   0  -4 510.920 13.0367   2
  -1   0  -4 517.823 12.7612  12
   0   1  -4 516.861 12.4665   6
  -1   0   4 497.281 12.9104   2
   0  -1  -4 507.742 12.7305   9
   0  -1   4 527.204 12.4000   4
   0  -1   4 513.044 12.5961   5
   0   1   4 519.608 12.6159   3
   0   1  -4 525.309 11.3082  11
  -1   0  -4 526.967 12.2024   3
   0  -1  -4 530.787 12.7947  12
   0  -1  -4 543.949 12.2138  11
  -1   1   4 538.831 11.6249   7
   0  -1   4 517.139 12.3391   9
   0  -1  -4 498.015 12.9912  10
   0  -1  -4 491.366 12.0083  11
   1  -1   4 528.876 13.2156   2
  -1   1   4 496.913 13.0106  11
   1  -1  -4 524.334 12.5544   9
  -1   1   4 486.311 12.6749  11
  -1   0  -4 517.894 12.6683   4
   1  -1   4 519.873 12.4298   5
   0  -1   4 527.223 12.7465  12
  -1   1  -4 508.428 12.7076  11
  -1   0   4 522.682 11.8179   8
   0  -1   4 518.127 12.5041   7
   1   0   4 487.892 12.5635  11
  -1   0  -4 476.278 13.9895   6
   1  -1   4 526.447 13.3973   6
   1   0  -4 498.606 13.3069   3
  -1   0   4 509.462 12.7907  11
   2  -1  -4 3724.64 83.3092  11
   1  -2  -4 3752.00 81.6925  12
  -1  -1   4 3638.80 82.8597   9
  -1  -1  -4 3618.49 83.3573  12
   2  -1   4 3681.42 83.3190  11
   2  -1   4 3714.76 84.0184   2
  -2   1  -4 3763.91 81.1559   5
   2  -1  -4 3759.07 82.9368   8
  -1  -1  -4 3702.08 82.4198   7
  -1  -1  -4 3709.23 83.0948   4
  -1   2  -4 3637.37 82.2196  11
  -1  -1   4 3724.60 83.2103   4
  -1   2  -4 3696.98 84.2208   3
   1  -2  -4 3672.18 82.8008   9
   1  -2   4 3657.34 82.6415   9
   1  -2   4 3775.67 81.8730  11
   2  -1   4 3868.87 82.3607  12
   1   1   4 3709.73 83.2397   2
   2  -1  -4 3740.43 84.6304   2
   1   1   4 3967.96 82.0468  11
  -2   1   4 3576.10 83.7874  11
   1  -2   4 3699.28 82.9592   5
   1  -2   4 3840.36 81.2620   6
  -1  -1   4 3619.86 83.4259  12
  -1  -1  -4 3822.02 81.8794  10
  -1  -1  -4 3864.00 82.2093  11
  -2   1  -4 3797.76 81.8480  12
  -2   1   4 3779.19 82.1699   7
  -2   1   4 3879.85 85.0992   3
   1  -2   4 3760.79 83.0324   2
   1  -2   4 3694.98 81.8196   4
   1  -2  -4 3759.17 82.8035   4
  -2   1   4 3750.53 82.2429  12
  -1  -1   4 3596.22 81.7826   5
  -1  -1   4 3673.82 82.6515   7
  -1   2   4 3787.62 84.3019  10
  -2   1  -4 3629.72 84.8380   6
   1  -2  -4 3859.29 82.3157  11
   1   1   4 3770.33 81.7018  11
  -1  -1  -4 3844.33 81.5452   5
   1  -2   4 3823.50 81.3366  12
   1   1   4 3673.19 82.9270   8
  -1  -1  -4 3664.63 83.4891   9
   2  -1   4 3546.35 83.6743   8
   1   1  -4 3780.91 82.7298   2
  -2   1  -4 3766.31 84.3354   3
   1   1  -4 3633.82 81.6073   8
  -1   2   4 3776.53 82.1626  11
  -2   1   4 3830.78 82.5072  10
  -1   2   4 3778.43 84.6560   3
   1   1  -4 3669.19 80.9893  11
   1   1   4 3750.51 81.9217  10
  -2   1  -4 3648.12 84.0759  11
  -1   2  -4 3844.98 81.3118  12
  -1   2   4 3760.44 82.4400  11
  -1   2  -4 3867.04 81.9140   6
   1   1  -4 3913.16 81.3971  11
  -1   2   4 3902.95 80.8100   7
   1   1  -4 3905.20 81.2502  10
  -1   2  -4 4019.22 81.9201  11
   1   1   4 3712.77 81.3402   5
   2  -2  -4 729.842 19.4945  11
   0   2   4 760.083 19.2535   3
  -2   0   4 748.197 19.7320   3
   2   0   4 742.701 18.2581   3
   2   0  -4 764.359 18.9976  11
  -2   0  -4 746.369 18.4679   3
  -2   0   4 758.779 19.6906  12
  -2   0  -4 723.304 19.1373   7
   0  -2   4 749.440 19.2081  12
   0  -2  -4 731.379 19.1936   4
   2  -2  -4 744.475 19.2440   9
  -2   2   4 729.839 21.7228   3
  -2   0  -4 739.638 17.3704  10
   2  -2  -4 768.802 17.1026  12
   0  -2  -4 743.262 19.2581  12
  -2   0   4 744.598 19.0929   7
  -2   0  -4 727.859 19.3625  12
  -2   0   4 776.418 17.4103   5
  -2   2  -4 740.063 21.3438   3
   2  -2   4 757.656 19.0152   5
   2  -2   4 750.345 20.4633   8
   2   0   4 762.305 19.5404   8
   0   2   4 718.874 19.5043   8
   2   0  -4 687.321 19.5115  11
  -2   2   4 743.334 20.2210  10
   2   0   4 761.618 20.2838   2
  -2   0   4 765.957 19.6096  11
  -2   2  -4 767.570 20.2577  11
   0  -2   4 752.171 18.9784   4
  -2   2  -4 765.326 19.4192   6
   0   2   4 737.263 19.7852  10
   0   2   4 791.509 17.4086  11
   0   2   4 742.585 17.2556  11
   0  -2  -4 750.079 17.9451   7
   0  -2  -4 754.874 19.4857   9
   2   0  -4 761.565 18.3423   8
  -2   0  -4 739.674 19.5042   4
   0   2  -4 744.199 18.4603   6
   2   0  -4 756.630 20.2323   2
   0  -2   4 746.224 18.6584   7
   0  -2   4 728.868 19.0821   5
  -2   0  -4 754.413 19.9397  11
   2  -2   4 744.955 19.4252  11
  -2   2   4 760.087 20.1045  11
   0  -2  -4 736.943 19.0846   5
   0  -2   4 720.118 18.9006   9
   2  -2   4 741.745 20.5666   2
   2  -2  -4 756.548 18.6708   6
   0   2  -4 753.799 19.4214   3
   2  -2  -4 714.431 20.9046   2
   2   0   4 744.965 19.1614  11
  -3   1   4 765.993 22.4192  11
   1   2   4 791.845 21.4794   8
  -2   3   4 693.235 24.6768  10
   2  -3   4 768.752 22.2361   2
  -1  -2   4 758.293 21.5924   4
  -1  -2   4 775.398 21.5462   9
   1  -3  -4 800.004 20.1063  12
   1  -3  -4 833.824 19.7748  11
   1   2   4 834.878 19.1454   3
   1   2   4 777.999 18.4310  11
  -2  -1  -4 750.873 22.0137   7
  -3   1   4 815.361 19.5878  10
  -3   1   4 775.870 20.7863   7
  -2   3   4 749.931 21.0703  11
   2   1  -4 801.494 20.0970  11
   2   1  -4 773.810 21.7839   2
   3  -2  -4 780.054 21.8859  11
   1  -3  -4 784.843 21.1957   4
  -1  -2   4 766.380 20.7034   7
  -1   3  -4 814.766 18.9330  11
   1   2   4 817.903 18.5651  11
   2  -3   4 808.505 20.6592  11
  -1  -2   4 779.958 20.3325   5
   2   1  -4 802.412 19.5331  11
  -3   1   4 815.596 20.9861  12
   1   2   4 780.810 21.6659   2
  -2  -1  -4 810.660 20.9879  11
  -3   2  -4 798.585 24.1500   3
   3  -1   4 716.904 24.9774   2
   2  -3   4 773.793 19.9476   4
  -2   3   4 753.212 24.1760   3
   1   2   4 794.751 18.7761   3
  -1   3  -4 755.227 22.6302   3
   2   1  -4 786.252 19.7822   8
   3  -1   4 787.390 22.1428   8
   2  -3   4 811.905 18.3645   6
  -1   3  -4 851.482 18.7714  11
  -1   3  -4 827.939 19.3654   6
   1   2   4 806.336 20.9783  10
  -3   2  -4 730.737 22.9001  11
   2  -3   4 774.015 21.7147   5
   1  -3  -4 765.306 22.4948   9
   3  -1   4 802.227 25.2188  11
   3  -2  -4 783.007 25.4472   2
  -3   2  -4 849.980 18.7667  12
  -3   1   4 805.089 23.3743   3
  -1  -2   4 761.010 22.1325  12
  -3   2   4 686.595 23.1622   3
   2  -3  -4 782.723 17.3582  12
  -3   1  -4 761.625 19.5840  12
   2   1   4 741.980 17.0780   5
  -2  -1   4 761.272 18.2048   5
  -2   3  -4 738.265 20.2310  11
  -3   2   4 765.669 19.0391   7
   1   2  -4 734.910 19.2303   8
   2   1   4 771.263 17.2293  10
  -3   1  -4 746.242 21.6132   3
  -3   1  -4 757.468 16.6053   5
  -1  -2  -4 659.950 22.1837  12
   3  -1  -4 760.697 22.3555  11
   2  -3  -4 635.962 22.2722   9
  -1   3   4 734.948 21.9448  10
  -1   3   4 742.785 18.4538  11
  -1   3   4 777.532 18.4796  11
   1  -3   4 682.695 21.8826   5
  -1  -2  -4 738.368 19.3950   7
  -1   3   4 724.278 21.9067   3
  -2  -1   4 698.189 21.4940   7
  -2  -1   4 690.103 22.5365   4
   3  -2   4 756.246 22.5010   2
   2  -3  -4 708.546 21.9717   2
   2  -3  -4 735.272 20.1145   4
   3  -2   4 718.321 20.7527  11
   2   1   4 740.730 19.4252  11
   2   1   4 719.282 18.9302  11
  -1  -2  -4 780.013 18.2880  11
   1   2  -4 739.480 18.9624  10
  -2  -1   4 788.642 19.2766  11
  -3   1  -4 734.777 21.7774  11
  -1  -2  -4 718.668 22.4253   4
   2   1   4 742.297 20.2670   8
  -2   3  -4 781.566 17.9386   6
  -3   1  -4 717.517 20.3045   7
   1  -3   4 735.417 19.3375   4
  -3   2   4 759.309 20.6524  10
   2  -3  -4 766.073 19.9400  11
   2   1   4 699.796 22.5604   2
   1   2  -4 743.971 20.0118   2
  -1  -2  -4 779.129 19.2503   5
   1  -3   4 736.802 20.1313   9
   1  -3   4 783.944 18.9818  12
   3  -1  -4 765.827 20.1231   8
  -3   2   4 724.373 21.6803  11
   3  -2   4 755.424 21.6942   8
   3  -3   4 3121.33 73.5031  11
   0   3  -4 3216.78 73.7897  10
  -3   3   4 3131.80 75.0749  10
  -3   3  -4 3232.66 77.6156   3
   0   3   4 3212.96 74.1647  10
   3   0   4 3184.20 73.4157   8
   3   0   4 3293.77 73.2540  11
   0  -3   4 3181.20 73.0896  12
   0   3  -4 3191.65 73.6862   3
   0  -3   4 3135.52 73.0860   5
   0  -3  -4 3199.90 73.9142   9
   0  -3  -4 3380.32 69.6879  11
   0  -3  -4 2862.94 74.6975  12
   0  -3   4 3127.58 73.2388   9
  -3   3  -4 3263.38 74.8425  11
   3   0  -4 3275.13 72.3588   8
  -3   0  -4 3262.63 71.7551   3
  -3   3   4 3238.98 74.8007  11
   3   0   4 3172.45 75.1789   2
  -3   0  -4 3190.94 73.6943  12
   0  -3   4 3208.67 73.3468   4
   0  -3   4 3148.80 72.0579   7
   3  -3  -4 2988.28 73.3960  11
   0  -3  -4 3120.73 73.3364   4
  -3   0  -4 3324.09 74.7603  11
  -3   3   4 3041.18 77.6385   3
  -3   0   4 3203.36 69.4069   5
  -3   0   4 3383.23 73.9470  11
   3  -3  -4 3143.64 76.2031   2
   3  -3   4 3117.64 73.2685   9
  -3   0   4 3202.36 73.1895   3
   0  -3  -4 3234.82 71.1830   7
  -3   0   4 3178.28 73.1272   7
   0   3   4 3104.96 73.0433   3
   0  -3  -4 3184.03 73.1667   5
   3   0  -4 3168.44 75.0911   2
   3  -3   4 3149.57 75.7082   2
  -3   0   4 3209.64 73.9571  12
  -3   0  -4 3170.97 73.2871   7
   3   0  -4 3144.17 72.6263  11
   3  -3  -4 3170.66 73.3845   9
   0   3  -4 3209.36 71.6591   6
   0   3   4 3134.70 73.6634   8
   4  -2  -4 1510.04 38.8784   8
  -2   4   4 1504.79 36.8638  11
   2  -4  -4 1505.19 38.9751   9
   2  -4   4 1573.93 37.8440  11
   2  -4   4 1500.63 38.7963   9
  -4   2   4 1520.73 37.3949   7
   2  -4   4 1458.99 38.7535   4
  -4   2  -4 1560.43 36.1389  12
  -2  -2  -4 1486.89 39.7703  12
   4  -2  -4 1518.79 39.4850  11
  -2  -2   4 1472.87 39.4023   4
   2   2   4 1548.31 39.7133   2
   2   2  -4 1547.73 39.1150   2
  -2   4   4 1492.41 42.1176   3
  -2   4   4 1530.46 41.5589  10
  -4   2  -4 1520.27 38.1281   7
   2  -4  -4 1556.26 35.1455  12
  -4   2  -4 1473.44 41.9141   3
   2  -4   4 1474.45 38.9035   5
   4  -2  -4 1535.79 42.4705   2
  -4   2  -4 1456.90 40.7437  11
  -2  -2  -4 1518.95 37.8494   7
  -2   4  -4 1536.17 41.0842  10
  -2   4  -4 1427.83 36.3238  11
  -2  -2  -4 1449.57 39.2970   4
  -2   4  -4 1452.73 41.9120   3
   2  -4  -4 1507.64 38.2004   4
   4  -2   4 1493.51 39.7683   8
  -2  -2   4 1507.80 36.2144   5
   2   2  -4 1528.64 36.9169   8
   2  -4  -4 1557.51 37.1689  11
   2   2   4 1542.15 35.1151  10
  -4   2   4 1506.76 37.4738  10
  -4   2  -4 1518.45 37.4974  10
   2   2   4 1465.85 38.2048   8
  -4   2   4 1542.81 40.9375  11
  -2  -2   4 1462.55 39.6476  12
   4  -2   4 1537.39 39.5694  11
  -4   2   4 1530.24 42.6653   3
   2   2  -4 1559.50 33.9997  10
  -2  -2   4 1499.63 38.2815   7
   4  -2   4 1518.24 41.7766   2
   1  -4  -4 205.265 9.98099   4
   4  -1   4 193.308 9.90967  11
   1  -4  -4 185.864 9.82616   9
   4  -1   4 175.473 9.86640   8
  -4   1   4 183.348 6.22736   5
  -4   3  -4 207.521 10.7583  10
  -4   3  -4 174.921 11.0572  11
   4  -1   4 189.450 11.8625   2
   1  -4  -4 177.355 10.2253  12
  -4   1   4 178.612 11.3491  11
   3  -4   4 186.509 11.6058   2
  -4   1   4 186.375 9.29858   7
   3   1  -4 188.052 11.1699   2
   1   3   4 192.120 10.1657   8
  -1   4  -4 208.338 11.7373   3
  -3  -1  -4 176.015 9.40226   7
   4  -3  -4 207.376 10.9158  11
  -4   3  -4 180.890 12.8962   3
  -1   4  -4 188.491 7.55671   6
  -1  -3   4 194.902 9.26609   5
   1   3   4 178.027 9.35411  10
  -1  -3   4 185.745 9.03500   7
  -1  -3   4 182.120 10.3121   9
   3  -4   4 195.970 10.1511   5
  -3   4   4 165.082 11.4674  10
  -3  -1  -4 199.281 10.3035  11
  -1  -3   4 199.030 10.4315  12
   1   3   4 177.771 9.71229   2
   3  -4   4 176.825 9.32891  11
   3   1  -4 189.045 8.32629   8
   3  -4   4 186.443 9.85040   9
  -4   1   4 191.834 9.65138  12
  -3   4   4 177.572 13.3514   3
  -3   4   4 205.725 10.1439  11
  -1  -3   4 178.270 10.0127   4
  -1   4  -4 170.324 10.9212  10
  -4   1   4 174.816 11.6831   3
  -3  -1  -4 166.267 10.1976   4
   4  -3  -4 172.763 12.3072   2
  -3  -1  -4 179.598 10.4654  12
   3   1  -4 184.400 7.94602  11
   1   3   4 194.711 8.49607   3
   3  -4  -4 203.502 9.54108   4
  -3   4  -4 199.672 11.9833  10
   4  -1  -4 193.213 12.4328   2
   3  -4  -4 192.622 12.0076   2
   4  -3   4 187.915 11.2622   8
   1   3  -4 191.654 8.99609   3
  -3  -1   4 200.891 10.8360  12
  -4   3   4 204.698 8.68602   7
  -3   4  -4 194.099 13.4088   3
   1  -4   4 192.576 8.92115  12
  -3   4  -4 198.510 9.93531  11
  -4   1  -4 185.666 11.7851   3
  -1  -3  -4 207.645 10.5466   4
  -4   1  -4 206.024 11.9976  11
   3   1   4 211.969 8.80314  11
   4  -3   4 208.199 10.7892  11
   1   3  -4 202.657 9.95446   2
   3   1   4 189.527 11.2721   2
  -1   4   4 187.232 11.4815  10
   3  -4  -4 212.377 10.0864  11
   3   1   4 190.785 10.0848   8
   1  -4   4 200.393 9.87790   4
  -4   1  -4 204.390 7.83192  10
  -1  -3  -4 198.587 10.5787  12
  -1  -3  -4 201.442 9.01808   7
   3  -4  -4 204.335 10.3377   9
   4  -1  -4 215.986 10.2687  11
  -4   3   4 204.803 14.1512   3
  -3  -1   4 223.634 10.8604   7
  -4   3   4 194.721 11.3971  11
   1  -4   4 199.716 10.5965   5
  -1   4   4 196.858 12.2027   3
   1  -4   4 192.088 9.92019   9
  -3  -1   4 203.453 7.17124   5
  -1  -3  -4 198.631 10.6297   9
  -4   3   4 198.911 11.3697  10
   1   3  -4 198.248 9.30807  10
   4  -3   4 219.516 12.4214   2
  -4   1  -4 200.938 10.0427   7
   4  -1  -4 197.237 9.75889   8
  -4   1  -4 190.439 9.61370  12
  -4   0  -4 290.860 13.1940   7
  -4   0   4 275.420 13.5982  11
  -4   0   4 271.555 13.1661  12
   4   0  -4 283.660 12.1550  11
  -4   4   4 279.764 17.6519   3
   0   4   4 288.670 13.6681   8
  -4   4  -4 275.320 13.7830  11
   0  -4   4 294.171 13.4387   4
   0  -4   4 276.387 11.4930   7
  -4   4   4 278.398 9.85743   7
  -4   4   4 261.351 14.9501  10
  -4   4  -4 265.464 16.6819   3
   4  -4   4 297.679 16.1534   2
  -4   0   4 278.439 12.6695   7
   4  -4   4 304.237 13.1230   9
   0  -4  -4 286.401 13.4318   4
   0   4  -4 292.509 11.3514   6
   0  -4   4 274.285 13.2456   9
  -4   0  -4 293.357 13.2819  12
  -4   4  -4 276.421 14.8458  10
   0   4  -4 273.187 13.9501  10
   0  -4  -4 291.327 13.1977  12
   4   0   4 266.221 14.9537   2
   4  -4  -4 276.605 13.4680  11
  -4   0  -4 264.392 14.1807  11
   0  -4   4 292.119 13.0262  12
   0   4  -4 278.008 12.6348   8
   4   0  -4 278.009 11.5985   8
  -4   4   4 298.441 14.1715  11
  -4   0   4 264.279 13.1791   3
   0   4   4 279.749 13.7566   3
   0   4  -4 277.531 13.6508   3
   4  -4  -4 271.810 16.1625   2
   4   0   4 280.061 13.1497   8
   4  -4  -4 301.235 13.0049   9
   0  -4  -4 286.739 10.9627   7
   0  -4  -4 297.654 13.6963   9
   0  -4   4 277.021 13.5086   5
   4   0   4 293.532 12.4341  11
   0   4  -4 258.414 12.1552   2
   4  -4   4 271.738 13.1136  11
   4   0  -4 298.878 15.3492   2
   0   4   4 279.821 14.0161  10
   0   4   4 288.622 10.4312   6
  -3   5   4 113.204 8.60153  11
  -5   3  -4 116.433 9.28952   7
  -5   2   4 118.265 9.41413   7
  -3   5   4 104.860 12.3025  10
   5  -2   4 123.624 10.4220  11
   3  -5   4 127.475 10.3544   9
   2  -5  -4 118.306 9.92940   4
   2   3   4 122.747 10.2260   8
   2  -5  -4 131.124 10.6320   9
  -3  -2  -4 125.574 9.85284   7
  -5   3  -4 115.304 12.2083  11
  -2   5  -4 120.209 5.76837  11
  -2  -3   4 141.224 10.0024   5
  -5   2   4 115.140 12.2512  11
  -3  -2  -4 118.198 10.9903  12
  -2   5  -4 112.521 12.5145  10
   5  -2   4 112.620 12.8754   2
  -3   5   4 114.632 14.7649   3
  -2  -3   4 134.555 11.4912  12
  -3  -2  -4 123.561 11.0270   4
   2   3   4 107.401 10.4333   2
   3  -5   4 101.989 9.39382   4
   5  -2   4 112.838 10.8925   8
   5  -3  -4 123.378 11.0197  11
  -5   2   4 108.754 12.9945   3
  -2   5  -4 108.880 13.0366   3
   3   2  -4 145.826 12.2213   2
   3   2  -4 115.342 5.61294  11
  -2  -3   4 133.392 11.2448   4
   5  -3  -4 126.562 13.3961   2
  -5   3  -4 136.334 11.6710  10
  -2  -3   4 128.378 9.60638   7
  -5   3  -4 123.071 14.2026   3
   2  -5   4 184.682 12.1110   9
  -5   3   4 164.010 9.83706   7
  -2   5   4 155.982 15.7390   3
   3   2   4 158.210 12.8480   2
  -3   5  -4 163.787 16.2498   3
  -5   3   4 168.871 16.5810   3
   3   2   4 178.008 11.4481   8
  -2  -3  -4 160.280 12.4063  12
  -3  -2   4 161.644 10.5648   7
  -3  -2   4 162.062 12.3626  12
   5  -2  -4 164.186 14.4586   2
   5  -2  -4 193.855 11.8580   8
  -2  -3  -4 157.280 10.1267   7
  -5   3   4 158.115 13.3188  11
  -5   3   4 157.664 12.9066  10
   5  -3   4 196.193 12.7018  11
  -3   5  -4 162.909 9.67319  11
  -5   2  -4 167.299 16.0677   3
   5  -3   4 202.887 15.6109   2
   3   2   4 180.426 7.83326  11
   3  -5  -4 167.639 11.0774   4
   2   3  -4 165.215 12.2158   2
  -2  -3  -4 178.614 11.9976   4
   2  -5   4 174.990 11.1797   4
   3  -5  -4 160.524 11.4927   9
  -2   5   4 164.235 7.79078  11
   5  -2  -4 164.566 11.5638  11
  -5   2  -4 171.996 10.6658   7
   2  -5   4 172.466 11.9426   5
   2   3  -4 170.337 10.5231   8
   5  -3   4 177.219 12.7199   8
  -5   2  -4 175.918 14.3191  11
  -5   2  -4 164.228 9.76706  12
  -3   5  -4 166.800 13.6369  10
  -2   5   4 187.752 13.7844  10
   1   4   4 33.6370 7.08693  10
  -1  -4   4 28.2425 6.94243  12
   5  -4  -4 35.9747 7.96703  11
   5  -1   4 32.3740 8.99204   2
   4  -5   4 27.4811 6.45321   9
  -1  -4   4 22.6337 5.74932   7
  -1  -4   4 23.6675 7.52875   4
  -4  -1  -4 15.9769 5.69535   7
   5  -1   4 20.7821 6.77630   8
  -1  -4   4 22.3257 6.97604   5
   1  -5  -4 20.3082 6.71271   9
  -5   1   4 27.5632 6.81114  12
  -5   4  -4 36.0201 6.08722   7
   5  -4  -4 27.1484 5.71876   9
   4  -5   4 28.0669 6.29862   4
  -4   5   4 32.7163 8.67153  10
   5  -1   4 21.9819 6.03229  11
  -4  -1  -4 16.4329 6.56902  12
   1  -5  -4 20.5900 6.76526   4
  -4   5   4 9.47326 9.18127   3
  -5   1   4 29.2893 8.91055  11
   1  -5  -4 29.7565 6.57577  12
   4   1  -4 22.4270 8.19253   2
   1   4   4 29.5626 7.09488   8
  -1   5  -4 23.2681 7.13228   8
  -5   4  -4 18.9453 10.4864   3
  -4   5   4 29.7813 6.00941  11
  -5   1   4 22.4753 5.91371   7
  -5   1   4 28.5280 9.45275   3
  -1  -4   4 36.5321 8.27353   9
  -5   4  -4 27.2983 7.34725  11
   1   4   4 27.5025 7.15367   2
  -1   5  -4 12.6819 7.93253  10
   4  -5   4 29.5833 8.94013   2
  -5   4  -4 28.8431 8.29757  10
   4   1  -4 27.8961 4.86522  11
  -1   5  -4 10.3414 8.28152   3
   5  -4  -4 15.0097 7.90008   2
  -1  -4  -4 4.43187 6.41590   4
   1   4  -4 10.4196 5.83729   6
   5  -1  -4 3.56371 4.76403  11
  -1  -4  -4 9.20226 5.13859   7
   5  -4   4 10.6145 6.06327  11
   5  -4   4 6.40544 8.42790   2
   4  -5  -4 -1.7849 5.03828   9
  -4   5  -4 14.1089 8.93846   3
   4   1   4 8.78782 4.36815  11
  -5   1  -4 5.55629 7.72643  11
  -5   1  -4 11.6066 5.67367  12
  -5   4   4 13.9859 8.31676  10
  -5   4   4 12.2552 6.22832  11
   1  -5   4 7.13173 6.06552   9
  -1  -4  -4 3.30153 6.05890  12
   1   4  -4 10.4609 6.27441   2
  -5   1  -4 4.48991 5.61659   7
  -4  -1   4 3.57488 4.74615   7
   1   4  -4 10.1926 5.63468   8
   4  -5  -4 28.6641 9.50649   2
  -4   5  -4 6.14603 5.14822  11
  -1  -4  -4 8.65628 6.41687   9
   1  -5   4 7.00839 6.75298   5
  -1   5   4 10.6718 8.16929  10
   1  -5   4 2.19565 5.44232  12
   4   1   4 5.11277 7.52032   2
   4   1   4 17.5641 6.33778   8
   1  -5   4 13.2338 6.50090   4
  -4  -1   4 13.9446 6.75410  12
  -5   4   4 3.65540 9.50970   3
  -5   4   4 13.9840 5.18865   7
  -1   5   4 2.44717 6.41053   8
  -4   5  -4 8.36825 7.48267  10
  -1   5   4 3.96020 8.27694   3
   5  -4   4 2.92205 4.80194   9
   4  -5  -4 7.01423 5.71435   4
   5  -1  -4 9.00978 5.83029   8
   5  -1  -4 5.39329 7.63514   2
  -5   0   4 213.016 15.1124  12
  -5   5  -4 212.989 14.5170  11
   0   5  -4 216.970 13.9615   2
   5  -5  -4 205.050 13.1612   4
   0  -5   4 222.141 15.4200   9
   0  -5   4 220.048 13.3154   7
  -5   5  -4 230.672 17.4067  10
   0  -5   4 228.594 15.5331  12
   0  -5  -4 211.860 15.1109   9
   5   0  -4 212.643 12.6534  11
   5   0   4 205.408 12.9097  11
   0  -5   4 226.975 14.9219   5
  -5   0   4 202.789 14.0695   7
   5  -5   4 199.811 13.2926   9
  -5   5   4 206.540 20.3988   3
  -5   5   4 235.218 18.8048  10
  -5   5   4 215.673 14.8307  11
   5  -5  -4 201.770 15.9825  11
   0   5  -4 223.726 15.9939  10
   5  -5   4 218.027 19.2878   2
   0   5   4 212.830 14.8719   2
   0   5   4 202.972 16.3906  10
   5  -5  -4 224.242 19.1724   2
  -5   0  -4 204.777 14.0799   7
   5   0   4 231.032 17.5428   2
  -5   5  -4 175.693 19.8391   3
   0  -5  -4 206.896 14.5870   4
   5   0   4 228.438 15.8481   8
   0   5  -4 248.279 15.2561   8
   5   0  -4 217.586 17.4373   2
   0  -5  -4 227.749 15.3815  12
   5  -5  -4 207.470 13.7853   9
   0   5   4 222.805 22.4384   8
  -6   3   4 27.8098 14.2543   3
  -6   3  -4 45.1195 8.50676   7
   3  -6  -4 46.8204 9.34373   4
  -3  -3  -4 22.1540 8.63370  12
  -3  -3   4 42.0988 9.56766  12
   6  -3  -4 35.5471 8.77270  11
   3  -6   4 39.1011 9.21891   9
  -3   6   4 35.7992 13.2247   3
  -3   6   4 21.9873 11.3104  10
   3   3  -4 34.6314 11.2173   2
   6  -3   4 30.1508 11.2930   2
  -3   6   4 37.9753 5.82875  11
   3  -6  -4 22.9277 8.70421   9
   6  -3   4 27.2604 7.51851  11
  -6   3  -4 35.7139 9.94565  11
   6  -3  -4 6.23132 9.95169   2
  -3  -3   4 37.5063 7.71480   7
  -3   6  -4 40.0133 11.5181  10
  -6   3   4 40.5515 10.5998  11
   6  -3   4 27.7281 9.67356   8
  -3  -3  -4 28.7974 7.55155   7
  -3   6  -4 55.3677 14.1911   3
  -3  -3  -4 33.2707 9.57918   4
   3   3   4 36.8475 10.1561   2
  -2   6  -4 282.901 22.9173   3
   6  -2   4 258.196 21.4867   2
  -6   4  -4 282.935 25.5124   3
  -4  -2  -4 231.338 18.2922  12
   2  -6  -4 229.082 16.8134   9
  -6   4  -4 235.097 18.7070  11
   6  -4  -4 284.955 18.1743  11
  -2  -4   4 216.358 17.4110  12
  -2  -4   4 254.292 17.5209   4
  -2   6  -4 228.850 19.1280  10
  -6   2   4 232.911 15.6773   7
  -4   6   4 254.432 20.4762  10
  -4   6   4 220.491 24.5544   3
   6  -2   4 221.585 19.7009   8
   2  -6  -4 245.815 16.7318   4
   4   2  -4 262.293 19.3572   2
  -4   6   4 254.277 14.2310  11
  -2  -4   4 247.780 14.9962   7
   6  -2   4 256.477 16.2159  11
   6  -4  -4 248.680 15.3119   9
  -4  -2  -4 243.822 15.9218   7
   2   4   4 242.364 18.2294   2
   6  -4  -4 295.066 22.0383   2
  -6   4  -4 235.138 18.6671   7
   4  -6   4 234.824 16.2102   9
  -2  -4  -4 234.897 16.8129   4
   4   2   4 271.920 19.1311   2
  -4  -2   4 217.220 14.8335   7
  -4  -2   4 237.463 17.7218  12
  -2   6   4 299.486 30.6253   3
   2  -6   4 220.158 16.6762   9
  -2  -4  -4 210.589 16.7379  12
  -2   6   4 187.740 20.4806  10
   6  -4   4 231.095 15.0763   9
  -6   2  -4 242.973 20.4726  11
  -6   4   4 229.227 17.7599  11
   4  -6  -4 249.417 15.6707   4
   4  -6  -4 250.011 16.5030   9
   6  -4   4 212.421 20.3268   2
  -2  -4  -4 212.236 15.1030   7
  -4   6  -4 212.532 13.7636  11
   6  -2  -4 220.502 21.6065   2
   6  -2  -4 230.481 15.6696  11
  -4   6  -4 187.971 22.6023   3
  -6   4   4 203.327 23.3000   3
  -6   2  -4 229.268 16.1180   7
   6  -4   4 285.289 18.0392  11
  -2   6   4 238.491 17.5716   8
  -4   6  -4 206.313 19.0180  10
  -6   5  -4 682.343 38.0577   3
  -6   1   4 696.278 27.0362   7
  -5   6   4 646.625 26.7216  11
   1  -6  -4 713.235 28.9152   4
  -1  -5   4 673.222 25.5357   7
   6  -5  -4 713.955 26.6598   9
   6  -5  -4 694.767 31.9471   2
   1   5   4 742.197 28.8905   2
  -1  -5   4 670.818 28.3485  12
  -1   6  -4 719.726 28.5059   8
  -6   5  -4 663.401 28.6419  11
  -1  -5   4 672.617 28.7015   4
   1  -6  -4 668.192 28.7209   9
  -5  -1  -4 650.504 26.7867   7
   1   5   4 731.290 28.2616   8
   6  -5  -4 704.587 29.6394  11
   6  -1   4 652.545 26.3297  11
   5  -6   4 728.558 32.1192   2
   6  -1   4 699.474 32.5578   2
   5   1  -4 712.956 32.3677   2
   5  -6   4 732.543 27.5722   9
  -5   6   4 707.798 32.0197  10
  -6   1   4 721.655 27.4743  12
  -5  -1  -4 689.158 29.0418  12
  -1  -5   4 673.940 28.9073   9
   5   1  -4 705.075 22.8620  11
  -1   6  -4 718.684 31.5526  10
  -5   6   4 688.784 37.2899   3
  -6   5  -4 743.647 32.2018  10
  -1  -5  -4 661.370 28.3181   4
  -1  -5  -4 651.353 28.5695   9
  -5  -1   4 627.771 28.3080  12
   1  -6   4 653.478 27.6972   9
   6  -5   4 682.086 28.9740  11
   6  -5   4 651.576 31.9760   2
  -1   6   4 686.075 31.3140  10
  -6   5   4 644.797 31.0351  10
  -1  -5  -4 702.305 28.6338  12
  -5   6  -4 675.885 35.0917   3
  -5   6  -4 644.949 31.0583  10
   6  -5   4 689.435 25.9766   9
  -5  -1   4 642.978 26.4243   7
  -5   6  -4 677.314 26.1598  11
   1  -6   4 704.164 28.0013   4
  -1   6   4 669.119 28.1093   8
   6  -1  -4 665.636 31.5130   2
   5   1   4 675.094 23.0369  11
  -6   1  -4 670.320 26.6648   7
   5  -6  -4 670.733 26.5153   9
   6  -1  -4 668.150 25.5146  11
  -6   5   4 663.791 28.3376  11
  -6   5   4 661.402 34.7288   3
   5   1   4 648.483 30.8710   2
   0   0   5 0.67602 0.28544   9
   0   0  -5 -0.5086 0.53246  10
   0   0   5 -0.0079 0.56347  10
   0   0  -5 2.04482 0.54270   8
   0   0   5 0.88799 0.46526   8
   0   0  -5 0.17581 0.35521  11
   0   0  -5 0.48043 0.41974  11
   0   0   5 0.23066 0.35622  11
   0   0   5 0.15115 0.68027   6
   0   0  -5 0.30430 0.57489   3
   0  -1  -5 514.671 13.7504  10
   0   1   5 565.954 13.3962   3
   1  -1  -5 538.314 14.3162   2
   1  -1   5 500.072 13.8766   8
   1   0  -5 511.421 13.1371  11
   0   1   5 526.973 13.7975  10
   1  -1   5 558.558 14.3808   6
   0  -1  -5 545.657 13.2233   3
   0   1  -5 539.332 13.1074   8
   0  -1  -5 571.704 13.9351   6
   0  -1  -5 537.581 13.3492   4
   0   1  -5 528.224 12.8226   9
   0   1  -5 575.580 12.1694  11
   0   1  -5 584.600 12.8744  11
   0  -1  -5 539.677 13.4387   9
   1   0   5 525.831 13.7285   2
   0  -1  -5 537.901 12.4998   7
   0  -1  -5 545.444 13.4999  12
   1  -1  -5 539.604 13.5634  11
  -1   0   5 542.655 13.7078  12
   0  -1   5 540.778 13.4527  12
  -1   0   5 566.526 12.5835  10
   0   1  -5 548.485 13.3411   6
  -1   1   5 537.734 14.7706   3
   1   0  -5 570.930 12.4058   8
  -1   1   5 554.364 13.9924  10
  -1   1   5 505.944 13.6397  11
   0  -1   5 551.461 12.9533   9
  -1   0  -5 545.649 13.2700   4
  -1   0   5 514.760 13.5201   2
  -1   1  -5 533.275 13.5699   2
  -1   1  -5 548.702 14.1089   3
  -1   0   5 565.094 13.4877  11
  -1   1  -5 551.165 14.2764   6
   1   0  -5 539.710 13.7234   2
  -1   0   5 521.297 13.1430   7
  -1   1  -5 539.589 13.4032  11
   1   0   5 530.061 13.1545   4
  -1   0   5 562.269 12.3513   8
   1  -1   5 545.992 13.4412  11
   1   0  -5 546.516 13.5165  11
   1   0   5 500.020 13.7435  12
  -1   0  -5 536.566 13.4719  12
   1   0   5 549.708 13.3004  10
   1   0   5 545.431 13.7255  11
   0  -1  -5 540.046 13.2576  11
   0  -1  -5 560.078 13.0317  11
   0   1   5 547.984 13.8895   6
   0   1   5 557.534 12.9414  11
   1  -1  -5 546.830 13.1577   9
   0  -1   5 549.992 13.3556   5
  -1   0  -5 538.726 13.7732  11
   1   0   5 565.625 11.8948   5
  -1   1   5 576.607 12.2227   7
   1   0  -5 562.231 12.5843  10
  -1   0  -5 547.527 13.0781  10
   1  -1   5 557.329 13.1328   5
   1  -1   5 565.732 13.8336   2
   0  -1   5 552.850 13.0058   4
  -1   0   5 532.740 14.0291   3
  -1   1  -5 542.378 13.8415  11
   1  -1  -5 524.556 12.7222   6
  -1   0  -5 547.162 12.8085   3
   0   1   5 528.467 12.8628  11
   1   0   5 509.604 13.2818  11
   0  -1   5 534.982 12.2214  11
  -1   1  -5 518.240 13.0173   5
   1   0   5 540.265 13.7539   8
   0  -1   5 571.936 12.2072  11
   0   1  -5 511.563 13.3274  12
   0   1  -5 551.650 12.9487   4
   0  -1   5 539.109 13.2294   7
  -1   2   5 438.317 11.7162  11
   1   1  -5 428.057 10.3578  11
  -2   1   5 424.770 11.3409   7
  -1   2  -5 437.432 11.5436  11
  -2   1   5 418.678 12.8060  11
   1  -2   5 445.591 10.7897  12
   1  -2   5 432.730 12.1126   5
   1   1  -5 446.904 11.9686   2
   1   1  -5 435.857 10.8405   8
  -2   1  -5 417.939 12.9804  11
   2  -1  -5 426.173 12.0134   8
   2  -1  -5 418.686 12.3101  11
   1  -2  -5 453.767 11.2092  12
  -1  -1   5 436.895 12.0259   9
  -1  -1  -5 409.449 11.3989  10
   1   1   5 435.327 11.3952  10
  -2   1   5 443.057 13.8344   3
   2  -1   5 439.425 10.6467   5
  -1  -1   5 410.477 12.4411  12
   1   1   5 425.624 12.2179   8
  -1   2  -5 436.563 11.4728   6
  -1  -1  -5 426.248 11.6096   7
   2  -1   5 406.332 12.6675   8
   1   1   5 425.274 11.3445  11
   1  -2  -5 424.231 11.9546   9
   2  -1   5 433.735 13.0385   2
  -1   2   5 447.206 9.99391   7
  -2   1  -5 431.736 13.1123   3
   1   1  -5 432.200 10.7358  11
  -2   1  -5 423.852 11.0841  12
   1  -2   5 434.260 11.0449   4
   1  -2  -5 421.231 11.9716   4
  -1   2   5 440.881 11.4977  11
  -2   1   5 435.349 11.7996  10
  -2   1   5 430.863 11.6340  12
   1   1   5 419.436 12.3539   2
  -1  -1   5 424.327 12.2828   4
  -2   1  -5 440.712 10.5416   5
  -1  -1   5 418.706 11.1851   5
   1  -2   5 413.511 11.7707   9
   1   1  -5 449.009 10.6566  10
  -1   2  -5 460.429 11.1716  11
  -1   2  -5 414.704 12.9949   3
   2  -1  -5 434.013 13.5358   2
  -1  -1  -5 426.643 12.2502   4
   1  -2   5 439.180 11.2077  11
  -2   1  -5 410.374 13.6020   6
   1  -2   5 438.400 12.1054   2
   1   1   5 424.493 10.7349   5
  -1   2  -5 427.313 10.6814  12
   1   1   5 429.719 11.0505  11
   1  -2   5 429.754 10.9156   6
  -1  -1   5 424.033 11.8749   7
  -1  -1  -5 446.644 11.6228  11
  -1  -1  -5 408.206 12.3592  12
  -1   2   5 417.322 13.4080   3
   1  -2  -5 458.355 11.7087  11
   2  -2   5 1576.15 38.3535   2
   2   0   5 1541.68 36.9827  11
   2   0  -5 1562.68 38.6613  11
  -2   0   5 1554.00 37.2707  11
   2  -2  -5 1624.01 35.0640  12
   2  -2   5 1597.67 37.3345  11
   2   0  -5 1615.45 36.8236  11
  -2   0   5 1574.80 37.6109   3
   2  -2  -5 1535.01 36.9130   9
  -2   0   5 1568.04 35.2060   5
   2  -2  -5 1543.76 36.2295   6
  -2   2   5 1603.34 38.3064  10
   0  -2  -5 1530.69 36.9907   4
  -2   0  -5 1622.64 36.1278   3
  -2   0  -5 1585.69 37.3289   4
  -2   0  -5 1577.72 37.1300   7
  -2   0  -5 1549.31 35.2931  10
   0   2   5 1681.72 35.3192  11
   0   2   5 1609.13 37.8396  10
   2   0   5 1559.72 38.1141   2
   2   0   5 1583.27 35.7855   3
   0  -2   5 1585.12 36.7283   4
  -2   0   5 1496.29 37.3859  12
  -2   0  -5 1555.21 37.8613  11
  -2   0   5 1579.70 36.9227   7
   0  -2  -5 1569.81 35.5849   7
   0  -2  -5 1513.17 37.1981   9
   0  -2  -5 1648.11 36.3282  11
   0  -2  -5 1596.21 37.2620  12
   0   2   5 1606.85 37.0459   3
   0   2  -5 1590.04 36.3634   6
   0  -2   5 1596.52 37.0952  12
   2  -2   5 1604.92 38.5216   8
   0  -2   5 1543.24 36.9239   5
   0  -2   5 1563.43 36.4807   7
   2   0  -5 1587.41 35.8394   8
  -2   0   5 1693.10 37.9411   8
   2  -2  -5 1565.94 37.4223  11
  -2   0  -5 1544.17 37.2291  12
  -2   2  -5 1608.35 39.4533   3
   2  -2  -5 1581.33 39.0774   2
   0   2   5 1559.23 35.1574  11
   2  -2   5 1580.64 36.6740   5
   0   2   5 1584.38 37.6110   8
   0  -2   5 1522.03 36.6310   9
   2   0   5 1549.21 37.3986   8
  -2   2  -5 1516.38 38.0103  11
  -2   2   5 1561.83 37.9450  11
  -2   2  -5 1610.90 37.6652   6
   2   0  -5 1555.49 38.0120   2
  -3   1   5 527.762 17.6709   3
   3  -1   5 508.992 16.1698   8
   2   1  -5 527.223 14.4092  11
   1   2   5 534.050 12.8289   3
  -2   3   5 520.637 12.5955   7
   1  -3  -5 513.468 14.2874  12
   1  -3  -5 513.975 15.7369   9
  -2   3   5 498.788 18.3828   3
   3  -1   5 520.028 16.4001  11
  -3   1   5 538.439 13.9120  10
   2  -3   5 511.804 16.2830   2
   1   2   5 527.519 15.9325   2
   1   2   5 549.024 13.0669  11
   1   2   5 536.276 12.9882  11
  -1  -2   5 519.056 15.6612   9
   1   2   5 516.933 15.6900   8
   2  -3   5 538.699 14.9275  11
  -1   3  -5 551.972 12.9336  11
  -3   1   5 514.488 16.5534  11
   3  -1   5 502.679 17.3816   2
  -1  -2   5 516.607 15.8273   4
  -1  -2   5 507.105 14.6104   5
  -2  -1  -5 549.682 15.3356  11
  -2  -1  -5 473.092 17.6444  12
  -3   2  -5 553.154 12.9986  12
  -3   1   5 542.690 15.2937  12
   3  -2  -5 520.466 16.1751  11
  -1   3  -5 516.126 16.9510   3
  -1   3  -5 530.663 13.8708   6
  -1  -2   5 502.292 14.9170   7
   2   1  -5 533.729 13.7748  11
   2   1  -5 522.110 13.8788   8
   1   2   5 539.741 13.1255   3
   1   2   5 524.590 14.8877  10
   2  -3   5 523.385 14.0753   4
   2  -3   5 476.361 16.6977   5
  -3   2  -5 515.746 17.9207   3
  -3   2  -5 492.338 19.0574  11
  -3   1   5 518.839 14.9330   7
  -1  -2   5 456.784 17.3491  12
   2   1  -5 502.553 15.7800   2
   3  -2  -5 509.565 17.9138   2
  -2  -1  -5 469.394 16.2623   7
  -2  -1  -5 511.507 12.9151  10
   2  -3   5 526.308 13.1133   6
  -1   3  -5 518.224 13.0864  11
  -2   3   5 457.183 16.4196  11
   2   1   5 530.767 14.7787  11
  -2  -1   5 496.223 16.7292  12
   2   1   5 526.682 12.7696   5
   1  -3   5 530.106 15.7438   9
   2   1   5 532.973 16.1018   8
  -3   2   5 560.384 14.7080   7
  -1   3   5 587.542 14.4932  11
   3  -2   5 547.176 16.5554  11
  -1   3   5 549.615 14.3234  11
   2  -3  -5 583.607 15.8796  11
   1  -3   5 513.798 16.1809   5
  -2   3  -5 496.846 20.0177   3
  -2  -1   5 559.260 16.1513   7
  -2  -1   5 550.203 14.1145   5
  -1  -2  -5 542.593 16.7309   4
   2   1   5 570.285 13.3632  10
  -1  -2  -5 514.121 18.2827   9
  -1   3   5 532.913 17.6507  10
  -3   2   5 520.801 20.9843   3
   2   1   5 550.280 15.3679  11
  -1   3   5 541.421 17.5099   3
   2  -3  -5 518.898 15.7314   4
   3  -1  -5 556.841 16.7018  11
   1  -3   5 543.353 15.0772   4
   2  -3  -5 484.169 17.1610   9
  -3   1  -5 530.139 17.3486  11
  -3   1  -5 545.124 15.2590  12
   2  -3  -5 532.790 18.1062   2
   1  -3   5 573.665 14.8138  12
  -2   3  -5 528.650 15.8477  11
  -3   1  -5 545.242 17.2238   3
  -2  -1   5 519.239 17.5337   4
   1   2  -5 563.082 15.7577   2
   1   2  -5 556.723 14.9046   8
   3  -1  -5 548.572 15.5551   8
   2  -3  -5 569.066 13.3730  12
  -3   2   5 541.081 16.2691  10
   1   2  -5 554.454 14.8298  10
  -2  -1   5 582.652 14.9056  11
   3  -2   5 506.897 18.7355   8
  -2   3  -5 580.489 14.4242   6
   3  -2   5 541.325 18.0063   2
  -1  -2  -5 541.724 15.0244   7
  -3   2   5 519.653 17.2103  11
  -3   3  -5 252.793 11.1487  11
   0   3  -5 262.985 9.23927   6
   3   0  -5 261.538 9.74502  11
  -3   0  -5 267.674 11.1214  11
  -3   0   5 244.583 10.3165  11
   3  -3   5 271.406 12.5611   2
   3   0  -5 247.605 11.3971   2
   3  -3  -5 266.268 12.5181   2
   0  -3   5 247.836 9.56520   7
  -3   3   5 246.653 11.5626  10
  -3   0   5 255.249 7.50355   5
   3  -3  -5 263.690 10.2469   9
  -3   3  -5 263.180 13.0980   3
   3   0   5 232.317 9.97741   8
  -3   0  -5 249.366 9.15184   3
   0  -3  -5 264.562 7.83422  11
   0   3  -5 267.818 10.6054  10
   0   3   5 245.685 10.3725   8
   3   0   5 262.803 10.1178  11
   0   3   5 268.885 7.03538  11
  -3   0  -5 252.572 10.1144   7
  -3   3   5 269.531 8.10888   7
  -3   0  -5 252.622 10.4751  12
   0  -3   5 254.766 10.1828   9
   3  -3   5 251.033 10.1549  11
   3   0  -5 255.088 9.24226   8
   0  -3  -5 266.620 10.4563   4
   0  -3  -5 250.947 8.51688   7
  -3   0   5 264.101 10.7441  12
   3  -3  -5 251.073 10.4789  11
  -3   0   5 264.615 10.1821   7
   0   3   5 268.508 13.8758   3
   3  -3  -5 255.767 7.92234   6
   0  -3   5 257.725 10.2980   5
   0  -3  -5 262.801 10.5628   9
   0   3   5 250.346 6.86383  11
   3   0   5 275.809 11.8885   2
  -3   3   5 245.892 13.4117   3
   0  -3   5 243.042 10.0431  12
  -3   3   5 264.393 11.2484  11
   0   3   5 250.234 11.1333  10
   3  -3   5 262.423 10.2237   9
   3  -3   5 241.949 10.0741   5
  -3   0   5 249.739 10.3680   3
   0   3  -5 245.669 10.4795   3
  -2   4   5 12.5084 5.53535   3
  -4   2  -5 2.10545 3.28243   7
   2   2  -5 3.55548 2.82836   8
  -2   4   5 6.74592 2.65892  11
   2  -4  -5 -0.9459 3.22814  11
   2   2  -5 4.39884 3.87368   2
   2   2  -5 4.27387 2.30752  10
   4  -2  -5 2.76552 5.06520   2
   4  -2  -5 5.48173 3.25022  11
   2  -4   5 6.16048 3.42525   9
  -2  -2  -5 7.12699 3.14882   7
  -2   4  -5 4.38652 4.75581   3
   2  -4   5 9.89438 4.13186   5
  -2  -2  -5 4.52896 3.59884  12
   2  -4  -5 2.26680 2.54820  12
   4  -2   5 5.72224 4.27379   8
   4  -2   5 4.27509 3.33569  11
   4  -2   5 6.05391 4.80935   2
  -4   2  -5 -3.5603 5.23773   3
  -2  -2   5 1.67181 2.97779   7
  -4   2   5 9.09862 4.31377  11
   2   2   5 2.81731 2.09632  11
  -4   2   5 6.75606 5.65941   3
  -4   2  -5 -1.3845 3.91900  11
  -4   2   5 1.74869 3.81781  10
  -2  -2   5 4.90074 3.40829  12
  -2  -2   5 2.11336 2.88919   5
  -2   4  -5 3.55386 2.66764  11
   2  -4   5 3.99210 3.60681   4
   2  -4  -5 4.56562 3.52180   4
   2   2   5 1.14686 2.61391  10
  -4   2   5 5.85310 3.04481   7
  -2   4  -5 -1.0126 4.49152  10
   2  -4  -5 5.30995 3.29206   9
   2   2   5 4.14849 3.58565   8
  -2  -2   5 4.53313 3.88221   4
   2   2   5 6.49944 3.84141   2
  -2   4   5 6.05198 4.37823  10
  -4   2  -5 1.47121 2.73372  12
  -2  -2  -5 4.18700 3.78887   4
   4  -1   5 224.045 10.5691  11
  -4   1   5 211.766 12.7281   3
   1  -4  -5 200.943 10.0179   4
   4  -3  -5 192.526 13.1483   2
   3  -4   5 194.113 10.1828   9
   1   3   5 202.197 10.5613   2
  -1   4  -5 210.481 12.2358   3
  -3  -1  -5 204.146 10.0212   7
  -3  -1  -5 200.842 10.9785  12
   1   3   5 205.452 8.49556   3
  -4   1   5 223.442 12.1910  11
  -1   4  -5 209.517 8.11066   6
  -3   4   5 220.591 10.6724  11
  -4   3  -5 197.308 11.6252  11
   3  -4   5 202.017 9.83559  11
   1   3   5 183.909 9.76830  10
  -3   4   5 227.276 12.6581  10
   4  -1   5 208.870 12.1350   2
   3   1  -5 206.168 11.2387   2
   3   1  -5 205.935 8.36420  11
   1   3   5 205.590 10.2468   8
  -1  -3   5 211.206 9.75452   5
   3  -4   5 206.529 12.3056   2
  -4   3  -5 202.109 11.3816  10
  -3   4   5 207.459 13.9978   3
   1  -4  -5 201.559 10.3557   9
   4  -3  -5 206.101 10.9163  11
  -4   1   5 206.974 6.87676   5
  -4   1   5 190.574 9.64472   7
  -1  -3   5 195.170 10.3905   4
  -4   1   5 186.207 9.93331  12
   4  -1   5 206.424 10.9304   8
  -1  -3   5 193.661 10.5491   9
  -1  -3   5 196.618 10.5591  12
  -1  -3   5 206.714 9.57943   7
   3   1  -5 208.628 8.81317   8
  -3  -1  -5 179.984 10.6136   4
  -3  -1  -5 188.923 10.3496  11
   3  -4   5 200.182 10.3086   5
   4  -3  -5 202.008 9.74907   9
  -4   3  -5 201.339 13.6175   3
  -1   4  -5 211.325 11.6467  10
   3  -4   5 195.819 8.74358   4
  -1  -3  -5 223.468 11.0792   4
  -3   4  -5 208.323 10.3608  11
   1   3  -5 222.985 9.73212   8
   3   1   5 208.412 10.5625   8
   3   1   5 221.007 9.17248  11
  -4   3   5 211.875 11.3904  10
  -4   1  -5 199.790 10.1444   7
   1   3  -5 220.124 10.5278   2
   3  -4  -5 206.776 12.4904   2
   3  -4  -5 200.343 10.2657  11
  -4   1  -5 225.710 10.2302  12
  -1  -3  -5 210.262 9.29710   7
   1   3  -5 200.484 9.43840  10
  -4   3   5 219.141 8.69466   7
  -1   4   5 220.644 12.7863   3
   4  -1  -5 211.335 9.87358   8
   4  -3   5 210.690 11.9025   8
  -1  -3  -5 212.536 10.9854  12
  -4   1  -5 232.252 12.1712   3
   3  -4  -5 204.022 10.4759   9
   1  -4   5 217.357 10.4846   9
   4  -3   5 221.488 11.2261  11
   4  -1  -5 216.622 13.3765   2
  -4   3   5 218.502 14.6374   3
  -4   1  -5 205.762 11.9934  11
   3  -4  -5 201.701 10.0449   4
   1   3  -5 226.927 9.76767   3
  -3  -1   5 209.414 11.1872  12
   4  -3   5 235.265 12.9274   2
  -3   4  -5 219.293 12.3900  10
   1   3  -5 232.738 10.3236   6
  -1  -3  -5 226.662 11.5634   9
  -3  -1   5 223.129 10.2667   7
  -3  -1   5 212.217 7.58736   5
   4  -1  -5 210.144 10.4415  11
   1  -4   5 220.917 9.59830  12
   3   1   5 209.821 11.8957   2
   1  -4   5 220.204 10.9797   5
  -4   3   5 209.193 11.7959  11
  -3   4  -5 227.570 14.1905   3
  -1   4   5 217.513 12.1873  10
  -4   1  -5 222.878 8.38390  10
   1  -4   5 224.651 10.1825   4
  -4   4   5 34.8975 7.12754  10
   4   0  -5 38.4800 7.61205   2
   0  -4  -5 39.2092 4.95558   7
  -4   0  -5 39.2237 7.39208  11
   0  -4   5 34.3399 6.12637   9
  -4   4   5 36.0464 6.33423  11
  -4   4  -5 42.8494 6.72014  11
   4  -4  -5 40.7516 6.54477  11
   4  -4  -5 37.2298 5.93892   9
   0   4  -5 42.8571 5.97280   8
   0  -4   5 27.6931 6.09699   4
   0  -4   5 37.6831 6.03280   5
   0  -4  -5 35.8977 5.79534   9
  -4   0   5 29.9938 5.30115   7
   0   4   5 43.0269 6.89091  10
   4  -4   5 27.3935 4.43356   9
  -4   4  -5 45.4414 8.67118   3
   0   4   5 43.4630 6.79909   3
   4  -4   5 35.0008 5.84727  11
   0   4  -5 34.3294 6.73415   3
   4  -4  -5 28.8467 7.54445   2
   4   0  -5 37.8468 5.10116  11
   4   0   5 36.6987 5.19781  11
   0   4  -5 39.5831 5.17174   6
   0  -4  -5 39.4536 6.07147  12
  -4   0  -5 28.6212 5.54603   7
   4   0   5 24.3779 5.84106   8
  -4   0  -5 25.1953 5.64967  12
  -4   4  -5 43.9135 7.48346  10
   0  -4   5 36.2188 5.31146   7
  -4   4   5 32.6045 9.06345   3
   0  -4   5 38.6771 6.36193  12
   0  -4  -5 28.8602 5.84934   4
  -4   0   5 38.4101 6.27081  11
  -4   4   5 38.7296 3.95606   7
   0   4  -5 41.5890 5.67915   2
   0   4   5 39.3376 6.35497   8
   4   0  -5 43.5316 5.46971   8
  -4   0   5 33.7254 6.06849  12
   4   0   5 43.5748 7.87237   2
   4  -4   5 38.9394 5.24654   4
   0   4  -5 40.9033 7.11341  10
   4  -4   5 36.9230 7.62086   2
   5  -2   5 169.940 12.4302   8
  -5   3  -5 180.060 10.8464   7
  -3   5   5 164.045 9.82352  11
  -5   2   5 176.939 10.7737   7
   3   2  -5 170.502 12.9734   2
  -2  -3   5 163.969 12.4063   4
  -5   3  -5 172.744 13.6154  11
  -5   2   5 185.627 13.8976  11
  -3  -2  -5 160.044 10.8392   7
  -3   5   5 143.040 13.6085  10
   5  -2   5 179.202 11.8205  11
   5  -2   5 182.459 14.4943   2
   2  -5  -5 168.204 11.1429   4
  -5   3  -5 207.913 12.5912  10
   2  -5  -5 189.505 11.8684   9
   2   3   5 194.476 12.0436   8
  -3  -2  -5 178.807 12.4182   4
  -2   5  -5 172.631 6.83175  11
  -2  -3   5 181.001 12.8551  12
  -2  -3   5 180.953 10.9045   5
  -2  -3   5 185.923 10.9470   7
   5  -3  -5 179.474 12.5310  11
   3  -5   5 174.188 11.5174   9
  -2   5  -5 166.233 14.5617   3
  -2   5  -5 190.265 13.9213  10
  -3  -2  -5 187.172 12.6951  12
   5  -3  -5 166.427 14.6783   2
  -5   2   5 162.047 15.8201   3
  -3   5   5 177.749 16.1650   3
  -5   3  -5 161.731 17.2388   3
   3   2  -5 174.389 6.57579  11
   3  -5   5 176.212 10.3676   4
   2   3   5 178.768 12.1316   2
  -2  -3  -5 155.158 10.3946   7
  -3  -2   5 162.797 10.4780   7
  -2  -3  -5 187.232 12.2239   4
  -5   3   5 166.059 13.4435  10
   2   3  -5 151.121 10.2833   8
   3  -5  -5 151.544 10.3096   4
  -5   2  -5 169.161 16.6295   3
  -2  -3  -5 173.268 12.5337  12
   5  -3   5 176.540 14.7751   2
   5  -2  -5 172.900 11.6601  11
   5  -2  -5 159.287 14.1971   2
  -2   5   5 167.240 15.0435   3
  -5   3   5 163.637 13.3786  11
  -5   2  -5 168.228 9.82195  12
   2  -5   5 159.767 10.9733   4
  -5   3   5 175.969 16.6932   3
  -5   3   5 177.710 9.90248   7
  -3   5  -5 175.485 9.73947  11
  -2   5   5 175.331 8.09208  11
   3   2   5 167.872 12.8578   2
  -5   2  -5 157.216 13.7849  11
   3   2   5 169.408 7.98667  11
   2  -5   5 168.482 11.7318   9
  -5   2  -5 167.218 10.7913   7
   2  -5   5 154.973 11.5686   5
   3  -5  -5 175.508 11.8365   9
  -3   5  -5 157.294 15.6642   3
  -2   5   5 155.290 13.5544  10
   5  -3   5 165.219 12.0487  11
  -3  -2   5 163.809 12.3354  12
   2   3  -5 171.951 12.0348   2
  -3   5  -5 165.471 13.5437  10
   3   2   5 157.841 11.0451   8
   5  -3   5 148.221 12.6565   8
  -4   5   5 253.365 13.8002  11
   4  -5   5 264.543 12.6359   4
  -5   4  -5 251.380 15.6070  11
   4   1  -5 267.154 11.5908  11
   1  -5  -5 280.386 13.6327  12
  -4  -1  -5 275.757 13.6536   7
   5  -1   5 266.863 13.8960  11
  -4   5   5 281.516 20.0183   3
  -1  -4   5 255.571 15.5026   4
  -1  -4   5 262.902 14.3003   5
  -1  -4   5 245.240 12.8129   7
  -5   4  -5 255.669 20.0180   3
  -5   1   5 256.504 13.3083   7
  -4  -1  -5 258.681 15.3174  12
  -5   4  -5 262.937 16.1687  10
   5  -1   5 269.082 15.2072   8
   4  -5   5 270.640 14.0967   9
  -1   5  -5 274.648 17.9756   3
   1   4   5 263.716 14.8559   8
   4   1  -5 276.084 16.3804   2
  -1  -4   5 266.678 15.3350   9
   1  -5  -5 252.769 14.4473   4
   5  -4  -5 256.653 15.5748  11
  -5   1   5 259.928 14.2106  12
   1   4   5 278.766 14.5691  10
  -4   5   5 238.753 17.7404  10
  -1  -4   5 262.336 14.9883  12
  -5   1   5 241.890 17.3226   3
   4  -5   5 245.878 17.1196   2
   5  -4  -5 270.239 17.6487   2
   5  -4  -5 263.365 13.1461   9
  -1   5  -5 267.047 16.2269  10
   5  -1   5 262.943 16.9681   2
   1  -5  -5 258.278 14.5829   9
   1   4   5 262.323 14.2615   2
  -5   1   5 261.576 17.3057  11
   5  -4   5 254.044 13.2854   9
  -4   5  -5 257.193 14.0357  11
   1   4  -5 267.698 13.3995   6
   5  -4   5 269.249 17.8980   2
  -4  -1   5 255.573 15.4067  12
   4  -5  -5 217.419 13.3564   9
   5  -4   5 250.248 14.7207  11
   5  -1  -5 273.720 17.4082   2
  -4   5  -5 282.578 16.8015  10
  -5   4   5 232.990 20.1312   3
  -1   5   5 246.070 16.5027   3
   4  -5  -5 248.952 13.1746   4
  -5   4   5 260.207 15.7701  11
  -5   1  -5 249.084 14.1491   7
  -5   1  -5 255.833 17.1286  11
  -1   5   5 270.600 15.4190   8
   4   1   5 237.231 15.9098   2
   4   1   5 262.462 14.3344   8
  -4   5  -5 246.616 18.9685   3
  -1  -4  -5 269.280 12.6158   7
  -1  -4  -5 250.433 14.9577   4
  -4  -1   5 248.392 13.4944   7
   1   4  -5 253.169 13.3007   8
   4   1   5 252.846 12.0815  11
   1  -5   5 240.194 14.4580   5
  -1  -4  -5 216.543 14.2885  12
  -5   4   5 270.479 17.1732  10
   5  -1  -5 267.936 13.9609  11
   1  -5   5 259.545 14.3709   4
  -1   5   5 260.987 16.5610  10
  -5   1  -5 269.972 13.8381  12
   1  -5   5 267.057 14.4890   9
  -1  -4  -5 251.857 15.2899   9
   1  -5   5 251.623 13.0798  12
   1   4  -5 269.391 14.3799   2
   4  -5  -5 258.881 17.8894   2
   5   0   5 108.975 10.8203  11
  -5   5   5 145.339 18.6926   3
   5  -5  -5 91.9813 11.3930   9
  -5   5  -5 111.769 12.2020  11
   5   0  -5 111.721 13.5390   2
   0  -5  -5 118.412 13.1032  12
   0  -5  -5 108.039 12.4550   4
  -5   5   5 109.107 13.9545  10
  -5   5   5 95.8792 11.9395  11
   5  -5  -5 141.084 15.9849   2
   5  -5  -5 119.216 14.4089  11
   0   5  -5 156.806 13.2555   8
   0   5  -5 127.555 12.4663   2
   0   5  -5 132.416 14.0933  10
   5   0   5 138.218 13.6129   8
  -5   0   5 118.138 11.1574   7
   5   0  -5 99.7843 10.2968  11
   0  -5   5 112.527 11.1834   7
  -5   0   5 99.2273 12.7241  12
   0  -5  -5 115.100 12.9364   9
   5  -5   5 104.474 13.5516   2
   0  -5   5 126.150 12.9787   5
   0  -5   5 119.679 13.3511  12
   0  -5   5 115.854 13.0559   9
  -5   0  -5 106.346 14.7897  12
   0   5   5 124.345 14.6930   2
   5  -5  -5 148.207 11.7113   4
   5   0   5 122.851 14.3176   2
   0   5   5 123.643 12.9638  10
   5  -5   5 123.896 11.2253   9
  -5   5  -5 109.335 15.8147   3
  -5   0  -5 101.260 11.2936   7
  -5   5  -5 124.920 13.9344  10
  -6   3   5 372.803 21.6696  11
  -6   3  -5 357.453 21.6966  11
  -3   6   5 338.592 22.8155  10
  -3  -3   5 346.675 20.2417  12
  -6   3  -5 369.948 18.0703   7
  -3  -3  -5 340.413 19.7556  12
   6  -3  -5 391.332 19.9653  11
   6  -3   5 395.061 21.3772   8
   6  -3  -5 345.823 25.2637   2
   3  -6  -5 349.420 18.5566   4
   6  -3   5 386.698 19.4455  11
   3  -6   5 353.775 19.3229   9
  -3  -3  -5 380.857 17.6611   7
  -3  -3  -5 367.863 19.8494   4
  -3   6  -5 331.837 21.6571  10
  -3   6  -5 350.799 24.5694   3
   3  -6  -5 344.414 19.1172   9
  -3   6   5 374.270 26.6649   3
   3   3   5 379.016 21.4650   2
   6  -3   5 436.292 23.9150   2
  -6   3   5 360.077 26.6658   3
  -3  -3   5 390.081 18.1342   7
  -3   6   5 376.536 14.7321  11
   2   4   5 671.383 29.4499   2
   6  -4  -5 670.755 26.9712  11
   4  -6   5 619.649 25.4569   9
  -6   2   5 681.702 24.4862   7
  -4   6   5 616.289 32.2607   3
   2   4   5 666.775 25.6963   8
  -6   4  -5 657.185 32.4177   3
  -2   6  -5 660.940 31.6311   3
  -2   6  -5 656.981 29.4327  10
  -2  -4   5 671.159 27.2060   4
  -4  -2  -5 647.646 24.8953   7
  -4   6   5 627.355 29.4599  10
  -2  -4   5 625.999 26.4906  12
   6  -4  -5 637.015 24.0286   9
  -6   4  -5 700.195 28.8185  11
   6  -2   5 636.410 25.2461  11
  -6   4  -5 649.952 23.3800   7
   4   2  -5 652.061 28.4980   2
   2  -6  -5 646.321 26.3418   9
   6  -4  -5 624.024 29.4716   2
  -2  -4   5 632.388 23.7484   7
   2  -6  -5 647.893 25.3219   4
  -4   6   5 646.335 22.9318  11
   6  -2   5 675.607 26.6456   8
  -4  -2  -5 622.866 27.2117  12
   6  -2   5 657.950 30.1714   2
   6  -2  -5 628.374 25.7456  11
   6  -4   5 677.680 25.1636   9
  -2  -4  -5 687.511 27.4908  12
  -2  -4  -5 708.497 27.7481   4
  -4   6  -5 694.529 32.9787   3
   4  -6  -5 652.509 25.9327   9
   2   4  -5 745.816 30.5785   2
   2  -6   5 691.266 27.1144   9
  -2   6   5 657.010 30.7281  10
  -4   6  -5 655.902 30.0250  10
  -2   6   5 645.693 28.0314   8
   6  -4   5 666.770 30.4654   2
  -6   2  -5 655.052 25.5556   7
  -4   6  -5 693.622 23.5973  11
  -6   4   5 664.359 27.8779  11
  -4  -2   5 647.821 25.0666   7
  -6   2  -5 707.484 30.0842  11
   4   2   5 684.554 30.0030   2
  -6   4   5 687.829 34.7751   3
   6  -4   5 651.273 27.0151  11
   2  -6   5 679.854 29.0555   4
  -4  -2   5 644.088 27.0514  12
   6  -2  -5 673.504 32.1842   2
   4  -6  -5 734.703 25.1287   4
  -2  -4  -5 716.102 24.6696   7
   1  -6  -5 181.471 17.4146   9
  -1  -5   5 184.031 17.8483   9
   5   1  -5 203.873 20.2577   2
  -5   6   5 182.682 22.4874   3
  -6   1   5 202.004 16.6676  12
   6  -1   5 174.425 14.8493  11
  -1  -5   5 178.115 18.8526  12
  -6   5  -5 196.784 21.9607  10
  -5   6   5 163.990 20.6445  10
  -1  -5   5 199.146 15.5451   7
   1   5   5 156.490 17.8734   2
  -5  -1  -5 167.297 15.0036   7
   1   5   5 176.777 17.1748   8
   5   1  -5 188.783 12.1649  11
   6  -5  -5 198.516 19.7468  11
  -5  -1  -5 182.080 17.2646  12
   6  -5  -5 205.860 15.6687   9
   6  -5  -5 180.935 20.4048   2
   5  -6   5 196.726 22.2873   2
  -5   6   5 183.597 15.3619  11
  -1   6  -5 203.443 20.1727  10
  -6   1   5 180.222 15.4211   7
   5  -6   5 208.849 15.8429   9
  -6   5  -5 204.430 24.8895   3
  -1   6  -5 186.718 17.9144   8
  -6   5  -5 174.535 16.6697  11
   6  -1   5 211.999 21.0476   2
  -1  -5   5 154.430 18.8004   4
   1  -6  -5 186.562 17.8296   4
  -5  -1   5 176.864 15.6997   7
  -5  -1   5 239.094 19.4707  12
   5   1   5 204.153 13.1449  11
   6  -5   5 263.157 22.9415   2
  -5   6  -5 225.591 25.3547   3
   1  -6   5 197.546 18.3800   9
  -1   6   5 207.022 19.3878   8
  -1  -5  -5 187.051 17.8983   4
  -6   1  -5 173.138 16.6152   7
  -1   6   5 201.343 21.6785  10
  -1  -5  -5 220.977 18.8953   9
   6  -1  -5 198.113 15.1572  11
   6  -5   5 212.374 19.1304  11
  -6   5   5 241.624 22.5843  10
  -6   5   5 195.193 24.1771   3
  -6   5   5 194.568 17.1920  11
   6  -5   5 207.016 15.0124   9
  -5   6  -5 243.377 16.3450  11
   5  -6  -5 215.418 16.4874   9
   1  -6   5 204.544 18.6947   4
   5  -6  -5 214.658 15.2500   4
  -1  -5  -5 232.583 19.1283  12
   5   1   5 222.648 21.6469   2
   6  -1  -5 203.847 21.3728   2
  -5   6  -5 206.238 22.0749  10
   0   0  -6 4379.71 95.6383  10
   0   0  -6 4318.64 95.9823   6
   0   0   6 4413.46 95.4780  11
   0   0  -6 4553.28 95.7340   3
   0   0  -6 4476.99 95.3709  11
   1   0  -6 4192.98 88.3027  10
  -1   0   6 3770.79 88.4684  10
  -1   1  -6 4082.25 89.6862   3
   1   0   6 4127.93 89.4291  11
   1  -1   6 4211.17 90.1385   6
  -1   0   6 4194.94 89.9075   3
   1  -1  -6 3831.76 89.9153   2
   1  -1  -6 4076.58 88.4886   6
   0  -1  -6 4123.09 88.7320  11
   0  -1  -6 4126.50 89.2227  12
   0   1   6 4259.46 89.0007   3
  -1   1   6 3945.10 89.4317  11
  -1   1  -6 4128.80 89.0293   2
  -1   1  -6 4224.50 89.0526  11
   1   0  -6 3941.14 88.7951  11
  -1   1   6 4057.49 89.1503  11
   1  -1  -6 3969.48 89.2404  11
   0  -1  -6 4195.98 88.0058   7
   0  -1  -6 4079.97 89.0029   4
  -1   1   6 3656.61 90.2732   3
  -1   0   6 4091.86 89.1815   2
  -1   1   6 4251.11 87.6635   7
  -1   1   6 4115.18 89.7902  10
  -1   0  -6 4242.90 88.8882  10
   1   0   6 4046.17 88.6370   4
   1   0   6 4029.62 89.4790   8
   1   0   6 4101.40 88.6703  10
  -1   0  -6 4054.13 89.1513  12
  -1   1  -6 4205.62 90.3382   6
   1   0   6 3880.29 89.2578   2
   0   1   6 4009.19 89.3438   8
   1  -1   6 4028.46 88.6425   5
  -1   0   6 4236.56 87.6787   8
   1  -1  -6 3726.04 88.5287   9
   0  -1   6 4050.27 88.3544   9
   1   0   6 4121.70 89.0997  11
   0   1  -6 4144.42 88.4045   4
   0   1  -6 4146.33 89.1675   6
   0  -1   6 4067.99 87.9065  11
   0  -1   6 4113.91 88.9451   5
  -1   0  -6 4122.78 91.2631   6
   1  -1   6 4099.96 89.7357   8
   0  -1  -6 3987.43 89.0306   9
   0   1  -6 4214.11 87.8188  11
   1  -1   6 3994.73 88.9912  11
   0  -1  -6 4151.45 89.6418   6
  -1   0   6 3989.44 88.7522   7
   0   1   6 4088.83 88.6074  11
   0   1   6 4094.96 88.6008  11
   0   1  -6 4067.69 89.1090  12
   0   1  -6 4189.98 88.6393   8
  -1   1  -6 3964.89 89.5054  11
   1  -1   6 4250.18 89.3408   2
   0  -1  -6 4245.37 88.8970   3
   0   1   6 4157.63 89.6826  10
   1   0  -6 4311.63 89.7671  11
  -1   0  -6 4133.57 89.5908  11
  -1   0   6 3950.17 89.3259  12
   0  -1   6 4204.57 88.5565   4
   1   0  -6 4055.60 89.3140   2
   1   0  -6 4196.55 87.6959   8
  -1   0   6 4311.93 89.1441  11
   0   1  -6 4205.75 88.3548   9
   0   1  -6 4003.08 88.9818  10
   0  -1   6 4212.92 89.1760  12
   0   1   6 4405.80 89.8912   6
  -1   0  -6 3684.72 88.5209   3
  -1   1  -6 3813.34 88.4880   5
  -1   0  -6 4236.56 88.8349   4
  -2   1  -6 642.836 17.6719  11
   1  -2  -6 635.995 16.5341   4
  -1   2  -6 653.319 15.5553  11
  -1  -1  -6 610.845 16.8091  11
  -1  -1  -6 610.548 16.8707  12
   1   1  -6 627.509 15.0734  10
  -2   1   6 651.277 15.7997   7
   1   1  -6 657.873 15.2324  11
  -2   1  -6 617.877 14.7962   5
   1  -2   6 647.834 16.3382   9
  -1  -1  -6 626.176 16.6097   4
  -1  -1   6 615.317 16.3250   7
   1   1   6 614.367 16.7943   2
   1   1  -6 629.523 16.2376   2
   1   1   6 649.726 16.0390  10
   2  -1   6 652.052 17.4753   8
   2  -1   6 617.455 16.8287  11
  -2   1   6 652.914 16.3540  10
  -1   2  -6 640.018 17.6429   3
  -2   1  -6 647.358 15.6205  12
  -1   2   6 616.496 17.5791  10
  -2   1   6 641.422 18.4876   3
   1   1  -6 641.008 15.0549   8
  -1   2   6 632.635 18.0659   3
   1  -2   6 615.006 15.5454   6
   1   1   6 651.278 15.9641  11
  -1   2  -6 661.828 16.2527   6
   1  -2   6 649.146 16.4001   2
  -1  -1  -6 629.245 16.0341   7
  -2   1   6 636.061 17.3243  11
   2  -1   6 639.884 17.6066   2
  -1  -1   6 654.929 16.4011   9
  -1  -1   6 633.712 16.7944   4
   2  -1  -6 611.235 17.9773   2
   2  -1  -6 639.205 16.9407  11
   1   1   6 630.609 16.8014   8
  -2   1  -6 604.078 17.4008   3
  -1  -1   6 620.837 17.0923  12
  -2   1  -6 611.578 18.2978   6
   1   1   6 634.435 15.6015  11
   1   1  -6 641.063 14.8274  11
  -1   2  -6 637.880 16.0805  11
  -1  -1   6 629.313 15.7136   5
   2  -1   6 663.526 15.0575   5
   1  -2   6 656.464 15.6429  11
   1  -2   6 616.352 16.4625   5
   1  -2  -6 605.230 16.3075   9
  -1   2  -6 626.960 15.1571  12
  -1   2   6 629.344 16.1914  11
  -1   2   6 654.557 16.0536  11
   1   1   6 627.055 15.1385   5
   1  -2   6 648.366 15.3807   4
   1  -2  -6 655.801 15.6833  12
   1  -2  -6 647.199 16.1574  11
   2   0   6 13.0541 2.46415   2
   0  -2  -6 11.0775 1.67152  11
   2   0  -6 9.96183 2.48163   2
   2   0  -6 5.73916 2.67318  11
   2  -2   6 10.3355 2.63665   2
   2  -2  -6 7.01219 1.75141   9
   0   2   6 11.3176 2.33842   3
  -2   0   6 12.4268 2.56353  12
   2   0   6 10.4500 1.75294   3
  -2   2   6 11.2914 2.07954  11
   0  -2  -6 10.6177 2.15225   4
   0  -2  -6 9.81872 2.07348  12
   2   0   6 12.4011 1.98482  11
  -2   0   6 13.0006 2.35834  11
   2  -2  -6 10.3369 1.67615  12
  -2   0  -6 9.24111 1.92871   3
   0  -2   6 9.74963 2.00148   4
   2  -2  -6 11.7764 2.17316  11
   2   0  -6 9.16729 1.82511  11
  -2   2   6 10.9007 1.35365   7
  -2   0   6 8.55234 2.39067   3
   2  -2  -6 9.37439 1.56913   6
  -2   2   6 11.4672 2.69457  10
   0  -2   6 11.5093 2.20506   5
  -2   0  -6 10.2633 2.04141  12
   0  -2  -6 11.1540 2.15517   9
   2   0  -6 11.6416 1.81979   8
   0  -2  -6 10.6150 1.60965   7
  -2   0   6 8.99154 1.43889   5
   2   0   6 10.3875 1.63481  10
   2  -2   6 12.9357 2.13578   5
   2  -2   6 5.26493 2.39594   8
   2  -2   6 6.74991 1.77820  11
   0   2   6 12.0594 3.82695  10
   0   2   6 13.4200 1.58754  11
  -2   2  -6 4.89371 2.68612   3
   0  -2   6 9.61770 2.02204  12
  -2   0   6 10.5732 1.86394   8
   2   0   6 9.70612 2.27598   8
  -2   0   6 8.76955 1.88091   7
   0   2   6 8.77053 1.42277  11
  -2   0  -6 9.72408 2.34841   4
   0   2  -6 9.74283 1.98185   6
  -2   0  -6 10.7073 1.97589  10
  -2   0  -6 11.4550 2.51147  11
  -2   0  -6 12.8041 2.04168   7
   2  -2  -6 5.22286 2.26641   2
   0  -2   6 13.3473 1.96920   9
   0  -2   6 9.88257 1.95519   7
   0   2   6 11.1796 2.19525   8
  -2   2  -6 6.97512 2.15256  11
  -2   2   6 11.3519 3.18207   3
   1   2   6 321.011 8.72913   3
  -1   3  -6 294.553 8.59336  11
   1   2   6 307.965 8.62110  11
  -3   1   6 305.755 10.2887   7
   2  -3   6 316.701 11.6904   2
  -3   2  -6 302.457 13.0583   3
  -1  -2   6 301.034 10.9894   4
   1  -3  -6 312.076 11.1167   9
  -3   2  -6 321.443 8.60555  12
   3  -1   6 305.001 11.2982  11
   3  -1   6 310.178 11.6490   8
  -1  -2   6 317.930 11.0678   9
  -2  -1  -6 302.365 11.5363  12
   2   1  -6 315.795 9.24074   8
  -1  -2   6 305.183 10.1247   5
  -1  -2   6 291.184 10.4820   7
   3  -2  -6 303.992 13.0200   2
  -1   3  -6 313.448 12.2894   3
  -3   1   6 308.631 12.7752   3
   1   2   6 302.020 10.3866  10
   1  -3  -6 308.718 9.94772  12
   2  -3   6 333.422 10.3976  11
  -2   3   6 321.753 7.95284   7
  -3   1   6 309.271 11.0826  12
  -2  -1  -6 274.364 12.3010   4
  -2  -1  -6 290.053 11.7733   7
  -3   1   6 303.351 11.7149  11
   2   1  -6 296.576 11.2164   2
   1   2   6 307.056 11.1083   8
  -1   3  -6 309.434 9.63682   6
  -2  -1  -6 300.458 8.92817  10
   1  -3  -6 323.206 9.75047  11
   1   2   6 324.349 8.18438   3
   3  -1   6 305.778 12.7666   2
   2  -3   6 320.280 9.74850   4
  -2  -1  -6 324.613 10.8972  11
  -1   3  -6 335.106 8.54345  11
   1   2   6 287.124 12.4564   2
   3  -2  -6 298.927 11.3468  11
   1   2   6 315.264 8.77280  11
   1  -3  -6 296.377 10.8603   4
   2   1  -6 317.930 9.99577  11
   2   1  -6 306.682 9.16298  11
  -3   1   6 328.543 9.64315  10
  -2   3   6 297.565 14.8577   3
   2  -3   6 323.372 9.28098   6
  -1  -2  -6 295.298 11.1059   4
   3  -2   6 295.810 11.1426  11
  -3   2   6 318.590 11.2344  10
   2   1   6 301.921 10.9984   8
   1  -3   6 279.510 10.3052   9
   3  -1  -6 294.394 10.1341   8
  -1   3   6 299.487 12.2688   3
  -1  -2  -6 301.629 9.76622   7
   1   2  -6 284.815 10.0740   2
   1   2  -6 306.154 9.56997   8
  -2  -1   6 303.567 9.01760   5
  -2   3  -6 293.057 10.6170  11
   1  -3   6 302.656 9.78868   4
   2   1   6 310.414 8.48566  10
  -3   1  -6 310.708 11.9954   3
  -3   1  -6 288.439 11.7068  11
  -3   1  -6 311.660 10.1284  12
  -1  -2  -6 304.484 11.5111   9
   2   1   6 287.583 12.8508   2
   3  -1  -6 301.677 11.1058  11
  -2   3  -6 300.603 12.8643   3
  -1   3   6 302.539 9.21064  11
  -1   3   6 299.380 9.27537  11
  -2  -1   6 287.454 11.3300  12
  -3   2   6 309.318 9.38749   7
  -2  -1   6 305.786 10.7336   7
   2  -3  -6 319.106 8.43932  12
   2  -3  -6 304.685 11.2943   9
  -2  -1   6 317.169 9.67144  11
   1  -3   6 292.139 10.7567   5
   2   1   6 293.175 10.0877  11
   1   2  -6 304.064 9.59560  10
  -3   2   6 280.184 11.6365  11
   2  -3  -6 315.164 10.5161  11
   2   1   6 301.043 9.69282  11
   3  -2   6 308.638 12.5140   2
  -2   3  -6 317.348 9.62041   6
   2   1   6 304.319 7.67328   5
   1  -3   6 313.118 9.56474  12
   2  -3  -6 301.934 10.7252   4
  -3   0  -6 61.8566 3.81775  10
   3   0  -6 57.4347 4.53843   8
  -3   0   6 59.0509 5.73065  11
   0  -3   6 55.0201 5.57941  12
   3   0  -6 60.6651 6.57395   2
  -3   0  -6 63.1515 5.95347  11
  -3   0   6 55.6238 6.17406   3
   3   0   6 76.8630 6.04904   8
   3   0   6 53.8285 4.93821  11
   0  -3   6 60.2196 5.42340   9
  -3   0   6 58.6664 5.10562   7
   3  -3   6 56.7933 5.24909  11
   3  -3  -6 62.8848 5.60266  11
   3  -3  -6 61.4689 3.99597   6
   0   3   6 55.9221 6.02349   3
  -3   3  -6 57.3292 5.98471  11
   0  -3  -6 62.5301 5.71500   9
  -3   0  -6 61.0638 5.03307   3
   0  -3   6 53.8595 5.48507   5
   3  -3   6 54.3405 6.76195   2
   3  -3   6 62.9010 5.49267   9
   0  -3  -6 60.2172 4.10271   7
   0   3   6 53.0754 5.36670   8
   0   3   6 52.2079 6.34771  10
  -3   3   6 65.1242 5.99047  11
   0  -3  -6 65.8026 5.55095   4
   3   0   6 59.3945 6.50298   2
   0  -3  -6 55.4051 6.45587  12
  -3   3   6 61.2345 6.79861  10
  -3   0   6 59.7736 5.64032  12
   0   3  -6 56.5158 5.62912  10
   0  -3  -6 64.8618 4.12535  11
  -3   0  -6 55.5827 5.59355  12
  -3   3   6 65.4051 8.11729   3
   3  -3  -6 60.6712 5.25849   9
  -3   0  -6 59.6988 5.31961   7
   0   3  -6 53.5507 4.83952   6
   3   0  -6 60.4141 4.83336  11
  -3   3   6 57.8956 3.60406   7
   3  -3  -6 50.7745 6.48044   2
   0   3  -6 64.0439 5.97612   3
   0   3   6 66.2173 3.42238  11
   3  -3   6 51.2927 5.37676   5
  -3   3  -6 59.6089 7.44617   3
   0   3   6 61.3529 2.95367  11
  -3   0   6 58.9799 3.63721   5
  -2  -2   6 14.2389 4.36665   4
  -2   4   6 16.0986 4.98250  10
  -4   2  -6 14.1542 3.17509  12
  -2   4   6 7.77896 2.72697  11
  -4   2  -6 10.3711 4.72059  11
   4  -2  -6 8.90556 5.29375   2
   2   2  -6 12.8096 2.66359  10
   2  -4   6 9.41747 3.38337   4
  -2  -2  -6 17.9193 4.41462  12
  -2   4  -6 5.94244 4.68390   3
   2   2  -6 9.42166 3.11403   8
  -2  -2  -6 8.76460 3.41806   7
   2   2   6 9.83480 3.83115   8
  -4   2   6 9.33760 3.04362   7
  -4   2  -6 17.9398 6.44097   3
  -4   2  -6 5.96259 3.40516   7
  -4   2   6 11.1891 4.64779  11
   2  -4  -6 16.1727 3.75035  11
  -2   4  -6 7.85332 2.94029  11
   2  -4  -6 14.5173 3.53314   9
   2   2   6 12.0691 4.14953   2
  -2   4   6 12.2098 5.76219   3
  -2  -2   6 10.4757 4.07677  12
   4  -2   6 10.1018 3.48909  11
   4  -2   6 8.51131 4.35487   8
  -2  -2  -6 7.31285 3.70810   4
  -4   2   6 11.4965 5.91084   3
  -2   4  -6 7.17615 4.86816  10
   2  -4   6 5.03346 3.87022   5
   4  -2  -6 14.5159 3.83496  11
   4  -2   6 2.42998 5.14871   2
   2   2   6 11.6777 2.48494  11
   2  -4  -6 10.4604 2.83197  12
  -2  -2   6 9.63314 3.27915   7
   2   2  -6 2.83077 3.80689   2
   2  -4  -6 14.7653 3.93521   4
  -2  -2   6 9.20454 3.03969   5
  -4   2   6 15.6048 4.22545  10
   2  -4   6 7.11509 3.53339   9
   2   2   6 10.2131 2.98055  10
  -4   1   6 741.519 18.1575   5
   4  -3  -6 740.438 25.7024   2
   3  -4   6 719.003 21.3886  11
  -3  -1  -6 740.410 23.3080  12
   4  -1   6 759.346 23.3182   8
  -3  -1  -6 725.405 22.9860   4
  -4   1   6 762.121 21.8487   7
  -4   3  -6 754.668 24.3427  11
  -1  -3   6 716.998 21.2189   7
   4  -3  -6 735.552 21.7543   9
   4  -1   6 740.433 22.6271  11
  -3   4   6 741.287 22.4304  11
   1   3   6 714.510 21.5570  10
   3   1  -6 732.631 19.8491  11
   1  -4  -6 685.668 21.8686   4
   1   3   6 722.912 22.5891   2
  -1  -3   6 747.163 22.6699   9
  -4   3  -6 698.486 25.9472   3
   3   1  -6 747.808 19.8059   8
  -3  -1  -6 742.929 21.9318   7
  -1   4  -6 734.796 24.2898   3
  -1   4  -6 717.421 23.5513  10
   4  -3  -6 747.131 23.3075  11
  -1  -3   6 737.771 21.3030   5
   1   3   6 735.121 22.7126   8
   3  -4   6 745.789 20.1237   4
   3  -4   6 747.533 22.2389   5
   3  -4   6 699.977 22.0538   9
   3  -4   6 711.760 23.7547   2
  -1  -3   6 748.966 22.6820   4
  -4   1   6 703.851 23.3518  11
  -4   1   6 741.508 22.0037  12
   4  -1   6 731.195 24.5760   2
   1  -4  -6 719.070 22.6073  12
  -3   4   6 724.506 24.6203  10
  -1  -3   6 720.052 22.8280  12
  -3   4   6 717.670 26.6446   3
  -3  -1  -6 733.419 22.3540  11
   1  -4  -6 742.467 26.7347   9
   3   1  -6 738.903 23.4139   2
  -4   1   6 732.349 24.2927   3
  -1   4  -6 752.634 19.4866   6
   3  -4  -6 716.984 21.8266  11
  -4   3   6 739.718 23.3452  10
  -1   4   6 735.533 24.0763   3
  -4   1  -6 709.484 22.7855   3
  -1  -3  -6 737.409 23.2846   9
   1  -4   6 710.182 20.3255  12
  -1   4   6 725.111 24.0808  10
   4  -1  -6 695.343 20.6734   8
   1   3  -6 730.761 21.6394   6
   3   1   6 743.082 22.2690   8
   3   1   6 738.891 20.5532  11
   4  -3   6 750.720 24.0425   8
   4  -1  -6 733.716 22.3269  11
   3  -4  -6 724.284 21.7088   4
   1  -4   6 730.149 21.1465   4
   3  -4  -6 702.004 24.5369   2
   1  -4   6 730.482 22.2761   5
  -3   4  -6 724.065 22.0534  11
  -1  -3  -6 733.872 20.4356   7
  -3  -1   6 742.197 18.5881   5
  -4   1  -6 749.648 22.2761   7
   1   3  -6 671.967 20.2232   8
   1   3  -6 735.839 20.8698  10
  -4   3   6 725.938 26.7978   3
  -3   4  -6 686.541 25.5577   3
   4  -3   6 718.986 22.6330  11
  -3   4  -6 738.231 24.4085  10
   3   1   6 741.828 23.8927   2
  -4   1  -6 693.114 23.5701  11
   1   3  -6 744.552 21.5255   2
   1   3  -6 716.638 20.8520   3
   3  -4  -6 695.111 22.0574   9
   4  -1  -6 694.948 24.6807   2
  -1  -3  -6 744.298 23.0147  12
  -4   1  -6 723.309 21.3549  12
  -4   3   6 735.117 23.9995  11
   4  -3   6 743.932 24.7140   2
  -4   1  -6 733.917 18.8992  10
  -1  -3  -6 753.831 22.7925   4
  -4   3   6 729.551 19.5912   7
  -1   4   6 736.139 23.1522   8
  -3  -1   6 715.957 23.1724  12
   1  -4   6 693.653 21.7783   9
   0   4  -6 582.466 20.6433  10
  -4   4   6 553.875 21.7153  10
  -4   0   6 580.162 19.8865   3
   4  -4   6 568.755 17.2720   4
   0   4  -6 585.644 20.5078   3
  -4   4   6 600.140 25.0218   3
   0   4   6 574.389 19.4776   3
   0   4   6 547.272 20.5005  10
   0  -4  -6 544.301 16.7890   7
   0   4  -6 574.519 18.3330   2
   0   4  -6 553.737 18.9501   8
   4  -4  -6 572.521 23.0261   2
   0  -4   6 565.622 19.3687  12
   0   4   6 592.386 20.5796   8
   0  -4   6 563.054 19.6338   9
   0  -4  -6 557.516 19.8160   4
  -4   4  -6 593.669 20.9588  11
  -4   4   6 569.857 20.6076  11
   0  -4  -6 560.425 20.2424   9
   4   0  -6 610.250 22.3175   2
  -4   4  -6 558.202 21.5778  10
   4  -4  -6 553.853 20.0104  11
   0  -4   6 590.464 19.8245   4
  -4   0   6 543.812 19.0272   7
  -4   4  -6 550.985 24.1701   3
   4  -4   6 560.529 19.2120   9
   0  -4   6 569.839 18.1173   7
  -4   0   6 567.888 19.9147  11
   4  -4  -6 557.320 19.3130   9
   4   0  -6 557.557 18.5201  11
  -4   0  -6 583.336 20.1195  12
   4   0   6 541.992 18.7532  11
   4   0   6 540.612 21.8684   2
   4   0   6 575.111 19.8958   8
  -4   0  -6 573.117 19.6442   7
   4  -4   6 565.561 22.0194   2
   4  -4   6 592.785 20.1700  11
   4   0  -6 550.762 17.2690   8
   0  -4   6 560.530 19.3603   5
   0  -4  -6 581.985 19.7107  12
  -4   0   6 581.641 20.1772  12
  -4   0  -6 569.176 20.9665  11
   0   4  -6 581.548 17.8570   6
   2   3   6 71.9687 8.42585   8
  -2   5  -6 76.9194 4.87354  11
  -5   3  -6 68.2515 8.69122  10
  -5   3  -6 77.7907 8.51200   7
   3  -5   6 60.3380 8.14835   5
   3  -5   6 93.1533 8.32406   4
   5  -2   6 72.8467 8.98264   8
   3   2  -6 80.5171 9.29591   2
   3   2  -6 76.0066 4.58771  11
   5  -2   6 84.2149 10.7666   2
  -3   5   6 85.8177 7.79922  11
  -2   5  -6 74.8695 10.8215   3
  -2   5  -6 76.8430 10.1972  10
  -2  -3   6 69.7722 8.51997   4
   5  -2   6 72.4305 9.27120  11
  -2  -3   6 84.8281 8.98699   5
  -5   3  -6 86.4336 11.6046  11
  -3  -2  -6 83.5449 8.87118   7
   2  -5  -6 92.4677 9.41471   4
  -5   3  -6 76.6163 12.2316   3
   2   3   6 66.8272 8.79474   2
  -3  -2  -6 66.5673 8.61450  12
  -3   5   6 69.1484 11.1808   3
  -3   5   6 58.3520 9.57223  10
   5  -3  -6 76.0868 10.0566  11
  -2  -3   6 69.1165 9.02697  12
  -5   2   6 78.3464 8.48248   7
  -3  -2  -6 93.7761 10.0988   4
   2  -5  -6 76.3845 9.43076   9
  -5   2   6 94.0410 11.8465  11
  -5   2   6 69.3636 11.1984   3
   5  -3  -6 75.4839 10.8260   2
  -2  -3   6 94.5362 8.90886   7
   3  -5   6 84.7793 9.74951   9
   2   3  -6 76.5573 8.77405   2
   5  -2  -6 85.8292 10.7110   2
  -3   5  -6 66.8375 10.6467   3
  -5   2  -6 71.0905 7.78112   7
  -2   5   6 95.7820 11.8490  10
  -5   2  -6 69.5655 11.1666   3
  -5   3   6 55.7207 9.05159  10
   2  -5   6 58.0939 7.96970   5
  -3   5  -6 74.0608 10.1991  10
  -5   3   6 84.1929 12.5685   3
   2  -5   6 56.3285 7.31862   4
  -2   5   6 76.0932 11.5487   3
  -2   5   6 75.5732 6.22221  11
  -2  -3  -6 81.7715 9.96083  12
  -5   2  -6 88.9116 10.3770  11
   5  -3   6 81.3457 11.4172   2
  -2  -3  -6 67.8788 8.69320   4
  -5   3   6 88.1550 11.4764  11
   5  -2  -6 51.2735 7.24470  11
   3   2   6 67.7897 7.82011   8
   3  -5  -6 81.6428 8.56023   4
   5  -3   6 61.3330 7.88133  11
  -3  -2   6 80.3609 8.72959   7
  -2  -3  -6 70.1093 8.30552   7
  -3   5  -6 75.3668 7.65956  11
  -5   3   6 70.5838 6.96928   7
   5  -3   6 72.1875 9.20138   8
  -5   2  -6 65.3915 7.73719  12
   3  -5  -6 71.1696 9.01834   9
  -3  -2   6 66.7058 8.57037  12
   3   2   6 68.4988 6.12108  11
   2  -5   6 67.5105 8.34693   9
   3   2   6 92.5388 10.2052   2
   5  -1   6 15.4649 7.73140   2
  -4   5   6 50.1936 10.0654  10
   1   4   6 32.4270 7.30207   8
  -5   4  -6 30.4639 7.50334  11
  -1   5  -6 40.5277 9.58363   3
   5  -4  -6 36.4891 7.57851  11
   5  -4  -6 38.4849 6.35418   9
  -4   5   6 28.4141 10.7852   3
  -1  -4   6 34.8363 8.12946   4
  -1  -4   6 41.5973 7.51568   9
   1   4   6 36.1327 7.49489  10
   4   1  -6 20.7985 8.41027   2
  -5   1   6 41.0136 7.52758  12
  -4  -1  -6 18.0276 6.97990  12
  -5   4  -6 25.7903 8.36788  10
  -1  -4   6 27.9410 7.26811  12
  -5   1   6 39.0290 6.88148   7
   5  -1   6 39.5018 6.87644  11
  -4  -1  -6 37.2348 6.80957   7
   1  -5  -6 30.8080 6.90222  12
   1  -5  -6 45.2831 7.62419   9
  -1  -4   6 35.2356 6.41828   7
   5  -4  -6 27.1325 9.36455   2
   4   1  -6 37.4505 5.34313  11
   4  -5   6 39.1880 7.51311   4
  -5   1   6 35.0503 9.36615   3
   4  -5   6 34.2919 9.24417   2
   5  -1   6 46.0484 7.90945   8
   4  -5   6 33.1675 6.47077   9
  -5   4  -6 33.5045 11.0080   3
  -5   1   6 39.1885 9.06933  11
   1  -5  -6 36.2234 7.69224   4
  -1   5  -6 25.0704 8.75827  10
  -4   5   6 32.5382 6.41422  11
  -1  -4   6 33.5340 7.46762   5
   1   4   6 35.3766 7.34638   2
  -1  -4  -6 23.0934 7.33100   4
  -1   5   6 11.1429 8.85900   3
  -1   5   6 24.9956 6.94603   8
  -4  -1   6 13.4717 6.66662  12
   4  -5  -6 11.7596 6.00092   4
  -5   4   6 20.3453 8.84652  10
   1  -5   6 21.0588 6.94293   5
  -4   5  -6 28.9649 9.95804   3
   1   4  -6 28.2753 5.91640   6
  -1  -4  -6 21.4680 5.64406   7
   5  -1  -6 24.2798 8.68133   2
   4   1   6 24.7285 7.92956   2
  -1  -4  -6 18.0234 6.97796   9
  -5   1  -6 32.0983 8.99437  11
  -5   4   6 29.3415 11.1457   3
  -4   5  -6 15.5180 7.72470  10
   5  -4   6 14.1297 6.30486  11
  -1   5   6 25.7387 8.36938  10
  -5   1  -6 25.3792 6.19770  12
   1  -5   6 25.2396 6.28624  12
   4   1   6 13.8009 6.71458   8
  -5   1  -6 18.1378 6.15778   7
   1   4  -6 16.2073 6.61620   2
   5  -4   6 17.7166 5.16520   9
   5  -1  -6 22.1375 5.84702  11
   4  -5  -6 31.8811 9.43819   2
  -5   4   6 23.5266 7.07273  11
   1  -5   6 23.3353 6.64275   9
   5  -4   6 17.3401 8.75655   2
   1  -5   6 13.9588 6.64663   4
  -1  -4  -6 18.3085 6.68743  12
   1   4  -6 24.1454 6.46140   8
  -4   5  -6 17.4346 5.83241  11
  -4  -1   6 13.6864 5.22956   7
   4   1   6 20.3500 4.94035  11
   4  -5  -6 14.5837 5.72306   9
   5  -5   6 261.078 14.8284   9
   0   5  -6 279.274 18.8015   8
   5  -5  -6 285.582 14.3332   4
  -5   5  -6 275.822 18.2856  10
   5  -5  -6 275.418 15.5290   9
   5  -5  -6 277.306 20.1902   2
  -5   5   6 289.018 22.7935   3
   5   0   6 294.794 20.0278   2
   0   5   6 261.080 18.5553   8
  -5   0  -6 236.082 18.0648  12
  -5   0  -6 259.659 15.5952   7
   0  -5  -6 268.111 17.0253   4
  -5   0   6 278.889 16.6640  12
   0  -5  -6 287.501 16.5259  12
   0  -5   6 280.644 14.7416   7
   5   0   6 307.064 16.9906   8
   5   0  -6 257.698 19.4012   2
   0  -5   6 295.601 16.5082   5
   5   0   6 275.440 14.8755  11
   5  -5   6 295.271 20.4176   2
   0   5  -6 271.691 17.3923  10
  -5   0   6 288.170 15.5488   7
  -5   5   6 291.541 20.5955  10
   0  -5   6 270.773 16.7648   9
  -5   5   6 280.286 16.3645  11
  -5   5  -6 281.605 22.3953   3
   5  -5  -6 328.183 19.0088  11
   0  -5  -6 250.662 16.4169   9
   0   5   6 264.109 17.9294  10
   0  -5   6 288.926 16.4903  12
  -5   5  -6 256.435 16.3613  11
   5   0  -6 288.093 14.3522  11
   3  -6  -6 469.001 20.9535   4
   6  -3   6 465.928 21.3853  11
   6  -3  -6 431.709 24.5938   2
  -3   6  -6 467.906 26.5053   3
   3  -6  -6 456.639 21.3509   9
  -3   6  -6 433.604 24.4401  10
  -3  -3  -6 435.287 21.4412   4
  -3  -3  -6 425.931 22.2521  12
  -6   3   6 467.926 22.8098   7
  -6   3  -6 425.005 19.3438   7
  -3   6   6 399.780 26.5634   3
   3  -6   6 434.983 21.1461   9
  -6   3  -6 474.014 23.8960  11
   6  -3  -6 444.757 21.2859  11
   6  -3   6 458.931 23.5716   8
   3   3  -6 438.865 20.8111   6
  -3  -3   6 413.964 22.6523  12
   3   3   6 422.734 22.0784   2
  -3  -3  -6 452.510 19.4281   7
  -6   3   6 442.309 23.5282  11
  -3  -3   6 463.844 19.6418   7
  -6   3   6 459.860 27.3910   3
  -3   6   6 463.344 25.5736  10
   6  -3   6 416.356 25.1609   2
   2  -6  -6 28.4357 9.19588   4
   6  -4  -6 26.1574 8.92369  11
   2  -6  -6 29.0498 8.70980   9
  -2   6  -6 24.4000 13.5872   3
  -6   2   6 14.8490 22.4909   3
  -6   4  -6 29.2698 9.03174  11
   2   4   6 45.4184 10.3231   2
   6  -2   6 27.6529 7.63429  11
   6  -4  -6 13.8780 10.9538   2
  -4   6   6 23.2648 6.93431  11
  -6   4  -6 19.8298 7.53434   7
   4  -6   6 26.2925 8.45332   9
  -4  -2  -6 28.1914 9.22492  12
  -6   4  -6 39.1751 14.9120   3
  -2   6  -6 29.0078 11.1397  10
  -6   2   6 15.0947 10.1694   7
  -4   6   6 7.26111 12.8220   3
   4   2  -6 17.2718 10.8134   2
  -2  -4   6 27.7716 10.2433   4
  -4   6   6 15.0682 11.0771  10
   6  -4  -6 7.89664 6.84910   9
  -4  -2  -6 13.4498 7.46684   7
  -2  -4   6 23.6432 9.36798  12
  -2  -4   6 30.4961 7.77445   7
   6  -2   6 13.2602 10.3724   2
   6  -2   6 33.3189 9.96572   8
  -2  -4  -6 45.0868 8.74619   7
  -4   6  -6 28.1872 13.1057   3
   2  -6   6 31.7512 9.23363   9
   4   2   6 40.2295 7.17190  11
  -2  -4  -6 42.1792 9.69394   4
  -4  -2   6 37.4681 9.47671  12
   4  -6  -6 35.5730 9.06294   4
  -4   6  -6 43.6510 12.3958  10
   6  -2  -6 20.4244 7.29259  11
  -4   6  -6 27.6466 7.02374  11
  -6   2  -6 49.8497 12.4232  11
   6  -4   6 32.9426 8.93992  11
   6  -4   6 35.8839 12.3655   2
   4   2   6 37.6880 11.4718   2
   6  -2  -6 45.0198 12.6919   2
  -6   4   6 32.4727 9.46537  11
  -2   6   6 37.2782 12.2065  10
   4  -6  -6 24.6682 7.92860   9
  -6   4   6 43.5656 14.8342   3
  -6   2  -6 40.5275 8.81554   7
  -4  -2   6 27.9094 7.93179   7
   2   4  -6 42.6025 11.0902   2
  -2   6   6 39.8683 10.1497   8
  -2  -4  -6 34.8005 9.27722  12
   6  -5  -6 8.51626 11.0337  11
  -6   5  -6 15.4242 9.05975  11
  -1  -5   6 32.5071 10.7449  12
  -6   5  -6 11.6635 15.1463   3
  -6   1   6 -0.7168 9.35175  12
   6  -5  -6 1.40423 12.6511   2
   5   1  -6 -1.7241 13.3397   2
   5   1  -6 19.2748 6.57168  11
   6  -1   6 14.7437 7.41781  11
   1  -6  -6 23.2889 10.9398   4
   1   5   6 33.8220 10.2038   8
  -1  -5   6 13.8768 8.59388   7
  -5  -1  -6 15.7594 8.04541   7
  -1   6  -6 11.1857 11.4487  10
  -5   6   6 28.3665 12.7841  10
   5  -6   6 20.1813 8.21589   9
   1  -6  -6 15.9308 9.24029   9
   1   5   6 3.82407 10.2208   2
  -5  -1  -6 23.3276 10.2941  12
  -1  -5   6 24.3318 10.4669   9
  -6   1   6 23.3538 8.38557   7
   5  -6   6 10.9939 13.5763   2
  -5   6   6 5.51490 14.9156   3
   6  -1   6 11.0644 11.8419   2
   6  -5  -6 10.0071 8.00675   9
  -1   6  -6 8.32949 10.2977   8
  -5   6   6 13.5839 7.93113  11
  -1  -5   6 24.4528 11.2126   4
  -6   5  -6 37.6219 13.8060  10
   6  -5   6 15.2590 7.61478   9
  -6   5   6 19.0689 14.7413   3
   1  -6   6 -5.5337 10.3910   4
  -5   6  -6 8.99425 7.55014  11
  -5  -1   6 6.94497 10.0010  12
  -1   6   6 5.02655 9.80898   8
  -6   5   6 0.01129 13.4766  10
   1  -6   6 20.0146 10.0913   9
   6  -5   6 23.1288 10.5127  11
  -6   1  -6 13.2043 8.79017   7
  -1  -5  -6 21.5238 10.4466  12
   5  -6  -6 4.56770 7.95438   9
  -1  -5  -6 12.5797 10.3841   9
   6  -1  -6 21.6315 7.83658  11
  -5  -1   6 6.04053 8.31382   7
  -1   6   6 -3.7120 12.9189  10
  -5   6  -6 -0.6276 12.0013  10
   5  -6  -6 5.17438 8.83304   4
   5   1   6 17.1789 11.8028   2
  -1  -5  -6 18.7213 10.7817   4
   6  -5   6 15.7336 12.5241   2
   5   1   6 12.7112 6.61531  11
   6  -1  -6 16.5147 12.3688   2
  -5   6  -6 30.1096 15.3202   3
  -6   5   6 3.35896 8.16446  11
   0   0  -7 0.54300 0.67923   8
   0   0  -7 2.47976 0.82626  10
   0   0   7 0.12490 0.47840  11
   0   0   7 1.92829 0.90710   3
   0   0  -7 1.46713 0.87597   3
   0   0   7 1.76768 1.04465   6
   0   0  -7 1.56115 0.58811  11
   0   0  -7 -0.4723 0.79975   6
   0   0   7 0.60076 0.42997   9
   0   0   7 0.73996 0.77235  10
   0   0   7 0.87536 0.60696  11
   0   0  -7 1.54405 0.53536  11
  -1   1  -7 3094.66 67.4312   6
   1   0   7 2925.11 66.3935  11
   1   0   7 2975.30 65.7687  10
   0   1  -7 3078.52 65.6148   8
  -1   1  -7 2832.65 66.4109  11
   1  -1  -7 3065.85 66.3168  11
   0  -1  -7 3028.17 64.8852   7
   0  -1  -7 3145.19 67.1211   6
  -1   1   7 3044.92 64.5306   7
  -1   0   7 3042.91 66.1575   2
  -1   0  -7 2954.50 66.5606  11
   1   0   7 3049.97 65.5919   4
  -1   1  -7 3018.25 65.8187   2
  -1   0   7 2915.97 66.3800  12
  -1   1  -7 2915.32 65.8813  11
   1  -1  -7 3046.21 67.1377   2
   1   0  -7 2977.41 66.3186   2
   1  -1   7 2993.34 66.0292  11
   1   0  -7 2910.75 65.7650  11
  -1   0   7 3007.81 65.7269   7
  -1   0   7 3063.55 64.4414   8
   0  -1  -7 3077.28 65.8899   3
   0   1   7 3060.28 66.7026   6
  -1   0  -7 3009.64 65.9420  10
   1  -1  -7 3061.46 64.5185   7
   1  -1  -7 2989.73 65.5253   9
  -1   0  -7 3038.90 68.2548   6
   0   1   7 2851.51 65.5631  11
   0   1  -7 2975.52 65.1202   9
   1  -1   7 3085.83 67.2969   6
  -1   1   7 3077.05 67.6867   3
   0  -1   7 2966.09 65.9053   7
   0  -1   7 2872.65 64.9229  11
  -1   0  -7 2919.70 66.1064  12
  -1   0  -7 2973.60 65.6181   3
   0   1   7 3097.63 65.9158   3
   0   1  -7 2934.35 65.0285  11
   0  -1  -7 2934.98 65.9159   4
   1  -1   7 3075.67 66.1468   2
   0  -1  -7 2925.59 65.7826  11
   1  -1   7 2935.82 65.5496   5
   0  -1  -7 2868.80 65.9810   9
  -1   0   7 3052.29 66.9605   3
   0   1   7 3067.58 66.7808  10
   0   1  -7 2971.02 66.2202   6
   0   1  -7 2995.64 65.2426   4
   1   0   7 2953.44 65.9995  11
   0  -1   7 2986.29 65.1996   9
   0  -1   7 2942.43 66.0693  12
   1  -1  -7 3036.86 65.6498   6
  -1   0  -7 2999.47 65.6303   4
  -1   1   7 3000.60 66.7259  10
   1   0   7 2980.06 66.3505   2
   0   1   7 3011.80 65.6868  11
  -1   1  -7 2983.07 66.6275   3
   0   1  -7 3057.78 64.8792  11
   1   0  -7 3035.63 65.4133  10
  -1   1   7 3052.00 66.5005  11
  -1   0   7 3052.53 65.3906  10
  -1   0   7 3159.47 66.1402  11
   0  -1   7 2938.92 65.8554   5
   1  -1   7 2960.19 66.7263   8
   0  -1   7 3038.16 65.4223   4
   0  -1  -7 2886.49 66.0892  12
   1   0  -7 3235.11 66.2254  11
   2  -1   7 5605.63 117.108   5
   1   1  -7 5545.82 117.298  10
  -2   1   7 5448.13 119.845  11
  -1   2  -7 5277.14 118.204  11
  -1   2   7 5518.59 120.775   3
   1  -2   7 5342.43 117.237   4
   1  -2   7 5500.62 118.419   2
   1  -2   7 5429.08 117.865  11
   1   1  -7 5405.08 116.952   8
   1   1   7 5319.19 119.231   2
   1  -2   7 5423.22 117.990   6
   1   1   7 5452.94 118.287  10
   1   1   7 5651.54 118.305  11
  -2   1  -7 5405.12 116.903   5
   1   1  -7 5355.36 117.350  11
  -1  -1  -7 5611.29 118.468  11
  -1   2   7 5330.48 118.457  11
   1   1   7 5399.30 119.334   8
  -2   1   7 5488.78 118.594  10
  -1  -1   7 5478.03 118.544   9
   1  -2   7 5412.07 118.883   5
  -2   1   7 5497.06 117.878   7
  -1   2  -7 5669.57 117.720  11
   1  -2   7 5303.79 118.445   9
  -1   2  -7 5509.66 118.634   6
   2  -1  -7 5334.89 120.731   2
  -1   2   7 5482.14 118.327  11
  -1   2  -7 5492.63 120.082   3
   1   1   7 5390.10 117.246   5
  -1   2  -7 5492.61 117.381  12
  -1  -1   7 5371.03 117.958   5
  -2   1  -7 5414.04 120.252  11
  -1  -1  -7 5296.92 119.345  12
  -1  -1  -7 5522.62 121.309   6
  -1  -1   7 5377.11 119.089   4
  -1  -1  -7 5406.26 118.961   4
  -2   1   7 5555.33 121.244   3
  -1  -1  -7 5441.15 119.651   9
  -1  -1   7 5235.95 119.458  12
   2  -1  -7 5325.04 119.250  11
   2  -1   7 5272.01 119.190  11
   1  -2  -7 5337.31 118.398  11
   1   1  -7 5455.03 118.368   2
  -2   1  -7 5489.72 117.758  12
   1   1   7 5226.74 117.787  11
  -2   1  -7 5630.63 120.090   3
   2  -1   7 5448.26 119.919   2
   1  -2  -7 5754.96 116.800   6
   1  -2  -7 5248.44 118.631   9
   1  -2  -7 5272.68 118.787   4
  -1  -1   7 5324.97 118.625   7
   1   1  -7 5437.80 116.990  11
  -1   2   7 5432.84 120.300  10
  -1  -1  -7 5451.54 118.225   7
   2  -1   7 5339.47 119.769   8
   1  -2  -7 5467.41 117.937  12
  -2   1  -7 5434.28 121.347   6
   0  -2  -7 776.380 18.0399   7
   2   0   7 780.742 18.1152  10
  -2   2   7 791.358 17.4976   7
   0  -2  -7 744.458 19.9199   9
   0   2   7 769.478 20.1855   8
   0  -2  -7 780.559 18.5118  11
   0  -2  -7 730.158 19.5471   4
   2   0  -7 742.014 19.2524  11
   2   0  -7 744.980 20.4272   2
  -2   2   7 762.333 22.4161   3
   0   2  -7 764.555 19.3150   6
   2  -2  -7 783.259 18.1954   6
   2  -2  -7 749.756 21.5350   2
  -2   0  -7 752.243 19.6215   7
   2   0   7 742.710 19.5390  11
  -2   0   7 746.176 18.0580   5
   2  -2  -7 735.393 19.3218   9
  -2   2  -7 756.414 21.5414   3
   0   2   7 769.156 19.4861   3
   2  -2  -7 747.182 19.9134  11
  -2   0   7 772.876 20.5569   3
   2  -2   7 775.405 19.7963  11
   2   0   7 764.825 17.9249   3
   2   0   7 734.175 20.1409   8
   0  -2  -7 754.908 19.6800  12
   0   2   7 725.849 20.2757  10
   2  -2   7 762.815 20.5862   2
   2   0   7 726.144 20.3735   2
  -2   0  -7 788.474 18.6048   3
   0  -2   7 743.989 19.5526  12
  -2   0   7 786.152 16.9524  10
  -2   2   7 710.932 20.1904  11
   0  -2   7 743.531 19.0137   4
  -2   2   7 780.024 20.8710  10
  -2   0   7 788.003 19.8210  11
  -2   2  -7 740.153 20.5041  11
   0   2   7 794.351 18.2413  11
  -2   0  -7 734.277 22.5248   6
   2   0  -7 786.927 18.0773   8
  -2   2  -7 762.357 20.4693   6
   2  -2   7 755.971 19.1544   5
  -2   0  -7 743.123 20.3407  11
  -2   0  -7 733.223 19.5843   4
   2  -2   7 763.466 20.8332   8
   0  -2   7 744.910 19.0402   9
   0  -2   7 746.284 19.1887   7
  -2   0  -7 711.068 18.3240  10
   0   2   7 778.706 18.1244  11
  -2   0  -7 744.975 19.7711  12
  -2   0   7 753.862 20.1463  12
   0  -2   7 742.818 19.4532   5
  -2   0   7 770.595 19.4582   7
  -2   0   7 724.572 17.8586   8
   1   2   7 691.125 19.7492   8
  -2   3   7 619.901 21.3281  11
  -1  -2   7 683.669 19.1768   9
   1  -3  -7 747.144 18.1168  11
  -3   1   7 714.279 19.4069  12
  -1   3  -7 749.832 16.6652  11
  -1  -2   7 669.976 19.4747   4
   1  -3  -7 717.050 18.4240  12
  -1   3  -7 674.698 16.7799  11
   2  -3   7 709.902 17.5195   4
   2  -3   7 675.109 19.9380   2
   3  -1   7 657.550 19.9574   8
   2   1  -7 676.020 19.5471   2
   3  -2  -7 674.211 19.8940  11
   1  -3  -7 682.421 19.4160   9
  -1  -2   7 681.131 18.4416   5
   2  -3   7 721.013 18.5793  11
   2   1  -7 733.414 18.2283  11
   1   2   7 720.583 17.1241  11
  -3   2  -7 616.724 22.5748  11
  -3   1   7 697.698 20.2899  11
  -3   2  -7 677.615 21.2037   6
  -2  -1  -7 624.924 21.0000   4
  -3   1   7 643.428 21.1001   3
  -3   1   7 666.619 18.4865   7
  -1   3  -7 679.955 20.8331   3
  -3   2  -7 732.868 16.7510  12
   3  -1   7 659.318 19.5762  11
  -3   1   7 702.367 17.6413  10
   2   1  -7 706.405 17.1142   8
  -3   2  -7 687.432 21.8408   3
   2   1  -7 683.987 17.3511  11
  -1   3  -7 692.319 17.9984   6
  -2   3   7 631.221 24.1970   3
  -2   3   7 684.516 21.1833  10
   3  -1   7 687.190 21.0439   2
  -2  -1  -7 723.544 19.2531  11
   1   2   7 677.841 18.7666  10
  -2  -1  -7 679.078 19.9893  12
  -1  -2  -7 821.473 19.4036  11
   1   2  -7 773.419 19.2331   8
  -3   1  -7 741.876 21.8141   3
   2   1   7 748.558 21.6713   2
  -3   2   7 699.700 22.0900  11
   2   1   7 758.132 17.2429   5
  -3   1  -7 723.761 22.0115  11
  -3   1  -7 744.555 19.8206  12
  -2  -1   7 798.775 19.4164  11
  -3   2   7 689.981 25.8136   3
   3  -2   7 748.493 21.3665  11
  -1   3   7 775.323 19.1418  11
   2  -3  -7 789.339 18.3234  12
   3  -1  -7 761.028 19.9730   8
  -1   3   7 760.059 22.4112   3
  -2  -1   7 737.774 21.6173  12
  -1  -2  -7 748.410 19.6279   7
  -2   3  -7 782.296 19.8086   6
  -1   3   7 792.256 18.6300   7
   2   1   7 764.204 20.1213  11
  -2   3  -7 774.719 20.7564  11
  -2  -1   7 744.312 20.5698   7
   2   1   7 770.338 21.2346   8
  -1  -2  -7 753.837 21.7168   9
  -1  -2  -7 730.348 21.9909  12
   2   1   7 733.175 19.5836  11
  -1   3   7 751.862 19.1357  11
   1  -3   7 780.121 19.3516  12
   1  -3   7 749.294 19.5012   4
  -3   2   7 746.270 21.0341  10
  -3   2   7 775.562 19.1719   7
  -2   3  -7 727.845 23.0172   3
   2  -3  -7 741.867 20.8424   4
   3  -1  -7 742.101 21.1327  11
   2  -3  -7 737.599 20.9000   9
   2   1   7 781.414 18.3596  10
   1  -3   7 731.831 20.3314   9
  -1  -2  -7 739.403 21.0674   4
   2  -3  -7 715.603 22.9828   2
  -2  -1   7 768.555 20.7868   5
   2  -3  -7 777.371 20.4999  11
   1   2  -7 755.137 20.0489   2
   3  -2   7 767.541 22.5756   8
   1   2  -7 754.908 19.4911  10
   3  -2   7 723.526 22.5225   2
   1  -3   7 734.278 20.8616   5
   0  -3   7 249.846 10.6323  12
   0   3  -7 263.934 9.72591   6
   0  -3  -7 263.999 9.26397  11
   3   0   7 264.246 10.2296  11
   3  -3  -7 245.209 10.6097  11
   3   0   7 252.961 11.7185   2
   0  -3   7 253.096 10.1322   5
   0  -3  -7 267.796 8.58015   7
  -3   0   7 265.186 10.9259  12
   0  -3  -7 258.989 10.7089  12
   0   3  -7 261.509 10.8043   3
   0  -3   7 279.771 10.5327   9
   0   3   7 266.820 10.9152   8
   3  -3   7 273.280 12.1239   8
   0   3   7 275.672 10.6786   3
  -3   0   7 256.619 10.2627   7
   0   3   7 255.449 12.6181  10
   0   3   7 291.218 7.90904  11
   0   3   7 259.413 7.56072  11
   0  -3  -7 263.339 10.8720   9
   3   0  -7 257.640 9.86244  11
  -3   3   7 265.368 7.91821   7
   0  -3   7 259.347 9.93049   7
   3  -3   7 274.898 10.5726   9
  -3   3   7 275.679 14.1382   3
   3  -3   7 258.048 12.4563   2
   3  -3   7 252.310 11.2826   5
  -3   0  -7 266.964 10.6017  12
   0   3  -7 249.472 10.8278  10
  -3   0   7 280.481 11.2731   3
   3   0  -7 270.595 8.93042   8
   0  -3  -7 266.750 10.6595   4
   3  -3  -7 263.970 12.8235   2
  -3   0   7 265.921 10.6302  11
  -3   3   7 252.269 11.7816  10
  -3   0  -7 273.872 9.18332   3
  -3   3   7 270.637 11.4834  11
   3  -3  -7 282.471 7.46186  12
  -3   0   7 276.965 8.10427   5
  -3   3  -7 276.471 13.3382   3
  -3   0  -7 255.988 8.17809  10
  -3   0  -7 272.314 11.3211  11
   3   0  -7 257.396 11.5148   2
  -3   3  -7 270.007 11.4625  11
   3  -3   7 267.363 10.5404  11
   0  -3   7 218.255 11.9046   4
   3  -3  -7 277.611 8.37552   6
   3  -3  -7 267.058 10.2427   9
  -3   3  -7 274.460 10.9328   6
  -3   0  -7 270.395 10.5561   7
  -2   4   7 102.203 9.47828  10
   4  -2   7 105.493 9.94247   2
  -2  -2  -7 112.353 8.24770  12
   2   2  -7 127.252 5.97531  10
   2   2   7 113.204 8.53584   2
   2   2   7 119.062 6.23988  10
   2  -4  -7 119.424 8.06089   9
  -2  -2  -7 114.178 8.36233   4
  -2  -2   7 114.482 8.49898   4
   2  -4   7 117.214 6.63325   4
  -4   2   7 122.320 7.85945  10
   4  -2  -7 116.367 10.4575   2
   2   2  -7 112.950 6.26347   8
   2   2   7 116.595 5.72482  11
   2  -4   7 116.453 7.83151   9
  -2   4   7 100.453 10.3241   3
  -2   4  -7 118.755 10.1405   3
  -2  -2   7 121.736 7.62452   7
  -4   2   7 123.169 7.13418   7
   2  -4   7 119.706 8.28611   5
  -4   2  -7 120.802 10.6443   3
  -4   2  -7 137.577 9.88890  11
   2  -4  -7 122.191 6.18431  12
   4  -2  -7 116.953 8.37438  11
  -2  -2   7 120.482 6.67990   5
  -4   2  -7 125.506 6.43136  12
  -2  -2  -7 119.201 7.53477   7
  -4   2   7 129.660 9.62906  11
   2   2  -7 121.917 8.30774   2
  -2   4   7 111.987 6.65365  11
  -4   2   7 117.638 11.2213   3
   2  -4  -7 124.736 7.82268   4
   4  -2   7 115.150 8.22605  11
   2  -4  -7 126.009 7.53191  11
  -2  -2   7 115.410 8.51372  12
   4  -2   7 125.282 8.86999   8
   2   2   7 116.056 7.96749   8
  -2   4  -7 127.407 6.68259  11
   3   1  -7 79.6942 5.66842   8
  -3   4   7 77.8365 7.30091  11
  -1  -3   7 79.2343 7.81253  12
  -3  -1  -7 79.2807 6.90741   7
   4  -1   7 84.8807 7.36666  11
   4  -3  -7 86.9163 9.91547   2
  -4   1   7 77.7526 6.72116   7
   3  -4   7 81.5279 8.90413   2
  -3  -1  -7 79.4112 8.28649  11
   1   3   7 85.3041 7.75248   8
  -4   3  -7 80.6325 8.42491  11
  -3   4   7 81.1411 10.3108   3
   3  -4   7 87.1513 5.91348   4
   3   1  -7 72.1707 8.06859   2
   1   3   7 81.1244 7.57382  10
  -1  -3   7 72.8158 7.49265   4
  -4   1   7 70.0668 8.62138  11
  -3  -1  -7 80.5863 7.79593  12
  -3  -1  -7 88.2171 7.41351   4
   1   3   7 78.3443 7.33395   2
  -4   3  -7 88.2594 10.8295   3
   4  -1   7 90.3128 9.34587   2
   3  -4   7 78.8123 7.18809  11
  -4   1   7 83.3050 7.43036  12
   1  -4  -7 82.8648 7.12823  12
  -1  -3   7 87.8792 7.66956   9
   1  -4  -7 81.2321 7.14685   4
   1  -4  -7 81.5481 7.25848   9
   3  -4   7 90.6246 7.31318   9
   3  -4   7 76.3525 7.33071   5
   3   1  -7 78.5156 5.44670  11
  -1  -3   7 89.3477 6.86530   7
  -3   4   7 85.8241 9.25616  10
  -1   4  -7 88.6640 6.13175   6
  -1   4  -7 84.3408 8.35983  10
   4  -1   7 78.8549 8.34892   8
  -4   1   7 69.7449 4.80242   5
  -4   1   7 95.1231 9.87248   3
  -1   4  -7 70.9509 9.08539   3
   4  -3  -7 83.6263 8.06285  11
   4  -3  -7 84.8563 6.79771   9
  -1  -3   7 66.1369 7.21644   5
  -4   1  -7 95.4044 7.43615  12
   4  -1  -7 90.8461 6.96540   8
  -3   4  -7 92.1356 10.4944   3
  -4   1  -7 82.2897 9.08783   3
  -3  -1   7 94.9217 7.31785   7
  -3   4  -7 98.2291 7.52350  11
   4  -3   7 91.5816 8.61060   8
  -1  -3  -7 104.925 8.23626   4
   1   3  -7 93.4179 7.10180   3
  -3  -1   7 98.3188 5.76484   5
   4  -1  -7 85.1456 9.99328   2
   3  -4  -7 99.6576 7.79399   9
   3  -4  -7 90.0716 7.50275  11
  -1   4   7 100.369 9.48691  10
  -1   4   7 97.4064 8.30686   8
  -4   3   7 100.029 6.16471   7
   1   3  -7 92.9101 7.16309  10
   3  -4  -7 94.9816 10.1484   2
   3   1   7 103.414 8.89541   2
   1   3  -7 86.4703 7.20664   6
   1  -4   7 93.0949 6.90526  12
   1  -4   7 98.5277 7.42786   4
   1  -4   7 98.0264 7.36272   5
   1  -4   7 96.8527 7.74587   9
   3   1   7 100.168 8.23477   8
   3  -4  -7 98.1224 7.88805   4
  -1  -3  -7 113.546 6.95838   7
  -4   3   7 94.4320 11.6579   3
  -1  -3  -7 88.3077 7.89947  12
   3   1   7 89.5550 6.28133  11
   4  -3   7 97.5941 8.13988  11
  -1  -3  -7 90.4066 8.18867   9
  -3  -1   7 97.6615 8.26240  12
  -4   1  -7 96.6312 7.58184   7
   4  -1  -7 96.8658 7.49683  11
   4  -3   7 112.398 10.0065   2
  -4   3   7 89.0764 8.85953  11
   1   3  -7 89.3095 6.70273   8
  -4   3   7 82.4942 8.77743  10
  -1   4   7 88.9701 9.66620   3
   1   3  -7 92.5986 7.52911   2
  -4   1  -7 99.9599 9.32433  11
   0  -4   7 65.2110 7.15759   7
   0   4  -7 71.7163 8.36954  10
   0   4  -7 88.5378 7.30646   2
   4   0  -7 79.9793 7.35812   8
  -4   0   7 60.6330 7.70475   3
  -4   4  -7 75.3568 10.9778   3
   4   0   7 78.0444 7.42759  11
   4  -4   7 73.2902 6.86812   4
   4  -4  -7 78.4387 8.84299  11
   4  -4   7 67.2353 7.25458   9
   0  -4  -7 79.1043 8.33744   4
  -4   0  -7 80.9103 7.93306   7
   0   4  -7 81.3243 7.99614   8
   0  -4  -7 63.8212 6.38384   7
  -4   4   7 87.1770 10.0064  10
   0  -4   7 70.4279 8.15151   5
   4  -4  -7 80.2586 9.98882   2
   0  -4   7 74.4135 8.63116  12
   4  -4   7 77.0474 8.69967  11
   0  -4   7 68.1988 8.13802   9
   4  -4   7 96.7939 10.8565   2
   0   4   7 62.1935 7.56528   8
   0  -4   7 72.4217 8.81475   4
   4   0   7 66.3201 8.87670   2
  -4   0  -7 92.0692 10.4555  11
  -4   0   7 68.6082 8.31756  12
  -4   4  -7 84.0777 10.1451  10
   0   4   7 78.0804 9.49126   3
  -4   0   7 68.5066 8.98147  11
   4   0  -7 83.8081 10.0851   2
   4   0  -7 66.7341 7.09557  11
  -4   0   7 72.9387 7.54137   7
  -4   4  -7 64.6332 8.32644  11
   0  -4  -7 90.4020 8.81538  12
   4  -4  -7 74.0611 7.43771   9
  -4   4   7 68.7440 10.1833   3
   0   4   7 82.1143 9.64869  10
  -4   0  -7 78.7332 8.34736  12
   4   0   7 80.3127 8.81279   8
   0  -4  -7 75.1778 8.11164   9
   0   4  -7 74.0643 8.48282   3
  -4   4   7 66.2098 8.24871  11
   0   4  -7 77.9475 7.68222   6
   5  -3  -7 448.345 21.3769   2
  -5   3  -7 457.007 20.6256  11
  -3  -2  -7 443.293 18.8378   4
  -3  -2  -7 427.685 19.0893  12
  -2   5  -7 423.523 12.2685  11
  -5   3  -7 459.479 18.5642  10
  -2  -3   7 464.224 19.3001  12
  -3   5   7 438.034 22.5356   3
  -5   3  -7 477.278 23.0058   3
   3   2  -7 460.817 18.7741   2
   3   2  -7 443.814 12.1543  11
  -5   2   7 471.253 22.9179   3
  -2  -3   7 433.862 16.5226   5
  -3   5   7 445.316 16.3275  11
  -2   5  -7 438.946 20.4591  10
   3  -5   7 449.888 18.2425   5
   3  -5   7 441.683 18.1986   9
   2   3   7 463.756 19.1932   2
   2   3   7 475.250 18.2649   8
  -5   2   7 464.101 16.8805   7
  -5   3  -7 441.050 16.9655   7
  -2  -3   7 466.594 17.5838   7
  -5   2   7 417.974 19.8892  11
   2  -5  -7 451.064 18.6848   9
   5  -2   7 479.012 18.8888  11
  -3  -2  -7 474.956 17.4007   7
   5  -3  -7 456.120 19.1078  11
   3  -5   7 455.909 16.1332   4
   5  -2   7 431.734 21.5903   2
   2  -5  -7 422.810 17.9095   4
  -3   5   7 473.114 21.6792  10
  -2  -3   7 429.168 18.6557   4
  -2   5  -7 445.402 22.1754   3
   5  -2   7 459.900 19.7554   8
   2  -5   7 427.463 17.6679   9
   2  -5   7 393.486 17.2214   5
  -5   3   7 421.805 19.4930  11
   3  -5  -7 398.185 16.1745   4
  -5   3   7 406.158 18.2162  10
   2  -5   7 399.042 15.7445   4
  -2   5   7 443.846 20.4562  10
   5  -3   7 392.847 21.0128   2
  -3  -2   7 396.474 16.4848   7
  -5   3   7 415.569 14.9153   7
   5  -2  -7 407.481 20.8570   2
  -2   5   7 399.649 13.3590  11
   3   2   7 413.937 13.4506  11
  -3   5  -7 404.460 15.1352  11
  -2  -3  -7 424.443 15.9065   7
  -2   5   7 403.206 21.1023   3
   2   3  -7 404.255 17.1969   2
  -3   5  -7 418.129 19.6784  10
  -2  -3  -7 409.790 18.1900  12
  -5   2  -7 424.166 14.9780  12
   5  -2  -7 405.197 17.4268  11
   5  -3   7 403.882 18.5747   8
  -5   2  -7 417.191 21.5354   3
  -5   2  -7 427.604 19.7990  11
   2   3  -7 370.049 16.8450   6
   3   2   7 387.821 16.6580   8
  -3   5  -7 368.503 21.0451   3
   5  -3   7 378.697 17.4782  11
   3  -5  -7 398.866 17.0294   9
  -5   3   7 375.015 22.3488   3
  -3  -2   7 411.695 18.2558  12
  -2  -3  -7 402.777 17.6844   4
   3   2   7 416.003 18.6836   2
  -5   2  -7 384.486 16.3919   7
   4  -5   7 280.128 17.5966   2
   4  -5   7 293.348 14.9648   9
  -4   5   7 295.835 14.8490  11
  -4   5   7 304.851 20.9225   3
  -4  -1  -7 293.277 16.4203  12
  -1  -4   7 270.875 15.4863  12
   1   4   7 290.812 15.1472  10
  -5   4  -7 261.815 17.2309  11
   5  -1   7 262.810 18.9698   2
   5  -1   7 289.088 15.8608   8
  -1  -4   7 301.775 16.1494   4
  -4   5   7 293.892 18.4505  10
   1  -5  -7 278.132 15.5625   4
  -5   1   7 286.133 14.7434  12
  -5   4  -7 311.786 20.9550   3
   1  -5  -7 259.897 17.1242   9
   1   4   7 315.123 16.2080   8
  -4  -1  -7 303.860 15.1657   7
  -1  -4   7 296.276 15.9482   9
   5  -1   7 277.688 15.1182  11
  -5   4  -7 286.064 16.4630  10
   4   1  -7 316.875 17.3397   2
   1  -5  -7 276.962 14.1190  12
   5  -4  -7 294.763 14.3167   9
  -1   5  -7 300.258 18.5131   3
   5  -4  -7 297.556 16.2125  11
  -1  -4   7 321.703 14.9238   5
  -5   1   7 302.340 17.9668   3
  -5   1   7 302.469 14.3057   7
   4   1  -7 289.156 11.9819  11
   5  -4  -7 295.397 19.3124   2
  -5   1   7 255.671 17.0779  11
  -1   5  -7 270.028 16.6979  10
   1   4   7 300.633 15.8386   2
  -1  -4   7 285.396 13.7471   7
   1  -5   7 275.946 15.2648   9
   1  -5   7 294.237 15.4563   5
   1  -5   7 286.716 14.1792   4
  -5   1  -7 294.040 18.0900  11
   4  -5  -7 291.749 19.2451   2
   4   1   7 322.593 15.3765   8
  -5   1  -7 310.296 14.6664  12
  -4   5  -7 277.457 17.1068  10
   1  -5   7 292.936 14.1716  12
  -1   5   7 285.905 18.0252  10
   4   1   7 297.065 17.4708   2
   5  -4   7 268.694 15.8100   9
  -4   5  -7 285.769 14.7792  11
  -5   4   7 325.328 16.9913  11
  -1  -4  -7 288.780 15.4787   4
  -1  -4  -7 307.178 13.3965   7
  -4  -1   7 286.359 16.3901  12
   4   1   7 309.270 13.2697  11
  -1  -4  -7 331.370 16.6448  12
   1   4  -7 306.402 13.9720   8
   4  -5  -7 311.239 15.1592   9
   5  -4   7 322.506 16.5111  11
  -5   4   7 331.011 18.9730  10
   5  -1  -7 301.381 14.9480  11
   4  -5  -7 298.636 14.5289   4
   1   4  -7 288.951 14.8504   2
  -4  -1   7 273.314 15.8246   7
   1   4  -7 322.047 14.9692   6
  -1  -4  -7 305.286 16.6517   9
  -1   5   7 293.887 16.6078   8
  -5   4   7 313.717 21.2586   3
   5  -1  -7 287.334 18.1856   2
  -1   5   7 310.999 17.6771   3
  -4   5  -7 302.753 22.4539   3
  -5   1  -7 294.343 15.3116   7
   5  -4   7 297.942 19.1789   2
  -5   5   7 93.7502 13.4208  10
   0  -5   7 61.7792 9.39691   5
  -5   0  -7 60.9835 10.2016  12
   5   0  -7 75.3543 12.8406   2
   5  -5  -7 65.8251 8.73433   9
   5   0   7 72.4098 10.0204   8
   0  -5  -7 68.7148 10.2782   4
   5   0   7 56.4056 11.1802   2
  -5   5   7 89.2476 14.4116   3
   5  -5   7 81.7750 10.2050   9
   0   5   7 62.1919 11.1276  10
   0   5   7 53.5468 9.49716   2
  -5   5  -7 65.3355 9.29838  11
   0  -5  -7 43.7986 8.87422   9
   0  -5   7 59.9343 8.43136   7
   0  -5  -7 64.8846 9.84481  12
  -5   0   7 67.2735 8.53128   7
   5  -5  -7 58.9927 11.8722   2
   0  -5   7 65.7123 9.63902   9
   0  -5   7 63.9311 10.0942  12
   0   5  -7 80.5668 9.71875   8
   5  -5  -7 85.4940 11.5978  11
   5  -5  -7 64.5851 10.3560   4
  -5   5  -7 48.9197 13.0678   3
   5   0  -7 53.7581 7.65089  11
   5   0   7 54.3130 8.08110  11
  -5   5   7 55.6013 8.59039  11
   0  -5   7 63.7299 12.0549   4
   0   5   7 75.4926 10.5080   8
  -5   0  -7 76.6990 9.27432   7
   0   5  -7 66.6140 10.8571  10
   5  -5   7 80.5282 13.1484   2
  -5   5  -7 65.4437 11.2471  10
  -5   0   7 52.3663 9.50561  12
   6  -3   7 893.399 36.1961   2
  -3   6   7 899.443 35.9523  10
   3   3   7 877.308 33.5022   2
   3   3  -7 924.476 38.6639   2
   3   3   7 977.848 31.9493   8
  -3   6   7 870.801 29.0895  11
  -6   3   7 935.760 38.6464   3
  -3  -3  -7 895.016 29.6739   7
   3  -6  -7 916.258 32.5822   9
   6  -3   7 914.531 31.8668  11
  -3  -3  -7 922.614 32.7884  12
  -3  -3  -7 906.632 32.7226   4
  -3   6   7 1014.04 38.9745   3
  -3  -3   7 947.994 30.6980   7
  -6   3   7 924.548 34.2744  11
  -6   3  -7 926.430 34.7653  11
  -3   6  -7 920.044 37.3793   3
  -3   6  -7 935.679 36.1455  10
   6  -3  -7 930.993 36.1255   2
  -3  -3   7 933.030 33.1942  12
   3  -6   7 905.595 31.8351   9
   6  -3   7 897.529 33.2790   8
  -6   3   7 949.252 31.2769   7
   6  -3  -7 941.068 32.3656  11
   3  -6  -7 925.077 30.5528   4
   3   3  -7 956.823 31.9106   6
  -6   3  -7 958.801 30.6145   7
  -6   4  -7 11.8122 14.3311   3
   2  -6  -7 -5.7415 9.05654   4
   2  -6  -7 5.08977 8.48697   9
  -2  -4   7 2.64810 7.08116   7
  -2   6  -7 12.9381 12.2449   3
  -4  -2  -7 6.31005 6.95639   7
  -2   6  -7 2.33715 10.4479  10
  -2  -4   7 1.72480 8.33291  12
   2   4   7 -7.5661 8.66673   2
  -6   4  -7 2.83606 8.71390  11
  -4   6   7 6.77249 12.5849   3
  -4   6   7 -9.4976 10.6614  10
   6  -2   7 -3.7506 6.31799  11
   6  -4  -7 -11.291 10.4769   2
   6  -4  -7 4.80975 6.35962   9
   2   4   7 0.38689 10.1950   8
   6  -2   7 19.7562 9.26041   8
  -4  -2  -7 -3.3631 8.57272  12
   4  -6   7 -2.4723 7.56534   9
   4   2  -7 7.07182 9.93270   2
  -6   2   7 8.20667 7.31691   7
  -4   6   7 -4.8288 5.97976  11
   6  -4  -7 1.65073 8.04374  11
  -6   4  -7 0.02527 7.19434   7
   6  -2   7 -4.5706 10.7910   2
  -2  -4   7 1.18347 9.16785   4
   4  -6  -7 20.3897 7.89893   9
  -6   4   7 22.3633 14.2534   3
  -6   2  -7 7.06949 10.6589  11
   4  -6  -7 17.4798 7.77996   4
  -4   6  -7 27.7037 6.83412  11
  -6   2  -7 7.04550 7.88443   7
   4   2   7 8.03788 9.73546   2
  -4   6  -7 4.99888 11.7524   3
  -4  -2   7 19.9572 7.35997   7
  -4  -2   7 18.4159 8.64153  12
   6  -2  -7 6.69022 6.72387  11
   2  -6   7 18.1191 8.69618   9
  -2  -4  -7 5.84646 9.09646  12
  -2  -4  -7 19.3726 8.12898   7
  -2   6   7 23.5840 9.79955   8
   6  -4   7 42.1306 9.66085  11
  -4   6  -7 38.4353 10.9505  10
   6  -4   7 21.2108 12.0264   2
  -2  -4  -7 8.26724 8.83906   4
   2   4  -7 14.7257 9.14487   6
   6  -2  -7 21.8361 12.0711   2
  -6   4   7 15.5148 8.47826  11
  -2   6   7 21.8889 11.9174  10
  -1  -5   7 127.050 13.7611   5
   5  -6   7 125.331 16.5809   2
   1   5   7 119.667 13.8652   2
  -5   6   7 128.756 14.1858  11
   5   1  -7 124.367 16.3532   2
  -6   1   7 93.2162 11.4719   7
   1  -6  -7 92.0197 12.3821   9
   6  -5  -7 111.321 14.6389  11
   1  -6  -7 107.344 12.9399   4
  -6   5  -7 140.122 17.0447  10
   1   5   7 139.692 17.0344   8
  -5  -1  -7 110.670 13.5905  12
   6  -1   7 116.579 13.4249  11
   6  -5  -7 117.146 13.4918   9
  -1  -5   7 154.372 16.6406   4
  -5   6   7 121.890 15.9833  10
  -1  -5   7 126.676 14.8117   9
  -1  -5   7 96.4223 13.6969  12
  -1   6  -7 126.790 15.4950  10
  -1  -5   7 119.647 14.2105   7
   6  -5  -7 100.430 15.7027   2
  -1   6  -7 125.545 13.4186   8
   5   1  -7 122.034 10.5651  11
  -5  -1  -7 117.734 13.9110   7
  -5   6   7 110.784 18.1930   3
  -6   5  -7 112.500 13.8973  11
  -6   5  -7 131.097 19.4620   3
   6  -1   7 118.229 16.9049   2
   5  -6   7 118.496 12.4676   9
   5  -6  -7 139.721 14.5578   9
   5   1   7 126.260 16.1735   2
  -6   5   7 137.183 15.8537  11
  -6   5   7 156.437 18.1204  10
  -5   6  -7 135.338 17.3042  10
  -1   6   7 200.869 21.6639  10
   6  -1  -7 134.935 18.1311   2
  -1  -5  -7 145.858 16.4132   4
  -5   6  -7 142.740 14.6029  11
  -5   6  -7 129.713 19.1270   3
   5  -6  -7 143.769 13.9575   4
   6  -5   7 186.729 21.5490   2
  -1  -5  -7 164.423 17.1148  12
   1  -6   7 137.700 15.2035   9
   6  -5   7 158.833 13.7985   9
   6  -5   7 185.669 18.7105  11
  -5  -1   7 157.047 17.5526  12
  -1  -5  -7 135.741 17.3164   9
  -6   5   7 144.664 20.0610   3
   6  -1  -7 153.645 14.1170  11
   5   1   7 129.955 12.4515  11
  -6   1  -7 167.871 15.2563   7
  -5  -1   7 121.632 14.3284   7
  -1   6   7 149.718 18.4006   8
   0   0  -8 0.98510 0.95283  10
   0   0   8 0.25974 0.46247   9
   0   0  -8 -0.1185 0.70846   8
   0   0   8 -0.3004 0.96401   6
   0   0   8 2.51709 0.82754   8
   0   0  -8 -0.6121 1.00743   6
   0   0   8 1.47427 0.64168  11
   0   0  -8 -0.1416 1.00300   3
   0   0   8 -1.4416 0.73952  10
   0   0   8 -0.4818 0.84856   3
   0   0   8 0.91676 0.74030  11
   0   0  -8 0.76613 0.78249  11
   0   0  -8 0.42404 0.60258  11
   0   1  -8 1378.98 30.9246   8
   1   0   8 1354.36 30.8963   4
   0  -1  -8 1410.19 32.6492   6
  -1   0  -8 1394.07 31.0236   4
   0   1   8 1406.36 32.3393   6
   1  -1   8 1374.24 32.2852   8
   1   0  -8 1292.06 31.7665   6
  -1   0  -8 1333.53 31.5786  12
   1  -1  -8 1367.62 30.8867   9
   0  -1  -8 1413.94 31.8546  12
  -1   0  -8 1304.50 31.4308  10
   1   0   8 1387.93 31.4173  10
  -1   1  -8 1396.06 31.1358   2
   1  -1  -8 1352.32 32.4823   2
   0   1  -8 1362.63 31.8305   6
   0   1  -8 1371.67 30.4518   9
   0   1   8 1374.43 31.2440  11
  -1   1  -8 1367.10 32.0767   3
   0  -1   8 1409.95 30.8579   4
   0  -1   8 1338.64 31.3109   5
   0  -1   8 1360.84 31.3757   7
  -1   0   8 1353.25 31.9588  12
   1   0   8 1328.17 31.4562  11
  -1   0   8 1399.97 30.9989  10
   0  -1  -8 1373.82 31.4226  11
   0  -1   8 1392.49 30.5523   9
  -1   0  -8 1395.19 30.5977   3
   0  -1   8 1410.93 30.4514  11
   1   0  -8 1399.08 31.7844   2
   1  -1  -8 1404.05 31.2905   6
  -1   0   8 1352.67 32.4216   3
   1  -1   8 1372.32 31.0498   5
   1   0   8 1248.56 31.7545  11
   1  -1   8 1391.06 31.3363   2
  -1   1  -8 1381.10 32.9035   6
   1   0  -8 1371.26 30.9949  10
  -1   1  -8 1324.40 31.8826  11
  -1   1  -8 1388.86 31.4822  11
   0   1  -8 1396.11 30.6821   4
   0  -1  -8 1417.29 31.4562   3
   0  -1  -8 1369.51 31.3902   4
   1   0  -8 1395.97 31.3517  11
  -1   1   8 1373.42 30.9208   6
   1  -1  -8 1414.54 29.9441   7
  -1   1   8 1407.59 32.3245  10
   0   1   8 1365.81 32.1761  10
   0   1  -8 1417.16 30.4684  11
   0  -1  -8 1382.07 30.3170   7
  -1   0   8 1348.26 31.1247   7
  -1   1   8 1370.05 31.9099  11
  -1   0   8 1478.61 31.6244  11
  -1   0  -8 1337.62 31.9257  11
   0  -1  -8 1360.98 31.4535   9
   1  -1   8 1333.98 31.3614  11
   0   1  -8 1336.29 30.5900  11
   0   1   8 1357.43 31.8765   8
   0   1  -8 1405.10 29.9257   2
   0   1   8 1430.94 31.5061   3
  -1   1   8 1422.60 29.9725   7
  -1   0  -8 1363.82 33.6869   6
   0   1   8 1362.95 31.1919  11
   1   0  -8 1374.56 31.5545  11
   0  -1   8 1368.60 31.6611  12
  -1   0   8 1372.08 31.5704   2
   1  -1   8 1435.18 29.7804   4
  -1   1   8 1384.68 33.1078   3
   1   1  -8 79.1502 2.84595   8
   1   1  -8 82.2372 3.98067   2
  -2   1  -8 77.6588 3.55530  12
   2  -1   8 78.6493 3.12838   5
  -1  -1  -8 78.2463 5.60304   6
  -1  -1   8 77.8972 4.41283   4
  -1  -1   8 71.2820 3.87072   7
  -1   2   8 72.1306 4.69991  10
   1  -2   8 77.9318 3.17751   4
  -1   2   8 71.6803 3.80234  11
   1  -2  -8 73.3638 3.99300   9
   1   1  -8 79.0745 3.01385  11
  -2   1   8 74.7558 4.57399  11
   2  -1  -8 75.3677 4.26365  11
   1   1   8 73.1470 4.45797   8
  -1  -1  -8 74.3776 4.10552   4
   1  -2  -8 76.6018 3.75826  12
  -1  -1   8 74.1850 3.65597   5
  -2   1   8 70.7760 5.47003   3
  -2   1   8 82.3041 3.65407   7
  -2   1   8 76.8015 4.23476  10
  -2   1  -8 74.6804 4.83652   3
  -1   2  -8 81.1313 4.96191   3
  -1  -1   8 69.8610 4.45021  12
  -1   2  -8 76.3109 4.35355   6
  -1   2  -8 78.7641 3.56760  11
  -1   2  -8 73.6949 3.60665  12
   1  -2   8 73.5970 3.78582   9
  -1  -1  -8 85.8043 4.70197   9
   1  -2  -8 82.9140 4.28496   4
  -1  -1  -8 72.3701 3.69330   7
   1   1   8 67.0573 3.70126   5
  -1  -1  -8 78.4539 4.04933  11
   1   1  -8 76.8681 3.56193  10
   2  -1   8 77.1584 4.77101   2
   2  -1   8 73.2196 4.72325   8
   1   1   8 76.7720 4.38808   2
   2  -1  -8 74.0479 5.37169   2
   1  -2   8 82.2600 4.22315   5
  -2   1  -8 73.2580 3.05818   5
  -2   1  -8 71.2128 5.84907   6
   1  -2  -8 75.4053 3.92264  11
   1   1   8 80.1030 3.56803  11
   1  -2   8 86.4386 4.05905   2
   1   1   8 76.0560 3.94725  11
  -1   2   8 65.7412 3.87423  11
  -1  -1  -8 75.0610 4.44415  12
  -2   1  -8 77.2295 4.86827  11
   2  -1   8 79.9746 4.35286  11
  -1  -1   8 78.7634 4.01256   9
   1   1   8 74.1719 4.02006  10
  -1   2   8 78.8259 5.30685   3
  -1   2  -8 74.8329 3.76773  11
   1   1  -8 79.5845 3.39002  11
  -1   2   8 75.3486 2.82300   6
  -2   0   8 95.3882 5.27986  12
   0  -2  -8 91.3604 4.72834   4
   2   0   8 91.3564 5.58280   2
  -2   2   8 91.8910 5.28581  11
   2  -2   8 93.9183 5.92266   2
   2  -2  -8 101.302 4.23555   6
   2   0  -8 102.069 3.51022  10
  -2   0   8 89.4945 5.46510   3
  -2   0  -8 100.459 5.09935   4
  -2   2  -8 114.474 6.27770   6
  -2   0   8 94.8932 4.00640   5
   2   0  -8 93.1156 4.62746  11
  -2   0   8 93.6117 3.80706   8
  -2   0   8 99.7752 3.87781  10
  -2   2   8 101.665 3.40138   7
  -2   0  -8 100.941 4.99717   7
   2   0  -8 97.7159 3.86487   8
   2  -2  -8 91.8783 5.93378   2
   2  -2  -8 98.0888 4.79672   9
   2  -2   8 102.080 5.05183  11
   2   0   8 94.1719 5.36196   8
   0  -2  -8 101.250 4.41647  11
   0   2   8 98.6175 4.19645  11
   2   0  -8 97.7082 5.69314   2
  -2   0  -8 104.668 4.58366   3
  -2   2  -8 98.2111 5.50593  11
   0   2   8 104.947 4.02831  11
   0  -2   8 95.7168 4.70258   4
   0   2   8 97.0477 5.59726  10
  -2   0   8 100.271 4.76057   7
   0  -2  -8 105.314 5.17293  12
   0  -2  -8 94.1551 3.76486   7
  -2   2  -8 92.3529 5.96664   3
   0  -2   8 105.847 4.86262   7
  -2   0  -8 106.643 7.23908   6
  -2   0   8 96.2890 5.07838  11
   0  -2   8 98.9899 4.58082   9
   0   2  -8 97.6937 4.92749   6
   0  -2   8 95.3343 5.03555  12
   0  -2   8 93.2022 4.89166   5
   2  -2   8 104.300 6.10786   8
  -2   2   8 88.0902 6.48231   3
   2  -2  -8 93.9923 5.16446  11
  -2   0  -8 96.3281 5.51948  11
  -2   0  -8 93.5005 5.13861  12
   0   2   8 103.790 5.44728   8
   2   0   8 102.177 4.18381  10
   2   0   8 90.9586 4.81698  11
  -2   2   8 93.3260 5.82453  10
   0   2   8 99.3469 5.16728   3
   2  -2   8 100.480 4.70929   5
  -3   1   8 1964.56 43.5611  10
   1   2   8 1945.28 43.0685  11
  -3   1   8 1937.09 45.1492  12
  -2   3   8 1884.51 45.3097  11
   2   1  -8 2008.52 44.0698  11
  -3   1   8 1912.88 44.5471   7
   1   2   8 1879.20 44.7405  10
  -3   2  -8 1862.67 47.1714  11
   3  -1   8 1856.77 46.5097   8
  -3   1   8 1955.05 46.6228  11
   2  -3   8 1926.20 43.1063   4
  -1   3  -8 1920.71 42.7186  11
  -1  -2   8 1832.64 44.9441   7
  -1  -2   8 1765.06 47.8398  12
   2  -3   8 1888.81 45.8498   2
   1  -3  -8 1870.88 45.4568   9
   1   2   8 1909.47 46.2193   2
   2  -3   8 1706.34 46.7210   5
  -3   2  -8 1855.31 47.7756   3
  -3   2  -8 1910.01 47.5373   6
   2   1  -8 1971.63 42.6111   8
   3  -1   8 1965.75 52.1999   2
  -1   3  -8 1904.32 44.0846   6
  -1  -2   8 1868.60 45.4787   4
  -2   3   8 1862.72 47.4160  10
   3  -1   8 1808.44 45.6830  11
   1  -3  -8 1968.72 44.0204  11
  -2  -1  -8 1819.04 44.9671  11
  -1   3  -8 1898.51 47.3177   3
   1   2   8 1979.90 43.1158  11
  -2  -1  -8 1825.35 46.0082  12
   2  -3   8 1920.70 44.4296  11
  -1  -2   8 1901.41 45.0941   9
  -3   2  -8 2017.61 42.5803  12
   3  -2  -8 1920.23 48.2477   2
   3  -2  -8 1746.12 46.6634  11
   2   1  -8 1871.45 43.1486  11
  -2  -1  -8 1914.21 46.4231   4
   1   2   8 1896.86 45.9282   8
   1  -3  -8 1939.79 44.2600  12
  -1   3  -8 2025.51 42.3283  11
   1  -3  -8 1851.22 45.5375   4
  -1  -2   8 1859.32 44.3362   5
   2   1  -8 1883.13 45.5105   2
  -3   1   8 1886.40 47.6580   3
  -1  -2  -8 2184.03 46.0059  11
  -3   1  -8 2050.25 46.5032  12
  -1   3   8 2026.21 49.2926   3
  -1   3   8 2100.65 45.6906  11
   2  -3  -8 2037.37 44.7844  12
  -1   3   8 1903.98 49.2518  10
  -2  -1   8 1998.08 45.3414   5
   1  -3   8 1993.10 47.6284   5
   2   1   8 2025.90 44.8531  10
  -1   3   8 2009.73 43.7815   7
   1   2  -8 1959.37 46.2560   2
  -2   3  -8 1980.21 47.4656  11
   3  -1  -8 1944.40 47.6742  11
  -3   1  -8 2035.02 48.4967   3
   2   1   8 1984.76 47.7943   8
  -3   2   8 2033.61 45.4677   7
  -2  -1   8 1898.38 48.1232  12
   3  -1  -8 1770.62 51.2781   2
   3  -1  -8 2009.31 46.3208   8
   1  -3   8 1967.62 46.8556   9
  -3   2   8 1994.47 47.8131  10
  -1  -2  -8 2008.16 52.4580  12
  -1  -2  -8 1997.72 46.0277   7
   2  -3  -8 1976.33 50.1094   2
   2   1   8 1988.54 43.4769   5
  -2   3  -8 1973.07 49.9059   3
  -3   2   8 1920.26 50.8536   3
   3  -2   8 1908.09 49.0022   2
   2   1   8 2038.65 46.8932  11
   2   1   8 1956.50 48.2605   2
   2  -3  -8 2046.27 47.1591  11
  -2  -1   8 1961.42 47.1195   7
   3  -2   8 2045.44 45.5013   5
  -1  -2  -8 2001.35 47.7255   4
  -3   2   8 1695.75 50.4970  11
  -1  -2  -8 1971.28 48.4461   9
   3  -2   8 1967.19 47.9691  11
   1  -3   8 2023.55 45.8578   4
   1   2  -8 2047.18 45.4334   8
   2   1   8 1980.51 46.1647  11
   3  -2   8 2011.03 48.9081   8
  -2  -1   8 2085.53 45.8334  11
  -3   1  -8 1887.97 48.7825  11
  -2   3  -8 2034.09 46.5256   6
   2  -3  -8 1991.21 47.4069   9
  -1   3   8 1934.31 45.6772  11
   1  -3   8 2058.25 45.8299  12
   0   3   8 304.124 8.85240  11
   3  -3   8 307.069 11.4814   9
  -3   3  -8 311.527 14.5327   3
   3   0   8 328.514 11.6379  11
  -3   0  -8 315.076 12.5887  11
   3   0  -8 328.795 11.2712  11
   0   3   8 350.736 9.29515  11
   0   3  -8 321.249 11.1157   6
   0  -3   8 260.861 15.1338  12
   0  -3   8 295.380 11.5657   4
   0  -3   8 324.430 11.6009   9
  -3   3   8 305.969 13.2401  10
   3  -3  -8 321.639 11.5697   9
   0  -3  -8 298.173 11.5687   4
   0   3   8 309.829 12.0573   8
   3   0   8 323.649 13.1394   2
  -3   0  -8 322.999 11.9623  12
  -3   3   8 326.020 8.94893   7
   3   0  -8 319.837 9.92280   8
   3  -3  -8 322.689 9.66004   6
   3  -3  -8 304.674 14.1569   2
  -3   3  -8 312.006 11.8128   6
   3  -3   8 299.959 11.6304  11
  -3   0  -8 320.849 10.0989   3
  -3   0  -8 333.744 11.9617   7
   3  -3   8 320.866 15.6008   2
   3  -3   8 301.314 13.2152   8
  -3   0   8 330.828 11.9870  11
  -3   0   8 304.948 12.1450  12
   0  -3  -8 316.508 9.69047   7
   3   0  -8 310.044 13.0390   2
   3  -3  -8 303.815 12.0316  11
   0  -3   8 335.495 11.8431   5
   0  -3   8 317.163 11.2323   7
  -3   3  -8 322.027 12.8104  11
   0   3   8 318.127 11.5915   3
  -3   3   8 327.938 12.7946  11
   0   3  -8 325.794 12.1905   3
   0  -3  -8 326.132 12.0157  12
  -3   0   8 310.327 11.3904   7
   3   0   8 310.533 15.3599   8
  -3   0   8 318.593 12.6079   3
  -3   0   8 313.193 9.26179   5
   4  -2  -8 507.974 17.7529  11
  -4   2   8 514.074 16.2969  10
   2  -4  -8 510.088 14.2924  12
  -2  -2   8 507.949 16.6017   7
   4  -2   8 513.248 18.4771   8
  -2   4   8 505.840 19.3696  10
   2   2  -8 519.181 14.4564   8
   4  -2   8 485.015 19.2526   2
   2  -4   8 501.737 16.8941   9
   2  -4  -8 491.439 15.8606  11
  -4   2  -8 495.752 19.7437   3
  -4   2  -8 495.845 18.9403  11
  -4   2  -8 513.434 14.6673  12
  -2   4   8 502.598 15.5579  11
   2   2   8 510.527 18.1507   2
   2   2   8 520.394 17.5643   8
  -4   2   8 483.982 18.4208  11
  -2   4  -8 504.828 15.0360  11
  -2  -2   8 494.628 17.8967  12
  -2  -2  -8 487.184 15.9477   7
  -2  -2  -8 490.889 17.8681  12
   4  -2  -8 483.919 19.6556   2
  -2  -2   8 496.816 15.2651   5
  -2   4  -8 531.881 15.6897   6
   2  -4   8 492.660 14.8356   4
   2   2  -8 486.358 16.8026   2
  -2   4  -8 524.519 19.8268   3
  -4   2   8 510.727 15.5764   7
  -2   4   8 496.736 20.0659   3
   2  -4   8 499.939 17.1568   5
   2  -4  -8 506.003 17.1902   9
   2   2   8 488.642 14.3465  10
  -4   2   8 518.889 21.0007   3
   2  -4  -8 477.983 16.7336   4
   4  -2   8 483.988 17.3228  11
  -2  -2   8 477.301 17.3047   4
  -2  -2  -8 517.401 17.6973   4
   2   2   8 488.320 15.1834  11
   2   2  -8 519.171 14.4839  10
  -1  -3   8 844.567 25.2543  12
   4  -1   8 837.320 25.6348   8
   4  -3  -8 847.752 25.5999  11
   1   3   8 812.220 19.5732  11
  -3   4   8 837.323 24.6730  11
   3  -4   8 823.981 24.4107   5
   4  -1   8 835.589 26.6566  11
  -4   1   8 857.375 23.8735   7
  -3   4   8 809.373 26.9055  10
   3  -4   8 839.734 26.0205   2
  -1  -3   8 839.957 24.5738   9
  -4   3  -8 794.281 28.1432   3
  -1   4  -8 853.298 22.2027   6
  -1   4  -8 803.155 25.7452  10
  -1  -3   8 819.175 23.4493   5
  -3  -1  -8 837.096 24.5846  11
  -3  -1  -8 836.170 25.2263   4
  -3  -1  -8 799.513 23.9469   7
  -4   1   8 822.910 27.0415   3
   1   3   8 814.418 25.1014   8
  -4   3  -8 834.767 26.5429  11
  -1   4  -8 821.264 26.5961   3
   1  -4  -8 816.499 24.7563   9
   1  -4  -8 792.185 24.3457   4
  -4   1   8 842.839 24.3577  12
  -1  -3   8 817.428 23.7174   7
   3   1  -8 836.694 25.6232   2
   4  -3  -8 841.273 27.8786   2
  -3   4   8 833.716 29.2494   3
  -4   1   8 841.205 20.7746   5
   3  -4   8 807.023 24.1361   9
   3  -4   8 843.448 23.7192  11
  -4   1   8 830.468 25.8023  11
   4  -1   8 823.446 27.0704   2
  -3  -1  -8 848.126 25.6631  12
   3  -4   8 829.113 21.7479   4
   3   1  -8 865.833 21.1932   8
  -1  -3   8 826.571 24.8918   4
   3   1  -8 855.391 22.1239  11
   1   3   8 770.928 25.5998  10
   4  -3  -8 839.072 23.8649   9
   1  -4  -8 840.767 23.3331  12
   1   3   8 835.154 25.0027   2
   3  -4  -8 826.437 24.4601   4
  -3   4  -8 831.174 28.8716   3
   4  -3   8 818.114 25.1485  11
  -4   1  -8 858.968 24.8469   7
   1   3  -8 819.081 23.7090   2
  -4   1  -8 813.858 25.3330   3
   3   1   8 861.935 23.3872  11
   1   3  -8 805.899 23.7610   3
  -1  -3  -8 858.163 26.0475   9
  -4   3   8 824.464 26.4373  11
  -4   3   8 843.052 21.8659   7
  -1  -3  -8 849.386 22.8911   7
  -3  -1   8 874.231 26.2218  12
  -1   4   8 836.060 26.9119  10
   4  -3   8 809.509 26.9185   2
   1  -4   8 859.852 25.0928   5
   3  -4  -8 824.712 27.7746   2
  -4   1  -8 843.119 26.5821  11
   1  -4   8 849.260 22.9781  12
   3  -4  -8 824.225 24.7956   9
   1   3  -8 850.525 24.1909   6
   3  -4  -8 835.254 24.4803  11
  -4   3   8 829.088 29.5698   3
  -1   4   8 847.240 25.8726   8
   3   1   8 848.809 26.4018   2
  -1  -3  -8 847.337 25.5257  12
   3   1   8 822.469 24.7524   8
  -3  -1   8 814.626 21.2293   5
  -1   4   8 848.980 26.6966   3
  -4   3   8 856.248 26.1683  10
   4  -1  -8 844.078 23.1034   8
   4  -1  -8 852.461 24.9705  11
  -3   4  -8 812.866 24.5438  11
   4  -3   8 830.741 26.3511   8
   4  -1  -8 832.378 27.4018   2
   1   3  -8 838.473 23.2351  10
  -4   1  -8 843.702 23.8623  12
  -1  -3  -8 845.855 25.3071   4
   1  -4   8 851.827 23.5501   4
  -3  -1   8 831.578 24.2608   7
   1   3  -8 840.823 22.8027   8
   1  -4   8 838.842 24.5011   9
   4   0   8 15.3600 4.27858  11
   0  -4   8 14.4623 4.56019   7
  -4   4   8 11.9971 4.59272  11
  -4   4  -8 13.8181 4.70841  11
  -4   0   8 12.5548 5.88934   3
   0  -4  -8 12.8589 4.22715   7
  -4   0  -8 5.64373 4.39475   7
  -4   0  -8 11.4970 4.89559  12
   4  -4   8 17.1763 4.83611   4
   4  -4   8 15.5600 5.04092  11
   4  -4  -8 5.22643 6.53970   2
   4  -4  -8 14.2706 4.25881   9
   4   0   8 3.70417 4.77126   8
   0   4  -8 14.8442 4.84966   8
   4  -4   8 10.8350 4.31261   9
  -4   4   8 14.6971 8.20617   3
   0   4   8 18.3816 5.95156   3
  -4   0   8 7.66759 4.31535   7
   4   0   8 22.2644 6.34439   2
  -4   0   8 17.6147 5.56995  11
  -4   0   8 2.73336 4.70038  12
   4   0  -8 5.65723 6.14614   2
   0   4  -8 11.2942 4.56096   2
   0   4  -8 17.4169 6.05400  10
   4  -4   8 22.6122 7.29519   2
   0  -4   8 8.67348 4.93934  12
   0   4   8 11.7433 6.13153  10
   0  -4   8 4.09452 4.78361   4
   0  -4  -8 9.93582 4.95340   4
   4  -4  -8 12.6206 5.14019  11
   0  -4   8 9.72206 4.94601   5
   0  -4   8 7.73620 4.95998   9
   0  -4  -8 14.9947 5.11246   9
  -4   4   8 14.1022 6.37839  10
   4   0  -8 9.65471 4.03333  11
  -4   4  -8 -2.4940 7.40462   3
   0  -4  -8 14.6248 5.30996  12
   0   4   8 11.0502 5.51587   8
   0   4  -8 13.1943 5.74688   3
  -2  -3   8 776.704 23.8051   5
  -3  -2  -8 779.054 27.0942  12
  -5   2   8 798.513 27.9530  11
   2  -5  -8 794.043 25.6171   4
   5  -3  -8 812.606 26.9448  11
  -2  -3   8 775.258 26.8215   4
  -3  -2  -8 779.608 24.7839   7
  -3   5   8 828.734 31.2962   3
   5  -2   8 788.284 26.2770  11
  -2   5  -8 771.166 28.3825  10
   3  -5   8 809.653 26.1753   9
   5  -3  -8 777.065 29.3019   2
  -5   3  -8 779.514 30.5156   3
  -5   3  -8 783.495 24.6530   7
   5  -2   8 795.721 27.7021   8
   2  -5  -8 776.316 26.0796   9
   3  -5   8 782.810 25.8028   5
   2   3   8 818.585 26.3560   8
   3  -5   8 814.565 23.1276   4
  -3  -2  -8 752.007 26.3576   4
  -5   3  -8 794.280 28.3642  11
  -3   5   8 752.034 28.8622  10
  -5   3  -8 814.762 25.7326  10
   2   3   8 794.127 26.9116   2
  -2  -3   8 812.343 27.3475  12
  -3   5   8 803.765 24.2441  11
   5  -2   8 805.535 29.5988   2
  -2   5  -8 803.519 29.5763   3
  -5   2   8 793.552 29.4391   3
  -5   2   8 808.206 24.3071   7
   3   2  -8 822.626 26.7368   2
  -2  -3   8 800.699 24.9666   7
   5  -3   8 750.471 26.7397   8
   2  -5   8 789.008 25.7179   9
  -2  -3  -8 741.559 25.8483   4
  -5   3   8 799.214 22.8250   7
  -2   5   8 759.794 21.2278  11
  -3   5  -8 778.300 29.9548   3
   5  -2  -8 737.164 25.4527  11
   3   2   8 761.983 26.8837   2
   3   2   8 764.014 21.1998  11
  -5   3   8 766.601 27.5610  11
   5  -2  -8 758.603 29.6438   2
  -3  -2   8 765.116 24.6120   7
   2   3  -8 765.051 25.2547   6
  -5   3   8 750.958 25.6756  10
  -5   2  -8 773.935 27.9996  11
  -5   3   8 757.032 30.9007   3
   3  -5  -8 763.468 25.2081   9
   5  -3   8 749.234 28.9817   2
   5  -3   8 723.967 25.7723  11
  -2   5   8 768.569 29.1091   3
  -2   5   8 747.050 28.4040  10
   2  -5   8 778.367 23.3322   4
   2   3  -8 770.544 25.0469   2
   3   2   8 746.645 24.8266   8
  -5   2  -8 808.969 22.7647  12
  -3   5  -8 780.380 23.0678  11
   3  -5  -8 747.463 24.6099   4
  -2  -3  -8 749.643 26.3763  12
  -5   2  -8 799.357 29.4366   3
  -2  -3  -8 772.432 23.7047   7
  -3  -2   8 805.410 27.1809  12
   2  -5   8 755.069 25.2460   5
  -3   5  -8 784.322 27.8713  10
  -5   2  -8 825.861 25.4490   7
  -1  -4   8 380.477 16.8366   5
  -4   5   8 347.405 20.0751  10
  -5   4  -8 386.623 19.3314  10
   4   1  -8 392.437 19.3442   2
  -4   5   8 344.275 16.6327  11
  -5   4  -8 399.461 23.4371  11
   5  -4  -8 369.612 30.4030   2
  -1   5  -8 378.921 20.3654   3
   5  -4  -8 379.273 18.2449  11
  -1  -4   8 395.577 17.7931  12
  -5   1   8 390.077 17.1861  12
   1   4   8 387.133 17.8032   8
   5  -1   8 394.432 18.2024   8
  -5   1   8 372.816 19.8189   3
  -1  -4   8 403.017 18.2957   9
  -5   1   8 351.813 15.9286   7
   1  -5  -8 353.525 25.0148   9
  -1  -4   8 361.114 15.6619   7
   5  -4  -8 360.744 16.0472   9
   4  -5   8 371.133 19.8027   2
  -4  -1  -8 351.681 17.2716   7
  -4  -1  -8 364.891 18.2003  12
  -1  -4   8 403.987 18.2835   4
  -1   5  -8 391.399 19.1957  10
   1   4   8 350.760 17.2983   2
   1  -5  -8 364.996 15.9244  12
  -5   1   8 364.942 19.3573  11
   4  -5   8 363.844 16.9143   9
   5  -1   8 379.379 20.5626  11
   1  -5  -8 391.984 17.5914   4
   4   1  -8 377.451 13.9039  11
   1   4   8 386.002 16.9484  10
  -5   4  -8 365.026 22.6162   3
  -4   5   8 370.663 23.0827   3
   5  -4   8 351.296 20.6843   2
   1  -5   8 388.043 17.3921   9
  -1  -4  -8 363.868 14.8577   7
  -1  -4  -8 359.699 17.4061   4
   4  -5  -8 336.560 20.5652   2
  -5   4   8 378.105 23.2965   3
  -5   4   8 378.826 18.5254  11
   1  -5   8 360.916 16.3494   4
   4   1   8 371.921 19.1868   2
  -4   5  -8 379.451 16.8146  11
   5  -1  -8 355.307 19.8778   2
  -4   5  -8 365.647 19.2422  10
  -4  -1   8 332.130 21.7843   7
  -1  -4  -8 356.899 17.5556  12
  -5   4   8 406.657 20.5423  10
   4  -5  -8 378.323 16.3951   4
   5  -4   8 375.057 18.1449  11
  -1   5   8 383.839 19.8217   3
   1  -5   8 368.520 15.9045  12
  -5   1  -8 394.860 16.5397  12
  -1   5   8 379.908 19.4967  10
   5  -4   8 343.558 19.2142   9
   1  -5   8 347.685 16.9724   5
  -5   1  -8 356.555 19.5744  11
   1   4  -8 393.196 18.9727   8
  -1   5   8 363.564 18.2772   8
   4  -5  -8 354.581 16.7245   9
   1   4  -8 387.244 16.1705   2
   4   1   8 354.297 14.6745  11
   5  -1  -8 371.526 17.4994  11
  -4  -1   8 365.709 17.9453  12
   4   1   8 400.078 17.1473   8
  -1  -4  -8 355.814 20.1898   9
  -5   1  -8 344.628 16.5898   7
   1   4  -8 354.050 16.4092   6
   5   0  -8 21.9711 10.4702   2
   5  -5   8 37.7885 7.14530   9
  -5   0  -8 30.3019 7.53317   7
   0   5  -8 34.4850 8.63348   8
  -5   5  -8 38.0406 8.18291  11
  -5   5  -8 32.1227 12.9709   3
  -5   5   8 24.2258 11.8725   3
   0  -5   8 43.6784 9.05314  12
  -5   5  -8 33.9783 10.0243  10
  -5   0   8 30.7789 7.43458   7
   5  -5  -8 32.6268 9.78073  11
   5   0   8 23.2094 8.79136   8
   0  -5  -8 24.8838 8.18940   9
   0  -5  -8 39.2687 8.65773  12
   5  -5  -8 0.34985 9.32756   2
   5   0   8 37.1940 7.16610  11
   0   5   8 36.2762 10.3733  10
   0  -5   8 51.6290 9.66248   4
   0  -5   8 33.8748 8.15079   5
  -5   0   8 33.7072 9.03131  12
   0  -5  -8 45.8515 9.21265   4
  -5   5   8 25.8729 7.41302  11
   0  -5   8 32.8602 8.29520   9
   5  -5   8 21.1202 13.4719   2
   5   0  -8 27.2432 6.36181  11
   0   5   8 36.0580 8.98656   2
   5  -5  -8 31.3802 7.19580   9
  -5   0  -8 38.0037 8.80593  12
   5   0   8 27.9527 10.5405   2
   0  -5   8 35.8334 7.57016   7
   0   5   8 32.6278 8.55888   8
   0   5  -8 42.8410 10.0766  10
  -5   5   8 29.9387 11.2914  10
  -6   3  -8 250.528 16.1300   7
  -3  -3  -8 261.615 15.5632   7
   3   3  -8 280.063 18.2563   2
  -3  -3   8 279.085 18.3113  12
  -3   6   8 264.981 23.9827   3
   3  -6   8 285.379 17.4981   9
  -6   3   8 272.488 15.3242   7
   3   3   8 294.861 16.9510   8
   3  -6  -8 213.813 16.3972   9
   6  -3  -8 256.215 17.2367  11
   3  -6  -8 298.699 16.9395   4
  -3   6   8 273.258 12.6649  11
  -6   3  -8 303.012 20.7855  11
  -3  -3   8 262.717 15.8946   7
   3   3  -8 243.279 17.2444   6
   6  -3   8 287.539 18.4935   8
  -3  -3  -8 239.739 17.3426   4
  -3   6  -8 276.667 23.7861   3
  -3   6  -8 253.168 20.2312  10
  -3   6   8 261.719 21.3846  10
  -6   3   8 246.738 19.8588  11
   6  -3   8 248.860 17.3067  11
   3   3   8 243.103 17.8727   2
   6  -3   8 275.245 21.7185   2
   6  -3  -8 232.856 21.2045   2
  -6   3   8 331.092 24.2085   3
  -3  -3  -8 277.121 19.3471  12
   6  -4  -8 21.7899 7.30312   9
  -4  -2  -8 19.8887 7.70053   7
   6  -2   8 33.8719 8.16970  11
   2  -6  -8 29.2513 8.97478   9
   2  -6  -8 26.2589 9.13778   4
  -6   2   8 11.9558 14.1941   3
   6  -2   8 1.09413 10.9002   2
   2   4   8 23.1909 9.58865   8
  -6   4  -8 19.8683 9.04491  11
  -6   4  -8 3.98926 14.1453   3
  -4   6   8 24.5310 6.90621  11
   6  -4  -8 17.8436 10.8397   2
  -2  -4   8 15.4037 9.28255  12
  -6   4  -8 16.7364 7.74782   7
  -4  -2  -8 22.5548 9.15691  12
  -4   6   8 17.1033 11.0669  10
   6  -2   8 24.1743 9.92681   8
  -6   2   8 20.9255 7.58097   7
   4   2  -8 16.8451 10.9917   2
   4  -6   8 30.3689 8.80543   9
   6  -4  -8 13.2490 8.36961  11
  -2   6  -8 14.2216 11.3454  10
  -2  -4   8 17.3376 7.48230   7
  -2   6  -8 52.3356 13.8265   3
   2   4   8 13.4392 9.36956   2
  -4   6   8 15.6464 13.5216   3
  -2  -4   8 15.6730 9.21780   4
   4   2   8 45.1637 7.73658  11
   6  -4   8 49.6490 12.4356   2
   6  -4   8 49.8308 9.22731  11
   6  -2  -8 47.1991 8.48133  11
   2   4  -8 49.7336 9.73947   6
  -4   6  -8 51.6897 8.17646  11
   4  -6  -8 45.0130 9.40247   4
   2  -6   8 28.2803 9.06419   9
  -6   4   8 52.0553 10.3332  11
  -2  -4  -8 60.7971 9.14803   7
  -6   4   8 78.7456 16.4636   3
  -4  -2   8 55.2625 8.93686   7
  -4   6  -8 32.5574 13.9121   3
  -6   2  -8 42.0376 12.7627  11
   2  -6   8 40.3386 9.95072   5
  -4  -2   8 50.6895 9.97132  12
  -2   6   8 51.5841 10.9518   8
   6  -2  -8 33.0517 11.7461   2
  -2   6   8 40.6105 12.3198  10
   4  -6  -8 32.8464 8.39250   9
  -4   6  -8 54.0538 11.9987  10
  -6   2  -8 52.2373 9.25748   7
  -2  -4  -8 36.2972 9.51552   4
   4   2   8 55.5739 11.7872   2
  -2  -4  -8 55.7617 10.5919  12
   5   1  -8 579.195 30.2362   2
  -6   5  -8 589.648 33.6267   3
   1   5   8 621.607 27.1033   8
  -1  -5   8 617.034 27.8049   4
   5  -6   8 632.464 29.9486   2
   1  -6  -8 607.697 26.6749   4
  -1  -5   8 615.079 27.3182   9
   5   1  -8 610.718 20.4450  11
   5  -6   8 563.388 24.5986   9
  -1   6  -8 632.253 29.3347  10
  -1  -5   8 597.169 26.5491  12
  -1  -5   8 605.570 24.1139   7
  -5   6   8 597.708 25.1700  11
   6  -5  -8 615.084 24.4328   9
   1   5   8 609.380 26.9241   2
  -6   5  -8 670.244 32.2653  10
  -5   6   8 567.983 34.3098   3
   1  -6  -8 558.945 26.2724   9
   6  -1   8 611.718 30.5550   2
  -5   6   8 593.933 29.9511  10
  -6   1   8 570.749 25.0310   7
   6  -1   8 611.763 24.6757  11
  -6   5  -8 556.387 26.3739  11
  -1  -5   8 622.320 26.0848   5
  -5  -1  -8 596.189 24.9958   7
   6  -5  -8 619.946 28.1972  11
  -1   6  -8 624.482 25.9786   8
  -5  -1  -8 540.051 26.6244  12
   6  -5  -8 595.425 29.9783   2
  -6   1  -8 565.406 25.1872   7
  -5   6  -8 581.554 24.2298  11
  -6   5   8 601.023 26.8109  11
  -5   6  -8 559.006 29.0464  10
  -1  -5  -8 530.366 26.8036   9
   6  -5   8 613.234 27.3606  11
   6  -5   8 593.988 23.9115   9
  -5  -1   8 559.438 26.5595  12
  -6   5   8 566.473 29.5059  10
   5  -6  -8 553.053 24.1037   9
  -1   6   8 556.432 27.6816   8
  -1  -5  -8 614.187 26.4052   4
  -1  -5  -8 589.990 26.5592  12
   5   1   8 583.177 21.5725  11
   1  -6   8 550.507 25.4862   5
   6  -1  -8 588.542 31.0547   2
   5   1   8 559.477 28.6230   2
   6  -1  -8 562.215 23.6049  11
   1  -6   8 586.154 26.1576   9
  -1   6   8 601.563 29.8379  10
  -5   6  -8 600.717 33.2278   3
  -6   5   8 556.664 33.0746   3
   5  -6  -8 572.323 23.3667   4
  -5  -1   8 589.083 25.4825   7
   6  -5   8 550.233 29.2424   2
   0   0   9 0.19711 0.67458  11
   0   0  -9 0.59944 1.04873   3
   0   0   9 -0.5727 0.75277   8
   0   0  -9 1.25084 0.88847   8
   0   0  -9 0.42453 1.09561   6
   0   0  -9 -0.1749 0.60505  11
   0   0   9 0.14940 0.98331  10
   0   0   9 0.29484 0.66199  11
   0   0  -9 -0.4503 1.00087  10
   0   0  -9 1.17426 0.78838  11
   0   0   9 0.76104 1.01336   3
   0   0   9 1.04308 0.50999   9
   0   0   9 1.74733 1.27364   6
  -1   1  -9 166.860 6.00433  11
   0  -1   9 178.924 4.86888   9
   1   0  -9 165.250 5.50987  11
  -1   0  -9 161.815 5.98841  11
  -1   0   9 172.106 5.46869  10
   0  -1  -9 166.039 5.60563   4
   0  -1  -9 167.983 5.81552   3
   1  -1  -9 170.334 5.71831   6
   1  -1  -9 178.344 4.39717   7
   1  -1  -9 172.770 5.12974   9
  -1   0  -9 177.083 5.33254   4
   0   1   9 156.003 6.14047  10
  -1   1  -9 171.384 6.99358   6
   1  -1   9 180.792 6.35532   8
  -1   1   9 175.647 6.41104  10
   0   1  -9 163.217 6.01096   6
   0   1  -9 172.339 5.35438   8
   0   1  -9 168.742 4.76760   9
   1   0   9 159.616 5.67889  10
   0  -1   9 175.756 5.65799   7
  -1   0   9 180.654 6.67674   3
  -1   0   9 160.846 5.31492   7
   0  -1  -9 178.534 6.83513   6
  -1   0   9 172.228 5.69438  11
  -1   0   9 165.871 5.81006   2
   1   0  -9 185.088 6.00787   2
   1   0  -9 174.511 6.04566   6
   1   0  -9 166.986 5.47174  10
   1   0  -9 169.236 5.79904  11
  -1   1   9 176.704 7.05721   3
   0   1   9 169.500 5.47280  11
  -1   0  -9 179.140 7.72163   6
   0  -1   9 169.264 5.58706   5
   0  -1   9 177.816 5.37333   8
   0   1  -9 172.501 5.03118   4
   0   1   9 166.635 5.52293  11
   0  -1  -9 171.230 5.64909   9
   0   1  -9 186.361 4.99697  11
  -1   1  -9 158.550 5.57135  11
  -1   1   9 166.051 4.62666   7
   0   1   9 176.475 5.74377   3
   1  -1   9 178.005 5.70954  11
   0  -1   9 172.151 5.15012   4
   0  -1   9 177.269 4.88837  11
   0   1  -9 168.100 5.03309  11
   1  -1   9 171.090 5.49250   2
   1  -1   9 169.010 5.32146   5
   0   1  -9 175.163 4.17698   2
   1  -1  -9 164.759 6.39903   2
   1   0   9 173.516 5.28264   4
   1   0   9 167.655 5.85177   2
  -1   1   9 163.593 5.34654   6
  -1   1   9 173.215 6.00885  11
   0  -1  -9 172.156 5.73139  11
  -1   0  -9 166.295 5.76780  12
  -1   1  -9 170.495 5.31995   2
   1  -1  -9 163.150 5.81011  11
   2  -1   9 70.7647 3.06098   5
   2  -1  -9 71.7635 4.22332  11
  -1  -1  -9 80.1694 4.08858  11
   1  -2  -9 85.0864 3.96961   6
   1  -2  -9 73.2388 3.92453   9
   1  -2  -9 76.8385 3.99641  11
  -1  -1   9 73.9044 4.00648   7
   1  -2  -9 67.6740 4.11294   4
   2  -1  -9 64.5769 4.88752   2
   2  -1   9 71.4807 4.58952   2
   1   1   9 72.7604 4.48185   8
  -2   1   9 68.8821 3.43328   7
  -1  -1   9 75.3446 3.87217   9
   1   1  -9 62.7678 3.57763  10
  -2   1  -9 59.7359 4.51619  11
   1  -2  -9 75.6090 3.87696  12
  -1  -1   9 64.9486 4.19706   4
  -1  -1  -9 71.9874 3.65405   7
  -1   2   9 76.4981 4.76780  11
   1   1   9 71.7891 3.96019  11
  -1  -1  -9 72.5257 4.13772   4
   1   1  -9 63.0225 3.74841   2
   1   1   9 67.3963 3.44757  11
  -1  -1  -9 71.2817 4.49439   9
  -1  -1  -9 74.3236 4.49634  12
  -1   2   9 75.8890 5.14283  10
  -2   1  -9 67.8248 3.03167   5
  -1   2   9 70.6039 5.17184   3
  -2   1   9 66.2156 4.42091  11
  -2   1  -9 73.1973 6.05884   6
   1   1  -9 71.5963 2.95610  11
  -1  -1  -9 70.6282 5.76855   6
   2  -1   9 74.3183 4.69312   8
   1  -2   9 72.9703 3.01374   4
  -2   1  -9 73.7685 3.59116  12
  -1   2  -9 68.1693 4.45443   6
  -1   2  -9 71.4771 3.47350  11
  -1   2   9 68.2620 2.96060   6
  -1  -1   9 75.9116 3.18853  11
  -1  -1   9 68.9478 4.42220  12
  -1  -1   9 70.3708 3.72103   5
   1  -2   9 76.7953 3.88653   2
  -2   1  -9 67.8362 4.70416   3
  -1   2  -9 70.8146 3.72928  11
   1   1  -9 71.9882 4.27364   6
  -1   2  -9 73.7483 4.77333   3
  -2   1   9 71.0195 5.73630   3
   2  -1   9 74.3539 4.32374  11
   1   1   9 72.4914 4.00977  10
  -1   2   9 72.8247 3.89612  11
  -2   1   9 70.1922 4.29008  10
   1  -2   9 70.6741 4.09817   5
   1  -2   9 68.5884 3.87941  11
   1  -2   9 71.8172 3.71688   9
   1   1  -9 70.9232 3.31451  11
  -2   0  -9 833.708 21.1019   4
  -2   0   9 874.959 21.3887  11
   2  -2  -9 816.202 20.7285   9
  -2   0   9 805.663 19.7132   5
  -2   0  -9 790.422 24.0687   6
  -2   0  -9 799.844 21.8860  11
  -2   0   9 813.840 21.6953  12
   2   0  -9 842.908 19.0093  10
   0  -2  -9 828.594 19.2903   7
   2  -2   9 843.773 23.0011   2
  -2   0   9 854.265 18.9700  10
  -2   2   9 860.697 18.7097   7
  -2   2   9 796.268 22.3448  10
   0   2  -9 840.422 21.1187   6
   0  -2   9 854.398 20.5896   4
   0  -2   9 802.042 20.9678   5
   2   0   9 806.502 22.0518   2
  -2   0   9 826.640 18.9372   8
   2  -2   9 786.474 21.0613  11
  -2   2  -9 790.240 21.9037  11
   0   2   9 805.271 19.7915  11
  -2   0  -9 802.555 21.2228  12
  -2   2  -9 813.036 22.8804   3
  -2   2   9 821.938 24.0476   3
   0   2   9 836.345 19.9610  11
   0   2   9 793.720 21.5830   8
  -2   2   9 818.540 21.9510  11
   0  -2  -9 778.263 21.3364   9
   2   0   9 813.124 19.8335  10
   2  -2   9 816.765 20.5743   5
   2   0  -9 812.319 19.3272   8
   0  -2  -9 798.734 21.1875   4
   0   2   9 828.413 22.1050  10
   0  -2   9 846.974 18.3286  11
   0  -2   9 806.348 21.1334  12
   2   0  -9 822.323 21.9065   2
   2   0   9 769.031 20.9868  11
   0  -2  -9 825.448 20.2612  11
   0  -2  -9 819.808 21.3107  12
   2   0   9 822.937 21.9447   8
  -2   2  -9 851.444 18.5946  12
  -2   0   9 807.214 22.1179   3
   0  -2   9 821.720 21.0871   9
   0   2   9 825.357 20.8575   3
   2  -2  -9 835.779 21.6474  11
  -2   0   9 796.458 20.7522   7
   2  -2  -9 806.790 23.1240   2
   0  -2   9 830.966 20.9222   7
  -2   2  -9 813.885 22.5042   6
   2   0  -9 815.765 20.7850  11
  -2   0  -9 855.181 19.9676   3
   0  -2  -9 847.803 21.6263   6
   2  -2   9 814.542 22.4870   8
   2  -2  -9 831.555 19.9904   6
  -3   1   9 249.256 9.67860  12
   1   2   9 264.651 8.14609  11
  -1  -2   9 239.915 9.23543   7
   1   2   9 237.140 10.7938   8
   2  -3   9 234.244 9.51401   5
  -1   3  -9 251.029 9.05389   6
   3  -1   9 251.538 9.99322  11
   3  -1   9 246.641 11.1470   2
  -3   2  -9 231.379 11.2680   6
  -2  -1  -9 252.965 9.78329  11
  -1   3  -9 250.646 7.63108  11
  -1   3  -9 264.079 7.29141  11
  -3   1   9 217.494 11.2980   3
  -1  -2   9 238.614 8.89466   5
   1   2   9 233.470 9.38145  10
   2  -3   9 249.099 7.73773   4
  -3   1   9 254.494 9.03387   7
  -1  -2   9 238.662 9.80978   4
   3  -2  -9 251.323 11.5850   2
  -1  -2   9 247.191 10.3645  12
   1  -3  -9 244.891 9.59562   4
  -3   2  -9 262.892 7.57735  12
   1  -3  -9 242.712 9.69490   9
  -2  -1  -9 239.794 10.1401  12
  -1  -2   9 259.049 9.49961   9
  -3   2  -9 236.048 11.4508   3
  -2  -1  -9 232.717 9.76782   4
  -2   3   9 251.733 9.64383  11
   2   1  -9 241.114 9.76591   2
   1  -3  -9 269.615 8.88689  11
   1  -3  -9 256.820 9.00697  12
   2   1  -9 261.689 8.92418  11
   2   1  -9 252.855 7.30088   8
   2  -3   9 232.503 8.78600  11
   2  -3   9 233.124 10.9174   2
  -3   1   9 255.036 8.54577  10
  -3   1   9 261.499 10.5300  11
   2   1  -9 245.221 7.91170  11
  -2   3   9 239.203 10.9417  10
   1   2   9 260.595 10.2027   2
  -3   2  -9 242.428 10.9159  11
   1   2   9 241.047 7.79693  11
  -1   3   9 197.020 7.23968  11
  -3   2   9 190.590 6.82941   7
  -2  -1   9 186.684 9.06002  12
   1   2  -9 185.368 8.45545   6
   2   1   9 182.931 8.88084   2
   1   2  -9 190.241 6.74006   8
  -1  -2  -9 198.467 9.24537   9
  -1   3   9 193.271 7.21912  11
  -2   3  -9 195.605 8.40509   6
  -3   2   9 190.272 11.1646   3
  -2  -1   9 196.146 7.01798   5
   1  -3   9 185.864 7.96349   9
  -1  -2  -9 187.951 8.47875   4
   3  -1  -9 186.846 8.45652  11
   3  -2   9 201.467 7.07945   5
  -3   1  -9 186.392 9.31543   3
   2   1   9 196.465 6.78672  10
  -3   1  -9 190.682 7.61087  12
   2   1   9 196.213 8.83308   8
   1  -3   9 180.801 7.08953   4
   1  -3   9 198.868 7.39376  12
  -3   1  -9 186.591 9.33667  11
  -1  -2  -9 189.042 7.50777  11
  -2  -1   9 183.138 8.10828   7
   1  -3   9 174.609 9.06652   5
  -1   3   9 192.460 9.62314   3
   2  -3  -9 192.435 8.26581   9
   2  -3  -9 198.933 6.71976  12
   3  -2   9 188.786 9.84319   2
  -2  -1   9 175.812 7.80766  11
  -1  -2  -9 185.127 8.89293  12
  -3   2   9 190.458 8.71928  10
   3  -2   9 180.335 8.49559  11
  -1   3   9 213.092 10.2466  10
   1   2  -9 189.640 7.55897   2
  -1  -2  -9 184.888 7.31276   7
   2   1   9 183.096 8.35609  11
  -3   1  -9 199.315 11.3114   6
   3  -2   9 188.330 9.52108   8
   2  -3  -9 195.958 10.3022   2
   2   1   9 188.398 5.38241   5
   3  -1  -9 176.034 11.0439   2
   2  -3  -9 198.954 8.16805  11
   0  -3   9 1215.49 31.2615   7
  -3   0  -9 1271.65 29.7077   3
  -3   3   9 1305.67 28.6405   7
   3  -3  -9 1243.83 29.5475   6
   3  -3  -9 1251.17 31.9536   9
  -3   3  -9 1254.70 35.7560   3
  -3   3  -9 1228.13 32.9932   6
  -3   0  -9 1242.56 32.4432  12
   3   0   9 1200.85 32.6387   8
   3   0   9 1249.91 32.1085  11
  -3   0  -9 1277.73 33.4158  11
   3   0   9 1235.13 33.9300   2
   0  -3   9 1232.59 31.9986   5
   3  -3   9 1246.69 32.1964  11
  -3   0   9 1267.78 32.2503  11
   0   3   9 1266.00 31.7486   3
   3  -3   9 1264.36 32.1905   9
   3  -3  -9 1178.61 32.5163  11
   3  -3  -9 1205.73 35.0602   2
  -3   3   9 1201.50 33.1227  11
   0  -3   9 1241.23 31.5818   4
   3  -3   9 1244.52 34.1981   8
   0  -3  -9 1223.92 32.7622   9
  -3   0   9 1267.70 31.9593   7
  -3   0  -9 1268.45 32.2135   7
   3   0  -9 1218.27 33.4982   2
   0  -3  -9 1272.76 32.4739  12
   0  -3  -9 1226.46 29.4173   7
  -3   0  -9 1294.88 32.7410   4
   0  -3   9 1219.28 31.6542   9
   0   3  -9 1144.78 34.1403   3
  -3   3   9 1218.16 33.9532  10
  -3   0   9 1233.78 29.3269   5
   3   0  -9 1277.02 29.5859   8
   3   0  -9 1303.28 31.6939  11
   0   3   9 1234.44 32.9065   8
   0   3   9 1192.97 33.2390  10
  -3   3   9 1247.65 36.8373   3
   0   3  -9 1301.94 33.3899   2
  -3   3  -9 1252.65 33.4469  11
  -3   0   9 1213.86 33.0725   3
  -3   0   9 1249.20 32.9497  12
   0   3   9 1382.00 29.4325  11
   0   3   9 1206.24 29.0190  11
   0  -3  -9 1330.53 30.0804  11
   0   3  -9 1276.81 31.5524   6
   0  -3  -9 1196.84 32.1379   4
   2  -4   9 5.00926 3.72947   9
   2  -4   9 3.46388 2.98359   4
   2  -4   9 5.33843 3.84833   5
   4  -2  -9 1.88992 3.38622  11
  -2   4   9 5.67209 5.05290  10
  -2  -2   9 9.39224 4.30836   4
   2  -4  -9 5.48841 3.83609   4
   2  -4  -9 8.82456 3.63903   9
   2  -4  -9 8.35947 3.76823  11
   4  -2   9 2.57774 4.24270   8
   2   2   9 10.4454 4.26096   8
  -4   2   9 6.61003 4.25017  10
   2  -4  -9 5.41225 2.81266  12
   2   2   9 1.70436 3.08119  10
   2   2   9 5.87622 2.42234  11
  -2   4  -9 4.81192 2.75381  11
  -4   2   9 12.9182 4.48792  11
  -4   2  -9 1.86228 5.72921   3
   4  -2  -9 5.85245 4.97554   2
  -2  -2   9 12.7844 4.51182  12
   2   2  -9 1.98220 2.68180   8
  -2   4  -9 -7.8897 4.87256   3
   4  -2   9 3.65208 3.44448  11
  -4   2  -9 1.37540 4.23459  11
   2   2   9 1.64137 3.98282   2
  -4   2  -9 4.68363 2.84675  12
   4  -2   9 2.52877 4.40605   2
  -2  -2  -9 2.69159 3.91391  12
  -4   2   9 5.09638 5.95242   3
  -4   2   9 4.74902 2.94839   7
  -2  -2   9 1.54990 3.18545   7
   2   2  -9 8.46179 3.30158  10
  -2  -2  -9 2.96584 3.39843   7
  -2   4   9 7.35758 5.59152   3
  -2  -2  -9 8.69669 4.08253   4
  -2   4   9 8.64308 2.84582  11
   2   2  -9 1.71489 3.83774   2
  -2   4  -9 8.36158 3.66337   6
  -3  -1  -9 1111.25 31.2734   4
   4  -3  -9 1104.78 28.6439   6
   1  -4  -9 1113.16 29.2510  12
   3  -4   9 1125.37 29.6814  11
  -1   4  -9 1118.63 32.6643   3
  -3   4   9 1085.45 35.1733   3
  -1   4  -9 1095.21 32.0690  10
   3   1  -9 1172.09 26.8122   8
   1  -4  -9 1089.11 30.8535   9
  -4   3  -9 1115.61 34.7662   3
   4  -1   9 1114.57 31.8670   8
   4  -1   9 1103.78 31.0243  11
   4  -1   9 1118.27 33.3330   2
  -1  -3   9 1096.39 31.2751  12
  -3   4   9 1113.89 30.7164  11
  -1   4  -9 1113.70 28.3630   6
  -4   3  -9 1166.02 33.0696  11
   1   3   9 1072.71 30.9715   8
  -3  -1  -9 1149.24 30.9317  11
  -1  -3   9 1112.00 29.5769   5
  -1  -3   9 1116.11 30.9080   4
  -4   1   9 1112.20 30.3564  12
  -3   4   9 1087.42 33.2488  10
  -1  -3   9 1081.50 29.6072   7
  -4   1   9 1090.44 29.5948   7
   1   3   9 1105.88 31.1499   2
   3  -4   9 1091.04 31.5467   2
  -1  -3   9 1116.64 30.4751   9
   3   1  -9 1117.74 27.9080  11
   4  -3  -9 1082.64 29.8092   9
   4  -3  -9 1153.51 31.7762  11
   1  -4  -9 1101.04 30.6763   4
  -3  -1  -9 1087.06 31.4714  12
  -4   1   9 1071.46 31.5910  11
   3   1  -9 1108.07 31.6330   2
   3  -4   9 1092.51 30.2786   5
   3  -4   9 1062.96 30.2176   9
  -4   1   9 1086.72 26.7304   5
   3  -4   9 1112.79 27.4570   4
  -3  -1  -9 1074.66 30.1244   7
   4  -3  -9 1060.80 33.5433   2
  -4   1   9 1086.13 33.1384   3
  -1   4   9 1058.73 31.5862  10
  -1  -3  -9 1032.37 29.7739   4
   1  -4   9 1040.82 27.4250  12
  -4   3   9 1064.75 26.1678   7
  -3   4  -9 1032.30 33.3591   3
  -4   3   9 1045.38 31.0999  11
   4  -3   9 1047.92 31.1599   8
  -4   1  -9 1072.90 31.5737  11
   1   3  -9 943.614 29.9123   3
  -1  -3  -9 1015.23 27.1227   7
  -3   4  -9 1096.16 26.9357   6
   1  -4   9 1034.67 29.2218   5
   1  -4   9 1046.51 28.9003   9
  -3   4  -9 1055.21 29.2261  11
   3  -4  -9 1047.22 29.0348  11
   1   3  -9 1024.87 27.4625  10
   3   1   9 1031.95 29.4713   8
   3  -4  -9 1000.97 32.5320   2
  -3  -1   9 1066.20 30.6173  12
   1   3  -9 1037.65 26.9756   8
  -1   4   9 1083.04 30.6351   8
   3   1   9 1007.20 30.6348   2
  -4   3   9 1066.09 30.6246  10
   1   3  -9 1074.38 28.9031   6
   4  -3   9 1041.25 31.7010   2
  -4   1  -9 1068.45 29.4179   7
  -4   1  -9 1088.35 30.0178   3
   4  -1  -9 1032.54 29.3303  11
  -1  -3  -9 1028.28 30.5079   9
  -1   4   9 995.993 30.6770   3
  -1  -3  -9 1055.63 30.1359  12
   1  -4   9 1044.51 27.7913   4
  -4   1  -9 1015.39 28.1614  12
   3   1   9 1060.64 27.8048  11
   3  -4  -9 1041.34 28.9638   4
   4  -3   9 1020.19 29.5634  11
  -4   3   9 984.746 33.6748   3
   3  -4  -9 1049.56 29.2199   9
  -3  -1   9 1048.95 29.0306   7
   4  -1  -9 1033.28 31.9893   2
  -3  -1   9 1047.91 25.8174   5
   0  -4   9 843.841 24.6907   7
   0   4   9 832.117 26.7079   8
  -4   4   9 841.278 31.8308   3
   0   4  -9 893.000 25.1313   8
   0   4  -9 862.854 24.1490   2
   4  -4   9 804.187 24.1599   4
   4  -4  -9 847.304 29.5542   2
   4   0  -9 851.672 28.4943   2
   0   4  -9 873.840 25.0002   6
   4  -4   9 855.846 26.2682  11
   0  -4  -9 861.971 26.0984  12
  -4   4   9 808.883 26.9795  11
   4   0   9 847.457 25.4817  11
  -4   0  -9 837.026 27.8451  11
  -4   0  -9 857.199 26.4202  12
   4   0   9 840.396 28.7724   2
   4   0  -9 879.576 25.0178  11
   4  -4   9 829.098 25.2787   9
   0  -4   9 872.621 25.8306   4
  -4   0   9 876.030 25.7677   7
   4  -4  -9 856.883 25.5806   9
   4  -4   9 852.040 28.3261   2
  -4   0  -9 857.957 26.2994   7
   4  -4  -9 829.758 26.7480  11
   0  -4   9 869.139 25.9798   9
  -4   0   9 820.008 26.2683   3
  -4   0   9 840.608 26.5437  12
  -4   4  -9 848.089 31.1999   3
   0   4   9 877.121 27.6507  10
   0  -4   9 878.791 26.1121   5
   0  -4  -9 852.873 26.8612   9
   0   4   9 871.876 25.5025   3
   0  -4  -9 861.578 26.6854   4
  -4   4   9 879.147 28.8415  10
   4   0   9 861.660 26.7929   8
   0   4  -9 855.720 26.6064  10
  -4   4  -9 842.557 27.2707  11
   0   4  -9 860.606 26.9999   3
   0  -4   9 881.213 25.8325  12
   3  -5   9 41.9333 7.08411   4
   5  -2   9 37.5710 7.86618   8
   3  -5   9 33.6301 6.76642   9
   2   3   9 34.9999 7.18895   8
   2  -5  -9 29.5767 6.91212   4
  -5   2   9 32.0460 8.15449  11
  -2  -3   9 41.1800 7.94956   4
  -3   5   9 40.5497 9.39939  10
  -5   3  -9 45.0973 8.21093  10
  -3   5   9 33.7003 5.79407  11
  -2  -3   9 39.0476 6.55732   5
  -2   5  -9 40.3299 8.12850  10
   2  -5  -9 30.6819 6.37577   9
  -3  -2  -9 46.9422 8.12578   4
   2   3   9 38.3167 7.62322   2
   3   2  -9 28.3462 7.28568   2
   5  -2   9 40.2038 7.02466  11
  -3   5   9 50.7354 10.6114   3
  -3  -2  -9 34.1456 6.15356   7
   5  -3  -9 27.8792 8.17655   2
  -5   3  -9 40.0699 11.2032   3
  -5   2   9 42.8368 10.1810   3
  -2   5  -9 39.0319 9.39333   3
  -2  -3   9 30.9694 6.05918   7
   5  -2   9 30.7797 8.85032   2
  -5   3  -9 42.8667 6.55973   7
   3  -5   9 45.1824 7.33389   5
  -2   5  -9 41.6683 4.25931  11
   5  -3  -9 38.0962 7.32211  11
  -3  -2  -9 30.3779 6.95246  12
  -5   3  -9 47.9575 8.57369  11
  -5   2   9 40.3464 6.18395   7
  -2  -3   9 40.0710 7.93588  12
   5  -3   9 35.9807 7.66190   8
  -2   5   9 22.9429 8.43235  10
  -5   3   9 37.4664 9.06864  10
  -3   5  -9 31.9286 5.38484  11
  -3   5  -9 44.9874 8.80919  10
   5  -3   9 38.3714 6.76009  11
   3  -5  -9 20.4646 5.94811   9
   3   2   9 35.7850 6.78392   8
   3   2   9 29.1721 4.44294  11
  -2   5   9 32.3799 4.63082  11
  -3  -2   9 31.1213 6.08859   7
   3   2   9 22.2873 6.77381   2
   2   3  -9 28.3669 7.00389   2
  -5   2  -9 33.2205 6.50318   7
  -2  -3  -9 26.6303 5.85139   7
  -3   5  -9 38.0018 9.79412   3
   5  -3   9 34.1567 9.58133   2
  -5   2  -9 25.4281 8.02510  11
   2   3  -9 30.2969 6.64815   6
   5  -2  -9 31.5904 9.35696   2
  -2  -3  -9 30.9850 7.27110   4
  -3  -2   9 24.5228 7.01546  12
  -5   2  -9 23.9289 9.97316   3
  -5   3   9 40.5725 5.70276   7
   3  -5  -9 20.6655 5.93300   4
   2  -5   9 32.3919 6.78880   9
   2  -5   9 35.5176 6.35328   4
   2  -5   9 34.3008 6.55056   5
  -5   3   9 38.0635 7.74192  11
  -5   2  -9 38.8038 5.70725  12
  -2   5   9 18.3718 8.78066   3
  -5   3   9 21.7628 10.1813   3
  -2  -3  -9 27.3026 7.04359  12
   5  -2  -9 28.9548 6.28003  11
  -4   5   9 497.048 29.7113   3
  -5   4  -9 560.984 27.0244   3
  -1   5  -9 567.156 23.8168   3
   5  -1   9 584.138 22.5964   8
   1  -5  -9 560.588 20.0233  12
  -5   1   9 555.743 23.5348  11
   5  -4  -9 593.042 23.0593  11
  -1  -4   9 551.362 21.7951   9
   1   4   9 572.188 22.1271   2
   4  -5   9 542.908 22.1186   9
  -1  -4   9 549.795 19.9487   7
  -4  -1  -9 516.428 23.2025   7
   1   4   9 560.698 21.9534   8
  -1   5  -9 560.130 23.6388  10
  -4  -1  -9 580.219 23.0763  12
  -5   4  -9 559.826 23.3400  10
   5  -4  -9 555.170 20.3185   9
  -4   5   9 535.537 21.4781  11
   4   1  -9 575.136 18.0210  11
   4   1  -9 604.774 23.7018   2
   1   4   9 586.394 21.6104  10
   4  -5   9 553.046 23.3893   2
  -5   1   9 586.406 24.0390   3
  -4   5   9 525.678 24.8630  10
  -5   1   9 554.117 21.2180  12
  -5   1   9 569.810 20.5091   7
  -1  -4   9 555.217 21.6371   4
  -1  -4   9 554.999 20.7121   5
  -1  -4   9 573.418 22.1387  12
   1  -5  -9 546.714 21.6943   4
   4   1   9 611.264 21.7691   8
   1   4  -9 634.999 21.1281   2
  -1   5   9 556.476 24.6197  10
  -5   1  -9 618.226 21.2417  12
   1  -5   9 589.824 23.0528  12
   4  -5  -9 574.189 22.0483   9
   4   1   9 575.181 26.8578   2
  -5   1  -9 523.263 25.5969   7
  -5   4   9 564.597 24.4165  10
   5  -4   9 581.011 22.7202  11
   1   4  -9 629.271 21.5450   6
   4   1   9 577.952 19.7416  11
  -1   5   9 608.568 23.2126   8
  -4  -1   9 537.641 22.7681  12
  -4   5  -9 554.314 29.0925  10
   5  -1  -9 569.221 25.1338   2
   1  -5   9 618.173 22.2384   9
  -1   5   9 604.806 24.1480   3
  -5   4   9 565.603 25.0066  11
   1  -5   9 563.975 22.2683   5
   5  -1  -9 595.245 25.6462  11
  -5   4   9 546.456 31.8232   3
   4  -5  -9 628.649 26.4969   2
  -1  -4  -9 594.158 19.4310   7
   5  -4   9 583.018 25.0733   2
  -4   5  -9 601.979 21.8909  11
  -1  -4  -9 604.473 22.9924  12
   4  -5  -9 613.590 21.3798   4
   1  -5   9 604.873 21.1411   4
  -5   1  -9 575.453 24.7709  11
   0   5  -9 365.837 17.6225   8
   0   5   9 344.268 19.7924  10
  -5   0  -9 345.873 17.0947   7
   5  -5  -9 342.871 19.5942  11
   5  -5  -9 313.704 16.1037   4
   5   0   9 324.943 18.2055   8
   0  -5   9 322.038 17.3418   5
   0  -5  -9 319.396 17.8008  12
  -5   5  -9 360.641 25.6819   3
   0  -5   9 361.777 16.3277   7
  -5   5  -9 336.011 20.1850  10
  -5   0   9 317.799 18.0422  12
   0   5  -9 332.859 18.6312  10
   5  -5   9 337.783 32.0488   2
  -5   5   9 312.524 21.8349  10
   0  -5   9 341.770 18.7244   4
   5   0   9 319.699 16.1776  11
  -5   0   9 302.690 16.9536   7
   5  -5  -9 345.491 16.8504   9
  -5   5   9 325.411 23.5815   3
   5   0  -9 317.531 20.7609   2
   0  -5  -9 337.067 18.2866   4
   0   5   9 351.622 19.2466   8
   0   5   9 323.637 18.2091   2
   5   0  -9 310.167 15.2796  11
  -5   5  -9 317.102 18.1522  11
   0  -5   9 348.400 18.1347   9
   5  -5   9 337.364 16.6788   9
   5  -5  -9 327.732 21.3331   2
   0  -5   9 316.941 18.0058  12
   5   0   9 334.716 20.7341   2
   0  -5  -9 336.183 18.4881   9
  -5   5   9 323.176 17.7518  11
  -5   0  -9 319.488 18.3445  12
  -6   3   9 96.8161 9.77570   7
   3  -6  -9 68.2843 10.2542   9
  -6   3  -9 96.5173 25.5205   3
  -3   6  -9 118.876 16.4634   3
   3  -6  -9 96.3289 11.1129   4
  -3  -3  -9 82.3511 9.66619   7
   6  -3   9 70.5812 13.6721   2
   3   3   9 81.1031 12.0124   2
  -3  -3   9 65.3320 10.6291  12
  -3   6   9 94.1231 15.2803   3
   6  -3   9 87.0273 12.0051   8
   3   3   9 80.6090 11.2625   8
   3   3  -9 97.6916 11.8730   6
  -6   3  -9 77.6775 12.4027  11
  -3  -3  -9 83.9893 11.9203   4
  -6   3   9 108.891 13.7303  11
  -3  -3   9 99.4882 10.9481   7
  -6   3   9 82.5573 15.9207   3
   3   3  -9 91.4335 12.0064   2
  -6   3  -9 92.8512 10.3502   7
   6  -3  -9 75.6658 10.2826  11
  -3   6   9 79.9721 14.0648  10
  -3   6   9 92.9226 9.38763  11
  -3  -3  -9 88.6512 12.2197  12
   6  -3  -9 78.9177 13.3522   2
   6  -3   9 87.4502 10.7587  11
  -3   6  -9 95.5931 13.6659  10
   3  -6   9 74.3680 10.4640   9
  -6   4  -9 115.992 13.3451   7
  -4  -2  -9 113.647 13.7460  12
  -4   6   9 151.679 16.7132  10
  -2  -4   9 133.909 12.9566   7
  -2   6  -9 130.808 15.5847  10
   6  -4  -9 130.478 15.6798  11
   6  -4  -9 170.906 12.7604   9
  -6   2   9 157.604 18.7235   3
  -2   6  -9 156.591 18.0152   3
   6  -2   9 142.923 16.6456   8
   2  -6  -9 130.934 14.2955   4
   2   4   9 137.618 15.7543   8
  -2  -4   9 134.816 15.9308  12
  -4  -2  -9 175.447 14.0462   7
  -4   6   9 125.739 12.0202  11
   4   2  -9 146.101 15.6789   2
   2   4   9 148.140 16.1074   2
  -6   4  -9 139.557 19.8661   3
   6  -2   9 130.662 13.8249  11
  -6   4  -9 173.199 16.8678  11
   2  -6  -9 145.734 14.5563   9
  -6   2   9 147.668 13.9448   7
   4  -6   9 121.803 14.1151   9
   6  -2   9 119.351 15.6974   2
  -2  -4   9 133.327 16.7555   4
   6  -4  -9 150.588 18.1551   2
  -4   6   9 169.112 21.5693   3
  -4  -2   9 144.936 15.8930  12
  -6   2  -9 149.631 14.5620   7
  -4   6  -9 166.214 12.3569  11
   4  -6  -9 138.169 14.5457   9
  -6   2  -9 135.362 16.5305  11
   6  -4   9 159.884 15.1849  11
   6  -4   9 151.096 18.9320   2
  -6   4   9 148.852 16.3292  11
   4  -6  -9 139.723 13.9346   4
  -2   6   9 118.924 15.5375  10
  -2  -4  -9 119.409 14.5349   4
  -4   6  -9 127.641 14.8288  10
   4   2   9 153.534 9.84352  11
   4   2   9 122.206 15.1118   2
   2  -6   9 131.512 14.3194   5
  -2   6   9 139.230 16.7426   8
  -4   6  -9 132.948 18.1302   3
   6  -2  -9 154.704 18.6501   2
   2   4  -9 131.288 15.1779   6
  -6   4   9 148.268 19.2726   3
   2  -6   9 122.061 12.8973   9
  -4  -2   9 142.266 13.3855   7
   6  -2  -9 131.645 13.5457  11
  -2  -4  -9 156.575 13.5897   7
  -2  -4  -9 153.422 16.3759  12
  -1  -5   9 -9.4742 9.79797  12
   5  -6   9 4.02127 8.21392   9
  -1  -5   9 -1.4193 7.96703   7
  -6   1   9 -2.1326 8.60388   7
  -6   5  -9 -11.962 8.44925  11
  -1   6  -9 1.56868 11.9230  10
   6  -1   9 -3.3270 7.02740  11
   6  -1   9 12.1659 12.6090   2
  -1  -5   9 -1.8375 10.5445   5
  -5  -1  -9 -2.3263 8.08826   7
  -5  -1  -9 0.10828 9.81872  12
   1   5   9 12.8137 10.0633   2
  -5   6   9 9.51703 14.1526   3
   5   1  -9 9.02606 6.00258  11
  -5   6   9 -15.368 12.2255  10
   6  -5  -9 5.35436 10.8815  11
  -1  -5   9 9.65434 10.9618   4
   5   1  -9 -6.1980 13.1385   2
   5  -6   9 11.9465 13.0182   2
  -1   6  -9 5.27035 9.94785   8
   6  -5  -9 -6.3160 11.9586   2
  -6   5  -9 14.6944 16.0939   3
   6  -5  -9 13.9804 7.52625   9
   1   5   9 6.67737 10.3405   8
  -6   5  -9 5.82005 13.2450  10
   1  -6  -9 2.41278 10.2553   4
  -5   6   9 11.1376 7.63174  11
   1  -6  -9 4.28569 9.38566   9
  -1  -5   9 13.7165 10.9847   9
  -1   6   9 0.45854 13.2882  10
  -5   6  -9 -1.6253 7.69425  11
   5  -6  -9 5.39412 8.71675   4
  -5  -1   9 -1.0022 7.57454   7
  -6   5   9 5.10016 8.35497  11
   5   1   9 0.86492 11.5838   2
  -6   5   9 -12.830 13.2102  10
  -1  -5  -9 -17.966 9.25979   4
  -6   5   9 -4.5621 14.5923   3
  -1  -5  -9 20.9821 10.2549   9
   5  -6  -9 13.1290 7.99735   9
   5   1   9 9.49527 6.87751  11
   6  -1  -9 7.21265 12.5148   2
   1  -6   9 15.4619 9.70815   9
   6  -5   9 11.7672 7.44901   9
  -1   6   9 3.20007 9.86320   8
   6  -5   9 8.49581 10.4267  11
  -1  -5  -9 5.30895 9.56531  12
   6  -5   9 15.5949 12.4332   2
  -6   1  -9 3.42431 8.13923   7
  -5  -1   9 -10.957 8.94227  12
  -5   6  -9 -12.026 11.3595  10
   1  -6   9 10.0493 9.87754   5
  -5   6  -9 23.4267 14.6525   3
   6  -1  -9 12.1397 7.44262  11
   0   0 -10 -0.0802 0.81864   7
   0   0 -10 0.44693 0.76717  11
   0   0  10 0.78341 0.87550   8
   0   0 -10 -0.3559 0.97288   8
   0   0 -10 2.58658 1.06074  11
   0   0  10 1.42359 0.99688  10
   0   0 -10 0.13149 1.20906   6
   0   0  10 0.29663 0.56811   9
   0   0  10 0.40818 0.99454   3
   0   0 -10 1.66804 1.35327   3
   1   0  10 73.8227 3.89983   8
   0   1 -10 65.5372 3.88172   6
   0   1  10 63.7087 3.29598  11
   0  -1 -10 66.2612 4.46297   6
   0  -1  10 72.2980 2.61077   9
   1   0  10 73.8709 3.61332  10
  -1   0 -10 72.5570 3.64283  12
   1   0  10 69.3984 3.53116   2
   0  -1 -10 70.3502 3.35183   9
   1   0  10 74.0020 3.52133  11
  -1   0  10 73.2820 3.39710  10
   1  -1 -10 71.8755 3.60633  11
   0   1  10 69.0582 3.68634   8
   0  -1  10 65.1795 3.22057   5
   1   0 -10 72.2890 3.33845  11
   0   1  10 73.3805 3.55722   3
  -1   1  10 70.6700 3.73125   6
   0   1 -10 69.3516 2.93500  11
   1  -1 -10 72.6769 2.91577   9
   1   0 -10 64.3374 3.48466  10
   1   0 -10 68.7556 3.57423  11
   1   0 -10 68.4598 3.67235   2
   0  -1 -10 71.9502 3.38204   4
  -1   0  10 76.8291 3.47013  11
   1  -1  10 68.4798 3.19147   2
   0   1 -10 67.0314 3.08881   8
   0   1 -10 70.0785 2.59569   9
   0   1 -10 74.8723 2.90598  11
  -1   1 -10 64.5430 3.59151  11
   1  -1 -10 74.7904 2.36659   7
   1  -1  10 66.5307 3.31411  11
   1  -1  10 71.6713 3.84265   8
   0  -1  10 75.8930 3.44780   7
   0  -1  10 71.5294 3.14473   8
  -1   1 -10 70.6986 3.15864   2
   1  -1  10 69.6270 3.11617   5
   0   1  10 68.0230 3.96806  10
  -1   0  10 67.1867 3.91915   2
   0  -1 -10 68.8303 3.78515   3
  -1   0 -10 69.3556 5.31768   6
  -1   0 -10 74.3041 3.79969  11
  -1   1  10 71.2828 3.63728  11
   1  -1 -10 76.8260 3.70882   6
  -1   0  10 71.1336 4.33459   3
  -1   0  10 69.6724 3.15509   7
  -1   1 -10 67.0223 3.41601  11
  -1   1  10 67.4173 2.77435   7
  -1   0 -10 75.3292 3.15850   4
   0  -1  10 70.6762 2.78701  11
  -1   1 -10 73.6016 4.61205   6
   0   1 -10 70.4460 2.91194   4
   1  -1 -10 75.0365 4.12129   2
  -1   1  10 65.7777 4.56911   3
   0   1  10 72.3575 3.33092  11
  -1   1  10 67.4887 3.81660  10
   1   0  10 76.6672 3.60239   4
   1   0 -10 76.9794 3.85641   6
   0  -1 -10 71.3923 3.46823  11
  -1  -1  10 729.847 18.3606   5
   1  -2 -10 761.572 18.4935   6
   1   1 -10 715.831 19.4134   6
  -1  -1 -10 727.164 21.2167   6
  -1   2  10 735.983 20.6429   3
  -1  -1  10 735.612 19.7065  12
  -2   1 -10 716.415 19.5291   3
   1  -2  10 744.362 17.0922   4
  -1   2 -10 728.633 18.1578   2
  -1  -1 -10 770.813 19.0264  11
  -1  -1 -10 717.269 18.8697   4
  -1  -1 -10 701.010 19.4579  12
   1   1  10 729.493 18.6490  11
  -2   1 -10 697.130 19.9816  11
  -1   2 -10 713.774 18.4791  11
  -1   2 -10 736.501 20.1244   3
   1  -2 -10 765.925 19.3238   4
   2  -1  10 728.331 19.7191   2
   2  -1 -10 693.132 20.1861   2
   1  -2  10 695.286 18.7561   5
   1  -2 -10 743.158 18.9157  11
  -1  -1  10 723.186 18.7927   7
  -1  -1 -10 725.020 18.2941   7
   1  -2  10 747.600 18.0405   2
   1   1  10 751.239 18.4404  11
   1  -2  10 722.902 18.3610   9
   1  -2  10 758.750 18.0500  11
  -1   2  10 745.018 17.3002   6
  -1   2  10 740.270 20.4399  10
   1   1 -10 740.531 16.5148   8
   1  -2 -10 714.979 18.6569   9
   2  -1  10 734.904 20.0800   8
   2  -1  10 767.049 17.3577   5
  -2   1 -10 688.264 17.0974   5
   1   1 -10 772.309 16.6388   8
  -2   1  10 734.815 21.1751   3
  -1   2 -10 728.558 19.4874   6
  -1  -1 -10 732.386 19.6802   9
  -1   2 -10 761.165 17.9365  11
  -2   1 -10 743.067 18.1556  12
   2  -1 -10 732.541 19.3548  11
   1   1  10 764.346 19.6032   2
   1   1  10 737.999 19.6811   8
   1   1  10 726.199 18.8041  10
  -2   1  10 746.325 17.9144   7
   1   1 -10 726.583 18.1864   2
   1   1 -10 732.160 17.4239  11
  -2   1  10 713.553 19.6059  11
  -1  -1  10 778.225 17.5265  11
  -2   1 -10 730.819 21.6306   6
   1   1 -10 764.908 17.8309  11
  -1  -1  10 750.453 18.2989   9
  -1   2  10 712.435 18.6998  11
   2  -1  10 707.492 19.2030  11
   1  -2  10 739.611 19.6794   8
  -2   1  10 721.425 18.9035  10
  -2   0  10 1951.03 47.4994   3
   0   2 -10 1991.64 46.2498   6
   2   0  10 1884.66 46.0893  11
   0  -2 -10 1975.65 46.4050   4
  -2   0  10 2025.25 43.6152   8
   0  -2 -10 1960.22 46.5584   9
   2  -2  10 1957.71 46.2846  11
   0  -2 -10 2041.04 44.2371   7
   2  -2  10 2073.98 47.2012   2
   2   0 -10 1912.16 45.7935  11
   2   0  10 2029.61 45.1034  10
   0  -2  10 2058.09 43.4006  11
  -2   0  10 2064.86 46.3242  11
  -2   0  10 1965.20 44.8024   5
   2  -2  10 1987.88 45.5863   5
   2  -2 -10 1967.57 48.5027   2
  -2   0  10 1955.06 46.9216  12
   0  -2 -10 2007.90 46.5656  12
   0   2  10 1985.02 47.3069  10
   0   2  10 1997.53 45.0665  11
   0   2  10 1926.67 44.8727  11
  -2   2 -10 1926.29 47.0996  11
  -2   0 -10 1967.56 49.8124   6
   0  -2  10 1953.73 46.1926  12
  -2   0 -10 2000.61 46.0136   4
   2  -2 -10 1950.91 46.6141  11
  -2   2 -10 1960.29 48.0069   3
  -2   0  10 1946.90 45.8333   7
   0   2  10 1928.06 46.8287   8
   0  -2 -10 2025.56 45.4521  11
  -2   2  10 1983.00 49.3560   3
   2   0 -10 2042.75 44.1719  10
  -2   0 -10 2081.27 44.8685   3
  -2   0  10 2064.72 44.1053  10
  -2   0 -10 2017.70 47.3061  11
   2   0 -10 1891.88 46.8254   2
  -2   0 -10 1993.51 46.4409  12
   2   0  10 1991.83 47.2488   2
   2   0  10 1966.74 47.0957   8
   2  -2  10 1940.41 47.6762   8
   0  -2  10 2030.82 45.5605   4
   0   2  10 2023.91 45.8695   3
   0  -2  10 1946.32 46.0069   5
   0  -2  10 2013.05 46.0339   7
   0  -2  10 1954.85 45.2326   9
   2  -2 -10 2028.32 45.1020   6
  -2   2  10 2074.53 43.4917   7
  -2   2  10 1971.05 47.0320  11
   0   2 -10 2009.56 44.3352   2
   2  -2 -10 1966.34 45.7359   9
  -2   2 -10 2019.11 48.0797   6
   0  -2 -10 2076.35 46.7626   6
  -2   2  10 1918.38 47.4599  10
   1   2  10 945.520 23.1050  11
  -1   3 -10 936.802 22.6906  11
  -1  -2  10 955.257 24.8268   7
  -2  -1 -10 963.389 25.5027   4
  -1   3 -10 939.796 24.4693   6
  -2  -1 -10 945.294 25.9288  12
   3  -2 -10 963.044 27.8211   2
   1   2  10 971.154 23.3094  11
   3  -1  10 957.698 26.3854   8
   2   1 -10 957.081 23.1499  11
  -2   3  10 999.534 25.7113  11
   3  -2 -10 899.581 25.9982  11
  -1  -2  10 964.272 26.0324  12
   1   2  10 824.660 26.9977   8
  -1   3 -10 1036.18 22.3951  11
   3  -1  10 950.140 26.7298   2
  -2  -1 -10 861.319 25.7316   7
   1  -3 -10 924.432 25.5280   9
   2   1 -10 999.384 21.8557   8
  -3   1  10 955.823 26.1679  11
  -2   3  10 952.161 27.3192  10
   2  -3  10 942.752 25.1350   5
   2  -3  10 889.146 24.0499  11
  -3   1  10 962.929 23.6328  10
   2   1 -10 952.768 25.2684   2
   2   1 -10 963.419 21.5125  10
   1  -3 -10 1002.41 24.2875  11
   1  -3 -10 980.491 24.3162  12
  -1  -2  10 945.437 24.3752   5
   2  -3  10 920.124 25.2559   2
   2  -3  10 950.533 22.6263   4
  -2   3  10 914.547 30.0902   3
   1   2  10 976.070 25.9408   2
  -3   2 -10 996.499 22.5732  12
  -2  -1 -10 936.606 25.1289  11
  -1   3 -10 927.758 26.6992   3
  -3   1  10 946.794 27.4540   3
  -3   1  10 932.792 24.1638   7
   1   2  10 940.375 24.8479  10
  -3   2 -10 932.022 27.3929   3
   1  -3 -10 945.589 25.2671   4
   2   1 -10 965.876 23.9540  11
  -1  -2  10 950.133 24.6777   9
  -3   2 -10 930.569 26.7760  11
  -3   2 -10 976.089 27.6725   6
   3  -1  10 925.224 25.4879  11
  -1  -2  10 941.351 25.2461   4
   1  -3  10 1063.81 26.6870   9
  -1  -2 -10 1103.62 26.0430  11
   2  -3 -10 1024.84 26.8973  11
  -3   2  10 1042.88 27.5892  10
  -3   1 -10 999.785 28.6080  11
  -3   1 -10 1055.97 26.2574  12
  -2  -1  10 1034.55 26.8627   7
   1  -3  10 1029.40 27.1807   5
   3  -2  10 1021.06 25.1792   5
  -3   2  10 1009.58 30.6017   3
   1  -3  10 1043.36 25.3952   4
  -1  -2 -10 1014.20 28.1066   9
   3  -2  10 1054.75 28.8643   8
  -2   3 -10 1036.91 29.5998   3
  -3   2  10 985.953 30.7710  11
   2   1  10 952.166 27.5091  11
   3  -2  10 1045.46 27.7263  11
   2   1  10 1060.03 28.2963   8
   1   2 -10 1032.44 27.3028   6
  -3   1 -10 1045.47 27.9070   3
   2  -3 -10 1070.77 24.9730  12
  -2  -1  10 1030.91 28.1523  12
   1   2 -10 1069.36 26.1038   2
  -1   3  10 1056.49 28.9816   3
  -2   3 -10 1064.25 23.5287  12
  -1   3  10 1009.85 28.9088  10
  -1   3  10 1061.49 25.8671  11
   2  -3 -10 1056.64 27.5410   4
   3  -1 -10 989.014 29.2964   2
   2   1  10 982.932 27.8202   2
   2   1  10 1066.57 23.4349   5
  -1  -2 -10 1031.11 27.9372  12
  -1   3  10 1051.64 25.6953  11
   3  -2  10 1062.42 28.9446   2
  -1   3  10 1075.47 23.6439   6
  -1  -2 -10 1067.90 25.8668   7
   1   2 -10 1069.86 24.8701   8
   2  -3 -10 1025.62 26.9428   9
   2  -3 -10 1028.65 29.6165   2
  -1  -2 -10 997.482 27.1306   4
   2   1  10 1057.65 25.1820  10
  -3   1 -10 988.398 30.6690   6
   3  -1 -10 1021.99 27.4159  11
  -2   3 -10 1065.76 27.0718   6
  -2  -1  10 1049.98 25.6150   5
  -3   2  10 1070.26 25.1814   7
   0  -3  10 38.0348 4.40446   7
   3  -3  10 40.5363 4.97310  11
  -3   3  10 39.3419 5.21460  11
   3  -3 -10 29.8495 4.75778  11
   3   0  10 25.5240 3.62871  11
  -3   0  10 35.0764 4.52754  11
   3  -3  10 37.3164 4.72274   9
  -3   0 -10 37.4199 4.78233  12
  -3   0 -10 30.8660 4.14743   7
   3  -3 -10 33.7162 4.08171   9
   0  -3  10 45.8413 4.92634   4
   3   0 -10 40.0335 4.30052  11
   0   3  10 35.1527 5.29958  10
   0   3  10 39.4319 3.82375  11
  -3   0 -10 39.1265 3.84590   3
   0   3  10 36.1460 4.98476   8
  -3   0 -10 30.2612 4.60963   4
  -3   3  10 30.4676 6.66021   3
   0   3 -10 42.3561 4.06704   2
   0   3 -10 31.2900 5.53797   3
   0   3 -10 40.5886 4.91144   6
   0  -3 -10 26.3546 3.89441   4
   0   3  10 38.7501 3.18565  11
   3   0 -10 33.4651 3.68259   8
   0   3  10 29.0100 4.42050   3
   3   0  10 26.5905 4.37593   8
  -3   3  10 40.1644 6.03605  10
   0  -3 -10 26.5317 4.14040   9
  -3   0  10 31.5665 4.14376   7
   0  -3  10 38.4469 5.70529  12
   0  -3  10 36.0303 4.49859   9
  -3   0  10 26.2927 5.10217   3
   0  -3 -10 44.0290 5.56320  12
   0  -3 -10 47.9118 4.70105  11
   3   0  10 33.7342 5.27261   2
  -3   0  10 29.2634 3.61951   5
   3  -3 -10 38.9874 4.22506   6
  -3   3 -10 34.5622 4.74179  11
   0  -3  10 28.1915 4.19699   5
  -3   0 -10 43.1728 5.37400  11
   3  -3  10 27.7092 4.92573   8
   0  -3 -10 34.7838 3.62974   7
  -3   3  10 38.3445 2.89632   7
  -3   0  10 43.8600 5.41051  12
   3   0 -10 36.6092 5.45683   2
  -3   3 -10 27.3642 4.86001   3
  -3   3 -10 32.4420 5.00560   6
   3  -3 -10 31.0712 6.28380   2
  -2  -2 -10 1247.70 35.0962  12
   4  -2  10 1264.34 35.6194   8
  -4   2  10 1291.27 33.0865  10
   2   2 -10 1301.25 30.2968   8
  -2   4 -10 1247.48 31.6363  11
  -4   2 -10 1287.46 36.8874   3
  -2  -2 -10 1280.71 34.5727   4
   2   2  10 1257.96 31.4779  10
   4  -2 -10 1254.63 34.6678  11
  -2  -2  10 1256.24 33.3340   7
   2  -4 -10 1274.74 32.8572  11
   4  -2  10 1284.31 34.7094  11
   2   2  10 1271.42 35.2513   2
   4  -2 -10 1284.42 37.0974   2
   2   2  10 1258.60 31.1502  11
   2  -4  10 1271.04 34.1240   5
  -2  -2  10 1275.05 32.1818   5
  -2   4 -10 1210.67 36.7000   3
  -2  -2 -10 1271.60 32.7960   7
  -4   2  10 1261.57 38.1896   3
  -4   2 -10 1233.76 36.2227  11
  -4   2  10 1250.34 35.6244  11
   2   2 -10 1344.22 32.7043  10
  -2  -2  10 1261.25 35.2528  12
   2  -4 -10 1257.28 33.9903   4
  -4   2 -10 1287.12 31.2231  12
   2  -4  10 1304.33 33.9539   9
  -2   4  10 1267.20 32.5036  11
   2   2 -10 1238.91 33.4950   2
  -4   2  10 1330.17 32.2906   7
   4  -2  10 1250.85 36.5441   2
  -2   4 -10 1322.99 31.5994   6
   2  -4  10 1286.45 31.2691   4
   2  -4 -10 1305.43 31.1064  12
  -2   4  10 1273.20 37.5139   3
  -2   4  10 1230.40 36.6083  10
   2   2  10 1281.72 34.7151   8
   2  -4 -10 1275.30 34.0213   9
   1   3  10 493.069 17.8448   8
   4  -3 -10 474.672 17.7077  11
   3  -4  10 491.980 16.8889   5
  -3   4  10 440.147 20.9018   3
  -1  -3  10 461.790 17.4330  12
  -3  -1 -10 506.889 17.7776   4
   4  -1  10 500.546 17.4776  11
  -4   1  10 476.653 16.0488   7
  -1  -3  10 473.440 16.1469   7
  -3  -1 -10 489.457 17.4723  11
  -4   1  10 514.980 17.2489  12
   1   3  10 500.985 17.6151   2
   4  -3 -10 480.261 16.1571   9
  -3   4  10 482.335 17.0596  11
  -3   4  10 464.787 19.3756  10
  -1  -3  10 473.741 16.7204   9
   3  -4  10 484.836 16.2716  11
   3   1 -10 492.050 18.0555   2
   3  -4  10 486.967 13.9933   4
   1   3  10 474.982 22.9864  10
  -4   1  10 488.879 13.8360   5
  -1  -3  10 487.923 16.2273   5
   1  -4 -10 489.971 16.0383  12
   4  -3 -10 478.086 15.3979   6
  -1   4 -10 475.228 18.7213   3
  -3  -1 -10 495.814 16.8994   7
  -1  -3  10 500.555 17.5916   4
   4  -1  10 474.135 19.2332   2
   1   3  10 451.555 12.9602  11
   1  -4 -10 478.228 17.1362   4
  -4   3 -10 489.291 20.6115   3
  -4   3 -10 499.877 19.0431  11
   4  -1  10 467.614 18.0371   8
  -3  -1 -10 469.927 17.5602  12
   3  -4  10 465.472 16.6644   9
   4  -3 -10 462.667 19.7709   2
  -4   1  10 486.424 18.2241  11
   3   1 -10 478.681 14.5110  11
   3  -4  10 482.587 18.1423   2
  -4   1  10 472.981 19.4647   3
   1  -4 -10 491.735 17.2312   9
  -1   4 -10 477.274 15.4417   6
  -4   1 -10 466.127 18.4323  11
  -4   3  10 450.073 17.8773  11
   3  -4 -10 471.640 16.2941   9
   4  -1 -10 438.982 18.5269   2
  -1   4  10 442.397 18.2509  10
  -1   4  10 431.457 17.9214   3
  -1   4  10 465.987 17.4508   8
  -3  -1  10 429.507 15.7591   7
  -4   3  10 468.664 17.5641  10
   1   3 -10 456.240 16.1354   6
   1   3 -10 458.683 14.2865   8
   4  -3  10 456.146 16.8960  11
   1   3 -10 455.402 15.2786  10
   1   3 -10 440.017 15.2792   2
  -4   1 -10 465.185 15.8160  12
  -4   3  10 466.722 13.5740   7
  -4   3  10 458.463 20.9935   3
   4  -3  10 451.175 18.9218   2
   1  -4  10 459.410 15.0562   4
  -1  -3 -10 444.731 14.5175   7
  -3  -1  10 426.130 17.1684  12
   1  -4  10 463.189 16.1575   9
   3   1  10 458.993 17.9918   2
   3  -4 -10 439.560 19.2883   2
   1  -4  10 457.665 16.5680   5
  -3   4 -10 412.843 19.2578   3
   3  -4 -10 465.441 16.5371   4
  -1  -3 -10 454.690 17.0088  12
  -3  -1  10 457.606 13.5371   5
   1  -4  10 431.726 14.9078  12
  -4   1 -10 452.291 17.3657   3
   4  -1 -10 457.773 16.4146  11
   3   1  10 460.837 16.9913   8
   3   1  10 440.595 14.9398  11
   4  -3  10 453.053 17.9713   8
  -3   4 -10 447.613 16.1650  11
  -1  -3 -10 452.610 16.8221   4
  -3   4 -10 489.394 14.6412   6
  -1  -3 -10 464.657 17.5953   9
  -4   1 -10 423.348 15.9245   7
   3  -4 -10 456.173 16.2605  11
  -4   4 -10 -5.0565 4.42182  11
   0   4 -10 10.4099 5.87052  10
  -4   0  10 7.27785 5.76257   3
   0  -4 -10 6.12556 4.95041  12
   0   4 -10 -0.0324 5.56327   3
   0   4 -10 3.43753 4.84892   6
   0  -4  10 -5.1439 3.63355   7
   4  -4 -10 3.32332 3.89604   9
   0  -4  10 -5.3693 4.51400   5
   4   0  10 1.50293 5.35323   2
   4  -4 -10 9.84759 6.35508   2
   4   0  10 -1.2912 4.95429   8
  -4   4  10 -5.9144 7.30429   3
  -4   0 -10 -1.9959 4.16875   7
   0  -4  10 -6.5143 4.62970  12
   0   4 -10 6.00449 4.29475   2
   4  -4 -10 3.53993 5.05298  11
   0  -4 -10 12.0042 5.59516   7
   0  -4  10 -0.7903 4.22623   9
   0  -4  10 2.79678 5.04149   4
   4   0 -10 9.53186 6.43688   2
   0  -4 -10 -0.0778 4.92414   4
   4  -4  10 -1.4441 6.07452   2
   0   4  10 3.62073 5.75559  10
   4  -4  10 2.66660 4.82424  11
  -4   4  10 11.9891 7.08823  10
  -4   4 -10 -4.1192 6.88460   3
   0   4  10 2.25511 4.79431   8
  -4   0  10 2.70257 5.03481  12
   4   0  10 -0.2595 3.79321  11
   4  -4  10 1.83569 3.63418   4
   4   0 -10 -1.9921 3.49587  11
   0  -4 -10 -2.3266 4.27618   9
   0   4 -10 6.05802 4.51467   8
   4  -4  10 2.09191 4.04580   9
  -4   0 -10 -1.2508 6.18592  11
  -4   0  10 5.71478 4.13074   7
  -4   4  10 -2.9415 4.13742  11
  -4   0 -10 -2.2029 4.28327  12
  -2   5 -10 247.948 15.3684  10
   2   3  10 258.997 14.7199   8
  -5   3 -10 246.755 12.9481   7
  -5   2  10 248.434 18.4469   3
  -3  -2 -10 246.489 14.8098  12
  -5   3 -10 246.502 19.1643   3
  -5   2  10 259.638 16.1673  11
  -2  -3  10 256.048 14.7685   4
   5  -2  10 255.867 14.6745   8
  -2  -3  10 260.992 15.1412  12
  -3   5  10 261.776 12.2864  11
   5  -2  10 256.848 17.0221   2
  -5   2  10 256.001 12.5955   7
  -3   5  10 252.825 18.6636   3
  -5   3 -10 278.219 15.0698  10
  -2  -3  10 232.263 12.3888   7
   3  -5  10 247.139 14.0568   9
   5  -2  10 250.495 14.0115  11
  -2  -3  10 257.432 12.8277   5
  -2   5 -10 223.172 16.8664   3
   3   2 -10 272.750 14.9450   2
   2  -5 -10 239.806 13.6267   4
   2   3  10 244.918 8.16094  11
  -3   5  10 227.603 16.5212  10
  -5   3 -10 269.166 16.3696  11
   2   3  10 231.769 14.8692   2
   2  -5 -10 267.931 13.9103   9
   5  -3 -10 256.178 17.3773   2
  -3  -2 -10 223.069 13.9627   4
   3  -5  10 242.944 13.6922   5
  -3  -2 -10 248.564 13.2549   7
   5  -3 -10 253.937 14.7446  11
  -2   5  10 267.513 14.9935   8
   2  -5  10 236.746 13.6565   5
   5  -3  10 258.351 17.5530   2
  -3   5 -10 239.812 15.8281  10
  -3   5 -10 241.826 17.7361   3
  -5   2 -10 270.008 12.1937  12
  -3   5 -10 254.340 11.7337  11
  -2  -3 -10 243.027 12.2163   7
   5  -2 -10 259.197 14.1003  11
  -2  -3 -10 255.501 14.2915   4
  -3  -2  10 234.525 14.6261  12
   3   2  10 253.479 13.7947   8
   2  -5  10 219.483 13.4396   9
   3  -5 -10 244.997 13.4598   9
  -5   3  10 257.048 11.5206   7
   2  -5  10 224.246 12.6264   4
  -2   5  10 262.479 17.7819   3
   3   2  10 256.597 10.5914  11
   5  -3  10 227.116 13.9114  11
  -5   3  10 244.646 15.7555  11
  -5   2 -10 227.501 17.9942   3
  -5   2 -10 252.651 16.4962  11
   3  -5 -10 243.827 13.2109   4
   3   2  10 218.855 14.5571   2
   2   3 -10 230.949 13.5056   2
  -3  -2  10 238.615 13.0758   7
  -5   3  10 223.809 15.6293  10
  -5   3  10 229.007 19.0590   3
   5  -2 -10 288.451 18.0244   2
   5  -3  10 250.063 15.0216   8
  -2   5  10 254.559 10.5117  11
  -2  -3 -10 245.066 14.7821  12
   2   3 -10 254.161 14.0056   6
  -2   5  10 250.215 16.2880  10
  -5   2 -10 261.790 13.4111   7
  -1  -4  10 541.390 21.5690  12
  -1  -4  10 555.067 19.9911   7
   5  -1  10 499.814 25.4118  11
   4   1 -10 560.071 17.5595  11
  -1   5 -10 553.159 23.6331   3
   5  -4 -10 535.541 22.4549  11
   4  -5  10 533.711 24.3652   9
  -1   5 -10 549.502 23.0519  10
  -5   1  10 535.339 23.6032   3
  -4  -1 -10 543.489 29.3591   7
  -5   4 -10 556.312 23.1724  10
  -1  -4  10 540.254 21.2589   4
  -4   5  10 508.245 37.9569   3
   1  -5 -10 512.193 30.3911   9
   5  -4 -10 511.252 19.5828   9
  -5   1  10 519.624 23.7999  11
  -5   1  10 534.780 19.7975   7
  -4   5  10 566.892 27.5647  10
  -5   4 -10 509.172 33.2100  11
  -4  -1 -10 545.532 22.0277  12
  -5   4 -10 474.205 26.0002   3
  -1  -4  10 519.849 21.5983   9
  -1  -4  10 512.971 20.4667   5
  -4   5  10 548.099 27.3643  11
   1   4  10 550.790 21.9529   8
   5  -1  10 549.159 21.9644   8
   4  -5  10 570.245 23.1477   2
   1  -5 -10 554.162 20.3574  12
   1   4  10 573.849 21.1958  10
   1   4  10 520.895 21.1874   2
   1  -5 -10 533.971 21.6772   4
   4   1 -10 550.690 23.3032   2
   4  -5 -10 530.049 27.9393   2
   4   1  10 519.698 18.7656  11
   4   1  10 577.302 21.4514   8
  -1   5  10 557.624 22.2229   8
   4  -5 -10 531.268 20.1516   4
   1   4 -10 599.327 20.7284   2
   1  -5  10 561.561 21.2521   9
   4  -5 -10 511.739 22.6628   9
   1   4 -10 579.554 21.2510   6
  -5   1 -10 582.927 20.6450  12
  -5   4  10 575.247 23.8411  10
   1   4 -10 611.730 28.4312   3
  -4   5 -10 537.869 20.8386  11
   5  -4  10 596.481 24.7829   2
  -1   5  10 548.117 23.6359  10
  -1  -4 -10 553.265 22.3419  12
  -1   5  10 613.228 23.9406   3
  -1  -4 -10 545.706 18.6237   7
   1  -5  10 560.127 20.6976   4
  -4  -1  10 543.785 23.6337  12
  -5   4  10 551.970 30.0400  11
  -5   1 -10 539.016 24.2586  11
  -4   5 -10 489.260 38.1323   3
   5  -4  10 557.242 22.2635  11
   1  -5  10 490.915 23.6193   5
   5  -1 -10 541.651 25.2920   2
   0  -5  10 212.792 14.9296   5
  -5   5  10 242.406 21.5845   3
  -5   5  10 252.869 15.8281  11
   5  -5 -10 229.956 19.4679   2
   0  -5 -10 246.232 16.1734   4
  -5   5 -10 257.717 18.0073  10
  -5   0 -10 206.218 14.4337   7
   0  -5  10 244.811 16.1255   4
   0   5 -10 247.285 17.1500  10
   5   0  10 252.394 19.3873   2
   0  -5  10 239.733 16.1352   9
   5  -5 -10 264.965 18.0495  11
   5   0  10 251.150 17.0450   8
   0   5  10 233.427 16.1217   8
   0  -5 -10 209.264 15.6773   9
   5   0 -10 236.104 19.8632   2
   5  -5 -10 225.027 14.7797   9
   0   5  10 267.167 17.9342  10
  -5   0 -10 244.106 16.0604  12
   0  -5  10 230.149 14.2840   7
  -5   5  10 256.514 19.7016  10
   0  -5  10 223.744 16.0234  12
  -5   0  10 221.527 15.7767  12
   5  -5 -10 234.385 13.8210   4
  -5   5 -10 251.758 21.4035   3
   0  -5 -10 216.757 19.7217  12
  -5   5 -10 210.503 15.8863  11
   5   0 -10 229.325 13.2175  11
   0   5 -10 286.406 23.0803   3
  -5   0  10 220.847 14.5191   7
   0   5  10 247.743 15.6399   2
   5  -5  10 252.346 14.8519   9
   5   0  10 211.104 13.6943  11
  -3   6  10 174.208 19.3428   3
   6  -3 -10 174.570 15.3745  11
   3  -6  10 191.770 15.3269   5
   6  -3  10 189.741 16.2516   8
   3   3  10 212.092 18.0849   2
  -3   6  10 184.021 11.5605  11
   3  -6 -10 203.579 15.3373   4
  -3  -3 -10 194.561 15.8724   4
  -6   3 -10 193.450 31.4118   3
   6  -3  10 187.312 21.2345   2
   3  -6 -10 179.417 15.0254   9
   3  -6  10 211.629 15.9701   9
   6  -3 -10 185.853 19.0836   2
  -6   3 -10 217.823 19.1603  11
   3   3 -10 217.582 16.8434   6
  -6   3 -10 198.336 15.0418   7
  -3   6 -10 189.460 18.0385  10
   6  -3  10 202.841 15.4469  11
   6  -3 -10 144.187 15.8186   6
  -3   6 -10 217.196 22.2478   3
  -6   3  10 188.080 20.9260   3
  -3  -3 -10 179.905 13.5762   7
   3   3 -10 176.383 21.5067   2
  -6   3  10 197.237 12.7960   7
  -3  -3  10 181.646 13.8109   7
  -3  -3  10 171.762 16.2334  12
  -3   6  10 245.909 20.8224  10
  -3  -3 -10 196.229 17.5558  12
  -6   3  10 177.161 18.1991  11
   2   4  10 51.0793 11.4236   2
   4   2 -10 41.1090 10.3714   6
   2  -6 -10 48.2416 10.0728   4
  -4   6  10 54.3764 15.1509   3
   2  -6 -10 54.9179 10.0233   9
  -2  -4  10 43.1803 10.2503  12
  -6   4 -10 90.9974 16.9870   3
   2   4  10 45.0038 10.8066   8
  -2  -4  10 50.3089 8.68385   7
   6  -2  10 65.0869 13.4812   2
   4   2 -10 69.6606 12.7711   2
  -4  -2 -10 64.4196 11.2272  12
   6  -4 -10 82.8368 13.2621   2
   4  -6  10 71.7378 10.6149   9
  -4   6  10 58.2935 12.9469  10
  -4   6  10 56.3036 8.28443  11
   6  -4 -10 62.9726 9.07027   9
  -2   6 -10 33.1006 13.5591   3
  -2   6 -10 61.8254 12.8991  10
   6  -4 -10 50.0477 10.0320  11
  -4  -2 -10 50.7029 8.95334   7
  -6   4 -10 49.2616 10.5465  11
  -6   2  10 54.3023 9.19144   7
   6  -2  10 60.0772 9.78255  11
  -6   2  10 56.7374 15.1264   3
   6  -2  10 59.4280 11.4342   8
  -6   4 -10 61.0260 9.56670   7
   6  -4  10 85.2827 14.0628   2
  -4  -2  10 76.9938 9.93559   7
  -6   4  10 72.3607 15.9117   3
  -2  -4 -10 65.2359 10.8107   4
  -2  -4 -10 82.5753 12.0987  12
   4  -6 -10 69.7341 10.4844   4
   4   2  10 52.1938 11.7128   2
  -6   2 -10 69.2786 10.0153   7
  -2  -4 -10 52.3817 9.52214   7
   6  -2 -10 63.2129 13.1482   2
   2   4 -10 89.9022 11.7611   6
  -6   2 -10 85.2888 13.9894  11
  -4   6 -10 67.6671 15.0848   3
  -4   6 -10 74.9832 13.3083  10
  -2   6  10 88.7369 14.0235  10
  -4   6 -10 76.5285 9.19497  11
   2  -6  10 65.5208 10.8072   5
  -6   4  10 77.1783 11.7520  11
   4   2  10 65.4683 8.71548  11
  -2   6  10 73.9363 12.0150   8
   4  -6 -10 60.8284 10.1314   9
   6  -2 -10 76.3499 10.3132  11
   6  -4  10 71.3683 10.7929  11
   2  -6  10 69.1011 10.7480   9
  -4  -2  10 76.9354 11.7041  12
   6  -1  10 95.0024 15.8908   2
   6  -5 -10 84.2688 14.4552   2
  -1  -5  10 79.9111 13.2349  12
  -1  -5  10 113.403 13.9648   5
  -1  -5  10 102.786 14.2525   4
  -1  -5  10 120.201 14.1247   7
   5  -6  10 122.756 14.0942   9
   1  -6 -10 91.4801 12.4748   9
  -5  -1 -10 104.682 11.8851   7
  -6   5 -10 98.5563 13.3094  11
   5   1 -10 95.4878 10.0128  11
  -6   5 -10 97.5606 18.3742   3
   6  -1  10 79.1788 10.5101  11
  -1  -5  10 126.993 14.8436   9
  -1   6 -10 87.6831 15.2577  10
   1   5  10 91.3082 13.5616   8
   6  -5 -10 106.843 13.5152   9
  -6   1  10 97.8540 12.2903   7
   5   1 -10 71.7029 16.3293   2
  -5   6  10 90.7815 11.3338  11
   6  -5 -10 95.0770 13.5979  11
  -6   5 -10 109.530 16.5438  10
   6  -1  10 117.548 14.1274   8
   1  -6 -10 107.256 13.1747   4
   1   5  10 85.0230 13.1163   2
  -5   6  10 113.350 18.8726   3
  -5  -1 -10 116.681 14.1574  12
  -5   6  10 98.6043 16.3816  10
  -1  -5 -10 119.364 14.2425  12
  -6   1 -10 106.629 12.5008   7
  -6   5  10 84.0056 17.5288   3
  -1  -5 -10 138.634 16.8420   9
   6  -5  10 103.016 12.5226   9
  -1   6  10 69.1425 15.7225  10
   1  -6  10 93.0055 13.0940   9
  -5   6 -10 137.364 13.6497  11
  -5  -1  10 99.9893 11.6700   7
  -6   5  10 90.5296 12.7951  11
  -1  -5 -10 80.1193 13.2557   4
  -1   6  10 79.0324 13.5151   8
  -6   5  10 108.666 16.6099  10
   5   1  10 92.9116 11.9887  11
   5  -6 -10 111.581 12.5117   9
  -5   6 -10 75.9100 14.7367  10
  -5  -1  10 123.421 14.8977  12
   6  -5  10 109.200 16.2949   2
   1  -6  10 98.0800 12.5185   5
  -5   6 -10 107.084 18.8160   3
   5   1  10 93.0311 14.8045   2
   5  -6 -10 85.4066 11.2616   4
   6  -1 -10 102.074 16.9579   2
   6  -5  10 138.984 20.5741  11
   6  -1 -10 84.1671 10.4111  11
   0   0 -11 0.12979 1.08424   8
   0   0  11 -1.2285 0.89418   8
   0   0  11 0.81592 1.10527  10
   0   0 -11 0.64438 1.28717   6
   0   0 -11 0.67932 1.04468  11
   0   0  11 -0.3703 0.61171   9
   0   0 -11 -0.2006 0.68356  11
   0   0 -11 -1.1723 0.90320   7
   0   0  11 0.19267 1.01775   3
   1   0 -11 2944.48 66.9246   6
   1   0  11 2995.65 66.5570  10
   0  -1  11 3018.53 65.5768   8
   1   0  11 2910.44 66.3545   2
   0   1 -11 3027.99 65.1837   4
  -1   1 -11 3022.62 68.3471   6
   1   0 -11 3005.57 66.3299   2
   0  -1  11 3030.37 65.3497  11
   0   1  11 2998.99 67.2828  10
  -1   1  11 3042.45 67.3358  10
   1  -1  11 2929.29 65.7238   5
  -1   0  11 3068.22 66.1571  10
   0  -1 -11 3087.23 68.2266   6
   0   1 -11 3008.28 67.1920   6
   0  -1 -11 2946.97 66.4565  11
   0   1  11 3073.07 66.3333   3
  -1   0  11 3026.31 67.7716   3
   1   0  11 2829.95 66.3326  11
   1  -1  11 2871.40 66.1346  11
  -1   1  11 3044.76 68.0810   3
  -1   1  11 3065.27 64.6540   7
   0  -1  11 3032.33 66.5619  10
   0  -1 -11 2913.16 66.0793   9
   0  -1 -11 2995.80 66.4094   3
   1   0 -11 3003.19 66.3883  11
   1   0 -11 2914.78 66.1525  11
  -1   1  11 2875.11 66.6277  11
   0  -1  11 2878.12 66.1556   7
   0  -1  11 2949.64 66.1202   5
  -1   0 -11 2871.01 66.8757  11
   0   1 -11 2937.24 64.7475   9
   0   1 -11 3135.76 65.4751  11
  -1   0  11 3090.57 66.3047  11
  -1   0  11 3064.47 64.2428   8
   0   1 -11 2904.72 65.6201  11
   0   1 -11 3092.51 65.5485   8
   1  -1 -11 3008.97 67.1123   2
  -1   0 -11 2978.42 65.4746   4
  -1   0  11 2869.53 65.7930   7
   0   1  11 2953.50 66.7782   8
   1  -1  11 3052.05 65.7271   2
   0   1  11 2880.89 66.2315  11
  -1   1 -11 3078.21 66.9968  11
   1  -1 -11 3052.62 66.6151   6
   1  -1  11 3068.85 66.9542  10
   1  -1 -11 3081.05 64.5903   7
   1  -1  11 2969.85 66.8861   8
   0  -1  11 3033.19 64.8515   9
  -1   0 -11 3050.75 69.4412   6
  -1   0  11 3013.44 66.2040   2
   1   0  11 2955.54 67.0045   8
  -1   1 -11 3087.52 65.4523   2
   1  -1 -11 3040.90 65.3624   9
   0  -1 -11 2799.29 66.0050   4
  -2   1 -11 2118.12 47.4487  12
  -1  -1 -11 2078.62 51.1390   6
   1  -2  11 2073.10 47.5661   9
   1  -2  11 2226.73 47.3762  11
  -2   1  11 2066.32 50.6628   3
   2  -1 -11 2077.73 48.4231   6
   1  -2 -11 2030.31 47.8938   9
   1   1 -11 2233.24 47.1537  11
   1   1 -11 2152.87 47.4380   2
  -1  -1 -11 2075.20 48.1911   4
   2  -1  11 2094.67 49.4876   8
  -1   2 -11 2131.37 47.1785   2
  -1  -1 -11 2041.80 47.4805   7
  -1   2 -11 2075.85 49.4445   3
   1   1  11 2053.21 49.0037   8
   1   1  11 2126.99 48.3283  10
   1   1  11 2116.41 48.8984   2
  -1   2 -11 2146.21 47.1675  11
  -1  -1 -11 2084.67 48.2787  11
  -1   2 -11 2041.97 47.8034  11
  -1   2  11 2087.92 48.2215  11
  -1  -1  11 2086.19 48.1746   7
  -2   1 -11 2121.69 51.4486   6
   1  -2  11 2083.57 48.2476   5
   1  -2  11 2109.54 49.1266   8
   2  -1  11 2117.47 49.0736   2
  -2   1 -11 2132.22 48.9874   3
   2  -1  11 2011.34 48.5239  11
   1   1  11 2011.64 47.6406  11
   1  -2 -11 2135.56 47.8975   6
  -2   1  11 2139.73 48.4146  10
  -1  -1 -11 2082.81 49.0418  12
  -1   2 -11 2092.11 49.0349   6
   2  -1 -11 2085.21 49.8546   2
  -1  -1  11 2209.91 46.7986  11
  -1   2  11 2105.37 46.6365   6
  -2   1 -11 2098.48 49.7076  11
   2  -1 -11 2082.06 48.7823  11
   1   1 -11 2034.99 48.8160   6
  -1  -1  11 2085.52 49.1356  12
   1   1 -11 2076.29 46.7166  11
   1   1  11 2034.45 47.9880  11
   2  -1  11 2158.22 46.5231   5
  -1   2  11 2089.82 53.4249   3
   1  -2 -11 2108.04 48.2429  11
   1  -2 -11 2138.84 48.6712   4
   1  -2  11 2151.88 47.0726   2
  -1  -1 -11 2107.84 49.1164   9
  -1  -1  11 2097.84 47.6854   5
  -1   2  11 2103.29 49.9543  10
   1  -2  11 2150.33 46.1320   4
  -2   1  11 2164.82 47.1463   7
  -2   1  11 2038.66 49.0792  11
  -2   0 -11 2325.35 52.4826  11
  -2   0  11 2203.32 48.1879   8
  -2   2 -11 2119.36 52.7394   3
   0  -2 -11 2275.35 49.0806   7
   2  -2 -11 2241.04 50.2054   6
   0  -2 -11 2216.71 51.3977   4
   0  -2 -11 2269.60 51.8582   6
  -2   2  11 2150.10 51.9568  11
  -2   0 -11 2284.33 49.7533   3
   2  -2  11 2342.78 52.1144   2
  -2   2 -11 2287.26 53.2749   6
   0   2 -11 2215.69 51.4346   6
   2   0 -11 2177.35 50.7407  11
   0   2 -11 2221.09 48.5229  11
  -2   0  11 2193.66 50.7606   7
   2   0  11 2173.02 52.0934   8
  -2   0  11 2203.69 49.8932   5
   0  -2  11 2161.02 50.9700   5
  -2   2  11 2186.25 54.2480   3
   2  -2  11 2173.46 52.7398   8
   0  -2 -11 2144.81 51.4762   9
   0  -2 -11 2343.34 50.6419  11
   0  -2  11 2345.27 48.4956  11
   0   2  11 2212.41 52.0644   8
  -2   2  11 2331.05 48.2806   7
   2   0  11 2235.01 50.1141  10
   2   0 -11 2223.79 52.1852   2
   2   0 -11 2187.78 49.2345  10
  -2   2  11 2229.44 52.6282  10
   0   2  11 2145.80 49.9280  11
   2  -2 -11 2197.48 53.3808   2
  -2   0  11 2242.65 49.1687  10
   0  -2 -11 2159.77 51.4171  12
  -2   0  11 2221.78 51.1896  11
   2  -2  11 2167.54 50.4435   5
   0   2 -11 2166.41 49.3994   2
   0  -2  11 2204.26 50.0680   9
   0  -2  11 2180.90 51.2166  12
  -2   0  11 2197.64 51.9605  12
   0   2  11 2171.37 52.1915  10
  -2   0 -11 2232.83 50.9091   4
  -2   0 -11 2197.29 54.9243   6
  -2   0 -11 2187.39 51.3475  12
   2   0  11 2225.46 52.2514   2
   0   2 -11 2278.27 48.3152  11
   0   2  11 2236.95 50.7205   3
   2  -2 -11 2232.55 51.7527  11
   2  -2  11 2196.47 51.2081  11
   0  -2  11 2204.57 50.2539   4
   0  -2  11 2172.07 50.8771   7
  -2   0  11 2206.96 52.7386   3
   2  -2 -11 2193.35 50.5371   9
   0   2 -11 2246.69 48.9907   2
   0   2  11 2208.33 50.0887  11
   2   0  11 2167.34 51.1560  11
  -2   2 -11 2198.89 52.3388  11
   3  -1  11 598.669 19.0641   2
   2   1 -11 603.986 17.6492   2
  -1  -2  11 591.971 17.7528   4
   3  -2 -11 597.839 20.4032   2
  -1  -2  11 578.094 16.7601   5
  -1  -2  11 603.166 17.2580   7
  -2  -1 -11 570.096 17.5920   4
   1   2  11 608.891 15.9996  11
   1   2  11 591.928 15.7540  11
  -2   3  11 629.323 20.9948   3
  -1  -2  11 611.880 18.4631  12
   1   2  11 588.128 18.2006   2
  -3   2 -11 563.041 24.5944   6
  -2   3  11 552.953 19.1626  10
  -2  -1 -11 595.685 18.3272  12
   1  -3 -11 590.190 17.6336   4
   2   1 -11 608.789 14.4420  10
  -2   3  11 575.253 18.0127  11
  -3   1  11 613.469 16.7659   7
  -3   1  11 568.123 16.8219  10
   2   1 -11 590.531 16.1732  11
  -1  -2  11 608.344 17.0996   9
  -1   3 -11 630.649 14.8536  11
   2  -3  11 604.585 16.8491  11
  -2  -1 -11 567.137 17.5325  11
  -1   3 -11 577.333 18.7237   3
   2  -3  11 592.975 17.6293   2
   1   2  11 603.321 18.4541   8
   2  -3  11 582.512 14.9398   4
  -3   2 -11 609.298 16.1101  12
   3  -2 -11 602.778 17.0678   6
  -1   3 -11 594.547 15.3540  11
  -2  -1 -11 584.315 17.1315   7
   2   1 -11 604.793 16.5043  11
   2  -3  11 595.834 17.4507   5
   1  -3 -11 611.736 16.8343  12
   3  -1  11 602.104 18.8550   8
   1   2  11 604.085 17.5666  10
   3  -2 -11 563.828 18.1226  11
  -1   3 -11 607.843 17.3238   6
   3  -1  11 628.044 18.1842  11
  -3   2 -11 588.740 19.1522  11
   1  -3 -11 647.586 16.8850  11
   1  -3 -11 589.147 17.6648   9
  -3   1  11 580.414 18.3024  11
  -3   2 -11 599.823 19.9280   3
  -3   1 -11 613.870 18.4890   3
   2  -3 -11 597.961 17.5515  11
   1   2 -11 589.637 17.8272   6
  -1   3  11 583.475 16.3275  11
  -1  -2 -11 575.714 17.5686   4
   3  -1 -11 573.096 17.7571  11
   3  -2  11 587.454 18.9692   8
  -3   1 -11 597.980 16.7310  12
  -2   3 -11 635.024 18.0127   6
  -1  -2 -11 629.493 16.8214  11
  -3   2  11 604.749 15.6778   7
  -3   2  11 591.725 17.9770  10
   3  -2  11 583.937 19.1395   2
  -2   3 -11 585.424 17.5458  11
  -2  -1  11 581.900 16.0273   5
  -3   1 -11 588.912 20.9901   6
  -1   3  11 616.123 14.5540   6
  -2  -1  11 601.941 17.4491   7
   1   2 -11 617.008 17.2807   2
  -1  -2 -11 605.377 18.4757  12
  -1   3  11 622.802 18.7516   8
  -1   3  11 596.926 19.0894   3
   2  -3 -11 607.388 17.4700   9
   2   1  11 589.884 18.5984   2
   1   2 -11 614.651 16.0935   8
  -3   1 -11 582.710 19.0025  11
   2  -3 -11 594.867 19.9177   2
   1  -3  11 590.159 15.8789   4
   1  -3  11 583.219 17.4801   5
   1  -3  11 610.304 17.1323   9
   2   1  11 579.507 15.8533  10
   2   1  11 592.443 16.6601  11
   2  -3 -11 609.263 15.7101  12
   3  -2  11 581.677 18.0430  11
  -2   3 -11 601.984 14.3869  12
   2   1  11 600.677 14.1117   5
  -2   3 -11 599.970 19.8831   3
  -1  -2 -11 595.818 16.2632   7
   3  -2  11 598.546 16.4096   5
   3  -1 -11 597.867 19.5793   2
  -1  -2 -11 589.553 18.5020   9
  -1   3  11 590.066 19.3768  10
  -2  -1  11 596.119 18.5546  12
   3  -3  11 13.8473 3.88472   8
   0   3 -11 6.77630 2.48996   2
   0   3  11 10.1106 3.58153   8
   0   3  11 7.55892 3.48669   3
   3  -3 -11 9.26681 2.68366   9
  -3   3  11 15.2463 4.20563  10
  -3   0 -11 10.5832 3.17674  12
   3  -3 -11 13.8448 4.43287   2
   0   3 -11 10.7761 3.36460   6
  -3   0 -11 2.09044 2.80715   7
  -3   3  11 10.1553 4.85234   3
   0  -3 -11 13.1148 3.49334   9
   3   0  11 9.29590 3.64863   8
  -3   0  11 10.4587 4.72574   3
   3   0  11 5.05088 2.61399  11
   0  -3  11 9.99654 3.36875   5
   0  -3 -11 5.16429 3.04590   4
   3  -3  11 9.19767 3.06843   5
   0   3  11 3.94493 3.69287  10
  -3   3 -11 17.1851 4.08663   6
   3   0 -11 2.27680 3.77977   2
  -3   0  11 8.42156 3.40461  12
   0  -3 -11 11.7385 2.98952  11
   0  -3 -11 6.01709 3.24481  12
  -3   3  11 7.51890 1.73379   7
  -3   3 -11 10.9017 4.97466   3
   0   3  11 10.1260 2.64235  11
  -3   3 -11 11.0931 3.49309  11
  -3   0 -11 7.01187 3.27695  11
   3   0 -11 10.0181 2.28239   8
   3   0 -11 6.09223 2.52841  11
   0  -3  11 8.76865 3.60174  12
   0   3 -11 2.57941 3.67718   3
   0  -3 -11 11.5954 2.29148   7
   3  -3  11 5.17750 2.82668  11
   0  -3  11 4.41790 3.36759   4
   3  -3 -11 9.64035 2.92738   6
   0  -3  11 5.84542 3.55393   9
  -3   0 -11 10.8142 3.15050   3
  -3   0 -11 10.2062 3.61567   4
   3  -3  11 13.3363 3.32811   9
  -3   0  11 8.02649 2.78003   7
  -3   0  11 6.02757 2.30109   5
  -3   0  11 11.3982 3.61302  11
  -3   3  11 8.92113 3.19122  11
   3   0  11 2.41583 3.63237   2
   3  -3  11 13.1615 2.37705   4
   0  -3  11 6.46336 2.91428   7
   3  -3 -11 13.6665 5.67172  11
   2  -4 -11 31.3647 4.88149   4
  -4   2 -11 29.4326 6.03607  11
   2   2  11 32.9038 4.24617  11
   4  -2 -11 40.1041 5.85001  11
  -2  -2 -11 29.0342 4.68329   7
  -2  -2 -11 25.3138 5.75947  12
   2   2 -11 33.8132 5.23702   2
  -2  -2  11 22.9499 4.53716   7
  -2   4 -11 22.8476 6.51651   3
   4  -2  11 29.7166 5.65153   8
  -4   2  11 26.8703 5.21234  10
   2   2  11 27.6511 5.27764   2
   2  -4 -11 33.2713 4.25093  12
   2  -4 -11 37.1362 4.94720  11
  -4   2  11 31.7675 7.63284   3
  -4   2  11 23.4553 3.94251   7
   2  -4 -11 26.0017 4.68878   9
   2  -4  11 28.3377 4.88319   9
  -2  -2  11 27.7907 4.63982   5
  -4   2 -11 41.9146 7.76213   3
  -2  -2 -11 25.4741 4.87725   4
   4  -2  11 25.3764 6.01657   2
   4  -2  11 28.7214 5.07615  11
  -2  -2  11 29.4051 5.56972  12
   2   2 -11 32.8746 3.37948   8
  -2   4 -11 28.7003 3.98232  11
  -4   2 -11 36.1995 4.08687  12
  -2   4 -11 36.3517 4.96131   6
   2   2  11 42.7845 6.04518   8
  -2   4  11 32.1913 6.83603  10
  -4   2  11 37.3555 5.66379  11
   2   2 -11 37.2388 5.39336   6
  -2   4  11 28.3380 4.19826  11
   2   2  11 30.4892 4.37533  10
   2  -4  11 35.7143 4.18617   4
   4  -2 -11 43.1432 7.26240   2
   2  -4  11 30.4121 5.07286   5
  -2   4  11 25.3102 6.87500   3
  -3  -1 -11 10.1457 4.81105   4
   3  -4  11 11.9267 4.43953   5
  -4   3 -11 1.66256 6.49552   3
  -3   4  11 12.3456 4.01137  11
   3  -4  11 11.1595 3.98021  11
   3  -4  11 12.2850 4.23345   9
   4  -3 -11 0.86097 5.15971   2
   4  -1  11 10.7166 4.36008   8
  -1  -3  11 8.96694 4.73580   4
   4  -3 -11 22.5225 4.31343   6
  -4   1  11 9.38224 3.80595   7
   4  -3 -11 17.7388 3.88608   9
  -3  -1 -11 21.9424 5.43582  11
   3  -4  11 7.26492 5.33083   2
  -1  -3  11 14.9184 4.90955  12
   1   3  11 13.9798 4.62932   2
   1   3  11 9.42856 4.30038   8
  -4   1  11 9.11178 3.11372   5
  -1  -3  11 9.73346 4.58600   9
  -4   3 -11 12.9635 5.25465  11
  -1   4 -11 11.7217 4.09827   6
   4  -1  11 9.35464 5.65811   2
  -3   4  11 5.67724 5.60636  10
   3   1 -11 12.7968 5.12252   2
  -1  -3  11 20.1904 4.65780   5
  -4   1  11 10.3374 4.81212  11
   1  -4 -11 15.1586 4.46590   4
   3   1 -11 10.9609 2.84352  11
  -3  -1 -11 7.34524 4.42955  12
   4  -1  11 9.35818 3.74038  11
  -4   1  11 11.5393 6.35550   3
   1  -4 -11 14.3547 4.19804  12
  -3  -1 -11 5.77534 3.89081   7
   4  -3 -11 8.33428 4.38176  11
   1  -4 -11 10.5892 4.23926   9
  -1   4 -11 11.7005 5.53371   3
   1   3  11 3.29888 4.50399  10
   3  -4  11 15.2517 3.20527   4
  -1  -3  11 17.5414 4.12557   7
   1   3  11 10.2576 2.53075  11
  -3   4  11 13.9309 7.12564   3
  -3   4 -11 11.0309 4.34345   6
  -3  -1  11 7.08344 3.11801   5
  -1  -3 -11 7.46239 4.32391   9
   4  -3  11 14.3145 5.21594   8
   1  -4  11 4.33501 4.37117   5
  -1   4  11 2.99952 4.79832  10
  -3  -1  11 -1.4192 3.45491   7
  -3  -1  11 4.45483 4.25858  12
  -4   3  11 5.40897 2.85856   7
   3  -4 -11 5.75955 3.88335  11
  -4   3  11 11.7833 4.74476  11
   3  -4 -11 4.75988 3.86996   9
  -1  -3 -11 6.47023 3.31937   7
  -4   1 -11 6.09526 3.87406   7
  -3   4 -11 5.99413 3.82008  11
  -4   1 -11 3.10005 3.63620  12
   3  -4 -11 7.51840 4.29408   4
   4  -3  11 13.6664 4.57887  11
  -4   1 -11 1.76097 4.66922  11
  -1  -3 -11 11.2499 4.71308   4
  -1   4  11 12.1214 4.73309   8
  -4   1 -11 2.68333 5.64007   3
  -1   4  11 1.15497 5.46880   3
   4  -1 -11 3.24057 3.41233  11
   4  -3  11 5.62553 5.74407   2
   3   1  11 7.47429 5.02812   2
   3   1  11 8.39506 4.51195   8
   1   3 -11 3.11682 3.93170   2
  -1  -3 -11 16.1443 4.61898  12
   1  -4  11 12.5367 4.08535   9
  -3   4 -11 1.30901 5.32838   3
   4  -1 -11 1.54301 5.11429   2
   1  -4  11 4.09786 4.09261   4
   3  -4 -11 -8.7372 5.37247   2
  -4   3  11 6.87178 5.35020  10
  -4   3  11 -0.6407 6.34216   3
   1   3 -11 4.33939 3.89214  10
   1   3 -11 2.74823 3.92619   6
   3   1  11 4.34073 2.86862  11
   1   3 -11 3.91809 3.40937   8
  -4   0 -11 69.9665 9.12573  11
  -4   4 -11 87.1572 9.50682  11
  -4   4  11 80.1904 11.6203   3
   0   4 -11 73.3561 7.48254   2
  -4   0  11 71.2459 8.26733   3
  -4   0  11 77.0720 9.24681  12
   4  -4  11 71.0164 8.40566   5
   4   0 -11 72.0170 7.25399  11
  -4   0 -11 73.3324 8.50351  12
   4  -4  11 69.6138 9.14942   2
   0  -4  11 78.4045 9.10715   5
   0  -4 -11 86.4099 8.84137  12
   4  -4  11 81.2352 8.93603  11
   4   0 -11 84.5712 9.82517   2
  -4   0  11 66.8337 7.78598   7
   0   4 -11 80.6324 8.22615   8
   4  -4 -11 70.6932 9.83547   2
   4  -4 -11 78.1283 7.88579   9
   4  -4  11 85.8903 8.05164   9
  -4   4 -11 67.0444 10.6977   3
   0  -4 -11 70.5767 8.41720   4
   0  -4  11 79.8558 8.87170  12
  -4   4  11 65.2301 8.58727  11
  -4   0 -11 82.3742 8.33851   7
   4   0  11 80.8976 8.13544  11
   4   0  11 88.5350 10.4303   2
   0  -4  11 90.4443 7.97711   7
   0  -4  11 72.5841 8.40097   9
   0   4  11 75.9253 9.18308  10
   4  -4  11 67.8302 8.08059   4
   0   4  11 70.3467 4.30602  11
  -4   4  11 63.0803 9.62645  10
   0   4 -11 69.9519 8.82258   3
   4   0  11 69.0286 8.15774   8
   0  -4 -11 74.8077 6.49302   7
   0   4 -11 76.7994 8.68806   6
   0  -4  11 75.5239 9.01033   4
   0  -4 -11 75.8791 8.44486   9
   0   4 -11 77.4063 8.73116  10
   4  -4 -11 74.8234 9.49205  11
   0   4  11 82.2939 9.86485   8
  -5   2  11 341.064 14.1502   7
  -2   5 -11 300.867 18.6000   3
  -2   5 -11 325.632 17.3873  10
   3   2 -11 324.391 16.2435   6
   3  -5  11 310.966 15.2836   5
   5  -3 -11 340.047 19.1015   2
  -5   3 -11 309.892 17.7786  11
  -3   5  11 314.192 18.3444  10
  -5   3 -11 360.581 21.5250   3
   3   2 -11 324.614 16.1421   2
   5  -2  11 330.873 16.8550   8
  -3  -2 -11 333.214 14.5251   7
  -5   2  11 323.512 20.1212   3
   5  -3 -11 314.913 13.9981   9
  -3  -2 -11 313.213 16.0523   4
   5  -3 -11 316.141 15.3268   6
   5  -2  11 312.857 18.8981   2
   2   3  11 316.920 10.1007  11
  -2  -3  11 320.962 14.4749   5
   5  -3 -11 314.354 16.3147  11
  -3   5  11 310.698 13.6634  11
  -5   2  11 326.921 17.9354  11
   2  -5 -11 298.627 15.2682   4
  -3   5  11 302.745 20.0311   3
   2   3  11 338.428 17.0105   2
  -2  -3  11 344.916 16.5799  12
  -3  -2 -11 334.757 17.0817  12
   5  -2  11 311.015 15.5765  11
   2   3  11 310.656 16.1167   8
   3  -5  11 328.080 15.6606   9
  -2  -3  11 324.948 14.6163   7
   2  -5 -11 316.777 15.2504   9
   3   2  11 317.819 17.0343   2
  -3  -2  11 348.543 15.2765   7
   3  -5 -11 352.004 16.0861   9
  -5   2 -11 313.060 18.2824  11
  -3   5 -11 367.680 18.1790  10
  -5   3  11 327.486 17.7799  10
  -5   3  11 373.182 18.3906  11
  -3   5 -11 333.865 13.6652  11
   3  -5 -11 313.648 15.2527   4
   5  -2 -11 337.241 16.0307  11
   2   3 -11 338.062 15.4828   2
  -2   5  11 317.799 16.7873   8
  -2   5  11 338.685 12.6668  11
  -5   2 -11 338.548 15.4761   7
   2  -5  11 323.459 15.7442   9
  -5   3  11 347.685 13.2833   7
   5  -3  11 351.992 17.5181   8
  -5   3  11 325.689 21.3114   3
   3   2  11 316.261 12.5379  11
  -5   2 -11 345.540 20.2330   3
  -2  -3 -11 319.285 15.9774   4
   5  -2 -11 364.835 19.1827   2
  -3   5 -11 312.372 19.6885   3
   2  -5  11 333.860 19.8940   4
   2  -5  11 314.098 15.6521   5
   5  -3  11 371.432 20.5576   2
   3   2  11 355.857 16.0228   8
   5  -3  11 335.705 16.6116  11
   2   3 -11 345.574 16.4298   6
  -2   5  11 345.358 18.9914  10
  -5   2 -11 336.194 15.9714  12
  -2  -3 -11 339.198 17.1781  12
  -3  -2  11 333.743 17.0425  12
  -2  -3 -11 323.565 14.1620   7
  -2   5  11 320.923 19.4632   3
   5  -4 -11 242.018 13.1303   9
  -5   4 -11 242.885 16.0271  10
  -5   4 -11 247.745 19.6613   3
  -1  -4  11 227.972 15.0886   9
  -1  -4  11 265.832 15.6859   4
   1  -5 -11 224.532 14.6034   4
   5  -4 -11 232.302 19.2518   2
  -1  -4  11 239.091 14.9703  12
  -1   5 -11 236.906 16.4812  10
   4   1 -11 261.365 11.2999  11
   5  -1  11 226.582 14.5815  11
  -5   1  11 252.621 17.6129   3
   5  -1  11 256.365 16.0128   8
   1   4  11 244.372 15.7132   8
   5  -4 -11 256.949 16.1159  11
  -1  -4  11 265.131 13.6818   7
  -1  -4  11 243.583 15.1685   5
   1  -5 -11 244.044 15.0212   9
  -1   5 -11 238.312 17.1678   3
  -5   4 -11 229.592 16.8372  11
   4  -5  11 255.832 16.7380   2
  -4  -1 -11 248.367 15.1522  12
   1   4  11 262.884 15.6629  10
   1   4  11 225.302 14.3869   2
   1  -5 -11 242.062 13.8241  12
   4   1 -11 242.093 16.6043   2
  -5   1  11 253.817 13.3828   7
   5  -1  11 263.727 20.2687   2
  -1  -4 -11 191.647 16.3501   9
   4   1  11 208.603 11.3387  11
  -5   4  11 176.922 16.7243  10
  -5   1 -11 207.314 12.8287  12
  -4   5 -11 161.301 19.0564   3
   5  -4  11 185.995 13.8697  11
   4  -5 -11 204.033 12.8277   4
   1  -5  11 215.041 13.0064   4
  -1   5  11 184.290 16.0419  10
   1   4 -11 191.729 13.1405   6
   5  -1 -11 182.925 16.7449   2
  -4  -1  11 198.099 14.3337   7
  -1  -4 -11 199.644 11.9476   7
  -4  -1  11 197.796 20.3006  12
   4  -5 -11 169.819 14.1638   9
  -5   1 -11 169.631 17.1224   7
   1  -5  11 220.292 13.7849   9
  -1  -4 -11 187.986 13.9499  12
   5  -4  11 169.914 16.1995   2
  -5   1 -11 179.902 16.3155  11
  -4   5 -11 199.833 13.1222  11
   1   4 -11 199.399 13.8076   3
  -1  -4 -11 167.708 14.9010   4
  -1   5  11 198.622 23.7395   3
   4   1  11 191.716 13.4612   8
  -1   5  11 207.763 15.9399   8
   4   1  11 198.534 24.5162   2
   5  -4  11 195.059 14.3204   9
  -5   0  11 3.31026 7.37571  12
  -5   5  11 -19.412 10.3655  10
   0  -5  11 -0.6864 7.62412   5
   0  -5  11 -7.6287 8.41980   4
   0   5  11 -11.245 7.39427   2
   5   0 -11 0.05681 9.99423   2
   5   0  11 15.2441 8.25641   8
   5   0  11 2.79620 5.79517  11
   0   5 -11 2.77349 9.26967  10
  -5   0 -11 -0.9490 7.50320  12
   5  -5  11 -0.7499 5.92695   9
   5  -5 -11 8.58774 6.50783   4
  -5   5 -11 16.1517 11.7184   3
  -5   5 -11 6.43698 9.64276  10
  -5   5 -11 0.98988 6.91344  11
   5   0  11 12.4273 8.79965   2
  -5   0 -11 6.13505 6.32573   7
   5   0 -11 3.09339 5.69740  11
   0  -5 -11 3.55281 7.62246   4
   0  -5  11 -9.3343 8.08585   9
   0  -5 -11 6.96382 7.03111   9
   0   5  11 -15.199 9.05530  10
   5  -5 -11 1.40286 9.36651   2
  -5   5  11 -4.3879 6.14077  11
   0   5 -11 -19.031 9.30177   3
  -5   5  11 7.78661 11.1751   3
  -5   0  11 2.68662 6.37017   7
   0   5  11 5.34293 8.46638   8
   5  -5 -11 1.61832 6.25830   9
   5  -5 -11 2.89951 8.55784  11
   0  -5  11 -9.3715 7.99676  12
  -3   6  11 64.2720 13.3445  10
  -6   3  11 54.1778 11.2163  11
  -3   6  11 70.8757 11.6702   8
  -3   6 -11 92.1188 14.9328   3
   3   3  11 76.3999 11.9961   2
  -6   3 -11 80.0255 12.9649  11
   6  -3  11 71.2979 11.4664   8
  -6   3  11 99.5169 10.3789   7
   3   3  11 78.8359 10.9021   8
  -3  -3 -11 78.2374 11.4959  12
   6  -3 -11 92.3343 12.1735   6
  -3   6  11 87.4427 15.8055   3
   3   3 -11 93.2306 12.1119   6
  -3  -3 -11 67.0235 10.9778   4
  -3  -3 -11 79.6216 9.76566   7
   6  -3 -11 98.5410 14.1113   2
   6  -3  11 67.5777 13.7175   2
  -3   6 -11 68.3441 11.9954  10
   3  -6  11 92.8641 11.2843   9
   3  -6 -11 47.9802 9.76232   9
  -6   3 -11 81.8762 10.7277   7
  -6   3  11 71.2935 15.3133   3
  -3  -3  11 74.6770 9.65125   7
   3  -6  11 71.2116 10.5786   5
  -3  -3  11 75.3968 11.3318  12
   6  -3 -11 104.640 13.7229  11
   3  -6 -11 91.7163 11.3063   4
   6  -3  11 61.1323 9.55205  11
  -3   6  11 83.2783 9.41962  11
  -6   2  11 130.201 17.7529   3
   6  -4 -11 159.758 19.6465   2
   4  -6  11 114.002 14.0069   9
  -4  -2 -11 132.103 13.1497   7
  -6   4 -11 143.285 19.1240   3
   4   2 -11 94.4940 13.5750   2
  -2   6 -11 119.997 15.9415  10
  -4   6  11 113.059 15.5155  10
  -4  -2 -11 103.055 13.1183  12
   2  -6 -11 112.284 13.0414   4
  -6   4 -11 126.515 13.4761   7
   6  -2  11 130.210 15.9290   2
   6  -4 -11 145.803 15.5837  11
  -4   6  11 121.308 12.1502  11
   2   4  11 153.233 16.5096   2
   6  -4 -11 129.129 12.8853   9
  -2   6 -11 140.824 17.1839   3
  -6   4 -11 99.8198 13.2235  11
   2  -6 -11 136.116 15.2795   9
   2   4  11 128.325 16.2306   8
   4   2 -11 127.910 16.4584   6
  -6   2  11 137.111 12.8831   7
  -2  -4  11 140.850 13.1769   7
   6  -2  11 106.935 13.2187  11
  -2  -4  11 136.891 15.2672  12
  -4   6  11 126.621 17.0856   3
   6  -2  11 111.572 13.8330   8
  -4   6 -11 96.3132 14.7562  10
  -4  -2  11 114.041 12.7948   7
   4   2  11 139.358 9.98822  11
  -6   4  11 115.250 17.2655   3
   4   2  11 131.091 15.9685   8
  -6   4  11 127.388 16.1590  11
   6  -2 -11 129.453 15.9826   2
   2  -6  11 126.659 13.5825   9
   2   4 -11 138.791 15.7311   6
   6  -4  11 144.480 16.0819  11
  -4   6 -11 113.002 16.6080   3
   4   2  11 134.597 16.5260   2
  -4   6 -11 148.854 12.2354  11
  -4  -2  11 135.235 15.7546  12
  -2  -4 -11 122.120 13.2056   7
  -2   6  11 146.195 16.9499   8
   2  -6  11 117.063 14.3898   5
   4  -6 -11 110.274 13.6753   9
   6  -4  11 133.305 16.2776   2
  -6   2 -11 133.394 16.5513  11
  -6   2 -11 131.511 13.9921   7
  -2   6  11 125.583 16.0060  10
  -2  -4 -11 110.342 12.9550   4
   4  -6 -11 115.106 13.8184   4
   6  -2 -11 117.686 13.6985  11
  -2  -4 -11 130.668 14.4557  12
  -1  -5  11 145.877 17.2940   5
   6  -5 -11 126.057 14.6092   9
   1   5  11 148.921 18.8257   8
  -6   5 -11 147.600 17.5510  10
  -1   6 -11 170.301 19.7358  10
   1  -6 -11 112.266 13.5016   4
   5   1 -11 116.998 16.5926   2
   6  -1  11 121.279 14.2867  11
   1  -6 -11 144.250 16.6072   9
  -5   6  11 129.668 19.4958   3
  -5  -1 -11 117.311 12.9718   7
  -1  -5  11 147.283 15.9426   9
   5   1 -11 121.636 10.6368  11
   6  -5 -11 150.226 19.1962  11
   5   1 -11 139.837 17.7332   6
  -5   6  11 147.574 17.8479  10
  -5  -1 -11 169.946 17.3084  12
  -6   1  11 130.928 15.2181   7
  -6   5 -11 128.812 15.9882  11
  -1  -5  11 139.962 15.7493   4
  -6   5 -11 107.080 18.8767   3
   6  -5 -11 126.944 15.9536   2
   6  -1  11 127.981 16.2225   2
  -1  -5  11 143.465 17.8877  12
  -1  -5  11 130.081 14.4776   7
   1   5  11 124.881 14.7977   2
   6  -1  11 154.126 19.6036   8
   5  -6  11 140.357 14.6420   9
  -5   6  11 138.289 14.3577  11
  -1  -5 -11 135.687 16.4396   4
  -6   1 -11 135.329 14.2608   7
  -5   6 -11 144.921 14.5065  11
  -1   6  11 117.976 16.1215  10
  -5  -1  11 138.876 17.2287  12
  -1   6  11 130.134 14.9283   8
  -6   5  11 154.892 18.0773  10
  -5   6 -11 150.103 21.2114   3
   5   1  11 147.935 13.1108  11
   6  -1 -11 135.674 18.3815   2
   6  -5  11 151.605 13.6473   9
   6  -1 -11 145.165 14.5446  11
   1  -6  11 149.916 17.9235   9
  -5   6 -11 104.286 14.7744  10
  -6   5  11 126.856 15.4093  11
   5   1  11 137.437 16.2375   2
   5  -6 -11 130.014 15.0709   9
  -5  -1  11 162.566 15.1381   7
  -1  -5 -11 106.389 14.1575   9
   5  -6 -11 116.127 14.6830   4
  -6   5  11 136.356 20.1925   3
   1  -6  11 130.896 14.3516   5
   6  -5  11 166.513 18.4267   2
  -1  -5 -11 126.608 16.3703  12
   0   0  12 64.1343 3.54385  10
   0   0 -12 62.5310 3.24504  11
   0   0  12 66.9392 3.16574   8
   0   0  12 71.3187 2.29640   9
   0   0  12 64.2758 3.66818   3
   0   0 -12 70.3545 4.30333   6
   0   1 -12 1847.89 42.0751   8
  -1   0 -12 1909.18 42.1578   4
  -1   0  12 1808.98 42.4872   7
  -1   0  12 1910.08 42.9382  10
   0  -1 -12 1846.38 42.8125   4
   0  -1 -12 1885.50 42.8248   9
   0   1  12 1857.61 43.4739   8
   0   1 -12 1894.98 42.5261  11
   1   0  12 1923.65 43.8920   8
   0   1  12 1870.86 44.0237  10
   1  -1  12 1896.78 42.4919   5
   1  -1  12 1886.52 43.6254   8
   0   1  12 1894.55 43.0470   3
   0  -1  12 1943.63 43.3956  10
  -1   1 -12 1846.75 44.2659  11
   1   0 -12 1877.86 43.7947   6
  -1   1 -12 1775.90 44.8958   6
   0   1 -12 1967.34 42.2679  11
   0   1 -12 1913.83 44.0579   6
  -1   1  12 1872.31 44.7138   3
  -1   1  12 1951.13 41.4166   7
   1  -1 -12 1935.21 43.5862   6
  -1   1  12 1917.45 42.5865   9
  -1   1  12 1888.15 43.9547  10
  -1   1  12 1864.75 43.4153  11
   1   0  12 1848.18 43.0559   2
   1  -1  12 1938.43 42.3217   2
   1   0 -12 1852.80 43.0909  11
   1  -1  12 1784.15 42.8572  11
   1  -1 -12 1915.54 41.9491   9
  -1   0  12 1825.28 42.8618   2
   0  -1  12 1883.92 42.9112   5
  -1   1  12 1892.46 42.7812   8
   1  -1 -12 1863.59 43.4516  11
   0  -1  12 1907.58 41.4319   9
   0  -1 -12 1917.79 45.1152   6
   1   0 -12 1882.31 42.9037   2
  -1   0  12 1944.93 44.6339   3
   1  -1  12 1923.94 43.7648  10
  -1   0  12 1951.04 41.0094   8
   0   1 -12 1917.48 41.8512   4
   0  -1  12 1978.51 42.4358   8
   1   0  12 1886.74 43.1607  11
   1  -1 -12 1914.06 41.3053   7
   1  -1 -12 1840.40 43.7118   2
   1   0  12 1883.91 43.3646  10
   1   0 -12 1797.28 42.8782  11
   0  -1 -12 1980.06 44.3273   3
  -1   1 -12 1917.43 42.0171   2
  -1   0 -12 1895.31 46.1139   6
   0  -1  12 1987.63 44.7986   7
   0  -1 -12 1928.32 43.3641  11
  -1   0  12 1895.35 42.9873  11
  -1  -1  12 632.510 17.0943   7
   2  -1 -12 629.603 18.6125   2
   1  -2  12 669.108 16.3937  11
   2  -1  12 626.230 17.5270  11
  -2   1  12 650.466 17.4121  10
  -1   2  12 667.394 17.3022  11
   1   1 -12 633.628 15.8463  11
  -1   2  12 635.556 15.9271   6
  -1   2  12 611.080 21.5166  10
  -1   2 -12 648.464 16.9473  11
  -1   2 -12 683.153 16.3556  11
   1  -2 -12 651.571 17.3346  11
   1   1 -12 651.540 16.3077   2
  -1  -1 -12 623.267 17.0883   4
   1   1 -12 632.934 17.8814   6
  -1  -1 -12 635.752 16.4968   7
  -2   1 -12 626.549 17.6673   3
  -1  -1 -12 619.899 17.8899   9
   1  -2  12 656.093 16.5673   9
  -1  -1 -12 635.938 20.0241   6
   2  -1 -12 629.117 17.4081   6
   1   1  12 655.407 17.7653   2
   1  -2  12 645.736 17.9283   8
  -2   1 -12 656.415 16.5757  12
   1   1  12 657.142 17.4278  10
   2  -1  12 625.871 18.3727   8
  -2   1 -12 643.646 20.1784   6
  -2   1  12 630.779 19.2756   3
   1  -2 -12 656.098 16.9619   9
   1  -2 -12 651.914 17.2483   6
   2  -1  12 666.986 15.6401   5
   2  -1 -12 625.825 17.5764  11
  -2   1  12 661.515 16.1544   7
  -1   2 -12 645.239 15.9167   2
   1  -2 -12 652.969 17.5685   4
   1   1  12 658.855 16.8107  11
   1   1  12 646.850 18.0841   8
   1  -2  12 678.397 15.1251   4
  -2   1 -12 634.371 18.4469  11
  -1   2  12 651.664 18.9001   3
   1  -2  12 641.028 17.1644   5
  -1   2 -12 644.646 18.2329   6
  -1  -1  12 633.679 16.6941   5
   2  -1  12 653.819 17.9271   2
  -1  -1  12 679.615 15.9694  11
  -2   1  12 628.768 17.8983  11
   1  -2  12 679.832 15.9898   2
  -1  -1  12 651.442 18.0555  12
   1   1 -12 666.642 16.1621  11
  -1  -1 -12 647.660 17.4045  11
   0  -2  12 32.6748 2.22209  11
   2  -2 -12 28.7102 3.50645   6
  -2   2  12 29.9206 1.88526   7
   0  -2  12 27.8109 3.18647   4
   0  -2  12 29.7940 3.39125   5
   0  -2 -12 38.6556 3.34521  11
   0  -2  12 39.4360 3.04339   9
   2  -2 -12 29.4757 3.54359  11
   2   0  12 33.1738 4.11388   8
   0  -2 -12 23.4534 2.37185   7
   2   0  12 28.8322 3.14254  10
  -2   0 -12 21.4785 3.07997  11
   0   2 -12 28.4420 2.08665  11
  -2   2  12 29.4802 3.69692  11
  -2   0  12 39.8700 2.94089  10
  -2   0  12 24.8997 3.92216   3
   2  -2  12 27.3121 3.99040   8
   2   0 -12 33.1566 3.87264   2
  -2   0 -12 26.1935 3.30356   3
  -2   2 -12 29.8676 3.98033  11
   0   2  12 25.7947 3.06578  11
  -2   2  12 32.8000 4.20758  10
   0   2  12 35.6458 2.78234  11
   0  -2 -12 34.0883 3.61347   4
   0   2  12 30.1374 3.81348  10
   2   0  12 26.9717 1.86994   5
  -2   0 -12 29.0859 3.29645   4
   0  -2 -12 33.9888 4.41206   6
  -2   2  12 24.8071 4.46506   3
   2   0 -12 25.6034 3.00613  11
   0  -2  12 21.9073 3.11777  12
   2  -2 -12 32.3172 2.99253   9
   0   2 -12 29.8419 2.14044  11
   2   0  12 24.7122 3.16342  11
   2   0 -12 34.6395 3.85408  10
   0   2 -12 33.2346 2.45827   2
   0   2 -12 33.0076 2.87043   2
   0   2 -12 27.1587 3.40136   6
   2  -2  12 29.7389 3.72976   2
   2  -2  12 28.5583 2.97211   5
  -2   0 -12 31.4931 5.03224   6
   0  -2 -12 25.4928 3.39021  12
  -2   0  12 26.7989 3.51445  12
  -2   0  12 34.1015 2.71532   5
  -2   0  12 34.7499 3.32300   7
   0  -2 -12 35.0930 3.60474   9
   0   2  12 31.8064 3.86180   3
  -2   0 -12 29.0111 3.61671  12
   2  -2 -12 25.8493 4.15213   2
   0   2  12 22.9421 3.23122   8
   2   0  12 22.6471 3.35948   2
  -2   2 -12 27.5737 4.23835   3
  -2   0  12 28.6286 3.55576  11
   2  -2  12 28.2817 3.39341  11
   0  -2  12 28.6041 3.26781   7
  -2   2 -12 32.4717 4.53833   6
  -1   3 -12 206.156 12.3449   6
  -2  -1 -12 191.313 8.81129  11
  -3   1  12 187.908 9.12032  11
   2  -3  12 201.315 6.30561   4
   3  -1  12 190.333 9.56061   8
   2  -3  12 199.025 8.29174   5
  -1   3 -12 209.392 9.86136   3
   1  -3 -12 193.458 8.60590   4
  -1   3 -12 186.815 6.75759  11
  -3   1  12 201.286 7.75773  10
   1  -3 -12 217.374 8.13517  11
   2   1 -12 188.934 8.62023   2
  -2  -1 -12 184.922 9.12446  12
  -3   1  12 199.192 11.0848   3
   2   1 -12 196.870 7.69898  11
   3  -2 -12 183.910 9.01919  11
  -1  -2  12 192.036 8.65102   4
   2  -3  12 202.619 8.94255   2
  -3   2 -12 180.156 9.52172  11
  -3   2 -12 185.130 10.8471   6
   2   1 -12 201.325 7.91885  11
  -2  -1 -12 195.555 8.65337   4
  -3   2 -12 204.381 10.6273   3
  -2  -1 -12 206.648 11.5762   6
   2   1 -12 199.613 6.44618  10
   1   2  12 189.262 7.09835  11
   2  -3  12 198.242 7.92330  11
  -1  -2  12 193.796 8.35697   7
  -1   3 -12 197.832 6.37813  11
  -1  -2  12 183.660 9.06894  12
  -3   2 -12 199.792 6.73867  12
  -2   3  12 190.632 10.1623  10
  -1  -2  12 197.466 8.24714   5
   3  -2 -12 208.510 8.81890   9
   1  -3 -12 196.921 8.08416  12
   3  -1  12 188.122 8.69925  11
   3  -1  12 192.752 9.87141   2
  -2   3  12 206.930 11.2253   3
   1   2  12 189.972 8.82754  10
   3  -2 -12 190.743 8.17164   6
   1   2  12 198.686 9.13961   8
   2  -3  12 196.769 9.99838   9
  -2  -1 -12 196.854 8.39686   7
   1   2  12 178.221 8.75998   2
   1  -3 -12 199.225 8.59304   9
   3  -2 -12 163.975 10.2231   2
   1   2  12 192.052 7.35856  11
  -3   1  12 196.283 8.68524   7
  -1  -2  12 186.674 8.05644   9
  -2   3  12 185.114 8.32774  11
   1  -3  12 161.484 6.29332   4
  -1  -2 -12 157.538 8.46282   9
   2   1  12 155.066 8.50584   2
   2  -3 -12 161.222 8.05102   4
   3  -2  12 150.657 9.14902   2
  -1  -2 -12 159.931 6.67440   7
   2   1  12 159.912 8.35334   8
  -2   3 -12 152.730 8.43320   6
  -2   3 -12 158.594 5.57983  12
   2   1  12 160.927 5.07175   5
  -1  -2 -12 159.752 7.36073  11
  -1  -2 -12 158.525 8.08671  12
   2  -3 -12 154.194 7.54927  11
   1  -3  12 151.100 7.53074   5
   1  -3  12 152.305 7.24949   9
  -1  -2 -12 158.936 7.64224   4
   3  -2  12 168.807 9.01966   8
  -1   3  12 155.083 6.65495  11
   3  -2  12 153.234 8.16613   5
  -1   3  12 157.885 5.68767   6
  -2  -1  12 161.787 7.56907   7
   2  -3 -12 159.199 7.40711   9
  -2  -1  12 166.178 6.73537   5
  -2   3 -12 150.446 7.49670  11
   1   2 -12 165.376 6.86753   2
  -1   3  12 150.682 9.06283  10
  -3   1 -12 158.648 9.01779  11
  -3   2  12 169.419 8.91443  11
  -1   3  12 150.157 9.02702   3
   2  -3 -12 165.192 6.41937  12
  -3   1 -12 171.358 10.9363   6
   2   1  12 156.639 6.88146  11
  -3   1 -12 157.631 8.50665   3
  -2  -1  12 154.086 8.42519  12
   3  -2  12 158.447 8.26378  11
   3  -1 -12 163.113 9.67312   2
   3  -1 -12 151.781 7.69354  11
  -3   2  12 144.487 8.34084  10
  -3   1 -12 168.675 7.30441  12
  -2   3 -12 148.436 8.97780   3
  -2  -1  12 167.318 6.83662  11
  -3   2  12 163.879 8.18524   7
  -3   2  12 168.158 10.6115   3
   1   2 -12 164.608 5.76209   8
   2   1  12 165.477 6.66746  10
  -1   3  12 165.123 8.61606   8
  -3   3  12 0.49022 2.66318  11
   3  -3 -12 -1.4484 4.01467   2
  -3   3  12 1.27709 3.76092  10
  -3   0  12 0.39106 2.94137  12
  -3   0  12 -0.2948 4.71491   3
   0  -3 -12 1.22987 1.98406   7
   0   3 -12 4.22636 3.39244   3
  -3   0 -12 4.35479 2.99217  12
   3  -3  12 5.40369 3.28503   8
  -3   3  12 5.00764 1.55262   7
   0  -3  12 2.89484 3.25692  12
   0   3  12 5.81044 3.84677  10
   0  -3  12 10.7787 3.14928   5
   0  -3  12 -0.5419 2.57799   7
   0   3  12 7.07584 3.41851   3
  -3   3 -12 1.32594 4.17324   6
  -3   0 -12 3.69983 3.22087   4
  -3   0 -12 -3.8431 2.87620   3
   0  -3  12 1.14130 2.96128   4
   3   0 -12 -0.3542 3.70660   2
  -3   0 -12 0.21391 2.77283   7
   3  -3  12 2.61292 2.01335   4
   0   3 -12 2.55678 2.19007   2
   3  -3 -12 0.78375 3.49318  11
   3  -3 -12 3.25027 3.02425   6
  -3   0  12 5.66284 3.45420  11
   0   3 -12 4.65437 3.05328   6
   3  -3  12 5.65988 5.27163   2
   3   0 -12 3.88838 2.27971  11
   0  -3 -12 4.93454 3.19613  12
  -3   3  12 3.43071 4.86400   3
   0  -3 -12 3.59784 2.85914  11
   3  -3 -12 1.80071 2.45940   9
  -3   0  12 1.94721 2.13514   5
   3   0  12 5.67619 3.35846   8
   3   0  12 3.94306 2.73601  11
   3  -3  12 -1.3905 2.92689   5
   3   0  12 5.18455 3.64949   2
   3  -3  12 0.81164 2.80162   9
  -3   3 -12 3.49918 4.03395   3
  -3   0  12 -2.3079 2.42387   7
   0   3  12 4.42646 3.13092   8
  -3   0 -12 6.30420 3.54684  11
   0   3  12 1.81154 1.86752  11
   3  -3  12 3.72084 2.93589  11
  -3   3 -12 1.53010 3.08946  11
   0  -3 -12 -0.3310 2.79983   4
   0  -3 -12 5.46752 3.04726   9
  -4   2 -12 42.9415 7.22627   3
  -2   4 -12 30.7484 4.12224  11
  -4   2 -12 32.7216 4.11708  12
   2   2 -12 37.6529 6.41585   2
  -2   4  12 30.7043 6.87995   3
  -2   4  12 31.0949 4.36500  11
   2   2  12 37.2420 5.79816   2
   2  -4 -12 32.7456 5.18640  11
   2  -4  12 36.8702 5.64088   9
   2   2  12 43.7789 6.15808   8
  -4   2  12 33.0481 6.29364  11
   2  -4 -12 29.8341 4.97598   4
  -4   2  12 39.7755 5.65426  10
   4  -2 -12 34.5969 6.60729   2
   4  -2 -12 26.2122 4.77922  11
   2  -4  12 38.2293 4.20637   4
  -2  -2  12 38.4604 5.14335   7
   2  -4 -12 25.2476 4.91747   9
   4  -2  12 26.7964 5.50355   8
   2   2  12 32.1022 4.60776  10
  -2   4 -12 32.6041 5.01977   6
   4  -2  12 24.9006 6.18760   2
  -4   2 -12 32.1851 6.07551  11
  -2  -2  12 35.1859 5.65032  12
   2   2  12 38.5865 4.41000  11
  -2  -2 -12 33.7531 5.04910   4
  -4   2  12 29.6256 4.03626   7
  -2  -2 -12 30.4026 4.70226   7
   4  -2  12 36.9120 5.56507  11
  -2   4  12 33.3288 6.52579  10
   2  -4  12 37.3897 5.45306   5
  -2  -2  12 34.0076 4.67426   5
  -2   4 -12 39.6922 7.06309   3
  -4   2  12 25.3532 6.68216   3
  -2  -2 -12 37.3640 6.46648  12
   2   2 -12 25.5440 5.35503   6
   2  -4 -12 33.6938 4.07295  12
   3  -4  12 934.649 23.2768   4
   1   3  12 935.639 27.9867   8
   1  -4 -12 923.112 27.1370   4
   3   1 -12 911.474 27.6543   2
   3   1 -12 968.817 24.4581  11
   3  -4  12 909.166 27.5166   2
   3  -4  12 945.597 26.8187   5
  -1  -3  12 922.188 27.0856   4
  -1  -3  12 941.579 26.0838   5
  -1  -3  12 924.503 26.1762   7
  -4   1  12 948.198 23.8259   5
  -1   4 -12 915.195 25.7359   6
  -3   4  12 924.308 27.1527  11
  -3  -1 -12 946.438 27.4130  11
  -1  -3  12 926.270 27.8163  12
  -3  -1 -12 921.408 26.5459   7
   4  -3 -12 921.399 25.3427   6
  -4   3 -12 923.439 29.1121  11
   1  -4 -12 926.855 25.8796  12
  -1   4 -12 926.758 28.9354   3
  -4   1  12 956.270 28.1972  11
  -4   1  12 934.004 25.9290   7
   3  -4  12 910.363 26.6242   9
  -3   4  12 909.973 29.8886  10
  -3  -1 -12 936.205 28.1327  12
   3  -4  12 915.168 25.9704  11
  -4   3 -12 935.516 31.4586   3
   4  -1  12 904.887 28.0513   8
   4  -3 -12 927.861 25.9321   9
  -3   4  12 913.512 31.6391   3
   1   3  12 920.111 27.7326   2
  -1  -3  12 949.369 26.7077   9
   4  -3 -12 948.123 28.2737  11
   1   3  12 942.847 23.0907  11
  -3  -1 -12 919.659 27.3199   4
   1   3  12 930.476 26.8608  10
   1  -4 -12 903.791 27.2708   9
   4  -3 -12 955.126 30.3609   2
   4  -1  12 942.188 29.5070   2
  -4   1  12 901.269 29.1664   3
   4  -1  12 940.387 27.4849  11
   4  -1 -12 1015.89 31.4916   2
   3   1  12 1015.07 27.4250  11
   4  -3  12 987.486 30.5225   8
  -3   4 -12 1004.20 28.6521  11
   3  -4 -12 1046.02 29.0334   4
   3  -4 -12 1024.59 28.6113   9
   3  -4 -12 982.024 29.0540  11
  -1  -3 -12 1022.20 30.1768   9
   3  -4 -12 981.590 32.2807   2
   1   3 -12 1015.75 25.8741   8
   4  -3  12 974.334 29.1272  11
  -3  -1  12 1005.27 30.0337  12
  -3  -1  12 1038.48 28.5180   7
  -4   3  12 974.825 33.7358   3
  -1   4  12 1061.01 30.6347   3
  -4   1 -12 980.343 29.0176   7
  -1   4  12 984.280 29.6317   8
  -1   4  12 1006.01 31.0064  10
   1   3 -12 1008.21 27.3065  10
  -4   1 -12 1031.06 29.3405   3
   3   1  12 1007.83 30.4862   2
  -1  -3 -12 974.815 29.4707  12
  -1  -3 -12 1034.71 26.5359   7
   4  -3  12 998.847 31.0582   2
  -4   3  12 1026.71 25.2301   7
  -3   4 -12 1017.55 27.3922   6
  -3   4 -12 1012.31 32.9768   3
   1   3 -12 992.506 26.9343   2
   1   3 -12 1039.94 28.9767   6
   3   1  12 986.097 29.5230   8
  -4   1 -12 1015.80 27.9522  12
   1  -4  12 998.232 28.0988   9
   1  -4  12 1016.46 26.8872   4
  -3  -1  12 1009.70 25.9842   5
  -4   1 -12 987.437 30.7456  11
  -4   3  12 1046.99 30.6520  11
  -1  -3 -12 1010.15 29.2688   4
   1  -4  12 996.426 28.8566   5
   4  -1 -12 1049.22 29.1304  11
  -4   3  12 1015.49 30.0711  10
  -4   4  12 819.763 26.4448  11
   0   4 -12 841.531 24.0132   8
   4  -4 -12 773.877 28.6481   2
   4  -4  12 793.984 24.6813   9
   0  -4 -12 817.273 26.0470   4
   4  -4  12 800.982 25.3746  11
   4  -4 -12 800.935 26.0728  11
   0  -4  12 817.664 24.7072   4
  -4   0  12 803.824 24.7024   7
   0  -4 -12 843.679 25.6482  12
   4  -4  12 823.357 27.3642   2
  -4   4  12 792.082 28.2565  10
  -4   4 -12 807.725 30.2044   3
   0  -4  12 813.982 25.1059  12
  -4   0 -12 801.318 27.1029  11
  -4   0  12 818.553 26.0495   3
  -4   0 -12 824.747 25.7561  12
   4   0 -12 817.513 26.6480  11
   4   0  12 813.863 27.7548   2
   0   4 -12 809.323 24.9205   6
  -4   0 -12 813.964 25.4410   7
   4   0  12 774.844 26.3032   8
   0  -4  12 792.372 24.7608   9
   0   4  12 812.356 26.6442  10
   4   0 -12 835.996 28.3154   2
   0  -4 -12 779.533 21.3882   7
   4  -4 -12 824.396 24.8685   9
  -4   0  12 824.871 26.3778  12
   0   4 -12 837.124 26.3771   3
   4   0  12 819.740 25.0869  11
   0  -4 -12 791.542 26.2913   9
  -4   4  12 764.023 30.7379   3
   0  -4  12 827.750 25.3460   5
   0   4  12 812.851 26.6750   8
   0   4  12 805.318 20.0523  11
   0   4 -12 798.518 25.7211  10
   0  -4  12 828.748 24.4933   7
  -4   4 -12 817.156 26.8004  11
   4  -4  12 860.161 24.5836   5
   3   2 -12 248.936 14.5697   6
  -5   2  12 300.921 18.6757   3
   5  -3 -12 284.848 17.8626   2
   2   3  12 259.669 14.7566   8
   5  -2  12 275.154 17.7233   2
  -3   5  12 270.567 17.3008  10
   2  -5 -12 251.586 14.7670   4
   5  -2  12 280.334 14.7930  11
   5  -2  12 229.038 15.1775   8
  -5   3 -12 300.737 19.5876   3
   2   3  12 279.578 15.9287   2
   3  -5  12 260.631 13.3549   5
   5  -3 -12 306.913 14.6643   6
   5  -3 -12 261.803 15.0879  11
  -2   5 -12 248.831 16.3873  10
   2  -5 -12 258.826 14.0783   9
  -3  -2 -12 271.750 15.4629  12
  -3  -2 -12 261.506 13.2928   7
  -3  -2 -12 250.729 14.4673   4
  -5   3 -12 236.548 16.2535  11
   5  -3 -12 272.128 12.9984   9
  -2  -3  12 254.710 13.2951   5
  -5   2  12 264.796 12.7344   7
   2   3  12 267.115 9.40169  11
  -2  -3  12 264.241 13.5282   7
  -2   5 -12 245.864 17.0918   3
  -3   5  12 251.190 18.9993   3
   3  -5  12 255.518 14.3952   9
  -2  -3  12 273.836 15.5034  12
  -3   5  12 245.157 12.4939  11
   3   2 -12 256.791 14.9330   2
  -5   2  12 290.886 16.7161  11
   3  -5 -12 251.714 13.6035   9
  -2   5  12 251.150 13.0281  11
  -2  -3 -12 245.723 12.3194   7
   2   3 -12 242.036 13.5071   2
  -5   2 -12 233.709 16.3162  11
  -2  -3 -12 232.846 14.5839  12
   5  -2 -12 218.884 13.5577  11
  -5   3  12 276.755 17.9938  11
   2  -5  12 234.209 13.6951   5
  -2   5  12 247.165 17.9646   3
   5  -3  12 260.709 15.3323   8
   3   2  12 244.956 11.0462  11
   5  -2 -12 249.599 17.1725   2
  -2   5  12 225.721 15.2431   8
   2  -5  12 263.897 14.0787   9
  -5   2 -12 228.911 13.4060   7
  -5   3  12 270.983 19.9952   3
  -5   3  12 252.306 16.0786  10
   5  -3  12 249.121 18.1271   2
   3  -5 -12 230.675 13.7420   4
  -2  -3 -12 247.109 14.0385   4
  -3  -2  12 246.965 13.0341   7
  -5   2 -12 260.638 18.7640   3
   3   2  12 251.373 15.3425   2
  -5   3  12 247.157 11.2588   7
  -3   5 -12 232.574 11.6864  11
   5  -3  12 243.021 14.4466  11
  -3   5 -12 250.021 18.2089   3
  -3   5 -12 246.235 15.4346  10
  -2   5  12 239.066 16.4662  10
  -3  -2  12 233.653 14.4565  12
   3   2  12 225.663 20.8465   8
   2   3 -12 228.543 13.8826   6
   5  -4 -12 77.4641 11.6473   2
  -1  -4  12 45.1338 9.06553   9
   5  -1  12 68.4404 8.58382  11
   1  -5 -12 56.3607 8.31996   9
  -5   4 -12 65.4123 9.46526  11
   4   1 -12 70.7638 7.19447  11
  -1   5 -12 60.3493 10.5153   3
   5  -4 -12 65.4621 8.15953   9
  -5   4 -12 80.7809 10.9113  10
   1   4  12 77.5232 9.75605   8
   1  -5 -12 68.3546 8.81289  12
  -5   4 -12 76.6534 13.0254   3
   4  -5  12 58.2454 10.3280   2
  -1   5 -12 72.8245 10.9804  10
   5  -1  12 49.4661 10.0105   2
  -4   5  12 64.7334 9.23892  11
  -5   1  12 71.9223 11.6450   3
   5  -1  12 103.416 12.5672   8
   5  -4 -12 67.9581 9.60993  11
  -1  -4  12 63.6855 9.12974  12
   4   1 -12 66.1086 10.1765   2
  -1  -4  12 55.7647 7.68843   7
   4  -5  12 68.0599 9.02416   5
  -1  -4  12 74.8772 9.58778   5
   1   4  12 63.5132 9.19353   2
   1   4  12 82.1510 9.87910  10
  -4  -1 -12 71.0020 10.7414  12
  -1  -4  12 71.2607 9.44422   4
  -5   1  12 59.9920 8.01125   7
  -1  -4 -12 65.0506 9.12936   4
   5  -1 -12 59.1978 8.83125  11
  -5   4  12 65.5955 11.7476  10
  -4   5 -12 51.9825 11.4177   3
   4   1  12 53.9662 9.00920   2
   1  -5  12 77.0828 15.1905   5
  -5   4  12 66.7805 12.5417   3
   4  -5 -12 50.7226 11.7141   9
   1  -5  12 80.7336 9.17591   4
   4   1  12 72.2547 9.10073   8
  -1  -4 -12 71.3692 7.45898   7
   1  -5  12 77.3129 9.08136   9
  -5   1 -12 60.1676 8.51127  12
  -1  -4 -12 58.1805 9.29635   9
   1   4 -12 62.1478 8.99978   3
  -4   5 -12 54.8577 8.09348  11
  -4   5 -12 48.4768 9.78211  10
   1   4 -12 48.3886 8.24130   6
  -1   5  12 64.4595 10.2980  10
  -5   1 -12 51.5702 10.5701  11
   5  -1 -12 70.9276 11.2816   2
   4  -5 -12 78.1438 8.86834   4
  -1   5  12 64.4271 5.17976  11
   5  -4  12 66.0834 11.3907   2
   5  -4  12 69.5050 8.40813   9
   4   1  12 57.8924 7.05523  11
  -1  -4 -12 61.8073 9.38835  12
   5  -4  12 75.2925 9.92698  11
  -5   4  12 55.8595 10.6496  11
  -4  -1  12 75.8780 8.15161   7
  -5   1 -12 60.9565 8.18967   7
   0  -5 -12 693.431 29.6783  12
   0  -5 -12 695.949 26.7114   4
  -5   0 -12 667.385 26.2872  12
   0  -5  12 686.637 24.9632   7
   0   5 -12 704.989 27.5207   3
   5   0  12 712.471 32.0299   8
   5  -5 -12 736.070 27.9779  11
   0   5 -12 693.225 26.4012  10
   0   5  12 716.602 27.9656  10
   5   0  12 708.716 24.6772  11
   0  -5  12 702.074 25.8022   5
  -5   0  12 655.807 24.4483   7
  -5   0  12 663.984 26.6031  12
   5   0 -12 697.071 30.3641   2
   5   0 -12 641.742 23.2323  11
   5  -5 -12 706.950 24.0426   4
  -5   5  12 684.108 29.0409  10
   0  -5  12 712.510 26.2495   4
  -5   5 -12 680.130 26.6771  11
   5  -5 -12 662.682 24.9128   9
   5  -5 -12 686.152 30.0479   2
  -5   0 -12 702.172 25.6792   7
   5   0  12 670.943 30.4280   2
   5  -5  12 667.431 24.5306   9
  -5   5 -12 647.222 32.2283   3
  -5   5 -12 663.136 27.9934  10
  -5   5  12 635.997 31.9927   3
   0  -5  12 711.451 25.9731  12
   0   5  12 665.545 26.7334   8
   0   5  12 678.470 25.9316   2
   0  -5 -12 641.439 26.5554   9
   0  -5  12 689.618 26.2973   9
  -5   5  12 675.800 26.4562  11
  -6   3 -12 448.003 24.8553  11
  -3   6  12 491.675 27.1057   3
   6  -3 -12 440.455 22.7798   6
   6  -3  12 434.637 22.6323   8
  -3  -3  12 437.796 22.4375  12
   3  -6 -12 456.257 21.2750   9
  -3   6 -12 404.217 26.5653   3
   6  -3 -12 415.881 25.2195   2
   3   3  12 467.535 21.9174   8
  -3  -3 -12 422.135 23.5350  12
   6  -3  12 461.401 21.8698  11
   6  -3 -12 452.745 22.1468  11
   6  -3  12 434.403 26.0018   2
  -3   6  12 428.318 22.6612   8
  -3  -3 -12 446.579 21.8960   4
  -6   3 -12 444.922 20.2812   7
   3  -6 -12 432.230 21.2000   4
  -6   3  12 417.384 28.1451   3
  -3   6  12 422.394 25.5105  10
  -3   6  12 425.052 17.0052  11
  -3   6 -12 432.604 23.9560  10
   3   3 -12 442.627 22.5410   6
  -3  -3  12 440.822 19.9788   7
  -6   3  12 445.780 24.2453  11
   3  -6  12 410.769 20.9629   5
   3  -6  12 450.661 21.1605   9
  -3  -3 -12 453.770 19.5500   7
   3   3  12 424.432 23.0364   2
   4   2 -12 148.086 16.7512   6
   6  -2  12 102.742 15.2393   2
   4   2 -12 151.898 18.7466   2
  -4  -2 -12 138.672 13.8032   7
  -4   6  12 161.108 19.6901  10
  -4   6  12 130.449 12.3274  11
   6  -4 -12 145.919 16.7957   2
   6  -4 -12 133.716 13.0244   9
  -4   6  12 155.092 19.1206   3
   4  -6  12 154.001 14.9472   9
  -6   2  12 130.750 14.0994   7
   2  -6 -12 156.473 14.7536   4
  -2   6 -12 134.505 15.7842  10
  -4  -2 -12 129.436 14.7337  12
  -6   4 -12 135.824 15.3565  11
  -6   4 -12 207.076 23.1954   3
   2   4  12 136.604 16.7554   8
   6  -2  12 112.463 13.8794  11
  -2  -4  12 162.442 16.5927  12
   6  -4 -12 134.983 15.5177  11
   2   4  12 137.723 14.3923   2
   2  -6 -12 123.042 14.9457   9
  -2  -4  12 140.388 13.5110   7
  -6   2  12 150.342 18.3048   3
  -6   4 -12 154.977 13.8053   7
  -2   6 -12 143.168 18.0474   3
   6  -2  12 161.079 17.4001   8
  -2  -4 -12 114.960 13.4698  12
   6  -2 -12 105.139 11.9807  11
  -2  -4 -12 110.323 11.1916   7
  -4   6 -12 113.219 13.1246  11
   6  -2 -12 129.971 15.5016   6
  -6   4  12 118.404 13.2975  11
  -2   6  12 101.317 15.5671  10
  -4   6 -12 112.951 17.4783   3
   6  -2 -12 117.508 15.3783   2
   4  -6 -12 93.4942 11.5250   9
   6  -4  12 115.688 15.4326   2
   2  -6  12 92.1876 12.3866   9
   4   2  12 110.676 10.1020  11
  -6   4  12 79.6363 16.5793   3
   6  -4  12 131.548 15.9487  11
   2   4 -12 109.840 12.7274   6
   2  -6  12 94.5167 11.7234   5
  -2  -4 -12 141.024 15.3682   4
   4  -6 -12 119.580 14.1377   4
  -2   6  12 98.0267 12.9242   8
  -4  -2  12 100.882 11.6506   7
   4   2  12 129.618 15.0285   2
  -6   2 -12 94.7978 15.2180  11
   4   2  12 117.212 12.9741   8
  -4   6 -12 105.939 14.8258  10
  -4  -2  12 111.301 13.5701  12
  -6   2 -12 107.035 11.9092   7
   5   1 -12 87.5077 16.3575   2
   6  -5 -12 86.4786 13.3166  11
  -5  -1 -12 92.0467 12.1659   7
   5   1 -12 74.7350 9.76743  11
  -5   6  12 77.9977 17.0918   3
  -1  -5  12 80.5136 13.4758   9
   1  -6 -12 79.4741 12.8041   4
  -1  -5  12 86.3102 13.3417   5
   6  -1  12 74.1851 10.6959  11
   6  -1  12 96.4732 13.7013   8
  -6   5 -12 108.874 14.7518  10
  -1  -5  12 92.1004 14.4894   4
  -1  -5  12 93.1887 11.9410   7
  -6   5 -12 70.2132 11.2868  11
  -6   1  12 93.7799 11.8336   7
   1   5  12 64.7341 12.7794   2
  -6   5 -12 139.677 19.5922   3
   6  -5 -12 106.386 15.6694   2
  -1   6 -12 93.8156 15.3521  10
   5   1 -12 99.7610 14.4353   6
  -5   6  12 116.669 16.5868  10
   1  -6 -12 93.8032 13.0238   9
   6  -1  12 79.1754 14.0842   2
   5  -6  12 89.1557 11.6504   9
   6  -5 -12 87.6068 11.2497   9
   1   5  12 69.8043 12.8508   8
  -5   6  12 78.1801 10.7993  11
  -5  -1 -12 107.227 13.4890  12
  -1  -5  12 61.0927 12.7435  12
  -6   5  12 62.9749 16.7878   3
   6  -5  12 65.2859 9.72700   9
  -5   6 -12 75.0238 10.7396  11
   5  -6 -12 68.0064 10.6263   4
   6  -1 -12 73.0332 15.5684   2
  -6   1 -12 67.8413 11.5318   7
   6  -1 -12 71.2121 10.4027  11
  -5  -1  12 98.7145 13.6720  12
   1  -6  12 95.4375 12.9477   9
  -5   6 -12 64.5540 17.2711   3
   6  -1 -12 57.4830 12.5760   6
   5   1  12 98.1389 15.4719   2
  -1   6  12 60.5080 12.4945   8
   1  -6  12 63.3656 12.5519   5
   5  -6 -12 83.8674 11.3296   9
  -5   6 -12 72.5462 14.4211  10
  -1  -5 -12 43.6772 11.8407   4
  -5  -1  12 91.7440 11.3720   7
  -6   5  12 63.6184 10.7175  11
  -1   6  12 82.0539 14.9385  10
  -1  -5 -12 104.525 13.5798  12
   6  -5  12 101.847 15.5731   2
  -1  -5 -12 86.5301 13.1924   9
   5   1  12 84.1369 9.98805  11
  -6   5  12 64.9133 15.3542  10
   0   0  13 1.86802 1.35098  10
   0   0 -13 0.92590 0.85332  11
   0   0 -13 1.07238 1.54625   6
   0   0  13 -0.1938 1.00819   8
   0   0  13 1.56161 0.95317  11
   0   0  13 3.01328 0.72933   9
   0   1  13 2616.08 59.7128   8
  -1   0  13 2677.01 59.1308  11
   0   1 -13 2656.99 60.4094   6
   1  -1  13 2645.61 58.6760   5
   1  -1  13 2637.96 59.8308   8
   0   1  13 2639.08 59.1490   3
  -1   1 -13 2645.81 57.9959   2
   0   1 -13 2696.75 57.9452   4
  -1   1  13 2629.77 58.8911   8
   0  -1  13 2648.80 57.3740   9
   1   0 -13 2639.31 60.1038   6
  -1   0  13 2718.42 57.1421   8
   0   1 -13 2728.10 58.4674  11
   0  -1 -13 2606.22 59.5266  11
  -1   0 -13 2710.09 58.2782   4
  -1   1  13 2714.27 57.5566   7
   0  -1  13 2697.73 58.5045   8
   1   0  13 2625.25 59.1749   2
  -1   0 -13 2677.74 62.6080   6
  -1   0  13 2672.56 60.8177   3
   1  -1  13 2671.74 58.3185   2
   1   0 -13 2630.76 59.2100  11
  -1   0  13 2697.63 59.2315  10
   0  -1  13 2615.52 59.0423   5
   0   1  13 2679.40 60.4022  10
   0  -1  13 2665.31 58.3370  11
   1  -1 -13 2739.36 60.0115   6
   1  -1 -13 2673.84 57.4159   7
   0  -1 -13 2686.20 59.0008   9
   1  -1  13 2673.80 59.8958  10
   1  -1 -13 2654.95 57.9856   9
  -1   1  13 2693.59 61.0532   3
   1   0  13 2561.23 59.5500  10
  -1   0  13 2599.84 58.6956   7
  -1   1  13 2656.10 60.2892  10
   1  -1  13 2602.69 59.1100  11
   0  -1 -13 2489.92 58.8118   4
   0  -1  13 2629.17 59.2346   7
   1  -1 -13 2565.60 59.8061   2
   0   1 -13 2612.68 58.2219   8
   0  -1  13 2663.82 59.5149  10
   1   0 -13 2700.67 59.0174   2
   0  -1 -13 2717.31 61.4874   6
  -1   1  13 2607.24 59.5402  11
   0   1 -13 2549.01 58.6780  11
  -1   0 -13 2583.20 59.9380  11
   1   0  13 2617.44 60.0302   8
  -1   1 -13 2477.30 59.5710  11
  -1   1 -13 2612.77 61.5322   6
  -1  -1  13 1620.36 37.4293   5
  -2   1 -13 1585.09 41.1802   6
   1  -2  13 1696.68 37.0255  11
   2  -1  13 1603.15 36.0612   5
   2  -1  13 1556.80 38.9837   8
   2  -1 -13 1569.12 38.1148   6
  -2   1  13 1580.66 40.3169   3
  -2   1  13 1641.73 36.6235   7
   1   1  13 1558.97 37.3201  11
   1   1 -13 1627.57 36.7471   2
  -1  -1  13 1742.14 36.6050  11
   1  -2  13 1593.33 36.9921   9
  -1   2  13 1618.72 39.7463   3
  -1   2  13 1572.80 38.4620   8
  -2   1 -13 1596.03 37.1053  12
   1  -2  13 1697.48 35.4052   4
  -1  -1 -13 1583.90 38.6427  12
  -2   1 -13 1586.78 39.1198   3
   1  -2  13 1586.62 37.7631   5
   1   1  13 1591.19 38.9371   8
   1  -2 -13 1589.31 37.9321  11
   2  -1 -13 1595.75 39.3787   2
  -2   1  13 1620.84 38.1073  10
  -1  -1  13 1549.49 38.6812  12
  -2   1 -13 1590.40 39.2930  11
  -2   1  13 1609.33 38.6803  11
   2  -1  13 1569.43 38.3219   2
  -1  -1 -13 1561.62 36.9920   7
   1  -2 -13 1569.10 37.4015   9
   1   1  13 1603.15 38.0693  10
   1   1  13 1563.98 38.3082   2
  -1  -1  13 1594.25 37.7583   7
  -1   2  13 1583.35 37.8549  11
   1  -2  13 1591.02 38.4652   8
  -1  -1 -13 1594.01 38.6856   9
  -1   2 -13 1635.82 36.1346   2
   2  -1  13 1584.78 38.2113  11
   1  -2 -13 1610.98 38.2164   4
  -1   2 -13 1618.88 39.1892   6
   1  -2 -13 1629.99 38.1213   6
  -1   2 -13 1624.20 36.8899  11
  -1  -1 -13 1601.64 37.7301   4
  -1  -1 -13 1571.02 41.0173   6
   1   1 -13 1588.30 38.6547   6
  -1   2 -13 1571.49 37.5153  11
   1   1 -13 1555.64 36.4206  11
   2  -1 -13 1596.06 38.3944  11
  -1  -1 -13 1573.48 38.0240  11
  -1   2  13 1624.96 39.7429  10
   1  -2  13 1656.31 36.1926   2
   1   1 -13 1683.40 36.8257  11
   2   0  13 2044.61 49.2723  11
   0   2  13 2035.14 48.2407  11
   2   0 -13 2070.93 48.8763  11
   0   2  13 2058.80 48.2935  11
   0  -2  13 2112.84 48.1949   4
   2   0  13 2104.61 50.2825   2
   0   2 -13 2174.57 46.6125   2
  -2   0  13 2128.36 48.8182   7
  -2   2  13 2026.96 49.9653  11
  -2   0  13 2123.77 49.1338  11
  -2   0 -13 2236.72 47.9115   3
  -2   0 -13 2058.10 48.6990   4
   2  -2  13 1992.24 46.5150   4
   2  -2  13 2203.08 49.5268  11
   0   2  13 2065.97 50.1006   8
   2  -2 -13 2136.59 48.4767   9
   2   0  13 2197.33 45.9998   5
  -2   2 -13 2085.59 50.2559  11
   2  -2  13 2093.29 50.6861   8
   0   2 -13 2158.08 46.9711  11
  -2   0  13 2144.76 47.5642  10
  -2   2  13 2093.02 52.5033   3
   0  -2 -13 2143.00 50.6415   6
  -2   0  13 2098.44 48.1426   5
   0  -2 -13 2155.02 49.5251   4
   2   0 -13 2093.92 50.2156   6
   0  -2  13 2172.18 46.9238  11
   0   2  13 2042.82 50.4084  10
  -2   2 -13 2108.65 50.9961   3
   2  -2  13 2211.38 46.1450   4
   0  -2  13 2118.88 49.1169   7
   0  -2  13 2122.96 49.4947  12
  -2   2  13 2074.54 50.7577  10
  -2   0 -13 2075.50 50.2728  11
   2  -2 -13 2027.82 49.6825  11
   0   2  13 2205.30 48.9796   3
  -2   0 -13 2050.13 53.3847   6
   2   0  13 2084.60 50.4398   8
   2   0  13 2140.06 48.6536  10
  -2   0  13 2092.83 51.0125   3
   0  -2 -13 2124.24 49.6272   9
   0  -2 -13 2101.46 48.7684  11
   0   2 -13 2256.85 46.7362  11
   2  -2 -13 2109.01 51.4142   2
   2  -2 -13 2183.61 48.8566   6
  -2   2 -13 2095.43 51.5960   6
   0  -2 -13 2174.32 46.9457   7
  -2   0 -13 2081.58 49.5174  12
  -2   2  13 2238.83 46.1154   7
   0   2 -13 2162.78 46.8346   2
   0  -2 -13 2090.80 49.6182  12
   0   2 -13 2180.32 50.0732   6
   0  -2  13 2087.82 49.1112   5
   2   0 -13 2054.36 49.9040   2
   2  -2  13 2143.01 49.5669   2
   0  -2  13 2075.66 47.8528   9
   2  -2  13 2078.68 48.4566   5
  -1   3 -13 568.753 18.5243   3
   1   2  13 561.138 17.2048  10
  -3   1  13 571.154 17.9394  11
   2  -3  13 579.762 16.3979  11
   2   1 -13 589.484 16.2420  11
  -3   1  13 565.981 15.9582  10
   3  -2 -13 567.377 17.9042  11
  -1  -2  13 566.391 17.8699  12
  -3   2 -13 585.413 20.4755   6
  -1   3 -13 584.212 17.4948   6
  -2  -1 -13 565.879 17.9172  12
   3  -2 -13 569.099 16.2562   9
  -2   3  13 562.863 19.1406  10
  -1   3 -13 572.355 15.1522  11
  -1  -2  13 561.941 16.8215   7
  -1  -2  13 570.232 16.3941   9
   3  -2 -13 562.074 16.6435   6
   2   1 -13 592.741 18.2325   6
   2   1 -13 563.724 14.5705  10
  -2   3  13 560.313 20.0208   3
  -3   1  13 581.204 16.2236   7
   2  -3  13 576.539 14.0973   4
   2  -3  13 556.570 16.8002   5
   2  -3  13 549.371 18.5339   9
  -2  -1 -13 556.080 16.6756   7
  -3   2 -13 589.262 14.8907  12
   3  -2 -13 529.821 19.1594   2
   2  -3  13 568.706 16.9215   2
  -2   3  13 580.623 17.2963  11
  -3   2 -13 551.677 18.6398  11
   3  -1  13 563.268 17.5405  11
  -1  -2  13 579.375 13.5475  11
   1   2  13 548.855 15.7069  11
   1  -3 -13 574.641 17.2056   9
   3  -1  13 570.289 18.7591   2
  -2  -1 -13 558.134 17.1945   4
   1   2  13 581.975 17.9142   2
   1  -3 -13 585.965 16.6933  12
  -1   3 -13 619.382 14.6736  11
  -3   1  13 568.080 19.8742   3
  -2  -1 -13 586.209 17.5462  11
   2   1 -13 571.257 15.3460  11
   1  -3 -13 576.083 16.4346  11
  -3   2 -13 517.119 20.7627   3
  -1  -2  13 577.509 17.3959   4
  -2  -1 -13 573.240 21.0706   6
   1   2  13 570.266 17.9852   8
   3  -1  13 605.082 18.7537   8
   1  -3 -13 581.632 17.3957   4
   2   1 -13 556.281 17.0227   2
  -3   2  13 544.362 20.1602   3
   3  -2  13 541.609 18.2773   2
  -2   3 -13 567.552 19.1251   3
   2   1  13 514.071 17.3798   2
  -3   2  13 568.921 14.7131   7
  -1  -2 -13 522.511 16.5565   4
  -1   3  13 549.147 17.6859   8
  -1   3  13 558.668 18.6706  10
  -2  -1  13 538.500 17.7545  12
  -1   3  13 554.203 15.7426  11
   2  -3 -13 570.825 15.2659  12
  -3   1 -13 559.439 17.5829   3
  -3   1 -13 554.376 20.4545   6
   3  -2  13 564.852 14.9800   5
   1   2 -13 566.552 14.0293   8
   1  -3  13 584.184 14.6602  11
   3  -1 -13 536.014 17.0027  11
   1   2 -13 522.559 18.4993   6
   3  -1 -13 545.721 18.7591   2
  -3   1 -13 549.028 16.0483  12
  -1   3  13 526.778 18.0789   3
   2   1  13 558.717 15.5311  10
   1  -3  13 538.850 16.7303   5
  -2   3 -13 547.875 17.5756   6
  -2  -1  13 558.537 16.5217   7
   2  -3 -13 556.146 16.4220   9
  -1  -2 -13 564.559 15.3711   7
  -1  -2 -13 564.577 17.8240   9
   2  -3 -13 594.243 14.4256   6
   3  -2  13 534.198 18.1275   8
  -1   3  13 540.504 14.1138   6
  -2  -1  13 590.634 15.3542  11
  -2   3 -13 528.094 16.5034  11
   2   1  13 536.777 15.9265  11
   1  -3  13 569.889 14.8003   4
  -3   2  13 564.555 17.5469  10
  -1  -2 -13 555.919 16.0726  11
   2   1  13 533.310 17.4582   8
  -3   2  13 525.663 17.8604  11
   1  -3  13 544.442 16.0148   9
   1   2 -13 547.778 15.1868   2
  -2  -1  13 540.125 15.3480   5
   2  -3 -13 566.563 17.3006   4
  -1  -2 -13 561.616 17.4790  12
  -3   1 -13 473.397 19.2098  11
   2  -3 -13 558.890 16.8397  11
   2   1  13 546.801 13.3777   5
   0  -3 -13 15.1746 3.39208  11
  -3   0  13 15.0105 3.68008  12
  -3   0 -13 13.6794 3.64553  12
  -3   0 -13 14.3544 4.20940  11
  -3   0  13 18.1407 4.85416   3
  -3   0  13 12.5236 3.98403  11
   0   3  13 13.8205 3.83578   3
   3  -3 -13 13.0775 4.05781  11
   3  -3  13 14.3745 2.54137   4
  -3   3  13 22.1474 4.17361  11
   3  -3  13 7.51623 3.44931   5
   3  -3  13 12.2831 3.36168  11
   0  -3 -13 14.9179 3.76339  12
  -3   0 -13 15.5457 3.16962   3
  -3   0 -13 15.0565 4.06135   4
  -3   3  13 10.3965 4.85797   3
   0  -3  13 8.49916 3.52968   4
  -3   3 -13 7.74494 3.52676  11
   3  -3 -13 9.78996 3.46807   6
   3  -3 -13 15.2558 3.22745   9
   0  -3  13 11.9111 3.20677   7
   3   0 -13 13.5471 4.56462   2
   0   3 -13 13.2082 2.69019   2
   3   0  13 16.8781 3.69005  11
   0   3 -13 7.34136 3.57427   6
   0  -3 -13 10.9534 2.41912   7
   0   3  13 10.4309 3.56059   8
   3   0  13 7.77723 3.56836   8
   3  -3  13 12.8634 4.50629   8
  -3   0 -13 13.5919 3.53813   7
   3   0 -13 9.39917 2.75946  11
  -3   0  13 12.3766 2.64686   5
  -3   0  13 13.3761 3.20003   7
   0  -3  13 11.7036 3.25214   5
   0  -3 -13 12.8168 3.69312   9
   3   0  13 9.99649 4.42935   2
   3  -3 -13 8.37133 4.96806   2
   0   3  13 11.4925 4.22405  10
   0  -3  13 5.72257 3.27096  12
   0   3  13 12.0428 2.32896  11
  -3   3  13 10.4722 4.58647  10
  -3   3 -13 12.2151 4.56277   3
   3  -3  13 16.4677 5.03234   2
   0  -3 -13 14.1555 3.50339   4
  -3   3 -13 19.0635 5.19428   6
  -2  -2  13 102.294 7.45899   5
   2   2  13 87.4393 5.90817  11
  -2   4 -13 107.146 10.4342   3
  -2   4  13 107.737 10.2347  10
   2  -4 -13 89.5864 6.36873  12
  -4   2  13 86.4501 6.39401   7
   2  -4  13 99.5280 5.98041   4
   2  -4 -13 92.4146 7.56470  11
  -2   4 -13 91.3831 8.36724   6
  -2   4 -13 77.7253 6.01450  11
   2  -4 -13 91.1830 7.36060   9
   4  -2 -13 97.0740 7.96054  11
   2   2  13 83.3008 8.17416   2
  -2  -2  13 77.1539 8.27828  12
  -4   2  13 104.807 11.0996   3
   4  -2  13 95.7195 10.0933   2
  -2  -2  13 97.6719 7.50740   7
   2   2  13 78.9335 6.63700  10
  -4   2 -13 80.9807 9.62630   3
   4  -2  13 98.5322 8.79352   8
   4  -2 -13 80.5639 8.09983   6
   4  -2  13 93.9200 8.16524  11
  -4   2 -13 94.0319 9.49108  11
  -4   2 -13 85.7586 6.19256  12
  -4   2  13 96.0199 9.11933  11
  -2   4  13 87.3981 10.5163   3
   2   2  13 90.9662 8.82411   8
  -2  -2 -13 90.7059 7.15561   7
   2   2 -13 88.0540 8.41350   6
  -4   2  13 111.217 8.35399  10
   2  -4  13 79.3193 7.66443   5
   4  -2 -13 93.5697 10.6592   2
   2  -4 -13 89.1381 7.86442   4
   2  -4  13 99.2736 7.73820   9
  -2   4  13 97.7420 6.85566  11
  -2  -2 -13 97.3286 8.09634   4
  -2  -2 -13 99.2291 8.53192  12
   4  -3 -13 0.97319 3.49258   9
  -4   1  13 2.54075 5.94381   3
  -4   3 -13 9.63603 7.00202   3
  -1  -3  13 7.61330 4.26534   5
   3  -4  13 2.63063 5.20783   2
  -3  -1 -13 0.51545 3.82470   7
  -1   4 -13 -7.1674 4.69826   3
  -1  -3  13 -3.4364 4.22937  12
  -3   4  13 3.42802 6.69451   3
  -4   1  13 2.10054 4.79724  11
   4  -3 -13 8.62457 4.48666  11
   3   1 -13 9.10465 5.17170   2
   1   3  13 3.46824 2.50223  11
   4  -3 -13 -1.7632 4.32857   6
   1   3  13 4.91072 4.55871   8
   3  -4  13 2.54599 2.97537   4
  -4   3 -13 14.4645 6.14348   6
  -1  -3  13 0.91514 3.57959   7
  -1  -3  13 -0.9322 4.26383   9
  -3   4  13 3.41721 5.49215  10
  -4   1  13 8.30602 3.18606   5
  -1   4 -13 1.27084 4.14290   6
   3  -4  13 8.78229 4.19133   9
   3  -4  13 4.61616 3.93281  11
  -4   3 -13 10.2414 4.78930  11
  -3  -1 -13 2.99541 4.36695   4
   4  -1  13 12.2155 5.34113   2
  -3   4  13 7.08265 3.71672  11
   3  -4  13 5.84439 4.24210   5
  -1  -3  13 -3.2220 4.42280   4
  -3  -1 -13 1.22270 4.73881  11
   1   3  13 8.72791 4.99480  10
   4  -1  13 0.38448 3.68610  11
   1  -4 -13 -4.6056 3.65202  12
   1  -4 -13 5.26480 4.46297   4
  -4   1  13 2.31474 3.44902   7
   4  -1  13 4.47492 4.87050   8
   1  -4 -13 2.01580 4.02724   9
  -3  -1 -13 7.08014 4.30805  12
   4  -3 -13 -8.0682 4.92565   2
   3   1 -13 4.13531 2.76027  11
  -1   4  13 8.75228 5.78381   3
  -4   1 -13 2.72077 3.88378  12
   4  -1 -13 5.30025 5.64620   2
  -4   1 -13 2.46893 5.03067  11
  -1   4  13 3.61544 5.65057  10
  -4   3  13 -4.4839 5.60153  10
  -4   1 -13 1.94947 5.91926   3
  -3   4 -13 0.51852 3.89615  11
  -4   1 -13 13.7463 4.34447   7
   3   1  13 -0.2096 4.84195   2
   3  -4 -13 -0.6316 5.42495   2
  -1   4  13 6.22447 4.44709   8
  -1  -3 -13 2.20551 3.42215   7
  -4   3  13 6.20104 2.75997   7
  -3  -1  13 -2.2647 3.45520   7
  -4   3  13 0.47787 4.45662  11
  -1  -3 -13 -0.8720 4.42916   4
  -1  -3 -13 12.4588 4.79557   9
   4  -3  13 1.28672 4.06362  11
  -3  -1  13 1.00663 3.67803   5
   1   3 -13 7.07310 3.35122   8
  -4   3  13 5.71320 6.86892   3
   3   1  13 6.36483 4.16996   8
   1   3 -13 6.68642 3.75997   2
   3  -4 -13 5.71305 4.05651   4
   4  -3  13 7.37983 5.89582   2
   1   3 -13 4.84916 4.31030   6
  -3   4 -13 7.34700 4.91995   6
   1   3 -13 1.30962 4.16678  10
  -3   4 -13 3.68577 6.02454   3
   3   1  13 0.94116 3.19325  11
   1  -4  13 0.04281 3.91287   9
   1  -4  13 5.75900 4.05900   5
   4  -1 -13 1.36950 3.55061  11
   3  -4 -13 -3.3604 3.77010   9
  -3  -1  13 -0.0399 4.43390  12
  -1  -3 -13 -7.0346 3.68988  12
   4  -3  13 4.22678 4.88079   8
   1  -4  13 2.80142 4.65029   4
   4   0  13 91.3016 10.2548   2
   4   0  13 83.3668 8.31220  11
   0   4  13 86.8078 9.69733   8
   0  -4  13 87.1023 9.43007  12
   0  -4 -13 77.3724 8.99884   9
   0  -4 -13 86.3679 9.13389  12
  -4   4  13 82.3479 8.73800  11
   0   4 -13 91.2932 9.50919   6
   4  -4  13 79.2155 9.39785   2
  -4   0  13 84.9575 10.7464   3
   0  -4  13 92.5845 9.21452   5
   0   4 -13 96.8972 10.3826   3
   4  -4  13 80.7067 8.62506   5
   0  -4  13 95.8168 8.47223   7
  -4   0 -13 82.7059 8.98813  12
   4   0 -13 78.3919 7.95386  11
   0   4  13 78.9927 9.47818  10
   4  -4  13 85.5683 8.34013   9
  -4   0 -13 114.687 11.8259  11
  -4   0 -13 83.3628 8.50490   7
   4  -4 -13 75.7406 9.84263   2
   4  -4 -13 79.2242 9.51459  11
   0  -4  13 79.4634 8.83600   9
   0   4 -13 89.7193 7.71643   2
  -4   4 -13 74.6475 10.3643   3
   4  -4 -13 90.2077 8.24314   9
   0   4 -13 111.370 8.67102   8
   0  -4  13 79.1338 9.20554   4
   0  -4 -13 95.6700 9.28842   4
   4   0 -13 108.606 12.1754   2
   0   4 -13 81.8613 9.82132  10
  -4   4  13 78.0258 10.1890  10
  -4   4  13 83.1235 11.9497   3
  -4   0  13 85.4962 8.48591   7
  -4   0  13 88.0757 9.48557  12
   0   4  13 77.9791 5.20488  11
   4  -4  13 85.7173 9.59003  11
  -4   4 -13 90.0051 9.76603  11
   4   0  13 82.5080 9.57103   8
  -2   5 -13 186.866 15.4343   3
  -2  -3  13 186.579 11.3667   7
  -3   5  13 183.063 10.9310  11
   3  -5  13 174.802 12.3801   9
   2  -5 -13 185.142 12.2017   9
  -5   2  13 153.103 16.2203   3
   5  -3 -13 175.707 13.2891  11
   5  -2  13 169.263 13.6513   8
  -2   5 -13 150.106 13.6565  10
   2   3  13 170.813 7.81654  11
   5  -2  13 179.221 12.5957  11
   3  -5  13 179.721 12.0822   5
  -3  -2 -13 172.227 15.2651   7
   5  -3 -13 176.370 12.7408   6
  -3   5  13 160.983 16.2530   3
  -2  -3  13 171.769 13.2095  12
   2   3  13 169.999 12.8218   2
   5  -3 -13 187.025 10.8977   9
   2  -5 -13 179.159 13.1326   4
  -5   2  13 168.480 14.4238  11
  -3  -2 -13 163.619 12.7149  12
  -5   3 -13 142.950 14.2313  11
  -5   3 -13 175.362 17.8881   3
   2   3  13 172.168 13.3519   8
  -3   5  13 182.082 15.4574  10
  -2  -3  13 188.570 11.7156   5
  -5   2  13 169.831 10.7779   7
  -3  -2 -13 183.701 12.7338   4
   3   2 -13 189.255 13.9265   2
   5  -3 -13 187.257 15.5318   2
   5  -2  13 168.542 15.3149   2
   3   2 -13 177.543 12.9978   6
  -2  -3 -13 186.132 13.5372  12
   5  -3  13 186.363 16.4551   2
  -2   5  13 222.261 16.1342  10
  -2   5  13 203.591 13.7306   8
  -5   3  13 177.366 17.8614   3
  -2  -3 -13 180.085 12.8294   4
   5  -2 -13 201.320 12.8782  11
  -5   2 -13 179.098 14.9878  11
   3   2  13 176.745 13.7614   2
  -3   5 -13 188.548 10.7246  11
   2   3 -13 184.041 12.4591   2
   2   3 -13 197.341 13.0938   6
   2  -5  13 200.475 12.8487   5
   3   2  13 199.342 13.4464   8
  -5   2 -13 223.031 18.6917   3
   5  -3  13 211.575 14.5381   8
  -2  -3 -13 192.673 11.1437   7
  -5   3  13 206.909 15.2898  10
   2  -5  13 194.253 12.7452   9
  -5   2 -13 213.057 13.0411   7
  -5   3  13 203.146 10.3977   7
   3   2  13 203.185 10.1442  11
  -3   5 -13 189.214 16.0021   3
  -3  -2  13 201.844 11.9239   7
   3  -5 -13 184.061 12.1312   9
  -3  -2  13 173.561 13.2040  12
  -2   5  13 193.488 9.75446  11
   5  -2 -13 138.684 15.5479   2
  -2   5  13 208.983 17.4214   3
  -5   3  13 190.907 20.3836  11
   5  -3  13 212.548 17.4775  11
   3  -5 -13 195.519 12.5174   4
   1   4  13 223.379 14.8940  10
   1  -5 -13 170.623 20.6587   4
  -1  -4  13 214.454 14.9232   4
   1  -5 -13 234.070 13.8539  12
   1   4  13 230.505 15.2302   8
  -1  -4  13 212.265 13.2903   5
  -1  -4  13 194.791 14.5966   9
   5  -4 -13 219.438 12.7095   9
  -1   5 -13 229.178 17.1202   3
  -4   5  13 187.359 18.1859  10
   4   1 -13 224.405 16.2299   2
  -5   4 -13 225.520 19.2609   3
   4   1 -13 211.873 10.4246  11
  -1  -4  13 212.638 12.8984   7
  -4   5  13 190.636 21.8389   3
   5  -1  13 201.171 13.0669  11
  -5   1  13 214.528 12.8591   7
  -4   5  13 203.342 13.0562  11
   5  -4 -13 231.856 15.2882  11
  -4  -1 -13 197.047 13.8207   7
  -1  -4  13 192.988 14.3936  12
  -5   4 -13 200.556 14.9472  11
   4  -5  13 198.137 13.0402   5
   4  -5  13 211.132 16.0428   2
   5  -1  13 230.027 15.0920   8
  -1   5 -13 224.535 16.4169  10
   5  -1  13 189.914 16.7402   2
   1  -5 -13 181.198 13.3132   9
  -5   1  13 185.543 17.4613   3
   5  -4 -13 164.904 16.3739   2
   1   4 -13 244.587 14.0268   3
   1  -5  13 283.306 26.4552   4
  -5   4  13 249.827 16.1653  11
  -1  -4 -13 232.799 15.5988  12
   5  -4  13 216.604 13.1835   9
  -1  -4 -13 236.071 12.4991   7
   5  -4  13 253.713 16.2374   8
  -5   1 -13 240.272 17.5315  11
   4  -5 -13 218.979 13.2608   4
  -4   5 -13 249.519 18.8281   3
  -4   5 -13 244.256 16.8145  10
  -5   4  13 229.185 18.2058  10
   4   1  13 240.832 12.4539  11
  -5   1 -13 215.265 13.5573   7
   5  -1 -13 206.857 17.7178   2
  -1   5  13 231.405 8.79768  11
   5  -1 -13 215.202 13.2025  11
  -5   4  13 246.098 20.2153   3
   4   1  13 234.963 16.7952   2
  -4  -1  13 240.517 13.3694   7
  -1   5  13 230.366 17.4682  10
  -1  -4 -13 206.724 14.9057   9
  -1   5  13 240.672 17.9986   8
  -4  -1  13 243.401 17.4912  12
  -4   5 -13 200.029 16.1092  11
   1  -5  13 228.479 14.2586   5
   1  -5  13 236.482 14.2356   9
   5  -4  13 243.201 15.2559  11
   4   1  13 251.617 15.2631   8
   1   4 -13 255.832 14.9703   6
  -1  -4 -13 242.423 14.5373   4
   5  -4  13 233.045 18.1669   2
  -5   1 -13 213.607 13.7255  12
   0  -5  13 21.3409 8.17098   5
   5   0 -13 16.1005 6.22835  11
   0   5  13 9.61353 10.0591  10
   0  -5 -13 21.7377 8.73827   4
   0   5  13 12.5586 7.57294   2
   5  -5 -13 5.07572 9.40722   2
   0  -5 -13 -3.3414 7.74882   9
  -5   5  13 -1.2877 10.6581  10
   0  -5  13 3.71141 8.41319   9
   0   5 -13 11.1749 9.58162   3
  -5   5 -13 21.9944 9.92819  10
   0   5  13 6.80520 7.89699   8
   5   0  13 12.1796 9.52087   2
  -5   5 -13 15.4656 7.50586  11
  -5   0  13 11.7331 6.76849   7
   5  -5  13 19.8422 7.53498   9
   0   5 -13 20.0812 9.45052  10
  -5   5  13 6.83851 11.3087   3
   5  -5 -13 6.60330 6.77311   4
  -5   0  13 1.53084 7.63605  12
   5  -5 -13 13.3168 8.83520  11
  -5   5  13 12.0259 7.13868  11
   5   0  13 26.9056 11.2916   8
  -5   0 -13 -4.7499 7.80628  12
   0  -5 -13 10.2597 8.28291  12
   0  -5  13 24.5146 9.49366   4
   5   0 -13 22.7931 10.9809   2
  -5   0 -13 9.55498 7.13727   7
   5   0  13 14.6545 6.16975  11
   5  -5 -13 14.2131 6.92078   9
   0  -5  13 8.04980 8.62850  12
  -5   5 -13 33.9990 12.9822   3
  -6   3  13 348.453 21.6796  11
   6  -3 -13 306.843 22.6252   2
   6  -3 -13 315.813 16.4350   9
   3   3  13 292.065 20.3364   2
   3  -6 -13 306.595 18.4854   4
   6  -3 -13 325.428 20.0812   6
   3  -6  13 301.009 18.0875   9
   3   3  13 306.645 19.2253   8
  -3  -3  13 311.141 19.7377  12
  -3  -3  13 283.635 17.1560   7
  -6   3 -13 307.916 17.7934   7
  -3   6 -13 281.101 21.0990  10
  -3   6  13 263.079 20.0663   8
  -3   6  13 288.066 22.0547  10
  -3  -3 -13 275.274 19.3559   4
   3  -6  13 337.444 18.8807   5
   3   3 -13 278.911 19.4013   6
   6  -3  13 299.947 18.5993  11
  -6   3  13 343.944 24.3483   3
  -3  -3 -13 323.473 21.4048  12
   6  -3 -13 342.785 19.3898  11
  -3   6  13 311.229 14.3913  11
   6  -3  13 309.328 20.9202   8
  -6   3 -13 264.248 21.2457  11
  -3   6 -13 339.466 25.2900   3
   3  -6 -13 296.776 18.0934   9
  -3   6  13 324.861 26.0003   3
  -3  -3 -13 301.269 16.3207   7
   6  -3  13 356.186 23.9674   2
  -6   2  13 165.161 14.3297   7
   6  -4 -13 155.346 18.7755   2
   6  -2  13 173.322 17.3417   8
  -4  -2 -13 142.564 15.3367  12
   4   2 -13 124.260 14.9213   2
  -4  -2 -13 132.807 15.9066   4
  -2   6 -13 153.378 18.1226   3
   4   2 -13 171.384 17.6191   6
  -6   2  13 141.735 18.7704   3
  -6   4 -13 154.046 13.8824   7
  -6   4 -13 158.452 19.5538   3
   2   4  13 180.544 17.3707   2
   2   4  13 132.379 14.0753   8
  -4  -2 -13 142.619 13.7453   7
   4  -6  13 133.546 14.5773   9
   6  -4 -13 129.666 13.5416   9
   6  -4 -13 133.123 15.8238  11
   6  -2  13 123.796 16.2848   2
  -2   6 -13 161.171 18.2985  10
  -4   6  13 142.728 12.3195  11
  -4   6  13 139.594 16.4293  10
  -2  -4  13 125.667 13.4072   7
  -2  -4  13 131.074 15.9669  12
   6  -2  13 149.502 14.9452  11
   2  -6 -13 134.599 14.5546   4
   2  -6 -13 136.145 15.0953   9
  -6   4 -13 148.752 17.7469  11
  -4   6  13 150.622 18.8131   3
  -2   6  13 118.383 14.0302   8
  -2  -4 -13 160.855 17.6765  12
   2  -6  13 153.650 16.0780   9
  -4   6 -13 133.863 16.0158  10
  -6   4  13 161.631 17.0040  11
   2  -6  13 125.898 14.1239   5
  -6   2 -13 154.089 16.6810  11
  -4   6 -13 152.687 18.4443  11
  -2   6  13 120.560 16.3635  10
   6  -4  13 174.841 19.8234   2
   4   2  13 129.723 10.5976  11
  -4   6 -13 127.283 18.4480   3
  -2  -4 -13 133.525 15.2159   4
   4  -6 -13 142.519 14.3852   9
  -6   2 -13 153.925 15.1373   7
   6  -4  13 150.778 16.2516  11
   4  -6 -13 141.804 14.1794   4
   4   2  13 143.036 15.9496   8
   6  -2 -13 115.339 13.7977  11
   2   4 -13 146.805 16.9295   6
  -6   4  13 140.102 18.8156   3
   4   2  13 155.073 16.4939   2
   6  -2 -13 145.729 17.2200   6
  -4  -2  13 130.469 15.5974  12
   6  -2 -13 136.102 16.1320   2
  -4  -2  13 117.223 13.0299   7
   6  -5 -13 57.8215 13.1789   2
   5   1 -13 71.6823 13.2531   6
  -6   1  13 75.0353 11.0870   7
  -1  -5  13 47.0104 12.4091   5
  -1  -5  13 81.3805 13.4173   9
   6  -5 -13 41.9168 11.8253  11
   5   1 -13 76.7726 11.3745  11
  -6   5 -13 38.4208 10.2955  11
   5  -6  13 91.8972 11.5051   9
   1   5  13 81.6232 12.8680   2
   1  -6 -13 70.0527 12.2146   4
   5   1 -13 71.3359 15.4035   2
  -5   6  13 33.5637 15.2833   3
  -6   5 -13 81.1026 14.8307  10
  -5   6  13 53.0326 14.0691  10
  -5   6  13 74.2084 10.5048  11
   1  -6 -13 57.8741 11.6112   9
  -6   5 -13 78.8788 17.8671   3
  -1  -5  13 43.1961 11.9799  12
  -1  -5  13 70.0708 10.8294   7
   6  -1  13 69.5271 13.3934   8
  -5  -1 -13 79.3592 10.8762   7
  -1   6 -13 61.8654 14.5607  10
   6  -5 -13 73.7820 10.7762   9
  -1  -5  13 52.0432 13.7948   4
   6  -1  13 61.0157 9.90176  11
   1   5  13 74.6369 13.0379   8
  -5  -1 -13 72.0411 12.5764  12
   6  -1  13 50.5247 14.1393   2
  -5   6 -13 73.5404 14.0954  10
   5   1  13 71.9830 14.7289   2
   6  -5  13 52.8260 14.7197   2
  -5  -1  13 59.8031 12.1862  12
  -6   5  13 66.2491 11.2259  11
   6  -1 -13 51.8449 9.77114  11
   6  -1 -13 56.1285 15.0739   2
   5   1  13 66.8095 9.40269  11
  -5   6 -13 30.4146 15.7774   3
  -6   1 -13 66.6092 11.6730   7
   6  -5  13 76.7461 10.1261   9
   5  -6 -13 73.0597 11.4569   9
   1  -6  13 71.2107 12.7958   9
  -1   6  13 57.3328 12.9789   8
  -1   6  13 73.8313 14.4635  10
  -1  -5 -13 57.5733 11.6053   9
   1  -6  13 63.4651 12.1690   5
   6  -1 -13 53.7707 12.6814   6
  -5  -1  13 59.9708 11.1246   7
  -6   5  13 60.1512 17.3682   3
  -6   5  13 88.1222 16.6444  10
  -1  -5 -13 35.9947 10.8983   4
  -1  -5 -13 74.5400 12.0776  12
   5  -6 -13 85.9417 11.2567   4
  -5   6 -13 76.2102 10.2478  11
   0   0 -14 3.16482 1.14546  11
   0   0 -14 0.90679 1.68466   6
   0   0  14 1.57056 0.79099   9
   0   0  14 1.95001 1.48885  10
   0   0  14 0.81495 0.87288  11
   0   0  14 1.52480 1.13925   8
   0   1 -14 508.757 12.7354  11
  -1   0 -14 467.063 13.8674  11
   0   1 -14 480.582 14.3774   6
  -1   1 -14 480.394 12.0767   2
   0  -1 -14 484.164 13.6533  11
   1  -1 -14 496.606 14.0638   6
   1  -1  14 483.012 13.3117  11
   0   1 -14 475.088 12.4430   8
   0   1  14 483.605 14.2593  10
   1   0 -14 481.720 14.1495   6
   0  -1  14 497.393 13.2168   5
  -1   0  14 537.295 12.4910   8
   1  -1 -14 449.796 13.7328   2
   1   0 -14 471.099 13.2139  11
   0  -1  14 515.730 12.6403  11
   0  -1  14 495.746 13.6179  10
   0   1  14 484.307 13.3061   3
   1  -1  14 487.155 12.8140   5
   1   0  14 487.884 13.2136   2
  -1   1  14 491.920 12.9488   8
  -1   1 -14 495.495 13.8634  11
   0  -1  14 509.769 12.7438   8
   1   0 -14 482.522 13.0531   2
   0   1 -14 477.865 12.0458   4
  -1   0  14 500.035 12.8987   7
  -1   0  14 486.223 14.6374   3
  -1   1  14 487.165 14.3465  10
  -1   1  14 481.644 13.6255  11
  -1   1  14 477.648 14.6400   3
  -1   0  14 500.040 13.3840  10
   0   1  14 490.670 13.3289  11
  -1   1 -14 496.149 15.6009   6
   0   1 -14 500.475 13.0167  11
  -1   0 -14 497.680 12.3823   4
   1  -1 -14 497.082 13.7905  11
   0  -1  14 511.761 11.5524   9
   0  -1 -14 487.563 13.0118   4
   1   0  14 465.984 13.6253  10
   0  -1 -14 491.335 13.0746   9
   1  -1 -14 490.722 11.7071   7
   1  -1  14 485.394 13.8332   8
   0  -1 -14 490.551 15.3355   6
   1  -1  14 493.057 13.8993  10
   0  -1  14 479.961 13.2375   7
   0   1  14 488.832 13.7924   8
   1  -1  14 508.369 12.4963   2
   1  -1 -14 512.800 12.1925   9
  -1   0  14 498.301 13.2757  11
   2  -1  14 1749.70 41.6791  11
   1   1 -14 1854.83 40.1707  11
  -2   1 -14 1741.10 40.4666  12
  -1  -1 -14 1744.44 41.9961  12
  -1   2  14 1709.22 42.8440   3
  -1   2 -14 1762.22 40.0756  11
   1  -2  14 1861.07 40.3349  11
   2  -1  14 1775.97 39.3850   5
   1   1  14 1713.26 41.6193   2
   1  -2 -14 1701.65 40.6295   9
  -2   1 -14 1754.05 41.5889   3
   2  -1  14 1739.48 41.6318   2
  -1  -1  14 1757.70 41.1191   7
  -1  -1  14 1735.03 42.1479  12
   1  -2  14 1782.03 41.8536   8
  -1  -1 -14 1730.59 41.4660  11
   1  -2 -14 1809.99 41.7919   6
   2  -1 -14 1758.23 41.7476  11
  -2   1  14 1745.68 41.4696  10
  -1  -1 -14 1794.91 38.7273   3
  -1  -1 -14 1756.71 40.9824   4
   1   1 -14 1759.55 39.8563   2
   1   1  14 1741.23 40.8019  11
  -1  -1  14 1743.76 40.6959   5
   1   1 -14 1672.16 39.7694  11
   1  -2 -14 1744.59 41.3344  11
  -1   2  14 1724.83 42.9336  10
   2  -1 -14 1738.02 42.7720   2
   1  -2  14 1836.60 39.1981   2
   1   1  14 1702.96 41.4254  10
  -1  -1 -14 1730.02 44.6020   6
   1  -2  14 1826.01 38.4287   4
   1   1 -14 1695.09 42.1119   6
  -2   1 -14 1759.29 42.6714  11
  -1   2 -14 1797.18 39.0849   2
   1  -2  14 1788.04 40.2033   9
   1  -2 -14 1757.61 41.5183   4
  -1   2 -14 1770.79 42.7290   6
  -1   2  14 1762.46 41.2872  11
   1   1  14 1700.53 42.0759   8
   1  -2  14 1662.16 40.8313   5
  -2   1  14 1674.79 43.5308   3
  -2   1  14 1763.72 42.0153  11
  -2   1 -14 1734.78 44.8294   6
   2  -1  14 1702.19 42.4002   8
  -1   2  14 1731.37 41.7505   8
  -2   1  14 1794.23 39.8261   7
   2  -1 -14 1727.63 41.5666   6
  -1   2 -14 1768.50 40.9370  11
  -2   0  14 2093.56 47.5146  11
  -2   2 -14 2031.53 48.6724  11
   0   2 -14 2127.42 45.0610  11
   2   0 -14 1938.46 47.9610   2
  -2   2 -14 2041.97 50.1059   6
   0   2 -14 1987.90 45.2945  11
   2   0  14 2046.68 48.9208   8
   2   0  14 2020.19 48.4425   2
   2  -2  14 2071.71 47.6655   2
   0  -2 -14 2093.20 47.2662  11
   2   0  14 2031.40 46.8983  10
   0   2  14 2095.40 47.0002   3
   0   2  14 1971.51 48.4180   8
   0   2  14 1979.63 48.7500  10
   0   2  14 2006.57 46.6793  11
   2  -2  14 2000.95 48.9977   8
  -2   0 -14 1955.60 51.9862   6
  -2   0 -14 2105.25 46.0421   3
  -2   0  14 2052.72 46.4995   5
  -2   0  14 2039.56 49.4806   3
  -2   2 -14 1989.83 49.0335   3
   2  -2  14 1971.22 46.6487   5
  -2   0 -14 1991.24 47.8031  12
   2   0 -14 2002.48 47.2005  11
   0   2 -14 2089.19 44.5434   2
  -2   0  14 2064.03 45.9838  10
   0  -2  14 2009.36 46.3345   4
   2  -2 -14 1856.72 49.1643   2
  -2   0  14 1995.37 46.9221   7
   2  -2 -14 2033.76 46.5558   9
  -2   0 -14 2000.10 48.6129  11
   0  -2 -14 1995.68 47.8010   9
  -2   2  14 2006.58 48.3282  11
   2   0  14 1968.55 47.5723  11
  -2   2  14 2020.64 50.8326   3
  -2   2  14 2124.93 44.2588   7
  -2   2  14 2060.24 49.2827  10
   0  -2 -14 1953.49 47.4539   4
   2  -2 -14 2058.62 47.1946   6
   0  -2 -14 2010.95 48.0175  12
   0  -2 -14 2102.48 49.1876   6
   2   0  14 2123.26 44.5956   5
  -2   0 -14 2081.84 47.0040   4
   2   0 -14 2045.90 48.5925   6
   2  -2 -14 2023.98 48.1350  11
   0  -2 -14 2141.90 45.2220   7
   0  -2  14 1973.87 47.3316   7
   0  -2  14 1962.79 47.3124   5
   2  -2  14 1965.88 47.3918  11
   0   2 -14 2098.51 44.8158   2
   0   2 -14 2015.53 48.3897   6
   0  -2  14 2030.39 45.9917   9
  -2   3  14 759.849 23.8073  10
  -1   3 -14 829.270 19.1171  11
   1   2  14 789.595 20.3525  11
  -1  -2  14 777.166 20.7346   9
   3  -1  14 785.969 23.2187   2
   3  -1  14 823.296 17.8441   5
   2   1 -14 768.285 20.7041  11
  -2  -1 -14 766.647 22.4494  12
  -1   3 -14 767.871 22.2041   6
  -1   3 -14 747.744 19.5836  11
  -1   3 -14 763.323 23.1265   3
  -2  -1 -14 748.656 20.9862   7
  -1  -2  14 779.768 22.5990  12
   3  -2 -14 756.693 22.3473  11
   1   2  14 774.439 22.7327   8
   1   2  14 783.918 22.0351  10
   3  -2 -14 747.201 21.1956   6
   3  -2 -14 751.964 20.5229   9
  -2  -1 -14 762.851 25.8926   6
  -1  -2  14 799.612 18.1101  11
   2  -3  14 746.390 21.5015   9
   2  -3  14 799.303 20.9618  11
  -2  -1 -14 796.372 22.1894  11
   3  -1  14 768.691 23.1705   8
   3  -1  14 785.256 22.2047  11
   1  -3 -14 769.012 21.9265   4
   2   1 -14 787.187 22.8384   6
  -3   1  14 802.358 22.7557  11
   2   1 -14 766.996 19.8335  11
   3  -2 -14 772.482 24.1976   2
   1  -3 -14 791.046 21.1710  11
   1  -3 -14 774.977 21.6829   9
  -3   2 -14 764.454 23.3088  11
  -3   2 -14 793.931 19.4163  12
   1   2  14 761.059 22.3868   2
  -3   1  14 772.928 20.6575   7
  -2   3  14 763.094 21.8173  11
  -2   3  14 750.710 24.7532   3
   2   1 -14 776.216 21.3779   2
  -2  -1 -14 765.767 21.7035   4
  -3   1  14 768.661 20.4030  10
  -1  -2  14 747.430 21.1195   5
   2  -3  14 798.576 18.2663   4
   1   2  14 718.240 20.2235  11
   2  -3  14 788.968 21.6072   5
   2  -3  14 803.814 22.3277   2
  -1  -2  14 775.564 21.5321   7
   1  -3 -14 784.883 21.2440  12
  -3   1  14 754.596 24.4027   3
   1  -3 -14 795.044 19.8598   6
  -3   1 -14 627.618 22.1389   6
  -3   1 -14 549.337 23.3621  11
  -1  -2 -14 615.832 18.2749   4
  -1  -2 -14 600.937 16.6000   7
  -1  -2 -14 605.467 19.1761   9
  -1   3  14 612.485 19.1243   8
  -3   1 -14 610.239 17.2919  12
   3  -2  14 572.811 19.6233   2
   2  -3 -14 589.986 17.9727  11
   2   1  14 616.080 17.4161  11
  -3   2  14 623.303 22.1067   3
   3  -1 -14 593.815 18.6663   6
  -1  -2 -14 606.799 20.5599   6
  -3   1 -14 595.417 18.5222   3
  -2   3 -14 600.093 19.2054   6
   1   2 -14 623.559 15.1088   8
  -2   3 -14 582.268 17.7903  11
  -3   2  14 631.375 19.4792  11
   2   1  14 597.899 16.8729  10
  -2  -1  14 578.547 19.0383  12
   3  -2  14 600.778 19.6466   8
  -3   2  14 603.688 19.1314   7
   2  -3 -14 602.377 18.4684   4
  -1  -2 -14 590.328 17.3771  11
   2  -3 -14 593.930 17.5864   9
   3  -1 -14 613.014 18.4222  11
  -2   3 -14 623.523 20.6222   3
   1   2 -14 609.320 18.7867   6
   1   2 -14 617.177 16.4632   2
  -2  -1  14 644.071 16.6365  11
   2   1  14 600.033 19.0391   2
   3  -2  14 561.336 20.5728  11
   1  -3  14 600.644 17.2133   9
  -3   2  14 602.686 18.6516  10
  -1   3  14 618.673 20.2342  10
   3  -1 -14 589.587 19.8803   2
   2   1  14 590.953 18.9360   8
  -1   3  14 580.265 16.9469  11
   1  -3  14 616.029 15.9710   4
   1  -3  14 591.508 17.9806   5
   1  -3  14 651.050 15.9336  11
  -2  -1  14 603.555 17.7917   7
   2  -3 -14 638.322 16.1411   6
  -1  -2 -14 598.282 18.8182  12
  -2  -1  14 613.599 16.7966   5
   3  -2  14 593.137 16.0638   5
  -1   3  14 610.388 19.7117   3
   2   1  14 708.029 16.0879   5
  -3   0 -14 857.483 20.3656   3
   3   0  14 803.141 24.5071   2
   3   0 -14 847.854 24.9931   2
   3   0  14 811.871 23.1871  11
  -3   0 -14 804.392 22.9553   4
   0  -3 -14 811.845 23.5969  12
  -3   0 -14 804.933 28.1232   6
  -3   3  14 818.678 27.6137   3
  -3   3 -14 816.681 25.0541   6
   0   3  14 821.136 24.4791   8
  -3   0  14 810.239 21.1381   5
   0   3  14 810.258 21.0824  11
   0  -3  14 813.337 23.2689  12
   0  -3 -14 821.372 20.1887   7
  -3   3 -14 853.966 26.3919   3
   3   0 -14 836.355 22.7060  11
  -3   0 -14 784.822 23.1825   7
   0  -3 -14 815.701 23.5120   4
   0  -3  14 804.198 22.6956   7
   3  -3 -14 838.021 26.3084   2
   3  -3 -14 853.886 21.8995   6
  -3   3 -14 798.741 24.4431  11
   0   3 -14 818.146 23.6559   6
  -3   3  14 799.485 25.1161  10
   0   3  14 833.616 22.3594   3
   3  -3  14 789.191 24.2999   2
   0   3 -14 830.297 20.5224   2
  -3   0 -14 811.842 24.4979  11
   3  -3  14 827.298 19.4095   4
   0  -3  14 741.193 23.6818   9
   0  -3  14 798.457 22.2287   4
   0   3  14 786.125 24.5461  10
   0  -3  14 811.262 23.1036   5
  -3   0 -14 821.829 23.6254  12
   3  -3  14 836.604 22.4720   5
  -3   0  14 807.955 22.6706   7
   0  -3 -14 842.159 22.0307  11
   3  -3  14 804.918 23.2309  11
  -3   0  14 809.854 24.2704  12
   3  -3 -14 796.765 23.9364  11
  -3   0  14 842.084 23.2148  11
   3  -3  14 811.681 25.1296   8
   3   0  14 816.686 24.4736   8
  -3   3  14 814.152 24.3120  11
   0  -3 -14 799.617 23.9765   9
   3  -3 -14 809.318 22.5587   9
  -3   0  14 788.842 24.7120   3
   2  -4 -14 2019.41 51.0773   9
   2  -4 -14 2025.31 48.2345  12
  -4   2 -14 2035.69 55.1362   6
  -2   4  14 2084.74 54.3210  10
   2   2  14 2020.47 48.5178  11
   4  -2  14 2037.59 52.9951   8
   4  -2  14 2039.17 51.6916  11
   2   2  14 2035.84 52.4305   2
   2  -4  14 2056.46 47.1426   4
  -2   4 -14 2055.59 54.4204   3
  -2   4  14 2063.95 54.6008   3
  -4   2 -14 2084.49 48.0958  12
  -4   2  14 2093.66 55.5771   3
   2   2 -14 2070.70 51.9778   6
  -2  -2  14 2052.11 49.1663   5
  -2  -2  14 2000.47 50.3443   7
   4  -2 -14 2003.41 51.8782  11
   2   2  14 2043.79 48.9681  10
  -2  -2  14 2015.14 52.2042  12
   2  -4  14 2044.37 50.3866   9
   4  -2 -14 2011.57 54.0420   2
  -4   2 -14 2054.03 53.5656   3
  -2   4  14 2087.81 49.8789  11
  -2   4 -14 2064.27 48.6981  11
  -4   2  14 2046.19 50.0282  10
  -4   2  14 2018.15 52.5906  11
   2  -4 -14 2088.27 50.2034  11
   2  -4  14 2051.74 51.1740   5
  -2  -2 -14 1996.11 52.0405  12
  -4   2  14 2071.27 48.6501   7
   4  -2 -14 2057.93 51.0203   6
   2  -4 -14 2014.73 51.3727   4
  -4   2 -14 2088.91 53.7379  11
   4  -2  14 2074.27 53.5837   2
   2   2  14 2038.81 52.1587   8
  -2  -2 -14 2052.11 51.5020   4
  -2   4 -14 2074.11 50.0950   6
   2   2 -14 2040.65 50.1355   2
  -2  -2 -14 2064.51 49.5598   7
   3  -4  14 233.360 10.9690  11
   1  -4 -14 226.231 11.5389   9
  -4   1  14 251.957 14.4666   3
  -3  -1 -14 244.647 11.9912   4
  -4   1  14 240.140 10.9049   7
  -3   4  14 241.853 15.9698   3
  -1  -3  14 237.271 11.1235   5
  -3   4  14 228.670 11.4703  11
   1   3  14 240.507 12.7113   8
   4  -3 -14 240.941 12.7123  11
   1   3  14 240.586 8.84828  11
   3   1 -14 248.629 12.7471   6
   3  -4  14 234.273 12.6900   2
   1  -4 -14 240.768 11.3173  12
  -1  -3  14 233.838 12.4700  12
   3   1 -14 235.853 9.39371  11
   3   1 -14 257.873 12.7627   2
   3  -4  14 243.141 11.5279   9
   4  -3 -14 236.212 10.6232   9
  -1   4 -14 230.579 11.4664   6
   3  -4  14 239.931 11.4159   5
  -4   3 -14 253.612 15.8377   3
  -1  -3  14 227.207 12.0123   4
  -3   4  14 233.165 14.0044  10
   4  -3 -14 211.383 13.8733   2
  -4   3 -14 235.562 14.2926   6
  -3  -1 -14 227.337 11.2665   7
  -1  -3  14 229.034 11.5245   9
  -4   1  14 240.244 12.8408  11
  -3  -1 -14 219.550 12.3533  11
  -4   3 -14 227.843 13.3480  11
  -1  -3  14 236.324 11.1747   7
   1  -4 -14 223.774 11.8373   4
   1   3  14 233.239 12.2073   2
   4  -1  14 225.063 12.5179   8
   1   3  14 223.682 11.9885  10
   4  -1  14 245.954 13.7115   2
  -3  -1 -14 231.793 12.0909  12
   4  -1  14 242.925 11.8162  11
  -4   1  14 233.477 9.63423   5
  -1   4 -14 245.506 13.5118   3
  -3   4 -14 239.395 12.0399   6
  -1   4  14 244.947 12.8354   8
   1   3 -14 244.980 10.1501   2
   4  -3  14 223.689 13.0615   8
  -4   1 -14 245.399 11.1913  12
   3   1  14 224.443 10.4734  11
  -3  -1  14 239.854 12.8646  12
  -4   1 -14 250.379 13.0754   3
  -3   4 -14 241.941 11.8024  11
   3  -4 -14 230.812 12.1394  11
  -1  -3 -14 242.938 12.8248   9
   4  -3  14 237.944 12.1653  11
  -3   4 -14 214.180 14.0813   3
   1  -4  14 239.038 11.8382   5
  -1   4  14 211.754 13.1236   3
  -4   3  14 246.975 13.6203  10
  -4   3  14 234.749 8.68057   7
   3  -4 -14 247.407 11.3490   9
   4  -1 -14 226.631 11.3744  11
   4  -3  14 245.010 14.1724   2
   3   1  14 242.604 11.1155  10
  -3  -1  14 226.260 11.0129   7
  -1  -3 -14 240.060 12.1908  12
  -4   1 -14 254.180 13.8053  11
   1  -4  14 232.140 11.0932   9
  -1  -3 -14 221.564 9.60730   7
  -4   1 -14 244.783 11.6094   7
  -4   3  14 239.740 13.0457  11
  -1   4  14 238.254 13.7275  10
   3  -4 -14 243.717 9.54754  12
   4  -1 -14 214.830 13.7821   2
   3   1  14 235.784 13.0751   2
   3  -4 -14 249.230 11.9871   4
   1   3 -14 226.639 12.1562   6
  -1  -3 -14 227.789 11.7279   4
   1   3 -14 234.320 9.08973   8
  -3  -1  14 244.662 12.2500   5
   3   1  14 231.045 12.2809   8
   4  -3  14 212.494 11.3844   5
  -4   3  14 239.758 16.0593   3
   4   0  14 80.5726 8.22846  11
  -4   4 -14 91.9277 11.2294   6
   4  -4 -14 70.7618 8.32650  11
   4  -4  14 71.6621 8.57909   5
   0  -4 -14 70.8332 8.62373   4
   0   4  14 74.7493 5.32470  11
   4   0 -14 80.1863 7.71463  11
   4  -4 -14 74.8149 7.86684   9
  -4   4 -14 93.0610 9.92299  11
  -4   4  14 93.5397 12.4704   3
   0  -4  14 66.5397 7.87029   4
   0   4 -14 87.1047 9.46437   6
   0   4  14 68.6472 9.39705  10
   4  -4  14 53.8354 8.62989   2
   0  -4  14 54.2469 7.36355   5
   0  -4  14 69.7978 9.15732  12
   0  -4  14 78.3492 8.35122   7
  -4   0  14 76.3549 9.41596  12
  -4   0  14 84.2154 8.17042   7
   4   0  14 63.1027 8.56949   2
   0   4 -14 88.2016 8.15385   8
  -4   0  14 89.3274 9.91821   3
  -4   0 -14 78.9999 9.63074  11
   0  -4  14 87.4189 8.55910   9
  -4   4 -14 84.8546 11.4625   3
  -4   4  14 72.2325 8.33037  11
   0   4 -14 77.2923 9.03022   3
   4   0 -14 98.9456 11.3761   2
  -4   0 -14 65.9392 7.97795   7
   4   0  14 78.6625 9.62566   8
  -4   4  14 84.2290 10.6893  10
   4  -4  14 78.5087 9.57655  11
  -4   0 -14 68.1186 7.89945  12
   0   4  14 85.8463 9.85100   8
   0  -4 -14 90.8651 9.36293  12
   4  -4  14 96.9086 8.49214   9
   4  -4 -14 97.8324 10.9876   2
   0  -4 -14 82.9948 9.23424   9
   0   4 -14 76.8330 8.63379  10
   2   3  14 205.660 14.4323   8
   2   3  14 215.004 9.01996  11
  -5   3 -14 220.694 15.8401  11
   2  -5 -14 216.160 14.1028   4
   5  -2  14 198.293 14.9321   8
   2   3  14 188.415 13.6063   2
  -2  -3  14 181.917 12.1236   5
   3   2 -14 198.749 14.3327   6
  -3   5  14 213.263 11.5531  11
   5  -3 -14 208.630 11.8244   9
   5  -2  14 232.933 16.7796   2
   5  -3 -14 211.604 14.1483  11
  -3  -2 -14 221.309 13.9404   4
  -5   2  14 218.648 18.3884   3
  -5   2  14 223.940 11.8734   7
  -3   5  14 230.820 17.9851   3
  -2  -3  14 209.060 12.3822   7
  -3  -2 -14 193.300 11.8760   7
   3  -5  14 239.666 13.4874   9
  -2   5 -14 191.431 15.0375  10
   3  -5  14 206.505 12.9136   5
  -2   5 -14 206.395 16.7220   3
   5  -2  14 217.840 13.5246  11
  -5   3 -14 228.413 18.2388   3
  -2  -3  14 235.399 14.7401  12
   2  -5 -14 212.775 13.0639   9
   3   2 -14 225.181 14.2807   2
   5  -3 -14 219.789 14.1512   6
  -5   2  14 221.453 15.7235  11
  -3   5  14 198.424 16.0184  10
  -3  -2 -14 240.499 14.6080  12
   5  -3 -14 196.920 16.7759   2
  -5   2 -14 208.033 12.6760   7
  -2   5  14 184.400 16.9935   3
   3   2  14 197.065 14.4952   2
   3  -5 -14 170.236 12.3853   4
   3   2  14 189.664 10.1535  11
   5  -3  14 216.879 13.9614  11
  -3  -2  14 186.441 12.7684   5
  -5   3  14 219.855 10.5617   7
  -5   3  14 204.105 15.6091  10
  -5   3  14 189.927 14.6035  11
   2   3 -14 207.102 12.7102   2
   5  -2 -14 188.267 14.1379   6
  -3  -2  14 182.248 13.7246  12
   5  -2 -14 219.947 16.1500   2
   2  -5  14 188.534 12.8152   9
   3   2  14 205.071 13.1771   8
  -5   3  14 190.343 18.0331   3
   3  -5 -14 212.318 12.7708   9
  -3   5 -14 198.314 16.6168   3
   2   3 -14 204.423 13.5683   6
  -3  -2  14 202.586 12.1408   7
  -2  -3 -14 220.339 11.5581   7
  -2  -3 -14 213.517 13.1874   4
  -2   5  14 214.421 16.3487  10
  -5   2 -14 192.453 15.6455  11
  -2  -3 -14 204.926 14.0693  12
  -5   2 -14 217.320 18.8740   3
   5  -3  14 197.662 14.1628   8
  -3   5 -14 201.354 10.9424  11
  -2   5  14 194.066 10.1467  11
   5  -3  14 234.831 16.5918   2
   5  -2 -14 191.844 12.8015  11
  -2   5  14 193.456 13.7959   8
   2  -5  14 199.098 11.9570   5
  -4   5  14 212.276 17.5047  10
   5  -1  14 202.872 16.9490   2
   4   1 -14 193.493 16.5676   2
  -4   5  14 180.506 12.8774  11
   4   1 -14 205.790 10.1669  11
   1  -5 -14 214.276 13.4736  12
  -5   1  14 173.791 17.2199   3
  -5   1  14 221.839 12.7243   7
   5  -1  14 206.708 13.2074  11
  -1   5 -14 190.035 16.0790   3
   1   4  14 160.574 17.0240   2
   1   4  14 194.963 15.1871   8
   5  -4 -14 192.936 14.9643  11
  -1  -4  14 218.277 13.3809   5
  -4   5  14 160.030 18.4421   3
  -4  -1 -14 145.569 17.5757  12
   1  -5 -14 176.480 13.2200   9
  -5   4 -14 193.865 14.7941  11
  -1  -4  14 210.828 15.0286   4
   4  -5  14 200.059 13.1257   5
   1   4  14 213.309 14.5886  10
  -1  -4  14 195.383 12.7383   7
   5  -1  14 185.934 15.3537   8
   5  -4 -14 183.581 12.2756   9
  -1   5 -14 190.449 15.4198  10
   1  -5 -14 181.182 14.0141   4
  -5   4 -14 188.389 18.2420   3
  -4  -1 -14 182.701 13.1097   7
  -1  -4  14 202.706 14.4384  12
   4  -5  14 184.441 17.3059   9
  -1  -4  14 193.238 14.1605   9
   4  -5  14 194.377 16.1988   2
   4   1 -14 219.834 15.2500   6
   5  -4 -14 213.218 17.1344   2
  -5   4  14 244.920 15.9510  11
  -5   4  14 222.238 17.9302  10
  -4   5 -14 228.441 18.5891   3
  -1   5  14 227.548 8.98274  11
   5  -4  14 206.802 16.8242   2
   5  -4  14 210.015 15.2863   8
  -1   5  14 185.138 16.4518  10
  -1  -4 -14 216.195 15.3283   9
  -1   5  14 200.672 15.3956   8
   4  -5 -14 223.818 14.8443   4
   1  -5  14 222.277 14.1801   5
   5  -1 -14 219.729 17.4067   2
   4   1  14 222.803 14.5533   8
   1  -5  14 224.115 14.7102   4
   1  -5  14 245.342 14.5415   9
   5  -4  14 221.319 13.2238   9
   5  -1 -14 200.723 12.9522  11
   1   4 -14 216.449 14.4813   3
  -5   1 -14 228.476 13.7008   7
  -5   4  14 210.462 20.2479   3
   5  -4  14 229.910 14.8550  11
   1   4 -14 226.372 14.1880   6
  -5   1 -14 207.778 17.2454  11
  -5   1 -14 237.736 14.1475  12
  -1  -4 -14 191.734 13.6454   4
   4   1  14 217.081 12.3364  11
  -4  -1  14 219.684 13.2966   7
  -1  -4 -14 228.682 18.8668  12
  -4  -1  14 223.956 14.8466  12
   4   1  14 210.741 16.1032   2
   5   0 -14 528.496 26.2665   2
  -5   5 -14 491.295 22.7373  11
   5  -5 -14 495.609 20.5088   4
   0  -5 -14 504.812 23.4744   9
  -5   5  14 516.377 22.8245  11
  -5   5 -14 541.997 25.9761  10
   0  -5  14 550.417 22.7252   5
   5  -5 -14 528.887 21.0644   9
   0   5  14 525.668 23.1268   2
   5  -5  14 536.560 21.4469   9
   5  -5 -14 513.596 25.9863   2
   0  -5 -14 522.379 23.2324   4
   0  -5 -14 507.366 23.0732  12
  -5   5 -14 509.420 28.9170   3
   0  -5  14 551.961 22.7821   4
  -5   0 -14 515.891 23.4477  12
   5   0  14 528.797 21.1234  11
   5   0 -14 505.298 19.9329  11
   0   5 -14 585.904 24.7464   3
   5   0 -14 528.892 24.4172   6
   5  -5 -14 542.979 24.2855  11
   0   5  14 472.590 23.8961   8
  -5   0  14 515.515 21.4405   7
  -5   5  14 478.920 25.4858  10
   5   0  14 516.128 25.5844   2
   5   0  14 569.947 24.0339   8
  -5   5  14 485.169 28.9667   3
  -5   0 -14 502.707 22.8480   7
   0   5 -14 564.101 23.5722  10
   0  -5  14 524.443 22.7936   9
  -3   6  14 52.6378 13.2954  10
   6  -3  14 47.1933 12.7264   2
   6  -3  14 46.4220 11.4489   8
   3   3 -14 45.7711 10.5684   6
  -3  -3  14 57.7360 10.5215  12
  -3  -3  14 35.7320 8.61906   7
  -3  -3 -14 47.9959 10.7807  12
  -6   3  14 60.3948 11.3293  11
   3  -6  14 43.6290 10.1346   5
   3  -6  14 44.8786 9.81221   9
   3  -6 -14 19.3690 9.19292   4
  -3  -3 -14 41.8431 8.78100   7
  -3   6  14 81.2139 16.0498   3
  -6   3 -14 60.5694 9.82097   7
   6  -3 -14 52.7304 9.73409  11
  -3   6 -14 39.4047 12.0379  10
   3   3  14 50.7448 11.3861   2
   6  -3 -14 71.6070 12.0933   6
   6  -3 -14 19.8721 11.3431   2
  -3   6 -14 68.2411 15.6053   3
  -3   6  14 71.0692 11.5167   8
  -6   3 -14 65.2193 11.7203  11
  -3  -3 -14 35.2434 10.2003   4
   3  -6 -14 45.0424 9.43107   9
   3   3  14 44.9433 10.8725   8
   6  -3 -14 51.8475 8.62455   9
  -6   3  14 49.7651 14.7845   3
  -3   6  14 52.7574 7.56932  11
   6  -3  14 39.2123 9.28239  11
  -6   2  14 161.299 14.4174   7
   2  -6 -14 153.604 15.9909   9
   6  -4 -14 170.152 16.9901  11
  -4   6  14 183.716 20.4974  10
  -4   6  14 160.844 12.9930  11
  -4  -2 -14 177.190 14.6599   7
   6  -2  14 165.029 15.4214  11
  -2   6 -14 189.085 20.1165  10
  -2  -4  14 179.132 15.3819   7
   6  -4 -14 179.044 13.7548   9
  -2  -4  14 159.503 17.0771  12
  -6   4 -14 176.597 14.6144   7
   6  -2  14 165.590 19.9995   2
   6  -2  14 180.107 19.6800   8
   4   2 -14 145.514 17.1486   6
   2   4  14 180.935 18.6095   8
   2   4  14 165.985 17.1538   2
  -2   6 -14 183.047 19.6845   3
  -6   4 -14 173.488 21.0025   3
   2  -6 -14 185.599 16.1637   4
  -6   2  14 200.919 23.3341   3
  -4  -2 -14 161.160 16.5928   4
  -4   6  14 170.273 20.3863   3
   6  -4 -14 161.222 17.5764   2
  -6   4 -14 153.412 18.0517  11
  -4  -2 -14 196.023 17.8960  12
   4  -6  14 198.571 16.2530   9
   4   2  14 150.014 18.0646   2
   2   4 -14 165.675 17.0163   6
  -6   2 -14 155.513 20.6960  11
  -6   4  14 135.971 17.0711  11
   6  -4  14 137.292 17.2471   8
   4  -6 -14 147.338 14.5413   9
  -2  -4 -14 181.711 16.9130  12
  -4   6 -14 158.839 14.9606  11
  -4  -2  14 142.007 15.8068  12
   6  -2 -14 134.362 14.3647  11
  -4   6 -14 177.111 22.1124   3
   6  -2 -14 174.778 16.7430   6
   6  -4  14 168.873 16.5706  11
  -6   4  14 129.686 18.1226   3
   2  -6  14 165.569 16.5314   9
   2  -6  14 142.881 14.9871   5
   4   2  14 175.233 17.0357   8
   6  -2 -14 173.895 21.2294   2
  -6   2 -14 182.664 15.6715   7
  -2  -4 -14 124.962 13.7628   4
  -4  -2  14 151.551 14.4627   7
  -4   6 -14 144.246 17.5371  10
   4   2  14 152.119 11.2161  11
   4  -6 -14 169.240 14.2867   4
  -2   6  14 153.785 18.0069  10
   6  -4  14 155.495 17.6213   2
  -2   6  14 160.096 16.5401   8
  -6   1  14 82.2287 11.6059   7
  -1  -5  14 82.0360 11.2034   7
   6  -1  14 66.5491 14.5879   2
   1   5  14 95.5875 14.0844   8
  -6   5 -14 70.6625 14.6043  10
  -5  -1 -14 83.9948 11.7872   7
   6  -5 -14 95.1672 13.9320  11
  -6   5 -14 54.0919 17.2908   3
  -1   6 -14 79.6342 14.5883  10
   1  -6 -14 93.4535 13.6525   4
   5   1 -14 71.8928 15.4060   2
  -1  -5  14 104.191 14.5911  12
   1   5  14 85.9716 13.4390   2
   6  -5 -14 80.5943 10.5952   9
   6  -5 -14 75.1025 14.4072   2
  -5  -1 -14 83.3971 13.1737  12
   1  -6 -14 79.7539 12.0881   9
  -5   6  14 77.4995 10.7704  11
   5   1 -14 78.3167 12.6269   6
  -1   6 -14 118.324 17.2569   3
  -5   6  14 90.6277 15.8231  10
  -5   6  14 45.1898 16.1965   3
   6  -1  14 88.8978 14.1640   8
   6  -1  14 84.1775 10.9893  11
  -1  -5  14 77.7965 13.1360   5
   5  -6  14 80.8586 11.0512   9
  -6   5 -14 74.5836 11.9214  11
   6  -1 -14 87.9315 16.8716   2
  -1  -5 -14 114.263 14.2039  12
  -5   6 -14 99.4131 15.5380  10
  -6   5  14 107.077 13.5882  11
   6  -1 -14 90.7286 13.7893   6
   5  -6 -14 97.5266 12.0276   4
  -5  -1  14 100.762 12.3588   7
   1  -6  14 78.4300 13.3291   9
   6  -1 -14 84.4346 10.9561  11
  -5   6 -14 83.2868 11.2256  11
  -5  -1  14 74.3646 12.9491  12
  -6   5  14 89.4540 18.6849   3
  -1   6  14 97.6216 14.6321   8
  -1   6  14 84.0019 15.3397  10
   1  -6  14 99.4573 12.3383   5
  -1  -5 -14 81.6589 13.0925   9
  -5   6 -14 119.895 18.6486   3
  -6   5  14 108.530 17.3918  10
   5   1  14 77.4674 14.5541   2
   5  -6 -14 85.6421 11.9405   9
   5   1  14 84.1298 10.0304  11
  -1  -5 -14 82.1927 12.7252   4
   6  -5  14 116.962 13.1321   9
   6  -5  14 106.368 16.1349   2
  -6   1 -14 83.6936 12.4984   7
   0   0 -15 3.55611 1.06897  11
   0   0 -15 5.58802 1.88469   6
   0   0  15 2.35342 0.86165   9
   0   0  15 0.13881 1.47023   2
   0   0  15 1.31250 1.20661   8
   0   0  15 2.28627 1.45694  10
   0   0  15 3.24439 1.16241  11
  -1   0 -15 1317.34 34.7321   6
  -1   1  15 1317.03 30.9666   8
   1   0  15 1309.95 32.2600   8
  -1   0  15 1337.91 31.5429  10
  -1   1  15 1323.74 33.2825   3
   1  -1 -15 1310.61 29.5904   7
   1  -1 -15 1363.59 29.9849   9
  -1   1  15 1355.82 32.6943  10
  -1   0 -15 1323.83 30.2563   4
   1  -1 -15 1344.41 32.1925   2
  -1   0 -15 1347.73 32.2855  11
   0  -1  15 1337.14 30.5878  11
   1  -1  15 1343.26 30.8520   5
   1   0  15 1291.46 31.1695   2
   0   1 -15 1323.61 32.8778   6
   0   1  15 1261.47 31.3114  11
   1  -1  15 1339.38 32.0583  10
   1  -1  15 1362.75 30.3033   2
   0  -1  15 1358.69 30.6136   8
  -1   0  15 1332.99 31.3462  11
   1  -1  15 1330.23 31.4151  11
   0  -1 -15 1320.71 30.9982   9
   0  -1 -15 1368.22 32.0082  11
   0   1 -15 1275.79 30.9950  11
   0  -1  15 1374.04 29.2805   9
   0  -1 -15 1330.82 31.0218   4
  -1   1 -15 1318.76 34.1144   6
  -1   1 -15 1295.78 31.9398  11
   1  -1  15 1341.06 31.9794   8
   0  -1  15 1330.68 31.7265  10
  -1   0  15 1343.92 30.9096   7
   0   1 -15 1361.50 30.7896  11
   0   1 -15 1296.91 29.9177   4
   1   0  15 1323.97 31.5661  11
   0   1  15 1297.27 32.4795  10
   0   1  15 1336.80 31.5450   3
   1   0  15 1290.99 31.8998  10
  -1   1 -15 1315.91 29.8917   2
   0   1  15 1315.60 31.8828   8
   1   0 -15 1357.26 30.9297   2
   0  -1  15 1332.04 31.2294   5
   1   0 -15 1298.77 32.3881   6
   0  -1  15 1295.16 31.3226   7
  -1   0  15 1355.64 33.0007   3
   0  -1 -15 1325.76 33.7930   6
   1  -1 -15 1352.26 32.4322   6
   1  -1 -15 1299.64 31.8310  11
  -1   1  15 1274.51 31.7089  11
   1   0 -15 1327.18 31.4383  11
   0   1 -15 1355.20 30.8473   8
  -1   0  15 1258.96 29.5103   8
  -1   2 -15 77.4117 3.40713   2
   2  -1  15 69.6988 4.66981  11
   1  -2 -15 86.0072 5.12897   4
   2  -1  15 72.8751 4.91521   2
  -2   1  15 84.6914 6.58462   3
   1   1 -15 79.3180 4.30088  11
  -2   1 -15 88.7773 5.70624  11
   1  -2  15 71.9895 4.53759   5
   1   1  15 79.9140 5.10062  10
   2  -1 -15 71.9922 4.74380  11
   2  -1 -15 80.2738 3.77503   9
  -2   1 -15 74.4839 4.91573   3
   1  -2  15 83.0395 5.30305   8
  -1  -1  15 82.1312 4.81543   7
   1   1  15 78.9380 4.36576  11
  -1  -1 -15 85.3903 7.18231   6
  -2   1  15 80.5554 3.87619   7
  -1  -1 -15 65.3427 4.32261   4
   1  -2 -15 85.3536 5.73339   6
   1   1 -15 73.2929 4.18869   2
   1   1 -15 81.6804 5.46116   6
  -1   2  15 82.0196 6.01943  10
   1  -2  15 79.3523 4.08643   9
   1   1 -15 78.4642 3.90805  11
  -1   2 -15 67.0488 3.96350  11
  -1   2  15 77.9020 4.73598  11
  -1   2  15 72.2397 5.90210   3
  -1   2  15 69.7319 4.96481   8
   2  -1  15 65.5971 5.31817   8
   2  -1 -15 78.9921 5.17753   6
  -1  -1 -15 75.9732 5.17153  12
  -1   2 -15 74.8239 4.44191  11
  -1  -1  15 82.2014 4.56930  10
  -1  -1  15 80.7485 3.91302  11
   2  -1 -15 73.3112 5.56733   2
   1  -2  15 81.5475 4.31825  11
  -1  -1 -15 78.6041 3.80515   3
  -1  -1  15 80.7236 4.12125   2
  -2   1 -15 76.7343 4.33614  12
   1  -2  15 81.1415 3.63241   2
  -1  -1  15 79.7275 4.42946   5
  -2   1  15 78.7751 5.14092  10
   1  -2 -15 77.3635 4.37063   9
   1   1  15 86.0788 5.17637   2
  -1  -1 -15 72.7475 4.94156  11
  -1   2 -15 87.4498 6.09382   6
  -2   1  15 87.7396 5.26738  11
   1   1  15 72.9198 5.37735   8
   2  -1  15 80.1206 3.71072   5
   1  -2 -15 75.7638 4.81610  11
   2  -1  15 75.5218 4.87143  10
  -2   1 -15 75.9576 7.18394   6
   2   0  15 1521.45 32.6592   5
   0   2  15 1483.35 35.0649  11
   0   2  15 1440.14 37.0279  10
  -2   2 -15 1445.55 38.2134   6
   2   0 -15 1454.92 36.2602   2
   0   2  15 1475.58 35.0728   3
   2  -2 -15 1491.22 36.4033  11
   0  -2 -15 1507.77 33.3141   7
   0  -2  15 1445.35 35.6287   5
  -2   0  15 1504.46 35.6896  11
   0   2 -15 1536.19 32.6362   2
  -2   0  15 1462.61 37.6940   3
   0  -2  15 1413.05 35.5471   7
  -2   2 -15 1477.56 37.2658   3
   2   0  15 1481.40 35.9022  11
  -2   0  15 1519.11 34.4333  10
  -2   2  15 1450.50 39.0853   3
   0   2 -15 1459.49 36.7162   6
   0  -2 -15 1464.66 36.0113   9
   0  -2 -15 1464.63 35.4450  11
   0  -2 -15 1417.14 36.0951  12
   2  -2 -15 1471.95 34.6737   9
  -2   2  15 1440.97 37.2002  10
  -2   2 -15 1437.97 36.7498  11
   2   0 -15 1458.44 35.4248  11
   0   2 -15 1526.31 33.3770  11
   0  -2 -15 1476.48 37.3705   6
  -2   0  15 1456.55 34.7700   5
   0   2  15 1454.25 36.7528   8
   2   0  15 1441.74 35.1326  10
   2  -2  15 1530.67 35.8130   2
   0  -2  15 1477.88 34.0856   9
  -2   2  15 1574.16 32.4592   7
  -2   0 -15 1413.41 36.7728  11
  -2   0 -15 1444.58 36.0400  12
  -2   0  15 1457.03 35.1783   7
   2  -2  15 1442.22 37.1799   8
   0  -2 -15 1465.44 35.7533   4
   2  -2 -15 1508.00 35.6694   6
   2  -2  15 1483.46 35.7301  11
  -2   2  15 1439.76 36.4128  11
   2  -2 -15 1465.76 37.5775   2
   2  -2  15 1417.07 34.8097   5
  -2   0 -15 1526.17 34.1924   3
   2   0  15 1468.99 37.1671   8
   0  -2  15 1471.51 34.5874   4
   2   0  15 1464.74 36.6311   2
   2   0 -15 1430.61 36.6466   6
   0   2 -15 1443.34 33.6049  11
  -2   0 -15 1528.63 35.2247   4
  -2  -1 -15 302.549 11.0676   7
  -2  -1 -15 326.888 12.2502  11
   1   2  15 325.725 12.3791   2
   3  -2 -15 297.553 12.1636  11
  -2  -1 -15 329.801 15.3671   6
   1  -3 -15 320.208 11.2720  11
  -3   2 -15 320.330 13.1123  11
   1  -3 -15 331.797 10.6895   6
  -1  -2  15 308.876 11.3329   5
  -1  -2  15 311.524 11.3961   7
  -1  -2  15 329.879 8.61305  11
   3  -2 -15 302.302 11.3873   6
   2  -3  15 306.585 11.5007   9
  -3   1  15 301.457 12.1762  11
   3  -2 -15 321.137 13.6970   2
   1   2  15 298.733 11.8577  10
  -1  -2  15 314.825 12.3410  12
   3  -1  15 332.765 12.1403  11
  -3   1  15 312.366 10.8579  10
  -2  -1 -15 315.678 11.5822   4
   2  -3  15 332.149 11.5744   5
   2  -3  15 326.089 8.39247   4
   1   2  15 325.269 10.4448  11
  -1   3 -15 307.432 9.86460  11
  -2   3  15 316.552 14.2773   3
   3  -1  15 311.562 12.9495   2
   2  -3  15 333.489 11.0938  11
   2   1 -15 321.641 10.9741  11
   3  -2 -15 308.138 10.5579   9
   1  -3 -15 310.537 11.2698  12
  -2   3  15 327.117 11.8270  11
   3  -1  15 322.508 12.9327   8
  -2  -1 -15 313.444 12.3417  12
   2   1 -15 298.788 11.2949   2
  -3   2 -15 316.335 21.0843   6
   1   2  15 314.070 12.4183   8
   1  -3 -15 300.219 11.3794   9
  -1   3 -15 307.388 12.8855   3
   2  -3  15 317.618 13.0394   8
  -1   3 -15 329.724 9.42420  11
  -3   1  15 327.736 14.4205   3
  -3   2 -15 305.630 9.59492  12
  -2   3  15 311.190 13.4893  10
   3  -1  15 342.885 8.31619   5
  -1   3 -15 314.565 12.3454   6
   2  -3  15 329.333 11.5056   2
  -1  -2  15 310.651 10.6704   9
   1  -3 -15 299.419 11.6402   4
   2   1 -15 312.456 12.4390   6
  -3   1  15 327.592 10.9225   7
  -3   2 -15 290.641 14.8802   3
  -1  -2 -15 379.101 13.2080   4
   3  -1 -15 380.652 13.3587  11
  -2   3 -15 389.244 14.3537   6
  -2   3 -15 371.554 12.9230  11
  -2  -1  15 377.079 12.0493   5
  -3   1 -15 375.975 14.6859  11
   2  -3 -15 385.315 13.1507  11
  -3   1 -15 364.017 16.5770   6
   1   2 -15 371.398 13.5877   6
   3  -2  15 380.762 11.2852   5
   1   2 -15 369.324 9.60306  11
   3  -1 -15 355.397 13.4198   6
  -2   3 -15 374.278 15.0727   3
  -1  -2 -15 336.852 15.4530   6
  -1   3  15 371.046 14.9729  10
   3  -1 -15 378.590 14.7301   2
   1   2 -15 361.185 9.92992   8
  -3   2  15 379.988 14.1271  11
   2  -3 -15 361.483 13.3201   4
   3  -2  15 377.667 14.5383   8
  -3   2  15 357.065 16.0593   3
  -2  -1  15 368.721 14.0085  12
   2  -3 -15 371.747 12.6117   9
  -3   2  15 385.665 10.9444   7
  -3   2  15 368.769 13.7501  10
   1   2 -15 364.788 11.2193   2
  -1  -2 -15 375.789 12.6140  11
   1   2 -15 391.223 10.8221   8
   2   1  15 376.349 13.8395   8
  -1   3  15 359.882 11.9848  11
   2   1  15 369.050 12.3058  11
  -2  -1  15 391.442 11.6781  11
  -1   3  15 374.714 13.8801   8
   1  -3  15 380.265 12.2388   9
  -1  -2 -15 369.521 13.6708  12
   1   2 -15 386.057 9.90572  11
  -1  -2 -15 365.863 11.4904   7
  -1  -2 -15 376.960 13.9666   9
  -3   1 -15 371.840 12.2809  12
   1  -3  15 404.068 11.1092   4
   2  -3 -15 375.219 11.7095   6
  -2  -1  15 384.202 12.8886   7
   1  -3  15 377.876 13.1577   5
   2   1  15 360.272 12.0691  10
  -1   3  15 372.980 14.6109   3
   1  -3  15 402.452 11.0751  11
   2   1  15 367.210 13.8237   2
   3  -2  15 363.591 13.5317  11
  -3   1 -15 381.066 13.5184   3
   3  -2  15 344.600 15.7114   2
   3   0  15 157.235 8.36134  11
   0   3  15 150.874 9.19309   8
  -3   0  15 149.335 6.89589   5
  -3   0  15 153.458 8.43006  11
  -3   0 -15 143.373 9.30662  11
   3   0 -15 150.045 7.64631  11
   0   3  15 161.119 9.72509  10
  -3   3  15 157.447 9.10658  11
   3   0  15 150.257 7.02416  10
   0  -3  15 145.194 7.71902   9
   0   3  15 148.476 6.72354  11
  -3   0  15 157.608 9.24074  12
   0  -3 -15 153.143 8.78775   9
   0  -3 -15 151.371 8.59132   4
  -3   3  15 162.031 11.2417   3
   3   0 -15 160.858 9.96211   2
  -3   3  15 143.583 10.1626  10
   0  -3  15 162.070 7.99886   4
  -3   0 -15 149.898 12.2806   6
  -3   0 -15 146.751 8.13743   4
  -3   0 -15 147.267 8.58314  12
  -3   3 -15 161.071 9.43806  11
   3  -3  15 156.355 9.72124   2
   0  -3 -15 162.512 8.03290  11
   3  -3  15 152.599 9.71574   8
   3   0 -15 161.487 9.42724   6
  -3   3 -15 147.400 10.5773   6
   0   3 -15 161.481 6.45069   2
   3  -3 -15 147.069 8.04092   6
   3  -3  15 152.027 7.68149   5
  -3   0 -15 159.413 8.59967   7
   3  -3 -15 154.661 8.97545  11
   3  -3  15 156.272 5.40706   4
   0  -3  15 164.464 8.21038   7
   0  -3 -15 169.637 6.26810   7
   0  -3  15 148.862 8.72816  12
   3  -3  15 134.655 8.11447  11
   3   0  15 147.598 9.60244   2
  -3   0  15 154.379 7.93956   7
   3  -3 -15 157.599 7.86298   9
   0   3  15 153.219 8.39880   3
  -3   0 -15 153.286 6.76011   3
  -3   3 -15 157.318 10.5341   3
  -3   0  15 167.686 5.67082  10
   0  -3 -15 154.382 8.85418  12
   0  -3  15 156.477 8.35998   5
   3   0  15 148.374 9.21870   8
  -3   0  15 152.445 9.87990   3
   3  -3 -15 157.552 10.7697   2
  -2  -2  15 26.3799 4.65287   7
  -4   2 -15 18.2811 7.40082   3
   2  -4  15 23.9320 4.67909   9
   2   2  15 25.2532 4.65862  10
  -2  -2 -15 23.5930 4.49624   7
   2   2  15 26.1935 5.65203   8
   2  -4 -15 23.9278 4.18207  12
  -2  -2  15 16.2703 5.08283  12
  -2   4 -15 21.8086 6.10370   3
  -2  -2 -15 34.5244 5.71825   4
  -4   2  15 28.7897 4.24620   7
   2   2 -15 22.1010 2.82889  11
  -4   2  15 28.8946 6.29701  11
   4  -2 -15 20.4343 6.55441   2
   4  -2 -15 28.2660 5.39261   6
  -4   2 -15 14.9298 5.12754  11
  -2   4 -15 30.9728 5.75256   6
  -2  -2 -15 15.1904 4.77743  12
   2   2 -15 28.4489 5.40012   6
   2   2 -15 25.0445 5.16595   2
   2   2  15 28.3777 3.96226  11
   2  -4 -15 32.9800 5.26007  11
  -4   2  15 21.1538 6.74747   3
   2  -4 -15 23.9646 4.73920   4
   4  -2  15 31.6813 6.03541   8
   2  -4 -15 28.4946 4.97557   9
  -2   4  15 30.7880 7.20170  10
   4  -2  15 21.9115 4.79396  11
  -4   2 -15 22.0707 3.86532  12
  -4   2  15 22.6601 5.38266  10
  -2   4 -15 30.0807 4.07945  11
  -4   2 -15 28.2379 7.27865   6
   4  -2 -15 23.2798 4.76112  11
   2  -4  15 20.3115 5.14214   5
  -2  -2  15 29.6397 4.83865   5
  -2   4  15 28.9992 7.09000   3
   2   2  15 27.0597 5.62023   2
   2  -4  15 24.2348 3.57045   4
   4  -2  15 18.6784 6.21744   2
  -2   4  15 26.1083 4.21538  11
  -4   1  15 1365.29 34.5027   7
   1   3  15 1295.85 36.5484   2
  -1  -3  15 1299.27 35.3035   7
   4  -3 -15 1306.26 34.2479   9
   3   1 -15 1289.27 36.0556   2
  -4   1  15 1384.67 37.0298  11
  -1   4 -15 1317.11 37.8667   3
   1   3  15 1368.38 32.3245  11
   1   3  15 1359.38 37.2470   8
   4  -3 -15 1243.04 36.2649   6
   4  -1  15 1311.43 37.1118   8
   1  -4 -15 1237.88 35.8057   9
   3  -4  15 1274.47 35.0029   9
  -3   4  15 1297.06 35.7145  11
   3   1 -15 1367.47 37.5570   6
  -3  -1 -15 1352.84 36.5445  11
  -4   3 -15 1328.42 38.3834   6
  -4   3 -15 1330.54 38.2817  11
  -1   4 -15 1339.82 35.4119   6
  -3  -1 -15 1330.48 36.8747  12
   3  -4  15 1296.40 35.5705   2
  -3  -1 -15 1334.88 36.0256   4
   4  -3 -15 1324.18 36.8996  11
  -4   3 -15 1338.64 39.8974   3
   4  -3 -15 1341.62 39.3155   2
  -4   1  15 1298.11 38.3682   3
  -1  -3  15 1319.40 35.6391   4
   3   1 -15 1320.48 32.9137  11
   3  -4  15 1312.89 34.5637  11
  -1  -3  15 1330.02 34.8294   9
  -1  -3  15 1295.72 36.4033  12
  -4   1  15 1280.22 32.6998   5
   3  -4  15 1326.18 35.4121   5
   4  -1  15 1284.47 36.0717  11
  -3   4  15 1308.31 38.7916  10
  -1  -3  15 1323.81 35.1136   5
   1  -4 -15 1307.50 36.3675   4
   1   3  15 1326.02 35.8930  10
   1  -4 -15 1328.53 34.9003  12
  -3   4  15 1343.17 41.1332   3
  -3  -1 -15 1282.75 34.9635   7
   4  -1  15 1326.58 38.2368   2
   1   3 -15 1409.73 37.6540   6
  -4   1 -15 1379.10 36.9693   3
  -4   3  15 1391.50 38.8748  11
  -4   1 -15 1392.44 36.2745  12
   1   3 -15 1398.59 34.3155   2
  -1  -3 -15 1365.39 37.4596   4
  -1   4  15 1358.33 34.1214  11
  -3  -1  15 1403.80 38.6117  12
   1  -4  15 1371.18 37.1950   5
  -3   4 -15 1421.02 37.1830  11
  -4   1 -15 1386.53 39.4981  11
   3  -4 -15 1352.11 37.1021   4
   4  -1 -15 1382.54 38.0640   6
  -3  -1  15 1387.70 34.2722   5
   4  -3  15 1333.63 38.9340   2
  -1  -3 -15 1384.92 34.1400   7
   3   1  15 1348.50 38.7452   2
  -3   4 -15 1326.97 40.5711   3
  -1  -3 -15 1312.91 38.2851   9
   3  -4 -15 1348.52 37.1139  11
   3   1  15 1401.40 35.9303  11
   1   3 -15 1391.40 33.2004   8
   3  -4 -15 1423.23 33.0829  12
  -3   4 -15 1379.69 36.5800   6
  -3  -1  15 1347.97 36.3405   7
   4  -3  15 1401.08 34.7099   5
   4  -3  15 1367.99 37.6077  11
   4  -1 -15 1381.11 39.7758   2
   4  -1 -15 1345.00 36.8472  11
   1  -4  15 1366.79 35.9584   9
  -1  -3 -15 1389.64 38.0574  12
  -4   1 -15 1358.41 37.5153   7
  -1   4  15 1387.58 38.3511   3
  -4   3  15 1345.49 42.4577   3
  -4   3  15 1420.85 32.8567   7
  -4   3  15 1405.73 38.7501  10
   3  -4 -15 1366.58 36.6130   9
   3   1  15 1392.09 33.1907  10
  -1   4  15 1379.23 38.3011   8
  -1   4  15 1377.78 39.8301  10
   4  -3  15 1378.29 39.4660   8
   3   1  15 1384.93 38.0570   8
   1  -4  15 1248.46 35.4769   4
  -4   0  15 1902.43 50.8853   3
  -4   0 -15 1932.24 51.7902  11
   0  -4 -15 1857.81 50.6736   9
  -4   4  15 1832.81 55.7615   3
  -4   4 -15 1924.10 51.3365  11
   4   0 -15 1887.14 51.3117   6
   0   4  15 1904.80 51.3773  10
   4  -4 -15 1877.11 53.3811   2
   0  -4  15 1954.14 48.6484   4
   0  -4  15 1906.85 49.6640   5
   0  -4  15 1914.49 48.8049   7
   0  -4  15 1925.96 48.6758   9
  -4   4  15 1941.61 51.1995  11
   4   0  15 1987.68 49.6505  11
  -4   0 -15 1930.24 49.6851   7
  -4   0 -15 1917.74 50.1557  12
   4  -4  15 1985.87 51.0668   2
   4  -4  15 1987.40 48.6238   5
   4  -4  15 1915.68 49.5807  11
   4  -4 -15 1939.02 50.7045  11
  -4   0  15 1922.99 50.8646  12
   0   4  15 1907.75 44.7841  11
  -4   4 -15 1930.52 55.5032   3
   4   0  15 1936.61 51.3317   8
   0   4  15 1932.31 51.3139   8
   0  -4 -15 1896.64 50.3485   4
  -4   4  15 1956.41 52.7570  10
   0  -4 -15 1906.60 49.9300  12
   4  -4  15 1892.46 48.9502   9
   4  -4 -15 1915.27 49.0004   9
   0   4 -15 1932.42 49.6238   6
   0   4 -15 1958.06 50.8799   3
   4   0  15 1897.17 52.4253   2
   4   0 -15 1917.97 51.8768   2
   0   4 -15 1886.89 47.2167   8
  -4   4 -15 1982.55 50.4943   6
   4   0 -15 1929.79 48.3494  11
  -4   0  15 1889.80 48.7684   7
   0  -4  15 1933.46 49.4765  12
  -2  -3  15 89.5076 11.3805  12
  -3   5  15 145.064 17.1625   3
   5  -2  15 97.8546 11.4865   8
  -5   2  15 93.3419 13.2950   3
  -5   2  15 111.215 9.66409   7
   5  -3 -15 99.6864 8.96873   9
  -3   5  15 91.1317 8.95546  11
  -3  -2 -15 111.973 10.9342   4
  -5   2  15 100.581 13.3752  11
  -3  -2 -15 107.867 10.0176   7
   5  -3 -15 119.205 13.9162   2
   3   2 -15 114.502 12.2323   2
   2  -5 -15 110.130 10.8232   9
   3  -5  15 97.5121 10.9233   5
  -3   5  15 116.565 15.0231  10
   2   3  15 92.2674 10.5893   8
   2   3  15 101.693 7.12153  11
  -2   5 -15 108.397 12.7285   3
  -2  -3  15 95.5920 9.78738   7
  -3  -2 -15 98.1063 11.3008  12
   3  -5  15 109.679 10.8469   9
  -5   3 -15 83.9272 13.3793   3
   3   2 -15 108.156 11.4272   6
  -5   3 -15 115.516 13.2187  11
   5  -2  15 97.5966 12.3924   2
   5  -3 -15 95.3009 11.3851  11
   2   3  15 89.4184 11.0586   2
   5  -3 -15 99.3540 12.1635   6
   2  -5 -15 112.664 10.7871   4
  -2  -3  15 104.401 10.5639   5
   5  -2  15 108.012 11.0719  11
   5  -2 -15 104.763 11.0421   6
   5  -3  15 88.3702 11.0433  11
  -5   2 -15 105.835 10.4363   7
  -3  -2  15 116.358 10.2971   5
  -5   2 -15 130.469 14.2202  11
   5  -3  15 99.0054 12.5408   8
   5  -2 -15 92.1226 11.0688  11
  -3   5 -15 122.355 9.37614  11
   3   2  15 133.263 11.6642   8
  -2  -3 -15 94.9901 10.3770   4
  -2   5  15 125.454 14.1106   3
   2  -5  15 117.484 12.1189   5
   5  -2 -15 127.351 14.4057   2
  -2  -3 -15 99.9262 9.47079   7
  -3  -2  15 105.253 11.9675  12
   3  -5 -15 111.069 11.2001   4
   2   3 -15 110.667 11.6114   6
   2  -5  15 118.957 11.3423   9
  -5   3  15 121.119 12.7911  11
  -2   5  15 116.330 14.1350  10
  -5   2 -15 119.589 14.0278   3
  -3   5 -15 107.833 13.5461   3
  -5   3  15 114.403 9.36490   7
   3   2  15 113.112 11.9863   2
   5  -3  15 127.330 13.9085   2
  -3  -2  15 112.103 10.6274   7
   3   2  15 97.8901 8.31773  11
   3  -5 -15 115.679 10.7450   9
  -5   3  15 101.223 13.8280   3
  -2  -3 -15 120.386 11.7653  12
  -5   3  15 103.688 11.9375  10
  -2   5  15 108.428 8.28710  11
  -2   5  15 114.040 13.0795   8
   1   4  15 42.1540 9.68583   8
   5  -4 -15 53.1127 7.57267   9
  -1  -4  15 43.4583 8.89353   9
   1  -5 -15 49.3269 8.89042   4
  -4   5  15 40.7151 7.48279  11
  -4  -1 -15 41.4634 7.78608   7
  -1   5 -15 69.6003 10.9922   3
   4   1 -15 60.7265 7.08077  11
  -1   5 -15 61.6130 10.1674  10
  -4  -1 -15 56.9666 9.80261  12
   4  -5  15 37.0303 8.68612   9
   5  -1  15 40.0833 8.97768   8
   4   1 -15 46.5241 10.3374   2
  -5   1  15 55.4257 7.80764   7
   5  -1  15 52.6327 10.7752   2
  -4   5  15 62.9246 12.5917   3
  -5   4 -15 54.7535 16.5924   3
  -5   4 -15 34.8503 7.65488  11
  -1  -4  15 54.1652 9.13679  12
   1  -5 -15 50.1891 8.23906  12
  -1  -4  15 45.6478 9.48680   4
   4  -5  15 67.4017 10.7603   2
   4   1 -15 52.9866 8.92426   6
   5  -4 -15 33.7749 9.67044   2
   5  -4 -15 45.9744 9.03293  11
   4  -5  15 52.4381 8.62808   5
  -5   1  15 37.7070 11.0840   3
   5  -1  15 46.4989 7.82305  11
   1  -5 -15 45.5191 8.02486   9
   1   4  15 50.7270 9.34373  10
   1   4  15 35.7469 7.77230   2
  -1  -4  15 58.5113 8.81522   5
  -4   5  15 38.6765 10.7645  10
  -1   5  15 31.9686 8.09781   8
  -1  -4 -15 24.8939 7.20344   4
  -5   4  15 27.3808 11.4268   3
   5  -4  15 35.0985 7.84704  11
   5  -1 -15 27.3489 9.77955   2
  -5   1 -15 34.5747 9.85645  11
   1  -5  15 29.4944 7.53006   9
   5  -4  15 26.9804 6.40767   9
   5  -4  15 13.9962 7.87828   8
   5  -1 -15 22.8710 8.37532   6
  -5   1 -15 33.7012 6.83707   7
  -5   4  15 29.8440 7.82468  11
  -5   1 -15 30.0247 7.25063  12
   4  -5 -15 21.3644 11.5230   9
  -4   5 -15 19.1100 8.42233  11
   5  -4  15 42.1408 10.5387   2
   4   1  15 14.5111 8.31993   2
   5  -1 -15 20.1614 6.37491  11
  -1  -4 -15 31.3773 8.08581   9
  -1   5  15 4.90816 9.13035  10
   4   1  15 28.9683 8.08930   8
   1  -5  15 28.6866 7.79889   5
  -1   5  15 27.6079 4.21084  11
   1   4 -15 28.0616 7.88674   3
   1   4 -15 32.5240 7.95086   6
  -4  -1  15 18.0627 7.39230  12
  -5   4  15 18.1844 9.91611  10
  -4   5 -15 34.2410 10.4089   3
  -4  -1  15 25.5009 6.81237   7
   0   5  15 440.946 22.2505   8
  -5   5 -15 464.467 21.9257  11
  -5   0 -15 460.251 22.0368  12
  -5   5  15 511.027 26.4688  10
  -5   5 -15 403.884 27.1572   3
  -5   5 -15 480.148 23.9350  10
   5  -5 -15 450.692 22.8137  11
   5  -5 -15 510.858 25.3652   2
  -5   5  15 452.252 21.6770  11
   5  -5  15 454.569 20.0658   9
   5   0 -15 486.880 18.9036  11
   0   5  15 423.680 29.9211  10
   0   5 -15 479.955 23.7838   3
   0  -5  15 435.798 20.4612   5
   0  -5  15 488.299 22.0071   9
  -5   0 -15 427.113 20.9898   7
   0  -5  15 455.616 21.3006   4
   0   5 -15 460.829 22.0648  10
  -5   0  15 443.550 20.2381   7
   5   0  15 508.432 22.6789   8
   5   0  15 438.831 19.4167  11
   5   0 -15 454.815 24.9481   2
   5  -5 -15 468.643 20.0829   9
   5   0 -15 447.223 22.7281   6
   0  -5 -15 469.033 22.4464   4
   5   0  15 421.126 23.9261   2
   0  -5 -15 434.722 22.5088   9
   0  -5 -15 474.398 21.9647  12
   0   5  15 472.809 21.5400   2
   5  -5 -15 464.926 19.3728   4
  -5   5  15 444.313 27.9285   3
   6  -3 -15 57.7603 10.5352  11
  -3  -3 -15 67.6861 11.6980  12
  -3  -3 -15 82.3341 10.1114   7
   3   3  15 67.4258 11.6245   8
   3  -6  15 53.2782 10.7510   5
  -3  -3 -15 62.8399 10.7552   4
   6  -3 -15 47.6558 12.8830   2
  -6   3 -15 68.6068 12.4184  11
  -6   3  15 78.6221 16.0921   3
  -3   6  15 57.3832 11.2431   8
   6  -3 -15 57.4808 9.08625   9
   3   3 -15 88.3265 11.8259   6
   3  -6  15 77.7433 10.5249   9
  -3  -3  15 55.6133 9.42684   7
  -3   6  15 61.7568 8.12787  11
   3  -6 -15 47.2177 9.54210   9
  -6   3 -15 57.5527 9.72446   7
   3  -6 -15 80.9342 11.3041   4
  -3   6  15 65.8935 16.0112   3
  -3   6  15 45.5266 13.7605  10
   3   3  15 74.3528 12.3047   2
  -3   6 -15 49.4490 11.7686  10
  -3   6 -15 45.5929 14.5476   3
   6  -3 -15 64.7531 12.2018   6
  -6   3  15 70.8838 11.6214  11
  -3  -3  15 81.6982 11.6023  12
   6  -3  15 62.6341 13.9955   2
   6  -3  15 69.2684 12.1620   8
   6  -3  15 61.8145 10.5721  11
   6  -4 -15 240.441 15.3033   9
  -6   4 -15 216.254 16.1802   7
  -2  -4  15 201.320 17.5243  12
  -6   4 -15 205.895 19.5280  11
  -4  -2 -15 228.386 15.9326   7
   2   4  15 210.662 18.6150   8
   2   4  15 216.613 18.9115   2
   6  -2  15 210.251 19.1638   8
  -2  -4  15 200.271 15.6210   7
   6  -4 -15 218.117 17.8811  11
  -4   6  15 202.145 14.2775  11
  -6   2  15 229.984 24.6498   3
   4   2 -15 196.176 18.5878   6
  -6   4 -15 234.119 26.4937   3
   2  -6 -15 196.515 16.5469   4
   6  -2  15 222.323 21.3812   2
   6  -4 -15 228.082 20.6122   2
  -4   6  15 218.149 24.5377   3
   2  -6 -15 220.388 17.2637   9
  -4   6  15 249.948 22.4834  10
  -2   6 -15 228.517 23.4651   3
  -4  -2 -15 207.758 18.2277  12
  -2   6 -15 226.533 21.7228  10
  -4  -2 -15 217.761 17.9491   4
   4  -6  15 222.556 17.0582   9
  -6   2  15 207.991 14.8694   7
   6  -2  15 227.948 16.7164  11
   4  -6 -15 231.744 16.3896   4
   6  -4  15 201.300 17.7142  11
  -4  -2  15 261.688 16.5853   7
   6  -2 -15 247.023 19.4956   6
  -4   6 -15 223.473 24.2658   3
   4   2  15 215.054 12.6597  11
   6  -2 -15 208.468 16.2888  11
  -6   4  15 228.057 24.0427   3
   2  -6  15 189.142 16.0266   5
  -4   6 -15 208.339 14.3704  11
  -6   2 -15 186.079 16.2396   7
  -4   6 -15 194.025 19.2050  10
  -2   6  15 238.789 22.3814  10
  -2  -4 -15 202.357 18.2425  12
   4  -6 -15 216.165 17.0910   9
  -6   2 -15 215.673 22.0710  11
   6  -2 -15 231.224 21.4836   2
   4   2  15 234.391 20.1727   2
   2   4 -15 262.262 19.1109   6
   2  -6  15 199.224 17.9419   9
  -2  -4 -15 183.888 16.9298   4
  -4  -2  15 221.811 18.5439  12
   6  -4  15 245.806 19.8844   8
  -2   6  15 250.097 18.7751   8
   6  -4  15 193.090 20.5695   2
  -6   4  15 224.102 19.1764  11
   4   2  15 260.608 18.5240   8
   6  -5 -15 95.6619 13.5724  11
   5   1 -15 84.4832 16.0952   2
  -1  -5  15 108.268 13.7138   5
  -1  -5  15 65.2811 11.5749   7
  -6   5 -15 81.8294 19.3041   3
  -5  -1 -15 89.7787 12.9404  12
   6  -1  15 77.4040 14.4369   2
   6  -5 -15 121.567 14.3192   9
   5   1 -15 87.5707 13.2218   6
  -5   6  15 79.6081 11.1274  11
   6  -1  15 92.6683 14.1196   8
   1  -6 -15 60.8085 12.2076   9
  -6   5 -15 72.0151 15.3009  10
  -5   6  15 97.2001 17.5110   3
  -1  -5  15 107.120 13.9183  12
   1   5  15 69.2070 13.1186   8
  -1   6 -15 120.464 17.8155   3
   1  -6 -15 81.4273 12.7573   4
  -6   5 -15 96.9105 12.8817  11
   6  -1  15 77.6767 11.1973  11
  -1   6 -15 82.6348 15.3043  10
   5  -6  15 115.692 14.3808   9
  -6   1  15 82.8298 11.4590   7
   6  -5 -15 83.5987 15.0385   2
  -5   6  15 80.4911 16.3100  10
   1   5  15 86.3447 13.2117   2
  -5  -1 -15 90.0850 11.7655   7
  -6   5  15 100.767 13.1564  11
   6  -5  15 87.3669 10.8451   9
   6  -5  15 67.6442 15.0360   2
  -5   6 -15 79.1000 16.8304   3
  -1   6  15 96.2611 14.2214   8
  -1   6  15 85.1310 15.6034  10
  -6   1 -15 80.9576 12.0320   7
   5   1  15 101.050 12.6415  11
   5  -6 -15 100.421 11.7586   4
  -5  -1  15 77.3836 10.9805   7
  -5   6 -15 85.8783 14.6103  10
  -5   6 -15 82.3689 11.4805  11
   6  -1 -15 96.8378 11.4516  11
  -6   5  15 102.524 19.0342  10
  -6   5  15 72.9908 17.9310   3
  -1  -5 -15 74.2569 13.6239   9
   5  -6 -15 85.6920 11.6727   9
   6  -1 -15 77.2644 13.3860   6
   6  -1 -15 95.9250 16.4509   2
  -1  -5 -15 77.5159 12.6098   4
  -1  -5 -15 75.7528 13.1736  12
   5   1  15 64.5677 13.9074   2
   1  -6  15 82.5518 13.4428   9
   1  -6  15 102.289 12.9730   5
   5   1  15 104.467 16.3534   8
   0   0  16 6.38688 1.39898  11
   0   0  16 3.91249 1.39846   8
   0   0  16 5.27438 1.03416   9
   0   0  16 5.94501 1.83314  10
   0   0  16 4.92061 1.87132   2
   0   0 -16 5.44952 1.44051  11
   0   0 -16 2.04866 2.02914   6
   1  -1  16 346.114 9.39097   2
   0  -1  16 341.657 10.3351   5
  -1   1 -16 346.410 12.7499   6
   0  -1 -16 346.782 10.1190   4
   1  -1 -16 355.784 11.2053   2
  -1   1  16 348.254 12.0734   3
   1   0  16 352.620 10.3214   2
   0  -1  16 356.433 9.86982  11
   1   0 -16 335.186 10.4526  11
   1   0  16 350.941 10.7085  11
   1   0 -16 351.020 10.0227   2
  -1   1  16 355.121 10.8887  11
   1   0  16 354.308 11.0996  10
   0  -1  16 363.366 8.43474   9
   0   1  16 340.211 10.7143   3
   0   1  16 347.340 11.5128  10
   0  -1  16 354.397 9.81705   8
   1  -1 -16 352.430 11.5767   6
   1  -1  16 337.162 9.97064   5
   0  -1  16 348.148 10.8708  10
  -1   0 -16 345.657 11.1975  11
   0  -1 -16 335.327 10.8638  11
   0   1 -16 356.216 10.0453  11
   0  -1  16 338.054 10.4025   7
   1  -1  16 343.167 10.8682   8
   1  -1 -16 339.358 8.91359   7
   1   0  16 353.995 11.2580   8
  -1   1  16 339.522 10.0246   8
  -1   0  16 349.119 10.6745  10
  -1   0  16 345.440 10.4084  11
   0   1 -16 344.728 11.7817   6
   1  -1  16 345.374 11.0023  10
   1  -1  16 345.424 10.4701  11
  -1   1 -16 332.879 10.8654  11
   0   1  16 341.201 10.4395  11
   1  -1 -16 357.398 9.16132   9
   0   1 -16 337.749 9.19166   4
  -1   0 -16 360.805 9.48135   4
  -1   0  16 362.116 8.73985   8
   0  -1 -16 337.120 12.5699   6
   0  -1 -16 351.030 10.1524   9
  -1   0  16 361.091 10.0913   7
  -1   0  16 338.815 11.7008   3
   0   1  16 345.187 10.9638   8
   0   1 -16 348.953 10.2565  11
   1  -2 -16 181.863 7.50996   4
   1  -2 -16 179.916 8.34990   6
   2  -1  16 157.499 7.14152  11
  -2   1 -16 176.402 10.3044   6
   1  -2  16 183.201 6.40809   9
  -1   2 -16 187.281 5.25794   2
   1   1  16 174.189 6.98787  11
   1   1  16 177.607 7.59895  10
  -1   2  16 175.187 8.57789   3
  -2   1  16 162.406 8.88885   3
   1   1 -16 175.879 6.57878  11
  -2   1  16 175.263 7.67303  11
   2  -1  16 181.108 5.95365   5
  -1  -1  16 169.005 6.78543  10
  -1  -1  16 178.154 6.27691  11
   1   1 -16 174.566 5.39665   9
  -1  -1  16 174.905 7.13756   7
  -1  -1 -16 166.617 5.93006   3
  -1  -1 -16 182.775 7.04766   4
   1   1 -16 168.338 6.26457  11
  -1  -1 -16 178.211 7.59701  11
  -1  -1 -16 169.281 7.68612  12
   2  -1  16 167.728 7.42458  10
   2  -1 -16 182.150 5.86108   9
  -1   2  16 161.281 8.22787  10
  -2   1  16 161.487 7.43939  10
   1   1 -16 180.248 6.29671   2
   1   1 -16 168.602 7.98932   6
   1   1  16 179.074 7.58198   2
  -1  -1  16 173.243 5.75057   2
   2  -1  16 174.927 7.40730   2
  -1   2 -16 176.953 8.64548   6
  -1   2 -16 173.393 7.04058  11
  -1   2 -16 161.678 6.43835  11
   1   1  16 181.660 8.15491   8
   1  -2  16 171.718 7.16603   5
  -1  -1  16 174.238 6.91304   5
   2  -1 -16 173.028 8.21787   2
  -2   1 -16 169.893 7.34890   3
  -1   2  16 169.499 7.23263  11
  -2   1  16 185.534 6.24879   7
  -1   2  16 171.177 7.49981   8
   1  -2  16 169.137 7.58882   8
   1  -2 -16 181.534 6.82692   9
   2  -1 -16 171.107 7.67678   6
   2  -1  16 177.268 8.30821   8
  -1  -1 -16 167.211 9.78114   6
   2  -1  16 179.667 6.11598   4
   2  -1 -16 174.954 7.48619  11
   1  -2 -16 174.505 7.40208  11
  -2   1 -16 177.526 6.85952  12
   1  -2  16 175.286 6.54969  11
  -2   2 -16 690.743 23.3017  11
  -2   2  16 758.600 21.3806  11
   2   0  16 745.718 21.3992   2
  -2   0  16 781.064 20.2191   7
   0   2  16 794.061 20.2223  11
  -2   2  16 750.554 23.9196   3
   2  -2 -16 773.157 19.6429   9
   0  -2 -16 722.368 20.9860  12
   2  -2 -16 767.654 21.3487  11
  -2   0  16 771.974 19.8810   5
   2   0  16 775.631 20.4157  10
   2   0 -16 765.720 20.4194  11
   0  -2 -16 794.217 18.3510   7
   2  -2  16 746.272 20.5468  11
   2  -2  16 797.826 20.6013   2
   2  -2  16 772.753 19.9034   5
  -2   2  16 748.342 22.1020  10
   0  -2  16 765.429 21.0456   7
   0   2 -16 767.657 18.8426  11
   0  -2  16 823.468 18.6601  11
   2   0  16 746.625 23.8394   8
   0  -2 -16 793.425 22.5666   6
   0  -2 -16 783.923 21.0183   9
   0  -2 -16 745.360 20.4512  11
   2   0 -16 762.796 21.2334   2
  -2   0  16 777.747 19.5720  10
  -2   0  16 763.353 20.5100  11
   2   0 -16 742.967 21.8557   6
   0   2 -16 752.059 21.7168   6
   0   2 -16 785.116 18.5423  11
  -2   2 -16 738.594 21.9102   3
   0  -2 -16 763.090 20.7217   4
   0  -2  16 744.111 20.7116   5
  -2   2 -16 752.611 23.1988   6
   2   0  16 786.572 17.8205   5
   2  -2 -16 761.048 22.3718   2
  -2   0 -16 813.651 19.3125   3
   0   2  16 797.563 20.2597   3
  -2   0 -16 764.712 21.0946  12
  -2   0 -16 658.163 31.0077   6
  -2   0  16 752.091 22.4634   3
   0   2  16 766.292 22.0837  10
   2  -2 -16 817.105 21.0753   6
   2   0  16 708.644 22.4615  11
  -2   0 -16 774.285 19.9071   4
   2  -2  16 749.552 21.8442   8
  -2   0 -16 721.492 21.5903  11
   0  -2  16 779.144 18.9737   9
  -2   2  16 802.883 17.4740   7
   1   2  16 623.801 19.5730   2
   2  -3  16 647.950 18.1482  11
  -3   1  16 622.456 21.5472   3
   2   1 -16 598.441 18.3254   2
   3  -1  16 656.357 20.5572   8
  -3   2 -16 654.681 20.9357  11
  -2  -1 -16 639.868 22.9706   6
  -1  -2  16 657.662 18.6627   5
  -1   3 -16 664.555 20.8177   3
  -2  -1 -16 631.600 19.8015  12
  -3   2 -16 651.155 16.8581  12
   1  -3 -16 676.406 18.1045   6
  -1  -2  16 650.038 17.7741   9
   2   1 -16 639.756 17.9485  11
  -1  -2  16 649.647 19.9667  12
   2  -3  16 657.951 18.2115   2
   3  -1  16 628.516 19.3362  11
   1   2  16 614.378 19.7885   8
   2  -3  16 640.847 20.5120   8
  -2  -1 -16 616.280 18.3004   7
   3  -2 -16 631.697 20.9839   2
   3  -1  16 623.244 20.1240   2
   3  -2 -16 637.943 18.9414   6
  -2  -1 -16 639.509 19.5237  11
  -3   2 -16 648.013 22.6005   6
   2  -3  16 645.676 18.8056   5
  -3   1  16 638.408 17.9465  10
  -3   1  16 619.651 19.5921  11
  -2   3  16 603.995 21.7659   3
   3  -2 -16 632.723 19.7257  11
  -2   3  16 610.098 18.8662  11
   3  -2 -16 626.486 17.4914   9
   1   2  16 615.483 19.2488  10
  -1   3 -16 642.967 19.8398   6
   1  -3 -16 632.112 18.6058  12
  -1  -2  16 654.983 15.6126  11
   2   1 -16 638.494 20.0509   6
   2   1 -16 644.277 17.2301  11
   1   2  16 641.219 17.6978  11
   2  -3  16 622.769 18.4538   9
  -1  -2  16 618.775 18.7080   7
  -3   2 -16 651.262 20.8984   3
  -2   3  16 631.262 21.2157  10
   1  -3 -16 631.165 18.8304   9
   1  -3 -16 633.839 18.6105  11
  -3   1  16 650.667 17.8817   7
   2  -3  16 656.440 14.8508   4
  -2  -1 -16 636.843 18.7871   4
  -1   3 -16 641.026 17.1138  11
   1  -3 -16 641.198 19.3396   4
   3  -1  16 682.663 15.2947   5
   1   2 -16 815.919 19.0241  11
   2   1  16 808.938 23.7601   8
   3  -2  16 773.097 27.6344   2
  -2   3 -16 812.920 24.8659   3
  -2  -1  16 795.659 21.4915   5
   3  -1 -16 775.479 24.1747   2
   3  -2  16 815.128 23.2991  11
  -1  -2 -16 783.819 20.8101   7
  -2   3 -16 783.387 23.8896   6
   3  -2  16 821.587 20.7066   5
   3  -1 -16 806.763 23.2641   6
  -3   1 -16 824.395 23.1479   3
  -2   3 -16 786.709 22.4245  11
   1   2 -16 819.215 20.4710   2
  -3   1 -16 788.368 24.4515  11
   1   2 -16 828.910 18.9767   8
   1  -3  16 829.840 20.1364   4
   1   2 -16 828.656 19.8744   8
   2   1  16 784.870 21.8438  11
  -3   2  16 818.769 20.0747   7
   1  -3  16 846.131 20.3608  11
   1  -3  16 774.480 22.5864   5
  -3   2  16 799.498 23.5567  10
  -2  -1  16 790.375 22.1950   7
  -1  -2 -16 827.278 22.2542  11
  -1  -2 -16 804.380 23.5946  12
   2  -3 -16 780.034 22.6971  11
  -1  -2 -16 781.292 23.4725   9
  -3   1 -16 804.854 26.9106   6
  -3   2  16 795.532 23.7151  11
  -1   3  16 847.478 24.4406   3
   2  -3 -16 768.339 22.9604   4
  -1  -2 -16 709.897 27.3034   6
  -1   3  16 794.485 21.6811  11
   1   2 -16 815.353 23.6838   6
  -3   1 -16 811.555 21.9127  12
  -2  -1  16 765.148 23.6970  12
   3  -1 -16 804.310 23.0107  11
   3  -2  16 821.456 24.4188   8
   2  -3 -16 827.278 21.2511   6
   2  -3 -16 798.541 22.0159   9
   2   1  16 797.527 23.6732   2
  -1   3  16 826.129 25.0868  10
  -1   3  16 805.938 23.5295   8
   1  -3  16 824.949 21.5771   9
  -2  -1  16 834.644 20.9289  11
   2   1  16 785.169 21.6583  10
  -1  -2 -16 789.280 22.6572   4
   0  -3 -16 28.4477 4.84721  12
   3   0 -16 29.8372 5.12530   6
   0   3 -16 25.6195 4.66399   6
  -3   3  16 24.2746 6.49048   3
   3  -3  16 32.2899 2.92543   4
   0   3  16 28.6526 4.60716   3
  -3   3  16 22.6842 4.60336  11
   0  -3  16 26.6845 4.62095   5
   3  -3 -16 22.7973 5.35807   2
   3  -3 -16 32.4371 4.77546   6
   0   3  16 19.8129 5.26242  10
   3  -3 -16 19.8029 4.30473  11
  -3   3  16 35.0849 6.35309  10
  -3   3 -16 27.6323 6.07077   3
  -3   0  16 27.8376 5.79417   3
  -3   0 -16 33.4942 3.79603   3
  -3   0  16 28.9363 4.54169  11
   0  -3  16 21.9299 4.15701   4
   3   0  16 25.6370 4.19803  11
   0   3  16 29.8716 3.77275  11
   3  -3  16 31.2346 5.42966   8
   3   0  16 20.8322 4.44790   8
  -3   0 -16 32.4084 5.63284  11
   0  -3  16 30.8269 4.18640   9
   0  -3 -16 31.3257 4.95293   9
  -3   0 -16 28.8451 4.61677  12
  -3   3 -16 32.8609 6.50984   6
  -3   0  16 40.8277 4.55550   5
  -3   0 -16 27.3576 4.59009   4
   0  -3 -16 32.1062 4.45922  11
   3   0  16 31.6102 5.64999   2
   3   0 -16 32.3394 5.63520   2
   3  -3  16 34.4723 5.45612   2
   0  -3 -16 25.9724 4.69996   4
   3  -3  16 27.8605 4.26779   5
   0  -3  16 31.6138 4.28612   7
  -3   0  16 34.1187 3.77282  10
  -3   0 -16 29.0038 7.10367   6
  -3   0  16 25.3545 4.07286   7
   3  -3 -16 27.6219 4.08026   9
   0  -3 -16 37.8436 3.88014   7
   0   3 -16 30.8574 3.86078   2
   3  -3  16 28.0309 4.52898  11
  -3   0 -16 30.3633 4.73172   7
   3   0  16 26.7537 3.86775  10
   0   3  16 26.1630 4.67251   8
   3   0 -16 29.4154 4.10029  11
  -3   3 -16 32.9063 5.22201  11
  -4   2 -16 1313.24 40.3221   6
   4  -2 -16 1321.65 36.5890  11
   2   2 -16 1289.07 30.6272  11
  -2  -2  16 1337.11 34.2552   5
   2  -4 -16 1364.53 35.4301  11
  -2   4 -16 1374.67 33.7433  11
   2   2 -16 1287.79 34.3940   2
   2   2  16 1395.41 37.3660   8
  -4   2  16 1350.78 33.3561   7
  -2  -2 -16 1351.84 34.3680   7
  -4   2  16 1324.13 37.3150  11
  -2   4  16 1347.71 39.4642   3
  -4   2  16 1251.03 37.5212  10
  -2   4  16 1361.91 37.3940   8
   4  -2 -16 1337.03 35.9544   6
   4  -2  16 1368.74 36.8607  11
   2  -4  16 1323.73 31.7594   4
  -2   4  16 1332.06 39.0658  10
  -2   4  16 1352.91 34.8642  11
   4  -2  16 1344.82 37.9709   8
  -4   2 -16 1384.38 33.2804  12
   2   2  16 1305.82 34.3129  10
   2  -4 -16 1314.62 36.4139   4
  -2  -2  16 1305.44 35.2803   7
  -2   4 -16 1326.48 38.9114   3
   2  -4  16 1285.51 34.8948   9
  -4   2  16 1340.29 40.2770   3
   2  -4 -16 1331.91 35.8218   9
   2   2  16 1290.31 33.4436  11
  -4   2 -16 1332.35 38.1898   3
  -2  -2 -16 1323.02 36.0809   4
   4  -2 -16 1314.73 38.9750   2
   2   2 -16 1336.56 36.8218   6
  -2  -2 -16 1331.45 37.1790  12
   4  -2  16 1368.64 38.2638   2
  -4   2 -16 1327.49 38.3337  11
   2   2  16 1341.89 37.2132   2
  -2   4 -16 1324.29 35.6920   6
  -2  -2  16 1328.18 37.1483  12
   2  -4  16 1354.82 35.9238   5
  -3  -1 -16 411.002 16.8602  12
   1   3  16 432.957 13.2435  11
  -1  -3  16 448.385 16.0039   5
   1  -4 -16 418.241 15.5085  12
   3   1 -16 418.897 13.6952  11
  -3   4  16 404.418 18.6481  10
  -4   1  16 408.499 13.7317   5
  -1  -3  16 432.057 15.8233   7
   4  -3 -16 423.281 19.4021   2
  -3  -1 -16 423.614 16.9612  11
   1  -4 -16 390.248 16.0719   9
   3  -4  16 418.965 15.8514   5
  -4   1  16 436.594 19.0785   3
  -4   1  16 415.079 16.9091  11
   1   3  16 405.661 16.7386   2
   3   1 -16 422.750 17.3323   6
  -3   4  16 403.139 15.9657  11
   1   3  16 414.496 17.5504   8
   1   3  16 417.706 16.7218  10
  -4   3 -16 425.652 19.1798   6
   4  -3 -16 419.854 14.7597   9
   4  -1  16 426.842 17.3830   8
  -3  -1 -16 418.479 15.7496   7
   4  -1  16 426.005 16.5037  11
  -4   1  16 418.707 14.9580   7
  -4   3 -16 415.432 19.4104   3
  -1   4 -16 405.885 16.3952   6
   1  -4 -16 420.868 16.6373   4
   4  -1  16 462.347 18.6886   2
  -1  -3  16 409.809 16.7698  12
   4  -3 -16 419.516 15.7579   6
   3  -4  16 413.728 15.6322   9
  -1  -3  16 411.660 15.4142   9
  -1   4 -16 407.799 17.7908   3
  -4   3 -16 381.399 17.6111  11
   3   1 -16 438.668 16.9653   2
  -3   4  16 429.888 20.5310   3
  -3  -1 -16 408.701 16.2100   4
   3  -4  16 418.338 15.3044  11
   3  -4  16 400.300 16.5396   2
   4  -3 -16 415.921 17.0849  11
  -1   4  16 415.695 18.8491  10
  -3   4 -16 423.844 16.7031   6
   3  -4 -16 402.223 15.5450   9
  -3  -1  16 432.499 14.3935   5
  -1  -3 -16 418.784 16.2992   4
   3   1  16 403.478 16.9785   8
   4  -1 -16 393.137 15.8372  11
  -4   3  16 429.995 17.8893  10
  -4   1 -16 428.235 15.4748  12
   3   1  16 419.320 15.0718  11
  -4   3  16 433.587 12.5237   7
   4  -1 -16 415.984 18.8852   2
  -1  -3 -16 410.643 13.7232   7
   4  -3  16 421.404 16.9418  11
   3  -4 -16 404.110 16.0726   4
   1  -4  16 387.179 15.7743   5
   3  -4 -16 412.879 13.0377  12
   4  -3  16 403.646 18.3518   2
  -3  -1  16 425.779 15.6528   7
   1   3 -16 430.841 13.9524   2
   3  -4 -16 402.177 16.3205  11
   4  -3  16 415.202 13.9516   5
   4  -3  16 435.392 18.3198   8
  -4   1 -16 423.877 16.9303   3
  -1   4  16 426.518 17.9633   3
  -3  -1  16 400.469 17.0708  12
  -4   1 -16 421.479 18.2916  11
  -4   1 -16 418.507 16.4928   7
  -1   4  16 418.171 13.7370  11
  -3   4 -16 443.683 16.3741  11
   1  -4  16 417.084 15.3578   9
   4  -1 -16 399.602 16.9780   6
   3   1  16 427.227 13.2392  10
  -3   4 -16 432.339 19.3736   3
  -4   3  16 406.371 17.5001  11
  -1  -3 -16 413.490 16.8012  12
  -1  -3 -16 407.556 17.0707   9
  -4   3  16 415.667 21.0135   3
   1   3 -16 431.062 16.8999   6
   3   1  16 441.263 17.8489   2
  -1   4  16 403.708 16.9527   8
   1  -4  16 418.410 14.1031   4
   4   0 -16 25.0020 5.12348  11
   4  -4  16 31.2518 7.89169   2
  -4   4  16 29.1742 6.28845  11
   0  -4  16 22.3931 6.24289   4
  -4   4 -16 29.0464 9.14811   3
   4   0  16 31.1004 7.42037   2
   0  -4  16 29.5106 5.96130   7
   4  -4 -16 50.3855 7.79723  11
  -4   0 -16 30.0268 8.17681  11
   0  -4 -16 41.6351 7.12655   4
   0   4 -16 31.5725 6.83835   6
  -4   0  16 28.0336 5.56809   7
   0   4  16 25.5423 6.54515   8
  -4   0 -16 27.9643 6.39922   7
  -4   0  16 23.9796 7.55282   3
  -4   0  16 31.5635 5.76991   5
   0  -4  16 38.7845 6.96578   5
   4  -4 -16 25.0634 7.47253   2
   4  -4  16 21.3726 6.34538  11
   4   0 -16 23.6384 7.71738   2
   0  -4  16 24.3526 5.98769   9
   4   0 -16 22.9783 6.89779   6
   4   0  16 25.6220 5.28784  11
  -4   4 -16 15.9123 5.67097  11
   4  -4 -16 26.3447 5.42312   9
   4  -4  16 30.9673 6.02613   5
   0   4 -16 21.4297 6.95657   3
  -4   4  16 28.1555 8.30014  10
   0   4  16 28.8166 7.47396  10
   0   4  16 26.9275 3.90942  11
  -4   4 -16 28.8668 7.32846   6
  -4   4  16 28.8521 9.09367   3
   0  -4 -16 24.3786 6.23519  12
   0   4 -16 34.1745 5.53684   8
   4   0  16 34.1761 6.86578   8
  -4   0 -16 23.8450 6.04321  12
   0  -4 -16 38.6537 6.91724   9
   4  -4  16 33.7388 5.73791   9
   5  -3 -16 605.629 23.3221  11
   5  -2  16 570.988 22.7571  11
  -5   3 -16 603.840 24.8417  11
   2  -5 -16 576.491 22.4933   9
  -5   3 -16 582.121 27.1543   3
  -2   5 -16 579.841 25.5707   3
  -5   2  16 587.927 23.8893  11
   3  -5  16 575.029 21.8370   5
   5  -2  16 580.100 23.7369   8
  -5   2  16 598.296 19.8565   7
  -3  -2 -16 595.168 20.8120   7
   5  -3 -16 558.873 26.6410   2
   3   2 -16 592.292 22.1283   2
   3   2 -16 601.934 23.4217   6
  -5   2  16 592.862 26.4800   3
  -2  -3  16 555.328 21.9169   7
   2  -5 -16 577.501 22.3333   4
   5  -2  16 565.688 25.3505   2
  -3  -2 -16 608.748 22.9389   4
   2   3  16 634.997 23.8959   8
  -2  -3  16 548.360 20.3011   5
   5  -3 -16 586.904 19.9399   9
   5  -3 -16 597.447 21.9909   6
  -3   5  16 592.644 20.5486  11
  -3   5  16 583.903 27.4133   3
   2   3  16 584.841 17.4794  11
  -2  -3  16 562.216 22.8834  12
   3  -5  16 564.887 21.2366   9
   2   3  16 586.759 25.6251   2
  -2  -3 -16 473.685 26.6076  12
   3   2  16 563.847 22.1522   8
  -5   2 -16 576.117 22.1698   7
   3  -5 -16 560.356 21.8157   4
   3  -5 -16 585.293 21.7756   9
  -2  -3 -16 571.885 19.5464   7
   5  -3  16 533.497 24.0893   2
   3   2  16 570.255 18.7452  11
  -5   3  16 613.406 23.7762  10
   5  -3  16 580.818 24.3070   8
  -5   2 -16 575.541 24.7174  11
   5  -3  16 601.617 22.5266  11
   2   3 -16 576.870 22.7762   6
  -3  -2  16 596.818 19.6513   5
  -3   5 -16 536.417 31.7494   3
  -2   5  16 600.011 19.0872  11
   2  -5  16 565.427 21.3595   9
   5  -2 -16 538.669 24.7295   2
  -2   5  16 555.553 25.2709  10
  -5   3  16 582.110 27.1047   3
   5  -2 -16 598.323 22.9190   6
  -5   3  16 596.010 23.9220  11
  -5   2 -16 611.195 26.6918   3
  -2  -3 -16 514.231 23.9033   4
  -2   5  16 570.321 25.4221   3
  -3   5 -16 585.809 19.4643  11
  -1  -4  16 225.479 15.4496  12
  -1   5 -16 214.250 16.7420  10
  -1  -4  16 198.441 14.4571   5
   5  -1  16 198.223 13.6680  11
  -5   1  16 214.522 13.1302   7
  -1  -4  16 176.608 14.0496   7
   4   1 -16 209.055 10.5327  11
  -5   4 -16 220.232 15.3338  11
  -4   5  16 217.554 19.4581   3
   5  -4 -16 214.295 12.8602   9
  -1   5 -16 226.175 17.4630   3
  -4  -1 -16 222.612 13.9086   7
   4  -5  16 238.687 14.2111   5
   1   4  16 197.047 14.9097   2
  -4  -1 -16 223.389 21.1488   4
   5  -1  16 230.027 17.0476   2
   4  -5  16 229.069 13.8271   9
  -4   5  16 219.610 13.9463  11
   1  -5 -16 192.654 14.2667   4
  -4   5  16 213.945 18.2987  10
   1  -5 -16 223.149 14.6366   9
   4   1 -16 228.916 17.4740   2
   1   4  16 219.189 16.1777  10
   5  -4 -16 192.005 15.4277  11
   5  -4 -16 201.629 17.0959   2
   5  -1  16 213.134 17.0592   8
  -4  -1 -16 206.286 14.9114  12
  -1  -4  16 226.778 15.0403   9
   1  -5 -16 200.963 14.3545  12
   4   1 -16 225.230 15.2902   6
  -5   1  16 210.377 17.8690   3
   4  -5  16 215.677 16.8828   2
   5  -1 -16 190.567 18.3796   2
  -1  -4 -16 162.138 14.7308  12
   5  -4  16 192.143 17.4807   2
  -1   5  16 177.337 14.7020   8
   4  -5 -16 173.956 12.5713   4
   5  -1 -16 194.280 15.0683   6
  -5   1 -16 184.838 13.3920   7
   1   4 -16 205.589 13.9831   3
  -4   5 -16 222.262 18.4890   3
  -5   4  16 242.283 15.7054  11
   5  -4  16 188.528 14.6531  11
  -5   1 -16 223.088 17.9411  11
   4  -5 -16 166.223 14.7916   9
  -4   5 -16 197.066 13.1133  11
   1  -5  16 213.068 14.4653   9
   4   1  16 178.860 14.4171  11
   5  -1 -16 198.289 13.0229  11
  -1  -4 -16 178.832 14.6333   9
  -1  -4 -16 169.357 13.2475   4
  -1   5  16 200.025 8.95941  11
   5  -4  16 171.788 12.4469   9
  -1   5  16 196.066 23.9176  10
  -4  -1  16 195.342 13.1399   7
   1   4 -16 231.352 15.3687   6
   1  -5  16 180.413 13.5210   5
  -5   1 -16 190.192 13.0212  12
   4   1  16 178.665 15.2076   2
   4   1  16 207.378 15.5551   8
  -5   4  16 221.762 16.9357  10
  -4  -1  16 176.190 14.4729  12
  -5   4  16 186.566 19.8517   3
   5  -4  16 172.845 15.5452   8
   0   5 -16 502.472 32.0441   3
  -5   0  16 477.089 20.4935   7
   0   5  16 492.985 22.0374   2
  -5   5 -16 434.422 23.6503  10
   5  -5 -16 511.828 32.7657  11
   5   0  16 516.664 23.0998   8
   5  -5 -16 508.671 25.4619   2
  -5   0 -16 479.000 22.2325  12
   0  -5  16 453.114 21.1443   5
   0  -5  16 494.277 23.2030   9
  -5   5 -16 415.836 26.9677   3
   5  -5 -16 468.443 19.9103   4
   5   0 -16 538.118 25.4883   2
  -5   5  16 454.320 22.2855  11
   5   0 -16 476.070 18.8921  11
   5   0  16 462.703 24.4306   2
   0   5  16 494.440 23.2567   8
  -5   5  16 498.833 26.3977  10
   0  -5 -16 460.551 22.4130   9
   5   0  16 441.276 20.0002  11
   0   5  16 466.886 23.6303  10
  -5   5  16 466.659 28.4464   3
   5   0 -16 455.984 22.9763   6
   5  -5  16 452.289 20.1213   9
   0  -5 -16 477.657 22.6589  12
   0   5 -16 521.586 24.9366  10
  -5   5 -16 433.336 21.9450  11
   0  -5 -16 449.155 22.8184   4
   5  -5 -16 461.170 20.4042   9
  -5   0 -16 474.531 21.4245   7
   6  -3 -16 208.341 14.2714   9
   3  -6  16 220.884 16.8873   9
  -3  -3  16 203.610 15.1221   7
  -6   3  16 203.312 19.5128  11
  -3  -3 -16 227.311 18.3250  12
  -6   3 -16 205.287 15.9695   7
  -3  -3 -16 214.102 15.4757   7
   3   3  16 230.413 18.5981   2
   3   3 -16 233.715 17.9030   6
   6  -3 -16 236.206 17.3084  11
   6  -3 -16 226.948 20.4618   2
   3  -6  16 214.237 16.1906   5
  -3   6 -16 192.696 18.7736  10
  -3   6  16 193.252 17.8942   8
  -3   6  16 204.798 24.8358   3
   6  -3  16 216.569 20.8020   2
  -3  -3  16 204.785 17.4895  12
   6  -3 -16 218.433 18.7666   6
   6  -3  16 191.618 18.1199   8
  -3   6  16 190.600 21.3572  10
  -3   6 -16 225.488 22.0881   3
   6  -3  16 213.017 17.1164  11
  -3   6  16 195.664 12.6392  11
   3   3  16 228.393 18.1181   8
  -6   3 -16 216.149 19.6610  11
  -6   3  16 204.414 25.0293   3
  -3  -3 -16 228.624 17.2203   4
   3  -6 -16 218.027 16.3531   4
   3  -6 -16 236.811 16.8871   9
   6  -4 -16 60.9639 13.2543   2
   6  -4 -16 43.4171 8.70889   9
  -4   6  16 11.3164 12.8476  10
   4  -6  16 47.8628 10.8785   5
  -6   2  16 65.7605 16.0182   3
   2   4  16 43.7195 11.0908   8
   4   2 -16 22.5907 10.5882   6
   6  -4 -16 50.1207 10.5755  11
  -6   4 -16 40.5080 11.1159  11
  -6   4 -16 39.1085 9.61749   7
   6  -2  16 60.5640 12.8750   2
  -4  -2 -16 31.8271 11.0396   4
   2  -6 -16 54.2550 11.0253   4
  -4  -2 -16 25.9540 8.53111   7
  -4  -2 -16 29.1130 10.9263  12
   6  -2  16 9.86441 11.5113   8
   2  -6 -16 46.1114 11.0305   9
   4  -6  16 56.3149 10.1886   9
  -6   4 -16 -2.4952 15.8198   3
  -2  -4  16 53.3093 9.65474   7
   6  -2  16 44.9824 9.04033  11
   2   4  16 40.8899 11.1036   2
  -2  -4  16 31.1453 10.6363  12
  -4   6  16 42.6164 8.29124  11
  -4   6  16 19.6976 14.9446   3
  -2   6 -16 62.4415 14.7890   3
  -6   2  16 52.8778 9.18911   7
  -2   6 -16 44.9065 13.0968  10
  -4  -2  16 54.7313 9.74740   7
   2  -6  16 57.0216 10.3077   5
   6  -4  16 55.4785 11.9318   8
   2  -6  16 28.2637 10.2421   9
  -6   2 -16 49.2889 9.49629   7
  -4   6 -16 54.5337 15.1425   3
   6  -2 -16 55.8874 11.6803   6
   4   2  16 45.2916 11.2910   8
   6  -2 -16 59.8995 13.6986   2
  -2  -4 -16 34.8276 11.4563  12
  -6   4  16 70.5229 15.7546   3
  -6   2 -16 79.0085 14.5864  11
   4  -6 -16 56.9099 10.0707   4
  -4  -2  16 44.2579 10.8118  12
  -6   4  16 32.6320 10.3771  11
   4  -6 -16 61.9970 10.5102   9
   2   4 -16 43.1775 10.7375   6
   4   2  16 54.8689 7.81403  11
  -4   6 -16 44.2616 13.4861  10
  -4   6 -16 39.5065 8.16074  11
   6  -4  16 54.4057 14.4649   2
   6  -4  16 26.8800 9.42830  11
  -2  -4 -16 43.9121 10.5332   4
  -2   6  16 49.8896 11.9736   8
   6  -2 -16 50.7849 9.62619  11
  -2   6  16 71.3952 14.6918  10
   4   2  16 30.2684 12.5759   2
  -5   6  16 57.8578 10.3604  11
  -5   6  16 89.6544 16.5942  10
   1  -6 -16 75.2415 11.9971   9
   6  -5 -16 72.3810 13.9691  11
  -5  -1 -16 71.2182 11.3823   7
   1  -6 -16 69.5781 12.8170   4
   6  -5 -16 81.6185 15.0593   2
  -6   5 -16 95.7538 15.5444  10
  -6   1  16 74.4855 11.6495   7
   6  -1  16 66.8623 10.5871  11
  -1   6 -16 88.5144 16.6971   3
  -1   6 -16 104.779 15.9121  10
   5   1 -16 72.1581 13.1563   6
   6  -1  16 64.1220 13.1223   8
  -1  -5  16 89.0573 11.0313   7
  -6   5 -16 96.7537 18.2920   3
  -1  -5  16 114.789 14.4392   5
   6  -5 -16 86.9896 11.6880   9
  -6   5 -16 64.9162 11.9980  11
   6  -1  16 77.1872 14.8661   2
   1   5  16 83.2289 13.4821   2
  -5  -1 -16 64.5331 12.8719  12
  -5   6  16 68.1241 17.6345   3
   1   5  16 90.1778 13.9883   8
   5  -6  16 78.2987 10.9652   9
  -5  -1  16 63.2533 11.3937   7
   5  -6 -16 84.8760 11.9665   9
  -6   5  16 56.5585 11.6969  11
   5   1  16 71.3890 15.2412   2
   6  -5  16 53.8632 9.94668   9
  -1   6  16 81.3505 15.2699  10
   6  -1 -16 89.9740 16.0452   2
  -1  -5 -16 80.4626 12.9954   4
  -1  -5 -16 77.7831 13.5090   9
   5  -6 -16 89.7769 11.3189   4
   5   1  16 92.1702 10.6336  11
   6  -1 -16 67.6429 10.4576  11
  -1   6  16 66.9019 12.8244   8
   6  -5  16 85.8207 15.5424   2
  -6   5  16 87.5861 17.8695   3
  -5   6 -16 75.4706 10.9262  11
   6  -1 -16 104.163 14.0613   6
  -1  -5 -16 85.5401 13.0702  12
   5   1  16 83.0472 12.8313   8
   1  -6  16 122.053 14.5071   9
  -5   6 -16 49.9290 13.2428  10
  -5   6 -16 54.0677 17.5016   3
  -6   1 -16 73.0469 12.3911   7
   1  -6  16 86.4617 13.2511   5
   0   0 -17 25.2192 20.6162   1
  -1   1 -17 2248.92 52.9317  11
  -1   1  17 2294.20 52.7377  11
  -1   0  17 2263.53 51.6448   7
   0  -1 -17 2338.18 51.8205   9
   0   1 -17 2296.19 51.6613  11
   0   1  17 2339.90 52.5460   3
   0  -1  17 2333.39 49.6330   9
   1   0  17 2185.10 52.3306  11
  -1   1  17 2307.77 54.1348   3
   1  -1  17 2219.75 52.1313  11
   1  -1 -17 2326.75 53.8427   6
  -1   0  17 2354.59 54.1668   3
   0  -1 -17 2299.83 55.0666   6
   1   0 -17 2153.68 52.1850  11
   0  -1  17 2298.38 52.1220   5
  -1   0 -17 2269.89 50.8010   4
   0  -1 -17 2244.48 52.8304  11
  -1   0 -17 2244.20 53.1684  11
  -1   0  17 2353.46 52.3547  11
   1   0 -17 2323.17 51.6212   2
   0  -1 -17 2247.92 51.7153   4
   0   1  17 2283.79 53.6231  10
   0  -1  17 2336.31 51.5157  11
   0  -1  17 2328.64 51.3967   8
  -1   0  17 2284.25 52.5298  10
   1  -1  17 2317.12 51.7054   5
  -1   1  17 2242.71 51.7448   8
   1   0  17 2298.20 51.9298   2
   0   1 -17 2353.50 54.3391   6
   0   1 -17 2236.67 52.0119  11
  -1   1 -17 2339.63 55.7235   6
   1  -1 -17 2247.32 52.8825  11
  -1   0  17 2249.35 50.4708   8
   0   1 -17 2211.98 50.5452   4
   0  -1  17 2360.92 52.8899  10
   0   1  17 2191.16 52.2301  11
   1  -1 -17 2384.42 50.5974   9
  -1   0 -17 2335.89 56.4141   6
   0   1  17 2240.44 52.7315   8
   1  -1  17 2366.81 50.8653   2
   1   0  17 2329.02 53.2368   8
   1   0  17 2191.41 52.9353  10
   1  -1  17 2281.69 53.0350  10
   1  -1  17 2295.98 52.8214   8
  -1  -1  17 1990.91 45.3786  10
   1  -2 -17 1968.04 46.3035   4
  -2   1 -17 1950.75 50.4799   6
   2  -1  17 1935.31 47.5159   8
   1   1 -17 1910.80 44.7456  11
  -2   1 -17 2043.04 45.6012  12
  -2   1  17 1955.52 48.8848   3
   1   1 -17 2032.59 44.1798   2
  -2   1  17 2023.28 44.4670   7
   1   1  17 1881.46 46.9516   8
   1   1  17 1958.46 46.7428  10
   2  -1  17 1963.07 46.3483  11
   1   1 -17 1960.57 43.0257   9
   1   1 -17 2010.77 44.9702  11
   1  -2 -17 1852.75 46.1080  11
   2  -1 -17 1931.52 47.0059   2
   1  -2  17 1994.78 44.5537   9
  -1   2  17 1959.17 46.2060  11
  -2   1  17 1974.61 46.6618  11
  -2   1 -17 1922.72 47.3987  11
  -1  -1 -17 1941.78 45.5052   4
  -1  -1 -17 1889.84 49.6578   6
   1  -2  17 2125.45 45.2955  11
   2  -1 -17 1901.25 46.7042   6
  -1   2  17 1947.98 47.9482  10
  -1   2  17 1941.19 46.4677   8
   2  -1  17 1952.08 46.4212  10
   1  -2 -17 1980.92 47.2879   6
   2  -1 -17 1948.41 43.7377   9
   1   1 -17 1945.15 47.3878   6
  -1  -1  17 1930.32 45.8010   7
  -1   2 -17 2021.25 45.9632  11
  -1  -1  17 2025.60 44.6746  11
   1  -2 -17 1989.32 45.3525   9
   1  -2  17 1952.48 45.8184   5
   1  -2  17 1989.23 46.5908   8
   2  -1  17 1942.66 43.3016   4
  -1   2  17 1911.87 47.5762   3
  -1  -1 -17 1928.39 46.8084  12
   1   1  17 1929.85 45.7640  11
  -1  -1  17 1928.94 45.4855   5
  -1   2 -17 1858.23 47.8361   6
   2  -1  17 1957.42 44.0903   5
  -1  -1 -17 1944.00 44.0043   3
   2  -1  17 1976.58 46.1481   2
   2  -1 -17 1918.64 46.5000  11
  -2   1 -17 1945.26 46.0583   3
  -1   2 -17 2006.36 42.6778   2
  -1  -1 -17 2038.59 46.7634  11
   1   1  17 1878.63 46.2771   2
  -2   1  17 1913.81 46.3164  10
  -1  -1  17 1889.33 43.3899   2
  -1   2 -17 1892.19 44.8576  11
   0   2  17 1209.49 32.2646   8
   0   2 -17 1275.28 29.2996  11
   0  -2 -17 1263.14 33.1342   6
   0  -2 -17 1244.17 31.3806   9
   2  -2 -17 1283.74 31.5169   6
   2  -2  17 1219.24 32.5636   8
  -2   0 -17 1291.03 29.5087   3
  -2   2 -17 1241.87 32.4911   3
   0  -2 -17 1224.33 31.7291  12
   0   2  17 1292.15 30.7539   3
   0  -2 -17 1291.05 28.5221   7
   2  -2 -17 1269.35 29.8556   9
   2  -2 -17 1197.69 32.9115   2
  -2   0  17 1272.81 30.0158  10
  -2   2  17 1320.43 27.7050   7
   2  -2  17 1222.47 30.9692  11
   2  -2  17 1239.52 30.1803   5
   2   0  17 1218.50 31.6211  11
   0   2 -17 1215.78 32.2944   6
   0   2  17 1233.73 32.6895  10
  -2   2 -17 1218.40 33.9728   6
   0  -2  17 1173.16 32.6043   7
  -2   0 -17 1199.11 32.2032  11
   2   0  17 1283.58 28.1498   5
   2   0 -17 1143.04 37.7534   6
   2   0  17 1248.16 30.9299  10
  -2   0  17 1230.83 33.1386   3
  -2   0  17 1213.27 30.2113   5
  -2   0 -17 1255.47 31.5320  12
   0  -2 -17 1239.82 30.9930  11
   0   2  17 1140.82 31.6602  11
   0  -2  17 1268.37 29.1428   9
   2   0 -17 1210.28 31.3100   2
  -2   0 -17 1275.78 30.2159   4
  -2   2 -17 1223.86 32.4158  11
   0   2 -17 1262.33 28.8559  11
  -2   2  17 1242.30 32.8482  10
   0  -2  17 1323.61 29.0233  11
   2  -2 -17 1195.34 31.5751  11
  -2   0  17 1253.23 30.8513  11
   2   0  17 1145.00 34.1371   8
  -2   0 -17 1253.65 36.4471   6
  -2   0  17 1246.27 30.4827   7
   2  -2  17 1282.49 30.7293   2
   2   0  17 1241.28 31.8611   2
  -2  -1 -17 580.951 18.0063   4
  -1  -2  17 588.963 16.7456   9
   3  -1  17 624.954 14.5970   5
   1  -3 -17 606.189 18.6095   4
  -3   2 -17 595.521 17.1457  12
  -3   1  17 577.446 18.7470  11
   2  -3  17 614.152 17.1948   2
  -2  -1 -17 614.542 18.9674  11
   2  -3  17 596.708 19.7255   8
   2  -3  17 587.427 17.6672   9
  -1  -2  17 618.810 19.3910  12
   2  -3  17 591.284 17.8699   5
   3  -2 -17 599.373 18.3884   6
   3  -2 -17 608.219 20.4254   2
   3  -1  17 602.271 18.8311  11
   1   2  17 581.361 16.8599  11
  -2   3  17 610.461 21.2532   3
   2   1 -17 609.093 19.5699   6
   2   1 -17 592.539 16.4725  11
  -2  -1 -17 575.397 22.1210   6
  -1   3 -17 592.954 16.4168  11
  -2  -1 -17 587.216 18.9825  12
   1   2  17 593.435 18.8392  10
   1  -3 -17 611.348 17.6810   6
   1  -3 -17 601.422 18.1622   9
   1  -3 -17 608.448 18.0932  11
  -3   2 -17 571.996 19.7866   3
   3  -2 -17 609.569 19.0699  11
   2   1 -17 617.771 18.0399   2
  -3   1  17 600.356 17.2450   7
  -1  -2  17 595.080 17.7476   5
  -3   1  17 590.468 17.2441  10
  -1  -2  17 616.520 15.0331  11
  -1   3 -17 616.475 15.8715  11
  -2   3  17 600.338 20.7155  10
  -3   1  17 605.868 20.9367   3
  -3   2 -17 613.265 20.0399  11
  -1  -2  17 593.566 18.0137   7
  -3   2 -17 595.843 21.7167   6
  -1   3 -17 590.534 19.9162   3
  -2   3  17 611.601 18.5236  11
   3  -1  17 609.964 19.6307   2
   3  -1  17 608.270 19.7837   8
   3  -2 -17 590.243 16.7652   9
   1   2  17 596.873 19.3307   8
   2  -3  17 614.178 17.4668  11
  -2  -1 -17 596.602 17.6610   7
   1   2  17 601.413 18.9805   2
  -1   3 -17 574.593 19.2546   6
  -3   1 -17 576.776 17.1066  12
   1   2 -17 568.748 14.4524  11
  -1  -2 -17 577.164 18.8407   9
  -1   3  17 546.658 19.0926   3
   1   2 -17 576.892 18.6046   6
   1   2 -17 592.422 15.5908   2
  -2   3 -17 571.499 17.6712  11
   3  -1 -17 564.898 19.4694   2
  -3   1 -17 596.574 18.4290   3
   2  -3 -17 604.707 17.0642   6
  -1  -2 -17 567.974 16.0405   7
  -2   3 -17 589.625 19.9629   3
   3  -2  17 574.792 18.2521  11
  -3   1 -17 586.728 19.7416  11
  -2  -1  17 532.565 18.9368   5
  -1   3  17 588.399 18.7892   8
   3  -2  17 558.512 15.7205   5
   1   2 -17 597.275 14.0129   8
   1  -3  17 586.803 15.2418   4
  -3   2  17 566.730 15.8927   7
  -1  -2 -17 589.538 18.9789  12
  -2  -1  17 611.124 19.3667  12
  -2  -1  17 569.747 17.4354   7
  -2  -1  17 594.348 16.2640  11
  -3   1 -17 568.889 22.1782   6
   2   1  17 573.714 17.0523  10
   2   1  17 594.102 17.3411  11
   2  -3 -17 595.711 18.1314  11
  -1   3  17 591.964 17.0968  11
   2   1  17 564.664 18.9132   8
  -2   3 -17 571.361 19.4309   6
   2   1  17 586.795 18.9188   2
  -3   2  17 539.544 20.3994  10
  -1  -2 -17 564.534 17.7421   4
  -1  -2 -17 540.499 22.7347   6
   2  -3 -17 561.680 17.0828   9
   1  -3  17 606.333 15.7065  11
   1  -3  17 583.747 16.6427   9
  -1  -2 -17 608.646 17.7389  11
  -1   3  17 556.370 19.7092  10
   1   2 -17 601.940 15.1221  11
   1  -3  17 597.058 18.0355   5
   3  -1 -17 581.093 18.1355  11
  -3   2  17 580.833 18.9786  11
   3  -1 -17 573.178 18.4778   6
   3  -3  17 70.2391 6.17265   5
   0  -3 -17 68.5237 6.83522   9
  -3   3 -17 54.1308 7.01568   3
   3  -3  17 62.2486 6.56554  11
   3  -3 -17 86.6001 7.07827   6
   3  -3  17 69.6174 7.88232   2
   3  -3 -17 71.6700 5.95188   9
   3  -3  17 72.8196 7.75400   8
   0   3  17 61.6524 6.15782   3
   0  -3  17 71.8258 6.00368   4
  -3   0  17 60.6198 7.68004   3
  -3   3  17 52.9465 7.55091  10
   3   0 -17 65.3031 7.44165   2
  -3   0  17 62.8977 4.57131  10
   3  -3 -17 63.6952 7.69726   2
   0  -3  17 70.3885 7.03552   5
   3   0 -17 67.5356 5.73168  11
  -3   0 -17 56.6802 5.59946   3
  -3   3 -17 61.9098 3.77353  12
   0  -3 -17 64.9825 6.23839   4
   0  -3 -17 63.1931 4.32688   7
  -3   0 -17 55.7867 6.35010  12
  -3   3  17 67.2511 6.52649  11
   0   3 -17 59.6955 6.86782   6
  -3   0 -17 64.0478 6.31776   7
   3   0  17 61.5856 7.22233   2
  -3   0 -17 67.6571 8.72714  11
   3   0  17 62.2617 5.31008  10
   0   3  17 59.1363 7.07156  10
   0  -3 -17 61.9057 6.25535  11
   3   0  17 63.0533 7.11658   8
  -3   0  17 69.4409 6.72342  11
   0   3  17 61.8860 4.88139  11
   0   3  17 70.9937 7.53444   8
   3   0 -17 60.2865 6.69431   6
  -3   0 -17 58.1909 5.90123   4
   0  -3  17 61.0545 5.62541   9
   3  -3 -17 51.8773 6.68122  11
  -3   3  17 50.7830 7.93087   3
  -3   0 -17 54.9277 8.79726   6
   3   0  17 66.4704 6.21337  11
  -3   3 -17 54.0675 6.82313  11
  -3   0  17 59.1772 5.71704   7
   0   3 -17 60.6088 4.39289   2
   0  -3 -17 68.2159 6.78220  12
   0  -3  17 62.8558 6.00912   7
   2  -4  17 167.947 9.57181   9
  -4   2 -17 153.066 12.8119   6
   2  -4  17 143.300 9.60968   5
  -4   2  17 164.641 8.34796   7
  -2   4 -17 160.070 8.38744  11
   4  -2  17 168.658 10.6022  11
  -4   2  17 151.480 13.0779   3
   4  -2  17 160.845 11.8515   2
  -2  -2 -17 152.797 10.5207  12
   2  -4 -17 142.784 9.26145   9
  -4   2 -17 152.631 8.09552  12
  -2   4  17 144.682 13.1122   3
  -2   4  17 135.769 10.4075   8
   2  -4 -17 155.121 8.81535  12
   2   2  17 155.156 10.7687   8
   2   2 -17 145.943 9.58333   2
   2   2  17 168.707 10.8275   2
   4  -2  17 150.646 10.9236   8
  -2  -2  17 157.815 8.83761   5
   2  -4 -17 154.324 9.80502  11
   2   2  17 140.657 9.17258  10
  -2   4 -17 161.717 12.1157   3
  -4   2  17 150.580 10.9548  11
   2   2  17 156.083 7.96371  11
  -4   2 -17 153.951 12.6751   3
  -2  -2  17 157.616 9.27921   7
  -2   4 -17 150.940 10.8961   6
  -2   4  17 130.837 11.5264  10
  -4   2 -17 157.202 11.6416  11
   2   2 -17 167.037 10.6856   6
   4  -2 -17 153.714 10.6732   6
   4  -2 -17 143.950 10.0893  11
   4  -2 -17 152.833 12.6246   2
  -2  -2  17 166.463 10.8269  12
  -2  -2 -17 159.033 8.80756   7
   2  -4 -17 178.224 10.6349   4
  -2  -2 -17 156.570 9.73755   4
  -2   4  17 160.190 8.85055  11
   3  -4  17 30.1312 5.62368   5
   1   3  17 30.7863 6.28584  10
   1   3  17 29.4876 4.14363  11
  -4   1  17 26.2868 6.12846  11
  -1  -3  17 9.53810 5.35805  12
  -3  -1 -17 15.1857 5.01259   4
   1   3  17 35.6191 6.76640   8
  -3   4  17 27.7363 8.35252   3
  -3   4  17 32.5825 7.80049  10
  -4   1  17 28.2489 7.77267   3
   4  -3 -17 20.9711 5.77142   6
  -3  -1 -17 18.8268 6.21124  11
  -3   4  17 20.0180 4.62438  11
   4  -1  17 34.5079 7.16258   2
   3   1 -17 19.4965 3.73078  11
   3   1 -17 18.0282 6.14851   2
  -4   1  17 23.3955 4.54824   5
   4  -1  17 28.5405 5.83704   8
   1  -4 -17 23.9434 5.22018   9
  -4   3 -17 20.6425 7.08829   6
   3   1 -17 11.5816 5.58739   6
  -1  -3  17 23.8722 5.38014   9
  -1  -3  17 29.0243 5.19691   7
   4  -1  17 20.9357 4.54892  11
  -1   4 -17 15.9206 6.12984   3
   3  -4  17 21.5162 5.09683   9
  -4   3 -17 15.4365 7.31238   3
  -3  -1 -17 24.4125 5.82576  12
   3  -4  17 31.2292 9.56804   2
  -4   1  17 25.5255 4.82245   7
  -1  -3  17 16.9879 5.30655   5
   1   3  17 23.4789 5.35956   2
   1  -4 -17 30.7605 5.39216  12
   4  -3 -17 28.6302 7.22479   2
   3  -4  17 27.6028 5.32966  11
  -4   3 -17 21.2534 5.90939  11
  -3  -1 -17 21.1285 4.91341   7
   1  -4 -17 21.5051 5.27714   4
   4  -3 -17 30.3956 4.88910   9
   4  -3 -17 23.7533 5.52993  11
   3  -4 -17 15.7985 3.73046  12
   4  -3  17 9.15708 6.62174   2
  -4   1 -17 13.7066 6.58014   3
  -1   4  17 21.3020 6.78029   3
   3   1  17 17.5775 5.40032   8
   4  -1 -17 20.0346 6.52433   2
  -4   1 -17 15.3032 5.89921  11
  -1   4  17 11.7484 3.53714  11
   1  -4  17 15.9261 4.94791   9
   3   1  17 19.1948 4.07775  11
  -3  -1  17 20.2162 4.59142   5
  -4   1 -17 14.3763 4.75595   7
   4  -1 -17 17.1102 5.80329   6
   1  -4  17 16.8953 4.68797   4
  -4   3  17 22.8629 5.90712  11
  -1  -3 -17 16.1944 4.16547   7
   3  -4 -17 12.0450 4.95454  11
   3  -4 -17 15.8466 4.89466   4
  -3   4 -17 28.7501 6.63343   6
  -3   4 -17 23.3702 5.21015  11
  -1  -3 -17 15.0858 5.30613   9
  -1   4  17 9.65167 4.60300   8
  -4   1 -17 7.75680 4.46633  12
   3  -4 -17 15.5837 4.46934   9
   1  -4  17 18.9126 5.03780   5
   3   1  17 21.9284 5.10296   2
  -1   4  17 11.1316 6.43918  10
  -4   3  17 17.7023 6.76893  10
  -4   3  17 17.9331 3.79728   7
   1   3 -17 18.9024 6.70400   2
  -1  -3 -17 13.4069 5.27409  12
  -3   4 -17 19.8699 6.11104   3
   4  -3  17 23.0550 4.22549   5
   4  -3  17 9.94917 4.99667  11
   3   1  17 18.0283 4.14665  10
  -3  -1  17 11.6087 5.18651  12
   4  -3  17 14.7309 5.82947   8
  -4   3  17 15.5623 7.31830   3
  -3  -1  17 23.5814 4.98627   7
  -1  -3 -17 12.0738 4.74915   4
   4  -1 -17 17.7303 4.57685  11
   1   3 -17 21.4934 5.40543   6
   4  -4 -17 4.26922 5.55949  11
   4   0 -17 4.33030 7.04391   2
   0  -4  17 0.68371 5.20884   9
   0  -4 -17 -0.7643 5.00385   9
  -4   0  17 8.81001 4.83483   7
  -4   4 -17 -5.0472 4.82519  11
  -4   0 -17 2.09096 6.61671  11
   4  -4  17 5.75585 4.93588   5
   0  -4 -17 3.07729 5.22062   4
   0   4  17 12.1773 6.61671   8
   4   0  17 -7.5813 5.78752   2
  -4   4  17 9.65962 7.88208   3
   0  -4  17 1.80548 4.71992   7
   4   0  17 2.35317 4.06247  11
   0   4  17 2.54251 3.12609  11
   4  -4 -17 3.10777 4.47545   9
   4  -4  17 17.1190 4.89408   9
  -4   0  17 8.93915 7.05534   3
   0   4 -17 8.34190 6.27839   6
  -4   0 -17 0.40928 5.32230  12
   4  -4  17 4.26962 5.67987  11
   4   0 -17 8.29776 4.29811  11
  -4   0  17 3.96447 4.99383   5
  -4   4 -17 2.46120 8.19959   3
  -4   4  17 8.41366 7.44139  10
   0  -4  17 6.87726 5.37792   5
   0   4 -17 4.02116 4.70619   8
   4  -4 -17 1.76355 6.78233   2
  -4   4 -17 -4.9046 6.79117   6
   4  -4  17 3.83856 6.43838   8
  -4   4  17 6.88313 4.98527  11
   4   0  17 1.55287 5.91790   8
   0  -4 -17 -4.0881 4.88181  12
   4  -4  17 8.25130 7.64303   2
   0   4 -17 -8.9220 5.88747   3
   0  -4  17 7.80857 6.03379   4
  -4   0 -17 -3.5124 4.85583   7
   4   0 -17 -3.9097 5.36327   6
   0   4  17 4.90480 6.36593  10
  -5   2  17 213.205 18.6145   3
  -3  -2 -17 208.243 12.4488   7
  -5   2  17 199.631 11.7176   7
   5  -2  17 195.784 16.6497   2
   3   2 -17 243.492 14.6981   2
  -2  -3  17 187.532 17.3255  12
  -3  -2 -17 211.775 20.1508  12
   2   3  17 208.475 14.4748   8
   5  -3 -17 199.340 23.7406   2
   5  -2  17 206.321 15.2474   8
  -2  -3  17 198.923 12.9953   5
  -5   3 -17 190.627 19.0521   3
  -5   3 -17 223.093 16.6334  11
   3   2 -17 188.772 14.2410   6
   2  -5 -17 197.474 16.3563   9
  -3   5  17 208.132 12.1710  11
   3  -5  17 211.968 13.5380   5
   5  -3 -17 197.458 14.2905  11
  -3   5  17 192.130 20.0464  10
  -3  -2 -17 205.248 13.7078   4
   5  -3 -17 193.323 14.7117   6
  -3   5  17 208.115 19.5193   3
  -5   2  17 213.221 15.8895  11
   3  -5  17 219.709 13.1955   9
   2  -5 -17 173.825 18.8072   4
   2   3  17 209.795 9.58833  11
  -2   5 -17 218.086 17.0779   3
   5  -3 -17 215.783 11.5519   9
   5  -2  17 194.151 16.7547  11
  -3  -2  17 196.638 12.5585   5
   5  -3  17 183.827 16.9488   2
   3   2  17 188.547 14.1047   8
   3   2  17 182.981 10.3917  11
   2  -5  17 193.523 15.5421   5
  -5   2 -17 223.277 26.5831   3
  -5   3  17 205.586 20.1814   3
  -3  -2  17 156.405 13.4745   7
   5  -3  17 186.496 13.3364  11
   5  -2 -17 190.645 15.9218  11
  -5   2 -17 179.052 15.6254  11
  -5   3  17 186.076 16.1986  10
   3  -5 -17 167.206 12.8622   9
   2  -5  17 192.829 13.3564   9
  -5   3  17 161.664 14.6209  11
  -2   5  17 180.074 17.3673   3
  -2   5  17 199.143 10.5492  11
  -3   5 -17 200.870 11.0003  11
   5  -2 -17 182.966 14.5470   6
   5  -2 -17 204.733 16.2839   2
   2   3 -17 179.595 14.3361   6
  -3  -2  17 200.430 18.7680  12
  -2   5  17 185.927 15.7541   8
  -2  -3 -17 177.831 11.5588   7
   3  -5 -17 175.379 12.8372   4
   1  -5 -17 251.258 14.9895  12
  -1  -4  17 251.599 14.4796   5
  -1   5 -17 233.075 18.1354   3
   5  -1  17 219.696 14.2867  11
   1   4  17 231.281 15.0011   2
  -4   5  17 236.825 20.6774   3
   1   4  17 218.578 15.8900   8
  -5   4 -17 254.468 16.1537  11
  -5   1  17 227.251 13.6773   7
   4  -5  17 230.849 15.5991   5
   5  -1  17 204.217 17.1659   2
   5  -4 -17 233.530 16.0171  11
   4   1 -17 232.178 17.5556   2
   1  -5 -17 230.138 15.1990   9
  -4  -1 -17 224.569 14.0138   7
   4  -5  17 224.377 13.5136   9
   5  -4 -17 248.211 13.6293   9
  -1  -4  17 230.937 20.2891  12
  -4   5  17 228.487 14.5391  11
  -1  -4  17 228.541 13.8589   7
  -5   1  17 204.503 18.4491   3
  -5   4 -17 167.728 26.8483   3
   4   1 -17 215.746 15.8478   6
  -1  -4  17 245.818 15.3412   9
   5  -4 -17 221.427 17.3901   2
  -4  -1 -17 209.652 16.2363  12
   4   1 -17 235.489 11.0195  11
   1  -5 -17 218.530 14.7558   4
   1   4  17 260.836 16.7645  10
  -1   5 -17 236.202 16.8014  10
  -4   5  17 205.803 18.3051  10
  -4   5 -17 200.906 13.5074  11
   4  -5 -17 229.667 13.8305   4
   4  -5 -17 223.912 14.0886   9
  -1  -4 -17 214.479 15.5022   9
   4   1  17 220.894 16.6724   2
   1   4 -17 261.045 15.6876   3
   1  -5  17 239.925 15.0621   9
  -5   1 -17 203.568 17.9869  11
   5  -4  17 202.967 16.0859   8
  -4  -1  17 208.156 15.2497  12
  -4  -1  17 220.497 13.6905   7
  -5   1 -17 228.941 13.7289  12
  -5   4  17 206.531 15.4533  11
   1  -5  17 219.080 14.5510   5
  -1  -4 -17 219.817 15.4985  12
   5  -4  17 240.268 15.8189  11
   5  -4  17 211.033 17.9411   2
   4   1  17 215.947 16.4192   8
   4   1  17 215.320 12.7713  11
  -4   5 -17 198.717 18.3400   3
   5  -1 -17 235.982 20.6109   2
  -5   4  17 215.830 20.8377   3
  -5   4  17 226.554 17.5404  10
   5  -1 -17 191.205 15.6174   6
  -1  -4 -17 203.324 14.2333   4
   5  -1 -17 214.458 13.5091  11
  -1   5  17 232.665 9.89224  11
  -1   5  17 212.356 15.7381   8
   5  -4  17 202.416 13.1404   9
   1   4 -17 223.470 16.0722   6
  -5   1 -17 196.013 14.2962   7
   0   5  17 -10.688 8.75164   8
   5   0  17 7.51354 6.47001  11
   5  -5  17 12.0758 19.4555   2
   5  -5 -17 1.74508 9.84802   2
   5   0 -17 16.1313 9.00298   6
   5   0  17 0.65034 9.82390   2
  -5   0 -17 -18.220 7.18680   7
   0   5 -17 -15.275 11.1922   3
  -5   5 -17 29.5177 13.2154   3
   0  -5 -17 -7.0707 7.58403   4
  -5   5  17 -2.8128 6.93126  11
   0  -5  17 21.5931 10.4786   9
   0   5  17 7.96286 8.08169   2
   0  -5 -17 1.79854 8.58051  12
   0  -5  17 -4.1403 8.19427   5
  -5   0 -17 0.46935 7.89562  12
  -5   5  17 -5.2462 12.0084   3
   5   0 -17 0.28512 11.1440   2
  -5   0  17 -4.9703 6.91401   7
   5  -5 -17 0.48594 6.86117   9
   5   0 -17 -2.6071 5.62075  11
  -5   5 -17 0.63746 7.30686  11
   5  -5  17 1.34867 6.62707   9
   5  -5 -17 4.36049 11.5316  11
   0   5  17 -17.984 9.93059  10
  -5   5  17 10.9182 11.4846  10
   0  -5 -17 11.1216 7.93544   9
   5  -5 -17 -2.4932 7.15907   4
   5   0  17 -12.138 8.42663   8
  -3   6 -17 559.635 27.4984  10
  -3  -3 -17 570.658 22.6372   7
  -6   3 -17 555.663 23.6887   7
  -3  -3  17 572.812 26.1241  12
   3   3  17 522.673 30.4498   8
   3  -6 -17 525.383 24.1806   9
  -6   3  17 557.120 27.2597  11
  -3   6  17 504.747 29.1779  10
  -3   6 -17 602.215 30.9538   3
   6  -3 -17 562.671 21.7549   9
  -3  -3 -17 564.398 25.6975   4
   3  -6  17 547.203 24.6455   5
   6  -3 -17 568.153 25.0343  11
   6  -3 -17 521.759 27.5663   2
   6  -3  17 610.239 30.0828   2
   3   3  17 585.684 27.5529   2
   6  -3 -17 623.870 26.7430   6
   6  -3  17 559.237 27.2538   8
  -6   3  17 529.735 30.9511   3
  -3   6  17 565.853 31.6232   3
  -3  -3  17 522.984 22.9205   7
   3  -6  17 508.245 24.1410   9
  -3   6  17 557.349 20.4932  11
   3  -6 -17 563.613 24.3670   4
  -6   3 -17 573.737 28.1332  11
  -3  -3 -17 536.116 26.5514  12
  -3   6  17 562.786 26.4689   8
   6  -3  17 579.205 25.5908  11
   3   3 -17 608.720 26.6093   6
   6  -4 -17 97.6540 16.3409   2
  -2   6 -17 157.230 17.2440  10
  -4   6  17 131.351 12.9959  11
  -2  -4  17 142.883 14.1164   7
   6  -2  17 155.495 19.0222   8
   4  -6  17 141.433 15.1218   9
   6  -2  17 144.259 14.3253  11
   2  -6 -17 165.640 16.0725   4
  -4  -2 -17 117.469 14.2265   7
  -6   2  17 153.519 19.4621   3
   2  -6 -17 127.296 15.9862   9
  -4   6  17 151.624 17.4741  10
  -6   4 -17 121.077 20.2461   3
   2   4  17 131.347 14.7380   2
  -6   4 -17 135.805 14.4009   7
  -6   4 -17 108.065 14.5459  11
   4  -6  17 112.641 13.2449   5
   6  -4 -17 119.720 13.9851   9
   2   4  17 151.928 17.7672   8
   6  -4 -17 127.059 16.3621  11
  -4   6  17 107.677 17.9697   3
  -6   2  17 122.069 13.7745   7
  -4  -2 -17 120.501 14.4538  12
   6  -2  17 124.026 16.4466   2
  -2  -4  17 124.901 14.7929  12
  -2   6 -17 120.654 17.7442   3
   4   2 -17 135.258 14.5282   6
  -4  -2 -17 158.614 16.1740   4
  -6   2 -17 145.096 15.2359   7
   6  -2 -17 134.513 14.5825  11
   6  -4  17 148.575 17.4386   2
  -6   2 -17 152.516 17.7458  11
   6  -4  17 148.696 17.4648   8
  -2  -4 -17 127.922 15.7804   4
  -2   6  17 138.559 17.1858   8
   2  -6  17 145.251 14.9511   5
  -4   6 -17 132.268 17.8671   3
  -6   4  17 140.674 19.0796   3
   6  -2 -17 112.571 16.1066   2
   4  -6 -17 134.021 15.4830   9
  -2   6  17 145.399 17.7369  10
   4  -6 -17 149.695 15.1824   4
   4   2  17 133.914 11.5885  11
  -4   6 -17 132.010 16.2003  10
  -4  -2  17 124.416 13.9912   7
  -4  -2  17 150.925 17.5249  12
   6  -4  17 141.712 17.0293  11
  -6   4  17 157.973 17.2252  11
   2   4 -17 145.594 14.8388   6
  -2  -4 -17 142.264 18.2407  12
   4   2  17 144.927 16.0638   2
  -4   6 -17 132.163 13.1633  11
   6  -2 -17 144.078 18.3086   6
   4   2  17 123.881 14.4196   8
   2  -6  17 143.224 16.8860   9
   1   5  17 29.1546 12.1434   8
   6  -1  17 11.0283 12.7106   2
  -6   5 -17 19.5823 10.1366  11
  -1  -5  17 13.7396 9.10042   7
   6  -5 -17 12.4263 9.00691   9
  -6   1  17 16.1486 9.59287   7
  -5  -1 -17 30.1551 9.85982   7
  -6   5 -17 -9.7082 15.8391   3
   1   5  17 31.0787 10.9328   2
   1  -6 -17 48.4653 11.9395   4
  -6   5 -17 7.86608 14.0295  10
  -5   6  17 26.7310 9.12035  11
   5  -6  17 15.2557 8.96902   9
  -1   6 -17 14.5965 13.1717  10
  -1  -5  17 22.1995 11.1539   5
   6  -1  17 4.17557 7.93165  11
   6  -5 -17 13.8223 12.8983   2
   6  -1  17 21.6123 12.5855   8
   1  -6 -17 37.4021 11.1376   9
  -5  -1 -17 13.7360 11.2667  12
   5   1 -17 6.54332 10.7272   6
  -5   6  17 -2.0084 16.6662   3
  -5   6  17 20.8810 15.3048  10
  -1   6 -17 40.1635 14.9101   3
   6  -5 -17 13.3015 10.8740  11
  -5   6 -17 7.63363 12.0644  10
  -1  -5 -17 21.0222 11.2945   4
   5   1  17 9.37687 12.5144   2
   6  -1 -17 17.9428 8.58592  11
   6  -5  17 21.2174 8.63860   9
  -1   6  17 36.6049 14.3161  10
  -1   6  17 10.4946 11.4259   8
   1  -6  17 -4.2976 11.1498   9
   5  -6 -17 16.1395 8.95515   4
   5  -6 -17 19.6907 8.95826   9
  -5   6 -17 12.7283 8.79184  11
   6  -1 -17 48.2230 14.3940   2
  -5  -1  17 21.4903 9.54168   7
   1  -6  17 14.3517 10.2806   5
  -6   1 -17 24.6854 10.9539   7
  -1  -5 -17 28.9424 11.3456   9
   6  -1 -17 6.98580 11.0047   6
  -6   5  17 35.9602 15.5272   3
   5   1  17 7.84951 10.8953   8
  -5   6 -17 22.9256 16.3843   3
   6  -5  17 31.1267 13.9694   2
  -6   5  17 3.66154 9.38613  11
  -1  -5 -17 25.3172 10.3300  12
   0   0 -18 8775.64 188.946   6
   0   0  18 8824.78 183.670   9
   0   0 -18 8302.02 186.433  11
   0   0  18 8339.67 185.945  11
   0   0  18 8561.14 185.719   8
   0   0  18 8662.68 187.158  10
   1  -1  18 1784.37 41.1404   5
  -1   1  18 1804.77 43.1112  10
  -1   0  18 1772.19 43.5039   3
   0  -1  18 1845.19 40.9204   8
   1  -1 -18 1731.87 42.2205  11
  -1   1  18 1756.40 41.2177   8
   0   1 -18 1828.65 42.2834  11
   1  -1  18 1711.33 41.5509  11
   0   1  18 1793.09 41.9257  11
   1   0  18 1750.34 42.5323   8
   1   0  18 1819.80 42.7912  10
   0  -1  18 1723.58 42.2833   5
  -1   1  18 1805.75 42.3002  11
   0   1  18 1819.69 42.0542   3
  -1   0  18 1782.81 41.7428  11
   1  -1  18 1745.16 42.2225   8
   0   1 -18 1812.43 41.6861  11
   0  -1  18 1827.79 42.3260  10
   0  -1  18 1771.86 40.9772  11
  -1   0  18 1800.59 42.0930  10
   0   1 -18 1700.62 43.4335   6
  -1   1  18 1773.83 43.4850   3
   0  -1 -18 1818.13 41.2799   9
   1   0 -18 1797.03 43.4618   6
   1   0 -18 1735.50 41.7508  11
  -1   0 -18 1807.27 46.0786   6
   1   0  18 1745.24 41.2611   2
   1  -1 -18 1806.30 43.4703   6
   0  -1 -18 1785.02 42.4207  11
   0   1  18 1804.02 43.1962  10
  -1   0 -18 1811.52 40.2615   4
   1   0 -18 1793.70 40.8791   2
  -1   1 -18 1764.07 42.4287  11
   0  -1 -18 1766.04 41.1486   4
   1  -1 -18 1870.12 39.9750   9
  -1   0  18 1760.81 41.0425   7
   1  -1  18 1830.61 40.2310   2
  -1   1 -18 1798.71 45.0785   6
  -1   0 -18 1777.62 42.7430  11
  -1   0  18 1854.45 39.7134   8
   0  -1 -18 1767.81 44.7565   6
   0   1  18 1760.41 42.3204   8
  -1  -1  18 1012.37 25.3565  10
   2  -1  18 959.213 23.1375   4
  -2   1  18 1008.92 26.5249  11
  -1  -1 -18 970.304 24.2593   3
  -1  -1 -18 997.450 29.6646   6
   2  -1 -18 1037.04 27.0599   2
  -1  -1  18 965.661 25.4323   5
   1  -2  18 1048.39 24.5083   9
   2  -1  18 1023.31 26.5023  10
   1   1  18 977.801 26.2225   2
   1   1  18 981.731 26.9544   8
  -1  -1 -18 1031.39 27.0212  12
  -2   1  18 1021.05 24.4582   7
  -2   1 -18 990.765 30.1493   6
  -2   1  18 999.658 26.3853  10
  -2   1  18 975.889 28.4593   3
   2  -1 -18 1003.92 26.7769   6
  -1   2 -18 1060.34 26.0389  11
   1   1 -18 1057.08 22.9255   9
   1   1 -18 1009.57 24.9458  11
   1   1  18 975.680 25.6381  11
  -1   2  18 1001.04 26.3393   8
  -1  -1 -18 1014.55 25.4942   4
  -1  -1  18 990.729 23.3082   2
  -2   1  18 1058.00 24.3247   8
  -1  -1 -18 1013.78 26.6108  11
   2  -1  18 992.750 27.5134   8
  -2   1 -18 1015.56 26.1057   3
   1   1 -18 1005.90 27.3140   6
  -1   2 -18 1015.15 28.1332   6
   2  -1  18 1010.83 24.1486   5
  -1   2  18 1005.64 27.6244   3
   2  -1  18 1024.78 26.5026  11
  -1   2  18 1008.32 27.8384  10
   1   1  18 1004.32 26.7363  10
   1  -2 -18 1022.05 27.4811   6
   1  -2 -18 1018.28 25.1854   9
   1  -2 -18 1033.50 26.3559   4
   1  -2  18 1044.70 26.6214   8
   1  -2  18 1028.91 25.9042   5
  -2   1 -18 1009.88 27.4312  11
   1  -2 -18 991.311 26.2183  11
   1   1 -18 1025.66 25.0230  11
  -1  -1  18 1032.92 24.7331  11
   2  -1 -18 1053.50 23.7591   9
   1   1 -18 1055.74 23.9976   2
   2  -1 -18 1001.16 26.4747  11
  -1  -1  18 982.450 25.7402   7
   2  -1  18 1033.30 26.0932   2
   1  -2  18 1084.93 25.2218  11
  -1   2  18 954.015 25.9307  11
  -2   2  18 -2.0883 2.21182  11
  -2   2  18 2.10415 3.72395  10
   2  -2 -18 2.75164 2.94572   6
   0  -2  18 1.39055 2.38692   7
  -2   0 -18 3.91650 2.08717   4
  -2   0 -18 3.24204 2.60681  11
   0   2  18 -1.2918 2.41183   3
   2   0  18 11.0193 3.33312   8
   2   0  18 3.47752 2.51954  10
   0  -2 -18 -0.5163 2.26708   9
   0   2  18 5.03824 2.03108  11
  -2   0 -18 0.25922 2.04157   3
  -2   0  18 1.52493 2.30229  11
   0   2  18 4.54412 3.32982  10
  -2   0 -18 -1.8957 4.34119   6
  -2   2 -18 0.33871 3.47094   6
   0  -2 -18 7.63120 3.22111   4
   0  -2 -18 4.65992 3.58366   6
   0  -2 -18 1.28270 2.13889  11
   2  -2  18 2.41414 2.54536   2
  -2   2  18 -3.1459 3.80818   3
   2   0 -18 3.51330 2.86115   6
   0  -2  18 2.41873 1.81178  11
  -2   2 -18 0.22937 2.23869  11
   2   0 -18 6.60965 2.84223   2
   0   2 -18 -1.1166 1.48931  11
   2   0  18 4.46383 2.32468  11
   2   0  18 7.11087 3.08778   2
   0   2  18 7.49189 3.07746   8
   0  -2  18 4.75049 1.76027   9
   2  -2 -18 2.39539 1.72867   9
   2  -2 -18 0.99716 2.24069  11
   2  -2  18 3.87276 2.13776  11
  -2   0  18 5.21744 2.21741   7
  -2   0  18 8.89453 2.49377  10
   2  -2  18 0.09538 2.07496   5
   0   2 -18 4.44606 1.92706  11
  -2   0 -18 1.25083 2.23559  12
   0  -2 -18 3.56072 1.58525   7
   0  -2  18 -0.8302 2.06852   5
   2   0 -18 0.30026 1.95483  11
   0   2 -18 4.99023 3.03289   6
  -2   0  18 4.46313 2.02832   5
   2   0  18 3.56372 1.38902   5
   3  -1  18 385.419 13.8458  11
   3  -2 -18 359.345 13.9454  11
  -2   3  18 371.839 13.4927  11
  -2  -1 -18 364.737 14.0242  12
   3  -1  18 372.432 14.8790   8
   3  -1  18 375.271 14.6270   2
  -3   1  18 397.878 16.1183   3
  -1  -2  18 371.065 13.2811   7
  -1  -2  18 379.301 12.0082   9
  -2  -1 -18 372.905 17.7469   6
  -3   2 -18 385.679 15.1228  11
   2  -3  18 386.679 12.7720  11
  -1   3 -18 388.728 14.9239   6
   3  -1  18 396.400 10.1208   5
  -2   3  18 398.354 15.9376  10
   2  -3  18 386.327 12.3504   2
  -3   2 -18 364.608 16.6080   6
   2  -3  18 397.053 15.1871   8
   1   2  18 375.820 12.2258  11
   3  -2 -18 356.318 13.6285   6
   1  -3 -18 379.981 13.3400   9
  -1   3 -18 378.576 14.9585   3
   2   1 -18 356.330 12.8506   2
  -2  -1 -18 384.713 14.1737  11
  -3   1  18 394.275 14.3011  11
  -1  -2  18 403.021 13.2993   5
  -3   2 -18 393.232 15.6212   3
   1  -3 -18 398.388 13.5927  12
   3  -2 -18 382.735 15.3783   2
   1  -3 -18 377.558 13.8548   4
  -3   1  18 385.292 12.8488  10
  -3   2 -18 385.427 11.6561  12
  -2  -1 -18 394.238 13.3666   4
   1   2  18 398.053 14.3071   2
  -2   3  18 351.695 16.0717   3
   1  -3 -18 404.905 13.4960   6
   3  -2 -18 384.274 12.0082   9
   2   1 -18 401.140 14.8576   6
   2  -3  18 387.943 13.2957   5
   2   1 -18 370.696 11.8381  11
   1   2  18 372.255 14.5106   8
  -1   3 -18 341.435 13.0324  11
   2  -3  18 383.160 13.0824   9
   1  -3 -18 382.038 13.4297  11
  -2  -1 -18 390.853 13.0702   7
   2   1  18 416.102 13.8735  10
  -2   3 -18 430.638 16.4916   6
   2   1  18 421.813 15.4486   2
   2   1  18 418.496 14.0759  11
   1  -3  18 422.607 13.2759   9
  -3   2  18 421.318 12.0404   7
   3  -1 -18 434.588 15.5480   6
   1   2 -18 427.769 15.5044   6
   1  -3  18 435.887 12.0254   4
  -3   1 -18 417.952 13.9838  12
   3  -2  18 430.095 16.2241   8
   2  -3 -18 407.201 14.7277  11
   1   2 -18 425.803 11.5240  11
   1   2 -18 425.343 12.1429   2
   3  -1 -18 429.415 16.1399   2
  -2   3 -18 435.831 16.5225   3
   1  -3  18 432.660 14.7242   5
  -1  -2 -18 423.712 15.6228   9
  -2  -1  18 425.124 14.2864   7
  -3   2  18 390.940 16.6786  10
  -1   3  18 435.267 16.8079  10
  -2   3 -18 427.130 14.5479  11
  -1   3  18 406.220 15.2579   8
  -1  -2 -18 435.359 15.6926  12
   3  -2  18 440.228 15.1911  11
   1   2 -18 436.422 11.9336  11
  -3   1 -18 460.107 15.2160   3
  -2  -1  18 428.561 13.7488   5
   2  -3 -18 437.836 15.2557   4
  -1   3  18 431.255 13.9179  11
  -3   2  18 470.731 18.2714   3
   3  -1 -18 443.919 15.0943  11
  -2  -1  18 431.100 13.0831  11
   2  -3 -18 435.976 13.9700   9
  -3   2  18 414.090 15.5407  11
  -1  -2 -18 442.577 14.6745   4
   2  -3 -18 445.129 14.4799   6
  -1  -2 -18 449.111 18.3457   6
  -1   3  18 452.059 16.5517   3
   3  -2  18 426.056 12.6466   5
   1  -3  18 410.980 13.7152  11
  -1  -2 -18 407.539 12.8183   7
  -3   1 -18 430.687 19.0634   6
  -1  -2 -18 444.545 14.5385  11
   2   1  18 419.200 15.7175   8
  -3   1 -18 427.729 16.3188  11
  -3   0 -18 118.469 8.07846  12
   3  -3  18 132.832 8.48179  11
   3  -3  18 122.039 7.31296   5
   3  -3 -18 124.762 7.23760   9
  -3   0 -18 118.383 7.02384   3
   3  -3  18 134.477 9.61929   8
  -3   0  18 132.336 7.71064   7
   0  -3 -18 138.750 8.14729  11
  -3   0 -18 138.924 8.47459   7
  -3   0  18 141.178 7.32763   5
   0  -3  18 134.798 8.15254   5
  -3   0 -18 141.167 10.1315  11
   0   3  18 125.799 9.49215  10
   0  -3 -18 130.167 5.67028   7
   0  -3 -18 126.294 8.38223   9
   3   0  18 143.382 8.21929  11
  -3   3 -18 122.579 10.0477   3
   0   3  18 132.864 9.29159   8
  -3   0 -18 126.408 12.4760   6
   3  -3  18 122.430 8.94246   2
   3  -3 -18 154.184 9.27342  11
  -3   3 -18 145.809 11.1074   6
  -3   0  18 130.683 9.85600   3
   3   0 -18 132.980 9.18254   6
   0  -3  18 126.392 7.51242   4
   0  -3  18 128.022 7.81833   7
   3   0 -18 122.541 9.46549   2
  -3   0  18 124.160 6.09959  10
   3   0  18 118.811 8.93800   2
  -3   3 -18 131.118 5.25313  12
   0  -3 -18 136.441 8.38072   4
   0  -3 -18 118.294 9.46229   6
   3  -3 -18 145.567 8.81324   6
  -3   3  18 117.440 8.46379  11
  -3   3  18 133.042 10.1724  10
   3  -3 -18 129.573 10.3689   2
   0  -3 -18 122.747 8.54946  12
   3   0  18 133.601 9.16552   8
   0   3  18 121.804 7.83093   3
   0  -3  18 122.339 7.10224   9
  -3   3 -18 128.689 8.95479  11
   3   0 -18 123.578 7.43245  11
   0   3 -18 135.194 5.38641   2
  -3   0 -18 129.297 8.03827   4
   0   3 -18 124.004 9.01048   6
   0   3  18 128.476 6.68894  11
   3   0  18 123.603 7.03289  10
  -3   3  18 119.950 11.4542   3
  -3   0  18 126.880 8.23876  11
   2  -4 -18 102.100 7.63622  12
  -4   2  18 98.9752 6.92344   7
   4  -2  18 84.2629 8.93119  11
   2   2  18 103.908 9.47113   8
   2   2  18 81.0974 8.94983   2
  -4   2 -18 91.2879 11.5753   6
  -4   2 -18 108.174 7.22908  12
   2  -4  18 84.7995 8.39539   5
   2  -4 -18 85.7152 8.29248  11
  -4   2 -18 84.8022 10.0265   3
  -2   4  18 89.1120 7.32588  11
   4  -2 -18 95.6309 10.8439   2
   2   2 -18 94.9785 9.21696   6
  -4   2 -18 90.7102 10.1993  11
   2   2 -18 93.9929 7.90280   2
   4  -2 -18 113.113 9.60830   6
   2   2  18 99.9809 8.27085  10
  -2   4  18 97.0912 9.41074   8
   2  -4  18 90.6553 7.93234   9
   2  -4 -18 97.2523 8.13182   9
   4  -2 -18 93.9195 6.88820   9
  -2   4  18 82.3500 9.63031  10
  -2   4 -18 99.6359 10.2743   3
   4  -2  18 89.4870 9.47872   8
  -4   2  18 109.776 11.9993   3
  -4   2  18 96.5842 9.81668  10
  -2   4 -18 100.060 10.2011   6
  -2  -2  18 81.9944 7.70565   5
   2  -4 -18 101.672 8.66437   4
  -4   2  18 92.9789 9.59976  11
   4  -2 -18 82.2253 8.63123  11
  -2  -2  18 89.4683 7.44671   7
  -2  -2 -18 84.4113 7.58122   7
  -2   4  18 111.655 12.1016   3
   2   2  18 89.2526 6.55640  11
  -2  -2  18 83.6566 9.28556  12
  -2   4 -18 73.3947 6.84097  11
  -2  -2 -18 84.6471 8.98729  12
   4  -2  18 103.457 10.4313   2
  -2  -2 -18 95.9884 8.30034   4
   2   2 -18 89.3230 4.77243  11
   3   1 -18 661.959 22.1592   2
  -3  -1 -18 655.596 22.6790  12
   3   1 -18 645.634 18.8404  11
  -3   4  18 619.494 21.3003  11
  -1   4 -18 648.679 23.6741   3
  -4   1  18 669.668 22.4463  11
  -3  -1 -18 638.470 20.9167   7
  -1  -3  18 634.835 20.3605   9
  -4   3 -18 670.107 25.1895   3
   1   3  18 657.568 22.1094  10
   4  -3 -18 651.621 20.0223   9
   4  -1  18 652.906 21.9132  11
  -3   4  18 660.601 24.7214  10
  -4   1  18 642.445 20.1322   7
   3  -4  18 630.558 20.6929   9
   1  -4 -18 656.766 21.9959   9
   1  -4 -18 670.640 21.0044  12
  -4   1  18 624.927 24.2960   3
   4  -3 -18 632.216 24.9525   2
   4  -3 -18 628.669 20.9334   6
   1  -4 -18 660.228 22.1081   4
   4  -3 -18 636.665 22.4279  11
   1   3  18 653.002 18.6354  11
   1   3  18 639.114 22.3256   2
   4  -1  18 653.659 23.6183   2
   3  -4  18 654.542 20.9519   5
  -1  -3  18 635.954 22.4043  12
  -1   4 -18 639.553 22.2218   6
  -1  -3  18 640.660 21.0282   7
   3  -4  18 672.987 21.1246  11
   3   1 -18 667.318 23.2198   6
  -3  -1 -18 647.454 22.5551  11
  -4   3 -18 657.725 23.6668  11
  -3   4  18 661.649 26.2642   3
  -4   1  18 632.037 19.1238   5
   1   3  18 676.808 23.2168   8
  -1  -3  18 644.859 21.0512   5
  -4   3 -18 649.762 24.6787   6
   4  -1  18 665.606 23.4640   8
  -3  -1 -18 643.264 21.3513   4
   3   1  18 560.660 16.9206  10
   1  -4  18 559.602 25.5270   9
   4  -3  18 576.338 22.0615   2
  -4   1 -18 555.378 19.0686  12
   4  -1 -18 574.887 19.7792  11
   4  -3  18 575.442 17.5419   5
  -3   4 -18 576.806 21.4664   6
   1  -4  18 560.988 17.2593   4
   4  -3  18 563.934 21.7908   8
  -3   4 -18 551.998 19.5956  11
  -1  -3 -18 600.930 21.3119  12
   3  -4 -18 564.012 16.8152  12
  -3  -1  18 569.421 21.2795  12
   1  -4  18 581.109 19.9462   5
  -4   1 -18 571.673 22.3023  11
   3  -4 -18 559.529 20.0049   4
  -1  -3 -18 574.209 21.1022   9
   3   1  18 577.367 21.3727   2
  -4   1 -18 542.996 24.5455   6
  -1  -3 -18 538.009 19.6136   4
   3  -4 -18 561.173 19.1175   9
   3   1  18 587.328 21.3056   8
   4  -3  18 573.112 20.4680  11
  -3   4 -18 549.201 22.9574   3
   3  -4 -18 580.565 20.3913  11
   4  -1 -18 569.863 21.8965   2
   4  -1 -18 578.704 20.9987   6
  -4   3  18 551.999 24.1122   3
  -1   4  18 596.952 21.5171   3
  -4   3  18 579.511 21.4178  11
   3   1  18 571.577 18.7585  11
  -1   4  18 588.898 21.4351   8
  -1   4  18 598.718 17.6903  11
  -3  -1  18 582.651 17.7810   5
  -1   4  18 578.449 22.6432  10
   1   3 -18 583.754 20.6231   6
  -3  -1  18 564.706 19.1553   7
  -4   1 -18 563.462 20.3559   3
  -1  -3 -18 562.187 17.1179   7
  -4   3  18 602.285 22.0621  10
   4  -4 -18 309.777 16.1757  11
   4   0 -18 315.334 16.3929   6
   4  -4  18 352.160 14.5591   5
   0   4 -18 328.056 15.9845   6
   4  -4  18 313.017 16.9829   8
  -4   4 -18 315.958 19.5231   3
  -4   4  18 298.053 18.5973  10
   4   0  18 342.360 17.5000   2
   4  -4  18 326.794 14.3007   9
  -4   4  18 328.214 15.9595  11
   4   0  18 342.319 16.8351   8
   4   0 -18 326.654 17.0583   2
  -4   0 -18 329.174 15.6103   7
  -4   0 -18 330.030 17.7016  11
  -4   0  18 340.779 14.4676   7
   0  -4  18 318.373 14.6022   4
   0   4  18 339.612 17.0429  10
   0  -4 -18 317.485 15.7221  12
   0  -4  18 339.525 14.8103   7
   4  -4 -18 336.311 18.8453   2
   4  -4  18 326.797 16.6040   2
  -4   0  18 320.120 17.7224   3
   4  -4  18 345.962 15.8898  11
   0  -4 -18 320.226 15.9040   9
  -4   4  18 309.915 20.0395   3
   0  -4 -18 324.609 15.6503   4
   0  -4  18 329.354 15.4775   5
  -4   0 -18 320.070 15.4595  12
   0   4 -18 324.346 16.0687   3
  -4   4 -18 340.779 17.3262   6
  -4   4 -18 359.810 16.6615  11
   4   0 -18 327.922 13.8179  11
   0  -4  18 314.669 14.3964   9
   4  -4 -18 331.897 14.2943   9
   4   0  18 327.658 14.7387  11
   0   4  18 327.975 11.6789  11
   0   4  18 354.772 16.8693   8
  -4   0  18 326.661 13.2552   5
  -5   2  18 399.728 19.8713  11
  -5   2  18 408.995 15.8592   7
   3  -5  18 385.667 17.3611   9
   2   3  18 401.758 19.2024   8
  -5   2  18 363.067 21.3665   3
   2   3  18 389.550 13.5476  11
  -3   5  18 357.720 23.2442   3
   5  -3 -18 326.494 23.7692  11
  -3   5  18 383.517 17.6651  11
  -2  -3  18 360.975 17.5417   7
   5  -3 -18 418.748 15.8569   9
   5  -2  18 358.688 21.5466   8
  -2  -3  18 391.313 16.5034   5
   2   3  18 331.716 18.1836   2
  -3  -2 -18 353.780 18.1503   4
  -5   3 -18 412.122 23.2819   3
   3   2 -18 420.162 22.9681   2
   5  -2  18 379.644 27.4649  11
  -3   5  18 383.374 21.0899  10
  -2   5 -18 401.849 25.2873   3
  -3  -2 -18 402.855 16.8005   7
  -3  -2 -18 389.072 19.2973  12
   3   2 -18 335.953 27.9642   6
   5  -2  18 397.290 21.9499   2
   5  -3 -18 377.744 18.2816   6
  -3   5  18 362.387 21.5126   8
   3   2  18 437.206 19.1495   8
   3  -5 -18 405.483 18.3104   9
   3   2  18 402.900 20.0367   2
  -5   3  18 431.814 20.2672  11
   3   2  18 405.937 15.4710  11
   5  -2 -18 423.454 19.7272   6
   2  -5  18 397.063 27.2732   9
  -3   5 -18 386.667 22.0403   3
   5  -3  18 405.885 18.9915  11
  -2   5  18 386.350 19.6383   8
  -2   5  18 409.630 22.4848   3
  -5   2 -18 422.579 21.5704  11
  -2  -3 -18 419.054 19.9596  12
   2   3 -18 408.952 19.3048   6
  -3  -2  18 405.296 16.9003   5
  -3  -2  18 389.570 19.3302  12
  -2  -3 -18 416.018 16.4991   7
   2  -5  18 420.028 18.0703   5
  -3   5 -18 419.281 15.9414  11
  -2   5  18 427.042 15.8859  11
   5  -2 -18 391.998 18.4103  11
   5  -3  18 401.323 21.1706   2
  -5   3  18 418.094 19.9403  10
  -2  -3 -18 367.863 20.9986   4
  -3  -2  18 431.264 17.2390   7
  -5   2 -18 371.440 20.2303   7
  -2   5  18 350.154 25.4606  10
   5  -3  18 386.973 23.0924   8
   5  -2 -18 415.142 21.7316   2
   1  -5 -18 58.4921 9.08852   4
   1   4  18 65.3997 7.41741  11
   1  -5 -18 43.6082 8.48989   9
   1   4  18 59.9774 10.1232  10
  -1  -4  18 61.3861 12.0418   5
  -5   1  18 50.0037 11.5563   3
  -1  -4  18 62.0372 10.0824   9
  -4   5  18 55.9597 12.9615   3
   1   4  18 46.1901 9.44836   8
   4   1 -18 41.4862 10.6133   2
  -1   5 -18 54.6229 10.2235  10
  -4   5  18 37.1494 10.8081  10
  -4  -1 -18 45.7268 9.26936  12
   5  -1  18 46.6078 7.70855  11
  -5   4 -18 35.1323 12.0300   3
  -4  -1 -18 50.2072 8.69773   7
   1   4  18 51.1195 8.92122   2
   4   1 -18 42.4871 6.06781  11
   5  -1  18 55.9255 9.72198   8
   4  -5  18 55.7149 8.35670   9
  -4   5  18 45.8717 7.87783  11
   5  -4 -18 49.8386 10.3503   2
  -5   4 -18 52.9155 8.84007  11
  -1  -4  18 46.1129 7.70146   7
   5  -1  18 61.1567 11.0632   2
   1  -5 -18 53.7336 8.74898  12
   4   1 -18 70.3292 10.3749   6
  -5   1  18 52.8415 9.10349   7
   5  -4 -18 54.2635 8.14773   9
   1  -5  18 74.5804 9.36997   5
  -4   5 -18 55.5447 12.2734   3
  -5   4  18 76.7616 13.6659   3
   4   1  18 57.9936 10.9409   2
  -4  -1  18 69.0543 8.55173   7
  -1   5  18 71.5578 11.6504  10
  -5   4  18 74.3425 10.4555  11
   1   4 -18 75.2995 10.7767   6
  -1   5  18 70.9311 7.04816  11
  -5   1 -18 91.8506 11.0654  12
   4  -5 -18 71.1741 8.90166   4
  -5   4  18 70.9835 12.5252  10
  -5   1 -18 72.1698 9.28922   7
  -1  -4 -18 79.0942 10.2388  12
   5  -4  18 75.4898 12.2648   2
   5  -1 -18 93.2158 11.2192   6
   5  -1 -18 69.5775 8.65829  11
   4   1  18 62.5541 7.88422  11
  -4   5 -18 63.9210 8.62057  11
   5  -4  18 66.4995 8.51845   9
   1   4 -18 70.2469 9.96593   3
  -1  -4 -18 65.2540 9.32888   4
   5  -4  18 73.3944 10.1464  11
   1  -5  18 82.4346 10.1252   9
   4  -5 -18 67.2530 8.80912   9
  -5   1 -18 61.7195 11.3712  11
  -1  -4 -18 74.7660 10.6833   9
  -1   5  18 62.8034 10.4351   8
   5  -4  18 66.2923 10.2766   8
   5   0 -18 177.141 20.3086   2
   0  -5  18 148.668 14.6996   5
  -5   5  18 172.078 15.1289  11
   0   5  18 148.862 16.3375   8
   0  -5  18 186.425 18.3930   9
  -5   5  18 197.840 20.5214  10
   5   0 -18 165.633 12.5433  11
   0  -5 -18 177.535 15.3686   4
   5  -5  18 181.707 13.7773   9
  -5   0 -18 139.199 14.8004   7
   5   0 -18 161.850 17.5405   6
  -5   5  18 187.511 22.1618   3
   5   0  18 209.647 18.3763   2
   0   5 -18 197.823 18.1583   3
  -5   5 -18 188.908 21.8545   3
   0   5  18 156.206 15.3233   2
   0  -5 -18 220.600 16.3099  12
   0  -5 -18 162.691 15.5421   9
   0   5  18 210.462 18.7052  10
   5  -5 -18 182.498 13.8288   4
   5  -5 -18 189.117 14.3605   9
   5  -5 -18 183.172 20.7686   2
   5   0  18 166.917 16.4940   8
  -5   0 -18 194.176 15.6430  12
  -5   0  18 168.667 14.3072   7
  -5   5 -18 192.609 15.7780  11
   5  -5 -18 205.346 18.8080  11
   5   0  18 163.578 13.3661  11
  -6   3  18 192.491 20.6508   3
  -3   6  18 157.584 12.2940  11
   3   3  18 140.798 16.9494   8
  -3  -3 -18 182.186 14.5578   7
  -3  -3 -18 151.843 17.1278  12
   6  -3 -18 197.304 13.6170   9
  -3  -3  18 158.693 17.4716  12
  -3   6 -18 196.715 18.6751  10
  -3   6  18 199.570 24.5012   3
  -3   6  18 242.666 17.9015   8
  -6   3  18 217.985 19.7522  11
  -3  -3 -18 188.783 16.4338   4
   6  -3 -18 172.133 15.9856  11
  -6   3 -18 204.167 20.0011  11
   6  -3  18 188.405 21.1129   2
   3  -6  18 164.696 16.5322   9
  -3   6  18 172.795 21.1900  10
   3  -6 -18 196.132 16.8164   9
   6  -3  18 170.411 16.9273  11
  -3  -3  18 165.450 14.2120   7
   6  -3 -18 178.670 20.4201   6
  -6   3 -18 161.675 15.0935   7
   3   3  18 191.375 18.0408   2
   3   3 -18 165.633 18.6662   6
   3  -6 -18 197.052 16.3207   4
  -3   6 -18 221.227 24.4228   3
   6  -3 -18 177.757 19.9585   2
   3  -6  18 178.796 15.8171   5
   6  -3  18 159.198 16.9919   8
  -4   6  18 90.2327 13.6051   8
  -4  -2 -18 78.4449 12.7745  12
  -2   6 -18 76.7315 15.9959   3
   6  -2  18 80.3649 13.1468   8
   6  -2  18 80.3066 10.7502  11
   2   4  18 99.9792 13.5553   8
   6  -2  18 49.3807 14.6668   2
  -6   2  18 116.670 18.5077   3
   2  -6 -18 55.3918 11.9873   4
   4  -6  18 95.8204 11.6763   9
   4  -6  18 72.8934 11.2373   5
  -4   6  18 78.4568 10.1200  11
  -4  -2 -18 84.8027 11.1848   7
   6  -4 -18 65.8572 15.0091   2
  -6   4 -18 68.5050 12.1672  11
   6  -4 -18 78.3224 10.1259   9
  -4  -2 -18 86.9959 12.6110   4
  -2   6 -18 61.3011 13.9277  10
   2  -6 -18 80.5007 11.7987   9
  -6   2  18 106.036 12.9216   7
  -4   6  18 87.6430 17.0578   3
   4   2 -18 89.4817 12.7079   6
  -2  -4  18 80.1524 10.4714   7
   6  -4 -18 58.7643 10.9866  11
  -4   6  18 48.5498 14.6098  10
   2   4  18 80.8416 12.9403   2
  -6   4 -18 36.5107 17.6163   3
  -6   2 -18 121.059 14.2682   7
  -2  -4 -18 92.3972 12.6808   4
   6  -2 -18 121.107 16.3251   2
   6  -4  18 154.026 19.1239   8
  -2  -4 -18 76.7657 13.4677  12
   6  -2 -18 98.2186 11.2757  11
   6  -4  18 79.9772 12.2299  11
  -4   6 -18 116.440 12.5943  11
  -6   2 -18 128.898 16.7241  11
   6  -4  18 114.522 16.1990   2
   4  -6 -18 112.318 13.0182   9
  -4   6 -18 115.634 18.2786   3
   6  -2 -18 90.3138 13.4342   6
   2  -6  18 90.7640 12.5084   5
  -4   6 -18 85.1661 14.5214  10
   4   2  18 92.4581 14.0257   2
  -4  -2  18 126.332 13.7586   7
   4   2  18 107.937 11.2128  11
   2  -6  18 101.096 13.0011   9
  -6   4  18 81.0790 12.7424  11
  -2   6  18 100.847 14.0131   8
   2   4 -18 126.682 14.4627   6
  -6   4  18 88.1536 17.5212   3
   4  -6 -18 114.867 13.2938   4
   4   2  18 87.9341 13.9068   8
  -2   6  18 132.409 16.7380  10
   6  -1  18 24.2314 14.1780   2
   6  -5 -18 31.1109 13.9442   2
  -6   5 -18 47.2287 14.2665  10
   6  -1  18 27.4490 8.98564  11
  -1   6 -18 19.6164 14.1321  10
   5   1 -18 26.0767 11.7839   6
   1   5  18 46.2036 13.4345   8
  -5   6  18 32.4155 9.41483  11
   6  -1  18 25.0034 12.5444   8
   1  -6 -18 19.3736 10.8181   9
   1   5  18 44.3871 12.4121   2
  -5  -1 -18 32.7391 11.7704  12
  -6   1  18 35.9497 10.0101   7
  -1  -5  18 31.4403 12.0599   5
  -5   6  18 21.8269 18.1651   3
   6  -5 -18 30.4748 9.69592   9
  -5   6  18 52.8812 14.9741  10
  -1   6 -18 27.3577 14.9536   3
  -6   5 -18 36.1153 17.9001   3
   1  -6 -18 33.4382 12.1250   4
   5  -6  18 45.5711 9.54021   9
  -1  -5  18 43.4405 9.76300   7
  -6   5 -18 41.2800 10.6621  11
   6  -5 -18 34.3504 12.7346  11
  -5  -1 -18 16.6182 9.60153   7
   5  -6 -18 41.7028 10.2263   9
   6  -1 -18 32.1672 8.88063  11
  -1  -5 -18 38.2791 11.3860   4
   6  -5  18 52.5619 9.82859   9
  -1   6  18 34.8768 14.4954  10
   5   1  18 42.4124 14.3290   2
   5   1  18 32.9907 8.27722  11
  -5   6 -18 18.8417 15.3049   3
  -5  -1  18 41.3196 10.2125   7
  -5   6 -18 81.5553 14.6396  10
   1  -6  18 29.0623 11.0632   5
  -6   5  18 53.0066 11.0043  11
   6  -1 -18 58.1543 15.8021   2
  -5   6 -18 31.5250 9.37417  11
  -1  -5 -18 27.7569 11.9848   9
  -1   6  18 30.5900 12.2543   8
   5   1  18 11.1552 11.5581   8
   5  -6 -18 41.1250 9.75229   4
  -6   5  18 5.55274 15.6081   3
   6  -1 -18 44.6469 12.0813   6
  -6   1 -18 50.0964 10.8917   7
  -1  -5 -18 15.5100 10.8270  12
   0   0 -19 10.4672 2.58870   6
  -1   1  19 370.056 11.9664  11
   1  -1  19 387.615 12.3802  10
  -1   0  19 378.435 11.0640   7
   0   1 -19 375.572 11.4988  11
   1  -1 -19 381.267 12.0976  11
   1   0 -19 372.666 11.7071  11
   1  -1 -19 365.255 13.0853   6
   1   0  19 384.844 12.3479   8
  -1   0 -19 386.187 10.2940   4
   0   1  19 385.616 11.9288   3
   1   0 -19 363.727 10.6986   2
   0   1  19 378.023 12.1086   8
   0  -1 -19 381.187 11.1301   4
   0  -1 -19 352.642 11.9240  11
  -1   0  19 389.742 9.88064   8
   0   1  19 357.964 11.5691  11
  -1   1 -19 361.651 12.0426  11
   1   0  19 358.562 11.5498  11
  -1   0 -19 380.363 12.4303  11
   0   1 -19 365.426 13.3169   6
   0  -1  19 386.906 11.0159   8
  -1   0 -19 374.388 15.0895   6
  -1   1 -19 394.553 14.5580   6
   0   1  19 388.976 12.9037  10
   0  -1  19 382.643 11.5650   5
  -1   0  19 399.763 11.7079  11
   1  -1  19 398.526 10.2971   2
   1  -1  19 362.039 11.0033   5
   1   0  19 392.887 11.3676   2
   0  -1 -19 391.433 11.1661   9
   0  -1  19 371.307 12.0133  10
  -1   0  19 358.146 12.9693   3
   1   0 -19 386.050 13.1286   6
   1  -1 -19 395.237 9.97643   9
   0  -1 -19 388.293 14.4213   6
   1  -1  19 371.625 12.0629   8
   0  -1  19 372.567 10.9585  11
   1  -1  19 384.180 11.5271  11
  -1   1  19 382.266 13.1857   3
  -1   0  19 381.110 11.9493  10
  -1   1  19 374.086 11.2370   8
   1   0  19 387.932 12.6102  10
   2  -1 -19 326.966 12.1167   6
   2  -1  19 325.828 11.6909  10
   1  -2 -19 354.022 10.6567   9
  -1  -1  19 342.456 10.2731  11
   1   1 -19 338.060 10.6006  11
   2  -1  19 337.015 11.3102   2
  -2   1 -19 331.839 15.1353   6
   1   1 -19 329.849 10.4549  11
  -2   1  19 338.786 11.7573  10
   1   1  19 325.492 11.9016  10
   2  -1  19 318.982 8.78206   4
   1  -2 -19 344.044 13.0222   6
   1  -2  19 321.567 11.1427   5
   1  -2  19 344.284 9.88354   9
  -1  -1  19 318.118 11.5873   7
  -2   1  19 331.219 9.89335   7
   2  -1 -19 345.858 9.97902   9
  -1  -1  19 323.158 10.8545   5
  -1   2  19 330.622 11.6807   8
  -1  -1  19 334.754 10.9024  10
  -1  -1  19 326.674 8.86068   2
  -1  -1 -19 322.625 10.6391   4
   2  -1  19 331.357 9.74339   5
  -1   2  19 308.535 12.5172   3
  -1   2 -19 344.376 13.3600   6
   1  -2 -19 328.590 11.5408  11
   1   1 -19 269.977 14.0093   6
   1  -2  19 333.697 11.6530   8
  -2   1  19 326.044 11.6499  11
   1  -2 -19 315.747 11.9196   4
  -1  -1 -19 326.014 14.6989   6
  -1   2 -19 330.854 11.1831  11
   1   1 -19 353.329 9.46440   2
  -2   1  19 332.225 9.70551   8
   1   1  19 336.294 11.6774   2
  -2   1 -19 336.726 11.4757   3
   2  -1  19 334.462 11.6193  11
   1  -2  19 353.023 10.5591  11
  -2   1 -19 333.106 12.5054  11
   2  -1 -19 329.181 12.1631   2
  -1  -1 -19 331.212 11.8107  11
   1   1 -19 342.493 8.28030   9
  -2   0  19 1006.05 28.5975   3
   2   0  19 1028.89 26.5367  10
   0   2  19 1024.98 26.1057  11
   2   0 -19 1027.20 26.5521   2
  -2   0  19 1023.36 25.8349   7
   2   0 -19 986.183 27.7778   6
   2  -2 -19 1025.80 24.9286   9
   2  -2  19 982.792 27.8881   8
   2   0  19 1059.67 23.6841   5
   2  -2  19 1069.11 25.9030   2
   2   0 -19 1030.82 26.2969  11
  -2   0  19 998.743 25.6639   5
  -2   0 -19 1039.85 24.8231   3
   0  -2 -19 1013.52 23.7366   7
  -2   2  19 952.083 26.8841  11
   0  -2 -19 1007.03 26.3599   4
   0   2 -19 1038.97 28.3185   6
  -2   0  19 1018.74 25.6098  10
   2  -2 -19 987.973 27.1711  11
  -2   0 -19 1053.68 28.0553  11
  -2   0 -19 1041.69 25.3843   4
  -2   0 -19 1027.76 31.5897   6
  -2   2  19 960.599 28.1703  10
  -2   0  19 1013.84 26.1659  11
   2   0  19 992.562 27.7260   8
   0  -2  19 1043.33 26.5155   5
   0   2  19 1021.00 25.8613   3
   0   2  19 1008.14 27.5118   8
   0   2  19 974.898 29.5727  10
   2  -2  19 1012.80 25.6159   5
   2  -2 -19 962.849 28.7596   2
   0   2 -19 994.904 24.7502  11
   0  -2 -19 1003.08 29.0995   6
   2   0  19 933.331 28.4189   2
   2  -2  19 1058.48 27.8360  11
  -2   2  19 985.131 29.3634   3
   0  -2 -19 972.025 27.0035  12
   0   2 -19 1031.50 24.3982  11
   0  -2 -19 993.030 26.4575   9
  -2   2 -19 989.791 27.9293   3
   0  -2  19 1001.73 26.5332   7
   2  -2 -19 1031.60 27.2282   6
   2   0  19 1011.01 26.7795  11
  -2   2  19 1022.17 26.2117   8
   0  -2 -19 1022.41 26.5717  11
  -2   2 -19 986.930 29.9274   6
   0  -2  19 1025.20 24.1773   9
  -2   2 -19 1019.47 27.6365  11
   3  -1  19 378.559 13.9485  11
  -1   3 -19 373.422 12.0957  11
   3  -2 -19 371.051 11.8913   9
   2   1 -19 380.064 13.1414   2
   2  -3  19 399.099 12.2649   2
  -3   1  19 368.769 12.8120  10
   2   1 -19 389.123 15.2224   6
   1   2  19 392.970 14.4179   2
  -3   2 -19 387.789 15.3421  11
   3  -1  19 385.171 14.7538   2
  -2  -1 -19 381.081 18.1358   6
  -2   3  19 388.487 16.7420   3
  -3   2 -19 379.215 11.8150  12
  -1   3 -19 378.849 15.0611   6
  -1  -2  19 382.477 11.9943   9
   3  -1  19 387.610 15.3199   8
   1  -3 -19 385.359 13.6724  11
  -2   3  19 369.669 15.6731  10
  -1  -2  19 389.221 13.5861   7
  -2  -1 -19 389.804 14.6096  12
  -2   3  19 387.500 14.3686   8
  -2  -1 -19 377.322 13.3350   4
  -3   2 -19 383.238 15.4064   3
  -3   2 -19 374.131 17.1171   6
  -3   1  19 375.641 16.0123   3
   3  -2 -19 368.552 14.2267  11
   2  -3  19 389.398 12.8705  11
   2  -3  19 383.664 12.9805   9
   1  -3 -19 379.220 13.4862  12
   1   2  19 378.320 14.4380  10
   1   2  19 371.629 12.2889  11
   1  -3 -19 388.997 13.9191   4
   1  -3 -19 372.781 13.4430   9
   3  -2 -19 361.391 15.4309   2
  -1   3 -19 405.002 15.2502   3
   2  -3  19 372.255 13.0755   5
  -2  -1 -19 368.119 13.0091   7
   2   1 -19 373.109 11.9810  11
   3  -1  19 392.624 10.3258   5
  -2   3  19 377.743 13.7576  11
   1  -3 -19 383.803 13.8502   6
  -1  -2  19 388.681 13.3438   5
   1   2  19 378.426 14.7863   8
   2  -3  19 397.199 15.3477   8
  -2  -1 -19 360.424 14.0651  11
  -3   1  19 374.388 14.3113  11
   2   1  19 377.182 13.0870  11
  -3   2  19 379.226 11.0101   7
  -1   3  19 393.911 14.5238   8
  -3   1 -19 390.199 18.4389   6
   2   1  19 377.676 13.0992  10
  -1  -2 -19 367.705 14.4014   9
  -1   3  19 375.881 15.0278   3
  -1  -2 -19 357.378 14.4369  12
   3  -1 -19 363.400 14.3035   6
   1   2 -19 371.605 10.6274  11
  -2   3 -19 377.669 15.6802   6
   2  -3 -19 376.227 12.9189   9
   1   2 -19 371.596 14.3978   6
   3  -1 -19 371.607 13.8793  11
  -2  -1  19 376.956 12.1122  11
   2  -3 -19 368.906 13.7381  11
  -1   3  19 369.602 12.8282  11
   3  -1 -19 374.721 15.0587   2
   1   2 -19 393.013 11.1507  11
   2  -3 -19 361.709 13.9758   4
   3  -2  19 373.505 11.5281   5
  -3   2  19 363.909 14.6637  10
  -2  -1  19 374.484 12.6192   5
   1  -3  19 371.662 12.0965   9
  -1  -2 -19 362.542 13.2728   4
   2   1  19 377.154 14.8933   8
   1   2 -19 384.552 11.0461   2
  -2   3 -19 389.178 13.7484  11
  -1  -2 -19 387.639 13.6166  11
  -3   1 -19 394.637 15.5894  11
   2  -3 -19 389.302 13.7137   6
  -1  -2 -19 364.230 16.6039   6
   1  -3  19 387.368 12.2724  11
  -2  -1  19 363.351 13.1484   7
   3  -2  19 392.558 14.2183  11
   2   1  19 391.982 14.7188   2
  -1  -2 -19 374.957 11.8494   7
  -3   1 -19 381.845 14.0535   3
   3  -2  19 377.211 15.1301   8
  -1   3  19 377.685 15.7469  10
  -3   2  19 367.104 14.5084  11
  -2   3 -19 366.267 14.9003   3
   1  -3  19 364.385 13.1999   5
  -3   0  19 117.533 8.14779  11
   0  -3 -19 129.992 9.86064   6
  -3   0  19 138.727 7.23596   5
   3   0 -19 140.653 10.1700   2
   0   3 -19 134.681 9.84272   6
   3  -3  19 141.845 7.70613   5
  -3   0  19 135.588 7.88791   7
  -3   0  19 132.078 10.1845   3
   3  -3 -19 130.013 7.59177   9
   3   0  19 133.704 7.45477  10
   3   0  19 118.600 8.21832  11
   0  -3 -19 124.723 8.31835   4
   0  -3 -19 119.697 8.65755  12
   0  -3 -19 147.485 8.40031  11
   3   0 -19 132.967 9.36447   6
   0  -3  19 121.769 8.04231   5
  -3   3 -19 128.804 11.1417   6
  -3   0 -19 121.093 10.0557  11
   0  -3  19 146.951 8.40623   7
  -3   3 -19 145.096 5.58477  12
  -3   0 -19 126.698 8.42940  12
   0  -3 -19 117.302 5.65861   7
  -3   3  19 140.129 10.3825  10
   0   3  19 125.707 6.93080  11
   3   0 -19 140.699 7.80206  11
  -3   0 -19 132.912 12.6512   6
   3  -3 -19 142.226 10.4166   2
   3  -3 -19 132.326 8.96569   6
  -3   3 -19 131.988 9.19480  11
   3  -3 -19 124.908 8.98484  11
  -3   0  19 140.640 6.53492  10
   3  -3  19 133.291 9.65898   8
   0  -3  19 115.178 7.14752   9
  -3   3 -19 121.882 9.95907   3
   0   3  19 131.694 8.99188   8
   3  -3  19 118.326 9.60453  11
   0  -3 -19 121.746 8.27664   9
   0   3  19 132.842 8.03654   3
   3   0  19 123.325 9.18106   2
   3   0  19 120.238 9.11708   8
   0   3  19 125.760 9.67144  10
  -3   3  19 141.194 12.1129   3
   3  -3  19 132.520 9.30144   2
  -3   0 -19 122.816 7.98057   4
  -3   3  19 133.165 8.86098  11
  -4   2  19 5.30293 5.56249  10
  -2   4  19 0.09096 5.63220  10
   2  -4 -19 1.22267 3.83940  12
  -2  -2 -19 -6.2435 4.20106  12
   2   2 -19 -4.4194 4.77958   6
  -2   4 -19 -7.8304 5.15915   3
  -2   4  19 0.64691 3.18269  11
  -2   4 -19 0.11045 3.39071  11
  -4   2  19 1.89860 6.83864   3
  -2  -2 -19 1.98294 4.49167   4
   2   2 -19 1.00057 2.25514  11
   2   2  19 5.92450 4.66455  10
  -2  -2  19 4.59994 4.22792   5
   2  -4  19 15.0776 4.98144   5
  -2   4  19 2.21963 4.63067   8
  -4   2  19 -3.2994 4.61468  11
   2  -4  19 5.81456 4.31117   9
   4  -2 -19 -4.0610 4.82926   6
   4  -2  19 1.24612 4.57065  11
   4  -2 -19 -7.7370 5.56561   2
   2   2 -19 -2.8842 4.29589   2
   4  -2  19 -3.7963 5.62058   2
  -2  -2  19 2.10161 3.90356   7
   2   2  19 -1.8078 2.99561  11
   2   2  19 3.76303 4.81782   8
   2   2  19 -3.5132 4.41564   2
  -2  -2  19 -3.5118 4.42166  12
   4  -2 -19 -2.2794 3.08341   9
  -2   4 -19 -5.1814 6.16172   6
   2  -4 -19 -0.0600 4.29680   4
  -4   2 -19 -3.5402 6.59799   3
  -4   2 -19 0.21360 5.15168  11
   4  -2  19 0.89346 4.85751   8
   2  -4 -19 -0.9816 4.34216  11
  -4   2 -19 3.88914 6.91546   6
  -4   2  19 -0.7858 3.29076   7
   2  -4 -19 -0.2876 4.10637   9
  -4   2 -19 0.46022 4.07359  12
   4  -2 -19 -4.3899 3.68472  11
  -2   4  19 -7.1322 6.17735   3
  -2  -2 -19 -7.2265 3.56969   7
   3   1 -19 165.135 8.31805  11
   1   3  19 151.589 11.5317   8
  -1  -3  19 170.696 10.1960   5
  -4   3 -19 162.287 13.6742   6
  -1  -3  19 157.292 10.0830   9
   4  -3 -19 143.766 10.8797   6
  -3   4  19 170.015 14.9442   3
   3  -4  19 148.009 9.79170   9
  -4   3 -19 164.248 13.9193   3
  -1   4 -19 143.683 11.3974   6
   1  -4 -19 157.541 10.6871   4
  -3   4  19 157.560 10.1912  11
   4  -1  19 161.544 10.4041  11
   4  -3 -19 172.391 11.5988  11
  -1   4 -19 159.202 12.0365   3
   1   3  19 149.928 7.93756  11
  -4   1  19 183.903 9.76036   7
  -4   1  19 142.584 11.3224  11
   4  -1  19 168.546 12.5650   2
  -4   1  19 148.296 13.0436   3
   3   1 -19 170.382 12.0457   2
   1  -4 -19 162.757 10.3539  12
   1   3  19 169.669 11.1793   2
  -3   4  19 159.160 13.3272  10
  -4   1  19 148.235 8.65286   5
  -1  -3  19 171.006 10.1515   7
  -3  -1 -19 149.001 10.8203  12
   4  -3 -19 167.725 13.5130   2
  -3  -1 -19 174.347 10.3301   7
   1   3  19 170.513 11.6939  10
  -3  -1 -19 166.027 10.4780   4
   1  -4 -19 171.697 10.7249   9
   3   1 -19 169.623 12.0325   6
   3  -4  19 147.212 9.69109   5
  -4   3 -19 161.603 11.8392  11
  -3  -1 -19 170.538 12.2803  11
   4  -3 -19 158.223 9.18637   9
   4  -1  19 164.638 11.4079   8
  -1  -3 -19 158.602 8.46686   7
   4  -3  19 140.942 8.39655   5
  -4   3  19 132.278 13.7279   3
   4  -3  19 149.667 11.8309   8
  -1  -3 -19 146.470 11.2510   9
  -4   3  19 152.930 11.5149  11
  -3  -1  19 158.895 9.13701   5
   3   1  19 156.605 11.3146   8
  -3   4 -19 158.234 12.7527   3
   3   1  19 164.466 8.65252  10
  -1   4  19 135.232 11.1383   8
  -4   1 -19 161.784 13.9739   3
   4  -1 -19 144.967 11.3719   6
   3  -4 -19 153.329 10.5601   4
  -4   3  19 155.862 12.9582  10
  -1  -3 -19 157.791 11.1398  12
  -1  -3 -19 159.188 10.1808   4
  -1   4  19 131.830 7.88923  11
   3   1  19 161.660 11.4532   2
   1   3 -19 166.868 11.7583   6
  -3  -1  19 144.977 9.84950   7
   4  -1 -19 148.008 10.0898  11
  -1   4  19 148.925 12.4487   3
   3   1  19 141.392 8.97373  11
   4  -3  19 145.688 10.9767  11
  -4   1 -19 147.838 15.1665   6
  -1   4  19 152.340 12.5469  10
  -4   1 -19 139.174 12.3844  11
   4  -1 -19 154.250 12.2838   2
  -3   4 -19 155.847 12.9175   6
   3  -4 -19 152.789 8.40948  12
   4  -3  19 141.313 12.8115   2
   3  -4 -19 158.141 11.1462  11
   3  -4 -19 152.944 9.46710   9
   1  -4  19 156.797 10.3070   5
  -3   4 -19 146.969 10.0826  11
   1  -4  19 158.544 9.70061   9
  -4   1 -19 148.752 9.79224  12
   1  -4  19 166.890 8.85361   4
   0  -4  19 78.2090 8.66308   7
   4  -4  19 69.5873 7.91296   5
   4   0 -19 72.6470 7.87560  11
  -4   4 -19 87.3137 10.2745  11
  -4   4  19 79.9857 10.5818  10
   4  -4 -19 73.6307 8.43398   9
   4  -4 -19 67.2769 10.0781   2
   4   0 -19 76.2950 10.4645   2
  -4   4  19 77.5423 9.76795  11
  -4   4 -19 56.7090 10.5085   3
   0  -4  19 71.8969 8.59918   5
   0  -4 -19 73.6494 9.19310   9
   4   0  19 72.5190 9.14301   8
   4  -4 -19 76.9716 9.48752  11
   4   0 -19 67.9661 9.03733   6
   0  -4 -19 77.6945 9.41157   4
  -4   0 -19 71.1034 8.54553  12
  -4   0 -19 71.8348 8.35461   7
  -4   0 -19 100.359 12.9334  11
   4  -4  19 81.6652 10.4594   8
   4  -4  19 79.6476 8.54615   9
   0  -4  19 68.1014 7.91759   9
  -4   0  19 70.1771 7.95210   7
   0   4 -19 78.2496 9.33225   3
  -4   0  19 74.0084 11.9129   5
  -4   4  19 69.6442 12.3391   3
   4   0  19 76.3453 9.96656   2
   4   0  19 71.2066 8.28381  11
   0   4  19 85.4429 10.3538  10
   0   4  19 74.4939 6.35277  11
  -4   0  19 82.8062 10.8067   3
   0  -4  19 65.3378 8.26639   4
   0  -4 -19 73.7700 8.88858  12
   0   4  19 78.0079 9.46471   8
  -4   4 -19 81.1193 10.0090   6
   4  -4  19 75.7297 9.36147   2
   0   4 -19 73.7291 9.34266   6
   4  -4  19 70.5146 8.64556  11
   2   3  19 275.398 16.6267   2
  -3   5  19 268.340 18.7556  10
   5  -2  19 260.388 19.8864   2
   2   3  19 260.907 11.3968  11
  -5   2  19 290.620 13.5456   7
   5  -3 -19 282.944 13.2337   9
  -5   3 -19 274.001 24.0298  11
  -5   3 -19 271.055 20.5359   3
   3  -5  19 238.903 14.4207   9
   5  -3 -19 247.053 18.4905  11
  -3  -2 -19 244.359 13.9309   7
   3   2 -19 239.406 24.4401   6
   5  -2  19 260.690 15.8186  11
  -5   2  19 281.335 17.2001  11
  -3   5  19 304.579 21.8011   3
   2   3  19 260.478 16.4008   8
  -2  -3  19 267.701 16.6505  12
   2  -5 -19 262.665 23.5514   9
  -2  -3  19 285.812 14.7655   5
  -3  -2 -19 253.843 15.9581  12
   2  -5 -19 253.182 15.1963   4
  -3   5  19 257.299 16.6598   8
   5  -3 -19 257.815 16.6612   6
  -5   2  19 275.454 20.1359   3
  -2  -3  19 257.727 14.0148   7
   5  -3 -19 254.352 20.9139   2
   5  -3  19 231.333 16.7783   8
  -5   2 -19 269.366 15.2909   7
   2   3 -19 242.883 16.1540   6
  -5   3  19 229.261 19.8563   3
   3   2  19 253.472 16.0597   2
  -3   5 -19 256.372 18.3733   3
   3   2  19 247.662 12.2246  11
  -5   3  19 270.093 16.9177  11
  -3  -2  19 229.402 13.3546   7
  -2   5  19 256.604 19.1435   3
   2  -5  19 242.879 14.7723   9
  -5   2 -19 288.425 18.7010  11
  -2  -3 -19 259.354 14.9976   4
  -2  -3 -19 272.435 13.3689   7
   3  -5 -19 256.782 16.1130   9
  -2   5  19 249.731 17.9330  10
  -2   5  19 259.794 15.9178   8
   2  -5  19 242.345 14.3409   5
   5  -3  19 259.643 18.7352   2
   5  -2 -19 248.588 18.3831   2
   5  -3  19 275.262 15.8354  11
  -5   3  19 273.618 18.1758  10
  -3  -2  19 264.960 14.2489   5
   3  -5 -19 226.334 14.5016   4
  -2   5  19 263.314 12.4076  11
   3   2  19 262.989 15.6635   8
   5  -2 -19 249.505 14.6823  11
  -2  -3 -19 251.340 16.1462  12
   5  -2 -19 230.785 15.9588   6
  -3  -2  19 237.188 15.5767  12
  -3   5 -19 263.410 12.6350  11
  -4   5  19 196.805 20.4798   3
   5  -4 -19 186.973 12.3205   9
  -1  -4  19 179.168 12.8798   7
   5  -1  19 192.978 15.6463   8
   4   1 -19 178.231 10.1926  11
   1   4  19 172.678 15.1481   8
  -5   4 -19 177.889 19.0590   3
  -4   5  19 171.710 13.2908  11
   5  -4 -19 186.691 16.5885  11
   1  -5 -19 169.629 13.6774  12
   5  -4 -19 163.985 17.1575   2
   4   1 -19 177.199 15.9588   6
  -4  -1 -19 167.919 13.1925   7
  -4   5  19 166.242 18.0652  10
   1   4  19 178.636 8.56835  11
   1   4  19 153.760 14.2537   2
  -5   4 -19 158.328 14.3904  11
  -4  -1 -19 185.342 14.4480  12
   1  -5 -19 184.165 14.1536   4
   1  -5 -19 161.134 14.4820   9
   4  -5  19 190.359 12.9875   9
  -1  -4  19 172.005 17.8151   9
   5  -1  19 194.645 13.6705  11
   1   4  19 199.547 15.5898  10
  -4  -1 -19 180.846 16.4768   4
  -5   1  19 201.214 18.4276   3
  -1   5 -19 208.590 20.2552   3
   5  -1  19 221.106 18.4190   2
   4   1 -19 183.078 16.2058   2
  -4   5 -19 189.129 18.8525   3
   5  -1 -19 203.176 15.6608   6
  -1  -4 -19 213.057 15.9149   9
   1   4 -19 215.910 16.0008   6
   1   4 -19 214.988 15.2796   3
   5  -1 -19 202.398 13.4763  11
  -1  -4 -19 207.769 15.3605  12
  -4  -1  19 179.176 13.4722   7
   4  -5 -19 197.857 13.5670   9
   1  -5  19 220.110 15.1025   9
  -1  -4 -19 197.157 14.3148   4
  -4   5 -19 198.480 13.6991  11
   5  -4  19 189.549 18.0292   2
   4  -5 -19 204.588 13.5557   4
   5  -4  19 221.661 15.9255  11
   4   1  19 209.630 12.6420  11
  -5   1 -19 214.273 13.7517  12
   1  -5  19 195.644 14.1915   5
   5  -4  19 184.927 13.0396   9
  -1   5  19 208.076 18.2407  10
   5  -4  19 174.518 16.2841   8
  -5   4  19 163.153 15.0853  11
  -5   1 -19 188.532 14.1309   7
  -1   5  19 181.700 15.1684   8
  -5   4  19 189.047 19.0297   3
  -5   4  19 237.708 18.5939  10
  -5   1 -19 193.499 18.3257  11
   4   1  19 167.215 16.0757   2
  -1   5  19 214.676 10.1570  11
   4   1  19 216.729 18.9726   8
   0   5  19 -0.2512 8.96093   8
  -5   0  19 16.5141 7.73589   7
   5  -5  19 10.0751 7.07418   9
   5  -5 -19 16.0269 10.5093  11
  -5   5  19 9.66832 7.44610  11
  -5   0 -19 7.94335 8.61976  12
   0  -5 -19 2.90887 8.33499   4
  -5   5  19 28.0766 13.6910   3
   5   0 -19 15.8757 6.67334  11
   0  -5  19 17.1494 9.13719   5
   5   0 -19 -1.6285 11.8083   2
  -5   0 -19 9.97673 8.07206   7
   0  -5 -19 22.9375 9.09813   9
   0   5 -19 30.7128 11.1169   3
   5  -5 -19 5.06853 7.25002   9
  -5   5 -19 -8.5520 13.7787   3
   5   0  19 10.5479 10.1953   2
   5   0  19 6.88571 6.48732  11
   5   0 -19 3.19509 8.99824   6
   5  -5 -19 5.08681 11.2442   2
   0   5  19 14.8246 8.53727   2
  -5   5 -19 9.07845 7.76837  11
   0  -5 -19 32.5786 9.70963  12
  -5   5  19 10.4933 11.6940  10
   5  -5 -19 16.9525 7.54381   4
   0   5  19 -0.4341 10.6642  10
   5   0  19 1.83364 9.12363   8
   3  -6 -19 80.6172 11.0574   9
   3   3  19 75.8542 13.1592   2
  -6   3  19 84.2291 16.1036   3
  -3   6 -19 68.9392 15.4836   3
   6  -3  19 63.2339 10.9916  11
   3   3  19 47.9687 11.2823   8
   6  -3  19 102.104 15.7267   2
  -3   6  19 72.6645 16.3428   3
  -3   6 -19 46.5745 12.7797  10
   6  -3 -19 65.0243 13.2049   2
  -3   6  19 71.3668 12.1056   8
  -3   6  19 81.4346 14.9575  10
  -3   6  19 52.9399 8.39584  11
  -3  -3 -19 63.1583 11.9828  12
  -3  -3 -19 72.4577 11.5938   4
  -6   3 -19 77.8088 10.8662   7
   3  -6  19 60.8661 11.3901   5
   3  -6 -19 70.9925 11.4785   4
  -6   3  19 69.7187 13.2409  11
  -3  -3 -19 59.9970 9.88120   7
   6  -3 -19 68.2884 11.4752  11
   6  -3 -19 95.6857 9.94842   9
  -3  -3  19 72.2772 10.0398   7
   6  -3  19 51.3750 12.0110   8
   3   3 -19 82.9650 13.8405   6
   3  -6  19 81.8538 11.9718   9
  -6   3 -19 78.1409 13.5726  11
   2   4  19 684.892 29.8048   8
  -2   6 -19 675.571 32.9202   3
  -4   6  19 638.858 29.5085   8
  -2  -4  19 632.330 26.1207   7
   4  -6  19 651.245 26.5972   9
  -6   4 -19 682.499 29.9966  11
   2  -6 -19 655.333 28.0193   9
  -4   6  19 659.440 36.4740   3
   4   2 -19 652.445 29.3915   6
   6  -2  19 666.072 29.1270   8
  -6   2  19 679.002 34.9080   3
  -6   2  19 716.279 25.0615   7
   2   4  19 670.368 29.9491   2
  -4  -2 -19 671.898 28.0347   4
  -4  -2 -19 669.900 29.4098  12
  -4   6  19 649.571 25.0037  11
  -2   6 -19 577.957 29.3029  10
  -4   6  19 621.987 32.6483  10
   2  -6 -19 626.379 27.3990   4
   6  -4 -19 652.330 28.1994  11
   6  -4 -19 699.528 25.5707   9
   4  -6  19 622.057 26.5726   5
  -4  -2 -19 677.314 26.1036   7
  -6   4 -19 762.169 36.8760   3
   6  -4 -19 648.023 31.3988   2
   6  -2  19 648.429 32.5195   2
   6  -2  19 627.440 26.8309  11
   4   2  19 615.905 22.3548  11
  -4   6 -19 635.839 23.0593  11
  -2   6  19 641.403 27.9384   8
  -4  -2  19 587.791 24.6953   7
  -6   2 -19 645.044 26.4402   7
   6  -2 -19 616.055 28.4706   6
   4   2  19 595.076 28.2891   8
  -4   6 -19 600.637 31.8472   3
   4  -6 -19 586.492 25.9849   9
  -6   4  19 672.592 28.3803  11
   4   2  19 563.054 29.0560   2
   2  -6  19 612.805 26.5013   5
   6  -4  19 592.950 30.8475   2
   6  -4  19 559.208 26.7854  11
  -2  -4 -19 612.961 26.9682   4
   4  -6 -19 622.943 24.9384   4
   6  -2 -19 583.169 30.3113   2
  -4   6 -19 519.528 29.6880  10
  -2  -4 -19 574.591 29.1561  12
  -6   4  19 619.871 33.6003   3
  -6   2 -19 598.730 30.7214  11
   2   4 -19 667.462 29.2889   6
   6  -4  19 647.616 28.9640   8
   2  -6  19 656.752 27.0428   9
   6  -2 -19 604.590 25.7496  11
  -2   6  19 586.752 32.0146  10
  -6   5 -19 248.809 24.5424  10
   6  -5 -19 242.487 23.2228   2
   5  -6  19 267.387 18.4233   9
  -5   6  19 219.813 24.2644  10
  -1   6 -19 250.688 24.3994  10
  -1   6 -19 279.012 25.0597   3
   6  -1  19 251.924 17.8249  11
   6  -1  19 250.117 22.4946   8
  -5   6  19 189.518 23.7484   3
   1   5  19 231.408 21.3872   2
   6  -5 -19 272.111 17.7788   9
  -5   6  19 241.180 18.1387  11
   5   1 -19 235.794 21.3597   6
  -6   5 -19 220.836 26.7435   3
  -1  -5  19 237.394 17.6038   7
   1  -6 -19 296.520 21.2297   9
   1  -6 -19 234.047 20.5326   4
  -1  -5  19 292.414 19.8770   5
   6  -5 -19 249.949 20.7906  11
  -5  -1 -19 221.468 20.9765  12
  -6   5 -19 211.872 19.6518  11
  -5  -1 -19 256.163 19.7637   7
  -6   1  19 287.148 18.4429   7
   6  -1  19 262.826 23.3561   2
   1   5  19 279.597 22.9448   8
   5   1  19 215.090 15.7890  11
   6  -5  19 216.547 16.4322   9
  -5   6 -19 219.324 16.9160  11
   6  -1 -19 209.368 16.7031  11
   5  -6 -19 224.967 17.0201   4
  -6   1 -19 227.822 19.2113   7
   6  -1 -19 247.464 22.3046   6
  -1  -5 -19 211.370 20.0928  12
   5   1  19 241.495 22.1471   2
  -1   6  19 219.007 22.3551   8
   5  -6 -19 234.223 18.2497   9
  -6   5  19 198.560 19.2639  11
  -6   5  19 213.756 22.7575   3
   5   1  19 233.958 20.6885   8
   1  -6  19 246.719 18.6831   5
   6  -1 -19 260.284 25.8377   2
  -1   6  19 230.928 24.0740  10
  -5  -1  19 258.834 18.5737   7
  -5   6 -19 254.677 26.2274   3
  -5   6 -19 205.840 21.1932  10
  -1  -5 -19 207.309 18.8216   4
   0   0  20 3.80250 2.08099  10
   0   0  20 5.65663 1.81269   8
   0   0  20 2.99827 1.11279   9
   0   0 -20 6.06224 1.81854  11
   0   0 -20 4.08238 2.60568   6
   0   0  20 4.45495 1.49597  11
   0  -1 -20 0.69344 3.20811   6
   1   0  20 1.65656 1.69162   2
   0   1  20 2.00115 2.01120   3
  -1   0  20 3.31612 2.21320  10
   1   0  20 0.85338 1.39039  11
   0  -1  20 1.21246 1.78901   8
  -1   0  20 0.66861 2.46157   3
  -1   1  20 3.36251 1.76814   8
   1   0 -20 0.64248 2.39020   6
   0   1 -20 2.01955 2.60840   6
   0  -1 -20 2.18115 1.68735   9
   0   1  20 -0.0274 1.43306  11
   1  -1 -20 -0.0248 1.17547   9
   1  -1 -20 -0.3046 1.77979  11
  -1   0  20 -0.1175 1.34268   8
   0  -1  20 -0.1430 1.79008   5
   1  -1 -20 -2.3662 2.61333   6
   1  -1  20 1.74569 1.51213   2
   0  -1 -20 1.65923 1.59418   4
   1   0  20 1.17511 2.00661   8
   0  -1  20 3.87989 2.24897  10
   0  -1  20 0.08296 1.38702  11
  -1   1  20 2.17868 2.39707   3
   1  -1  20 1.75398 2.06880   8
  -1   1  20 3.68815 2.39502  10
   1  -1  20 2.03697 1.53896   5
   0   1 -20 1.54446 1.47713  11
   1   0 -20 -0.7444 1.51272  11
   0   1  20 2.58222 2.00966   8
   1  -1  20 -1.2527 1.28015  11
   1  -1  20 0.63888 2.20009  10
  -1   0 -20 3.61687 1.96813  11
  -1   1 -20 6.59343 2.22272  11
   1   0  20 0.22530 2.12991  10
   0  -1 -20 2.19077 1.50830  11
  -1   1  20 0.86379 1.62915  11
  -1   0  20 3.32653 1.61945  11
  -1   0  20 1.34857 1.52778   7
   0   1  20 1.88523 2.24251  10
   1   0 -20 1.33622 1.68385   2
  -1   0 -20 -2.8867 3.11823   6
  -1   1 -20 -5.0453 2.89775   6
  -1   0 -20 2.58686 1.42423   4
   2  -1 -20 945.478 25.5801   2
   1  -2  20 976.867 23.6952  11
  -1  -1 -20 938.375 25.3351  11
  -1  -1  20 962.346 24.1837  10
   1   1  20 890.137 24.1459  11
  -2   1  20 907.707 25.0521  10
  -2   1  20 932.849 24.9990  11
  -1  -1 -20 927.029 25.4264  12
  -2   1 -20 909.545 24.4184   3
  -2   1 -20 857.937 31.1601   6
   1   1 -20 980.650 22.0268   2
  -1  -1 -20 942.291 29.3482   6
   1   1 -20 925.119 26.2800   6
   1  -2  20 961.872 25.1116   8
   1   1  20 929.857 25.7612   8
   1  -2 -20 962.259 25.1691  11
   1   1 -20 922.680 23.6491  11
   1   1 -20 940.652 23.7318  11
  -1   2  20 923.124 26.0528   3
  -1   2  20 947.733 25.1324   8
  -1   2 -20 929.362 27.0082   6
   2  -1 -20 938.077 25.2070  11
  -1  -1  20 998.758 23.5484  11
  -2   1  20 987.686 23.0278   7
  -1  -1 -20 930.754 23.7724   4
   2  -1  20 925.698 24.9688  10
   2  -1  20 907.568 21.3726   4
  -1  -1  20 923.374 21.4413   2
   1   1  20 879.729 24.7713   2
   2  -1 -20 914.604 25.5737   6
   1   1  20 883.520 25.0919  10
  -2   1  20 958.066 22.5848   8
   2  -1  20 931.630 22.6659   5
   1  -2 -20 934.945 26.5026   6
   1  -2 -20 918.869 26.2969   9
   2  -1  20 904.976 24.7839  11
   1  -2 -20 799.859 27.0135   4
   2  -1  20 894.867 26.0625   8
   1  -2  20 936.411 23.5789   9
  -1  -1  20 848.910 25.6232   7
   2  -1 -20 948.216 21.7969   9
  -1   2  20 956.386 24.9003  11
  -1   2 -20 908.428 24.6188  11
   1  -2  20 966.423 29.5327   5
   2  -1  20 956.958 24.4591   2
   2  -2 -20 1970.13 53.2548  11
  -2   2 -20 2109.29 54.9242   6
   0  -2 -20 2167.77 54.2051   6
   2   0  20 2152.87 52.7402   8
   0  -2 -20 2124.19 50.8442   4
  -2   0 -20 2088.84 50.8966   3
   2  -2 -20 2222.39 52.1513   6
   2  -2  20 2103.44 49.8863   5
   2  -2  20 2180.37 49.9693   2
  -2   0 -20 2217.88 49.7171   4
  -2   0 -20 2167.14 52.6020  11
   2   0  20 2158.10 51.1183  10
  -2   2 -20 2185.96 52.5912   3
  -2   2  20 2149.73 50.6217   8
   2   0 -20 2096.89 52.5519   6
   2   0 -20 2136.22 50.7847   2
   0   2  20 2136.45 52.0880   8
   2  -2  20 2165.88 52.4389   8
  -2   0  20 2179.52 50.2168  10
  -2   2  20 2122.43 52.8805  10
  -2   2  20 2138.83 51.6867  11
   0  -2  20 2147.55 51.1056   7
   2  -2 -20 2094.22 52.5295   2
   2  -2  20 2214.86 51.0972  11
   2  -2 -20 2223.63 47.0527   7
  -2   2 -20 2164.20 52.2922  11
   2   0  20 2073.69 51.1191  11
   0  -2 -20 2124.31 51.0860   9
   0   2 -20 2186.29 48.8924  11
  -2   0 -20 2086.18 56.1271   6
  -2   0  20 2191.61 50.7259  11
   2  -2 -20 2157.85 49.1886   9
  -2   0  20 2153.23 53.4397   3
  -2   0 -20 2130.97 51.4105  12
   2   0  20 2167.45 47.9686   5
   0  -2  20 2115.23 50.6796   9
   0   2  20 2128.92 51.1643  11
   0  -2 -20 2186.13 51.2801  11
   0  -2 -20 2057.62 51.4737  12
  -2   0  20 2164.17 51.0579   7
   0   2 -20 2219.59 49.8211  11
   0  -2  20 2254.27 48.9639  11
   0   2  20 2199.48 50.3002   3
   0   2  20 2152.54 52.7675  10
   0  -2  20 2177.78 50.9088   5
  -2   2  20 2099.86 54.0707   3
   2   0 -20 2113.38 50.7145  11
   3  -2 -20 762.108 24.1256   2
  -2   3  20 751.266 22.0923  11
   3  -2 -20 747.465 22.5635   6
   1  -3 -20 743.545 21.8601   6
   3  -1  20 790.809 18.1735   5
  -3   2 -20 762.388 19.8125  12
  -2  -1 -20 743.182 22.5718  11
  -1   3 -20 710.643 19.8858  11
   3  -2 -20 748.337 19.7495   9
  -3   1  20 720.679 20.8791  10
   1  -3 -20 746.452 21.7667  11
   1  -3 -20 750.089 21.7135  12
  -3   1  20 760.912 18.3584   8
  -1  -2  20 728.770 21.1118   5
  -2  -1 -20 736.639 21.2967   4
   3  -1  20 726.894 22.8078   2
  -3   2 -20 773.176 23.9887  11
   1   2  20 721.295 22.1878  10
  -3   1  20 720.099 20.3391   7
  -2  -1 -20 723.765 20.9670   7
   1   2  20 729.609 22.4876   2
   2  -3  20 775.804 21.0385  11
   1   2  20 712.746 20.4967  11
  -2   3  20 729.741 25.0414   3
  -3   2 -20 752.527 23.6329   3
   2   1 -20 736.763 20.9188   2
   2   1 -20 722.395 23.1973   6
   2   1 -20 719.592 19.9530  11
  -2   3  20 760.868 22.5425   8
   2  -3  20 744.831 21.4750   5
   2  -3  20 760.230 19.7124   2
  -2  -1 -20 732.363 22.8880  12
   2  -3  20 735.637 23.0421   8
   1  -3 -20 757.403 22.2029   4
  -2   3  20 759.467 24.4806  10
   3  -2 -20 697.666 22.2553  11
   3  -1  20 729.183 23.3910   8
  -1  -2  20 742.886 21.5848   7
  -3   1  20 738.855 24.2583   3
  -2  -1 -20 725.610 26.5153   6
   2  -3  20 719.723 20.6928   9
   3  -1  20 775.346 22.3541  11
   1  -3 -20 721.504 21.4353   9
  -3   2 -20 745.474 25.9627   6
   1   2  20 750.362 23.3572   8
   1  -3  20 697.934 20.9242   5
   3  -1 -20 694.722 22.0085   6
  -3   1 -20 713.641 20.4147  12
   2   1  20 685.304 20.4147  10
   2   1  20 672.483 21.6597   2
   3  -2  20 692.398 21.3733  11
   3  -2  20 646.511 18.5158   5
  -2   3 -20 674.763 23.2762   6
  -2   3 -20 693.047 22.7344   3
  -1  -2 -20 702.498 21.9998  12
   2   1  20 684.199 22.2656   8
   1  -3  20 718.766 19.1686   9
   2   1  20 714.581 20.4878  11
  -3   1 -20 693.398 22.9961  11
   3  -1 -20 696.877 22.6117   2
   3  -2  20 704.363 23.6996   2
  -3   2  20 692.271 22.0591  10
   1   2 -20 727.648 17.7146   2
   1   2 -20 685.661 22.1779   6
  -1   3  20 694.992 23.2399  10
   2  -3 -20 700.942 20.9913   6
   1  -3  20 749.835 18.8732  11
   2  -3 -20 697.619 19.9326   9
  -1   3  20 689.762 21.6830   8
   1   2 -20 688.756 17.7949  11
  -3   1 -20 672.047 25.9705   6
  -3   1 -20 687.686 20.9769   3
   3  -2  20 725.033 23.0177   8
  -2  -1  20 704.238 19.3236  11
  -2  -1  20 673.005 19.9568   5
  -1  -2 -20 717.888 21.0674  11
  -1  -2 -20 709.979 20.8411   4
  -1   3  20 712.222 20.5045  11
   2  -3 -20 702.364 21.3527  11
  -3   2  20 702.947 21.9007  11
   3  -1 -20 696.139 21.2568  11
  -2   3 -20 727.264 21.1575  11
  -1  -2 -20 699.599 24.7629   6
  -2  -1  20 704.141 20.6042   7
  -3   2  20 721.165 18.0301   7
  -1  -2 -20 679.274 21.7922   9
  -1   3  20 725.276 22.4022   3
  -1  -2 -20 698.870 18.8712   7
   2  -3 -20 719.027 21.6853   4
  -3   0  20 478.369 16.3543  11
  -3   3 -20 489.382 18.0867  11
   0   3  20 497.569 15.6596   3
  -3   0 -20 507.770 17.4162  12
   0  -3 -20 484.937 17.4436   9
  -3   0 -20 508.864 18.9405  11
   3   0  20 484.042 16.8548  11
   3   0 -20 483.976 16.2272  11
   0   3  20 495.039 18.2861   8
   0   3  20 523.693 19.0547  10
   3   0 -20 495.299 18.1840   2
  -3   0  20 507.278 14.2407  10
   0  -3 -20 467.619 17.9843   6
   0  -3 -20 496.177 17.6990  12
   0  -3  20 495.910 15.2279   9
   3   0 -20 497.255 18.4406   6
   3   0  20 502.551 18.1479   2
   0  -3  20 513.280 17.0221   7
   0  -3 -20 502.041 13.3362   7
  -3   0 -20 497.154 16.1581   4
  -3   0  20 474.399 15.4481   5
  -3   3 -20 496.758 20.0584   6
  -3   0  20 483.613 16.0943   7
   3  -3 -20 494.637 15.7242   9
  -3   3 -20 476.747 19.2872   3
   3  -3  20 482.993 18.6826   8
  -3   0 -20 484.642 29.7924   6
   0   3 -20 493.685 18.4291   6
   3  -3 -20 490.972 19.3403   2
   3   0  20 498.228 18.3933   8
   3   0  20 473.258 15.4849  10
   3  -3  20 490.908 16.0129   5
   3  -3 -20 491.548 17.7543  11
   0  -3  20 478.824 17.0112   5
   3  -3  20 500.793 21.0725  11
   0  -3 -20 498.745 17.0866   4
  -3   0  20 485.696 18.9677   3
   0   3  20 475.011 15.3684  11
   3  -3  20 504.958 17.2165   2
   0  -3 -20 519.445 16.8118  11
  -3   3  20 520.003 18.0206  11
   3  -3 -20 487.146 16.9132   6
  -3   3 -20 523.046 13.5328  12
  -3   3  20 490.505 21.1228   3
  -3   3  20 490.756 19.3047  10
  -4   2  20 587.728 17.1007   7
  -2  -2  20 544.947 18.8103   7
  -4   2  20 565.602 19.7560  10
  -2  -2 -20 579.746 18.1975   7
  -4   2 -20 533.505 23.5268   6
   2  -4 -20 547.581 19.6176   4
  -2   4 -20 559.574 22.4330   3
  -2  -2 -20 552.432 19.3672   4
   2  -4  20 539.797 18.3551   9
  -2   4  20 573.836 20.7211   8
   4  -2 -20 559.972 20.3124   6
   4  -2  20 549.798 21.3978   8
  -2  -2  20 553.633 18.4302   5
  -2  -2 -20 541.166 20.6186  12
   2   2  20 549.138 20.3058   2
   2  -4 -20 550.767 18.8728   9
   4  -2 -20 548.290 20.0818  11
   2   2 -20 541.963 14.8453  11
  -4   2 -20 559.199 18.2980  12
   2   2 -20 563.858 17.8855   2
   2   2  20 555.613 17.5858  11
  -2   4 -20 540.589 17.4348  11
   2  -4 -20 526.624 19.0198  11
  -4   2  20 563.426 20.9624  11
  -2   4  20 551.423 22.2557  10
   2   2  20 542.689 18.5845  10
   4  -2  20 570.934 20.3115  11
  -4   2 -20 563.810 21.6579   3
  -2   4 -20 558.613 21.1725   6
  -2   4  20 563.579 18.5293  11
   4  -2 -20 560.284 21.9187   2
  -4   2 -20 525.123 21.4419  11
  -4   2  20 564.739 24.0538   3
   4  -2 -20 563.861 17.0664   9
   4  -2  20 560.918 21.7115   2
   2   2  20 550.431 20.8439   8
   2  -4 -20 577.218 17.9936  12
   2  -4  20 561.622 19.3594   5
  -2   4  20 550.476 22.9002   3
   2   2 -20 563.452 21.2000   6
  -1   4 -20 236.596 13.9487   6
   4  -1  20 251.433 14.2213   8
   3   1 -20 257.402 14.1060   6
  -1  -3  20 242.651 12.3981   5
  -1   4 -20 257.434 15.8009   3
  -1  -3  20 249.093 12.1118   9
   4  -3 -20 221.574 12.9991   6
  -3   4  20 250.394 17.0243   3
  -4   3 -20 234.252 16.1935   6
  -3  -1 -20 243.749 12.3475   4
   1  -4 -20 253.375 12.5655  12
   4  -3 -20 254.487 11.1367   9
   3   1 -20 260.730 13.7641   2
  -3   4  20 246.736 15.4010  10
  -4   1  20 235.671 10.7641   5
   3  -4  20 242.739 13.0384   2
   1   3  20 260.258 14.1919   8
   4  -1  20 257.731 12.8834  11
  -4   3 -20 239.447 16.0478   3
  -3  -1 -20 236.426 12.0016   7
   1  -4 -20 238.193 12.6285   9
   3   1 -20 256.950 10.4183  11
   1   3  20 239.274 13.2954   2
   3  -4  20 264.493 12.4333   5
  -3   4  20 245.263 12.6995  11
   1   3  20 242.915 10.2008  11
  -4   1  20 256.183 11.3624   7
   1   3  20 257.447 13.7843  10
   3  -4  20 248.993 12.0772   9
  -4   3 -20 250.849 14.1257  11
  -4   1  20 243.605 15.5667   3
   4  -3 -20 259.122 15.6609   2
   1  -4 -20 237.068 12.6202   4
  -1  -3  20 265.368 12.2316   7
  -4   1  20 230.403 13.5709  11
   4  -3 -20 235.151 13.3959  11
  -3  -1 -20 262.630 13.8163  12
   4  -1  20 225.693 14.1352   2
  -4   1 -20 287.412 16.2103  11
   4  -3  20 323.462 15.0441  11
  -3   4 -20 284.989 16.5884   3
  -3   4 -20 318.674 14.8697  11
   3  -4 -20 290.197 12.9378   9
   3   1  20 294.846 15.5688   8
   4  -3  20 291.670 11.7058   5
   4  -1 -20 281.031 13.6338  11
   4  -3  20 269.623 15.7074   2
  -4   1 -20 303.887 13.2259  12
   3   1  20 291.805 12.8461  11
  -1   4  20 281.320 15.2947   3
  -1  -3 -20 275.946 14.8683   9
   1   3 -20 302.274 14.9700   6
  -1  -3 -20 270.230 13.5145   4
  -1   4  20 317.453 12.0652  11
   3   1  20 282.859 15.0575   2
  -4   1 -20 308.333 19.4700   6
   3  -4 -20 294.564 13.6092   4
   1  -4  20 294.058 12.8737   9
   3  -4 -20 291.036 14.5378  11
   4  -1 -20 290.186 15.5480   2
  -1  -3 -20 274.026 14.7839  12
   1  -4  20 291.345 13.7656   5
  -4   3  20 290.078 14.9255  11
   4  -3  20 332.009 16.1436   8
  -4   3  20 294.276 16.1789  10
  -3  -1  20 287.170 12.9865   7
  -3   4 -20 301.018 17.5754   6
   3   1  20 291.351 11.7697  10
  -4   3  20 283.294 17.8888   3
  -1   4  20 294.800 16.2187  10
  -1   4  20 304.538 15.0858   8
   4  -1 -20 293.627 15.4467   6
  -3  -1  20 289.496 12.4987   5
  -1  -3 -20 301.139 11.6110   7
   4  -4  20 -0.3299 4.57585   9
  -4   4  20 6.75503 8.44425   3
  -4   0 -20 5.54536 5.64913  12
  -4   0  20 -8.6488 4.30817   7
   0  -4 -20 4.20884 5.59013   4
   0  -4  20 5.95943 5.56114   9
   4  -4  20 -0.5519 5.84109  11
   4  -4  20 -5.0914 5.18096   5
   0  -4 -20 -0.1198 5.58187  12
  -4   4 -20 8.45266 8.11036   3
  -4   4 -20 -3.0057 7.20969   6
   4   0 -20 4.55286 7.77154   2
   0  -4  20 7.44191 5.60596   5
  -4   0  20 14.3267 7.97521   3
  -4   4  20 -2.8700 4.99732  11
   0   4  20 5.37821 6.41804   8
  -4   4  20 -5.2010 7.47102  10
   4   0 -20 1.58167 4.03484  11
   0  -4  20 0.12423 5.25696   7
   0   4 -20 5.11310 7.14097   6
  -4   0 -20 4.84187 7.50359  11
   4  -4 -20 5.19897 5.83523  11
   0   4  20 3.01461 3.60415  11
   4  -4 -20 5.88435 7.64800   2
   4   0  20 6.98147 6.18080   8
   4   0  20 5.03564 4.32135  11
   4   0  20 10.6444 7.19210   2
   4  -4  20 -4.9591 6.60393   8
   0   4 -20 2.49998 6.44951   3
  -4   0 -20 -5.3322 4.93596   7
  -4   4 -20 -0.5342 5.14802  11
   4  -4  20 3.95629 7.43885   2
   0   4  20 -14.357 6.68257  10
   0  -4 -20 -2.9275 5.62747   9
   4   0 -20 7.20504 6.06340   6
   4  -4 -20 4.19258 4.81741   9
  -4   0  20 10.4171 5.76665   5
  -5   2  20 111.793 14.0668  11
   2  -5 -20 98.3784 12.0377   9
  -2   5 -20 96.0002 12.6568   3
  -2  -3  20 95.3872 10.7057   5
  -3  -2 -20 104.315 10.9363   7
  -3   5  20 106.900 9.99956  11
  -3   5  20 115.710 12.9098   8
   5  -3 -20 96.1884 9.43009   9
   3  -5  20 94.8047 11.1968   5
   5  -2  20 100.061 11.7185  11
   3   2 -20 87.5163 10.9758   6
  -5   3 -20 117.619 14.0904  11
   5  -3 -20 97.0624 12.1535  11
   2  -5 -20 83.7842 9.94202   4
   2   3  20 102.239 11.7882   2
   5  -3 -20 117.791 13.8294   6
   5  -3 -20 117.251 13.4627   2
  -3   5  20 120.182 14.8684   3
  -2  -3  20 104.606 10.5179   7
   5  -2  20 110.986 19.9033   2
  -5   2  20 96.4366 15.9741   3
  -3   5  20 108.272 12.9021  10
  -3  -2 -20 102.577 12.6076  12
  -5   3 -20 106.212 14.5691   3
   5  -2  20 99.6503 11.8041   8
   3  -5  20 112.583 11.4195   9
   2   3  20 99.4726 8.30659  11
  -5   2  20 99.8828 9.92466   7
  -5   3  20 96.9849 14.2089   3
   5  -2 -20 80.1553 9.61951  11
  -2   5  20 78.9261 8.65036  11
  -3  -2  20 81.6943 9.58811   7
   2  -5  20 94.8229 10.6879   5
  -5   3  20 89.6273 15.0783  10
  -2  -3 -20 85.1662 9.78510   7
  -5   2 -20 104.623 11.4565   7
   2   3 -20 102.876 12.8519   6
   3   2  20 96.8523 11.5069   2
  -2   5  20 84.8610 13.0077   3
  -2  -3 -20 86.3602 10.7352   4
  -2   5  20 91.7644 12.8262  10
   3   2  20 78.9422 10.5824   8
   3  -5 -20 88.6486 10.4230   4
  -3   5 -20 81.6255 12.2756   3
  -2  -3 -20 100.857 12.7240  12
   5  -3  20 76.4342 11.3982   8
  -5   3  20 103.169 13.4536  11
   5  -3  20 99.2039 11.8607  11
  -5   2 -20 85.3093 11.6119  11
   2  -5  20 89.0097 11.1112   9
  -3  -2  20 91.5223 9.41324   5
   5  -2 -20 90.2829 11.0099   6
   3   2  20 88.7948 9.02306  11
   5  -2 -20 115.025 14.9215   2
   5  -3  20 91.0891 12.6372   2
  -2   5  20 101.259 11.2851   8
  -3   5 -20 99.5731 9.33023  11
   1  -5 -20 158.249 13.9688   4
   5  -1  20 198.746 15.8711   8
  -4   5  20 218.087 18.7228  10
  -1   5 -20 183.061 17.9727   3
  -4  -1 -20 189.360 14.6765   4
   5  -1  20 191.932 17.2755   2
   1  -5 -20 186.317 14.4002  12
  -4   5  20 187.508 21.8832   3
   1   4  20 218.753 16.6185  10
   4  -5  20 206.967 14.3713   5
   1   4  20 201.994 15.2971   2
   5  -4 -20 203.676 16.0020  11
   5  -4 -20 204.082 12.9803   9
   4   1 -20 180.212 10.5899  11
  -1  -4  20 201.334 13.7780   5
   4  -5  20 196.105 13.3779   9
   5  -1  20 195.545 13.9004  11
   4   1 -20 194.534 15.9433   6
  -5   1  20 179.041 20.5781   3
  -4  -1 -20 194.234 14.8860  12
  -5   4 -20 173.160 15.0518  11
   1  -5 -20 185.755 14.5360   9
   5  -4 -20 202.186 17.8737   2
  -1  -4  20 192.849 13.6811   7
  -4   5  20 189.983 13.8670  11
  -4  -1 -20 193.711 14.3606   7
   1   4  20 197.704 16.5342   8
   4   1 -20 211.762 17.6775   2
  -5   4 -20 190.135 21.1011   3
   1   4  20 196.772 9.36899  11
   4   1  20 181.742 15.9327   8
   1   4 -20 191.243 14.8598   3
  -1  -4 -20 163.962 13.8203   4
   4   1  20 167.310 12.1436  11
   5  -4  20 164.673 12.4593   9
   1   4 -20 200.502 16.2416   6
  -1   5  20 163.737 17.4997  10
   4  -5 -20 178.647 13.2583   4
   4  -5 -20 162.015 12.5652   9
  -4  -1  20 148.529 12.3736   7
  -4   5 -20 152.150 17.5058   3
  -1   5  20 174.809 9.83284  11
  -1   5  20 169.734 15.2341   8
   5  -1 -20 169.874 12.8917  11
   4   1  20 159.006 15.7110   2
  -1  -4 -20 143.157 14.9711   9
   5  -1 -20 148.066 24.5971   2
  -5   1 -20 146.355 12.8912   7
  -1  -4 -20 186.048 14.9190  12
   1  -5  20 175.940 14.3930   9
   5  -4  20 179.301 18.0867   2
  -5   1 -20 200.741 18.7170  11
  -5   1 -20 178.630 13.3416  12
  -5   4  20 175.106 15.2041  11
  -4   5 -20 190.959 13.4053  11
   5  -1 -20 180.620 15.5369   6
   5  -4  20 181.095 15.4067   8
  -5   4  20 166.587 18.7548  10
   5  -4  20 175.111 15.4034  11
   1  -5  20 171.828 13.6594   5
  -5   4  20 168.779 18.6198   3
  -5   5 -20 283.134 18.6182  11
  -5   0  20 275.820 17.1783   7
   0  -5 -20 306.200 19.9295   9
   5   0  20 304.791 17.1860  11
   5   0 -20 301.731 20.3160   6
  -5   0 -20 295.515 18.5216   7
   5   0 -20 293.056 15.7473  11
   0  -5  20 322.098 18.8830   5
   5  -5 -20 322.322 21.8461  11
  -5   5  20 322.339 23.9500  10
   5  -5 -20 284.072 16.7528   9
   5  -5 -20 320.974 22.8765   2
   0   5  20 329.208 20.0189   8
   0   5  20 303.194 19.3769   2
  -5   5  20 323.072 18.7804  11
   0  -5 -20 347.882 19.8942  12
   0  -5 -20 318.041 18.6915   4
  -5   5 -20 284.753 25.5071   3
   0   5  20 327.447 22.1817  10
  -5   0 -20 300.715 19.2397  12
   5  -5 -20 324.955 17.4068   4
   0   5 -20 368.244 22.0254   3
  -5   5  20 306.511 25.6839   3
   5  -5  20 317.213 17.0478   9
   5   0  20 292.593 22.3062   2
   5   0 -20 306.860 22.7658   2
   5   0  20 324.715 20.6203   8
   6  -3  20 46.3784 13.7060   2
  -6   3 -20 46.6540 9.83846   7
  -3   6 -20 26.8136 11.6905  10
   3   3  20 27.1017 11.0678   8
   3  -6 -20 40.3814 10.1617   9
  -3  -3 -20 39.6278 11.4560  12
  -3   6  20 33.0646 7.73668  11
   6  -3 -20 41.4664 9.87826  11
   3   3 -20 50.0519 11.2563   6
  -6   3 -20 33.1949 11.3976  11
   3  -6  20 30.1485 9.72635   5
  -3   6  20 22.2528 10.2292   8
  -3   6  20 47.2090 13.3770  10
  -3   6 -20 31.0394 14.0349   3
   3  -6  20 36.2322 10.8597   9
   6  -3  20 26.0449 11.4028   8
  -3  -3 -20 56.8555 9.39514   7
  -6   3  20 5.56083 11.4928  11
  -3   6  20 35.0215 15.3962   3
   3   3  20 37.7741 12.2317   2
   6  -3  20 40.2917 9.61519  11
  -6   3  20 38.5896 14.3849   3
   3  -6 -20 42.2031 10.2815   4
  -3  -3  20 24.9655 8.51640   7
  -3  -3 -20 14.7621 10.2184   4
   6  -3 -20 47.4484 12.8804   2
   6  -4 -20 138.732 17.0137   2
   6  -2  20 181.886 19.0284   8
   4  -6  20 141.176 15.9973   9
  -2   6 -20 153.935 19.1127  10
   2   4  20 153.004 19.4303   8
  -4  -2 -20 169.758 14.9315   7
   6  -2  20 149.393 15.1226  11
  -6   2  20 172.848 17.1505   7
  -2  -4  20 124.475 14.3880   7
  -4   6  20 142.923 13.4950  11
   4   2 -20 144.928 18.1971   6
  -6   4 -20 137.975 21.2987   3
  -2   6 -20 207.560 23.9511   3
  -4  -2 -20 150.586 17.7538  12
  -4   6  20 167.800 20.8302   3
   2  -6 -20 161.474 15.7558   4
  -4   6  20 153.680 17.7238   8
  -6   4 -20 127.441 17.0899  11
   4  -6  20 158.224 16.2874   5
   6  -2  20 171.912 20.8624   2
   2   4  20 101.246 14.1752   2
  -4   6  20 132.870 17.3671  10
  -4  -2 -20 132.282 16.6089   4
   6  -4 -20 149.101 16.4803  11
   2  -6 -20 139.394 15.0013   9
   6  -4 -20 168.068 13.9745   9
  -6   2  20 125.710 19.6939   3
   4   2  20 131.052 12.4690  11
   6  -4  20 138.798 17.7438   2
   6  -2 -20 108.433 14.4442  11
  -4   6 -20 139.080 18.7677   3
   6  -2 -20 135.037 17.4847   2
   6  -2 -20 104.976 14.8215   6
  -6   2 -20 143.686 17.5688  11
   2  -6  20 129.872 14.2861   9
  -6   2 -20 124.395 15.1930   7
  -2   6  20 116.292 17.0885  10
   6  -4  20 168.507 17.8999   8
   4  -6 -20 132.209 15.1712   9
  -6   4  20 124.585 18.7696   3
  -2   6  20 106.789 14.3684   8
  -4  -2  20 119.725 14.4281   7
  -2  -4 -20 108.642 13.4944   4
  -2  -4 -20 108.742 14.2509  12
  -4   6 -20 142.318 12.8098  11
   4   2  20 124.476 14.9512   8
  -6   4  20 153.440 17.5390  11
   6  -4  20 147.456 17.5181  11
   4  -6 -20 113.742 13.9880   4
   2  -6  20 114.433 13.8956   5
   4   2  20 109.704 14.8216   2
   2   4 -20 141.916 15.8292   6
  -4   6 -20 114.819 16.1298  10
   6  -5 -20 185.263 15.7859   9
  -6   5 -20 176.228 22.8510   3
   5   1 -20 130.532 17.1012   6
   5  -6  20 145.735 15.7946   9
  -1  -5  20 143.862 15.9801   7
   1  -6 -20 155.838 18.1592   9
  -5   6  20 137.824 21.3512   3
  -5  -1 -20 125.007 13.7398   7
  -5  -1  20 150.310 15.8135   7
  -1  -5 -20 141.966 16.0529  12
  -6   5  20 162.857 22.8582   3
   6  -5  20 153.957 15.4416   9
   6  -1 -20 203.109 21.2685   6
   5  -6 -20 195.176 17.2225   9
  -6   1 -20 152.752 17.7604   7
  -5   6 -20 129.661 22.6799   3
   1  -6  20 157.926 17.4377   5
   0   0  21 5.41438 1.77294  11
   0   0  21 -0.5149 1.59178   8
   0   0  21 0.68016 1.14632   9
   0   0 -21 3.39987 1.50722  11
   0   0  21 2.02405 2.08475  10
   0   0 -21 1.89753 2.30496   6
  -1   1 -21 76.1820 7.20099   6
  -1   0  21 78.5878 6.17986   3
   0  -1 -21 78.2707 5.12020  11
  -1   0 -21 72.7858 7.84661   6
   1   0  21 77.8761 4.52490   2
   1  -1 -21 88.1034 5.36523  11
   0  -1  21 76.8109 5.21896  10
  -1   0  21 79.2601 4.88943  11
  -1   0  21 78.7280 4.58035   7
   1   0 -21 82.1012 4.39619   2
  -1   1  21 78.4086 4.61939   8
   1  -1  21 75.9725 5.36290   8
   1  -1 -21 94.9249 6.59686   6
  -1   0  21 86.5169 5.44725  10
   1   0 -21 73.8176 4.89795  11
   1  -1  21 69.5862 4.23960   5
   0  -1  21 77.4289 4.75799   5
   1   0  21 73.2427 5.31641  10
   0   1  21 71.1616 5.84700  10
   0   1  21 70.6990 4.68262  11
   0   1 -21 74.1564 6.35577   6
   0   1  21 74.3688 5.09098   3
   0   1 -21 77.3260 4.69880  11
   0  -1  21 80.1928 4.38431  11
   0  -1 -21 75.7467 4.44700   4
  -1   1 -21 76.5041 5.07830  11
   1  -1  21 83.0238 4.00146   2
   0  -1 -21 77.2330 4.51073   9
   1   0  21 76.1250 4.79422  11
   1   0 -21 79.3370 6.08209   6
  -1   1  21 81.0193 5.90791  10
   0   1  21 79.0494 5.26876   8
  -1   1  21 66.6665 5.82734   3
   1   0  21 78.3130 4.08876   5
  -1   1  21 73.0353 4.90190  11
   0  -1 -21 78.2144 7.47859   6
   1   0  21 75.5301 5.34259   8
   1  -1  21 77.6319 5.26102  10
  -1   0 -21 80.9144 3.84471   4
   0  -1  21 82.5134 4.56692   8
  -1   0 -21 79.9748 5.40562  11
   1  -1 -21 79.0475 3.54555   9
   1  -1  21 72.8260 4.58874  11
  -1   0  21 82.5022 3.71501   8
  -2   1 -21 45.3217 5.53754  11
   1   1 -21 29.1645 4.74299   6
   2  -1 -21 50.4428 5.45448   2
   2  -1  21 45.6784 5.58635   8
   1   1  21 33.4483 4.72745  10
   2  -1 -21 36.4327 4.99645   6
   1   1 -21 41.4177 3.19018   2
  -2   1 -21 37.6611 4.38190   3
  -2   1  21 39.2727 3.54281   7
   1  -2 -21 45.6568 6.00477   6
   2  -1  21 42.1378 3.09971   4
   1   1 -21 36.8112 3.86883  11
  -1  -1 -21 36.0373 4.78069  11
  -1   2  21 39.2959 5.39086  10
  -1  -1  21 40.7698 4.28447  10
  -1  -1  21 39.3850 3.78701  11
  -2   1  21 32.6064 4.39599  10
   1  -2 -21 37.5316 4.70438   4
  -2   1  21 36.9276 4.52782  11
   1   1  21 33.8430 3.97283  11
  -1  -1  21 41.5221 4.26604   7
  -1   2 -21 37.7950 5.47596   6
  -1   2 -21 45.0575 4.54869  11
   1  -2  21 38.0380 4.13795   5
   1  -2  21 39.3685 4.92628   8
  -2   1  21 33.1008 4.99646   3
   1  -2  21 51.1305 3.69655   9
  -1   2  21 45.7343 6.11706  11
   1  -2  21 41.3099 3.89431  11
  -1  -1  21 40.7915 2.92841   2
  -1  -1  21 45.8357 4.67416   5
   2  -1  21 38.2686 3.39168   5
  -1   2  21 28.7289 4.59438   8
   2  -1  21 36.8014 4.56852  11
   2  -1 -21 35.6278 2.69695   9
  -1  -1 -21 42.4960 5.03877  12
  -1  -1 -21 38.8689 3.83992   4
  -1   2  21 48.1018 5.93830   3
   1   1 -21 42.7743 5.20329  11
  -2   1  21 33.2800 3.44320   8
   1  -2 -21 44.6162 3.89654   9
   1  -2 -21 45.3608 4.70356  11
   2  -1  21 47.0523 4.61995   2
   1   1  21 52.5741 5.55993   8
   2  -1 -21 36.2902 4.48680  11
  -2   1 -21 34.7179 6.27091   6
   0  -2 -21 458.555 15.4341  11
   0   2  21 485.830 14.8991   3
  -2   0 -21 502.301 14.2013   4
   0  -2  21 528.082 13.8236  11
   0   2  21 485.166 16.3377   8
   2   0  21 502.064 15.6451  11
   0  -2  21 504.026 15.4699   5
  -2   0  21 486.902 14.8765  10
   2   0 -21 490.999 15.3781   2
  -2   0  21 513.674 15.2756  11
  -2   2  21 474.936 15.8717  11
  -2   0 -21 501.463 13.9036   3
   0   2  21 487.981 16.8837  10
   0  -2 -21 474.752 14.9863   4
   2  -2 -21 498.407 11.9578   7
  -2   2  21 500.007 18.3718   3
   2   0  21 474.353 16.1728   2
   2   0  21 520.435 12.9386   5
   2   0  21 489.416 16.7424   8
   0  -2  21 515.043 13.0310   9
  -2   2  21 485.499 15.0772   8
   0  -2 -21 507.595 12.8897   7
   2   0 -21 489.215 16.8302   6
   2   0 -21 491.420 12.3895   9
  -2   0 -21 468.080 16.5800  11
   0  -2 -21 479.052 16.9860   9
   2  -2  21 499.825 15.3373  11
  -2   2 -21 499.469 16.5054  11
   0   2  21 491.272 15.1622  11
   2  -2  21 490.346 14.6452   5
   0  -2 -21 489.197 18.6374   6
  -2   2 -21 487.655 16.5315   3
  -2   2  21 479.534 17.0753  10
   2   0 -21 487.130 15.1981  11
   2  -2 -21 494.292 17.0288   2
   0  -2  21 491.396 15.4786   7
   2  -2 -21 507.661 13.9953   9
   0   2 -21 508.115 17.4166   6
  -2   0 -21 478.225 15.7179  12
   2  -2  21 490.089 16.5885   8
   2  -2 -21 479.304 16.4235   6
  -2   2 -21 426.478 22.8619   6
   2   0  21 477.895 15.5501  10
  -2   0 -21 506.878 20.1706   6
  -2   0  21 493.210 17.3374   3
  -2   0  21 491.355 14.9069   5
   0   2 -21 492.503 14.1217  11
   0   2 -21 494.463 13.7313  11
   2  -2  21 490.345 14.5607   2
   0  -2 -21 483.344 16.0203  12
   2  -2 -21 465.190 16.3708  11
   2  -3  21 93.3287 6.83241  11
  -3   1  21 92.1935 7.15426  10
  -3   2 -21 84.0615 8.80655   3
   3  -2 -21 91.1457 7.38900  11
  -3   2 -21 99.5769 8.67060  11
  -3   1  21 87.5153 10.0999   3
   1  -3 -21 99.5235 7.32299  11
  -2   3  21 101.574 9.60911   3
   1   2  21 104.138 8.39662   8
  -2  -1 -21 95.8241 10.6844   6
   3  -2 -21 108.683 8.94124   2
  -2  -1 -21 92.2882 7.56644  12
   1   2  21 94.7250 7.67515  10
   1  -3 -21 101.531 8.42842   6
  -2  -1 -21 91.7958 7.70015  11
  -2  -1 -21 99.0612 6.86483   4
   2   1 -21 88.2486 7.14165   2
   2   1 -21 104.916 8.65845   6
  -2   3  21 83.3094 8.77643  10
   2  -3  21 96.9204 6.72187   9
   3  -2 -21 106.104 8.39276   6
   1  -3 -21 96.7642 7.31085  12
   1   2  21 97.1708 6.09632  11
  -2  -1 -21 101.544 6.83400   7
  -3   2 -21 89.1226 5.70124  12
  -2   3  21 104.160 7.30510  11
  -1  -2  21 96.3267 6.74649   5
   3  -1  21 89.8457 6.92451  11
   3  -1  21 96.0196 4.59899   5
   3  -1  21 105.567 8.56052   8
  -2   3  21 80.4566 7.41743   8
  -3   1  21 80.5720 6.03919   7
   1  -3 -21 108.171 7.48104   4
  -3   2 -21 105.171 11.0416   6
   1  -3 -21 85.0587 6.78592   9
   3  -2 -21 97.4103 5.54569   9
  -3   1  21 86.1090 8.29989  11
  -1   3 -21 98.9565 5.99038  11
   1   2  21 103.294 7.48787   2
   2   1 -21 96.7234 5.82632  11
  -3   1  21 95.6636 4.85335   8
  -1  -2  21 100.256 7.01514   7
   2  -3  21 104.365 6.41679   2
   2  -3  21 104.761 8.34475   8
  -1   3 -21 84.6774 8.64401   6
   3  -1  21 99.5585 8.18011   2
   2  -3  21 94.9976 6.84079   5
  -2   3 -21 133.698 8.21465  11
  -1  -2 -21 133.319 11.9253   6
   3  -1 -21 136.095 9.23245   6
   1   2 -21 132.315 8.96148   6
   2   1  21 126.277 7.46036  11
  -3   1 -21 131.796 12.3837   6
   2  -3 -21 128.414 8.10753   4
  -1   3  21 145.408 10.0056  10
  -1   3  21 132.258 7.50367  11
  -2  -1  21 134.445 7.50426   5
   2   1  21 147.481 8.68908   2
   3  -2  21 135.410 9.43785   8
  -3   2  21 137.311 8.96095  11
  -2   3 -21 145.975 9.56483   3
   1  -3  21 133.541 6.70497   9
   1  -3  21 146.418 7.00622  11
   3  -1 -21 138.501 9.71744   2
  -2  -1  21 144.189 7.89550   7
   3  -2  21 131.761 8.57754  11
  -1  -2 -21 130.504 8.29961  11
  -3   1 -21 135.972 9.69932  11
   1   2 -21 129.981 6.84396  11
   2  -3 -21 125.764 7.28383   9
  -3   2  21 117.701 9.42402  10
  -3   1 -21 136.004 8.51923   3
   3  -2  21 136.826 9.38602   2
  -3   1 -21 135.156 7.73857  12
  -1  -2 -21 121.149 7.69956   4
   3  -2  21 129.473 6.43039   5
  -1  -2 -21 134.811 8.80630   9
   3  -1 -21 131.674 8.23675  11
   2   1  21 141.871 9.08617   8
   1  -3  21 125.279 8.02927   5
  -1   3  21 128.665 8.97543   8
  -2  -1  21 139.400 7.30822  11
   2  -3 -21 129.431 9.74222   6
  -3   2  21 114.592 10.3460   3
   1   2 -21 125.765 5.66460   2
  -1  -2 -21 130.047 6.61412   7
  -1  -2 -21 132.341 8.79632  12
  -2   3 -21 133.093 10.6642   6
  -3   2  21 127.004 5.91285   7
   3  -3  21 1859.30 46.4087  11
   0  -3 -21 1832.75 46.9942   9
   0  -3  21 1858.09 43.8503   9
  -3   3 -21 1900.80 42.1936  12
   3  -3  21 1817.51 45.5298   2
   0   3  21 1856.67 48.3471  10
  -3   0 -21 1778.82 48.0111  11
   0   3 -21 1751.09 41.2541  11
  -3   0  21 1818.93 44.5615   5
   0  -3 -21 1872.35 45.7660  11
   3   0  21 1812.75 47.6362   2
  -3   3 -21 1865.47 47.9585  11
  -3   3  21 1855.23 51.0492   3
  -3   0  21 1826.42 42.8486  10
   3   0  21 1745.18 48.5561  10
   3  -3  21 1873.91 45.0124   5
   0  -3 -21 1784.56 46.9044  12
   0  -3 -21 1816.91 46.2599   4
   0  -3  21 1856.11 46.2189   7
  -3   0 -21 1767.35 52.4314   6
   0   3 -21 1861.18 48.1928   6
  -3   0  21 1894.45 45.8292  11
   3   0  21 1835.63 46.2935  11
   0   3  21 1854.52 44.1036   3
  -3   3  21 1877.98 48.9811  10
   0   3  21 1868.07 48.0699   8
   3  -3 -21 1810.33 49.0656   2
  -3   3 -21 1881.97 50.1866   6
  -3   0 -21 1832.37 46.5249  12
   0  -3 -21 1886.84 41.8361   7
   3  -3  21 1856.90 48.6761   8
  -3   0 -21 1814.15 44.9740   4
   3   0 -21 1786.52 46.5999   2
   3   0 -21 1826.36 48.0701   6
   3   0 -21 1809.54 45.5448  11
  -3   0  21 1856.03 45.3735   7
   0   3  21 1778.37 44.4873  11
   3   0  21 1843.65 48.0481   8
   0  -3 -21 1831.06 47.3587   6
  -3   3  21 1778.85 47.1666  11
  -3   3 -21 1821.61 49.2504   3
   3  -3 -21 1863.70 46.0972   6
   3  -3 -21 1751.95 46.9025  11
   3  -3 -21 1900.16 44.7739   9
   0  -3  21 1831.69 46.1634   5
  -3   0  21 1851.33 48.8637   3
  -4   2  21 38.2330 4.82070   7
   4  -2  21 29.8462 5.64217  11
   2  -4 -21 47.6890 7.08196  11
   2  -4 -21 33.0110 5.44610  12
   2   2 -21 37.8331 4.32685  11
   2   2  21 37.9317 6.15649  10
  -2  -2 -21 34.9027 5.38404   7
   2  -4 -21 33.2135 5.91705   4
   2   2  21 29.0743 4.53011  11
  -4   2  21 30.7731 6.73597  11
  -2  -2  21 41.1058 6.14485   7
  -2   4 -21 27.2409 7.18793   3
  -2   4 -21 25.5747 4.92202  11
   4  -2 -21 34.0943 4.67249   9
   4  -2 -21 31.8495 6.01618  11
  -2   4  21 32.9533 5.21569  11
  -2   4  21 22.7125 6.54527  10
  -4   2 -21 41.6360 9.25719   6
   2   2 -21 46.4277 7.73906   2
  -4   2 -21 48.1377 8.86219   3
  -4   2 -21 31.5241 6.55945  11
   2   2  21 32.9370 6.52527   8
  -2   4 -21 26.6472 7.66378   6
   2  -4 -21 29.9129 5.30766   9
   4  -2 -21 36.2057 7.32239   2
   4  -2  21 25.4823 7.10002   2
   4  -2 -21 29.6476 6.95537   6
  -2   4  21 35.1577 6.79819   8
  -2  -2  21 31.4580 5.78505   5
  -2  -2 -21 23.7264 5.81716  12
   2   2  21 27.2604 6.01787   2
   2   2 -21 34.7304 6.83445   6
  -4   2 -21 34.6120 5.10948  12
   4  -2  21 30.6333 6.85208   8
  -4   2  21 40.1624 7.30960  10
   2  -4  21 35.0192 6.37880   5
   2  -4  21 32.4174 5.64875   9
  -2  -2 -21 43.1275 6.60141   4
  -2   4  21 29.3511 8.51557   3
  -4   2  21 36.3105 8.72789   3
   1  -4 -21 979.244 30.0380   4
  -4   1  21 978.531 27.1479   5
  -1  -3  21 980.616 27.6280   9
  -4   3 -21 987.599 33.4678   3
  -3   4  21 1000.73 29.6573  11
   1   3  21 982.916 31.4941   8
  -4   1  21 1030.04 27.9118   7
   1   3  21 1038.60 30.4940  10
  -4   3 -21 965.625 33.0131   6
  -1   4 -21 1024.51 31.1541   6
  -3  -1 -21 987.286 28.6891   7
  -1   4 -21 965.694 31.6707   3
   3   1 -21 1026.84 27.0159  11
  -3   4  21 988.337 34.6819   3
   1  -4 -21 1005.09 28.8298  12
   4  -3 -21 1002.86 27.4097   9
   4  -3 -21 999.263 30.7153  11
  -3  -1 -21 999.897 29.2776   4
  -4   1  21 979.893 33.0718   3
   4  -1  21 985.764 31.5470   2
   4  -1  21 1014.07 30.1168  11
   1  -4 -21 991.132 31.9094   9
   3   1 -21 1015.74 31.8001   6
   3   1 -21 1029.42 29.7061   2
  -4   1  21 957.326 29.9658  11
   3  -4  21 999.616 28.9827   5
   3  -4  21 1002.28 28.3665   9
   1   3  21 917.542 26.3182  11
  -1  -3  21 1000.94 28.8927   5
  -3   4  21 978.792 32.6407  10
  -1  -3  21 966.828 29.0408   7
   4  -1  21 982.224 31.3366   8
   1   3  21 1002.30 30.8537   2
  -3  -1 -21 960.632 31.0717  11
  -3  -1 -21 984.681 30.7595  12
   4  -3 -21 1004.73 29.9327   6
   4  -3 -21 1002.70 33.0669   2
  -4   3 -21 945.645 31.3646  11
  -1  -3 -21 1009.50 31.8419   9
   4  -3  21 1027.72 32.5857   8
   3   1  21 1017.92 29.2703  11
  -1   4  21 1032.19 30.9284   3
  -1  -3 -21 1038.82 30.5546   4
   3  -4 -21 1050.18 31.1309  11
  -3   4 -21 1007.98 33.5106   3
   4  -1 -21 1029.73 30.2713  11
  -1   4  21 984.471 27.9733  11
   1   3 -21 1013.47 31.8115   6
   3   1  21 1011.04 31.9575   8
   3   1  21 1014.09 27.8436  10
   4  -1 -21 1047.99 32.4045   2
   1  -4  21 1043.19 30.4112   5
  -4   3  21 987.630 31.5000  11
  -1  -3 -21 1035.25 31.7359  12
  -3  -1  21 1013.73 28.3386   5
  -3   4 -21 1034.55 32.5534   6
  -3   4 -21 1018.01 30.5700  11
  -4   3  21 1073.49 32.2576  10
   4  -3  21 1018.44 27.2648   5
  -4   1 -21 1060.95 29.5380  12
  -4   3  21 1044.28 35.0232   3
   1  -4  21 1055.19 28.5078   9
  -1   4  21 1053.01 33.3542  10
  -1  -3 -21 1000.16 27.0211   7
  -4   1 -21 987.786 36.6571   6
  -3  -1  21 1003.11 29.3953   7
   3   1  21 1028.45 32.3415   2
   3  -4 -21 1003.24 27.3033  12
   4  -1 -21 1031.23 31.8386   6
   3  -4 -21 1001.70 29.1697   9
   3  -4 -21 1002.49 30.4935   4
  -4   1 -21 1043.30 33.1355  11
  -1   4  21 1000.85 31.4608   8
   4  -3  21 1088.01 31.3034  11
   4  -3  21 998.366 31.5838   2
   4  -4 -21 394.948 18.5002  11
   0  -4  21 392.520 16.9802   5
   4   0 -21 391.357 15.6015  11
   4  -4 -21 397.339 15.9286   9
   0   4  21 393.060 19.5675  10
  -4   0  21 353.758 15.5671   7
   4  -4  21 418.534 18.5110   2
   4  -4 -21 370.210 19.8374   2
   4   0  21 345.967 18.7509   2
   4   0 -21 381.909 19.5696   2
   4   0 -21 405.125 18.8512   6
  -4   4 -21 411.642 21.7397   3
  -4   4 -21 393.735 18.3177  11
   0  -4  21 375.465 15.8750   9
  -4   0 -21 382.775 19.7231  11
  -4   4 -21 377.613 19.1443   6
   0  -4 -21 386.194 17.6211  12
  -4   0  21 375.150 19.8634   3
   4  -4  21 394.669 17.0772   9
  -4   4  21 406.017 20.4181  10
   4  -4  21 365.577 18.9492   8
   0   4 -21 384.801 18.6640   3
   4   0  21 376.844 18.4855   8
  -4   4  21 374.822 17.5625  11
   0  -4 -21 370.482 17.6271   9
   0   4  21 375.265 14.3224  11
   4  -4  21 394.332 16.0636   5
  -4   0 -21 391.042 17.4873  12
   4   0  21 366.631 16.2184  11
   0   4  21 386.419 18.7528   8
   0   4 -21 393.039 18.9206   6
  -4   0 -21 395.334 17.2102   7
   4  -4  21 384.170 17.6106  11
  -4   4  21 388.006 22.6351   3
  -4   0  21 380.320 15.0155   5
   0  -4 -21 369.751 17.0862   4
   5  -2  21 9.99320 7.58995   8
   2  -5 -21 -0.5361 6.42451   4
  -3   5  21 6.69383 7.44172   8
   3  -5  21 2.45564 6.45106   9
   3  -5  21 16.8959 7.09719   5
   2   3  21 -2.6956 7.64912   8
  -2   5 -21 -2.4903 8.51587   3
  -3  -2 -21 6.81335 6.72622  12
  -2  -3  21 11.8512 5.95915   7
  -3  -2 -21 1.06657 5.98191   7
   3   2 -21 4.47688 7.37458   6
   2   3  21 1.11416 4.32088  11
   5  -2  21 0.88896 6.22979  11
   5  -3 -21 5.95355 5.17721   9
  -3   5  21 5.50517 4.98150  11
  -3   5  21 31.6680 11.9390   3
  -3   5  21 21.7566 9.63571  10
   2   3  21 -5.8293 6.58153   2
  -5   3 -21 2.44799 7.37843  11
  -5   2  21 -0.0388 7.72513  11
   2  -5 -21 4.61962 6.23061   9
  -2  -3  21 6.62348 7.08101   5
   5  -3 -21 5.70957 8.67135   2
   5  -3 -21 5.68893 6.21229  11
   5  -3 -21 -11.810 7.74211   6
  -5   3 -21 7.32224 11.0639   3
  -5   2  21 6.94184 17.9591   3
  -5   2  21 2.82743 5.56388   7
  -3  -2 -21 8.51770 8.86249   4
   3  -5 -21 -3.2697 6.63307   4
  -5   3  21 4.83801 7.24883  11
  -2  -3 -21 20.3934 7.85890  12
   5  -2 -21 2.55528 5.44700  11
  -2   5  21 1.36245 10.1467   3
   2  -5  21 4.52087 6.95981   9
   3   2  21 0.70014 4.46004  11
  -2  -3 -21 7.07772 6.77027   4
  -2  -3 -21 -1.3214 5.91131   7
  -3  -2  21 4.42596 5.40717   7
   5  -2 -21 13.5341 5.19989   9
  -3   5 -21 7.24814 5.19302  11
  -2   5  21 3.01820 6.68831   8
  -3   5 -21 8.94182 8.90807   3
  -5   3  21 -4.1108 10.1799   3
   5  -3  21 8.61694 7.16183  11
  -5   2 -21 11.6722 8.16126  11
   2   3 -21 -0.7801 6.68373   6
  -2   5  21 9.29865 4.69936  11
  -3  -2  21 12.6910 7.34837   5
   2  -5  21 -12.490 6.05605   5
   5  -3  21 8.33396 9.49487   2
   3   2  21 -9.5547 7.05631   2
  -2   5  21 -9.6600 8.66829  10
   5  -3  21 12.5098 8.20822   8
   5  -2 -21 -6.8301 7.92657   6
   1  -5 -21 679.792 24.6940  12
  -4  -1 -21 677.229 26.2462  12
  -5   4 -21 689.194 27.4669  11
   5  -1  21 648.999 27.6266   8
   5  -4 -21 701.299 26.7656  11
   1  -5 -21 651.938 25.7293   4
  -4   5  21 677.847 29.2677  10
  -4   5  21 684.777 32.3855   3
   1   4  21 709.290 26.5962  10
  -4  -1 -21 630.263 24.7263   7
   4   1 -21 658.795 26.7016   6
   1  -5 -21 662.963 25.8496   9
   1   4  21 619.760 25.8276   2
   5  -4 -21 678.721 29.7253   2
   5  -1  21 676.130 28.9357   2
   4   1 -21 695.107 21.4461  11
  -1  -4  21 631.389 24.0888   7
  -1   5 -21 688.634 28.5967   3
   4  -5  21 700.078 25.1301   5
   4   1 -21 725.095 28.4844   2
  -4   5  21 634.382 24.6647  11
   1   4  21 636.114 26.8809   8
  -1  -4  21 699.682 24.9882   5
  -4  -1 -21 650.879 25.8305   4
   1   4  21 653.336 19.3643  11
   5  -1  21 658.411 25.1151  11
  -5   1  21 571.391 25.6782   7
  -5   4 -21 653.165 32.0964   3
   5  -4 -21 658.236 23.1004   9
   4  -5  21 675.167 23.8992   9
   5  -4  21 639.268 25.7134  11
   5  -4  21 642.755 23.3609   9
  -1   5  21 617.605 27.2916  10
  -5   4  21 701.617 26.5077  11
   4   1  21 620.135 22.7622  11
   1   4 -21 701.747 26.9628   6
  -1  -4 -21 625.260 26.3582   9
   5  -4  21 614.700 26.6101   8
  -5   1 -21 678.201 24.8113  12
  -1  -4 -21 664.681 26.0169  12
  -4  -1  21 645.023 23.5099   7
  -5   1 -21 652.138 24.9530   7
  -5   4  21 691.538 28.4543  10
   4   1  21 588.890 26.6521   2
   1   4 -21 709.570 26.0711   3
  -5   1 -21 699.295 29.4809  11
   5  -1 -21 630.477 23.8352  11
  -1   5  21 629.518 20.0377  11
   5  -1 -21 576.648 31.6096   2
  -4   5 -21 669.572 24.4778  11
  -1   5  21 648.391 26.4832   8
   5  -1 -21 645.933 26.8074   6
   4   1  21 647.896 26.4314   8
   1  -5  21 667.941 24.2168   9
   4  -5 -21 627.659 24.1020   4
  -5   4  21 639.835 30.5184   3
   4  -5 -21 633.886 23.5981   9
   5  -4  21 663.784 27.7442   2
  -4   5 -21 619.058 30.2840   3
  -1  -4 -21 609.448 24.8812   4
   1  -5  21 630.819 24.6708   5
  -5   0  21 246.849 16.3980   7
   5   0  21 230.331 20.1909   2
  -5   0 -21 261.966 17.5148   7
   0   5  21 306.964 19.6382   8
   0  -5  21 292.017 17.9973   5
  -5   5  21 287.205 22.5949  10
   5  -5 -21 289.907 16.5267   9
   5   0  21 231.864 15.9685  11
   5   0  21 270.046 18.9703   8
   5  -5  21 248.049 15.8648   9
  -5   0 -21 277.930 18.1619  12
   0   5 -21 275.725 20.9228   3
   5   0 -21 280.514 15.3609  11
   5  -5 -21 278.918 20.3171  11
   0   5  21 279.533 19.0138   2
  -5   5  21 223.615 23.5745   3
   0   5  21 229.573 21.2987  10
  -5   5 -21 231.099 24.2880   3
  -5   5  21 240.058 17.3442  11
   0  -5 -21 232.760 18.5531   9
   0  -5 -21 308.937 19.0681  12
   5   0 -21 239.455 20.1112   6
  -5   5 -21 277.864 18.2062  11
   5  -5 -21 255.707 22.0247   2
   5  -5 -21 264.924 16.3216   4
   5   0 -21 301.922 21.3937   2
   0  -5 -21 267.809 18.4373   4
  -3   6  21 15.6905 10.7633   8
   3   3  21 32.9024 10.8942   8
  -3  -3 -21 27.6205 10.3328   4
  -3  -3 -21 26.3824 11.0554  12
   3  -6 -21 32.2471 10.5085   4
   6  -3 -21 43.5615 13.1249   2
  -6   3 -21 29.1925 8.76987   7
  -3   6 -21 44.2422 14.9412   3
   3  -6  21 41.7641 11.2874   9
   6  -3  21 44.8029 10.0439  11
   3  -6 -21 25.1600 9.78058   9
  -6   3 -21 27.8927 11.1765  11
  -3   6 -21 28.2320 11.6263  10
  -6   3  21 20.2872 13.9383   3
  -3   6  21 7.53265 15.0560   3
   3   3  21 38.5693 11.3328   2
   6  -3  21 21.4428 10.9986   8
  -3  -3 -21 22.2647 8.50819   7
  -3   6  21 37.9399 7.98980  11
  -3   6  21 37.7053 13.6078  10
  -3  -3  21 27.9481 8.71930   7
   3   3 -21 7.45599 11.1716   6
   3  -6  21 37.3606 9.94336   5
  -6   3  21 47.4852 12.1346  11
   6  -3 -21 35.9580 9.73681  11
   6  -3  21 39.5151 13.9304   2
   6  -4 -21 25.5016 12.8099   2
   6  -2  21 42.9793 9.79810  11
  -6   2  21 33.5969 15.8702   3
   2   4  21 33.2249 12.4561   8
   4  -6  21 34.8411 10.3099   5
  -6   4 -21 30.9006 10.6797  11
  -4   6  21 24.0146 17.2368   3
  -4  -2 -21 34.9180 11.3219  12
  -6   4 -21 36.8481 18.6524   3
  -4  -2 -21 46.9942 9.99163   7
  -4   6  21 26.2672 8.26820  11
   2  -6 -21 41.4358 10.8676   4
   2  -6 -21 42.8196 11.0447   9
   4  -6  21 57.2965 11.1541   9
  -2   6 -21 39.1359 13.2813  10
  -2   6 -21 33.4062 14.1115   3
   2   4  21 20.3072 11.5266   2
   6  -4 -21 35.7146 9.82902  11
  -4   6  21 58.1386 12.6783   8
  -4   6  21 37.0243 13.6400  10
   6  -2  21 31.4349 11.9798   8
  -4  -2 -21 53.4424 12.0491   4
   6  -4 -21 31.1759 8.78673   9
   6  -2  21 42.3394 14.0545   2
  -2  -4  21 48.4965 9.84032   7
   4   2 -21 47.6237 12.2097   6
   4  -6 -21 22.9431 9.23728   4
  -6   2 -21 32.2575 13.2384  11
   6  -4  21 40.6812 15.1285   2
   2  -6  21 30.1580 10.1255   5
   6  -2 -21 9.14024 12.1806   6
  -6   4  21 14.5230 15.1687   3
  -4  -2  21 23.9502 8.68984   7
  -6   2 -21 50.6040 10.5796   7
  -2  -4 -21 49.9590 11.1157   4
  -2   6  21 57.2416 12.1309   8
   4  -6 -21 38.4166 10.0097   9
   4   2  21 23.0779 7.80387  11
   2   4 -21 45.0421 12.2747   6
  -2  -4 -21 9.13974 10.6975  12
  -2   6  21 6.77439 13.5524  10
   6  -2 -21 53.3317 14.4531   2
  -4   6 -21 34.9958 14.6380   3
  -4   6 -21 32.5323 8.34243  11
   6  -4  21 29.0038 11.9543   8
   6  -2 -21 26.6069 8.70580  11
  -4   6 -21 65.7377 13.8131  10
   4   2  21 36.6675 12.1341   8
   2  -6  21 47.2860 11.1633   9
   6  -4  21 36.1467 11.0268  11
   4   2  21 37.1564 12.6714   2
  -6   4  21 17.2251 10.1883  11
   0   0  22 0.75684 1.78265   8
   0   0  22 6.08261 2.40023  10
   0   0  22 3.29262 1.28039   9
   0   0 -22 1.97029 1.81026  11
   0   0 -22 4.26110 3.04644   6
   0   0  22 0.63582 1.60492  11
   0  -1  22 1453.96 33.2192   8
   0   1 -22 1344.66 34.0425  11
  -1   0  22 1409.21 36.4862   3
   1  -1  22 1390.81 34.7542   8
   0  -1  22 1393.78 34.8277  10
   0  -1 -22 1423.45 33.3101   9
   1  -1  22 1363.96 33.2714   5
   0  -1  22 1378.83 33.8840   5
   0  -1 -22 1386.03 38.0792   6
  -1   0  22 1424.49 33.5285   7
  -1   0 -22 1389.53 32.1215   4
  -1   1  22 1340.07 34.3976  11
   1  -1 -22 1390.30 34.9093  11
  -1   1 -22 1381.50 38.1479   6
   0   1  22 1384.32 34.4080   3
   1  -1 -22 1405.22 36.5536   6
   1  -1 -22 1490.91 31.8741   9
   1   0  22 1333.76 34.8222   8
   1   0  22 1377.86 34.3040  11
   1   0 -22 1442.60 32.9254   2
   1   0  22 1387.55 33.3702   2
   0  -1  22 1382.37 33.3671  11
  -1   1  22 1360.62 35.5234  10
   1  -1  22 1455.88 32.1222   2
   0   1 -22 1378.96 36.6902   6
  -1   1  22 1368.06 33.4745   8
   1   0 -22 1400.10 36.2849   6
  -1   0 -22 1323.24 38.6662   6
  -1   1  22 1378.42 36.0785   3
   1   0  22 1401.11 32.9295   5
   1  -1  22 1379.17 34.0582  11
   0   1  22 1378.50 35.6096  10
   0  -1 -22 1413.96 33.3132   4
  -1   1 -22 1353.48 34.8080  11
   1  -1  22 1386.18 35.0646  10
   0   1  22 1396.86 34.3362  11
  -1   0  22 1431.99 34.1338  11
   1   0 -22 1387.78 34.5449  11
   1   0  22 1369.75 35.1324  10
   0   1  22 1402.49 34.6914   8
  -1   0  22 1382.39 34.7785  10
  -1   0  22 1426.94 31.9685   8
  -1   2 -22 101.561 6.13717  11
  -1   2  22 87.2724 7.41627   3
  -2   1 -22 97.1170 4.06206   4
   2  -1 -22 87.1556 3.90525   9
  -1  -1  22 95.4442 5.84096   5
  -2   1 -22 88.4779 9.06300   6
   2  -1  22 88.9482 3.96442   4
  -1   2 -22 90.4278 9.06486   6
   1   1 -22 92.9110 5.44485  11
  -2   1 -22 92.2430 6.25642   3
  -1  -1  22 105.381 6.14896  10
  -1  -1  22 96.7540 5.28067  11
   2  -1 -22 94.5800 6.72750   2
  -1   2  22 90.5279 5.91714  11
  -2   1 -22 96.9202 6.95803  11
   2  -1  22 96.3494 5.95989   2
   1   1 -22 93.9563 4.16021   2
   1  -2  22 98.1302 4.67497   9
   2  -1 -22 92.2796 6.17628  11
  -2   1  22 82.3172 6.14224  11
  -1  -1 -22 93.1614 6.52138  11
  -1  -1 -22 93.8499 7.99349   4
   1  -2  22 89.9288 5.53696   5
   1  -2 -22 90.1654 5.23847   9
   1  -2 -22 103.741 6.31308   4
   1  -2 -22 97.2170 8.57473   6
   2  -1  22 100.654 6.68690  10
  -1  -1  22 96.7805 5.79052   7
  -2   1  22 97.0675 6.94673  10
   1  -2  22 93.7140 7.02826  11
   1   1  22 90.8352 7.03736   8
  -1  -1  22 92.0666 3.80641   2
  -1   2  22 82.9718 7.22055   8
   1  -2 -22 90.2547 6.42879  11
  -1   2  22 83.4082 6.85449  10
  -1  -1 -22 90.2349 10.2905   6
   1   1  22 96.0256 6.62773   2
  -2   1  22 97.7441 8.13998   3
   2  -1  22 94.5391 7.08647   8
  -2   1  22 99.6707 5.07583   7
  -1  -1 -22 86.5328 6.59308  12
   2  -1  22 96.6148 4.78158   5
   1   1 -22 90.0046 7.32398   6
   1   1  22 94.4715 5.71801  11
   1  -2  22 92.0811 6.48160   8
  -2   1  22 94.3974 4.82751   8
  -2   2 -22 7.62162 4.68607   6
  -2   2  22 16.2954 3.47818  11
  -2   0  22 12.3458 3.00579  11
  -2   2  22 9.45622 3.96333  10
  -2   2 -22 8.44112 3.26261  11
   2   0  22 13.7825 2.13129   5
  -2   0  22 13.7084 3.27321  10
  -2   2 -22 10.1170 3.57482   3
  -2   0 -22 19.0218 2.98964   3
   2   0 -22 10.0104 3.26674   2
   2  -2  22 9.02577 2.90589  11
   0  -2 -22 18.4099 3.57731  11
   2   0  22 12.7931 3.73719   8
   0  -2 -22 12.2859 5.46900   6
   0  -2 -22 14.8819 3.15907   4
   2   0  22 14.3790 2.94383  11
  -2   0 -22 17.0226 3.02043   4
   2   0 -22 13.2045 1.95155   9
  -2   0 -22 12.5833 3.74673  11
   0   2  22 10.3167 2.63519  11
   2   0 -22 12.9936 3.61722   6
   0  -2  22 15.1687 2.35927   9
   0  -2  22 11.5233 2.59580  11
   0   2 -22 13.3619 4.18888   6
   0   2  22 11.3191 3.27461   3
   0  -2 -22 11.6139 3.34504  12
   2  -2 -22 11.9572 1.99941   7
   2  -2 -22 16.3540 4.24360   6
  -2   0 -22 22.8889 6.31597   6
  -2   0 -22 16.9424 3.40604  12
  -2   2  22 11.9846 3.13016   8
   0  -2  22 13.9506 2.96249   5
   2   0  22 16.4395 4.07909   2
  -2   0  22 12.4343 3.05449   7
   2   0  22 7.04182 3.99712  10
   2  -2  22 14.4818 3.32524   2
  -2   0  22 6.98577 3.98942   3
   2  -2 -22 16.1707 4.13389   2
   2  -2  22 8.98583 3.65249   8
   2   0 -22 12.2691 2.91182  11
   2  -2 -22 13.6524 3.46609  11
  -2   2  22 7.59384 4.42311   3
  -2   0  22 15.9784 3.00898   5
   0   2  22 11.7009 3.27910   8
   0   2  22 19.4606 4.50694  10
   0   2 -22 17.5113 2.90928  11
   0  -2 -22 14.1477 2.19605   7
   2  -2 -22 16.4316 2.57856   9
  -1   3 -22 1787.78 42.5293  11
  -2  -1 -22 1745.64 50.1576   6
  -2  -1 -22 1727.28 45.1599  11
   2  -3  22 1773.94 43.9243   5
   3  -2 -22 1702.07 41.4185   9
  -2   3  22 1804.73 47.7292   3
  -3   1  22 1798.26 42.4998   7
   2   1 -22 1759.55 46.2393   6
  -3   1  22 1790.10 39.9600   8
   1   2  22 1743.26 46.0051   8
   1  -3 -22 1743.89 43.7702   9
   1  -3 -22 1787.93 44.6920   4
   1   2  22 1759.06 45.0564   2
   1   2  22 1794.42 45.1905  10
   3  -2 -22 1735.36 46.4326   2
   2  -3  22 1739.81 42.6953   9
   3  -2 -22 1723.63 45.0654  11
   2   1 -22 1765.69 42.6378   2
   3  -1  22 1770.31 46.3086   8
   2  -3  22 1803.24 45.8148   8
   3  -1  22 1672.46 44.4499  11
   2  -3  22 1796.70 40.9944   2
   2  -3  22 1814.52 43.2903  11
  -3   2 -22 1815.45 46.2418   3
   1  -3 -22 1762.70 44.8280   6
   3  -1  22 1736.08 45.1660   2
  -2   3  22 1762.98 47.1350  10
   1  -3 -22 1842.47 44.5619  11
  -2  -1 -22 1773.33 43.5758   4
   3  -2 -22 1801.58 45.3558   6
  -2  -1 -22 1799.12 43.5331   7
   1  -3 -22 1722.51 43.9962  12
  -1  -2  22 1807.27 44.0001   5
  -1  -2  22 1737.43 44.0422   7
  -2   3  22 1809.41 44.7903  11
  -1   3 -22 1699.01 46.5476   6
  -2   3  22 1817.71 44.8753   8
  -3   1  22 1740.76 47.5814   3
  -2  -1 -22 1740.65 45.5987  12
   2   1 -22 1737.07 42.5037  11
  -3   2 -22 1767.35 46.4233  11
  -3   2 -22 1754.20 42.0690  12
   3  -1  22 1834.16 40.2565   5
  -3   2 -22 1763.28 49.1200   6
  -3   1  22 1722.89 43.4533  10
  -3   1  22 1710.92 44.5762  11
   1   2  22 1765.94 43.2978  11
  -2   3 -22 1625.92 44.0364   6
   1  -3  22 1774.36 41.5492  11
  -2  -1  22 1646.91 39.1605  11
  -2  -1  22 1601.31 40.1171   5
   3  -1 -22 1603.34 42.3031   2
   2   1  22 1651.87 42.1487   2
   2   1  22 1605.48 40.6156  11
   1  -3  22 1626.04 38.7295   9
  -1  -2 -22 1626.77 42.7205  12
   2  -3 -22 1645.73 41.8814   4
  -3   2  22 1620.91 42.3502  10
  -1   3  22 1573.52 42.0275   8
   3  -2  22 1582.59 38.5465   5
  -1  -2 -22 1611.72 42.2819   9
  -1   3  22 1556.24 43.5587  10
  -1  -2 -22 1603.27 41.1650  11
   1   2 -22 1682.57 43.2609   6
   3  -1 -22 1619.75 42.6061   6
  -2  -1  22 1622.94 40.5943   7
   1  -3  22 1609.34 41.0443   5
  -3   2  22 1636.66 45.6861   3
  -3   2  22 1636.15 42.1984  11
   2  -3 -22 1637.82 41.5569   6
  -1  -2 -22 1649.47 40.9481   4
   2   1  22 1557.69 40.6788  10
  -3   2  22 1648.18 37.7555   7
   2   1  22 1609.18 42.6383   8
  -1   3  22 1586.13 40.5579  11
  -3   1 -22 1624.20 40.9016   3
  -3   1 -22 1597.49 43.2342  11
  -3   1 -22 1628.81 40.5003  12
  -2   3 -22 1597.60 43.3085   3
   3  -1 -22 1621.92 37.5961   9
  -1  -2 -22 1590.50 38.6187   7
   2  -3 -22 1566.56 41.6364  11
   3  -1 -22 1633.39 41.5223  11
   3  -2  22 1528.52 41.1959  11
  -1  -2 -22 1623.84 45.6786   6
   3  -2  22 1623.16 43.4851   8
  -1   3  22 1572.40 42.3970   3
  -2   3 -22 1573.71 40.9716  11
   3  -2  22 1600.34 41.4407   2
   2  -3 -22 1643.62 40.0249   9
   1   2 -22 1607.60 37.9159  11
  -3   0 -22 57.3862 9.63688   6
   3   0  22 70.7899 8.06105   2
  -3   0  22 65.7146 6.13700  10
   3  -3  22 76.0484 8.39960   2
   0  -3 -22 63.8026 7.46313   9
   3  -3  22 58.1820 6.77080  11
  -3   0  22 75.4650 6.36538   5
  -3   3  22 66.4176 8.56269  10
  -3   3  22 65.5380 7.66894  11
   0  -3 -22 73.7180 7.89388  11
  -3   3 -22 65.9203 9.36871   6
   3   0  22 71.9036 6.85973  11
   3  -3  22 69.3331 8.58941   8
  -3   0 -22 70.6717 6.70457   4
   0   3  22 82.3442 9.05870  10
   3   0  22 78.7538 6.84586  10
  -3   0 -22 70.5047 9.18057  11
   3  -3 -22 60.6167 7.84164  11
   3   0 -22 79.6072 6.72118  11
   0  -3  22 68.8400 7.22925   5
   0  -3 -22 61.5551 7.38024  12
   0  -3  22 58.1096 5.77975   9
   0  -3 -22 62.7830 4.87265   7
   0   3  22 77.7565 5.99889  11
   3  -3 -22 68.4913 8.39691   6
   0  -3 -22 43.9261 10.7538   6
  -3   3  22 67.9424 9.48139   3
  -3   0  22 65.2619 8.38430   3
   3  -3 -22 85.3249 9.40280   2
   0  -3  22 62.4379 6.91015   7
   0   3 -22 79.0726 8.97153   6
  -3   3 -22 61.3236 4.85965  12
  -3   3 -22 72.0947 9.32836   3
   3  -3 -22 56.8189 6.07211   9
   0   3  22 67.6900 8.02716   8
   0   3  22 59.4634 6.78227   3
   0  -3 -22 81.2074 7.39344   4
   3  -3  22 65.1244 6.28384   5
  -3   3 -22 73.1874 8.03507  11
   3   0  22 56.2622 7.30694   8
  -3   0  22 62.7176 6.38916   7
  -3   0  22 64.1139 7.11877  11
   3   0 -22 70.4391 8.47455   2
  -3   0 -22 64.2082 7.28639  12
   3   0 -22 68.9634 8.89541   6
  -2   4 -22 194.485 9.99530  11
   2  -4  22 195.288 10.5070   9
  -2   4 -22 193.969 13.9826   6
   2   2 -22 196.966 7.72607  11
   2  -4 -22 183.486 11.2038   4
  -2   4  22 193.431 15.1764   3
   2   2  22 178.035 11.3470  10
   2   2  22 189.253 9.69507  11
  -2   4  22 180.276 12.4796   8
   4  -2  22 183.880 11.7532  11
  -2  -2 -22 187.159 12.0636  12
  -2   4  22 193.260 14.2334  10
   2  -4 -22 185.477 14.5895  11
  -2  -2 -22 187.050 10.9413   4
  -2   4 -22 178.441 13.5999   3
  -4   2 -22 187.486 13.7256   3
  -4   2  22 193.094 9.31133   7
   4  -2 -22 219.915 13.1865   6
  -2   4  22 207.310 10.6219  11
   2  -4  22 183.795 11.3065   5
   2   2 -22 169.944 12.4166   6
   2  -4 -22 191.182 10.6111   9
  -4   2  22 184.989 14.8410   3
   4  -2 -22 186.443 13.1615   2
  -4   2 -22 194.125 13.4974  11
   4  -2 -22 192.598 11.6853  11
   4  -2 -22 186.113 8.91565   9
  -2  -2 -22 198.926 10.2787   7
   2   2  22 181.450 12.0416   2
  -2  -2  22 195.859 10.9716   5
  -4   2  22 186.758 12.0934  10
   2  -4 -22 181.404 10.1714  12
   4  -2  22 183.932 13.3635   2
   4  -2  22 184.426 12.8676   8
   2   2  22 182.638 12.5170   8
  -4   2 -22 198.203 9.85752  12
  -4   2 -22 185.382 15.5335   6
  -4   2  22 188.615 12.4781  11
  -2  -2  22 194.299 10.9268   7
   1   3  22 416.292 18.6643   8
  -3  -1 -22 409.347 16.5085   4
   1  -4 -22 424.132 17.1013   9
   3   1 -22 428.354 19.0006   6
   3  -4  22 401.771 15.8694   9
  -3   4  22 413.817 20.0575  10
   1  -4 -22 414.811 17.5757   4
  -1   4 -22 386.712 18.5652   3
  -3   4  22 411.485 21.6921   3
   1   3  22 423.448 18.1997  10
   1  -4 -22 418.824 16.7169  12
   3   1 -22 435.900 17.3957   2
   4  -1  22 434.465 19.0545   8
  -1  -3  22 413.493 16.6150   7
  -3  -1 -22 415.853 16.5161   7
  -4   1  22 434.248 15.6979   7
   4  -3 -22 422.227 14.9863   9
  -4   1  22 426.551 20.6269   3
   4  -1  22 426.447 17.4558  11
  -4   1  22 424.317 17.7127  11
  -1  -3  22 402.176 15.8417   9
  -4   1  22 410.146 15.1348   5
  -4   3 -22 417.332 21.0229   3
   3   1 -22 414.257 14.5077  11
   1   3  22 426.230 17.9175   2
  -3  -1 -22 425.202 19.0538  11
  -1   4 -22 436.811 18.9417   6
   4  -3 -22 421.257 18.1124  11
   4  -3 -22 416.678 18.7063   6
   3  -4  22 430.211 16.8645   5
  -4   3 -22 463.584 21.8918   6
  -4   3 -22 423.397 19.0335  11
  -1  -3  22 427.839 16.7694   5
  -3   4  22 416.075 16.8382  11
  -3   4  22 435.675 18.4331   8
   1   3  22 392.878 14.2539  11
   4  -1  22 413.626 18.8768   2
   4  -3 -22 419.284 19.7898   2
  -3  -1 -22 423.008 17.7048  12
  -3  -1  22 386.722 15.8217   7
   3  -4 -22 404.945 15.6066   9
  -1  -3 -22 403.877 13.9731   7
  -4   1 -22 424.605 16.1742  12
   4  -3  22 378.447 18.4971   8
   4  -3  22 413.286 14.2729   5
  -4   1 -22 369.909 18.8404  11
   1  -4  22 404.277 16.7662   5
  -3  -1  22 411.863 15.2185   5
  -4   1 -22 419.781 22.7387   6
  -1   4  22 410.627 19.2625  10
  -3   4 -22 399.206 19.2043   6
  -1  -3 -22 399.312 17.7750   9
  -4   3  22 407.569 21.2264   3
   3  -4 -22 401.336 17.3529  11
  -3   4 -22 412.166 20.1795   3
   3   1  22 402.796 14.9674  10
   4  -3  22 391.685 18.4138   2
  -1   4  22 402.242 14.7000  11
  -1   4  22 382.233 17.3927   3
  -4   3  22 382.311 17.6533  11
  -1   4  22 386.448 17.5217   8
   4  -3  22 405.511 17.5845  11
   3  -4 -22 390.406 16.5618   4
   4  -1 -22 381.666 18.1128   6
   3  -4 -22 394.697 14.4269  12
   3   1  22 413.322 15.8362  11
  -1  -3 -22 383.320 17.3611  12
   1   3 -22 398.220 17.9939   6
   3   1  22 393.121 18.2241   2
  -3   4 -22 390.800 16.5596  11
   3   1  22 418.122 18.2037   8
   4  -1 -22 393.066 18.3003   2
  -4   3  22 421.029 19.1279  10
   4  -1 -22 402.528 16.4799  11
  -1  -3 -22 386.770 16.2958   4
   1  -4  22 411.247 15.1018   9
   0   4 -22 27.9795 7.61208   3
  -4   0  22 20.3714 8.76815   3
   4   0 -22 24.8189 7.58126   6
   4  -4  22 28.3159 7.88787  11
   0  -4 -22 26.8443 6.81408   4
   4  -4 -22 35.1234 6.45279   9
   0  -4 -22 41.2199 7.90659  12
   0   4  22 34.7130 7.90405   8
   0  -4  22 29.2183 6.86912   5
   0   4 -22 17.0534 8.16930   6
  -4   0 -22 35.2215 7.60536  12
   4  -4  22 30.2738 7.66358   8
   4   0  22 29.8054 5.93246  11
   0  -4 -22 25.1685 7.31672   9
   4   0 -22 28.1481 5.65396  11
   4   0  22 30.3870 7.48627   8
   0  -4  22 38.0584 7.45187   9
   4  -4 -22 26.3936 6.93357  11
   4  -4 -22 33.4160 8.98097   2
  -4   4  22 21.2837 9.48642  10
   4  -4  22 37.7631 8.83453   2
  -4   4  22 34.1013 9.99194   3
   4   0 -22 34.2318 8.76888   2
  -4   0 -22 27.8749 6.90534   7
  -4   4 -22 34.2666 10.4250   3
   0   4  22 33.4214 5.21399  11
   4   0  22 26.7509 8.24948   2
  -4   4 -22 31.4965 7.22696  11
  -4   0  22 29.1600 6.15789   7
  -4   0  22 35.4010 6.43565   5
   0   4  22 29.9183 8.76517  10
   4  -4  22 25.2850 5.92481   9
   4  -4  22 25.7690 6.31784   5
  -4   4  22 32.9707 6.80061  11
  -4   0 -22 24.4234 8.49415  11
  -4   4 -22 35.1871 9.25540   6
   3  -5  22 349.360 18.1425   5
   2   3  22 368.380 14.5950  11
   3  -5  22 368.447 17.4524   9
  -3   5  22 361.445 23.6409   3
  -2  -3  22 359.383 16.7104   7
  -3  -2 -22 344.310 17.6486   4
  -5   2  22 397.438 22.3843   3
   3   2 -22 362.946 19.7411   6
   5  -3 -22 385.191 15.6226   9
  -5   3 -22 349.157 20.7930  11
  -3   5  22 380.610 21.6648  10
   5  -2  22 335.172 23.0001   2
   5  -2  22 390.379 20.1081   8
   5  -2  22 379.127 18.7788  11
  -5   2  22 369.172 15.5940   7
  -2   5 -22 377.401 21.5918   3
  -2  -3  22 370.171 17.7141   5
  -3  -2 -22 374.645 16.7807   7
   2   3  22 378.589 19.6797   2
   2   3  22 368.382 19.4681   8
  -3  -2 -22 351.384 19.2851  12
  -3   5  22 362.505 16.4105  11
   5  -3 -22 370.513 19.6907   6
   5  -3 -22 398.724 22.5937   2
   2  -5 -22 371.247 18.3922   9
   5  -3 -22 389.296 19.2987  11
  -5   3 -22 391.585 23.6127   3
  -5   2  22 385.050 20.4139  11
  -3   5  22 362.897 19.2739   8
   2  -5 -22 379.844 18.4202   4
  -2  -3 -22 386.660 20.1818  12
   2  -5  22 403.265 18.7527   5
  -2  -3 -22 409.459 16.6594   7
  -2  -3 -22 409.071 19.0161   4
  -2   5  22 403.824 20.1178   8
  -3   5 -22 401.476 16.3963  11
  -3   5 -22 427.084 23.2553   3
  -2   5  22 421.677 23.5610   3
   3   2  22 386.600 20.4261   2
   5  -3  22 441.191 22.9135   2
   5  -2 -22 384.867 18.6076  11
  -3  -2  22 402.755 17.9864   7
   5  -2 -22 451.921 21.3478   6
  -5   3  22 423.211 25.2799   3
   3  -5 -22 413.829 20.9096   9
   3   2  22 405.582 19.9898   8
   5  -2 -22 463.985 20.4711   9
   5  -3  22 352.980 20.4401   8
   3  -5 -22 400.059 19.1166   4
  -5   2 -22 441.880 31.6379  11
  -3  -2  22 407.185 17.5768   5
   2  -5  22 424.849 18.5096   9
  -2   5  22 394.733 22.5978  10
   1   4  22 32.2906 9.23783   8
   5  -4 -22 38.5930 10.4151   2
  -4   5  22 33.9373 7.49334  11
   5  -4 -22 43.5379 7.74474   9
   1  -5 -22 37.8660 8.93629  12
   4  -5  22 30.6668 8.88167   5
  -4  -1 -22 46.8992 9.48035  12
   5  -1  22 30.5501 7.50267  11
  -4  -1 -22 38.6738 8.31480   7
   4   1 -22 26.5586 9.06580   6
  -1   5 -22 44.3695 10.5487   3
  -5   4 -22 48.1754 9.22116  11
  -5   1  22 46.2901 7.87793   7
  -1  -4  22 51.3836 8.76971   7
  -4   5  22 53.1391 14.0514   3
  -4   5  22 43.9286 9.56364   8
  -4   5  22 41.7160 11.5138  10
  -4  -1 -22 34.6768 9.40703   4
   1   4  22 41.2159 5.58574  11
   1   4  22 41.7313 10.4920  10
   4  -5  22 31.5811 7.69634   9
   1  -5 -22 38.6085 9.14530   4
   1   4  22 45.3411 9.29693   2
  -5   4 -22 49.8002 13.5240   3
   5  -4 -22 33.4629 8.55809  11
   1  -5 -22 40.5134 8.83936   9
  -1  -4  22 48.9999 9.49635   5
   5  -1  22 56.2301 11.3060   2
   4   1 -22 34.1936 9.77517  11
   5  -1  22 36.9151 9.75798   8
  -5   1  22 34.5028 12.4185   3
  -1   5  22 37.3229 10.7260  10
  -4   5 -22 50.6673 12.8918   3
  -1  -4 -22 58.4389 10.5295   9
   5  -4  22 64.5424 10.8284   8
   4   1  22 46.1468 10.1532   8
   5  -1 -22 53.4770 8.65075  11
   1   4 -22 48.6903 10.1414   3
  -1  -4 -22 50.1941 9.56906  12
   4  -5 -22 46.2816 8.65803   4
  -5   4  22 50.2102 11.9481   3
  -4   5 -22 49.8087 8.40463  11
  -5   1 -22 62.1607 9.11741  12
  -4  -1  22 46.3669 8.09488   7
   5  -4  22 39.6912 9.53016  11
  -5   1 -22 62.1147 12.1964  11
   1  -5  22 54.7352 9.66651   9
  -5   1 -22 47.9556 8.52972   7
   1   4 -22 50.2908 10.3605   6
   5  -1 -22 42.7160 10.0918   6
   4   1  22 40.9465 10.0678   2
  -5   4  22 47.6014 9.26819  11
   5  -4  22 73.9275 9.04613   9
   4   1  22 46.5274 7.54728  11
   5  -1 -22 44.9831 11.7452   2
   5  -4  22 45.3523 12.0865   2
  -1  -4 -22 55.7343 9.67232   4
  -1   5  22 55.9795 9.72573   8
   4  -5 -22 55.6886 8.74222   9
  -1   5  22 50.7588 7.08654  11
  -5   4  22 65.7429 20.4578  10
   1  -5  22 53.8699 9.68244   5
   5  -5  22 27.7772 7.85607   9
   0  -5 -22 28.2608 9.76933  12
  -5   0  22 27.9103 8.38669   7
   0   5  22 22.2400 10.7747   8
   5   0 -22 19.9829 7.07899  11
   5  -5 -22 17.6703 8.13149   4
   5  -5 -22 24.9174 8.64711   9
  -5   5 -22 8.90536 8.39412  11
   5   0  22 46.5899 11.2783   2
   0  -5 -22 47.3698 10.0885   4
   5   0 -22 24.9251 11.7661   2
  -5   5  22 33.2686 13.6239   3
   5   0 -22 31.2850 10.7970   6
  -5   5  22 11.9117 13.4759  10
   5  -5 -22 22.5058 10.6332  11
  -5   0 -22 8.73547 9.22584  12
  -5   0 -22 23.4222 9.46862   7
   0   5 -22 35.2678 12.1675   3
   5   0  22 16.6768 7.20242  11
  -5   5 -22 27.0903 15.0333   3
  -5   5  22 8.89164 7.77906  11
   0  -5  22 43.8937 10.2928   5
   0   5  22 21.1279 12.3773  10
   5   0  22 32.6588 10.8273   8
   0  -5 -22 -2.3698 9.04790   9
   5  -5 -22 40.8087 13.3107   2
   0   5  22 21.5634 9.28030   2
   6  -3  22 24.8500 12.0755   8
  -6   3  22 17.5722 14.6359   3
  -3  -3 -22 34.4019 9.03325   7
   6  -3  22 24.9893 9.69592  11
  -3   6 -22 37.5877 14.3113   3
  -3   6  22 29.6982 15.8941   3
   3   3 -22 23.1280 12.0486   6
  -6   3 -22 26.2558 9.51612   7
  -3  -3 -22 33.2464 10.8859   4
   3  -6 -22 42.9503 10.4402   9
  -6   3 -22 14.8099 11.5428  11
  -3   6  22 35.0537 7.91781  11
   6  -3 -22 51.4756 13.3141   2
  -3   6  22 27.6305 11.2382   8
  -6   3  22 15.5376 11.8600  11
  -3   6 -22 21.9515 12.6581  10
   3  -6  22 41.5329 11.7002   9
   6  -3  22 41.4022 14.6046   2
  -3  -3  22 36.3409 8.81672   7
   3   3  22 27.5445 11.4345   8
   3  -6  22 37.2901 10.9312   5
   6  -3 -22 32.0519 9.11720  11
   3  -6 -22 41.8929 10.4942   4
  -3  -3 -22 68.4651 13.5557  12
   3   3  22 34.6246 11.8439   2
  -3   6  22 28.7831 13.9065  10
   6  -2  22 60.6596 14.5288   2
  -2   6 -22 33.4836 13.3973  10
   2   4  22 57.6593 13.2665   8
  -2  -4  22 83.0977 10.5466   7
  -4  -2 -22 54.2406 12.1428  12
   2   4  22 37.1101 11.8024   2
   6  -2  22 55.7518 12.8799   8
   4   2 -22 53.7165 12.2374   6
   4  -6  22 59.1640 11.7114   9
   4  -6  22 28.4476 11.0377   5
  -4  -2 -22 66.3579 12.9375   4
  -6   4 -22 52.3379 18.6298   3
  -4  -2 -22 65.8332 10.4129   7
   2  -6 -22 48.6678 10.9178   9
   2  -6 -22 59.4430 11.7073   4
  -4   6  22 51.0642 9.50774  11
  -2   6 -22 62.0615 14.8429   3
  -6   4 -22 75.2891 12.7951  11
  -6   2  22 51.3453 17.0595   3
  -4   6  22 51.2989 14.4214  10
   6  -2  22 59.6299 10.5835  11
   6  -4 -22 75.0477 12.7153  11
  -4   6  22 33.3561 17.1514   3
   6  -4 -22 55.5419 14.1979   2
  -4   6  22 54.8557 12.5761   8
  -6   4  22 20.3019 15.4198   3
  -2  -4 -22 31.2315 11.2008  12
   4   2  22 31.4947 7.97148  11
   6  -4  22 34.7508 12.2830   8
   6  -4  22 33.0590 11.0537  11
   4   2  22 7.92283 11.5246   2
  -4   6 -22 36.8972 12.6038  10
  -2   6  22 25.5439 13.2064  10
  -2   6  22 33.3442 11.7204   8
  -6   2 -22 27.0785 12.9866  11
   6  -4  22 36.4217 15.3403   2
   4   2  22 35.8034 12.7942   8
  -4   6 -22 28.5369 15.0442   3
   6  -2 -22 25.8086 12.2722   6
   2   4 -22 38.1885 13.2070   6
  -6   4  22 33.7956 10.2311  11
   6  -2 -22 47.2493 14.2616   2
  -2  -4 -22 26.8949 10.4782   4
  -4   6 -22 27.1906 8.34116  11
   2  -6  22 18.8392 10.8260   5
  -4  -2  22 16.7014 8.28742   7
   4  -6 -22 28.9251 9.67121   9
   4  -6 -22 25.1359 10.3030   4
   6  -2 -22 26.7071 9.61857  11
  -6   2 -22 24.7719 9.65627   7
   0  -1 -23 227.260 8.10191   4
  -1   1  23 201.347 8.67298  11
  -1   1  23 215.612 9.89593  10
   0  -1 -23 216.618 9.19989  11
  -1   1 -23 211.581 5.83646   4
   0  -1  23 214.338 9.22953  10
   1  -1  23 214.957 8.00948   5
  -1   0  23 207.600 7.96638   7
   0   1  23 205.106 10.9137  10
  -1   0 -23 230.864 9.09514   4
   1   0  23 221.131 9.31993   8
   0   1  23 226.768 9.24851   8
   0  -1 -23 218.983 8.03690   9
   0   1  23 207.314 8.70849   3
   1  -1  23 227.471 7.07998   2
   1  -1 -23 215.250 10.7491   6
   0   1 -23 204.635 10.6401   6
   1   0  23 223.771 7.67868   5
   1   0  23 235.054 9.88730  10
   1  -1 -23 226.455 6.77072   9
  -1   0  23 222.327 7.02914   8
  -1   0 -23 187.472 13.5426   6
   0   1  23 215.883 8.82321  11
   0  -1 -23 224.081 11.8412   6
   1  -1  23 215.898 8.48907  11
   0  -1  23 223.759 8.14341  11
   0   1 -23 223.180 8.81795  11
  -1   0  23 210.406 8.44369  11
  -1   1  23 208.344 10.2043   3
  -1   1 -23 204.839 11.9025   6
  -1   0 -23 218.052 9.40001  11
   0  -1  23 214.695 7.80944   8
   1   0  23 224.296 8.11327   2
   1   0 -23 214.287 10.6732   6
  -1   1  23 217.079 8.22636   8
  -1   0  23 225.466 9.25679  10
   1  -1  23 213.590 9.19410   8
   1  -1 -23 218.666 9.28063  11
   1  -2 -23 1159.01 31.4980  11
   1   1  23 1202.80 31.0896   2
   1  -2  23 1227.25 28.4427   9
  -2   1  23 1221.30 28.6591   8
   1   1  23 1197.37 31.9605  10
   1  -2  23 1210.62 30.6056   5
  -1   2  23 1197.35 31.0977  11
   2  -1  23 1185.49 30.3461   2
   2  -1  23 1208.87 29.0272   5
  -2   1 -23 1184.33 32.4971  11
   1  -2  23 1188.02 29.8034  11
  -2   1 -23 1280.42 27.4632   4
  -2   1  23 1161.48 33.4094   3
  -1  -1  23 1207.21 30.6604  10
  -1  -1  23 1163.32 30.3811   7
  -1   2  23 1144.71 32.6982  10
   2  -1  23 1219.51 32.5171   8
   1   1 -23 1244.21 27.2838   2
   2  -1 -23 1184.36 32.6641   6
  -1   2  23 1188.01 32.4216   3
  -1   2  23 1217.76 31.4050   8
   2  -1 -23 1196.58 31.1865   2
   2  -1 -23 1206.64 31.4766  11
  -2   1  23 1182.64 31.5160  10
  -1  -1 -23 1166.27 36.1972   6
  -1  -1 -23 1209.33 31.8305  11
  -2   1 -23 1170.01 30.7409   3
   1   1 -23 1205.21 33.1649   6
   2  -1 -23 1243.31 27.4459   9
   1  -2 -23 1167.74 33.5154   6
   1  -2 -23 1220.59 30.8797   4
   1  -2  23 1203.00 31.2574   8
  -1  -1 -23 1187.61 31.8556  12
  -2   1  23 1181.58 31.1948  11
  -1   2 -23 1128.44 33.6563   6
  -2   1  23 1236.83 29.0654   7
   2  -1  23 1127.50 30.9979  11
  -1  -1  23 1198.92 30.4485   5
  -1  -1 -23 1201.83 29.9212   4
  -1  -1  23 1208.06 29.6942  11
  -1   2 -23 1180.80 30.7171  11
   1   1  23 1209.79 30.8545  11
   1   1  23 1213.22 32.3049   8
  -1  -1  23 1220.99 26.9296   2
  -2   1 -23 1168.14 35.8952   6
   2  -1  23 1185.68 31.3461  10
   1   1 -23 1184.76 30.0842  11
   1  -2 -23 1205.07 29.6836   9
   2  -2 -23 419.314 15.8937   6
  -2   2 -23 425.734 15.4873   3
   2  -2  23 422.140 15.5046   8
  -2   2  23 421.325 17.1304   3
   2  -2  23 415.317 13.1061   2
  -2   0  23 429.113 13.6683   5
  -2   0  23 438.005 13.6901   7
   2  -2 -23 412.154 14.9484  11
   0   2 -23 436.353 16.2615   6
   2   0  23 407.417 14.4352  10
  -2   0 -23 422.743 14.5867  12
   0   2 -23 437.342 13.3005  11
  -2   2  23 447.216 16.2820  10
   2   0 -23 420.587 13.7559   2
   0  -2 -23 436.418 11.6243   7
  -2   2  23 439.472 14.8818  11
  -2   0  23 441.665 14.0998  11
  -2   0 -23 396.539 15.7269  11
   2   0  23 430.810 14.7727   2
  -2   0  23 441.670 16.6225   3
   2  -2  23 435.280 13.7295   5
   0  -2 -23 420.940 15.1033  12
   2  -2  23 407.147 13.9155  11
   0  -2 -23 419.584 18.1051   6
  -2   2 -23 414.001 15.1575  11
   0  -2 -23 409.355 13.8363   4
   0  -2 -23 403.829 14.5206  11
   2   0  23 395.400 15.1273   8
   0  -2  23 447.104 12.7462  11
   0  -2  23 448.750 11.5128   9
  -2   0 -23 442.490 12.9126   3
   2   0 -23 410.287 13.9887  11
   0  -2  23 417.589 14.1761   5
   0  -2 -23 413.554 14.5294   9
   0   2 -23 433.395 12.8738  11
  -2   2  23 422.033 13.8290   8
   2   0  23 404.263 14.3205  11
   0   2  23 431.792 15.7994  10
  -2   0  23 424.089 13.7676  10
  -2   0 -23 424.879 12.8147   4
  -2   0 -23 456.472 19.4267   6
   2  -2 -23 419.435 12.4041   9
  -2   2 -23 415.439 17.9979   6
   2   0  23 430.081 11.8531   5
   2  -2 -23 423.671 15.7346   2
   0   2  23 420.251 18.2809   3
   0   2  23 437.176 15.2550   8
   2   0 -23 438.964 15.9562   6
   0   2  23 404.664 13.9076  11
  -1  -2  23 206.407 9.92188   7
  -2   3  23 194.656 10.5395   8
   3  -1  23 196.874 7.06125   5
   3  -2 -23 201.977 10.5819  11
  -3   1  23 195.261 10.7771  11
   3  -1  23 205.853 10.2259  11
  -3   2 -23 202.962 14.2467   6
   3  -2 -23 196.749 11.6954   2
   1   2  23 206.480 9.29654  11
  -3   1  23 206.125 7.04399   8
   1  -3 -23 198.346 11.9092   6
   3  -2 -23 204.990 11.6785   6
   2   1 -23 198.642 11.6586   6
   2  -3  23 195.272 11.2468   8
   2  -3  23 214.748 9.57585  11
   2   1 -23 215.606 9.02229  11
  -2  -1 -23 201.425 9.57162   7
  -2  -1 -23 194.180 11.0571  11
  -2  -1 -23 198.236 9.37589   4
  -2  -1 -23 191.295 14.9969   6
  -3   2 -23 209.036 11.8001  11
  -1  -2  23 199.594 9.72429   5
   1  -3 -23 208.740 10.2807   4
  -3   1  23 215.860 12.9144   3
  -2   3  23 211.144 12.4865  10
   1  -3 -23 203.025 9.79281   9
   3  -1  23 204.977 11.5319   8
  -3   2 -23 206.777 8.61824  12
  -2   3  23 192.647 12.4236   3
  -2  -1 -23 209.343 11.1123  12
   3  -2 -23 209.598 8.03981   9
  -1   3 -23 216.499 13.9263   6
   1   2  23 198.751 10.6492   2
   1   2  23 212.647 11.4551   8
   2  -3  23 210.080 8.07642   2
  -3   2 -23 213.593 11.8963   3
   1  -3 -23 196.880 10.1371  12
   3  -1  23 209.438 11.1800   2
   1  -3 -23 209.438 10.4404  11
  -2   3  23 201.430 10.1262  11
  -1   3 -23 218.027 9.09838  11
   2   1 -23 203.105 9.22098   2
  -3   1  23 214.280 9.14210   7
   2  -3  23 204.282 9.72188   5
  -3   1  23 178.394 10.0434  10
   1   2  23 188.581 10.5637  10
   2  -3  23 200.991 9.25310   9
   1   2 -23 193.011 7.58884  11
   3  -1 -23 173.856 9.73111  11
   2  -3 -23 187.465 9.09308   9
  -2  -1  23 189.465 8.74086  11
  -1  -2 -23 196.019 10.2704  11
   3  -1 -23 179.906 6.94492   9
  -3   1 -23 197.338 9.73673  12
  -1   3  23 174.186 11.4175  10
  -2   3 -23 176.275 12.3375   6
   3  -1 -23 185.753 10.9806   6
  -2  -1  23 192.922 9.21201   5
   1  -3  23 185.568 9.78081   5
  -3   2  23 194.495 11.4145  10
  -1   3  23 187.479 9.28143  11
  -1  -2 -23 176.704 8.21205   7
  -1   3  23 189.771 10.5875   8
   2  -3 -23 191.898 11.6824   6
   1   2 -23 186.432 11.2620   6
  -2   3 -23 172.839 9.57743  11
  -3   2  23 191.516 10.6270  11
   3  -2  23 197.428 10.7158   2
   3  -2  23 186.761 11.2851   8
   3  -2  23 196.037 10.4683  11
   2   1  23 205.278 10.1351  10
  -3   2  23 184.010 13.0934   3
  -3   2  23 183.553 8.52602   8
  -3   1 -23 206.501 14.6715   6
   3  -1 -23 172.188 10.3892   2
  -1  -2 -23 200.412 9.86881   4
  -2   3 -23 188.160 11.2593   3
   3  -2  23 170.082 7.80706   5
  -1  -2 -23 182.426 10.7940  12
   2   1  23 178.849 9.17420  11
  -3   1 -23 171.375 9.99222   3
  -3   1 -23 193.310 11.6038  11
  -3   2  23 193.518 7.46079   7
   1  -3  23 189.125 7.95189   9
   2   1  23 194.148 10.1996   2
   2  -3 -23 186.377 10.3699  11
  -1  -2 -23 199.926 14.3539   6
  -1   3  23 192.161 11.3628   3
   2  -3 -23 213.517 10.7931   4
  -2  -1  23 204.208 9.67798   7
   2   1  23 197.597 11.1609   8
  -3   3  23 487.643 21.0466   3
   0  -3  23 464.095 16.8217   5
  -3   0  23 476.466 16.4520  11
   3   0  23 440.619 18.0287   8
   3  -3 -23 453.183 17.4083   6
   0   3  23 447.506 17.9942   8
  -3   0  23 485.557 16.0596   7
   3   0 -23 483.948 17.7725   2
   0  -3 -23 458.467 16.6957  11
  -3   0  23 455.710 14.5785  10
   0  -3 -23 439.534 17.4334  12
   3   0  23 459.163 18.0153   2
  -3   3 -23 491.079 13.7783  12
   0   3  23 458.454 15.5103  11
  -3   0 -23 481.028 22.5548   6
  -3   0 -23 460.159 18.7565  11
   3  -3  23 449.696 15.4434   5
   3  -3  23 445.226 18.6370   8
  -3   0  23 464.295 19.1193   3
   0  -3  23 464.660 14.3499   9
  -3   0  23 457.081 15.3996   5
  -3   3 -23 463.783 18.2162  11
  -3   3 -23 452.393 19.2365   3
  -3   3 -23 444.010 20.6091   6
   0  -3 -23 449.416 17.2865   9
  -3   3  23 491.645 16.9408   8
   0  -3 -23 499.135 13.9513   7
  -3   3  23 492.889 19.6758  10
   0  -3 -23 456.219 19.3317   6
   3  -3 -23 469.085 15.2260   9
   3  -3 -23 466.210 17.9477  11
  -3   0 -23 470.682 17.1545  12
   3   0  23 473.438 15.7656  10
   0   3 -23 491.045 19.3020   6
   0   3 -23 458.249 13.1567  11
   3  -3 -23 446.291 19.1209   2
   3  -3  23 478.813 16.6452   2
   0   3  23 458.232 18.6855  10
   0  -3 -23 482.201 16.9760   4
  -3   0 -23 454.779 15.6132   4
   3  -3  23 485.722 17.1598  11
   3   0 -23 453.494 18.5288   6
   0   3  23 469.813 15.2956   3
   3   0  23 439.368 16.4106  11
  -3   3  23 458.096 17.4239  11
   3   0 -23 454.913 16.1002  11
   4  -2  23 24.5569 6.78464   2
   2  -4 -23 29.2369 5.41431  12
   2   2  23 7.19236 5.42234  10
   2  -4 -23 26.7834 5.19631   4
  -2   4 -23 23.4256 8.13991   6
  -2   4  23 20.3006 7.96227  10
  -4   2  23 18.4485 8.00693   3
   2   2  23 23.6529 4.77814  11
  -2  -2  23 30.0132 5.29803   7
   4  -2 -23 26.2708 5.97212  11
   2  -4 -23 31.1412 6.95868  11
   4  -2 -23 27.5207 4.40672   9
   2   2 -23 20.5577 6.47453   6
   2  -4  23 29.1075 5.47914   9
  -4   2 -23 34.5350 7.22658  11
  -2  -2 -23 34.0638 9.11037   6
  -4   2 -23 28.3456 7.94322   3
  -2  -2 -23 26.4518 5.20484   7
   4  -2 -23 19.2234 6.57797   6
  -2  -2  23 17.4198 5.26394   5
   2  -4 -23 26.7123 5.38033   9
  -4   2 -23 19.9365 8.69713   6
  -2   4  23 22.7463 4.68519  11
   4  -2 -23 20.9351 9.34408   2
  -2   4 -23 20.9568 7.04681   3
  -2  -2 -23 19.4713 5.58565   4
   4  -2  23 29.6570 5.86625  11
  -4   2  23 24.2526 4.47814   7
  -4   2  23 29.6953 6.54716  11
  -2   4  23 33.7308 8.00574   3
   2   2  23 20.8505 5.87975   2
  -2   4 -23 29.6526 5.10355  11
   4  -2  23 21.7802 6.21455   8
   2  -4  23 24.2869 6.01084   5
   2   2  23 24.7561 6.38799   8
  -4   2  23 21.9049 6.97114  10
  -2   4  23 31.4543 6.67822   8
  -4   2 -23 24.9871 4.79524  12
  -2  -2 -23 21.4102 5.73170  12
   2   2 -23 25.4253 3.69833  11
   4  -1  23 55.7644 8.47188   8
  -4   1  23 74.0287 8.74586  11
  -3   4  23 65.0247 8.32452  11
  -3  -1 -23 75.6450 9.41750  11
  -4   1  23 64.7139 7.03215   5
   4  -3 -23 62.7641 7.94864  11
   3   1 -23 69.9012 9.49630   6
   4  -3 -23 68.7964 7.21214   9
  -3   4  23 79.3585 11.7327   3
   4  -3 -23 67.0975 9.14551   6
   1  -4 -23 81.0750 8.99707   9
  -1  -3  23 77.6589 8.04822   7
   1   3  23 53.1897 7.54449   2
   1  -4 -23 67.3921 8.24761   4
  -3  -1 -23 68.8524 9.03530  12
  -1  -3  23 81.3281 9.09437   5
   4  -3 -23 63.3103 9.76143   2
   3   1 -23 99.3391 10.4811   2
   4  -1  23 54.5668 9.06856   2
  -4   3 -23 66.0254 9.14668  11
   3  -4  23 74.3175 8.43642   9
  -1   4 -23 66.7558 5.08817  11
  -4   1  23 68.9675 7.20178   7
  -3   4  23 76.7808 10.7009  10
   1   3  23 68.4842 8.78559  10
  -4   1  23 75.6101 9.92663   3
   3   1 -23 57.5942 6.47449  11
  -3  -1 -23 63.1092 7.79709   4
   4  -1  23 62.0236 7.52764  11
   1   3  23 75.5969 6.68415  11
  -3  -1 -23 72.8142 12.4450   6
  -1   4 -23 79.1556 10.2223   6
  -4   3 -23 60.2460 10.6267   3
  -1   4 -23 61.4899 9.07392   3
   1  -4 -23 63.7371 7.67903  12
  -4   3 -23 48.7328 10.4541   6
   3  -4  23 66.2490 7.42997   5
   1   3  23 76.2627 9.42595   8
  -3  -1 -23 64.6669 7.57124   7
  -3   4  23 68.3414 8.62191   8
  -1   4  23 97.8058 7.52772  11
  -1  -3 -23 80.4354 9.64966  12
   3  -4 -23 87.1860 8.43585   9
  -3   4 -23 75.2356 8.86447  11
   4  -3  23 64.6161 9.35019   8
  -3  -1  23 93.0420 8.92649   5
  -3   4 -23 97.8377 12.3790   3
   1  -4  23 86.0050 9.05434   5
  -1   4  23 84.8917 10.9746   3
   3  -4 -23 83.1165 9.40507   4
   3   1  23 72.1284 7.81915  11
  -1   4  23 78.6448 9.49307   8
   3   1  23 55.8199 8.66647   2
  -1  -3 -23 75.2293 7.80301   7
   3  -4 -23 95.7518 8.59611  12
   3   1  23 85.1062 10.4982   8
   4  -1 -23 78.5267 9.59860   6
  -3  -1  23 78.8645 8.33110   7
   4  -3  23 83.8070 7.29213   5
  -1   4  23 104.026 12.4251  10
  -1  -3 -23 89.3829 9.05847   4
  -4   3  23 78.0895 10.5745   3
   4  -3  23 83.8114 10.1715  11
   4  -3  23 87.3993 10.0826   2
   1  -4  23 98.6610 8.73943   9
  -4   1 -23 74.0926 8.65025  12
   3  -4 -23 76.2294 9.96154  11
   4  -1 -23 81.2787 8.71647  11
  -4   3  23 74.8839 9.76351  11
   4  -1 -23 76.5335 9.80034   2
  -4   1 -23 90.9428 11.0732  11
  -3   4 -23 72.4821 10.2779   6
  -4   3  23 80.2885 10.5068  10
  -4   1 -23 88.0964 12.8427   6
   3   1  23 94.3777 8.38402  10
   1   3 -23 88.4615 11.0491   6
  -4   0 -23 1.58589 6.52686   7
   0  -4 -23 3.73285 5.93660  12
  -4   0 -23 -4.0006 7.73594  11
  -4   4 -23 1.75615 8.82796   6
   4  -4  23 5.99700 8.43470   2
   0   4  23 -3.5633 7.47250  10
   0   4 -23 -4.8821 7.69770   6
  -4   4 -23 -2.7354 9.24419   3
   4  -4 -23 7.73337 8.91180   2
  -4   0  23 -1.0827 5.36696   5
   0   4 -23 8.14561 6.88455   3
   4  -4  23 -5.3035 5.35591   5
   0  -4  23 -1.2843 6.06594   5
   4   0  23 6.02295 7.42005   2
   4  -4  23 -1.8039 6.91933  11
   4  -4  23 6.67505 7.58269   8
  -4   0  23 7.14208 8.65058   3
  -4   4  23 -20.064 8.46794  10
  -4   0 -23 -0.6812 5.78823  12
   0  -4 -23 8.77770 6.30240   9
   4  -4 -23 2.99420 6.42596  11
   4   0 -23 4.06578 10.6254   6
   4   0  23 -4.9442 6.55882   8
   0   4  23 -3.7447 3.84473  11
   0  -4  23 13.5859 6.62652   9
  -4   4  23 -13.847 12.8261   3
  -4   0  23 -8.6038 4.71428   7
   4  -4 -23 0.71529 4.83090   9
   4   0 -23 14.4777 7.83124   2
   4  -4  23 2.75620 5.06028   9
   4   0 -23 -0.7723 4.25619  11
  -4   4  23 2.31668 8.39185  11
  -3   5  23 300.692 17.5496   8
  -3  -2 -23 274.859 15.3164   7
  -5   2  23 263.687 20.4074   3
   5  -2  23 291.148 18.3400   8
  -5   2  23 289.888 18.8935  11
   2   3  23 258.554 17.5325   8
  -2  -3  23 269.088 15.3340   7
   5  -3 -23 277.467 21.0612   2
  -5   3 -23 307.269 22.4527   3
  -3   5  23 250.872 19.4462  10
  -5   3 -23 303.375 19.7015  11
  -3   5  23 240.322 30.8852   3
   5  -3 -23 300.546 13.9657   9
  -2  -3  23 281.245 16.3844   5
   2  -5 -23 295.272 16.7442   4
   5  -3 -23 267.320 18.7956   6
  -3  -2 -23 251.998 17.1758  12
  -2   5 -23 319.023 20.1965   3
  -3  -2 -23 262.145 15.7012   4
   5  -2  23 262.190 18.6421   2
   5  -3 -23 271.780 17.0322  11
  -5   3 -23 298.461 21.3216   6
   2   3  23 308.347 17.6970   2
   2   3  23 287.228 12.9494  11
   2  -5 -23 317.002 16.6791   9
   3  -5  23 292.253 16.2916   5
   5  -2  23 302.002 17.1940  11
   3  -5  23 302.171 16.0901   9
   3   2 -23 268.649 18.6188   6
  -5   2  23 298.472 14.0616   7
  -3   5  23 273.289 14.4173  11
   2  -5  23 320.845 16.7520   5
   5  -3  23 308.375 19.2453   8
   5  -3  23 347.263 18.8395  11
   5  -3  23 322.033 20.2826   2
   2  -5  23 327.731 16.8689   9
   5  -2 -23 335.188 17.2112  11
  -2  -3 -23 363.213 17.7621   4
  -2   5  23 288.940 20.6114  10
  -5   2 -23 321.725 21.6657  11
   2   3 -23 330.503 19.4079   6
   5  -2 -23 312.593 22.5817   6
  -3  -2  23 336.037 16.2680   5
  -2  -3 -23 321.839 18.9221  12
  -2  -3 -23 351.185 15.5186   7
  -5   3  23 292.552 23.4939   3
  -3   5 -23 339.723 21.3282   3
   3   2  23 344.323 18.9922   2
   3   2  23 293.720 18.4113   8
  -3  -2  23 333.336 16.0958   7
  -2   5  23 349.128 20.8485   3
   3  -5 -23 294.127 16.1587   9
   3   2  23 330.585 14.7841  11
  -3   5 -23 340.486 15.0116  11
  -2   5  23 295.707 18.2244   8
  -5   3  23 319.446 21.9161  11
   5  -2 -23 340.136 22.0976   2
   3  -5 -23 341.353 17.6613   4
   1   4  23 322.973 12.8893  11
   5  -1  23 326.675 17.4768  11
   5  -1  23 305.102 21.2626   2
  -5   4 -23 372.763 22.3450   6
   1   4  23 294.381 17.7542   2
  -4  -1 -23 317.555 19.0823  12
  -4   5  23 297.725 16.7503  11
   5  -1  23 326.759 19.9125   8
   4  -5  23 321.915 16.5647   9
  -1  -4  23 307.021 16.9808   5
  -4   5  23 310.972 22.3766  10
  -5   1  23 320.645 16.2614   7
  -5   4 -23 337.107 23.6745   3
  -4  -1 -23 322.071 18.3692   4
   1   4  23 320.046 20.2500   8
   1  -5 -23 313.398 18.0587   9
   5  -4 -23 343.444 16.3371   9
  -5   1  23 363.327 21.6508   3
   4   1 -23 314.972 20.0401   6
  -4   5  23 355.390 24.2357   3
   1   4  23 319.361 18.8013  10
  -1  -4  23 308.380 16.9493   7
   5  -4 -23 331.248 19.4160  11
   1  -5 -23 311.137 18.1832   4
   5  -4 -23 337.291 21.8703   2
   4   1 -23 302.607 15.0594  11
   1  -5 -23 336.963 18.3935  12
  -4   5  23 322.022 19.6803   8
  -1   5 -23 315.208 21.5867   3
   4  -5  23 330.485 17.3672   5
  -5   4 -23 300.349 19.0775  11
  -4  -1 -23 344.004 17.8114   7
   4  -5 -23 332.688 17.4957   9
  -5   1 -23 358.141 17.6543  12
   4  -5 -23 322.339 17.4216   4
  -1  -4 -23 309.394 18.3227   4
   5  -1 -23 378.143 21.9098   2
  -5   1 -23 358.564 23.1019  11
   1   4 -23 334.527 23.9025   3
   5  -1 -23 313.979 20.7274   6
  -1   5  23 322.905 19.6940   8
  -4   5 -23 343.722 23.5118   3
   5  -4  23 343.770 19.9998   8
  -5   4  23 357.607 19.5250  11
   4   1  23 354.824 20.9345   2
   1  -5  23 344.470 18.3496   5
  -5   4  23 315.851 23.3158   3
   5  -1 -23 360.471 17.7365  11
  -4  -1  23 321.769 16.8905   7
   5  -4  23 363.081 21.9158   2
  -4   5 -23 342.020 17.8152  11
  -5   1 -23 330.932 18.3520   7
  -1   5  23 379.647 21.9885  10
   4   1  23 337.585 16.3982  11
   5  -4  23 351.648 16.8546   9
   5  -4  23 381.901 20.3252  11
  -1  -4 -23 346.882 20.4092   9
  -1   5  23 318.073 14.1056  11
   1   4 -23 332.281 21.9650   6
   4   1  23 324.570 20.0896   8
  -1  -4 -23 325.599 18.8628  12
   5  -5  23 23.7549 8.22505   9
   5   0 -23 22.4207 7.44441  11
   5   0 -23 14.0179 10.9095   6
   5   0  23 18.9069 10.4042   8
  -5   0 -23 17.8774 9.58700  12
   0  -5 -23 23.6025 10.1117  12
   0  -5 -23 46.9733 10.1527   4
  -5   5 -23 29.3251 9.51807  11
  -5   5  23 17.6513 8.50123  11
   0  -5  23 9.31673 9.37154   5
   0  -5 -23 25.5685 10.1384   9
   5  -5 -23 40.9812 9.33484   4
   0   5  23 36.4633 12.9943  10
   5   0  23 25.1844 8.37287  11
   0   5  23 26.1928 10.5625   8
  -5   5  23 9.94222 14.0575   3
   5   0 -23 51.9559 12.4794   2
   0   5 -23 26.3872 12.6361   3
   5  -5 -23 48.1846 9.68235   9
   0   5  23 19.0914 9.30612   2
  -5   5  23 21.5099 13.2832  10
  -5   0 -23 36.9463 9.56569   7
  -5   0  23 28.4395 8.26276   7
  -5   5 -23 44.1409 14.9629   3
   5  -5 -23 20.3525 10.9264  11
   5   0  23 25.9411 12.1697   2
  -3   6  23 869.742 38.1512  10
  -3   6  23 929.033 39.0365   3
   3   3 -23 877.694 34.8569   6
  -3   6 -23 925.256 39.2113   3
   6  -3  23 854.473 34.8481   8
  -3  -3 -23 903.769 33.5408   4
   3   3  23 860.695 34.5000   2
  -3  -3  23 850.943 31.1634   7
   3  -6  23 878.634 32.5355   5
  -6   3 -23 893.267 36.0066  11
  -3   6 -23 794.207 35.3104  10
  -3   6  23 925.547 29.4586  11
   6  -3  23 929.751 38.0432   2
   3  -6  23 891.467 32.4612   9
  -6   3 -23 872.611 31.2533   7
  -6   3  23 861.514 39.5498   3
  -3   6  23 826.587 33.1354   8
  -3  -3 -23 875.818 30.3676   7
   3   3  23 905.204 34.5369   8
  -3  -3 -23 802.916 34.8605  12
   3  -6 -23 884.513 33.1501   9
   6  -3 -23 932.096 38.0740   2
   6  -3 -23 864.199 32.7827  11
   6  -3  23 861.305 32.9282  11
   3  -6 -23 846.113 32.3424   4
  -6   3  23 978.902 36.1394  11
   6  -4 -23 110.151 14.0049  11
  -2  -4  23 77.0803 11.4395   7
   2  -6 -23 109.883 13.7256   4
  -4   6  23 79.9523 13.6831   8
  -2  -4  23 90.7012 18.8668   5
  -4  -2 -23 86.4508 11.6474   7
   2   4  23 91.9348 14.2740   8
  -4  -2 -23 103.015 14.3351  12
  -4   6  23 121.887 19.0814   3
   4   2 -23 84.6318 14.0830   6
   6  -4 -23 115.146 16.8707   2
  -4  -2 -23 97.4858 13.5228   4
   4  -6  23 103.773 12.8912   9
  -6   4 -23 92.4354 13.8194  11
   4  -6  23 97.5818 13.0599   5
  -2   6 -23 80.3651 16.0202   3
  -6   2  23 96.4804 17.7767   3
   6  -2  23 86.7590 11.4883  11
   6  -2  23 75.5190 15.7949   2
   6  -2  23 106.361 14.9885   8
   2  -6 -23 102.159 12.9106   9
  -6   4 -23 102.426 20.4192   3
   2   4  23 86.4323 13.5924   2
  -4   6  23 94.9886 17.1129  10
  -2   6 -23 90.4238 16.1054  10
  -4   6  23 100.374 11.3469  11
  -6   2 -23 114.476 13.0629   7
  -4   6 -23 102.551 12.8478  11
   6  -2 -23 82.9447 15.3505   2
   4   2  23 98.4335 12.3266  11
  -2  -4 -23 88.1421 13.6560   4
  -2   6  23 84.8953 13.9855   8
   2   4 -23 129.819 15.6427   6
  -2  -4 -23 121.483 15.4848  12
   6  -4  23 96.8598 14.1787   8
  -2   6  23 125.853 16.9297  10
  -6   4  23 136.631 19.9616   3
   6  -4  23 108.462 14.5024  11
   4   2  23 117.824 15.6931   8
   4   2  23 101.156 14.9488   2
  -6   2 -23 116.853 15.7763  11
   6  -4  23 102.821 17.1085   2
  -4   6 -23 112.001 17.8271   3
  -4  -2  23 75.6191 11.0428   7
   2  -6  23 90.4102 13.0065   5
   6  -2 -23 71.9601 11.1064  11
   6  -2 -23 92.4472 15.3977   6
   4  -6 -23 92.8843 11.7848   4
   4  -6 -23 101.970 12.6950   9
  -6   4  23 79.9638 12.8544  11
   0   0 -24 8725.25 191.103  11
   0   0 -24 8494.40 194.126   6
   0   0 -24 8853.15 188.276   4
   0   0  24 8700.98 191.774  10
   0   0  24 8621.42 189.781   8
   0   0  24 9019.02 186.708   9
   0   0  24 8550.51 190.240  11
   0  -1 -24 2461.13 56.1807   4
   1  -1  24 2495.58 58.5817  10
   0  -1  24 2497.90 56.0816   8
   0  -1  24 2391.91 56.8546   5
  -1   0 -24 2482.17 62.9711   6
   0   1  24 2424.40 59.0245  10
   1  -1  24 2537.00 54.8623   2
  -1   1  24 2429.70 57.7344  11
   1  -1 -24 2511.39 60.5698   6
   0  -1  24 2486.90 56.5844  11
  -1   0 -24 2483.28 58.7185  11
   0  -1 -24 2524.01 58.3751  11
   1   0  24 2450.34 55.9647   5
  -1   0 -24 2534.45 55.0861   4
   0   1  24 2461.96 59.2529   3
   1   0  24 2485.34 58.3565   8
   1   0  24 2451.50 56.4029   2
   0  -1  24 2460.71 58.5173  10
   0  -1 -24 2427.99 61.7018   6
   0   1  24 2456.19 58.0113   8
  -1   0  24 2421.95 59.7088   3
  -1   1 -24 2457.19 62.2374   6
   1  -1 -24 2592.35 54.5983   9
   1  -1  24 2392.95 56.3741   5
  -1   0  24 2563.04 55.0803   8
   1  -1  24 2454.78 57.9263   8
   0   1  24 2207.17 58.8127  11
  -1   1  24 2442.16 59.5238   3
  -1   1 -24 2349.49 57.9928  11
  -1   1  24 2493.24 56.7519   8
   1   0 -24 2438.27 57.6690  11
   0  -1 -24 2411.91 56.0964   9
   1  -1 -24 2405.68 58.5280  11
   1   0 -24 2397.30 59.9722   6
   1  -1  24 2553.03 57.4209  11
  -1   0  24 2487.52 57.2763  11
  -1   0  24 2461.83 58.1884  10
   0   1 -24 2380.40 60.4989   6
   0   1 -24 2505.36 59.4383  11
   1   0  24 2342.49 57.4518  11
  -1   0  24 2489.97 56.4739   7
   2  -1 -24 462.406 11.5854   9
   1  -2  24 492.501 14.2205  11
   2  -1  24 449.203 14.4056   2
   1   1  24 464.116 15.0403   2
   1   1 -24 440.080 14.1027  11
   1  -2 -24 429.629 15.3590  11
   1  -2  24 432.239 14.8345   8
  -1   2  24 411.760 17.3553   3
   2  -1 -24 458.518 16.7591   6
  -2   1  24 436.774 15.4246  11
  -1  -1  24 472.799 13.9791  11
  -1  -1 -24 441.125 13.9236   4
  -2   1  24 459.702 13.2419   7
   2  -1  24 467.833 16.2701   8
   2  -1 -24 447.815 15.2580  11
   1   1  24 439.327 15.7018  10
  -2   1 -24 486.530 11.6932   4
  -1  -1 -24 433.999 19.7898   6
   2  -1 -24 445.040 14.9000   2
  -2   1 -24 455.367 19.4175   6
  -1   2  24 459.035 15.4595   8
   1  -2 -24 455.350 11.1545   7
   2  -1  24 452.663 15.1281  11
  -1  -1  24 449.060 14.5501   7
   1   1  24 449.039 16.1020   8
  -1  -1  24 450.025 14.5318   5
  -1  -1  24 435.328 14.5912  10
  -2   1  24 471.264 12.9698   8
  -1  -1 -24 445.035 15.8014  12
  -1   2 -24 437.802 17.3792   6
  -1  -1  24 458.738 11.0956   2
  -1   2  24 440.176 16.5916  10
   2  -1  24 465.741 13.2300   5
   1  -2 -24 452.674 14.7449   4
  -2   1 -24 433.125 15.9336  11
  -2   1  24 473.683 17.7503   3
   2  -1  24 454.531 15.2680  10
   1   1 -24 461.064 16.9814   6
   1  -2 -24 445.553 17.5784   6
   1  -2 -24 475.111 13.8637   9
   1   1  24 460.022 14.8367  11
   1  -2  24 477.473 14.7883   5
  -1   2  24 456.272 15.0505  11
   1  -2  24 484.938 12.6221   9
  -1  -1 -24 456.461 15.7364  11
  -1   2 -24 441.338 14.5960  11
   0  -2 -24 -0.4518 3.08738  12
   0  -2  24 4.58927 2.64458   5
   2   0  24 6.03140 3.51405   2
  -2   0 -24 3.15196 2.77597   3
  -2   0 -24 3.61515 2.50159   4
   0  -2 -24 6.00387 2.85260   4
   2  -2 -24 2.41141 1.96444   9
  -2   2  24 -2.5215 4.37342   3
   2   0 -24 0.89718 2.17249  11
  -2   2 -24 -0.9582 4.75791   6
   0   2  24 -4.2704 3.29016  10
   2  -2  24 3.55859 2.77974  11
   0  -2  24 1.76994 2.49157  11
   0   2  24 2.64204 3.02771   3
   2  -2  24 5.31062 3.17946   2
   2   0  24 2.54867 3.35624   8
   2   0  24 3.65627 2.61359  11
  -2   0 -24 4.03385 3.05225  12
   2   0  24 3.45646 2.10743   5
   2   0 -24 0.04198 3.26281   6
  -2   0  24 3.53907 2.98121  11
   2  -2 -24 0.83451 2.96367  11
  -2   0  24 0.18722 3.03414  10
   0  -2 -24 5.83942 3.09736   9
  -2   2  24 -4.1803 2.52388  11
   2   0 -24 -0.7084 2.98871   2
   0  -2  24 1.56541 1.98353   9
   0   2  24 0.73118 2.17742  11
   0   2  24 6.59592 3.48651   8
  -2   2 -24 -5.6074 3.47542   3
   2  -2  24 -0.8835 2.48959   5
   2  -2  24 5.34978 3.58671   8
  -2   2 -24 1.56210 2.91169  11
   0  -2 -24 2.89725 5.66706   6
   0  -2 -24 -2.6414 1.97523   7
  -2   0  24 7.81821 2.69864   7
  -2   0  24 -1.6578 2.58226   5
  -2   0 -24 -1.1691 3.38802  11
   0  -2 -24 0.33634 2.79581  11
   0   2 -24 0.01935 3.77466   6
   2  -2 -24 -1.4210 3.92572   6
   0   2 -24 3.52675 2.24950  11
  -2   0  24 -3.5094 3.71458   3
   2   0  24 6.99905 3.60612  10
  -2   2  24 -0.7691 2.85882   8
  -2   2  24 0.00714 3.55781  10
  -2   0 -24 1.10018 5.24174   6
   1   2  24 455.657 16.9999  10
  -2  -1 -24 423.800 19.4514  11
   1  -3 -24 440.447 16.3225  11
   2   1 -24 450.486 17.6942   6
   2  -3  24 458.658 17.4393   8
  -2   3  24 442.256 16.1046  11
   3  -1  24 454.960 17.7836   8
  -2  -1 -24 452.051 15.3034   4
   3  -2 -24 426.514 17.4407   2
  -3   1  24 473.587 14.5966   7
  -2   3  24 428.724 16.3971   8
   1   2  24 431.190 17.2572   8
   2   1 -24 448.941 14.3320   2
  -3   2 -24 439.749 20.9935   6
  -3   2 -24 448.651 17.7179  11
  -2   3  24 435.842 18.7184   3
  -3   1  24 439.454 18.6785   3
   2  -3  24 442.010 15.2454   5
   3  -1  24 468.051 16.3814  11
   3  -1  24 462.584 12.6129   5
  -3   2 -24 458.310 14.3132  12
   2  -3  24 451.241 15.1928  11
   1  -3 -24 459.725 15.7596   9
  -2  -1 -24 453.986 21.8688   6
  -2  -1 -24 442.349 15.1552   7
   1  -3 -24 436.467 15.9224   4
   1  -3 -24 435.008 17.6765   6
  -2  -1 -24 450.186 17.1245  12
   1   2  24 428.414 14.9572  11
   1  -3 -24 439.011 15.8960  12
  -1   3 -24 441.307 18.5353   6
  -1   3 -24 466.571 14.6937  11
  -1  -2  24 451.755 15.5909   5
  -1  -2  24 429.185 15.5069   7
   3  -2 -24 466.535 13.5329   9
  -3   2 -24 463.362 17.8659   3
   2   1 -24 458.880 14.8114  11
  -3   1  24 434.518 16.3373  11
  -2   3  24 443.897 18.4988  10
   3  -1  24 461.382 17.0512   2
   2  -3  24 448.828 14.6143   9
   3  -2 -24 459.631 17.4750   6
   3  -2 -24 445.370 16.7696  11
   1   2  24 442.320 16.7691   2
  -1   3  24 459.029 17.2927   8
   1   2 -24 448.931 13.6501  11
   2  -3 -24 483.640 15.3230   9
   3  -1 -24 449.735 17.2806   2
  -3   2  24 468.562 19.9068   3
  -2  -1  24 467.905 15.9402   7
   2   1  24 471.921 17.0613   2
   2   1  24 455.009 16.3567  10
  -1  -2 -24 441.147 15.8396   4
  -2   3 -24 459.969 18.2598   3
  -1   3  24 474.062 15.8874  11
  -1  -2 -24 450.007 16.4784  11
  -2  -1  24 456.385 14.8113  11
   3  -1 -24 454.140 17.4730   6
   3  -2  24 461.309 16.7579   2
   2   1  24 471.416 17.9125   8
  -3   1 -24 462.104 18.4907  11
  -2   3 -24 453.429 16.3270  11
  -3   1 -24 453.775 16.4750   3
  -3   1 -24 439.073 21.3037   6
  -3   2  24 463.929 13.2740   7
   3  -1 -24 483.321 16.8286  11
  -1  -2 -24 472.460 17.6130  12
   2   1  24 464.614 15.8840  11
  -3   2  24 470.136 14.7334   8
   3  -2  24 428.981 18.0846   8
   2  -3 -24 437.685 16.6227  11
  -2  -1  24 462.188 15.5171   5
  -3   2  24 475.021 17.5582  10
   1   2 -24 454.436 18.0977   6
  -2   3 -24 467.802 19.6172   6
   1  -3  24 449.633 16.2091   5
   1  -3  24 455.292 13.8891   9
   3  -1 -24 457.134 12.6324   9
  -1  -2 -24 456.830 21.1685   6
   2  -3 -24 448.646 16.6852   4
  -1   3  24 458.186 17.5610   3
  -3   1 -24 475.871 15.8601  12
   3  -2  24 452.228 14.0571   5
   3  -2  24 476.960 16.8354  11
   2  -3 -24 463.566 17.7781   6
  -3   2  24 450.144 17.1277  11
  -1   3  24 446.373 18.4402  10
   0  -3 -24 183.185 11.2338  12
   3   0 -24 198.138 9.97800  11
   0   3 -24 212.164 13.1366   6
   0   3  24 212.220 12.8147  10
   0  -3  24 197.896 10.6729   5
   3   0  24 193.824 10.3011  11
   0   3  24 201.925 10.1259   3
  -3   3  24 195.988 13.3654  10
   3   0 -24 189.074 12.3675   6
  -3   3  24 191.267 10.7673   8
   3  -3  24 176.942 10.7131   2
   0  -3 -24 213.388 13.7577   6
  -3   0  24 198.002 9.42242  10
  -3   3 -24 187.983 12.8669   3
   3  -3 -24 196.900 12.6686   6
   0  -3  24 200.860 8.62067   9
  -3   0  24 189.031 10.3468  11
  -3   3 -24 176.109 14.3642   6
   3  -3 -24 180.162 12.7089   2
   3  -3  24 179.316 9.80274   5
   0   3  24 198.384 11.6524   8
  -3   0  24 202.914 13.3449   3
   3  -3  24 200.857 10.8819  11
   0  -3 -24 196.680 10.2836   4
   3   0  24 197.053 11.9982   2
  -3   0  24 195.989 9.98996   7
  -3   0 -24 208.236 16.0148   6
  -3   0 -24 189.224 9.84053   4
   3   0  24 200.771 10.0812  10
  -3   3  24 219.015 14.5873   3
   3  -3 -24 204.792 11.8070  11
   3   0 -24 198.672 11.7034   2
   0   3  24 196.902 9.60322  11
   3   0  24 205.061 12.1316   8
  -3   0  24 192.722 9.78374   5
  -3   0 -24 188.515 10.6761  12
   3  -3  24 219.992 13.2135   8
   0  -3 -24 199.693 11.0839  11
   0  -3 -24 188.002 11.0303   9
  -3   3 -24 187.435 11.6055  11
   0   3 -24 182.682 7.45982  11
  -3   3  24 199.854 11.3139  11
   3  -3 -24 209.260 9.42555   9
  -3   0 -24 188.100 12.5616  11
   3  -3  24 198.962 9.98326   9
  -4   2  24 133.570 11.4076  11
  -4   2  24 143.778 11.6532  10
   2   2 -24 143.952 11.9963   6
   2   2 -24 143.578 7.27971  11
   2   2  24 139.575 11.1504   2
   2   2  24 156.258 12.0593   8
   4  -2  24 147.831 12.3939   8
  -2   4  24 131.480 9.34289  11
  -2  -2 -24 141.613 10.1783   4
  -4   2  24 153.091 8.68231   7
   2  -4 -24 153.892 11.0308   4
  -4   2 -24 130.220 14.8982   6
   2  -4 -24 150.652 10.3021  12
  -2   4 -24 159.735 14.0121   6
  -2  -2 -24 138.098 16.5228   6
   2  -4  24 142.231 9.71009   9
   2  -4 -24 145.128 12.1320  11
   2   2  24 140.779 10.6060  10
   4  -2  24 133.329 10.9679  11
  -2   4  24 152.219 13.5231  10
   2  -4  24 153.070 10.5173   5
  -2  -2 -24 136.681 9.33728   7
  -2   4 -24 146.381 9.02142  11
  -2   4  24 152.084 11.6298   8
  -4   2 -24 144.117 12.6667  11
   4  -2 -24 145.843 8.12676   9
  -2  -2  24 151.381 10.0750   5
   4  -2  24 137.524 12.8873   2
  -4   2 -24 132.383 13.2792   3
  -2   4 -24 136.080 12.6179   3
  -2  -2 -24 142.812 11.3884  12
   2   2  24 129.724 8.85859  11
  -2   4  24 132.290 12.9598   3
  -4   2  24 146.595 13.9408   3
   4  -2 -24 141.010 11.0139  11
   2  -4 -24 144.288 10.0116   9
  -2  -2  24 144.331 10.2761   7
  -4   2 -24 144.263 8.95176  12
   4  -2 -24 144.329 12.1629   6
   4  -2 -24 143.002 12.4606   2
  -4   3 -24 272.807 18.2974   3
   4  -1  24 266.957 14.2504  11
  -3  -1 -24 290.033 13.7399   7
   4  -3 -24 287.827 12.2596   9
   4  -1  24 261.392 15.6045   8
  -3   4  24 277.612 18.0617   3
  -4   1  24 282.960 17.5733   3
   4  -3 -24 289.067 16.7902   2
   3  -4  24 281.291 13.4267   5
   1   3  24 278.310 14.7423   2
   3   1 -24 280.693 16.0513   6
  -3   4  24 264.205 13.9782  11
   1  -4 -24 256.216 13.9302   4
   1   3  24 272.957 11.7326  11
   1   3  24 281.120 15.9438   8
  -4   1  24 293.902 15.2048  11
  -3  -1 -24 290.065 21.2944   6
   4  -3 -24 268.942 15.1848  11
   1  -4 -24 297.825 14.0762  12
   1   3  24 272.822 15.3453  10
   1  -4 -24 267.591 13.9377   9
  -1  -3  24 269.597 13.4951   7
  -4   1  24 277.438 12.6255   7
   3  -4  24 274.013 12.9842   9
  -1   4 -24 292.896 17.1488   6
  -3  -1 -24 268.705 13.5015   4
  -3   4  24 272.021 14.7888   8
  -1   4 -24 262.396 15.7286   3
  -4   3 -24 270.951 15.6985  11
  -4   3 -24 269.082 18.9287   6
   4  -1  24 290.432 15.9026   2
   3   1 -24 249.986 13.8717   2
  -3   4  24 307.216 17.8575  10
   4  -3 -24 279.681 15.5980   6
  -3  -1 -24 271.841 14.6120  12
   3   1 -24 265.263 11.5568  11
  -4   1  24 272.151 12.6596   5
  -1  -3  24 299.952 13.9526   5
  -3  -1 -24 265.009 16.4135  11
  -1   4 -24 271.829 9.51893  11
   4  -3  24 277.417 11.4883   5
  -1  -3 -24 255.931 11.3792   7
   1  -4  24 268.518 12.5927   9
  -1   4  24 267.740 12.1230  11
   4  -1 -24 270.854 15.9478   6
  -1   4  24 254.842 16.2081  10
   3  -4 -24 258.428 14.7647  11
  -3  -1  24 273.981 13.1790   7
   3   1  24 266.293 15.5009   8
   4  -3  24 259.163 15.5554   2
   4  -3  24 247.494 15.5906   8
  -1  -3 -24 247.472 14.5294  12
   3  -4 -24 277.974 13.0206   9
  -4   1 -24 260.269 16.1121  11
   3   1  24 251.788 12.5910  11
   3  -4 -24 262.987 13.9762   4
   3   1  24 290.725 15.6912   2
  -3  -1  24 268.197 12.8510   5
  -4   1 -24 248.145 19.0117   6
   1  -4  24 254.319 13.3854   5
  -3   4 -24 272.275 16.9845   3
   1   3 -24 267.265 15.7774   6
   3  -4 -24 264.435 12.4280  12
   4  -1 -24 267.145 13.3324  11
   4  -3  24 268.120 14.4888  11
  -1  -3 -24 261.367 13.5555   4
  -3   4 -24 250.504 16.8619   6
  -4   1 -24 264.609 12.9813  12
  -3   4 -24 254.859 13.6486  11
  -1   4  24 250.304 14.7679   3
  -1  -3 -24 257.583 15.0696   9
  -4   3  24 250.017 16.3876  10
   4  -1 -24 262.244 16.3036   2
  -4   3  24 277.978 18.5613   3
  -4   3  24 260.610 14.8314  11
   3   1  24 269.721 12.5780  10
  -1   4  24 269.855 15.1818   8
   0   4  24 296.452 16.6774   8
   0  -4 -24 290.376 17.5472   4
   4   0  24 245.460 20.7439   2
   4  -4  24 292.637 14.3197   5
  -4   4  24 309.990 19.0697  10
   0  -4 -24 256.251 16.0856   9
   0   4  24 317.450 18.5157  10
   0   4  24 293.922 12.3837  11
  -4   0  24 281.906 13.5791   5
   4  -4  24 270.384 16.4495  11
  -4   0  24 271.836 13.9246   7
   4  -4 -24 305.553 13.8475   9
  -4   0 -24 307.463 15.7694  12
  -4   4 -24 305.073 21.1569   3
   4   0  24 269.698 18.6578   8
  -4   4  24 267.421 32.5904   3
  -4   4 -24 281.203 18.8063   6
   4  -4  24 273.668 13.8228   9
   4   0 -24 285.120 13.7805  11
   0  -4 -24 301.697 15.9833  12
  -4   0 -24 289.107 18.3970  11
   4  -4 -24 298.370 17.2395  11
   4   0 -24 249.286 21.3437   6
   4   0  24 268.477 14.7420  11
  -4   4 -24 286.837 17.8658  11
   0   4 -24 295.262 16.7706   3
   0   4 -24 309.273 18.1543   6
  -4   0  24 307.477 18.5462   3
  -4   4  24 286.254 17.1145  11
   4   0 -24 305.238 17.6091   2
  -5   2  24 96.1627 12.1892  11
   5  -3 -24 82.3147 12.1592   6
   2   3  24 107.509 13.0596   2
   5  -2  24 81.3932 12.7921   2
  -2  -3  24 98.3489 10.2962   7
   2  -5 -24 94.1211 11.6452   4
   2  -5 -24 94.5761 11.8948   9
  -2  -3  24 88.2426 10.6428   5
   5  -2  24 81.5462 11.7432   8
  -3   5  24 63.6514 11.8451  10
  -5   2  24 98.3665 10.4592   7
   5  -2  24 111.551 12.6389  11
  -5   3 -24 92.4010 12.3012  11
  -2   5 -24 84.6260 13.0175   3
   2   3  24 76.7603 11.7031   8
  -3  -2 -24 86.4412 11.4529  12
   3   2 -24 65.9424 10.8967   6
  -5   2  24 79.0600 13.3385   3
   3  -5  24 93.9285 11.4707   5
  -3   5  24 92.9521 10.1050  11
   3  -5  24 90.5927 11.4734   9
   5  -3 -24 69.3341 11.8515   2
   5  -3 -24 90.1579 9.62446   9
  -3  -2 -24 96.0967 10.7466   4
  -5   3 -24 111.517 15.7409   3
  -3   5  24 87.1857 11.2033   8
   5  -3 -24 106.499 12.7201  11
  -5   3  24 112.895 14.0662  11
  -3   5 -24 95.7611 10.7286  11
  -2  -3 -24 106.764 11.9031   4
  -2   5  24 102.140 13.3158   3
   3  -5 -24 101.748 12.7953   4
   5  -3  24 104.604 12.8754   8
   5  -3  24 85.3732 10.5985  11
   5  -2 -24 87.0390 12.5967   2
   3   2  24 103.083 13.1811   8
   2   3 -24 92.6753 12.0163   6
   5  -2 -24 76.9046 9.36387  11
   2  -5  24 120.229 12.5296   9
   3  -5 -24 89.8290 10.8165   9
  -2  -3 -24 93.7669 11.3629  12
  -2  -3 -24 100.793 10.9445   7
  -5   2 -24 94.0320 12.6590  11
   3   2  24 70.2644 9.16886  11
   2  -5  24 95.0749 10.5257   5
  -2   5  24 88.7519 12.6024  10
   5  -3  24 81.7682 13.2960   2
  -3   5 -24 103.974 13.8297   3
  -3  -2  24 116.905 12.2291   5
  -2   5  24 84.8708 11.7256   8
  -3  -2  24 97.4555 10.3291   7
  -5   3  24 138.267 17.8092   3
   3   2  24 88.7125 11.6070   2
  -4   5  24 -1.5045 11.2232  10
  -5   1  24 14.6051 10.8939   3
   1   4  24 9.49997 7.96044   2
   1   4  24 9.94759 9.91695  10
   5  -1  24 -2.1853 9.55556   2
  -4  -1 -24 3.25933 7.84933  12
   5  -1  24 5.07310 6.35925  11
  -4   5  24 28.2358 9.32213   8
  -5   4 -24 13.0102 11.2916   6
  -1   5 -24 1.32312 9.91876   3
  -5   4 -24 -8.4955 7.65145  11
   4   1 -24 13.0975 5.42984  11
  -5   4 -24 15.0347 13.0624   3
  -4  -1 -24 6.95018 8.24117   4
   5  -4 -24 -0.9418 7.91469  11
  -4  -1 -24 4.91614 6.98143   7
   4  -5  24 8.28840 7.27296   9
   5  -4 -24 -8.6648 9.84317   2
   4   1 -24 -7.5681 8.22778   6
   1  -5 -24 4.57110 8.01444   4
   1   4  24 23.0854 8.80417   8
  -4   5  24 7.54220 6.58313  11
   5  -1  24 8.01936 8.87737   8
  -5   1  24 17.1072 7.07755   7
  -1  -4  24 0.79590 7.69585   5
   1  -5 -24 -5.9059 7.49709   9
  -1  -4  24 1.66353 7.10858   7
   5  -4 -24 9.87797 6.50682   9
  -4   5  24 22.3998 11.8946   3
   4  -5  24 8.74653 7.79606   5
  -1   5  24 9.26391 9.96652  10
   5  -1 -24 19.0911 9.71951   6
  -4  -1  24 -4.5424 6.24382   7
   5  -4  24 3.29199 8.65308   8
  -1   5  24 8.64690 8.64869   8
   5  -4  24 6.69832 6.77719   9
  -5   4  24 -1.0503 11.6934  10
  -4   5 -24 5.45048 11.0018   3
  -1  -4 -24 6.68319 8.22214   4
  -4   5 -24 0.79787 6.42801  11
  -1  -4 -24 -0.2073 7.77094   9
   4  -5 -24 -1.3248 6.99027   9
  -1   5  24 -6.7709 4.85891  11
   4   1  24 5.64908 5.65213  11
   4   1  24 -5.8304 9.24613   2
   1  -5  24 -5.5183 7.32742   5
  -5   4  24 15.0972 11.5149   3
  -5   4  24 19.4145 8.48760  11
  -5   1 -24 1.70470 7.65877  12
   5  -4  24 6.38390 11.1035   2
   4  -5 -24 4.48530 7.54554   4
   4   1  24 -4.6553 8.19550   8
   5  -1 -24 -7.5914 9.72546   2
  -5   1 -24 8.88967 7.72797   7
   5  -1 -24 4.34568 6.22366  11
  -1  -4 -24 3.43065 8.08923  12
   1   4 -24 7.78163 8.89100   3
   5  -5 -24 15.6437 11.5683  11
  -5   0 -24 0.88229 8.75685   7
  -5   5  24 -9.1907 12.8335  10
   0  -5 -24 -6.5038 9.31054  12
  -5   5 -24 3.61527 14.6289   3
   0  -5  24 -1.1508 9.27070   5
  -5   5  24 14.6387 14.1200   3
   5   0  24 -1.3568 10.4170   8
   0   5  24 9.69582 12.1670  10
   5  -5  24 0.21790 7.82759   9
   0  -5 -24 22.1623 10.1717   9
   5   0 -24 3.90785 6.72220  11
   5  -5 -24 5.48124 8.49767   9
   5   0  24 2.14671 7.16305  11
   0   5  24 21.0458 10.0409   2
  -5   0  24 7.47210 8.31508   7
   5   0  24 -6.8863 11.1432   2
   0   5 -24 -26.076 11.3032   3
  -5   5  24 4.03156 8.05134  11
   5  -5 -24 15.9865 8.72301   4
   0   5  24 -17.596 9.75859   8
   5   0 -24 8.97619 10.3908   6
  -5   0 -24 -4.0618 9.64463  12
   0  -5 -24 10.8980 9.36636   4
  -5   5 -24 10.2417 8.46893  11
   3  -6  24 209.818 17.9535   5
   3  -6 -24 234.378 19.2912   9
   6  -3 -24 250.784 18.7469  11
   6  -3  24 250.022 24.6759   2
   3   3  24 256.338 15.6743  11
  -3   6  24 227.154 24.3440  10
  -6   3 -24 247.591 18.1337   7
  -6   3 -24 232.924 21.3935  11
   3   3 -24 234.571 21.5474   6
  -3   6 -24 249.835 24.2717   3
   3  -6  24 238.676 19.4716   9
   3   3  24 250.048 19.8190   8
  -3   6  24 262.614 21.0457   8
  -3  -3  24 215.984 17.0260   7
  -3  -3 -24 231.934 18.1202   4
   6  -3  24 197.868 21.4703   8
   3   3  24 219.449 20.2697   2
   6  -3 -24 229.876 23.8608   2
   3  -6 -24 261.015 18.2021   4
  -6   3  24 204.007 23.7557   3
  -6   3  24 291.646 22.0513  11
   6  -3  24 246.223 18.7199  11
  -3  -3 -24 230.261 20.4482  12
  -3   6  24 221.222 15.0272  11
  -3   6  24 281.240 27.1419   3
  -4  -2 -24 37.1386 19.1403   4
   2  -6 -24 23.4737 10.6977   4
   6  -2  24 14.0640 13.7298   2
  -4   6  24 9.00281 11.2042   8
  -4   6  24 16.4604 14.9359  10
   2  -6 -24 12.3177 10.7474   9
  -4   6  24 -2.4085 14.4238   3
   2   4  24 29.6973 12.3049   8
   4   2 -24 6.49680 11.5421   6
  -2   6 -24 -14.182 12.6511  10
  -2  -4  24 24.9061 13.8517   5
   6  -4 -24 -0.6560 9.87089  11
  -4  -2 -24 5.21896 9.50348   7
  -4  -2 -24 35.3798 12.2942  12
   6  -2  24 2.13681 12.1245   8
   4  -6  24 0.13045 9.98886   9
  -6   2  24 7.96697 16.0967   3
  -2   6 -24 5.82990 14.0357   3
   4  -6  24 34.5610 10.9172   5
  -6   4 -24 27.2326 11.1184  11
   6  -4 -24 16.6874 12.7797   2
  -4   6  24 13.6694 8.21078  11
  -2  -4  24 1.48470 8.75340   7
  -6   4 -24 54.3078 19.8786   3
   2   4  24 -1.1475 10.7589   2
  -6   4  24 17.8355 10.5807  11
   4   2  24 18.3645 12.1340   2
   6  -2 -24 14.5140 13.1847   6
   4  -6 -24 5.60463 14.7543   9
   2  -6  24 23.8588 10.3025   5
   2   4 -24 2.07713 12.7940   6
   4   2  24 15.1013 12.4313   8
   6  -4  24 13.5126 11.5351  11
   6  -2 -24 17.1524 9.19004  11
   4  -6 -24 10.4370 9.36205   4
  -2   6  24 33.3760 11.6888   8
  -6   4  24 12.9858 15.2263   3
  -2  -4 -24 28.1369 11.1352   4
  -6   2 -24 5.99811 9.92313   7
   6  -4  24 21.4678 15.0279   2
  -6   2 -24 -7.4242 13.0453  11
   4   2  24 30.3629 8.18546  11
  -2   6  24 13.9233 13.8737  10
  -4  -2  24 4.74847 8.81803   7
  -2  -4 -24 32.8004 11.4755  12
  -4   6 -24 -31.155 14.7201   3
  -4   6 -24 15.6242 8.06909  11
   6  -2 -24 10.6938 12.8975   2
   6  -4  24 31.6023 12.1434   8
  -2   6  24 19.6185 7.20931  11
  -1   1 -25 524.433 20.0713   6
   0  -1  25 528.700 16.9984  10
   1  -1  25 519.982 15.2001   5
   0   1  25 511.352 16.5896   8
   1   0  25 524.778 14.6987   5
   1   0  25 548.909 17.2493  10
  -1   1  25 512.931 24.0277   3
   0   1  25 504.247 16.2792   3
   0  -1 -25 507.247 19.8636   6
  -1   0  25 536.355 17.9704   3
  -1   0  25 532.110 15.6850   5
   0   1  25 514.908 16.0761  11
  -1   0  25 516.573 16.6813  10
  -1   0  25 508.167 15.6556  11
   1  -1  25 534.676 13.6979   2
   0   1 -25 520.931 15.9767  11
   0   1 -25 501.251 18.5235   6
   1  -1  25 513.068 16.2469   8
   1   0  25 526.275 14.9934   2
  -1   1 -25 500.354 12.4614   4
   0  -1  25 539.306 14.9397   8
  -1   1  25 524.784 15.3316   8
   1   0 -25 526.571 16.1962  11
   1  -1 -25 546.818 13.3685   9
   0  -1 -25 535.728 15.0575   4
  -1   0 -25 537.128 13.9030   4
  -1   1  25 547.186 17.5722  10
   0  -1  25 521.366 15.2898  11
   0   1  25 525.082 17.3692  10
   1  -1 -25 481.850 16.4885  11
   1  -1  25 537.302 17.0399  10
  -1   1  25 459.100 17.2922  11
   0  -1 -25 504.286 16.6079  11
   0  -1  25 523.713 15.7268   5
   1   0 -25 510.804 18.0951   6
   1  -1 -25 496.546 18.5351   6
  -1   0  25 549.212 14.0032   8
   0  -1 -25 532.875 14.9520   9
   1  -1  25 521.281 15.7209  11
  -1   0 -25 512.859 20.3699   6
   1   0  25 453.773 17.3682  11
  -1  -1  25 329.048 12.0273   5
  -1   2  25 341.698 14.0518   3
  -1   2  25 322.399 12.5942   8
   2  -1 -25 335.530 12.8827  11
   1  -2 -25 331.456 15.3252   6
   2  -1 -25 330.492 13.9983   6
   2  -1  25 336.980 10.8099   5
  -2   1 -25 338.008 9.07418   4
  -1   2 -25 344.663 12.2995  11
  -1  -1 -25 335.076 13.2967  11
  -2   1  25 345.161 13.5113  10
   1   1 -25 316.157 11.4664  11
   2  -1  25 324.105 13.4724   8
   2  -1  25 330.467 11.8465   2
  -1  -1 -25 334.934 13.2491  12
   1   1  25 340.329 13.5064   8
   1  -2 -25 343.370 11.2544   9
  -2   1 -25 338.216 16.7553   6
  -1   2  25 336.396 14.1554  10
  -1  -1  25 312.090 11.8739   7
  -1   2 -25 341.520 15.4730   6
  -2   1  25 349.102 10.8595   7
  -2   1  25 336.304 10.4964   8
   1  -2  25 333.167 11.5185  11
   1   1  25 332.280 12.5301   2
  -2   1 -25 357.564 13.7550  11
   2  -1 -25 346.298 12.6843   2
   1  -2  25 339.524 12.5022   8
   1  -2  25 349.348 10.0814   9
   2  -1  25 327.510 12.5112  11
  -1  -1 -25 341.729 17.3768   6
   1  -2 -25 338.266 12.0758   4
   1  -2 -25 283.752 14.0751  11
   1   1  25 335.342 12.3531  11
  -2   1  25 302.271 14.1002  11
   2  -1 -25 346.982 9.02557   9
  -1  -1  25 327.270 12.4893  10
   2  -1  25 330.922 12.7116  10
   1   1 -25 337.840 14.3501   6
  -1  -1 -25 342.153 11.4767   4
   1  -2  25 350.845 12.1578   5
   1   1  25 336.791 13.4018  10
  -1   2  25 343.364 12.5741  11
  -2   1  25 358.112 15.3769   3
  -2   0 -25 832.146 23.8656  12
   0  -2 -25 819.105 23.2293   9
  -2   0 -25 767.136 24.2533  11
   2   0  25 779.942 23.4130   2
   0   2  25 813.134 25.0431  10
   2  -2 -25 822.913 24.2401  11
   2  -2 -25 813.977 20.7616   9
  -2   2 -25 824.503 24.3582  11
   0   2 -25 805.912 26.0140   6
   0  -2  25 834.859 19.4197   9
  -2   0  25 754.256 22.2084   5
   0   2  25 789.391 22.7690   3
   2   0  25 793.280 20.2366   5
   0  -2  25 833.444 23.2499   5
  -2   2  25 798.827 24.8974  10
  -2   2 -25 817.983 27.7465   6
   2  -2  25 787.729 22.9810  11
   2   0  25 794.982 23.3160  11
   2   0  25 811.422 24.7025   8
   2  -2  25 826.929 22.2167   5
   2   0 -25 796.326 25.1106   6
  -2   2 -25 834.896 24.5124   3
   0   2  25 815.000 24.2181   8
  -2   2  25 773.644 25.7949   3
  -2   0 -25 787.189 28.8029   6
  -2   0  25 840.326 22.9573  11
   2  -2  25 786.513 24.3315   8
  -2   0  25 796.818 25.5306   3
   0   2  25 793.058 22.6509  11
   0  -2 -25 831.126 22.6603   4
   0  -2 -25 796.566 30.2400   6
   2   0 -25 794.446 22.8380  11
  -2   0 -25 788.875 21.0200   4
  -2   0  25 786.407 22.4868  10
   0  -2 -25 769.153 23.5048  11
   0  -2 -25 805.035 24.3229  12
  -2   0  25 813.542 22.2140   7
   2  -2  25 831.029 21.3897   2
   2   0  25 812.810 23.6989  10
   2  -2 -25 791.253 25.2839   6
   0  -2  25 852.612 21.3995  11
   0   2 -25 809.738 21.8603  11
  -2   2  25 840.999 23.9240  11
  -2   0 -25 811.349 21.4482   3
   2   0 -25 805.413 22.1614   2
  -2   2  25 785.363 24.4469   8
   3  -1  25 342.635 13.8854  11
  -2  -1 -25 336.076 14.9425  12
   2  -3  25 321.788 12.1926   9
   3  -2 -25 343.127 11.1040   9
   1  -3 -25 358.175 13.4762   9
   3  -2 -25 349.260 15.4388   6
   2   1 -25 335.811 12.2792  11
  -3   1  25 325.109 14.0322  10
  -3   1  25 351.881 14.3110  11
   2  -3  25 348.629 12.9586  11
   1  -3 -25 338.871 14.4712  11
  -3   1  25 335.694 12.1442   7
   1   2  25 357.636 14.7199   2
   2   1 -25 351.828 15.6163   6
  -2   3  25 324.614 13.6538  11
  -1  -2  25 341.195 13.3785   7
   2   1 -25 352.162 12.1597   2
  -3   2 -25 325.906 18.0079   6
  -2  -1 -25 338.360 15.0273  11
  -2   3  25 332.632 13.9739   8
   1   2  25 330.707 14.8790   8
   1  -3 -25 342.179 13.9034   4
   1  -3 -25 343.613 16.4663   6
  -1   3 -25 338.829 12.3788  11
   1   2  25 338.903 12.7856  11
  -3   1  25 327.721 16.6031   3
   3  -2 -25 340.280 14.5117  11
  -2  -1 -25 343.586 12.9909   4
  -2   3  25 343.094 16.5346   3
  -3   2 -25 333.205 15.3546   3
  -1  -2  25 334.416 13.2428   5
  -2   3  25 339.262 16.0289  10
   2  -3  25 352.300 15.1404   8
   3  -1  25 345.976 10.4619   5
   2  -3  25 329.336 13.1347   5
   3  -1  25 346.695 14.4755   2
  -3   2 -25 327.373 15.2925  11
   3  -1  25 354.427 15.6039   8
   1   2  25 333.682 14.6133  10
   3  -2 -25 339.487 15.0813   2
  -2  -1 -25 360.233 20.1395   6
   1  -3 -25 332.706 13.7764  12
  -1   3 -25 343.967 16.5308   6
   3  -2  25 327.430 13.9578   2
   2  -3 -25 355.541 15.7101   6
  -3   1 -25 325.139 15.4672  11
  -1   3  25 345.336 15.8743  10
  -2   3 -25 348.165 17.2699   6
  -3   1 -25 351.087 13.3924  12
  -2  -1  25 349.625 12.5905  11
  -3   1 -25 325.431 13.9308   3
  -2  -1  25 335.327 13.1600   7
   2  -3 -25 343.010 14.3361  11
  -1  -2 -25 327.380 12.7855   7
   3  -1 -25 327.543 13.6542  11
  -1  -2 -25 328.046 13.9800  11
   3  -1 -25 349.089 15.5215   6
  -3   2  25 337.564 14.4439  11
   3  -2  25 318.885 15.2682   8
  -3   2  25 348.841 17.1940   3
  -2   3 -25 341.293 13.7746  11
   1  -3  25 331.273 13.4793   5
  -1   3  25 316.153 14.7826   3
   3  -2  25 347.196 14.0463  11
   2  -3 -25 325.950 12.3243   9
   1   2 -25 318.469 15.2394   6
   2   1  25 339.717 13.1606  11
  -3   2  25 330.320 10.6064   7
   3  -1 -25 328.023 14.4427   2
   3  -1 -25 335.927 9.92876   9
  -1  -2 -25 325.514 13.1802   4
   1  -3  25 340.015 11.3613   9
  -3   2  25 330.943 11.9635   8
  -1  -2 -25 328.013 14.5624  12
  -3   2  25 326.575 14.7054  10
   2   1  25 327.748 14.8847   8
   1   2 -25 331.792 11.1952  11
  -3   1 -25 342.720 18.9718   6
   2   1  25 319.299 13.8061  10
   2  -3 -25 332.579 13.5259   4
  -1  -2 -25 335.449 18.6200   6
  -1   3  25 324.104 14.4836   8
  -2  -1  25 334.286 12.8918   5
  -1   3  25 347.015 13.3385  11
   2   1  25 330.613 14.3113   2
   0  -3 -25 179.583 10.6576   9
   3  -3  25 160.234 10.2952  11
   0   3 -25 177.310 7.43855  11
   3  -3 -25 166.137 11.3511  11
   0  -3 -25 173.032 10.1429   4
  -3   0  25 166.501 10.0678  11
   3   0  25 156.511 9.58053  10
  -3   3  25 172.441 10.6057   8
  -3   3  25 170.586 13.1711  10
   0   3  25 167.877 9.14670  11
   3   0  25 178.276 11.6474   2
   3  -3  25 177.708 12.6069   8
   3   0 -25 179.858 9.65222  11
  -3   3 -25 191.317 11.7116  11
   0  -3 -25 164.731 13.7438   6
   3   0 -25 167.301 11.8623   6
  -3   0 -25 185.678 9.51703   4
  -3   0  25 170.754 9.37186   5
  -3   0 -25 171.690 12.2686  11
  -3   0  25 184.562 9.61743   7
   0   3 -25 193.784 13.1331   6
   0  -3  25 173.900 8.29789   9
   3  -3 -25 192.405 9.14619   9
  -3   3  25 167.452 10.9904  11
   3  -3  25 180.710 9.57909   5
   0   3  25 164.880 9.46271   3
  -3   3 -25 155.959 12.5609   3
   3   0  25 182.474 9.92569  11
   0  -3 -25 174.928 11.0001  12
   3   0  25 160.874 11.2621   8
   3  -3  25 163.171 10.5867   2
   0   3  25 181.111 10.9964   8
   0   3  25 182.133 12.5656  10
  -3   0  25 179.479 9.23044  10
   0  -3  25 167.528 10.2129   5
  -3   0  25 178.316 13.1225   3
   3   0 -25 156.747 11.3638   2
  -3   3  25 174.029 14.0041   3
  -3   0 -25 166.236 10.4957  12
   3  -3 -25 170.913 12.5402   2
   3  -3  25 178.773 9.59264   9
  -3   3 -25 163.659 14.1511   6
  -3   0 -25 184.733 14.6759   6
   0  -3 -25 173.769 10.8150  11
  -4   2 -25 45.5519 8.77543  11
   2   2 -25 67.7577 12.6525   6
   4  -2  25 52.3785 7.45632  11
   2   2  25 62.5751 8.91984   8
  -2   4  25 51.2479 7.83799   8
  -2   4  25 45.4428 9.23174   3
  -4   2  25 51.8480 8.15308  10
   2  -4  25 66.4320 8.07268   9
   2  -4 -25 58.3810 8.75064  11
   2   2  25 52.7909 6.87666  11
   4  -2 -25 60.5280 6.37655   9
   4  -2 -25 55.0514 7.69383  11
  -4   2  25 61.9889 6.00761   7
  -4   2  25 44.9790 10.0442   3
  -2   4  25 59.6675 9.85969  10
   2   2  25 42.6955 7.51320   2
   2   2  25 49.0689 7.49958  10
   2  -4 -25 49.5152 6.86860   9
   2  -4 -25 53.2972 6.96069  12
   2  -4  25 51.8345 7.02532   5
  -2  -2 -25 54.9760 7.31429   4
   4  -2 -25 52.0129 9.02371   2
  -2  -2  25 41.5112 6.61251   7
  -2   4 -25 39.8961 9.60068   6
   4  -2 -25 51.0540 8.47379   6
   4  -2  25 64.2091 8.99811   8
  -2   4  25 57.6208 7.32365  11
   4  -2  25 80.2624 10.0150   2
   2  -4 -25 57.6239 7.91518   4
  -2  -2 -25 49.9645 7.64818  12
  -2   4 -25 50.4359 8.60555   3
  -4   2 -25 53.1676 6.18740  12
  -4   2 -25 71.9771 10.6109   3
  -4   2 -25 55.1202 10.5968   6
  -2  -2  25 70.7168 8.30794   5
   2   2 -25 45.5928 5.50332  11
  -2   4 -25 47.2462 6.07944  11
  -2  -2 -25 58.9394 6.91794   7
  -2  -2 -25 42.4104 11.0931   6
  -4   2  25 60.7610 8.58882  11
   3   1 -25 119.497 8.42049  11
  -1  -3  25 127.671 10.3543   7
  -4   1  25 103.984 11.7591  11
   1   3  25 114.767 11.5265   8
  -3   4  25 115.577 11.5524   8
  -3  -1 -25 149.437 17.5754   6
  -3   4  25 124.547 10.4884  11
   4  -3 -25 129.329 11.5841  11
  -1  -3  25 135.290 10.2310   5
   1  -4 -25 140.919 10.9008  12
  -4   1  25 116.549 9.20784   7
   4  -3 -25 145.861 13.4279   2
  -3  -1 -25 115.266 10.7929  12
   4  -3 -25 111.543 8.48930   9
   1   3  25 107.295 11.8037  10
   1  -4 -25 123.628 10.5897   4
  -1   4 -25 120.701 13.0910   3
   3  -4  25 138.405 9.88267   9
  -3  -1 -25 107.528 9.87649   7
   4  -3 -25 119.092 13.4461   6
  -4   3 -25 134.568 12.3456  11
  -1   4 -25 124.228 14.2284   6
   4  -1  25 157.466 13.2010   2
  -3  -1 -25 121.819 13.5619  11
   3   1 -25 119.836 12.0123   6
  -4   3 -25 140.428 16.1792   6
   4  -1  25 123.714 10.6639  11
   1   3  25 108.636 10.5431   2
   3  -4  25 112.211 9.66473   5
  -1   4 -25 120.679 6.58393  11
  -4   1  25 129.987 9.36707   5
  -4   1  25 122.197 14.3945   3
  -3   4  25 111.959 13.8137   3
  -4   3 -25 137.650 14.8730   3
  -3  -1 -25 110.914 10.2680   4
  -3   4  25 149.810 14.2804  10
   1  -4 -25 110.154 10.4979   9
   1   3  25 118.779 8.31916  11
   4  -1  25 110.918 11.8082   8
  -1   4  25 118.381 12.2116   3
   3  -4 -25 118.074 9.62220   9
  -1  -3 -25 103.171 10.1402   4
   4  -3  25 118.339 8.37182   5
  -3   4 -25 105.010 12.3894   3
   4  -3  25 113.685 12.5124   8
  -1   4  25 116.000 13.7677  10
   4  -1 -25 133.772 12.9947   2
  -4   3  25 115.884 13.7960   3
   4  -1 -25 121.884 13.0497   6
  -4   3  25 107.976 10.5124   8
  -3  -1  25 121.167 9.45696   5
   1  -4  25 118.817 9.94211   9
  -4   1 -25 104.047 13.7123   6
  -4   1 -25 95.9874 12.7008  11
   3   1  25 131.798 9.92209  10
  -1   4  25 113.741 8.77855  11
  -3  -1  25 125.131 9.98919   7
   4  -3  25 106.490 12.7745   2
  -4   3  25 99.0799 11.1499  11
   1  -4  25 118.331 9.58641   5
  -1  -3 -25 106.571 11.3981  12
   3  -4 -25 112.004 10.1884   4
   3  -4 -25 103.607 10.6399  11
  -3   4 -25 129.533 14.1625   6
  -3   4 -25 122.944 10.4167  11
   3   1  25 122.398 12.0383   2
   3   1  25 123.840 11.6433   8
   1   3 -25 103.975 12.3749   6
  -4   3  25 111.775 13.8192  10
   4  -3  25 106.838 11.3651  11
  -1  -3 -25 133.305 9.29977   7
  -4   1 -25 106.590 10.0933  12
   4  -1 -25 118.842 9.93606  11
  -1  -3 -25 126.398 11.4755   9
   3   1  25 127.673 9.41731  11
  -1   4  25 111.691 11.5788   8
   0   4 -25 63.7881 10.1219   3
   4  -4 -25 62.1835 10.8165   2
   0   4 -25 55.0828 11.0947   6
  -4   4  25 49.1748 9.00780   8
   4  -4 -25 54.4056 9.15784  11
   4  -4  25 51.4950 9.34686   8
   0   4  25 42.4997 8.35973   8
   4  -4  25 61.6903 9.50543  11
  -4   4  25 49.7168 11.2863   3
   4   0  25 30.4176 11.9549   8
   0   4  25 53.3637 9.96590  10
   4   0  25 45.7962 7.16938  11
   4   0 -25 52.8970 7.90003  11
   0  -4 -25 59.1467 8.77675  12
  -4   0 -25 58.7263 11.0119  11
  -4   4 -25 51.7051 11.2014   6
   4  -4  25 60.6020 7.67054   9
  -4   4 -25 53.5367 8.78566  11
  -4   0 -25 56.5394 8.53500  12
   0  -4 -25 47.5245 8.13504   4
  -4   0  25 47.4674 7.71073   5
  -4   0  25 55.2507 7.51023   7
   4  -4  25 64.3644 8.18132   5
   4   0 -25 53.3181 9.63582   6
   4  -4 -25 49.3681 7.31052   9
   4   0  25 55.4408 16.8992   2
   4   0 -25 44.1613 9.55364   2
  -4   4  25 78.7051 12.5782  10
   0   4  25 56.0142 7.21763  11
  -4   0 -25 49.2852 9.98189   7
   0  -4  25 51.5801 8.04062   5
  -4   4  25 48.8954 7.99709  11
   5  -3 -25 247.039 16.1899  11
  -2  -3  25 196.738 13.1604   7
  -3   5  25 181.743 18.4364   3
  -5   3 -25 158.666 20.3152   6
   5  -2  25 181.971 14.8555  11
   2  -5 -25 170.836 14.4159   9
  -5   3 -25 184.425 21.1973   3
   2   3  25 191.384 11.4197  11
  -5   3 -25 194.732 16.8933  11
   5  -3 -25 169.086 17.9418   6
  -5   2  25 187.117 12.8870   7
   2  -5 -25 190.495 14.0697   4
  -3   5  25 174.478 16.5752   8
  -2   5 -25 194.464 17.7058   3
   5  -2  25 219.677 18.7561   2
  -3  -2 -25 185.791 17.5530   7
   5  -2  25 172.826 15.7600   8
  -3   5  25 158.932 12.4131  11
   2   3  25 198.675 16.8730   8
  -3  -2 -25 163.025 15.6028  12
  -3   5  25 191.113 18.5610  10
   3  -5  25 208.186 14.2937   5
   3  -5  25 192.158 14.0610   9
   3   2 -25 179.783 16.3052   6
   5  -3 -25 165.932 17.5512   2
   2   3  25 177.665 14.8689   2
  -3  -2 -25 179.339 13.8682   4
  -5   2  25 189.658 16.9827  11
  -5   2  25 180.482 18.7258   3
  -3  -2  25 209.092 14.2525   5
   5  -3  25 206.592 15.7036  11
  -3  -2  25 187.643 13.4104   7
   3  -5 -25 146.440 13.7147   4
   5  -2 -25 176.890 18.2475   2
   3   2  25 198.456 15.9351   2
   5  -3  25 210.380 18.8098   2
  -3   5 -25 189.284 18.0296   3
   3   2  25 200.328 15.6519   8
   2  -5  25 184.791 14.1469   5
  -2   5  25 158.063 18.1935  10
   3  -5 -25 197.561 13.9146   9
  -5   3  25 163.346 19.0926   3
  -2   5  25 198.517 16.1866   8
   5  -2 -25 190.157 14.1679  11
  -2  -3 -25 188.995 15.6277  12
   2  -5  25 223.554 14.8054   9
  -3   5 -25 171.233 16.3676  11
  -2  -3 -25 180.003 13.9877   4
   5  -3  25 193.576 17.4998   8
   3   2  25 184.272 12.0237  11
  -5   2 -25 221.998 18.3432  11
   5  -2 -25 199.052 17.1344   6
   2   3 -25 179.792 15.7677   6
  -2  -3 -25 170.264 12.8544   7
  -2   5  25 181.196 18.3257   3
  -5   3  25 217.746 16.4463  11
   4   1 -25 211.702 18.7887   6
  -1   5 -25 198.065 19.8251   3
  -5   4 -25 176.967 21.1736   6
  -5   4 -25 194.289 21.1686   3
   1   4  25 222.618 16.1796   2
   1  -5 -25 230.694 16.3384  12
   4  -5  25 209.314 15.0028   5
  -5   1  25 179.858 13.7815   7
  -4  -1 -25 207.917 15.3467   7
  -4   5  25 193.209 14.6651  11
   1  -5 -25 193.070 15.7086   9
   5  -1  25 181.597 17.8655   8
  -4   5  25 217.364 18.0473   8
   1  -5 -25 208.320 16.4868   4
  -5   1  25 203.734 18.7251   3
   5  -4 -25 211.985 19.0155   2
  -4  -1 -25 209.827 16.4337   4
   5  -4 -25 202.772 17.0541  11
  -5   4 -25 205.293 17.6843  11
  -4   5  25 215.689 20.7127  10
   5  -1  25 156.486 14.1852  11
   1   4  25 168.760 16.5955   8
  -1  -4  25 197.297 14.6670   5
   4  -5  25 207.272 14.4902   9
   1   4  25 208.445 19.1871  10
   1   4  25 206.831 10.9505  11
  -4  -1 -25 205.151 17.0206  12
  -1  -4  25 204.457 14.5672   7
   5  -1  25 175.222 18.2692   2
  -4   5  25 181.636 20.4358   3
   5  -4 -25 194.360 14.3453   9
   4   1 -25 208.987 12.0479  11
   4  -5 -25 173.879 14.5060   9
   5  -1 -25 173.755 13.4604  11
  -5   1 -25 179.048 19.5584  11
  -4   5 -25 147.907 17.3100   3
   4   1  25 170.091 17.7934   2
   4   1  25 175.668 13.0813  11
  -5   1 -25 148.736 14.7648   7
  -1  -4 -25 160.827 15.6873  12
  -5   4  25 177.999 21.1131   3
  -1  -4 -25 168.585 14.8022   4
  -5   4  25 186.932 20.3158  10
  -1   5  25 190.665 16.6034   8
   5  -1 -25 169.080 19.3981   2
   1   4 -25 182.965 17.0360   3
   5  -4  25 183.369 18.1721  11
  -1   5  25 163.741 11.1471  11
   5  -4  25 169.665 13.0885   9
   4  -5 -25 163.336 13.8995   4
  -4  -1  25 188.919 13.6796   7
   1   4 -25 169.307 17.3662   6
  -1   5  25 158.305 18.1463  10
   1  -5  25 173.379 14.5488   5
   4   1  25 193.765 16.6323   8
  -5   4  25 192.293 16.5752  11
   5  -1 -25 159.679 17.9530   6
   5  -4  25 176.012 16.8479   8
  -4   5 -25 179.067 14.4908  11
   0  -5 -25 36.6193 10.8144   9
  -5   5 -25 22.3963 9.31736  11
  -5   5 -25 31.6773 15.1920   3
   5   0 -25 40.9968 8.15002  11
   0  -5  25 8.57025 10.0011   5
   0   5  25 2.89505 12.8669  10
   0  -5 -25 31.5441 10.2734   4
  -5   0 -25 41.8224 10.1027   7
  -5   0 -25 42.1708 10.9480  12
   0   5 -25 30.4573 12.8704   3
   5  -5  25 27.1824 8.52087   9
   5   0 -25 22.3192 11.2080   6
   5   0  25 9.36603 10.7722   8
  -5   5  25 7.77283 11.2383   8
  -5   5  25 22.1958 14.5614  10
  -5   5  25 18.4065 9.08486  11
   5   0  25 38.5997 8.83537  11
   5   0  25 17.9154 12.2406   2
   5  -5 -25 37.6583 9.79584   9
   0  -5 -25 35.6210 11.1186  12
   0   5  25 21.7207 10.5182   2
   5  -5 -25 31.7650 12.3583  11
   0   5  25 13.7320 10.6434   8
  -5   0  25 43.5261 9.01241   7
  -5   5  25 14.1948 12.8994   3
   5  -5 -25 51.3546 9.68184   4
  -3   6  25 524.944 27.1192   8
   3  -6 -25 509.354 24.9224   4
   6  -3  25 500.303 27.3996   8
   3   3  25 527.589 27.7890   2
   3   3  25 551.244 27.6687   8
  -3   6  25 518.404 30.9905  10
  -6   3 -25 556.391 28.2436  11
  -6   3 -25 502.499 24.1331   7
  -6   3  25 522.775 32.0874   3
   6  -3  25 559.617 30.9673   2
  -3   6 -25 509.242 32.7349   3
   3   3  25 542.849 20.1751  11
   3  -6 -25 523.038 25.5556   9
   3  -6  25 501.426 25.9786   5
  -3  -3 -25 530.069 27.9577  12
  -3  -3  25 510.742 23.7477   7
   6  -3 -25 550.015 29.6926   2
   6  -3 -25 514.368 25.0815  11
   3   3 -25 542.275 28.8098   6
  -6   3  25 552.365 27.8379  11
  -3   6  25 509.700 22.8833  11
   6  -3  25 480.030 24.7053  11
  -3  -3 -25 543.035 25.7365   4
  -4   6  25 391.196 20.1741  11
   2   4  25 379.376 24.1180   2
  -6   2  25 385.022 29.2868   3
   2  -6 -25 405.577 23.4617   4
  -6   4 -25 380.401 24.4804  11
   6  -2  25 385.140 22.0732  11
  -4   6  25 414.071 24.9037   8
   4   2 -25 386.935 24.6373   6
   6  -4 -25 441.746 24.2837  11
   6  -4 -25 407.407 27.8322   2
  -4   6  25 404.469 29.8637   3
  -2  -4  25 369.653 21.0214   7
  -2   6 -25 409.086 28.5298   3
  -2  -4  25 427.155 25.2536   5
  -2   6 -25 408.033 24.9248  10
  -4  -2 -25 406.076 22.7232   4
   4  -6  25 415.506 21.8453   5
  -4  -2 -25 411.141 25.4189  12
   6  -2  25 417.283 24.9705   8
   2   4  25 363.151 24.4170   8
   2  -6 -25 384.959 23.1524   9
  -4   6  25 364.343 26.9680  10
  -4  -2 -25 419.262 21.4328   7
   6  -2  25 409.822 28.6612   2
   4  -6  25 420.603 22.4556   9
  -4   6 -25 421.641 19.3160  11
   2  -6  25 378.153 21.5673   5
  -2   6  25 414.158 25.6295   8
  -2   6  25 399.115 17.3178  11
  -2   6  25 357.064 26.8469  10
   6  -2 -25 443.265 27.1484   2
  -6   4  25 341.196 23.5203  11
  -2  -4 -25 432.885 24.9178  12
  -4   6 -25 367.036 29.4346   3
   6  -2 -25 402.811 25.6554   6
   4  -6 -25 426.443 21.9370   9
   4   2  25 376.649 18.7471  11
  -6   2 -25 394.736 27.7932  11
   4  -6 -25 379.163 20.7987   4
   2   4 -25 390.840 25.9061   6
  -6   4  25 330.489 30.2477   3
  -6   2 -25 410.255 22.6064   7
   6  -2 -25 394.298 21.4754  11
   4   2  25 417.322 24.3938   8
  -4  -2  25 365.346 20.5928   7
  -2  -4 -25 387.769 22.4030   4
   4   2  25 336.081 25.1877   2
   6  -4  25 418.548 24.1302  11
   6  -4  25 372.055 24.7170   8
   0   0  26 0.29780 3.06100  10
   0   0  26 -0.8541 2.34620   8
   0   0 -26 0.99159 1.63030   4
   0   0  26 3.01188 2.03060  11
   0   0 -26 1.42517 3.91630   6
   0   0 -26 0.00759 2.51736  11
   0   0  26 2.60087 1.47822   9
  -1   1 -26 449.361 10.0598   4
   0  -1 -26 419.204 19.7388   6
  -1   1  26 413.357 15.4049   3
   1   0 -26 424.339 16.0972   6
  -1   1 -26 416.377 14.4619  11
  -1   0  26 395.858 13.5914  11
   1  -1  26 375.200 16.7631   5
   0   1 -26 416.287 16.6913   6
   1  -1 -26 399.160 14.4449  11
   0   1 -26 409.923 13.7782  11
   0  -1  26 419.058 14.7723  10
   1   0  26 414.783 14.6425   8
   1   0  26 423.981 14.8092  10
   0   1  26 406.865 15.4256  10
   1   0  26 411.066 12.9237   2
  -1   1  26 418.975 13.3053   8
  -1   1  26 421.025 15.2811  10
   0  -1 -26 422.381 12.8903   4
  -1   0 -26 435.405 18.4518   6
   1   0 -26 436.631 14.4194  11
   1   0  26 421.206 12.6917   5
  -1   1 -26 405.770 17.7031   6
   0   1  26 426.455 14.1467  11
   0  -1  26 417.461 13.1464  11
   0  -1  26 431.050 13.6383   5
  -1   0  26 430.761 12.0327   8
   1  -1  26 430.450 13.8304  11
  -1   1  26 407.014 14.3135  11
   1  -1  26 400.180 14.2819   8
  -1   0 -26 430.934 11.7101   4
   0  -1  26 436.862 12.9358   8
   1  -1  26 427.892 11.6495   2
   0  -1 -26 429.916 14.9931  11
   1  -1 -26 443.822 11.3570   9
  -1   0 -26 404.127 14.7988  11
   0   1  26 417.187 14.4277   3
   1   0  26 393.403 13.9494  11
  -2   1  26 379.679 14.0445  11
  -2   1  26 371.877 15.7290   3
   1  -2  26 377.217 12.7273  11
   2  -1  26 378.744 14.7763   8
   2  -1  26 378.904 13.6394  11
   2  -1  26 374.572 13.9196  10
  -2   1  26 385.507 11.5679   8
  -2   1 -26 374.309 14.8669  11
   2  -1  26 370.216 12.8240   2
  -2   1 -26 400.388 9.94835   4
   2  -1 -26 373.226 15.5615   6
  -1  -1  26 385.908 13.1956   7
   2  -1 -26 363.555 13.8143  11
   1   1 -26 359.695 12.5762  11
  -1   2 -26 357.504 13.2127  11
  -1   2  26 381.899 13.8464  11
   1  -2 -26 350.427 14.1409  11
   2  -1  26 386.090 11.9046   5
   1  -2 -26 382.316 16.9491   6
   2  -1 -26 394.351 9.86607   9
  -2   1  26 387.802 14.6416  10
   1  -2 -26 382.511 13.2658   4
   1   1  26 367.641 14.4825   8
   1  -2  26 356.207 13.4587   8
  -1   2 -26 372.736 16.7167   6
  -1   2  26 348.128 14.6551  10
  -1  -1  26 378.380 12.9968   5
   1  -2  26 376.629 10.9391   9
  -2   1 -26 359.485 17.6824   6
   1   1 -26 396.687 15.9109   6
  -1  -1 -26 344.188 15.9165  11
   2  -1 -26 372.720 13.6348   2
  -1  -1  26 372.491 13.6708  10
  -1  -1 -26 366.236 18.6403   6
   1   1  26 380.937 13.4438  11
   1   1  26 376.292 13.5890   2
  -1   2  26 367.234 14.9113   3
   1   1  26 369.506 14.2502  10
   1  -2 -26 373.478 12.1233   9
  -2   1  26 383.402 11.9317   7
   1  -2  26 374.857 13.0395   5
  -1   2  26 364.502 13.6998   8
  -1  -1 -26 381.330 14.5923  12
   2   0  26 25.2674 3.10946   5
  -2   2  26 14.2962 4.93491  10
  -2   0  26 28.5932 4.11709  11
   2   0 -26 31.2804 4.91148   2
  -2   0 -26 29.8854 5.06838  11
  -2   0  26 27.1266 4.17164   7
   0  -2 -26 19.8564 4.40250   9
   2   0  26 29.0933 4.99363   2
   0  -2 -26 27.3002 4.67242  12
  -2   2 -26 10.3679 5.73597   6
  -2   2 -26 21.6729 4.39962  11
   2   0 -26 37.1357 4.76025  11
   0  -2 -26 34.2466 4.45681   4
  -2   0  26 28.9296 4.07116   5
   0   2 -26 26.8562 3.83161  11
   2  -2 -26 23.1265 6.83190   6
   0   2 -26 41.8493 6.23086   6
   0   2  26 23.3851 4.20164   3
   2   0 -26 25.7706 5.26644   6
   2  -2 -26 29.9682 3.73657   9
   0  -2  26 33.8788 4.81816   5
  -2   2  26 17.4925 4.92480   3
  -2   2  26 20.6292 4.13610  11
   0  -2  26 26.7545 2.68900   9
   0  -2 -26 31.9153 5.21808  11
  -2   0 -26 32.9301 3.66955   4
  -2   0 -26 28.0922 7.05765   6
  -2   0  26 32.3618 5.77478   3
   2   0  26 26.2513 5.10823   8
   0  -2 -26 17.7193 7.01053   6
   2  -2  26 26.0221 5.04946   8
   2  -2  26 20.8375 3.84612  11
   0   2  26 20.5678 5.37888  10
  -2   0 -26 27.3199 4.66658  12
   0  -2  26 29.7535 3.69237  11
   2   0  26 29.8741 4.91782  10
   2   0  26 25.9399 4.30737  11
  -2   0  26 25.3049 4.79297  10
  -2   0 -26 36.3379 4.28005   3
  -2   2 -26 30.1711 5.36026   3
   0   2  26 24.7992 4.47503   8
   2  -2  26 20.5030 3.97541   5
   0   2  26 27.7422 3.95555  11
   2  -2  26 24.8846 4.15314   2
   2  -2 -26 23.9606 4.48841  11
  -2   2  26 15.4041 5.20012   8
   1   2  26 527.063 18.8000   2
   1   2  26 519.583 19.4896  10
   3  -1  26 555.024 18.8505  11
   1   2  26 525.075 17.3324  11
   3  -1  26 549.525 19.1803   2
   3  -2 -26 522.406 19.8880   6
  -2  -1 -26 507.924 19.0301  12
  -3   1  26 544.424 18.3715  10
  -2  -1 -26 523.820 24.5760   6
  -1   3 -26 554.929 17.0275  11
   2  -3  26 531.300 17.3239  11
   1   2  26 515.272 19.2402   8
  -1   3 -26 530.325 21.4700   6
  -3   2 -26 529.396 19.8249   3
   3  -1  26 520.826 14.5252   5
  -3   2 -26 528.887 20.1081  11
  -3   2 -26 522.267 16.5494  12
   3  -2 -26 536.355 19.1642  11
  -2   3  26 539.402 18.8051   8
   1  -3 -26 508.237 21.5250  11
  -3   1  26 531.956 21.5989   3
   3  -1  26 531.448 19.9590   8
   2  -3  26 501.683 16.2515   9
  -2  -1 -26 529.543 17.2802   4
   2  -3  26 512.509 17.6848   5
   2  -3  26 544.306 19.6741   8
   1  -3 -26 529.898 18.3950   4
   1  -3 -26 550.855 21.1677   6
  -2   3  26 527.996 20.7521  10
  -3   2 -26 537.758 23.4454   6
   2   1 -26 510.598 20.0451   6
   3  -1  26 539.302 18.3487  10
   3  -2 -26 534.011 15.0871   9
   2   1 -26 557.601 16.9625  11
   2   1 -26 535.105 15.8121   2
  -1  -2  26 531.147 17.6768   5
  -1  -2  26 527.036 18.1075   7
  -2  -1 -26 519.333 19.1594  11
  -3   1  26 510.205 18.4925  11
  -2   3  26 509.768 18.1348  11
  -3   1  26 541.995 16.5227   7
  -2   3  26 509.720 20.9314   3
   3  -2 -26 549.030 19.8982   2
   1  -3 -26 543.035 17.8241   9
   1  -3 -26 544.963 18.8543  12
  -3   2  26 598.447 21.0924  10
   2   1  26 588.698 19.4136  11
  -2   3 -26 577.451 21.6128   3
  -3   1 -26 618.179 19.4378  12
  -2   3 -26 610.993 23.6420   6
   2   1  26 602.142 20.6043   2
   1  -3  26 606.654 17.0332   9
  -3   2  26 604.045 16.4250   7
   3  -1 -26 624.493 15.5964   9
  -1   3  26 595.136 20.8874   3
  -2  -1  26 598.036 19.0360   5
   1  -3  26 618.404 19.9977   5
  -2  -1  26 604.289 18.5407  10
   2  -3 -26 589.019 20.1543   4
   1   2 -26 597.255 22.0735   6
   1   2 -26 608.622 17.4473  11
   3  -2  26 598.304 19.9767   2
   3  -1 -26 601.622 21.9159   6
   3  -2  26 619.586 22.2779   8
  -2   3 -26 612.352 20.2223  11
   3  -2  26 607.470 20.2750  11
   3  -2  26 621.036 17.6741   5
  -3   2  26 623.583 18.0524   8
  -1   3  26 603.238 22.5111  10
  -1  -2 -26 593.987 21.4760  12
  -3   1 -26 630.202 22.2660  11
   2  -3 -26 596.498 20.6458  11
  -3   1 -26 601.342 25.9516   6
  -2  -1  26 599.699 19.4803   7
   2  -3 -26 592.636 21.7158   6
   2   1  26 586.514 21.3421   8
   2  -3 -26 594.359 18.3207   9
  -1  -2 -26 601.943 19.3166   4
  -1  -2 -26 595.264 25.3586   6
  -1  -2 -26 615.109 20.5455  11
   3  -1 -26 603.361 20.9104   2
  -1  -2 -26 587.851 17.3876   7
  -3   2  26 606.362 20.7952  11
   2   1  26 564.089 19.7029  10
  -1   3  26 612.689 20.9813   8
   3  -1 -26 605.612 20.3030  11
  -3   2  26 591.999 23.1954   3
   0  -3 -26 506.762 21.3455   6
   3  -3 -26 507.190 19.2276  11
  -3   0 -26 492.429 20.3028  11
   3   0  26 508.980 18.1087  11
  -3   3  26 515.602 18.8409  11
  -3   3 -26 508.794 22.7781   6
   3  -3  26 477.402 19.6424   8
   0  -3 -26 496.658 18.0288   4
   0   3  26 494.155 16.8791  11
  -3   0  26 494.088 17.5799  11
   3   0  26 513.407 20.0391   8
  -3   3  26 540.031 22.4632   3
  -3   0  26 496.737 16.2568  10
  -3   0 -26 490.941 23.9324   6
   3   0 -26 496.687 17.3313  11
   0  -3  26 486.863 16.0594   9
  -3   0 -26 516.149 16.7753   4
   3   0 -26 498.671 18.3685   2
   3   0 -26 500.664 20.2151   6
   0  -3 -26 481.767 18.2663  11
   0   3  26 491.976 16.3104   3
  -3   3 -26 484.441 20.8454   3
   0   3 -26 478.782 20.3244   6
   0   3 -26 486.187 14.5068  11
   3  -3  26 505.317 16.9572   9
   3   0  26 462.480 18.8614   2
  -3   0  26 505.031 21.2742   3
   0   3  26 496.465 19.9276  10
   0  -3 -26 512.906 18.5822   9
   3  -3  26 484.668 17.0627   2
   3  -3  26 478.434 16.6347   5
  -3   3 -26 525.728 19.8056  11
  -3   3  26 484.354 20.6511  10
   3  -3  26 476.386 17.8587  11
  -3   3  26 475.902 17.6043   8
  -3   0 -26 482.387 18.3600  12
   3  -3 -26 490.443 15.9751   9
   3   0  26 497.413 17.3734  10
  -3   0  26 484.935 16.9733   5
   0  -3  26 481.309 17.7581   5
   0   3  26 486.958 19.3437   8
   3  -3 -26 484.690 22.0932   6
  -3   0  26 491.397 17.0156   7
   0  -3 -26 497.991 19.0500  12
   2  -4  26 661.126 23.1296   5
   4  -2  26 690.647 26.0754   8
   4  -2 -26 667.682 25.5205   2
  -2  -2 -26 699.878 24.7917  12
   2  -4 -26 667.268 22.5426   9
   2  -4 -26 701.857 22.3151  12
   4  -2  26 709.267 25.1948   2
   2  -4 -26 678.342 24.5293  11
   2   2  26 682.724 25.4260   8
   4  -2 -26 681.905 20.0745   9
   4  -2 -26 703.678 25.3814   6
  -2  -2 -26 688.040 30.5072   6
  -4   2 -26 651.062 25.6828   3
   2   2  26 668.420 22.9870  10
  -2  -2  26 674.563 22.7667   7
  -2   4 -26 725.010 27.3068   6
  -2   4  26 696.952 24.7784   8
   2  -4  26 685.754 21.6602   9
   2   2 -26 694.467 25.6915   6
  -4   2 -26 688.709 21.1872  12
  -2   4 -26 670.166 26.1747   3
  -2  -2 -26 685.214 22.8511   4
   2   2  26 690.852 22.0030  11
  -2  -2 -26 664.973 21.3815   7
  -4   2 -26 691.311 26.4689  11
  -2   4  26 707.493 26.4775   3
  -4   2  26 717.090 28.0628   3
  -4   2 -26 708.543 29.3934   6
   2   2  26 701.394 25.0180   2
   4  -2 -26 676.027 23.9909  11
  -4   2  26 700.521 24.1206  10
  -2   4  26 674.563 22.6079  11
   2   2 -26 684.799 19.1631  11
  -2   4 -26 682.658 21.6566  11
   2  -4 -26 682.405 24.0058   4
   4  -2  26 694.556 24.3001  11
  -4   2  26 719.532 20.3909   7
  -4   2  26 699.156 24.8459  11
  -2  -2  26 658.823 22.5756   5
  -2   4  26 694.667 27.0155  10
   3  -4  26 308.492 14.2705   5
   3   1 -26 262.159 16.0787   6
  -3  -1 -26 283.885 21.3891   6
  -4   3 -26 324.919 20.8275   6
  -3  -1 -26 270.471 14.0389   4
  -3  -1 -26 280.792 13.9410   7
  -1   4 -26 267.697 18.0796   6
   4  -1  26 267.009 15.8876   8
   1  -4 -26 269.785 14.2698   9
   1   3  26 296.661 15.5246  10
  -3  -1 -26 271.632 17.2114  11
   3   1 -26 278.370 12.2841  11
  -4   1  26 268.397 12.7450   5
  -3   4  26 292.032 15.1881   8
  -1   4 -26 270.504 16.4275   3
  -4   1  26 281.640 15.5468  11
   4  -3 -26 259.903 16.9362   2
   3  -4  26 286.277 13.0534   9
  -4   1  26 267.261 13.0676   7
  -3   4  26 282.810 18.1147   3
   4  -3 -26 262.303 15.5374  11
   1   3  26 250.134 14.6999   2
  -4   3 -26 264.748 17.5093   3
   4  -1  26 303.595 14.9986  11
   1  -4 -26 268.345 14.1959  12
  -1  -3  26 276.680 14.0280   5
   4  -3 -26 270.683 16.8597   6
  -1  -3  26 273.161 13.8561   7
  -3  -1 -26 280.741 15.6330  12
  -3   4  26 284.258 17.8276  10
   4  -3 -26 272.970 11.8826   9
   1   3  26 301.019 16.2071   8
  -1   4 -26 263.719 9.95732  11
  -4   3 -26 303.649 16.8584  11
  -3   4  26 248.348 13.8307  11
   4  -1  26 280.456 16.2584   2
   1  -4 -26 265.811 14.4013   4
   1   3  26 256.957 12.1965  11
  -4   1  26 277.253 17.9255   3
   4  -1 -26 258.235 13.7226  11
   4  -3  26 259.587 16.4668   8
  -4   3  26 243.899 15.1598  11
  -1   4  26 242.460 16.8777  10
   3  -4 -26 253.481 14.0444   4
  -4   3  26 260.773 13.5055   8
   3   1  26 270.021 13.2040  10
  -1   4  26 279.873 15.8951   8
   3  -4 -26 256.506 15.5795  11
   4  -3  26 266.948 11.8344   5
   3   1  26 260.588 13.1767  11
  -4   1 -26 281.485 14.0239  12
  -1   4  26 265.565 15.4714   3
  -4   1 -26 251.292 19.3718   6
   1  -4  26 235.236 13.5942   5
   3   1  26 242.567 15.2746   8
   4  -3  26 264.024 16.0743   2
   4  -3  26 274.056 15.1849  11
  -4   1 -26 229.498 16.4488  11
   1  -4  26 260.457 12.8549   9
  -3   4 -26 273.787 17.5598   3
   4  -1 -26 278.059 16.9736   6
  -1  -3 -26 243.822 15.2588  12
   1   3 -26 261.030 15.7758   6
  -4   3  26 249.014 18.1397   3
   3  -4 -26 254.574 12.8492   9
  -3   4 -26 269.500 14.0579  11
  -3   4 -26 244.088 17.6426   6
  -3  -1  26 253.335 12.6035   5
  -4   3  26 275.865 17.2202  10
  -1  -3 -26 248.239 18.2111   6
   4  -1 -26 258.844 16.1739   2
  -1   4  26 268.837 12.5157  11
   3   1  26 262.175 15.5404   2
  -1  -3 -26 258.559 13.5781   4
  -3  -1  26 268.511 13.4750   7
   0   4 -26 245.777 17.2437   3
  -4   0 -26 202.203 14.2069   7
   4   0  26 215.007 16.8797   2
   4   0 -26 238.830 16.3411   2
   0  -4 -26 199.323 19.8329   9
   0  -4 -26 216.141 14.5866  12
   4  -4 -26 239.680 16.1145  11
   0   4  26 243.833 17.0152  10
   4   0 -26 218.938 16.3452   6
   0  -4 -26 233.307 14.6496   4
   4  -4  26 250.194 13.2298   9
   4   0 -26 180.324 16.1596  11
  -4   4  26 241.022 15.6417   8
  -4   4  26 207.327 20.2862  10
  -4   4  26 233.533 15.0714  11
  -4   0  26 222.309 13.0059   5
  -4   0  26 232.618 13.3209   7
   4  -4  26 238.283 12.9920   5
   0   4 -26 226.263 17.3906   6
  -4   4 -26 250.401 19.0569   6
   4  -4  26 257.841 18.1004  11
   0  -4  26 211.086 13.9771   5
   0   4  26 240.370 11.4714  11
   0   4  26 223.015 15.5405   8
  -4   4 -26 221.233 15.4539  11
   4   0  26 202.392 15.4384   8
  -4   0 -26 208.673 17.6676  11
   4   0  26 219.646 13.6348  11
   4  -4 -26 239.029 12.9866   9
  -4   0 -26 218.621 14.4461  12
  -4   4  26 258.027 20.0011   3
  -4   4 -26 212.201 20.2098   3
   4  -4  26 219.271 16.2905   8
   5  -2  26 295.166 17.5253  11
  -3  -2 -26 269.794 15.7546   7
  -2   5 -26 290.147 21.1931   3
  -3  -2 -26 306.008 17.6783   4
   2   3  26 294.735 13.6948  11
   5  -3 -26 245.511 19.7811   2
   5  -2  26 263.402 18.9003   8
  -3  -2 -26 306.734 18.7629  12
  -5   2  26 286.347 21.7445   3
  -3   5  26 261.756 21.2229  10
  -3   5  26 303.938 19.1556   8
  -3   5  26 273.598 15.2724  11
   5  -3 -26 314.321 21.5470   6
  -5   3 -26 291.679 23.7499   3
   3   2 -26 286.618 18.7833   6
  -2  -3  26 308.248 16.4013   5
  -2  -3  26 310.382 16.4485   7
   2   3  26 290.375 18.8957   2
   5  -2  26 318.299 21.3366   2
   2   3  26 288.611 18.6916   8
   2  -5 -26 299.558 17.0935   9
  -5   3 -26 307.394 19.9022  11
   5  -3 -26 304.680 18.0781  11
  -5   2  26 293.201 19.3613  11
   2  -5 -26 271.507 16.8985   4
   3  -5  26 286.028 16.3378   9
  -3   5  26 279.460 21.1410   3
  -5   3 -26 282.816 23.7699   6
   3  -5  26 296.961 16.5548   5
  -3   5 -26 243.773 20.0487   3
  -2  -3 -26 275.842 17.7006  12
   2  -5  26 242.084 15.8561   5
  -2   5  26 254.385 18.6372   8
  -3  -2  26 274.933 15.4045   7
   5  -3  26 245.538 17.3912  11
   3   2  26 251.643 13.5344  11
  -2   5  26 240.189 13.5353  11
  -2   5  26 273.235 19.4682   3
  -5   3  26 262.208 21.4299   3
  -2  -3 -26 231.675 15.6522   4
  -3  -2  26 276.085 15.9425   5
  -5   2 -26 299.032 20.1899  11
   5  -3  26 205.602 22.1496   2
  -5   3  26 247.672 17.8056  11
   5  -2 -26 247.631 20.0559   2
   3   2  26 265.313 18.3690   8
   2  -5  26 272.804 16.0604   9
  -2   5  26 240.711 20.0283  10
   3  -5 -26 267.820 15.7305   9
   2   3 -26 234.230 18.1030   6
   5  -2 -26 273.602 18.9168   6
   3   2  26 271.785 18.1816   2
   5  -2 -26 265.964 16.1673  11
   5  -3  26 252.111 18.4690   8
  -3   5 -26 260.679 13.9544  11
   3  -5 -26 268.555 16.6048   4
  -5   1  26 -4.7250 10.6029   3
   4  -5  26 5.75208 7.52751   9
  -4   5  26 2.40129 12.3138   3
   1   4  26 0.74410 11.3405  10
   1   4  26 1.91487 9.17895   8
   4   1 -26 5.72442 9.29961   6
   5  -1  26 -2.5578 9.31176   8
  -1  -4  26 6.62731 7.13559   7
   5  -4 -26 7.45263 8.25482  11
   1   4  26 35.5497 9.25952   2
  -1   5 -26 6.57907 10.9138   3
   1   4  26 18.4600 5.68913  11
   1  -5 -26 29.7155 9.24172   4
   4   1 -26 8.21455 5.91520  11
  -4   5  26 24.2723 9.84750   8
  -5   1  26 15.1999 7.56840   7
  -5   4 -26 27.8195 13.4620   3
   5  -1  26 24.0541 11.0006   2
   5  -1  26 8.90073 6.93753  11
  -4   5  26 11.6708 6.92882  11
   1  -5 -26 0.08642 7.87177   9
   1  -5 -26 17.6422 9.23186  12
  -5   4 -26 12.7935 8.88861  11
  -4   5  26 4.66913 11.4606  10
  -1  -4  26 10.5384 7.93785   5
  -4  -1 -26 12.6250 9.32308   4
  -4  -1 -26 4.15455 7.59762   7
  -4  -1 -26 15.9354 8.98147  12
   4  -5  26 16.9814 8.46713   5
   5  -4 -26 19.0887 11.1011   2
   4   1  26 34.1278 10.0039   2
   5  -1 -26 30.4283 7.53355  11
   1  -5  26 31.8907 9.02585   5
  -5   1 -26 30.4010 8.58090  12
   4   1  26 39.9978 10.4865   8
  -1   5  26 39.3611 11.6391  10
   5  -1 -26 46.8714 11.1907   6
  -5   4  26 32.3153 8.75574  11
  -1   5  26 36.7491 6.69930  11
   5  -1 -26 52.7146 11.9763   2
  -4   5 -26 10.8488 12.2481   3
   5  -4  26 23.6101 9.76916   8
   4   1  26 19.0041 6.64079  11
   5  -4  26 33.3538 9.84255  11
   4  -5 -26 27.7994 8.67936   9
   1   4 -26 40.6861 12.0031   6
  -1  -4 -26 31.7462 9.17363  12
  -5   1 -26 20.3856 8.29425   7
   5  -4  26 31.3836 8.07819   9
  -4  -1  26 36.3566 8.38163   7
  -1   5  26 27.9986 9.95069   8
  -5   4  26 15.4844 12.5093   3
   4  -5 -26 23.2077 8.58647   4
  -5   4  26 18.8885 12.4488  10
  -4   5 -26 30.1921 8.20773  11
  -1  -4 -26 26.2384 8.88052   4
   1   4 -26 33.0137 10.2924   3
  -5   1 -26 16.3775 11.7084  11
   0  -5 -26 23.0661 10.3356  12
   0   5 -26 12.7319 11.8399   3
  -5   5  26 11.4265 9.35012  11
  -5   5  26 48.2826 14.9539  10
  -5   0 -26 22.9502 10.3854  12
   5   0 -26 34.9303 8.05563  11
  -5   5 -26 28.9518 9.24121  11
   0  -5 -26 16.7812 9.81516   4
   0   5  26 21.6506 10.4383   2
   5   0  26 46.1660 12.1526   8
   5   0 -26 40.3492 12.4199   6
   0  -5 -26 26.0803 11.0565   9
  -5   0 -26 39.5027 10.0171   7
   5   0  26 18.6274 12.3944   2
  -5   5  26 63.7205 12.3169   8
  -5   0  26 23.6165 9.59933   7
   5  -5 -26 36.8966 12.1736  11
   5  -5 -26 39.0529 9.85049   4
   5  -5 -26 32.4632 9.48232   9
  -5   5 -26 45.1311 15.8450   3
   0   5  26 34.1103 11.4461   8
   0   5  26 45.2546 13.3545  10
   0  -5  26 14.3672 10.1152   5
   5  -5  26 25.9268 8.90448   9
  -5   5  26 39.5193 14.7732   3
   5   0  26 27.1197 8.40715  11
  -3  -3 -26 28.8336 11.5746  12
   3   3  26 23.5305 11.9115   2
  -3   6 -26 23.2340 14.9610   3
  -6   3  26 26.2979 12.0134  11
   3   3  26 7.89740 11.8765   8
   6  -3 -26 13.0336 9.83329  11
   6  -3  26 18.6881 15.1720   2
   3  -6 -26 15.9442 10.8881   4
   3   3  26 25.2113 7.42660  11
   3   3 -26 21.4983 11.6380   6
  -3   6  26 3.48853 13.9926  10
   3  -6  26 3.43470 10.4646   5
  -3  -3 -26 22.4705 10.4660   4
   3  -6 -26 1.15554 10.0907   9
  -6   3 -26 4.68339 9.62414   7
  -3  -3  26 21.4136 9.24606   7
   6  -3  26 8.46417 9.20213  11
  -6   3 -26 21.1534 11.6056  11
   6  -3  26 19.1030 12.2602   8
   6  -3 -26 3.13324 13.5256   2
  -3   6  26 23.8915 11.6038   8
  -6   3  26 -10.989 14.3198   3
   0   0  27 5.94663 1.60431   9
   0   0  27 0.66554 2.41643   5
   0   0 -27 3.82819 3.72990   6
   0   0  27 1.14862 2.12967  11
   0   0 -27 1.50426 2.39149  11
   0   0  27 2.03549 2.34595   8
   0   0  27 0.95828 3.00633  10
   0   0 -27 -0.8590 1.70399   4
   0  -1  27 105.295 6.43371   5
  -1   1 -27 104.452 3.43442   4
   1   0 -27 95.0837 8.09954   6
  -1   0  27 96.0142 5.28405   8
   1  -1  27 95.8628 5.93254   5
  -1   1 -27 99.5956 9.49812   6
  -1   1 -27 94.0110 6.67631  11
  -1   1  27 104.077 6.17104   8
  -1   1  27 92.7112 7.50999  10
  -1   1  27 87.9331 7.22817   3
  -1   0 -27 90.8108 6.92966   4
   1  -1  27 104.820 6.36647  11
   0   1 -27 90.4933 8.53758   6
   1  -1 -27 92.0321 6.71720  11
  -1   0  27 91.5805 6.16511  11
   0  -1  27 97.0330 5.67103   8
   0  -1 -27 100.852 5.75860   4
   0  -1 -27 112.903 10.3635   6
   0  -1  27 97.2607 5.81141  11
   0  -1  27 94.8494 6.97741  10
   0   1 -27 103.199 6.33644  11
   1  -1  27 91.8099 6.73772  10
   0   1  27 101.754 7.92364  10
   1  -1 -27 92.8323 4.48732   9
   1   0  27 99.8534 5.84280   2
   1   0 -27 85.6712 6.21131  11
   1  -1  27 93.1259 4.93704   2
   0  -1 -27 101.902 7.58853  11
   1   0  27 95.8659 5.63185   5
  -1   1  27 103.478 6.69944  11
  -1   0 -27 90.3934 9.86605   6
   1   0  27 99.2023 6.47924  11
   1  -1 -27 101.766 9.29329   6
   1  -1  27 102.467 7.28847   8
   0   1  27 101.266 7.56548   8
  -1   0  27 98.9214 7.52708  10
  -1   0  27 101.038 6.30521   5
  -1   0 -27 105.496 7.24596  11
   1   0  27 109.788 7.46836  10
   0   1  27 93.9863 6.28349  11
   1   0  27 98.2069 7.14146   8
  -1   2  27 36.1481 5.63090   3
  -1  -1  27 42.4965 4.86149  11
  -2   1  27 27.2394 4.39500  11
  -1   2 -27 29.7073 6.16960   6
   2  -1  27 29.5870 5.20292   8
  -1  -1 -27 43.8269 5.97981  11
   1   1  27 33.8646 4.79214   2
  -2   1  27 31.5989 3.72660   8
   1  -2  27 40.1311 5.32207   8
   1   1 -27 35.7467 4.28099  11
  -2   1 -27 32.5493 6.88422   6
  -1  -1  27 36.7335 4.87052  10
   1  -2 -27 43.1549 5.90314  11
  -1  -1  27 29.1957 4.09673   5
  -1  -1 -27 32.2751 4.14288   4
  -1  -1 -27 32.6013 8.03443   6
   2  -1  27 27.4350 4.20823   2
   2  -1 -27 27.6935 4.20262  11
  -2   1  27 25.7132 5.96420   3
   2  -1 -27 45.4132 5.44163   2
  -1   2 -27 35.0640 4.62796  11
   1   1  27 32.4665 5.16410  10
   2  -1 -27 34.8036 2.71980   9
  -1  -1 -27 35.0407 5.16772  12
   2  -1 -27 25.8886 5.55756   6
   2  -1  27 33.2658 4.70077  11
  -1  -1  27 33.4855 4.40669   7
   1  -2  27 29.4817 3.67948   9
   1  -2 -27 36.2134 4.55379   9
   2  -1  27 33.0392 3.98682   5
   1  -2  27 36.7744 4.87097  11
   1  -2 -27 33.4908 4.64338   4
   1  -2  27 34.8143 4.52994   5
   1   1  27 41.0474 4.91138  11
  -2   1 -27 36.3778 3.10060   4
   1   1 -27 30.0552 5.69803   6
   1   1  27 23.7611 4.88314   8
  -1   2  27 34.9926 6.02429  10
  -1   2  27 26.6505 4.26300  11
   2  -1  27 37.5754 5.00560  10
  -2   1  27 30.5469 3.65951   7
  -1   2  27 26.4218 4.66265   8
  -2   1  27 24.3252 5.36768  10
  -2   1 -27 28.5414 4.81098  11
  -2   2 -27 545.823 22.3045   6
   0  -2  27 554.148 16.1361  11
  -2   0  27 557.382 20.5191   3
  -2   0  27 537.820 17.0492   5
   2  -2  27 543.506 16.6780   5
   0   2 -27 548.847 16.6744  11
   0  -2 -27 552.564 22.7142   6
   0   2  27 562.127 17.6199  11
   2  -2  27 534.907 18.9515   8
   2  -2 -27 515.973 18.3113  11
   2   0 -27 551.700 16.4310   2
   0  -2 -27 493.005 19.9803  11
   2  -2 -27 567.632 20.7140   6
   2   0 -27 560.313 17.8087  11
  -2   2 -27 556.299 18.9495  11
   0  -2 -27 547.241 17.5076   9
  -2   0 -27 563.241 18.4529  12
   2   0 -27 523.728 19.8599   6
   0   2  27 507.808 19.9415   8
  -2   2  27 551.945 18.3168  11
   2   0  27 547.145 15.0030   5
  -2   0  27 527.749 17.5269  10
   2  -2  27 550.020 15.7867   2
  -2   2  27 537.519 17.2194   8
   2   0  27 540.060 17.9228  11
   0   2  27 509.141 18.9151  10
  -2   0  27 563.095 17.4157  11
   0   2 -27 541.477 20.5746   6
  -2   2  27 527.421 20.2213   3
   0  -2 -27 527.796 17.0714   4
   0  -2 -27 533.068 18.6144  12
  -2   0  27 535.733 16.6816   7
   0  -2  27 533.602 17.6280   5
   2   0  27 542.575 18.3655  10
   2   0  27 550.597 17.9568   2
  -2   0 -27 544.551 23.4756   6
   2   0  27 524.020 18.8802   8
  -2   2  27 569.303 19.7185  10
   0   2  27 535.227 17.0739   3
  -2   0 -27 531.015 19.1213  11
  -2   0 -27 537.419 15.5243   4
   2  -2 -27 565.415 15.2643   9
   3  -1  27 125.655 10.0883   2
   1  -3 -27 134.277 9.50869  12
   3  -1  27 124.061 9.21708  11
  -2  -1 -27 154.451 15.4979   6
  -3   2 -27 117.807 10.9518   3
  -1   3 -27 129.933 8.06751  11
   3  -1  27 140.770 9.28685  10
   3  -2 -27 137.559 10.6640   2
  -3   1  27 134.391 9.79274  10
   1  -3 -27 121.320 8.64841   9
  -2  -1 -27 116.675 9.65804  12
  -1   3 -27 122.826 12.1048   6
  -1  -2  27 131.768 8.32316   5
   2  -3  27 127.874 8.53002  11
   1   2  27 142.221 8.23437  11
  -2   3  27 136.723 9.76355   8
   1   2  27 119.514 9.42835   2
   3  -2 -27 126.525 11.1812   6
  -2  -1 -27 136.166 8.76983   4
  -3   1  27 140.901 12.1819   3
   2   1 -27 117.728 7.59957  11
  -3   2 -27 124.253 7.73514  12
  -1  -2  27 112.055 8.74948   7
  -3   2 -27 156.082 14.5232   6
  -3   1  27 133.887 7.90136   7
   2  -3  27 132.988 8.73166   5
  -2   3  27 128.330 11.6934   3
   2  -3  27 114.366 10.2308   8
  -2   3  27 131.925 11.3355  10
   1   2  27 136.117 9.93738   8
   2  -3  27 126.253 7.96918   9
   1  -3 -27 132.728 8.94841   4
   1  -3 -27 130.868 13.9001   6
  -3   2 -27 123.510 10.2923  11
   1  -3 -27 130.462 9.86981  11
   3  -1  27 130.133 6.24004   5
   1   2  27 120.709 9.97954  10
   2   1 -27 133.393 7.90931   2
   2   1 -27 115.695 10.2540   6
   3  -1  27 127.175 10.3831   8
   3  -2 -27 125.187 6.40780   9
  -3   1  27 130.697 9.51717  11
   3  -2 -27 131.920 9.83395  11
  -2   3  27 115.877 8.41902  11
  -2  -1 -27 146.448 10.6100  11
   1  -3  27 90.8361 6.15359   9
   2   1  27 93.9776 9.04949   2
  -2  -1  27 94.5988 7.75582   7
   2   1  27 89.4341 7.38817  11
  -3   1 -27 83.6717 7.58790  12
   3  -1 -27 100.262 10.7699   6
  -2   3 -27 105.036 12.2848   6
   3  -1 -27 95.3650 8.09580  11
  -1  -2 -27 100.432 7.71775   4
   1  -3  27 90.4707 7.33609   5
  -3   1 -27 99.5187 10.1153  11
  -3   2  27 85.8131 10.4552   3
  -3   2  27 94.9404 7.22100   8
  -2  -1  27 86.8398 7.44977   5
  -3   2  27 88.3823 5.99455   7
  -1  -2 -27 91.4303 11.6246   6
  -3   1 -27 86.8098 11.7190   6
  -1   3  27 94.9725 10.2558  10
   3  -1 -27 88.4655 9.52062   2
   2  -3 -27 84.6164 8.84180  11
   1   2 -27 97.2241 10.3631   6
   1   2 -27 88.0922 6.27112  11
   2  -3 -27 95.4232 7.09011   9
   2   1  27 91.7526 9.17364   8
  -3   2  27 100.124 9.13734  11
   3  -2  27 87.9865 6.49481   5
   2  -3 -27 101.116 8.33484   4
  -2   3 -27 90.6044 8.28887  11
   2   1  27 89.4938 8.73948  10
   3  -2  27 86.9589 9.20101   2
   2  -3 -27 93.2843 10.2780   6
   3  -2  27 92.1701 9.57323   8
  -2   3 -27 89.9937 9.69321   3
  -1   3  27 94.4673 9.44342   3
   3  -2  27 94.1420 8.30951  11
  -1  -2 -27 88.7662 6.63785   7
  -1  -2 -27 96.9412 10.8848  11
  -1  -2 -27 90.4779 9.10922  12
  -3   2  27 88.7550 10.0801  10
  -1   3  27 88.2842 8.96049   8
  -3   1 -27 84.4628 9.55948   3
  -3   0  27 1677.42 47.7214   3
  -3   3 -27 1642.74 47.3224   3
   3  -3 -27 1719.10 45.5377  11
   3   0  27 1670.12 44.2925  11
   3  -3 -27 1688.54 45.9090   6
  -3   3  27 1623.39 48.7126   3
   3   0  27 1676.63 45.2783   2
   3   0  27 1593.07 45.7412   8
  -3   3  27 1750.05 47.2818  10
  -3   0 -27 1642.80 44.4203  12
   3  -3  27 1762.02 44.2137  11
   0   3  27 1673.70 46.3541  10
  -3   0 -27 1679.32 51.9370   6
  -3   3 -27 1693.52 49.6106   6
   0   3 -27 1705.91 47.5850   6
   3   0 -27 1650.95 46.4388   6
   3  -3  27 1681.06 42.1827   9
   3  -3  27 1652.87 46.2824   8
  -3   3  27 1701.27 43.4010   8
  -3   0 -27 1738.52 42.0214   4
   0  -3 -27 1679.85 45.5626  12
   3   0 -27 1676.49 43.4763   2
  -3   0  27 1639.09 43.0827  11
   0   3  27 1648.00 42.8018  11
   0   3  27 1724.04 48.4826   3
   0   3  27 1647.59 45.7220   8
   0   3 -27 1704.52 40.0928  11
   0  -3 -27 1674.09 43.8156   4
  -3   3  27 1692.45 45.0448  11
  -3   0  27 1587.61 41.3877  10
   0  -3 -27 1645.56 47.1858   6
   0  -3 -27 1695.46 44.4727  11
   3  -3  27 1699.90 42.5978   5
  -3   3 -27 1702.08 45.9506  11
   0  -3  27 1670.04 44.0806   5
   3  -3  27 1627.51 41.9681   2
  -3   0 -27 1628.12 46.0874  11
  -3   0  27 1676.35 42.8049   7
   3  -3 -27 1711.61 41.3329   9
   0  -3 -27 1686.69 44.7198   9
   3   0 -27 1688.09 43.4238  11
  -3   0  27 1650.89 43.8261   5
   3   0  27 1655.33 43.1875  10
   2  -4 -27 37.7795 7.12138   4
  -2   4  27 41.0097 7.72820   8
   2  -4 -27 45.9996 6.83768  12
   4  -2  27 26.1736 6.29386  11
   2   2 -27 36.2543 4.74067  11
  -4   2  27 35.3432 8.15183  10
  -2  -2  27 19.4913 6.14012   5
   4  -2  27 33.7208 8.50622   2
  -4   2 -27 36.9409 9.72126   3
   4  -2 -27 40.6358 8.60736   2
  -4   2  27 26.7928 9.14405   3
  -4   2  27 40.8386 5.48071   7
  -2  -2  27 46.8116 6.75310   7
   2   2 -27 30.3186 8.02714   6
  -2   4 -27 23.5215 9.53325   6
   2  -4 -27 33.0957 8.97849  11
  -4   2 -27 35.9746 5.98896  12
  -2   4  27 37.4436 6.01213  11
   2   2  27 38.2283 5.84381  11
  -2  -2 -27 34.6943 7.43716  12
   2  -4  27 34.1256 6.46951   5
   2  -4  27 27.5335 6.18456   9
   4  -2  27 27.1035 7.50986   8
  -4   2 -27 24.0261 7.15409  11
  -2   4 -27 40.5348 5.92777  11
   4  -2 -27 28.2841 6.43190  11
  -2  -2 -27 37.3012 11.2843   6
   2   2  27 41.5242 7.32922  10
  -2  -2 -27 24.6926 5.81420   7
  -2  -2 -27 28.6527 6.55096   4
   2   2  27 36.8608 7.57473   2
  -4   2  27 26.7492 7.09164  11
   4  -2 -27 36.7916 8.65707   6
  -2   4  27 30.8314 9.06886   3
  -2   4 -27 38.2129 8.36754   3
  -2   4  27 41.7883 9.51997  10
   2   2  27 44.4594 8.28417   8
  -4   2 -27 47.9497 10.6145   6
   2  -4 -27 31.5054 6.26848   9
  -3   4  27 525.426 23.7354  10
  -3  -1 -27 537.382 21.8027  12
   4  -1  27 516.336 22.4639   2
   1   3  27 508.454 21.4080   2
   1   3  27 525.388 21.3985  10
  -1   4 -27 524.918 15.6963  11
  -4   1  27 562.247 18.7627   7
  -3  -1 -27 530.662 23.0785  11
   4  -3 -27 540.903 21.9372  11
  -4   1  27 538.000 24.1198   3
   4  -1  27 507.716 20.3246  11
   3  -4  27 505.574 18.7089   9
   1  -4 -27 527.460 20.4633  12
   3  -4  27 524.788 19.5289   5
  -3  -1 -27 482.184 27.1657   6
   1  -4 -27 527.203 20.3881   9
  -3  -1 -27 531.929 19.6527   7
   4  -3 -27 557.950 23.2102   2
  -4   1  27 523.377 21.0950  11
   4  -3 -27 528.663 17.3439   9
  -4   3 -27 505.646 25.8769   6
   1   3  27 536.579 22.3503   8
  -1   4 -27 547.863 23.8029   6
  -3   4  27 505.053 20.1810  11
  -3  -1 -27 498.189 19.2786   4
   1   3  27 518.160 18.2528  11
  -4   3 -27 528.063 22.5750  11
   4  -1  27 520.512 22.2540   8
   3   1 -27 549.184 18.2272  11
  -3   4  27 502.725 24.0457   3
   3   1 -27 523.456 22.7275   6
  -4   1  27 538.156 18.9445   5
  -3   4  27 545.129 21.1212   8
  -1  -3  27 506.473 19.8585   5
  -4   3 -27 544.574 24.5886   3
   1  -4 -27 512.380 20.5429   4
  -1  -3  27 514.606 20.3185   7
   4  -3 -27 549.422 22.5990   6
  -1   4 -27 528.697 22.5615   3
  -1   4  27 502.775 21.3154   8
  -1   4  27 507.059 20.5672   3
   3  -4 -27 500.880 19.8117   4
   4  -1 -27 520.155 21.5187   2
   1   3 -27 489.798 21.7765   6
  -4   3  27 493.268 22.3949  10
   3   1  27 494.874 18.4815  10
  -3  -1  27 497.957 18.6403   5
  -1  -3 -27 497.008 19.3679   4
  -3   4 -27 466.253 23.4930   6
   3   1  27 480.949 21.5177   8
  -4   1 -27 460.037 21.9756  11
   3   1  27 494.079 18.7108  11
  -4   3  27 511.108 24.8598   3
  -1  -3 -27 487.643 20.6794  12
  -4   3  27 494.891 20.9962  11
  -4   1 -27 495.311 19.0785  12
   4  -3  27 498.752 20.5885  11
   4  -1 -27 494.280 21.7541   6
  -1  -3 -27 481.519 24.9675   6
  -1   4  27 503.255 23.4174  10
   3  -4 -27 516.052 21.2054  11
   4  -3  27 499.866 22.5701   8
   4  -3  27 504.394 21.3767   2
  -1   4  27 504.150 18.1763  11
   4  -3  27 501.734 17.1257   5
   3   1  27 484.592 21.5151   2
  -3   4 -27 500.711 19.6890  11
  -4   3  27 517.380 18.7057   8
  -3   4 -27 488.055 23.1509   3
   1  -4  27 488.660 19.1256   5
   3  -4 -27 477.354 17.9517   9
  -3  -1  27 470.127 18.5963   7
   4  -1 -27 488.071 19.1947  11
  -4   1 -27 496.651 26.3898   6
   4  -4  27 422.936 17.9685   5
   4  -4  27 447.374 17.8331   9
   4  -4 -27 423.930 18.8535   4
  -4   0  27 420.099 17.4751   5
   0  -4  27 453.752 19.3331   5
   0  -4 -27 384.621 19.9745   9
   4   0 -27 429.029 17.5159  11
  -4   0  27 355.041 22.8817   7
  -4   4 -27 466.079 23.7426   6
   4  -4  27 469.466 21.5954   8
  -4   4 -27 428.645 20.6450  11
   4   0  27 400.103 18.3231  11
  -4   4  27 406.689 30.1479  10
  -4   0 -27 437.201 20.1171  12
   4   0  27 438.752 20.9903   2
   4   0  27 410.022 20.8118   8
   0   4  27 429.974 16.3477  11
   0   4 -27 424.793 22.3747   6
  -4   0 -27 420.137 22.2601  11
   0   4  27 415.969 20.6806   8
  -4   0 -27 443.231 19.5762   7
  -4   4 -27 389.185 22.9651   3
   4   0 -27 445.836 21.6790   6
   4  -4 -27 444.527 21.2682  11
  -4   0 -27 455.402 25.8838   6
  -4   4  27 409.978 24.6977   3
   4  -4 -27 472.487 17.5785   9
   4   0 -27 441.959 21.1251   2
   0   4  27 416.650 21.5658  10
  -4   4  27 423.648 19.5338  11
  -4   4  27 427.085 19.9797   8
   0  -4 -27 408.159 19.3106   4
   3  -5  27 41.4831 8.76605   5
  -5   3 -27 81.7573 15.3871   3
   2   3  27 46.5029 10.1384   2
  -2  -3  27 62.5534 10.0793   5
   2  -5 -27 50.0375 9.33148   9
  -2   5 -27 53.9166 11.4695   3
  -3   5  27 51.3258 10.1104   8
  -5   2  27 45.7440 12.8996   3
   2   3  27 39.6210 9.96690   8
   5  -2  27 72.6164 12.7888   2
   3  -5  27 62.7541 9.84229   9
   5  -3 -27 67.7192 13.0854   6
  -3  -2 -27 75.1428 11.0960  12
   5  -2  27 54.4037 9.61931  11
  -5   3 -27 67.8986 14.7209   6
  -5   3 -27 52.4299 10.6354  11
   2  -5 -27 77.6939 11.1363   4
  -2  -3  27 73.3824 9.71975   7
   5  -2  27 68.3463 11.9941   8
   2   3  27 68.3125 8.98394  11
  -3   5  27 73.0284 12.8152   3
  -5   2  27 51.8534 11.1141  11
   3   2 -27 55.4721 10.4924   6
  -3  -2 -27 56.3098 9.05290   7
  -3   5  27 44.4583 7.58288  11
   5  -3 -27 71.7568 10.7993  11
  -5   2  27 56.4949 9.55109   5
   5  -3 -27 61.1429 11.8769   2
  -3   5  27 70.4606 13.5702  10
  -3  -2 -27 46.5717 9.65675   4
   2   3 -27 35.7052 10.6270   6
   2  -5  27 51.6897 8.89871   5
  -5   3  27 57.4369 10.7085  11
  -3  -2  27 55.8575 9.57843   5
  -2   5  27 40.5193 11.2793   3
   3   2  27 45.3334 10.6768   2
  -5   2 -27 86.6695 12.8845  11
  -2   5  27 49.2895 7.39347  11
   5  -2 -27 56.9648 11.3692   6
   3   2  27 50.2108 10.5463   8
  -3  -2  27 40.8599 7.97426   7
  -2  -3 -27 46.4916 9.78531  12
  -5   3  27 55.8812 12.6130   3
   3  -5 -27 60.0117 9.61218   9
   5  -2 -27 43.1529 8.39911  11
   5  -3  27 50.5628 11.5981   8
  -5   2 -27 52.4420 13.1244   6
  -2   5  27 56.8875 10.1471   8
  -2  -3 -27 48.0153 9.40604   4
   5  -3  27 42.8462 9.39412  11
   3  -5 -27 43.8517 8.91047   4
   5  -2 -27 35.9911 11.6420   2
  -3   5 -27 56.3653 7.98049  11
   3   2  27 60.1934 7.92264  11
  -2   5  27 50.6423 11.9812  10
  -3   5 -27 26.8715 17.9541   3
   1  -5 -27 578.818 25.3829   4
   5  -1  27 644.457 29.0407   2
   1   4  27 617.014 26.5607   2
   5  -1  27 596.569 27.3129   8
  -5   1  27 663.113 23.6855   7
   1   4  27 595.953 27.5213   8
  -4   5  27 586.358 31.1686  10
  -4   5  27 611.576 26.3983   8
  -5   1  27 610.131 28.9024   3
   1   4  27 589.245 20.2288  11
   5  -1  27 632.024 25.4294  11
  -1   5 -27 599.541 28.5618   3
  -1  -4  27 599.575 24.5321   5
   4   1 -27 638.953 21.3551  11
  -4  -1 -27 617.771 26.4298  12
   1  -5 -27 614.717 25.0834  12
   4   1 -27 593.005 27.7711   6
   1  -5 -27 601.585 26.0042   9
   4  -5  27 615.678 23.5387   9
   4  -5  27 583.348 23.6511   5
  -1  -4  27 621.455 24.9488   7
  -4  -1 -27 591.715 24.8534   4
  -4  -1 -27 608.657 24.4727   7
  -4   5  27 555.251 24.4357  11
   1   4  27 642.559 26.2003  10
  -5   4 -27 655.782 31.1757   6
  -5   4 -27 632.933 31.8621   3
  -4   5  27 603.146 29.8017   3
   5  -4 -27 552.262 27.9275   2
   5  -4 -27 568.412 26.4292  11
  -5   4 -27 616.545 27.4980  11
  -5   4  27 566.407 31.3829   3
  -5   4  27 615.066 29.7676  10
   1  -5  27 602.009 25.1093   5
   5  -1 -27 645.990 28.2322   2
  -5   1 -27 647.402 24.6925  12
   4   1  27 603.647 27.5696   8
   5  -4  27 576.129 26.6815   8
   5  -4  27 618.185 26.5940  11
  -1   5  27 574.698 29.2181  10
  -1  -4 -27 628.435 24.9800   4
   4   1  27 600.974 23.2507  11
   4  -5 -27 630.317 24.3317   9
  -5   1 -27 638.579 31.0127  11
  -5   4  27 590.034 26.2669  11
   5  -1 -27 597.701 23.8652  11
  -5   1 -27 548.247 25.2035   7
  -4   5 -27 608.798 24.7777  11
   4  -5 -27 591.603 24.6341   4
  -1   5  27 618.694 21.2284  11
  -4  -1  27 608.926 23.8121   7
  -4   5 -27 581.744 31.2263   3
  -1   5  27 618.037 26.9523   8
   1   4 -27 641.356 28.7901   6
  -1  -4 -27 620.823 26.7282  12
   5  -1 -27 603.660 28.2056   6
   5  -4  27 618.907 23.5646   9
   4   1  27 595.810 27.3273   2
   0  -5 -27 223.835 18.1813   4
   0   5 -27 233.150 22.4012   3
   5   0 -27 161.286 20.9983   6
   0  -5  27 221.497 17.2455   5
   5   0  27 231.334 16.7286  11
   5  -5 -27 274.404 17.3584   9
   5   0  27 217.300 22.3043   2
  -5   5  27 225.988 24.8649   3
  -5   5 -27 256.061 25.9046   3
   0  -5 -27 249.069 19.5095   9
   0   5  27 232.915 20.8673   8
  -5   0  27 236.752 17.0749   7
  -5   5 -27 228.391 18.0430  11
  -5   5  27 195.268 17.7366  11
  -5   0 -27 238.751 18.1665   7
  -5   5  27 266.549 25.6455  10
   0   5  27 213.017 18.1405   2
   0   5  27 252.013 23.0426  10
  -5   0 -27 236.610 19.1768  12
   5  -5 -27 224.516 22.2637  11
   5   0 -27 251.551 16.1782  11
   5  -5 -27 247.794 16.9688   4
   0  -5 -27 246.798 19.4630  12
  -5   5  27 208.536 20.8654   8
   5   0  27 197.583 20.2565   8
   5  -5  27 277.340 16.9201   9
  -3   6  27 37.7288 14.6610  10
   3   3  27 43.8226 8.06123  11
   3  -6 -27 48.7873 11.7516   4
   3  -6 -27 43.0228 11.4420   9
   3   3  27 35.7206 12.6965   2
   3   3  27 26.1497 12.4539   8
   3   3 -27 60.8842 13.4212   6
  -3  -3 -27 48.6603 12.0254   4
   6  -3  27 40.7164 13.7453   8
  -3   6 -27 46.7607 15.8227   3
  -3   6  27 64.7304 13.1598   8
  -3  -3  27 33.5976 10.0094   7
   3  -6  27 64.0728 12.0884   5
  -6   3  27 36.4844 12.5023  11
   6  -3  27 18.9411 15.1851   2
   6  -3 -27 52.2433 15.0587   2
   6  -3  27 42.7946 10.4439  11
  -6   3 -27 60.9699 13.7162  11
   6  -3 -27 45.4407 10.3575  11
  -6   3 -27 43.2879 10.9168   7
  -3  -3 -27 24.1227 11.6989  12
  -6   3  27 54.0395 16.2471   3
   0   0  28 0.12055 1.61291   9
   0   0  28 -0.0008 2.26125   5
   0   0 -28 -1.9943 2.50491  11
   0   0  28 -1.1975 2.13539  11
   0   0 -28 5.90748 4.09748   6
   0   0  28 3.57392 3.20589  10
   0   0  28 -0.9378 2.57524   8
   0   0 -28 4.42373 1.99868   4
   1  -1  28 68.8930 4.51102   2
   1  -1 -28 72.5002 4.00865   9
   0  -1  28 79.1071 5.48604   8
   0  -1 -28 69.2761 5.07626   4
  -1   0  28 71.3250 4.75671   8
   0   1  28 64.0387 7.07420  10
   0   1  28 66.7222 5.64377  11
   0   1 -28 61.8235 7.90655   6
   0  -1  28 66.4219 5.11146  11
   0  -1  28 74.6746 6.53587  10
  -1   0 -28 74.9563 6.51503  11
   1   0  28 70.1580 5.81887  11
   1  -1  28 57.3956 5.00764   5
  -1   1 -28 73.3883 9.19636   6
  -1   0  28 59.4385 6.82903  10
  -1   0  28 69.2363 5.65572  11
  -1   1 -28 65.5157 2.89028   4
   1   0  28 63.7649 6.55694  10
   0  -1 -28 75.1175 9.63745   6
  -1   1  28 74.1645 5.56981   8
  -1   0  28 65.5756 5.30414   5
   1   0  28 69.7272 6.42704   8
   1  -1  28 57.9490 5.45106  11
   1  -1  28 63.6542 5.91445  10
   0  -1 -28 71.3073 6.77974  11
  -1   1  28 69.0446 7.01452  10
  -1   1  28 55.6517 5.61420  11
   0   1  28 64.5253 6.56424   8
   1  -1 -28 77.8273 9.11134   6
   1   0  28 68.8008 5.19162   2
   1  -1 -28 61.7246 5.88615  11
   0  -1  28 71.1700 5.59614   5
   1   0 -28 67.7373 7.68555   6
  -1   0 -28 57.2431 8.09491   6
  -1   1  28 56.5320 6.60945   3
   0   1 -28 72.3528 5.60073  11
  -1   0 -28 62.8992 4.07633   4
  -1   1 -28 78.5366 6.39249  11
   1   0 -28 58.0005 5.57731  11
  -1  -1 -28 642.836 18.8462   4
  -1  -1 -28 676.155 21.7515  12
   2  -1 -28 667.380 20.8994  11
   1   1 -28 647.256 23.0022   6
  -1  -1 -28 639.914 26.2237   6
  -2   1  28 666.963 18.3844   7
   2  -1  28 684.742 21.8950   8
   1   1  28 659.735 21.5771  10
  -1  -1  28 664.878 19.2364  11
   1   1  28 668.795 20.3853  11
   1  -2  28 693.660 20.1408   5
  -2   1 -28 664.585 22.0944  11
  -1   2  28 682.304 22.0651   3
   1  -2 -28 701.315 24.6017   6
  -1   2  28 629.888 20.5137  11
  -2   1  28 663.629 21.7587  10
  -2   1 -28 658.793 25.6666   6
  -1  -1 -28 672.140 21.6676  11
   1  -2 -28 656.970 18.7292   9
   1  -2 -28 640.388 21.2322  11
  -2   1  28 692.576 23.5211   3
   2  -1  28 646.588 20.8845  10
  -2   1  28 676.811 18.2075   8
  -1   2 -28 680.254 24.5138   6
   1   1 -28 672.698 19.8752  11
  -2   1  28 690.671 21.0484  11
   2  -1 -28 634.729 21.9732   2
   2  -1 -28 652.554 22.6329   6
   1   1  28 660.384 21.7343   8
   2  -1  28 653.963 20.5558  11
  -1   2 -28 673.352 20.3674  11
   1  -2  28 677.424 19.7901  11
  -1   2  28 655.690 22.4476  10
   2  -1  28 671.637 19.4949   2
   1  -2  28 664.582 17.1321   9
  -1  -1  28 643.148 20.3745  10
  -1   2  28 672.128 20.7726   8
  -2   1 -28 693.899 16.0569   4
  -1  -1  28 680.249 19.9872   7
  -1  -1  28 647.372 19.7230   5
   1  -2 -28 679.406 19.9748   4
   1   1  28 691.282 20.5990   2
   2   0  28 921.560 27.0055  10
   0   2 -28 910.638 25.0017  11
   2  -2  28 942.770 26.2515  11
   2  -2 -28 899.516 29.0501   6
  -2   0  28 924.356 29.4637   3
   2   0 -28 899.073 26.1611  11
   0  -2 -28 923.686 25.6379   4
   2  -2  28 930.361 25.1737   5
  -2   2  28 897.859 26.7313  11
  -2   0 -28 920.333 32.9239   6
   2  -2  28 916.427 23.6914   2
  -2   0 -28 907.020 27.7020  11
  -2   0 -28 928.770 26.9939  12
   2   0  28 943.109 26.5508   2
   0   2  28 928.441 28.2560  10
   0  -2  28 895.127 25.8654   5
   2  -2  28 912.897 27.4426   8
  -2   2  28 914.251 28.1508  10
  -2   0 -28 934.416 23.7327   4
   0   2  28 910.158 26.0137  11
   2   0 -28 926.185 24.5042   2
   2   0  28 893.623 27.7357   8
   0   2 -28 935.356 29.8700   6
  -2   2 -28 903.667 27.3411  11
   0  -2 -28 930.064 26.0376   9
  -2   0  28 891.874 25.6684  10
   2   0  28 929.377 26.5913  11
   0   2  28 894.456 25.4371   3
   2   0  28 906.748 23.2653   5
   2   0 -28 919.286 28.8099   6
   0  -2 -28 922.604 31.4993   6
  -2   2 -28 899.302 31.3237   6
   2  -2 -28 933.194 23.2625   9
  -2   2  28 908.476 25.4669   8
   0   2  28 892.707 27.4493   8
  -2   0  28 895.233 25.3927   5
  -2   0  28 900.315 25.5462  11
  -2   2  28 923.654 29.0886   3
  -2   0  28 952.578 25.3019   7
   0  -2  28 945.820 24.4874  11
   2  -2 -28 934.016 27.2652  11
   0  -2 -28 927.881 27.3412  11
  -1  -2  28 567.451 19.3065   5
  -1   3 -28 580.109 23.5499   6
   2  -3  28 579.794 18.8896  11
   1  -3 -28 596.832 19.4032   9
  -1  -2  28 559.620 19.8133   7
   2  -3  28 595.743 21.0340   8
  -3   1  28 576.827 20.0576  11
   1   2  28 574.243 21.0136  10
   1  -3 -28 572.991 20.0204  12
   3  -2 -28 581.632 16.1753   9
   3  -2 -28 574.947 20.9854   2
   1  -3 -28 578.745 19.6844   4
  -2   3  28 570.357 20.2948   8
  -2   3  28 565.479 19.7466  11
  -1   3 -28 607.691 18.6815  11
   2  -3  28 567.144 17.6074   9
  -2  -1 -28 567.199 20.7745  12
   3  -1  28 602.690 20.0076  10
   3  -1  28 605.081 16.2818   5
  -2   3  28 582.495 22.6671  10
   3  -2 -28 586.146 22.0260   6
   1  -3 -28 607.245 23.7744   6
  -3   1  28 591.780 17.9129   7
   2  -3  28 586.732 19.2333   5
  -2  -1 -28 584.077 27.1246   6
   1   2  28 586.597 19.0067  11
  -2  -1 -28 594.615 21.0835  11
   3  -1  28 574.487 21.6293   8
  -2  -1 -28 567.523 18.6132   4
   1   2  28 573.575 20.4441   2
   2   1 -28 577.310 18.3885  11
   1   2  28 565.851 20.9383   8
  -3   1  28 604.854 19.9412  10
   1  -3 -28 581.010 20.6591  11
  -3   2 -28 586.926 21.8154  11
  -3   2 -28 575.913 18.0798  12
   3  -2 -28 565.330 20.5901  11
   3  -1  28 579.530 20.3115   2
  -3   1  28 557.929 22.8675   3
  -2   3  28 582.396 22.5321   3
   3  -1  28 580.728 20.3295  11
   2   1 -28 580.214 22.3063   6
  -3   2 -28 557.415 24.9489   6
  -3   2 -28 592.036 21.8043   3
  -1  -2 -28 532.486 24.8439   6
   3  -2  28 584.034 19.6037   2
   3  -1 -28 587.607 22.3832   6
  -2   3 -28 574.695 19.9279  11
   3  -2  28 600.342 20.2759  11
  -3   2  28 559.561 23.1595   3
  -3   1 -28 561.740 21.7541  11
  -3   2  28 558.561 17.6733   8
  -1   3  28 578.673 20.8635   8
  -1   3  28 562.043 21.6674  10
   1   2 -28 560.016 22.1222   6
  -1  -2 -28 596.549 21.2321  12
  -1   3  28 572.054 20.5649   3
  -3   2  28 562.872 21.2067  10
  -3   2  28 565.158 16.0853   7
   1  -3  28 590.245 19.6604   5
  -1  -2 -28 564.517 17.1352   7
  -2   3 -28 574.875 23.8287   6
  -3   2  28 597.454 20.5811  11
   3  -2  28 576.543 17.2121   5
   2  -3 -28 518.246 25.3307   6
   2   1  28 582.205 19.3086  11
   2   1  28 581.515 20.1587  10
   2   1  28 575.652 21.2498   8
  -1  -2 -28 588.291 20.7791  11
   2  -3 -28 565.141 20.5283  11
  -2   3 -28 609.769 21.9527   3
  -3   1 -28 543.562 25.4126   6
   3  -2  28 549.722 21.3124   8
   1   2 -28 591.088 17.4032  11
  -2  -1  28 575.445 18.9020   5
  -2  -1  28 572.323 18.9191   7
  -2  -1  28 616.867 19.0095  10
   3  -1 -28 563.453 19.8214  11
   3  -1 -28 573.765 20.2770   2
   2  -3 -28 571.344 19.8460   4
   2  -3 -28 561.349 17.8228   9
   2   1  28 589.663 20.6899   2
  -1  -2 -28 552.964 18.7271   4
   1  -3  28 578.007 16.3729   9
  -3   1 -28 555.976 19.8216   3
  -3   1 -28 560.727 19.0427  12
   0   3  28 446.707 16.2784  11
   3  -3  28 458.375 16.0009   9
   3   0  28 451.474 19.2294   8
   0   3 -28 467.140 14.2324  11
   3   0  28 453.543 18.6291   2
   3   0  28 446.681 17.1190  10
  -3   0 -28 416.748 23.9755   6
  -3   0  28 459.199 16.4470   7
   3   0  28 460.235 17.6875  11
  -3   0  28 466.049 20.9172   3
   0   3  28 453.071 19.9370  10
  -3   0  28 445.192 16.1485   5
   3  -3  28 424.986 17.3480  11
  -3   0 -28 419.219 19.2788  11
   0  -3 -28 438.594 17.1160   4
   3  -3 -28 426.530 18.3945  11
  -3   3  28 430.843 21.2007   3
   0  -3  28 461.980 17.2215   5
  -3   0 -28 445.658 15.5930   4
   0  -3 -28 414.987 21.1309   6
  -3   3 -28 466.967 18.9102  11
  -3   3  28 445.103 17.0940   8
  -3   3  28 440.177 20.0634  10
  -3   3 -28 436.288 20.0641   3
   3  -3  28 450.626 19.5501   8
   3  -3 -28 451.720 15.0218   9
  -3   3  28 466.824 18.2489  11
  -3   3 -28 451.215 22.3125   6
   3  -3 -28 414.582 20.1121   6
   0  -3 -28 452.527 18.4020  12
   3   0 -28 450.118 17.1286   2
   3   0 -28 466.619 19.9382   6
   3   0 -28 457.617 16.7193  11
  -3   0 -28 451.179 18.0364  12
   0   3  28 443.833 18.7258   8
   0   3 -28 447.210 20.5437   6
   0  -3 -28 447.946 17.9204   9
   3  -3  28 458.193 16.3973   5
  -2  -2 -28 489.446 20.7342  12
  -4   2  28 529.957 21.3093  11
   2   2 -28 514.072 16.0014  11
  -4   2 -28 502.905 22.8978   3
   4  -2  28 491.074 22.3641   8
   2  -4  28 510.058 18.0231   9
  -2   4  28 472.188 18.7632  11
  -2  -2 -28 502.949 25.8256   6
  -2  -2 -28 519.868 19.3238   4
  -4   2 -28 529.050 18.1017  12
  -2   4  28 478.786 22.7058  10
  -4   2  28 558.103 18.0549   7
   4  -2 -28 512.353 22.2306   2
   4  -2  28 512.964 20.6504  11
   2   2  28 494.293 20.0554  10
   2   2 -28 504.589 22.6251   6
   2   2  28 456.828 21.0074   8
   2  -4 -28 518.101 21.3511  11
   2   2  28 496.954 21.2662   2
   2  -4  28 530.136 19.8359   5
  -4   2  28 520.175 24.1596   3
   4  -2 -28 522.019 20.6300  11
  -2  -2  28 508.429 18.9691   5
   2   2  28 525.288 18.5761  11
   4  -2  28 513.467 21.7020   2
  -2  -2  28 474.466 18.5780   7
  -2   4 -28 501.290 27.1739   6
  -2   4 -28 513.109 18.2317  11
  -4   2  28 519.790 21.1821  10
  -2   4 -28 537.119 22.9847   3
  -2  -2 -28 485.050 17.7412   7
   2  -4 -28 519.353 20.3388   4
  -4   2 -28 503.707 26.6444   6
  -2   4  28 509.206 21.0591   8
   2  -4 -28 504.700 18.7854  12
   2  -4 -28 526.329 21.6733   9
  -4   2 -28 543.518 23.0607  11
   4  -2 -28 519.527 22.6194   6
  -2   4  28 483.577 22.5425   3
  -3  -1 -28 242.669 20.9593   6
  -1  -3  28 234.871 14.2839   5
  -4   1  28 273.522 18.3221   3
   1  -4 -28 217.715 16.6079   4
  -3  -1 -28 242.228 14.4793  12
   1   3  28 233.198 22.8780   8
   1   3  28 222.858 20.7339   2
  -1   4 -28 241.180 15.8645   3
   3   1 -28 255.314 11.9836  11
  -3  -1 -28 261.722 14.0258   4
  -3   4  28 258.233 18.2927   3
  -4   3 -28 242.276 18.0134   3
   1   3  28 245.606 15.7358  10
  -4   1  28 246.028 12.4915   7
  -3   4  28 187.981 18.5367  11
   4  -3 -28 235.341 16.9447   6
   4  -3 -28 247.429 11.3856   9
  -1   4 -28 270.558 19.0308   6
  -4   1  28 229.301 15.4076  11
   1  -4 -28 248.011 14.2590  12
   4  -3 -28 248.771 15.4085  11
  -3   4  28 242.227 14.6818   8
   3  -4  28 245.021 16.2117   8
   4  -3 -28 210.520 16.4224   2
   3  -4  28 253.987 13.0010   9
  -3   4  28 250.989 17.8372  10
  -4   1  28 263.893 13.2952   5
   1   3  28 236.966 12.0264  11
   1  -4 -28 258.499 14.4048   9
  -4   3 -28 254.843 20.0846  11
  -3  -1 -28 245.250 13.5204   7
   4  -1  28 245.730 16.5506   2
  -3  -1 -28 233.636 17.3271  11
   4  -1  28 247.924 14.4700  11
  -1   4 -28 248.638 9.94870  11
  -4   3 -28 274.027 20.4909   6
   3  -4  28 229.133 13.3091   5
  -1  -3 -28 191.828 14.3209  12
  -4   1 -28 218.244 15.7687  11
  -3   4 -28 190.109 17.7837   3
  -3   4 -28 189.730 17.6564   6
  -3  -1  28 189.353 12.0858   7
   4  -1 -28 192.872 14.8359   2
   4  -3  28 221.427 14.3473  11
  -1   4  28 212.464 15.0854   3
   3   1  28 190.877 12.6161  11
  -3  -1  28 196.131 12.5177   5
   4  -3  28 219.305 17.2842   8
  -1  -3 -28 216.302 19.2724   6
  -4   1 -28 210.964 12.6414  12
  -1   4  28 202.024 11.4932  11
   4  -3  28 207.618 11.1103   5
   4  -1 -28 192.927 15.4644  11
   4  -3  28 209.077 16.4327   2
   1   3 -28 201.006 15.2918   6
  -1   4  28 184.759 15.8095  10
   3  -4 -28 220.631 14.6538  11
  -4   3  28 214.491 16.4545  10
   3   1  28 193.256 12.7555  10
   3   1  28 222.082 15.6489   2
  -4   3  28 217.746 13.1464   8
  -1   4  28 194.530 16.2915   8
  -4   3  28 211.315 14.8880  11
  -3   4 -28 185.445 12.6924  11
   4  -1 -28 189.146 15.2480   6
   3   1  28 189.803 14.5495   8
   3  -4 -28 212.320 12.0867   9
  -4   1 -28 205.049 22.4825   6
  -1  -3 -28 226.630 13.0424   4
   4   0 -28 15.7228 8.41103   6
   0   4 -28 22.5550 8.43510   3
   0   4 -28 39.5453 10.4444   6
   0   4  28 8.47308 7.64366   8
   4  -4  28 8.43940 8.16857   8
  -4   0 -28 16.6613 9.31667  11
  -4   4  28 20.0871 7.03286  11
   4   0  28 13.7154 8.47830   2
   4  -4 -28 15.8546 8.42007  11
   4  -4  28 6.32220 6.28634   9
  -4   4  28 23.2344 10.3249  10
   0  -4 -28 12.3233 7.80895   9
  -4   0  28 10.4048 7.04949   5
   0  -4  28 15.1957 7.14537   5
  -4   4  28 29.4232 8.24147   8
  -4   4 -28 22.7409 7.57582  11
  -4   4 -28 9.07839 9.61686   3
   4   0 -28 9.32707 5.55947  11
   4  -4 -28 13.9251 6.81773   4
  -4   0 -28 25.6775 7.38066   7
   4   0  28 8.20191 5.74858  11
  -4   4  28 14.7006 10.2857   3
   0   4  28 13.8447 6.44133  11
   0  -4 -28 8.24331 7.22585  12
   4   0  28 1.22108 7.61046   8
   4  -4  28 26.6700 7.37935   5
   4   0 -28 22.5197 14.1360   2
   0  -4 -28 8.86728 6.91029   4
  -4   0 -28 31.0197 11.9333   6
   4  -4 -28 16.4321 6.10088   9
  -4   4 -28 21.2775 10.6438   6
   2   3  28 56.7939 7.67418  11
  -5   3 -28 38.9562 16.0925   3
  -2  -3  28 65.2036 10.0778   5
  -2  -3  28 55.2853 8.56145   7
   2  -5 -28 66.3996 10.7475   4
  -3   5  28 42.9661 12.4416  10
  -3   5  28 59.7694 11.0464   8
  -5   2  28 43.2810 10.3991   5
  -5   3 -28 57.0425 14.0860   6
   3  -5  28 41.9469 9.34229   5
   3  -5  28 28.3901 10.5164   9
  -3   5  28 55.3387 12.8705   3
   5  -2  28 59.2529 12.8857   2
  -2   5 -28 57.8518 12.2124   3
  -5   3 -28 35.0472 10.2833  11
   2   3  28 29.8755 10.5192   8
   2  -5 -28 53.8760 9.89692   9
   5  -2  28 47.7641 10.6955   8
  -3   5  28 51.7010 7.88838  11
   5  -3 -28 41.2539 11.5687   2
   5  -2  28 35.6986 8.56930  11
  -3  -2 -28 28.9628 9.46211  12
  -5   2  28 51.8557 13.2239   3
  -3  -2 -28 46.0225 9.97460   4
   3   2 -28 48.1794 10.9982   6
   5  -3 -28 44.2680 9.31021  11
  -3  -2 -28 41.0992 8.70099   7
   2   3  28 57.4710 10.6694   2
   5  -3 -28 65.5984 14.4497   6
  -5   3  28 52.9928 13.0232   3
  -2   5  28 38.9530 11.6396  10
  -2  -3 -28 62.3376 10.1301   4
  -3   5 -28 60.0009 8.17623  11
  -3  -2  28 66.4013 9.41015   7
   5  -2 -28 72.0612 10.5461  11
   2   3 -28 60.7942 12.2958   6
   3   2  28 61.9223 8.22591  11
  -5   2 -28 61.8265 12.4296  11
   3   2  28 66.1065 11.5671   8
   5  -3  28 65.5981 10.4316  11
  -5   2 -28 69.4056 14.9322   6
   2  -5  28 60.5886 9.87673   5
   5  -2 -28 76.9552 12.7372   2
  -2   5  28 50.4687 10.6886   8
   5  -3  28 49.3865 11.2396   8
  -5   3  28 52.5857 9.99356  11
  -2  -3 -28 47.2654 10.3206  12
   3  -5 -28 68.6273 10.4741   4
   5  -2 -28 80.6055 12.9053   6
   3   2  28 88.1347 12.1114   2
  -2   5  28 64.5815 8.27556  11
  -3   5 -28 46.3490 12.5375   3
   3  -5 -28 68.7391 10.0083   9
   1   4  28 132.577 14.5578  10
   5  -1  28 80.7239 13.9467   2
  -4  -1 -28 145.731 14.2795   7
   5  -1  28 108.888 13.3814   8
  -4  -1 -28 126.216 13.4687   4
  -5   1  28 152.983 13.4615   7
   4  -5  28 120.573 14.5144   5
   4  -5  28 148.755 14.0479   9
   4   1 -28 147.343 11.2288  11
  -5   4 -28 187.316 20.3054   6
  -4   5  28 139.042 17.1806  10
   1   4  28 128.258 14.3009   8
  -5   1  28 144.733 16.6645   3
   1  -5 -28 121.727 14.9136   4
   1   4  28 129.241 15.1235   2
  -1  -4  28 124.468 13.7287   5
  -4  -1 -28 131.396 15.5465  12
  -4   5  28 142.675 17.5988   3
   5  -4 -28 158.144 17.0343  11
   1  -5 -28 120.496 15.1654   9
  -5   4 -28 100.655 13.3251  11
   5  -1  28 102.173 13.1583  11
  -4   5  28 128.133 15.8234   8
   5  -4 -28 118.809 15.7128   2
   1  -5 -28 135.495 15.7790  12
  -1   5 -28 138.419 17.3045   3
   1   4  28 113.165 10.6208  11
  -1  -4  28 116.742 13.4750   7
   4   1 -28 140.538 17.3899   6
  -4   5  28 106.631 13.2400  11
  -5   4 -28 142.702 18.0867   3
  -4  -1  28 166.737 14.1268   7
   4  -5 -28 113.135 14.1250   4
  -5   4  28 139.065 16.2091  11
   5  -4  28 110.052 14.1279   8
   5  -4  28 95.4920 12.3492   9
  -1  -4 -28 149.162 14.9333   4
   1  -5  28 137.134 14.4160   5
  -4   5 -28 130.714 17.9465   3
  -4   5 -28 156.925 14.4082  11
  -1   5  28 138.147 16.5332   8
   5  -1 -28 131.932 14.6861   2
   1   4 -28 151.643 18.8704   6
  -5   1 -28 103.733 15.1513  11
  -5   4  28 138.075 17.1724  10
  -5   1 -28 151.497 14.1768  12
   4  -5 -28 136.017 14.3066   9
  -5   1 -28 152.714 15.4501   7
   4   1  28 148.441 16.8745   8
  -5   4  28 125.277 18.0021   3
   4   1  28 145.400 16.9928   2
  -1   5  28 149.884 11.3682  11
   5  -1 -28 140.510 17.3768   6
   5  -4  28 143.307 17.1478  11
   4   1  28 143.512 12.6339  11
  -1  -4 -28 144.078 15.8387  12
   5  -1 -28 115.700 13.6039  11
  -1   5  28 155.991 19.3171  10
   0  -5 -28 138.087 17.0782  12
  -5   0 -28 119.121 13.9584  12
  -5   5  28 96.8990 13.9757   8
   0   5  28 116.288 14.0187   2
  -5   5  28 115.826 17.2574  10
   5   0 -28 108.883 14.0286  11
   5  -5  28 139.725 14.9336   9
   5  -5 -28 93.8797 12.3331   4
   5   0  28 92.7376 14.3559   8
  -5   5  28 104.669 12.7756  11
   5   0 -28 100.389 15.0357   6
   5   0  28 107.849 13.8986  11
  -5   0 -28 96.0969 12.6345   7
   0   5 -28 104.930 15.5582   3
  -5   5 -28 96.3499 17.7157   3
  -5   5 -28 117.974 14.0284  11
   0   5  28 119.874 16.6940  10
   0   5  28 89.9908 14.2588   8
   5  -5 -28 124.712 15.3325  11
   5   0  28 108.774 15.3579   2
  -5   0  28 88.9395 11.7750   7
  -5   5  28 111.379 17.6212   3
   0  -5 -28 104.434 14.1485   9
   0  -5  28 145.014 15.6519   5
   0  -5 -28 110.541 14.1609   4
  -1   1  29 472.808 17.2039   3
   0   1 -29 474.547 15.7241  11
  -1   0 -29 464.571 16.8280  11
   1   0 -29 468.475 18.5046   6
   0  -1  29 457.432 15.1686   5
   1  -1  29 474.479 16.2146   8
  -1   1 -29 479.761 16.4862  11
   0  -1 -29 485.077 16.8495  11
  -1   0  29 471.821 16.9206  10
  -1   1 -29 478.334 11.6759   4
   0  -1  29 460.907 14.4351   8
   0  -1 -29 473.730 14.6869   4
   1  -1  29 479.359 14.9717   5
   1   0 -29 482.972 16.1291  11
   1  -1 -29 468.770 19.0888   6
   1  -1 -29 497.990 12.6331   9
  -1   0 -29 476.527 13.6591   4
  -1   0  29 479.574 15.6306  11
   0   1  29 474.877 15.8597  11
   0   1 -29 482.537 19.2473   6
  -1   1  29 463.636 15.9535  11
   0  -1 -29 465.554 20.1318   6
  -1   1 -29 466.817 20.1822   6
  -1   0  29 484.639 13.7720   8
   1   0  29 478.963 14.6926   2
   1  -1  29 472.378 13.0787   2
   1  -1 -29 474.332 16.5467  11
   0   1  29 466.075 16.1376   8
  -1   0  29 479.199 15.5225   5
  -1   1  29 475.718 15.0813   8
   1   0  29 452.732 15.7201  11
   1   0  29 467.570 14.4616   5
   0  -1  29 464.870 16.5627  10
   1   0  29 465.601 16.5548   8
   0   1  29 468.118 17.3773  10
   1  -1  29 458.533 15.7045  11
  -1   0 -29 460.058 20.6745   6
   0  -1  29 465.756 15.0181  11
  -1   1  29 501.141 17.4013  10
   1  -1  29 443.457 16.4097  10
   1   0  29 490.932 16.9683  10
   2  -1  29 64.0425 5.43256   5
  -1  -1 -29 58.5216 5.39010   4
  -1   2 -29 55.8654 8.01480   6
  -1  -1  29 61.2008 5.53791   5
  -1  -1  29 59.1282 6.81878  10
  -2   1  29 54.9472 5.40489   8
   1  -2 -29 56.1018 5.24041   9
  -2   1  29 52.0067 6.33592  11
   2  -1  29 44.1446 6.19121   8
  -1  -1 -29 54.2125 6.98143  12
  -1   2  29 49.5288 6.85394   3
  -2   1 -29 62.0386 7.31586  11
   1   1  29 62.7811 7.30967  10
  -2   1  29 54.8946 7.18470  10
   1  -2 -29 59.2598 7.36334  11
  -2   1 -29 47.7423 3.55077   4
   1  -2  29 53.3133 6.53736   8
   1   1  29 61.2325 6.42770   2
   2  -1  29 56.7752 5.98732   2
  -1   2  29 53.8350 7.25735  10
   2  -1 -29 57.8329 7.55605   6
  -1  -1 -29 59.9815 9.37286   6
   2  -1  29 61.4400 6.39140  11
  -2   1  29 56.1576 7.79826   3
  -1   2  29 54.8418 6.15775  11
  -1   2  29 45.5110 6.00113   8
   1  -2 -29 67.3124 6.10587   4
   1  -2  29 62.8187 4.27907   9
   1  -2  29 59.2917 5.54357   5
   1   1  29 58.9706 7.30499   8
  -1  -1  29 46.2729 5.39848  11
   1   1  29 51.1872 5.69642  11
   1   1 -29 62.7207 5.58546  11
   1  -2 -29 65.5191 9.26700   6
  -1  -1  29 48.8428 5.77717   7
  -2   1 -29 55.1332 9.09730   6
   1  -2  29 55.0670 5.76900  11
   2  -1 -29 50.8198 6.01256  11
   1   1 -29 40.9432 7.07446   6
   2  -1  29 55.7738 6.68848  10
  -1  -1 -29 63.4929 7.38868  11
  -1   2 -29 65.8728 6.18756  11
   0  -2 -29 1355.16 34.7808   9
   2   0 -29 1304.76 35.1468  11
  -2   0  29 1310.51 34.3265   5
  -2   0  29 1282.66 34.5800  11
   0   2  29 1315.08 37.3436  10
   0   2  29 1326.92 34.9591  11
  -2   2  29 1344.02 34.4173   8
   2   0  29 1287.18 35.9516  10
   2   0 -29 1327.36 33.0048   2
  -2   0  29 1380.99 38.8013   3
   0  -2 -29 1305.27 36.1634  11
   0   2  29 1326.66 34.6608   3
  -2   0 -29 1343.22 32.3723   4
  -2   0 -29 1358.33 42.8253   6
  -2   0  29 1326.13 33.8748   7
  -2   2  29 1252.71 35.3439  11
   0   2 -29 1321.61 33.9497  11
  -2   2 -29 1318.89 41.0917   6
   2  -2 -29 1364.91 38.8620   6
  -2   2  29 1332.66 37.2923  10
  -2   2 -29 1328.72 36.5890  11
   2   0  29 1319.52 35.2483   2
  -2   2  29 1335.86 38.2567   3
   0   2 -29 1301.47 38.5499   6
   2   0 -29 1276.51 37.7402   6
   2   0  29 1274.13 31.9573   5
  -2   0  29 1299.98 34.6697  10
   0  -2 -29 1316.87 40.6182   6
   0  -2  29 1346.05 33.2249  11
   2  -2  29 1282.82 34.8048  11
   0   2  29 1295.51 36.3875   8
   2   0  29 1274.48 35.3972  11
   0  -2 -29 1335.20 34.4538   4
   2  -2  29 1341.20 33.9552   5
   2  -2  29 1308.88 36.6010   8
   2  -2 -29 1347.37 31.8309   9
   0  -2  29 1305.32 34.9865   5
  -2   0 -29 1322.91 35.8461  12
   2  -2 -29 1318.86 36.1954  11
  -2   0 -29 1294.72 36.8464  11
   2  -2  29 1335.61 32.1918   2
   2   0  29 1319.50 37.0032   8
  -2  -1 -29 330.863 12.9553   4
  -3   1  29 311.634 14.4339  11
   1  -3 -29 326.075 14.5917  12
   1   2  29 331.915 13.3830  11
   3  -1  29 317.602 14.9244   2
  -2  -1 -29 325.226 20.8473   6
  -2   3  29 322.323 13.8937  11
  -1  -2  29 323.548 13.9552   5
   1   2  29 340.411 15.0722   2
  -2   3  29 322.882 17.1739   3
   1  -3 -29 347.706 14.4884   4
   2  -3  29 320.158 15.5236   8
   1  -3 -29 326.211 13.6728   9
   3  -1  29 311.625 15.6059   8
   2  -3  29 328.559 13.7462   5
  -2  -1 -29 312.351 15.2896  12
  -3   2 -29 346.951 12.8682  12
   1   2  29 316.546 15.1874   8
  -2   3  29 333.644 16.5391  10
   2   1 -29 303.768 16.2910   6
  -2  -1 -29 320.133 15.3933  11
   1  -3 -29 331.431 18.7247   6
  -1  -2  29 318.927 14.1972   7
   3  -1  29 321.641 14.5205  10
   1  -3 -29 328.695 15.1930  11
   3  -2 -29 311.160 16.3495   6
   2  -3  29 308.816 13.3545  11
  -3   1  29 319.748 12.4775   7
  -3   2 -29 307.819 19.0873   6
   1   2  29 307.114 15.6991  10
   3  -2 -29 315.197 15.0937   2
  -3   2 -29 316.916 15.8909   3
   2  -3  29 304.642 12.1613   9
  -2   3  29 325.895 14.7995   8
   3  -2 -29 313.628 14.8176  11
   3  -1  29 325.948 11.0308   5
   3  -1  29 314.565 14.4837  11
  -1   3 -29 350.139 17.9999   6
   2   1 -29 345.785 13.1261  11
  -3   1  29 322.761 14.4239  10
  -1   3 -29 344.516 13.2276  11
  -3   1  29 309.049 16.6799   3
   3  -2 -29 343.130 10.7803   9
  -3   2 -29 338.711 16.1844  11
  -3   2  29 368.386 11.8572   7
   2  -3 -29 372.710 15.3010   4
   2   1  29 362.689 16.3429   8
   2   1  29 361.679 14.6430  11
  -2  -1  29 361.247 14.4822   7
   2  -3 -29 371.975 16.4842  11
  -3   2  29 346.848 15.2154   8
  -2  -1  29 381.044 14.5591  10
   2  -3 -29 364.286 13.4824   9
  -3   1 -29 370.280 15.6147   3
  -3   1 -29 368.850 20.9128   6
  -2   3 -29 382.501 15.3028  11
   2   1  29 364.386 15.6670  10
   2  -3 -29 362.938 27.1550   6
  -3   2  29 378.327 16.7669  10
  -3   2  29 371.314 18.0435   3
   1   2 -29 367.322 12.9548  11
  -1  -2 -29 366.991 16.3197  11
   3  -2  29 374.465 15.6338  11
  -1   3  29 374.089 16.1342   3
   3  -1 -29 379.007 17.6945   6
   3  -2  29 357.436 15.3537   2
   3  -2  29 369.244 12.8951   5
  -1   3  29 359.000 14.7825  11
  -3   2  29 381.969 16.0241  11
  -1   3  29 370.930 16.3534   8
  -1  -2 -29 358.848 15.7623  12
  -1   3  29 349.360 17.3691  10
   1  -3  29 352.068 14.7797   5
  -1  -2 -29 352.128 21.2222   6
  -3   1 -29 362.527 14.6925  12
  -3   1 -29 350.445 17.1526  11
   2   1  29 351.854 15.7134   2
   3  -2  29 374.651 17.3436   8
  -1  -2 -29 360.878 12.8280   7
   3  -1 -29 347.794 15.4041   2
  -2   3 -29 370.621 19.1197   6
   1   2 -29 366.051 17.6636   6
  -1  -2 -29 363.522 14.6166   4
   1  -3  29 359.284 11.8973   9
   3  -1 -29 375.389 15.4254  11
  -2   3 -29 361.898 17.0400   3
  -2  -1  29 342.905 14.0306   5
   3  -3  29 10.2914 4.78421   9
  -3   0 -29 17.2133 5.92608  12
  -3   3  29 12.7745 5.72167  11
   0  -3 -29 20.4874 5.90067   9
  -3   0 -29 2.52216 5.86814  11
  -3   3 -29 17.8057 8.81803   6
   0  -3  29 20.9035 5.33908   5
   3  -3 -29 12.6383 8.66373   6
   3   0  29 12.8980 5.91597   8
   0  -3 -29 26.4419 6.51120  12
   3   0  29 11.2753 5.50413  10
  -3   0  29 19.8174 6.34878  10
   0   3 -29 17.9846 3.97644  11
  -3   3 -29 13.7802 5.39728  11
   3  -3  29 11.3787 4.99093   5
  -3   0  29 11.1884 4.89806   5
  -3   0 -29 19.8690 9.52839   6
  -3   0 -29 15.4135 4.94345   4
   0  -3 -29 15.4824 5.28627   4
   0   3  29 9.32484 5.72815   8
   0   3 -29 8.10353 7.56793   6
   3  -3 -29 15.9701 6.22663  11
   0  -3 -29 13.3189 8.98560   6
  -3   0  29 19.8606 5.06051   7
   0  -3 -29 12.3830 6.70985  11
  -3   3  29 14.3894 7.57048  10
   0   3  29 8.60019 6.48530  10
   3   0 -29 17.5834 4.66321  11
  -3   0  29 12.7757 5.76017  11
   3  -3  29 16.1829 6.85133   8
  -3   3  29 8.87362 5.58538   8
   3   0  29 15.1792 6.52664   2
  -3   0  29 7.52878 7.19013   3
   3  -3  29 29.9298 6.62739  11
   0   3  29 21.0329 4.64817  11
   3   0  29 14.9081 4.86370  11
  -3   3 -29 15.1403 7.23412   3
  -3   3  29 7.84317 7.55546   3
   3  -3 -29 18.9448 4.75352   9
   3   0 -29 17.4997 5.80667   2
   3   0 -29 19.2018 6.99134   6
   4  -2 -29 8.77414 8.01236   2
  -2  -2 -29 22.8536 11.3527   6
   2  -4 -29 10.5526 6.42189   4
  -4   2 -29 10.9499 7.07290  11
   4  -2  29 25.0012 8.44090   2
  -2   4 -29 5.73098 9.58523   6
   2  -4 -29 6.01651 5.78120   9
   4  -2 -29 17.5005 6.09287  11
   4  -2 -29 16.9875 8.51198   6
  -4   2 -29 5.75458 9.19725   3
  -4   2 -29 14.6807 9.78466   6
   4  -2  29 2.09278 5.21812  11
  -2  -2  29 8.10271 5.19510   7
   2  -4 -29 7.75741 5.60435  12
   2   2  29 13.8806 4.82235  11
  -2  -2 -29 5.24832 5.62468   4
   4  -2  29 20.5593 7.93482   8
  -4   2 -29 8.24107 5.32972  12
   2   2 -29 9.91056 7.20017   6
   2  -4  29 10.4358 6.20294   9
  -2   4 -29 17.4608 7.49289   3
   2   2  29 18.9038 7.46613   2
  -4   2  29 3.40074 7.93073  10
  -4   2  29 2.03764 6.26374  11
  -2  -2 -29 17.6278 6.75679  12
  -2  -2 -29 3.46679 5.26162   7
   2  -4  29 10.4699 5.48026   5
   2  -4 -29 8.55331 7.39984  11
  -2   4  29 17.5160 5.41568  11
   2   2  29 15.3016 6.90931   8
   2   2  29 9.72733 7.13468  10
  -2   4  29 12.2780 8.43801   3
  -2   4  29 6.79937 6.60358   8
  -2   4  29 9.59534 8.45795  10
   2   2 -29 6.36361 4.11561  11
  -2  -2  29 11.5722 5.88963   5
  -2   4 -29 8.06305 5.01732  11
  -4   2  29 -3.6335 7.93079   3
  -1  -3  29 206.406 13.0471   7
  -3  -1 -29 230.145 13.7214   7
   3  -4  29 216.633 12.9050   5
   1   3  29 232.454 15.4535   8
   1   3  29 217.488 15.7473  10
   4  -3 -29 244.401 17.7957   6
  -3  -1 -29 205.070 29.3351   6
  -1  -3  29 227.634 13.6122   5
  -3  -1 -29 209.560 17.2433  11
   3   1 -29 221.824 11.5530  11
  -3   4  29 214.763 13.3433  11
   4  -3 -29 183.576 16.4034   2
  -1   4 -29 248.101 18.3669   6
  -3  -1 -29 237.863 13.5593   4
  -3   4  29 227.752 15.2417   8
   3  -4  29 224.586 15.5086   8
   3   1 -29 194.835 15.7216   6
   4  -1  29 215.758 16.1103   2
  -1   4 -29 235.159 9.80438  11
   1  -4 -29 233.166 14.2720  12
   4  -3 -29 202.187 14.9886  11
   1  -4 -29 234.329 14.3199   9
  -4   1  29 214.999 17.2364   3
  -4   1  29 242.216 12.5857   7
  -4   1  29 212.984 15.4435  11
   1   3  29 169.892 15.9869   2
  -4   1  29 233.867 13.0407   5
  -4   3 -29 238.206 17.6801   3
  -4   3 -29 219.202 18.9888   6
  -3  -1 -29 167.686 16.8166  12
  -3   4  29 204.908 16.9833   3
   4  -1  29 234.425 17.7593   8
   3  -4  29 244.525 13.0245   9
   1   3  29 222.437 11.9122  11
  -4   3 -29 231.478 16.7414  11
   4  -3  29 253.839 15.4789  11
   3   1  29 216.003 16.7720   2
  -4   3  29 261.802 15.7226  11
   4  -3  29 219.928 16.7854   2
   1   3 -29 255.788 17.0740   6
  -1  -3 -29 249.934 13.9945   4
  -4   1 -29 260.148 17.3172  11
   3   1  29 207.267 15.3415  11
   1  -4  29 215.759 13.6042   5
  -4   3  29 237.973 19.2526   3
  -1   4  29 207.173 21.1887   8
  -3   4 -29 235.818 14.5416  11
  -1   4  29 236.984 12.6273  11
  -3   4 -29 248.184 27.3622   3
   3  -4 -29 241.105 15.8627  11
  -4   3  29 253.483 14.4744   8
   3  -4 -29 230.320 13.7988   4
  -1  -3 -29 239.940 20.7383   6
  -3   4 -29 275.631 19.6715   6
   3   1  29 229.677 20.6627   8
   3   1  29 243.669 13.8711  10
   4  -3  29 252.290 11.9514   5
  -3  -1  29 242.079 13.2311   5
   3  -4 -29 244.634 12.9089   9
  -3  -1  29 230.144 13.4648   7
  -4   1 -29 242.600 25.8843   6
  -1   4  29 263.940 24.4859  10
   4  -1 -29 233.344 16.3225   2
  -4   1 -29 265.924 13.9775  12
   4  -1 -29 247.059 15.0537  11
   4  -1 -29 243.830 17.4969   6
  -4   3  29 239.126 16.7607  10
  -4   0  29 4.35943 7.08050   5
   0   4  29 -3.4624 9.36473  10
   0  -4  29 10.7770 7.15701   5
   4  -4 -29 18.8128 6.17082   9
  -4   4  29 13.6800 10.5664   3
  -4   0 -29 5.80740 7.03521   7
   4  -4  29 0.72347 8.29859   8
   0   4  29 9.14426 8.23897   8
   0   4 -29 10.7355 9.76672   6
  -4   0  29 3.48472 6.30045   7
  -4   4  29 2.32674 6.27928  11
   4  -4 -29 2.70370 6.48470   4
   0  -4 -29 15.7896 7.12553  12
  -4   4 -29 10.6139 12.5010   6
   4   0 -29 7.16761 8.76088   6
   0   4 -29 27.7086 8.62052   3
  -4   4  29 5.28531 7.96273   8
  -4   4  29 -3.5971 9.59025  10
  -4   4 -29 5.84286 6.98804  11
   0  -4 -29 0.91326 7.06741   4
   4  -4 -29 -5.6992 8.50696  11
  -4   0 -29 3.65811 7.16145  12
  -4   4 -29 5.66869 10.4496   3
  -4   0 -29 -19.560 10.4548   6
   0  -4 -29 4.11378 7.67824   9
   4   0  29 -6.8800 8.61830   2
   4  -4  29 19.3750 6.88231   5
   4  -4  29 0.39414 6.39568   9
  -4   0 -29 19.3948 9.65449  11
   0   4  29 3.22939 4.84303  11
   4   0 -29 -1.4824 5.55749  11
   4   0  29 12.1070 6.09599  11
   4   0  29 -2.8578 8.08792   8
  -5   2  29 203.444 20.1117   3
  -5   2  29 157.821 14.3446   5
  -2   5 -29 136.419 17.5767   3
   5  -3 -29 183.515 18.0118   2
  -5   3 -29 136.122 16.9846  11
  -3   5  29 156.384 12.9073  11
   5  -2  29 183.903 19.8391   2
   5  -2  29 152.120 16.3034   8
  -3   5  29 149.196 16.0089   8
  -3   5  29 174.461 20.5698  10
   3  -5  29 164.725 13.9948   5
  -3  -2 -29 152.920 14.0825   7
  -3  -2 -29 128.698 15.4124  12
  -2  -3  29 169.176 13.9884   5
   2   3  29 157.604 16.8383   2
   2  -5 -29 166.282 15.4051   4
  -5   3 -29 178.443 24.6849   6
   2  -5 -29 170.957 14.9577   9
   5  -3 -29 147.582 15.4934  11
   5  -2  29 155.675 14.9058  11
  -5   2  29 190.276 20.8173  11
  -2  -3  29 159.123 14.4063   7
   2   3  29 165.021 16.7188   8
   3   2 -29 145.372 16.9552   6
   2   3  29 151.667 11.3826  11
  -3   5  29 147.843 17.2705   3
  -3  -2 -29 195.290 20.0688   4
  -3  -2  29 136.616 14.1999   5
   5  -3  29 122.711 15.1056  11
  -5   3  29 149.132 16.5004  11
   2   3 -29 144.133 15.7140   6
   3   2  29 121.957 14.1635   2
  -5   3  29 112.303 16.5150   3
   3  -5 -29 129.066 13.9612   4
   2  -5  29 145.880 13.8183   5
   3   2  29 120.435 11.4853  11
  -5   2 -29 122.913 14.5357  11
  -3   5 -29 144.908 12.5144  11
  -2   5  29 124.500 13.9966   8
  -2  -3 -29 122.719 13.3234   4
   5  -3  29 133.096 17.7486   2
   3  -5 -29 130.601 14.3441   9
   5  -2 -29 148.140 17.7161   6
  -2   5  29 164.649 18.8684  10
  -2  -3 -29 107.276 13.3363  12
  -3  -2  29 134.975 13.0417   7
  -5   2 -29 119.618 17.3020   6
  -3   5 -29 125.705 15.2413   3
   3   2  29 141.430 15.8648   8
   5  -3  29 114.323 14.2584   8
   5  -2 -29 140.039 15.5472   2
  -2   5  29 120.455 11.3456  11
   5  -2 -29 130.348 14.0326  11
  -4   5  29 107.068 13.2256   8
   5  -4 -29 149.986 18.6521   2
  -4  -1 -29 122.718 15.7362  12
  -5   4 -29 100.607 15.6559   6
   1   4  29 99.1667 10.2687  11
   1  -5 -29 99.4241 12.7079   9
   4  -5  29 109.560 11.8839   5
  -5   4 -29 94.8713 12.7079  11
  -4   5  29 118.291 16.6157  10
  -5   4 -29 115.562 18.1084   3
   5  -4 -29 133.585 16.3560  11
   5  -1  29 100.295 13.2481  11
  -4  -1 -29 138.680 14.8154   7
  -4  -1 -29 85.0507 12.2467   4
  -4   5  29 95.6015 16.1181   3
  -4   5  29 127.220 13.8542  11
   4   1 -29 117.029 10.9156  11
   4   1 -29 104.573 14.5838   6
  -5   1  29 127.640 13.7910   7
  -1  -4  29 108.586 12.4312   5
   5  -1  29 115.031 15.0375   2
  -5   1  29 149.679 18.8118   3
   1  -5 -29 129.072 15.9991  12
   5  -1  29 90.0093 13.3646   8
  -1   5 -29 105.684 15.0685   3
   1   4  29 119.334 14.0099  10
   1   4  29 109.485 14.3265   8
   1  -5 -29 106.719 13.0511   4
   4  -5  29 127.696 13.8580   9
   1   4  29 96.0299 12.3231   2
  -1  -4 -29 107.328 12.8792   4
   1   4 -29 90.4677 14.5782   6
   5  -1 -29 117.709 13.0924  11
   5  -1 -29 111.106 13.5714   2
   5  -4  29 113.405 12.5128   9
  -5   4  29 101.361 17.1281   3
  -5   4  29 124.317 16.1537  11
  -4   5 -29 88.4658 11.3135  11
   4   1  29 114.786 14.3626   8
   1  -5  29 98.7077 11.8958   5
  -4   5 -29 113.618 17.1600   3
  -5   1 -29 112.622 12.2828  12
   5  -1 -29 105.393 14.4535   6
  -4  -1  29 102.013 11.3947   7
  -5   1 -29 110.956 15.9888  11
  -1   5  29 97.7351 15.4422  10
  -1  -4 -29 103.586 13.6395  12
   4   1  29 112.607 12.6230  11
   5  -4  29 103.326 14.3265   8
   4  -5 -29 110.031 12.4219   4
  -5   1 -29 112.679 12.3521   7
  -1   5  29 102.743 13.7554   8
   4  -5 -29 115.141 12.7794   9
  -5   4  29 134.138 17.0752  10
   5  -4  29 110.878 13.4008  11
  -1   5  29 97.1734 10.7853  11
   4   1  29 125.152 15.1103   2
  -5   0 -29 77.0977 13.1131  12
  -5   0 -29 42.9021 11.1777   7
   5   0 -29 66.9162 12.2109  11
  -5   5  29 63.7978 14.1843   8
   0   5 -29 64.9220 14.2032   3
   0  -5 -29 71.2760 12.5438  12
   5   0 -29 51.0294 13.2636   6
  -5   5  29 81.0273 17.0719  10
   0  -5 -29 74.8896 12.9917   9
  -5   5  29 59.8124 17.2027   3
   5   0  29 69.4038 13.4350   8
  -5   0  29 74.1466 11.3106   7
   0   5  29 67.1344 13.3181   8
   5   0  29 83.7172 15.2664   2
   5  -5  29 55.6948 10.4712   9
   0  -5  29 88.1468 13.1246   5
  -5   5 -29 44.2272 11.1216  11
   5  -5 -29 51.2192 10.4803   4
   0   5  29 75.6216 15.3932  10
   5   0  29 81.9943 11.1948  11
   5  -5 -29 70.1691 13.9309  11
   0  -5 -29 69.4590 12.2850   4
  -5   5  29 52.4466 11.5190  11
   0   5  29 43.9754 12.1325   2
  -5   5 -29 83.1746 18.0328   3
   0   0  30 9720.22 213.391   8
   0   0 -30 9999.99 211.501   4
   0   0  30 9563.37 213.888  11
   0   0 -30 9684.24 215.191  11
   0   0  30 9639.97 213.350   5
   0   0 -30 9868.13 219.528   6
   0   0  30 9819.27 216.071  10
   1   0 -30 208.571 9.91299  11
  -1   1  30 187.754 10.8657   3
  -1   0  30 202.747 10.4865  10
  -1   0  30 212.364 9.54079   5
   0   1 -30 206.316 9.70870  11
   0   1  30 206.923 11.1355  10
  -1   0 -30 212.243 10.6616  11
  -1   1  30 192.540 9.80709  11
  -1   0  30 205.617 8.07655   8
   1  -1  30 222.626 7.67208   2
   1  -1 -30 196.393 12.5139   6
   0  -1  30 194.867 8.58042   8
   1  -1  30 194.321 11.1842  11
   0   1  30 198.439 10.3732   8
   1  -1 -30 197.578 10.1675  11
   0  -1  30 195.742 10.3611  10
  -1   0 -30 186.785 7.23442   4
  -1   0 -30 190.769 13.8449   6
  -1   1  30 193.536 10.9901  10
   1  -1  30 212.558 9.05599   5
  -1   1 -30 219.655 10.3870  11
  -1   1 -30 205.802 5.75564   4
  -1   0  30 200.158 9.59063  11
   1  -1  30 204.426 10.6878  10
   1   0  30 199.683 8.64356   2
  -1   1 -30 189.322 13.3742   6
   0  -1 -30 194.707 14.0565   6
  -1   1  30 188.514 9.10742   8
   1   0 -30 174.146 11.8500   6
   1   0  30 205.340 10.5949   8
   1  -1  30 217.081 10.5570   8
   1   0  30 198.755 8.43760   5
   0  -1 -30 202.877 10.6309  11
   1   0  30 220.603 11.1284  10
   0   1 -30 199.968 12.7376   6
   1   0  30 197.181 9.55133  11
   0  -1  30 187.408 9.02753  11
   0  -1  30 206.416 9.39134   5
  -1  -1  30 1236.53 33.2539   5
  -1   2  30 1290.87 35.5066   3
   1   1  30 1244.50 33.6750   2
   1  -2 -30 1219.28 38.0010   6
  -1  -1 -30 1250.66 35.1062  11
  -1   2 -30 1214.74 38.2881   6
   2  -1  30 1254.53 31.5669   5
  -2   1  30 1275.79 31.1317   8
  -2   1 -30 1209.75 39.7059   6
  -1  -1 -30 1282.72 35.1208  12
  -1   2 -30 1227.39 33.5737  11
  -1   2  30 1267.88 36.0827  10
   1   1 -30 1267.59 33.3778  11
   1   1  30 1256.94 33.7816  11
  -2   1  30 1237.78 33.9478  11
  -2   1 -30 1231.49 35.3487  11
   2  -1 -30 1206.22 34.2695  11
   1  -2  30 1295.13 29.7034   9
  -1  -1  30 1277.60 34.0350  10
   2  -1  30 1250.93 34.8042  10
   2  -1  30 1242.13 35.3704   8
  -2   1  30 1270.53 35.1407  10
   2  -1  30 1287.84 34.1735  11
   1   1  30 1259.91 35.2927  10
  -1   2  30 1262.71 34.1967  11
   1  -2  30 1263.16 32.9143  11
   1  -2  30 1286.90 33.5328   5
   1  -2 -30 1262.58 31.6546   9
   1  -2  30 1268.54 33.7046   8
  -2   1  30 1254.66 36.5360   3
   1  -2 -30 1293.63 35.1058  11
  -1  -1 -30 1257.16 40.6604   6
   1   1  30 1269.30 35.2461   8
  -1  -1 -30 1265.87 32.1178   4
  -1   2  30 1257.95 34.1275   8
   1   1 -30 1240.10 37.1477   6
   2  -1 -30 1233.74 36.8519   6
  -1  -1  30 1239.64 32.4364  11
   1  -2 -30 1282.83 33.4522   4
   2  -1  30 1284.09 32.6038   2
   2   0  30 3.08066 4.42359   8
  -2   0  30 10.6653 3.63598   5
   2  -2 -30 5.59657 2.75576   9
   2   0 -30 -9.1297 4.60990   6
  -2   0 -30 0.81692 7.25612   6
  -2   0 -30 7.47447 3.19518   4
   0  -2 -30 12.3944 7.32225   6
   2   0  30 6.61390 3.04426   5
  -2   2  30 -1.8666 4.80689  10
  -2   2  30 8.55631 5.58430   3
  -2   2  30 1.75433 3.31659  11
   2  -2 -30 6.71306 6.11755   6
  -2   2 -30 18.3726 7.19402   6
   2  -2  30 0.84185 3.87952   2
  -2   2  30 5.92598 4.12166   8
   2   0 -30 -2.8287 3.19816  11
   2   0  30 8.23170 3.50546  11
   0   2  30 3.82559 4.46847   8
   2   0  30 7.47925 4.51773   2
   0   2 -30 9.41088 3.44133  11
  -2   2 -30 1.04968 3.80736  11
   0   2  30 3.92014 3.12448  11
  -2   0  30 -1.0006 3.94712  11
   0  -2 -30 1.75281 4.32846  11
   2  -2 -30 3.24651 4.11482  11
   2  -2  30 8.72971 5.04462   8
  -2   0 -30 10.8412 4.29863  12
   0  -2  30 14.8390 3.81851  11
   2   0 -30 -5.6399 3.54681   2
  -2   0  30 2.60562 3.39524   7
   0   2 -30 3.63945 5.30983   6
   0  -2 -30 1.08165 3.90068   9
   0   2  30 0.24495 4.24217   3
   0   2  30 9.54116 5.04563  10
   0  -2 -30 5.66533 3.57972   4
   2   0  30 15.2729 4.80945  10
   2  -2  30 -1.4112 3.61721  11
  -2   0 -30 5.01848 4.68349  11
   2  -2  30 5.92327 3.49874   5
  -2   0  30 11.9434 4.74571  10
   0  -2  30 7.54236 4.04073   5
   3  -2 -30 209.690 14.8172   6
   3  -1  30 211.334 12.1865  11
  -3   1  30 218.797 12.2832  11
  -3   1  30 219.494 10.2871   7
  -1   3 -30 225.600 10.8631  11
   3  -1  30 217.468 9.05476   5
   1  -3 -30 235.240 11.8171   4
   2  -3  30 206.899 11.1533   5
   1   2  30 209.989 12.2885   2
  -2   3  30 208.163 11.3210  11
   3  -1  30 213.153 13.1521   8
  -3   2 -30 218.709 13.7171  11
  -1  -2  30 217.066 11.5722   5
   1   2  30 187.371 12.6767   8
   2  -3  30 212.362 12.7822   8
   2  -3  30 204.658 9.99694   9
  -1  -2  30 218.657 11.8502   7
  -2  -1 -30 206.717 10.7832   4
   1  -3 -30 215.892 11.2830   9
   1   2  30 242.851 13.5810  10
   3  -1  30 215.253 12.7160   2
  -3   1  30 215.235 12.7019  10
   1  -3 -30 223.959 12.4132  12
   3  -2 -30 242.458 13.1646  11
  -2   3  30 225.381 14.1849  10
  -3   1  30 201.966 14.0044   3
  -2  -1 -30 216.027 18.5761   6
  -3   2 -30 217.963 10.5006  12
  -2  -1 -30 198.471 13.2414  11
   3  -1  30 208.681 11.8765  10
   1  -3 -30 202.974 16.5443   6
  -3   2 -30 218.834 13.2617   3
   1  -3 -30 204.687 12.7050  11
  -3   2 -30 203.500 17.6617   6
   3  -2 -30 204.783 13.4549   2
  -2   3  30 213.523 12.6499   8
   2  -3  30 215.386 11.4047  11
   2   1 -30 200.497 13.8571   6
  -1   3 -30 242.703 16.3243   6
  -2  -1 -30 222.325 13.0771  12
  -2   3  30 228.272 14.7668   3
   1   2  30 217.702 10.9455  11
   2   1 -30 197.927 10.1704  11
  -3   2  30 202.256 16.4688  10
   2   1  30 176.756 11.7874   8
   3  -2  30 174.111 12.8647   8
  -3   1 -30 163.406 16.0280   6
  -2  -1  30 164.892 10.0912   7
  -1  -2 -30 173.165 12.1744  11
   1  -3  30 197.966 11.0912   5
   2   1  30 171.180 10.5334  11
   3  -1 -30 188.602 13.5125   6
   2  -3 -30 198.035 11.2860   4
  -2   3 -30 186.875 15.8569   6
   2  -3 -30 188.005 15.3955   6
  -1  -2 -30 197.607 9.39562   7
  -3   1 -30 185.915 12.9477  11
  -1  -2 -30 177.702 18.8051   6
  -1   3  30 192.494 10.7968  11
   2   1  30 188.192 11.9487  10
  -3   2  30 205.858 14.6440   3
   3  -2  30 203.838 9.34313   5
   2   1  30 186.801 12.1100   2
   3  -2  30 196.434 11.5235  11
  -2  -1  30 185.237 10.3668   5
  -1  -2 -30 178.073 11.5918  12
   2  -3 -30 182.998 12.4923  11
   3  -2  30 176.917 11.7492   2
  -2  -1  30 179.621 11.0483  10
  -3   2  30 189.364 11.9672  11
  -2   3 -30 181.990 11.0217  11
   1   2 -30 174.671 9.06627  11
   3  -1 -30 177.679 11.0811  11
   3  -1 -30 183.569 11.9196   2
  -1  -2 -30 184.792 10.3611   4
   2   1  30 182.543 8.07745   5
   2  -3 -30 188.422 9.74780   9
   1   2 -30 184.222 13.5900   6
  -3   1 -30 181.614 11.7633   3
  -1   3  30 193.380 12.5220   3
  -2   3 -30 174.338 12.7150   3
  -1   3  30 182.412 12.5206   8
  -1   3  30 194.523 12.8690  10
  -3   1 -30 183.193 10.8055  12
  -3   0 -30 285.240 12.2669   4
   0   3 -30 289.856 17.4471   6
   0  -3 -30 278.106 13.7971   4
   3  -3 -30 277.746 11.5569   9
  -3   3  30 279.510 17.8071   3
   3  -3  30 271.609 14.1781  11
  -3   3  30 286.898 17.2601  10
   3  -3  30 265.611 15.6784   8
   3   0  30 274.869 13.8607  10
   0   3 -30 294.780 11.2760  11
  -3   3 -30 256.811 18.0648   6
  -3   3 -30 292.558 15.5889  11
   3  -3  30 275.708 12.6083   5
  -3   3  30 255.732 13.7696   8
  -3   0 -30 296.331 16.7339  11
  -3   0 -30 245.033 20.6073   6
   0  -3 -30 238.409 18.2974   6
   0  -3  30 286.634 13.8702   5
  -3   0  30 261.596 17.6434  11
   0   3  30 300.596 15.6691   8
   0   3  30 280.592 16.1176  10
   0  -3 -30 281.526 15.3667  11
  -3   3  30 272.885 14.5075  11
   3   0 -30 273.603 13.0946  11
   0  -3 -30 279.335 14.8018  12
  -3   3 -30 292.587 16.7129   3
  -3   0  30 265.956 12.6359   5
   0   3  30 277.407 12.8109  11
   3   0 -30 278.895 16.2858   6
  -3   0  30 283.145 12.9652   7
   3  -3  30 283.576 12.5878   9
   3  -3 -30 253.690 17.5463   6
   3   0  30 272.692 15.3377   2
  -3   0  30 256.718 13.3126  10
   3   0  30 320.109 14.6728  11
   3   0  30 262.102 15.1336   8
   3  -3 -30 263.378 15.0650  11
   0  -3 -30 275.497 14.5114   9
  -3   0 -30 283.648 14.4187  12
   3   0 -30 281.900 13.8542   2
   4  -2  30 329.289 18.2348   2
   2   2  30 299.082 15.9502  10
  -2   4 -30 296.422 20.5789   6
   4  -2  30 317.945 16.4256  11
  -4   2 -30 298.662 22.1297   6
  -2  -2 -30 318.044 14.1023   7
   2   2 -30 301.465 12.0265  11
  -4   2 -30 307.917 13.9248  12
  -4   2 -30 312.553 18.7822   3
  -2   4 -30 335.808 14.6508  11
  -4   2  30 324.174 17.5151  11
   2  -4  30 306.305 14.5759   9
  -2  -2 -30 278.645 21.4699   6
   2  -4 -30 298.479 15.1438  12
   2   2  30 295.348 18.0959   2
   4  -2 -30 310.027 18.0484   2
   2  -4  30 281.005 15.1936   5
   4  -2 -30 305.629 19.2136   6
  -4   2  30 317.780 18.0373  10
  -2  -2 -30 300.473 14.9541   4
   2  -4 -30 303.866 17.9684  11
   2   2  30 280.159 14.2897  11
  -2  -2  30 303.331 15.2297   5
   2   2 -30 297.754 19.1527   6
  -2   4  30 344.682 19.3945   3
  -4   2 -30 318.300 18.2152  11
  -2   4  30 292.120 17.1306   8
   2  -4 -30 319.629 15.2028   9
  -3  -1 -30 50.1511 9.13359  12
   3   1 -30 47.5470 6.36913  11
  -3   4  30 52.3101 9.20946   8
   1   3  30 42.8391 8.65188   8
  -4   1  30 55.3047 9.94915  11
   3  -4  30 45.3940 7.56537   9
   4  -1  30 66.0993 10.6117   2
  -3   4  30 43.3861 10.8193  10
   1  -4 -30 39.4646 8.04569   9
   1  -4 -30 53.0366 8.48417  12
   4  -1  30 51.7673 8.01153  11
  -3   4  30 37.2655 6.35808  11
  -4   1  30 46.5916 7.58239   5
   3  -4  30 39.9256 9.57212   8
  -3  -1 -30 43.2615 7.74298   7
   4  -3 -30 48.6527 11.3296   6
  -1  -3  30 42.8224 7.59510   7
  -3  -1 -30 57.0075 7.98996   4
  -4   1  30 58.0146 7.53980   7
  -1   4 -30 49.0973 9.46679   3
   1  -4 -30 58.2971 9.02806   4
  -1   4 -30 50.3812 6.63698  11
   4  -3 -30 54.0682 10.2739   2
   1   3  30 41.8652 8.24959   2
   1   3  30 48.8017 7.98778  11
  -4   3 -30 39.2262 8.28050  11
  -3  -1 -30 36.9767 13.7172   6
  -4   3 -30 40.1815 10.7416   3
  -3  -1 -30 41.5681 10.4380  11
  -4   3 -30 39.9856 11.7061   6
  -3   4  30 44.4315 10.4144   3
   4  -1  30 52.8679 9.08957   8
  -4   1  30 42.4763 13.5467   3
   1   3  30 83.5073 10.5340  10
   4  -3 -30 47.4867 9.80997  11
   3   1 -30 40.4398 8.84330   6
   3  -4  30 46.7326 7.83886   5
  -1   4 -30 41.1274 11.6217   6
   3   1  30 90.0548 11.4414   8
   4  -1 -30 88.0838 10.1549  11
  -1   4  30 101.268 12.5779   8
   3  -4 -30 111.148 13.7639  11
   3   1  30 86.4343 9.51122  11
  -3   4 -30 85.0335 11.3848   3
  -1   4  30 67.7709 12.2958  10
   1  -4  30 94.1359 10.4353   5
  -3  -1  30 97.1130 10.5560   5
   3  -4 -30 84.3152 10.1338   4
   3   1  30 98.3476 11.0468  10
   4  -3  30 109.877 13.0972   5
  -4   3  30 94.3798 12.4304  11
   4  -3  30 97.0222 11.5511   8
  -4   3  30 82.1584 12.2646  10
  -4   1 -30 84.4980 11.3803  11
   4  -1 -30 70.0150 10.8263   2
   4  -1 -30 88.0701 15.1379   6
   1   3 -30 107.918 13.4501   6
  -1  -3 -30 89.0086 10.6277   4
  -4   1 -30 98.2469 10.5993  12
  -1  -3 -30 103.312 14.9430   6
   3  -4 -30 90.9413 9.78015   9
  -3   4 -30 86.1727 12.8527   6
  -4   3  30 80.1623 11.7799   3
   4  -3  30 98.5390 12.1089  11
  -1  -3 -30 84.9591 10.3633  12
  -4   1 -30 91.9976 14.6028   6
   0   4  30 404.770 21.3892   8
   4   0 -30 394.596 22.2326   6
   4  -4 -30 487.600 18.3224   9
   4   0  30 410.643 18.9396  11
   0   4  30 413.827 16.7490  11
  -4   0  30 449.669 18.8845   7
   0   4 -30 452.207 24.1905   6
   4   0  30 424.566 22.3910   2
  -4   4  30 419.314 25.5887   3
  -4   4 -30 405.891 21.2482  11
  -4   4  30 412.706 23.2894  10
   4   0 -30 432.169 18.4060  11
   4  -4  30 415.467 21.9884   9
   0   4  30 471.220 24.1301  10
   4  -4 -30 442.049 24.4946  11
   4  -4 -30 411.147 19.5251   4
   0  -4 -30 405.288 19.6910   4
  -4   0  30 442.759 18.8551   5
  -4   0 -30 421.553 23.1770  11
  -4   0 -30 430.460 20.2416  12
  -4   4  30 423.038 20.3864  11
  -4   4  30 418.711 20.5195   8
  -4   4 -30 437.533 25.8467   6
   4  -4  30 469.444 18.8073   5
  -4   0 -30 383.957 27.4129   6
   0  -4  30 406.667 19.5410   5
   0  -4 -30 426.251 21.3492   9
   4   0  30 398.026 21.8684   8
   4  -4  30 423.918 22.2936   8
   0  -4 -30 438.078 20.3935  12
  -4   4 -30 438.499 24.9335   3
  -4   0 -30 419.967 19.8443   7
   2  -5 -30 160.102 15.4038   9
  -5   3 -30 189.239 20.9600   6
   2  -5 -30 141.267 15.0997   4
  -5   3 -30 215.154 24.4156   3
  -3   5  30 172.255 21.2501   3
  -3   5  30 151.043 17.2929  10
  -5   2  30 164.770 18.4799  11
   3   2 -30 173.372 18.1169   6
   5  -3 -30 200.494 19.1778   2
  -3   5  30 175.193 13.3592  11
  -3  -2 -30 158.198 15.3106   7
   2   3  30 158.004 16.9699   8
   2   3  30 163.724 16.2675   2
  -5   2  30 154.111 15.0554   5
   3  -5  30 167.307 15.2251   5
   5  -2  30 197.035 20.3974   2
   5  -2  30 149.134 16.4311   8
  -2   5 -30 164.030 18.5312   3
  -2  -3  30 178.216 15.4027   5
  -3   5  30 181.573 17.9785   8
   2   3  30 162.440 12.1584  11
   5  -3 -30 174.882 15.6865  11
  -5   2  30 159.547 18.4077   3
  -3  -2 -30 136.407 15.7569  12
  -2  -3  30 161.869 14.2897   7
  -3  -2 -30 164.904 15.6270   4
   5  -2  30 192.604 16.1688  11
  -5   3 -30 135.734 17.1784  11
   5  -3  30 165.682 17.2326   8
   3  -5 -30 146.244 14.6777   4
  -3   5 -30 144.141 13.0220  11
  -5   3  30 132.745 17.0395   3
   5  -2 -30 153.919 16.2244   2
   2  -5  30 154.822 14.6142   5
   5  -2 -30 178.644 19.4391   6
   3   2  30 129.464 15.9596   8
  -3  -2  30 145.394 13.2996   7
  -2  -3 -30 123.015 15.3419  12
   2   3 -30 156.359 16.6942   6
  -5   2 -30 134.029 18.4358   6
  -5   2 -30 166.721 19.1763  11
   5  -2 -30 132.063 14.2644  11
   3  -5 -30 136.214 14.6145   9
  -2   5  30 154.892 12.3556  11
   5  -3  30 177.937 20.4034   2
  -2   5  30 141.563 16.9705   8
  -2   5  30 147.148 16.8176  10
  -3  -2  30 168.345 14.9206   5
  -3   5 -30 130.803 16.2866   3
   3   2  30 138.104 12.1115  11
  -2  -3 -30 163.171 14.5528   4
   5  -3  30 138.658 16.1492  11
   3   2  30 157.149 16.5584   2
  -5   3  30 152.025 16.7732  11
   1   4  30 147.381 17.6304   8
  -4  -1 -30 155.231 17.1430  12
   5  -1  30 181.391 19.7655   2
  -5   4 -30 173.714 18.3259  11
   1   4  30 145.798 16.1476   2
   5  -4 -30 150.481 17.7686   2
   1  -5 -30 180.504 16.7048   4
   4   1 -30 181.053 20.2694   6
   4  -5  30 193.871 15.5443   9
  -4   5  30 172.708 15.1943  11
  -1   5 -30 178.994 18.8961   3
  -5   4 -30 201.338 24.3318   3
  -5   1  30 163.520 20.2213   3
   5  -1  30 144.220 15.7740   8
   1   4  30 165.148 18.6502  10
  -5   1  30 167.509 14.4811   7
  -5   4 -30 200.539 20.1965   6
   4  -5  30 198.076 16.5180   5
  -1  -4  30 166.670 15.0721   5
  -4   5  30 150.999 19.0043   3
  -4   5  30 162.737 18.4671   8
   5  -4 -30 181.162 18.9176  11
   4   1 -30 156.251 12.2051  11
   1  -5 -30 147.667 17.1043   9
  -4   5  30 162.395 19.3001  10
  -4  -1 -30 168.512 16.2984   7
   1  -5 -30 168.424 16.9789  12
   5  -1  30 155.356 14.8394  11
  -4  -1 -30 129.298 15.9351   4
   1   4  30 169.474 11.9461  11
  -4   5 -30 161.065 19.0419   3
  -1  -4 -30 151.923 17.8074  12
   5  -4  30 163.487 13.7832   9
  -5   4  30 167.935 17.1797  11
   1   4 -30 163.494 20.9012   6
  -1  -4 -30 153.423 15.5757   4
  -4   5 -30 178.324 15.6410  11
  -1   5  30 168.378 18.7794   8
   5  -4  30 140.215 16.8579   8
   4   1  30 147.115 16.2215   2
  -5   1 -30 166.143 15.9517  12
  -1   5  30 149.225 12.1975  11
  -5   4  30 163.437 19.5210   3
   5  -1 -30 155.421 16.9050   6
   4   1  30 156.382 17.2737   8
   5  -4  30 179.269 18.3148  11
  -5   1 -30 167.410 15.7240   7
   5  -1 -30 157.571 14.4822  11
  -4  -1  30 164.668 14.9689   7
   4   1  30 161.782 13.9145  11
  -5   4  30 166.019 18.2899  10
   4  -5 -30 155.805 14.8288   9
  -5   1 -30 173.375 18.7450  11
   1  -5  30 131.518 14.3503   5
   4  -5 -30 143.510 14.5503   4
  -1   5  30 168.470 21.0211  10
   5   0  30 34.7830 14.0426   2
  -5   0 -30 28.3832 11.4468  12
   5  -5  30 47.7011 10.1323   9
   0   5  30 41.5468 11.9813   8
   0  -5 -30 15.2473 11.5976   9
  -5   5  30 20.1055 9.56410  11
  -5   5 -30 33.2837 17.3069   3
   5   0  30 30.5842 12.2532   8
   0   5  30 39.2833 11.0620   2
  -5   5  30 19.9379 16.0904   3
   0  -5  30 19.8101 11.2132   5
   5  -5 -30 45.2304 13.2647  11
   0   5 -30 52.5110 14.0897   3
  -5   0 -30 51.5536 11.5817   7
   0  -5 -30 11.5486 10.9224  12
  -5   5 -30 13.7522 10.4531  11
  -5   5  30 33.3568 16.3064  10
   5   0  30 27.8743 8.74834  11
   0   5  30 33.8970 14.2087  10
  -5   0  30 42.5205 10.1330   7
   5   0 -30 46.3478 13.4435   6
   5   0 -30 31.4115 9.14948  11
   0  -5 -30 27.1045 10.8641   4
   5  -5 -30 41.8172 11.0561   4
   0   0 -31 41.9865 6.91030   6
  -1   1  31 802.173 23.7846  11
   1  -1 -31 771.607 24.0511  11
  -1   1 -31 839.705 18.3271   4
   0  -1  31 783.624 22.6310  11
   0  -1 -31 800.595 24.7977  11
   0   1  31 787.622 24.7107  10
   1   0  31 774.906 21.7816   5
  -1   0 -31 747.580 24.2395  11
   0   1 -31 777.133 23.3581  11
   0   1 -31 827.429 27.8668   6
  -1   1  31 777.134 22.4264   8
   0  -1  31 795.391 22.9233   5
   0   1  31 791.651 23.2874  11
   0  -1 -31 769.931 28.3742   6
   1  -1  31 811.869 22.4807   5
   0  -1 -31 791.517 21.8083   4
  -1   0 -31 775.626 29.2004   6
   1  -1  31 791.003 23.7426   8
   1   0 -31 800.053 23.8850  11
   0   1  31 798.269 23.8890   8
   1   0  31 787.896 21.8640   2
  -1   1 -31 794.693 28.4397   6
   1  -1  31 818.191 20.0772   2
   1   0 -31 784.250 26.5787   6
  -1   1  31 790.097 24.9479   3
   1  -1 -31 768.339 27.2187   6
  -1   1 -31 789.334 24.0240  11
   0  -1  31 769.559 24.2206  10
   1  -1  31 803.901 24.7509  10
   1  -1  31 788.367 23.1521  11
  -1   0 -31 797.828 20.2631   4
  -1   1  31 806.049 25.5711  10
   1   0  31 775.023 24.3971  10
   1   0  31 789.582 23.4047  11
  -1   0  31 790.394 22.8535   5
  -1   0  31 794.362 20.8343   8
   1   0  31 803.693 24.4476   8
   0  -1  31 789.893 21.7638   8
  -1   0  31 776.120 24.3567  10
   1   1  31 1214.43 34.3151   8
   1  -2  31 1248.58 32.2032  11
  -1  -1  31 1237.10 31.6594  11
   1  -2 -31 1232.33 31.0332   9
   1   1  31 1208.50 34.2717  10
   1  -2  31 1283.22 28.6077   9
  -1   2  31 1192.93 32.9883   8
   1  -2 -31 1164.18 37.7237   6
   2  -1  31 1232.64 30.7638   5
   1   1 -31 1156.41 36.2119   6
  -2   1  31 1193.12 34.3820  10
   2  -1  31 1215.35 34.6864   8
  -1  -1 -31 1196.60 30.9655   4
  -1   2 -31 1200.61 37.7130   6
   2  -1  31 1202.43 31.4890   2
   1  -2  31 1217.44 32.4639   5
   1  -2 -31 1229.34 32.3788   4
  -1   2 -31 1157.39 32.6901  11
  -1   2  31 1215.68 36.1217  10
  -2   1  31 1219.87 30.1581   8
   2  -1  31 1165.64 32.9412  11
   1   1 -31 1151.71 32.2031  11
   1  -2 -31 1250.49 34.3062  11
  -1  -1  31 1184.10 33.0327  10
  -2   1  31 1206.74 35.8675   3
  -1  -1  31 1192.63 32.3928   5
  -2   1 -31 1190.75 34.4744  11
  -2   1 -31 1187.54 39.5093   6
   2  -1 -31 1180.79 33.7007  11
   2  -1 -31 1170.18 35.9519   6
  -1  -1 -31 1187.99 39.6724   6
   1  -2  31 1188.71 32.6950   8
   1   1  31 1240.10 32.8243   2
   1   1  31 1234.25 33.0573  11
  -1   2  31 1216.29 34.3143   3
  -1  -1 -31 1206.20 34.4580  11
   2  -1  31 1189.89 33.8969  10
  -2   1  31 1182.18 33.1442  11
  -2   2  31 1166.79 34.4524  10
   0  -2 -31 1191.21 31.9040   9
  -2   0  31 1195.93 31.2570   7
   2  -2 -31 1207.96 28.7626   9
   2  -2  31 1137.10 33.4764   8
   0  -2  31 1157.84 31.9190   5
   2   0  31 1175.14 33.3392  10
   2   0  31 1148.92 33.8359   8
   2  -2  31 1145.42 31.9874  11
  -2   0 -31 1150.80 40.5577   6
  -2   0 -31 1150.95 33.8455  11
  -2   2  31 1191.49 33.0951  11
  -2   2 -31 1128.40 38.3125   6
   2  -2  31 1164.54 30.9945   5
   2  -2 -31 1184.65 33.6871  11
  -2   2 -31 1115.54 33.2679  11
  -2   0 -31 1168.70 32.9091  12
  -2   2  31 1136.11 35.2850   3
  -2   2  31 1164.33 31.2908   8
   2   0 -31 1169.28 35.4433   6
   0   2  31 1164.27 33.6562   8
   0   2 -31 1205.81 36.6378   6
   0   2 -31 1132.17 31.1648  11
   0  -2 -31 1136.19 38.3338   6
   0  -2 -31 1108.34 33.2026  11
   2   0  31 1174.20 32.6474  11
   0  -2  31 1168.51 30.3516  11
   2   0 -31 1208.55 32.5933  11
   0  -2 -31 1172.68 31.4449   4
   2   0 -31 1165.61 30.0751   2
  -2   0  31 1173.99 31.6262   5
   0   2  31 1103.92 33.8738   3
   0   2  31 1153.92 32.0275  11
  -2   0 -31 1176.69 29.3298   4
  -2   0  31 1126.22 32.1029  10
   2   0  31 1203.90 32.4748   2
   2   0  31 1144.33 31.9180   5
   2  -2 -31 1184.87 36.3896   6
   0   2  31 1170.08 34.5165  10
  -2   3  31 163.538 11.6208   8
   2  -3  31 160.891 10.1192   5
  -2   3  31 145.629 10.0316  11
  -3   1  31 157.775 11.6759  10
  -3   2 -31 160.152 12.4622  11
  -2  -1 -31 156.992 12.5463  11
   1  -3 -31 171.841 10.5176   4
   1  -3 -31 141.850 10.8417  12
   3  -2 -31 146.294 11.2684  11
   1  -3 -31 143.448 11.4845  11
   1  -3 -31 157.099 10.0860   9
  -2  -1 -31 167.700 11.9821  12
   1  -3 -31 151.547 16.3458   6
   1   2  31 153.571 9.55914  11
   3  -1  31 161.286 11.9037   8
   3  -1  31 165.434 11.5409   2
   2   1 -31 154.077 9.43307  11
   3  -2 -31 171.932 13.8721   6
  -1  -2  31 138.662 10.1251   5
  -1   3 -31 153.133 14.5609   6
  -1   3 -31 156.485 9.41464  11
  -3   2 -31 130.736 11.8549   3
   3  -2 -31 175.194 12.6086   2
   1   2  31 167.106 12.2769  10
   2  -3  31 162.010 9.00394   9
   2  -3  31 141.133 10.5683  11
   1   2  31 139.785 11.5239   8
  -2   3  31 148.886 12.7473  10
  -2  -1 -31 151.256 16.9817   6
   3  -1  31 129.618 10.4104  11
  -3   1  31 158.059 9.18385   7
  -3   1  31 173.079 13.2003   3
   1   2  31 149.928 11.0231   2
   2  -3  31 162.722 11.9876   8
  -3   2 -31 143.804 21.9650   6
  -1  -2  31 157.498 10.4946   7
  -3   1  31 146.160 11.0782  11
  -2   3  31 127.983 12.8256   3
   3  -1  31 148.390 10.8758  10
  -3   2 -31 160.567 9.40057  12
   3  -1  31 164.029 7.96927   5
  -2  -1 -31 153.749 9.69005   4
   2   1 -31 147.075 12.8537   6
  -3   2  31 155.591 12.0936  10
  -2   3 -31 134.563 11.4967   3
   3  -2  31 109.120 9.69646  11
   3  -2  31 115.252 8.15169   5
   2  -3 -31 121.597 11.3186  11
  -1  -2 -31 121.239 10.6049  12
  -3   1 -31 126.886 11.7661  11
   2  -3 -31 134.674 9.91167   4
   2   1  31 131.290 8.34102   5
   1   2 -31 125.500 7.90913  11
  -2  -1  31 142.774 11.1779   7
   3  -1 -31 132.402 10.5738   2
   2  -3 -31 110.081 12.7819   6
  -2   3 -31 137.399 14.5263   6
  -3   1 -31 127.927 9.58513  12
  -1  -2 -31 158.390 16.2938   6
  -3   1 -31 108.235 10.8486   3
  -3   1 -31 127.673 15.1309   6
  -1  -2 -31 113.165 8.09036   7
  -1   3  31 122.475 11.5561   3
  -3   2  31 122.902 13.0790   3
   2   1  31 121.328 10.4368   8
  -2  -1  31 112.536 10.2277  10
   2   1  31 114.685 9.12459  11
  -1   3  31 135.450 9.40782  11
   3  -1 -31 127.948 9.87395  11
   2   1  31 134.088 10.7681   2
   3  -1 -31 120.439 12.6605   6
   1   2 -31 120.939 12.1352   6
  -1   3  31 140.179 11.0218   8
   1  -3  31 114.605 9.23336   5
  -1  -2 -31 123.140 9.18494   4
   3  -2  31 128.707 10.9049   2
   3  -2  31 134.414 12.1789   8
  -3   2  31 114.475 10.7141   8
  -1  -2 -31 112.777 11.1611  11
  -3   2  31 119.206 10.4688  11
  -1   3  31 128.739 12.4316  10
  -2  -1  31 117.361 9.04906   5
   2   1  31 120.870 10.4733  10
  -2   3 -31 120.290 9.80142  11
   2  -3 -31 129.047 8.62058   9
   3   0  31 50.2892 7.04943  11
   3  -3  31 56.2964 6.83896   9
  -3   3 -31 43.5133 10.8359   6
  -3   3  31 56.9564 9.74656  10
   3   0  31 35.5093 7.06336  10
  -3   0 -31 52.9285 7.64220  12
   3   0 -31 53.2879 9.24529   6
  -3   3  31 42.9480 6.73282  11
   3  -3 -31 65.2436 11.1331   6
   3  -3 -31 66.5802 8.83317  11
   0  -3 -31 59.0107 11.7792   6
  -3   0 -31 52.5153 6.39339   4
   3   0  31 57.8151 8.45412   2
   0   3 -31 61.5161 9.88320   6
  -3   0  31 51.2347 6.74101   5
  -3   0  31 49.2667 6.95270   7
  -3   0  31 46.9008 7.59008  10
  -3   3 -31 56.7841 8.63867  11
   3  -3  31 60.8320 9.50571   8
   3   0 -31 49.8303 6.69138  11
   3  -3 -31 49.7929 6.10435   9
   0  -3 -31 56.8905 8.45093  12
   3   0  31 52.7083 8.83190   8
  -3   3  31 53.5473 9.98468   3
   0   3 -31 51.3688 5.64449  11
   3  -3  31 50.8377 6.73317   5
   0  -3 -31 64.3605 9.25549  11
  -3   0 -31 38.3140 8.00411  11
   0  -3 -31 64.8792 8.22845   9
   0  -3  31 48.6828 7.37474   5
  -3   3 -31 53.3669 9.37017   3
  -3   3  31 46.4190 7.17491   8
  -3   0 -31 52.5865 12.2884   6
   0   3  31 53.3447 9.12223  10
   0  -3 -31 53.2564 7.45052   4
   3  -3  31 56.2896 7.79039  11
   0   3  31 52.1024 6.69797  11
   3   0 -31 52.2621 7.50343   2
   0   3  31 35.6241 7.63439   8
  -2  -2 -31 78.2317 14.2065   6
  -2   4 -31 77.7689 12.7952   6
   4  -2  31 63.1908 10.2207   8
  -2   4 -31 90.9796 11.4300   3
   4  -2  31 89.0155 11.5660   2
   2   2  31 76.6473 10.4161   8
  -2   4  31 84.4845 9.45105  11
   4  -2 -31 67.9111 11.3032   6
  -2  -2  31 89.8032 9.89788   5
  -4   2  31 91.9426 11.6819  10
  -4   2 -31 63.8340 14.5296  11
  -2   4 -31 77.6065 8.50096  11
   2   2 -31 74.7615 7.39039  11
   2  -4 -31 72.5643 8.51685   9
  -2  -2 -31 69.0241 8.83025   4
   4  -2 -31 100.463 11.3371   2
  -2  -2  31 57.5985 7.85713   7
  -2   4  31 83.9593 11.7009   3
  -4   2 -31 74.8526 11.9184   3
   4  -2 -31 84.9955 9.88166  11
  -2  -2 -31 108.180 11.2160  12
  -2   4  31 61.0167 9.35136   8
   2   2 -31 77.7464 18.5592   6
  -4   2  31 70.0869 11.9515   3
  -2  -2 -31 68.3770 7.89795   7
   2   2  31 72.3343 11.2874  11
  -4   2 -31 73.4046 9.07988  12
   2  -4 -31 83.7649 11.0726  11
   2   2  31 88.0644 10.1764  10
  -4   2 -31 114.092 17.1213   6
   2  -4 -31 84.8668 9.94125   4
   4  -2  31 86.0995 10.9514  11
  -4   2  31 87.9740 10.4746  11
   2  -4 -31 72.5146 8.90924  12
  -2   4  31 99.5489 12.0147  10
  -1  -3  31 52.1090 8.27941   5
   4  -1  31 45.1513 7.58384  11
  -1   4 -31 57.7859 7.19944  11
  -4   1  31 47.6554 7.62109   5
   4  -1  31 42.0900 9.70429   8
   3  -4  31 58.4949 10.1219   8
   4  -3 -31 36.1746 10.8073   2
   4  -3 -31 42.4018 11.5393   6
   4  -3 -31 47.5463 10.1149  11
  -4   1  31 57.4155 9.38629  11
  -4   1  31 52.8940 7.36198   7
   3  -4  31 55.6217 7.98529   9
   1  -4 -31 45.8523 8.43352  12
  -3  -1 -31 55.7644 11.6798  11
   1   3  31 59.6574 10.3278  10
  -3  -1 -31 28.4837 12.8924   6
  -3   4  31 43.3401 7.06805  11
  -4   3 -31 55.7081 9.39718  11
   3  -4  31 54.6520 8.08087   5
   4  -1  31 54.8422 10.3295   2
  -4   3 -31 39.2309 12.1240   6
   1   3  31 64.0841 9.13500   2
   3   1 -31 38.3393 9.24342   6
  -3  -1 -31 61.2023 8.61929   4
  -1   4 -31 50.6979 10.5146   3
  -1   4 -31 50.9851 12.0869   6
   1  -4 -31 43.1663 8.21757   4
   1  -4 -31 49.5285 8.62094   9
  -3   4  31 52.3509 12.8152   3
  -3  -1 -31 48.5541 8.47002  12
  -3   4  31 41.6441 8.86983   8
   1   3  31 39.8583 6.73306  11
   3   1 -31 51.8111 7.27862  11
  -1  -3  31 58.4509 8.00237   7
  -4   1  31 47.0583 10.7491   3
  -4   3 -31 52.4619 11.4151   3
  -3  -1 -31 59.1955 8.45691   7
  -3   4  31 51.3120 11.6185  10
   1   3  31 48.7949 9.44473   8
   4  -1 -31 24.7269 10.8380   6
  -3   4 -31 30.5556 11.4610   6
   3   1  31 53.3209 8.71737  10
  -1  -3 -31 49.6700 9.03716  12
  -4   3  31 66.6671 15.4992  11
   4  -3  31 51.2059 8.80161  11
  -4   1 -31 46.7590 7.50358  12
   3   1  31 41.7873 9.70254   2
   4  -1 -31 53.8267 9.87143   2
   3  -4 -31 37.2875 7.75099   4
   3  -4 -31 54.5072 7.42703   9
  -4   3  31 42.5780 10.8005   3
   1   3 -31 41.7759 10.3476   6
  -1   4  31 31.6577 8.23084   8
  -1   4  31 50.8981 10.3398  10
  -3  -1  31 44.8083 7.87735   7
  -4   1 -31 51.6535 10.3095  11
   3   1  31 63.1224 9.97120   8
  -1   4  31 38.6736 6.36140  11
   3  -4 -31 46.3577 10.0562  11
  -3   4 -31 46.2078 7.82049  11
  -3  -1  31 38.7047 8.29493   5
  -4   3  31 36.2859 10.3633  10
  -4   1 -31 31.4240 12.0213   6
   4  -3  31 51.3115 9.53353   8
   1  -4  31 46.4630 7.76641   5
   3   1  31 34.6161 6.50675  11
  -1  -3 -31 45.5813 12.9070   6
  -3   4 -31 25.4676 9.11145   3
   4  -1 -31 44.3606 7.54086  11
  -4   4  31 89.3341 14.8457   3
  -4   4  31 101.863 12.6882  11
   4  -4 -31 118.214 13.6553  11
   4  -4  31 101.728 11.8869   5
   0   4  31 117.074 14.2692  10
  -4   0  31 98.4332 10.9041   5
   0  -4  31 102.288 11.2406   5
   4   0  31 110.434 12.6028   2
   4   0  31 87.3034 12.3018   8
   0   4 -31 85.3028 16.7502   6
  -4   0 -31 95.2975 16.3586   6
   0  -4 -31 91.3567 11.4068   4
  -4   4 -31 80.7223 14.2964   6
  -4   4  31 102.440 12.2103   8
   0  -4 -31 113.585 12.4932   9
   0   4  31 108.599 9.85165  11
   4   0  31 86.6427 11.5299  11
   4  -4  31 124.547 14.3859   8
  -4   4  31 122.463 14.3031  10
  -4   4 -31 108.059 13.6865  11
   4   0 -31 106.644 11.2016  11
   4   0 -31 85.2857 12.9475   6
  -4   0  31 114.160 11.7657   7
  -4   0 -31 111.339 14.1287  11
  -4   0 -31 87.0232 10.8151  12
  -4   4 -31 103.579 14.3998   3
   4  -4 -31 89.6517 11.3486   4
  -4   0 -31 136.052 13.4512   7
   0  -4 -31 100.261 11.5620  12
   0   4  31 101.040 12.8997   8
   5  -3 -31 195.153 16.9914  11
  -3  -2 -31 193.110 15.4352   7
  -2  -3  31 165.487 14.6080   7
  -5   2  31 191.125 19.6360  11
  -2  -3  31 181.213 15.8321   5
   2  -5 -31 185.032 15.6981   9
  -3  -2 -31 125.048 16.2453  12
  -5   2  31 183.955 15.2876   5
  -3   5  31 195.111 14.1656  11
   5  -3 -31 164.894 17.4813   2
  -3   5  31 173.376 17.9320   8
   2   3  31 167.964 12.3328  11
  -3   5  31 199.668 20.5569  10
  -2   5 -31 187.336 19.4589   3
   5  -2  31 185.453 17.4469   8
  -3  -2 -31 194.936 16.2962   4
   2  -5 -31 193.791 16.0227   4
  -5   2  31 162.839 19.1164   3
  -3   5  31 183.529 22.2735   3
   5  -2  31 187.881 16.4847  11
   2   3  31 131.695 16.2177   2
   5  -2  31 194.028 20.3441   2
  -5   3 -31 199.512 18.7196  11
   3  -5  31 183.229 14.9283   5
  -5   3 -31 182.577 23.0064   6
   3   2 -31 166.167 18.9325   6
   2   3  31 169.411 17.4235   8
  -3  -2  31 193.252 15.7231   7
   5  -2 -31 209.635 16.4215  11
  -3   5 -31 183.333 20.0490   3
   3  -5 -31 226.740 15.8619   9
  -2  -3 -31 186.718 17.6060  12
  -3  -2  31 209.045 16.3572   5
  -5   2 -31 226.293 20.5819  11
  -2   5  31 220.487 21.0274  10
   5  -3  31 186.662 17.4380  11
   3   2  31 201.048 13.6973  11
   3   2  31 188.208 18.2450   2
   5  -2 -31 229.090 21.0972   6
  -2   5  31 195.444 13.9551  11
   3   2  31 179.217 17.5559   8
  -2   5  31 219.021 19.5891   8
   2   3 -31 214.601 20.6908   6
  -2  -3 -31 209.965 15.8073   4
  -5   2 -31 208.360 25.5824   6
  -5   3  31 213.094 22.0497   3
  -3   5 -31 243.396 22.2233  11
   5  -2 -31 204.501 20.7156   2
   5  -3  31 249.282 19.2108   8
   2  -5  31 214.244 16.3195   5
   3  -5 -31 207.506 16.7983   4
  -5   3  31 225.131 18.9650  11
   1   4  31 155.227 18.4377  10
  -5   1  31 132.518 14.0204   7
   5  -1  31 127.327 15.3011   8
  -4   5  31 129.697 14.1495  11
  -1  -4  31 155.970 14.9112   5
   1  -5 -31 139.199 15.4506   9
   1  -5 -31 140.007 16.9975  12
  -4  -1 -31 136.097 16.7697  12
   5  -1  31 116.308 14.2882  11
  -5   4 -31 127.248 15.3197  11
   5  -4 -31 129.917 15.2950  11
   4  -5  31 143.689 15.8072   5
  -4  -1 -31 117.241 13.0924   4
   1   4  31 134.577 16.1958   2
   4   1 -31 114.659 15.5626   6
  -5   1  31 145.241 17.5740   3
  -4  -1 -31 133.295 15.5257   7
  -4   5  31 137.443 17.0353  10
   4   1 -31 148.709 12.0818  11
   5  -4 -31 142.128 16.8738   2
   4  -5  31 142.599 14.6119   9
   1   4  31 140.604 16.1622   8
   1   4  31 134.294 11.7705  11
   1  -5 -31 130.452 14.3451   4
  -4   5  31 175.636 17.7835   8
  -4   5  31 132.264 17.6972   3
   5  -1  31 133.144 16.7340   2
  -5   4 -31 129.149 19.4788   3
  -1   5 -31 157.320 18.5054   3
  -5   4 -31 163.099 18.5081   6
  -1  -4 -31 162.957 16.0312   4
   1   4 -31 180.576 19.2932   6
   4   1  31 168.754 18.8069   2
   5  -4  31 160.782 17.3275   8
  -5   1 -31 185.640 15.9930  12
  -5   4  31 166.555 20.0555   3
   5  -4  31 170.538 14.5340   9
  -1   5  31 184.382 13.0842  11
  -4  -1  31 150.638 14.9221   7
  -4   5 -31 174.557 16.0038  11
   1  -5  31 154.399 15.3090   5
  -5   4  31 192.843 17.2064  11
   4   1  31 175.332 14.6971  11
  -1  -4 -31 152.582 17.5290  12
  -5   1 -31 172.740 18.2153  11
   4   1  31 175.041 19.1183   8
  -5   1 -31 166.672 15.7837   7
   5  -1 -31 179.529 19.7902   6
  -5   4  31 188.401 22.6660  10
   5  -1 -31 184.097 15.4020  11
   4  -5 -31 181.036 14.1954   9
  -4   5 -31 166.892 19.8579   3
   4  -5 -31 159.341 15.2137   4
  -1   5  31 163.521 18.0203   8
  -1   5  31 187.603 21.8824  10
   0   0 -32 3.33419 2.93245  11
   0   0 -32 7.21600 2.56968   4
   0   0  32 3.28653 3.10243   5
   0   0  32 -0.6844 3.51058  10
   0   0 -32 4.82036 5.13419   6
   0   0  32 5.91759 4.36637   8
   0   0  32 3.76038 3.26952  11
   0  -1  32 12.3410 3.42765   5
   0   1 -32 11.8560 5.72114   6
   0   1 -32 19.6458 3.90892  11
  -1   1  32 8.67235 4.29490  10
  -1   1  32 15.1324 4.12278  11
   1  -1  32 13.3412 4.53589  10
   1   0 -32 22.3378 5.72940   6
   1   0  32 12.6222 3.67719   2
  -1   0  32 14.1330 3.99429   5
   1  -1  32 24.0429 4.75268   8
  -1   0  32 10.1808 3.29958   8
  -1   0 -32 16.1340 2.81944   4
   1   0 -32 9.40987 3.39929  11
   0  -1  32 14.6573 3.67578  11
   0   1  32 14.1342 3.59226  11
  -1   1  32 12.1672 4.86616   3
   0  -1 -32 6.24453 6.59208   6
   0  -1 -32 13.0373 4.36862  11
   0  -1  32 8.97052 4.05328  10
  -1   1 -32 13.0098 1.95452   4
   1   0  32 15.2007 4.52770   8
   1  -1 -32 6.65438 5.64932   6
   1  -1 -32 13.8726 3.80650  11
   0   1  32 12.5677 4.44805   8
   1  -1 -32 7.50527 3.47837   4
  -1   0 -32 11.7215 6.21940   6
  -1   1 -32 15.2618 4.07326  11
   0   1  32 19.4093 4.92014  10
  -1   0  32 16.3975 4.93578  10
   1  -1  32 7.63873 3.02706   2
   1   0  32 9.03504 3.07945  11
   1   0  32 11.1322 3.35762   5
   0  -1  32 12.7962 3.69081   8
   1  -1  32 12.8799 3.99716  11
  -1   0 -32 13.6915 4.20226  11
   0  -1 -32 15.8564 3.51264   4
   1   0  32 9.69210 4.27737  10
  -1   1 -32 9.74832 6.05787   6
   1  -1  32 13.1505 3.53586   5
  -1   2 -32 57.7842 6.74100  11
  -1   2  32 47.8453 7.53869  10
   1  -2 -32 53.3569 7.00573  11
   2  -1 -32 58.4926 8.86948   6
  -1  -1 -32 39.0344 9.55338   6
  -1  -1 -32 49.7428 7.09932  11
   1   1  32 51.1039 6.40754   2
   1   1 -32 47.0217 7.65038   6
   1  -2  32 53.4357 6.42891   5
   1  -2  32 48.0546 6.26774   8
   1  -2  32 67.9201 6.81738  11
   1   1 -32 59.5962 6.81886  11
  -1   2 -32 52.6472 8.91164   6
  -1  -1  32 56.6806 6.33283  11
  -2   1  32 44.9824 7.17306  10
  -2   1 -32 39.2656 6.20209  11
   2  -1  32 49.9309 6.78118  10
   1  -2 -32 64.2413 6.49640   4
   1  -2 -32 42.9352 9.15882   6
   1  -2 -32 52.5393 6.00309   9
   2  -1 -32 53.2598 6.81302  11
   2  -1  32 56.5519 7.19854  11
   1   1  32 61.6928 6.49914  11
   2  -1  32 59.4374 6.99672   2
  -1   2  32 45.4971 6.37207   8
  -1  -1 -32 59.6911 5.84723   4
  -1  -1  32 62.2579 6.53905   5
   1   1  32 51.0203 7.23595  10
  -2   1  32 45.8766 5.71702   8
  -2   1  32 51.0652 7.48170   3
   2  -1  32 49.4076 7.00043   8
   2  -1  32 56.2096 5.89817   5
   1   1  32 53.5479 7.30438   8
  -2   1  32 53.6417 6.79795  11
  -1  -1  32 50.6503 6.68872  10
  -1   2  32 56.9533 7.42062   3
  -2   1 -32 48.8257 9.46739   6
   2  -2 -32 65.4368 9.52949   6
   0  -2 -32 84.6579 7.93851   9
   2  -2  32 79.7238 9.64625   8
  -2   2  32 71.2327 7.94549  11
  -2   0  32 78.6606 7.13385   7
   0  -2 -32 88.5235 12.3710   6
  -2   0  32 85.3078 9.13647  10
   2   0  32 101.236 8.84674  10
   2  -2  32 76.9499 6.82375   5
   2  -2  32 81.1833 7.99780  11
   0   2 -32 65.6407 9.68130   6
  -2   0  32 73.9424 7.36968   5
   2   0 -32 84.0939 10.5530   6
   2   0 -32 83.8907 7.60459  11
   0  -2 -32 80.6457 8.85433  11
   2  -2 -32 78.4109 5.83445   9
   0   2  32 91.7942 7.34134  11
  -2   0 -32 70.3728 11.9342   6
   2   0  32 86.5691 8.90864   2
   0   2  32 93.3170 9.19968   8
   2   0  32 81.3567 9.04317   8
   0  -2 -32 92.2431 7.26019   4
   2  -2 -32 92.3884 9.22187  11
   2   0  32 81.9265 7.74991  11
  -2   2  32 84.1818 10.1670   3
  -2   2  32 73.9374 7.91973   8
  -2   2  32 78.5047 9.44342  10
  -2   0 -32 84.8525 8.33829  12
   0  -2  32 72.8744 7.44845   5
   0   2  32 73.6830 8.92498  10
  -2   0 -32 79.8047 6.33730   4
  -2   2 -32 78.5652 8.56738  11
  -2   0  32 87.3157 8.44747  11
   0  -2  32 77.8598 7.71641   8
   0   2 -32 81.9355 7.08378  11
  -2   0 -32 79.9870 9.37297  11
  -2   2 -32 86.6031 11.2933   6
   2   0  32 86.9779 5.98518   5
   1   2  32 431.414 19.1851   8
   1  -3 -32 438.303 17.3163   4
  -3   2 -32 432.414 19.0790   3
  -3   2 -32 437.256 16.1233  12
   2  -3  32 449.289 17.1899   5
  -3   1  32 453.441 18.5381  10
   1   2  32 426.190 18.1029   2
  -1  -2  32 452.891 17.4610   5
  -2  -1 -32 448.766 16.2619   4
  -2  -1 -32 465.166 19.1027  12
  -3   1  32 456.378 15.7147   7
  -2  -1 -32 420.483 24.8563   6
  -2  -1 -32 456.113 19.5793  11
  -3   2 -32 437.019 24.0465   6
   2  -3  32 448.513 15.2043   9
  -2   3  32 410.069 17.4099  11
   1  -3 -32 448.762 17.0474   9
   3  -1  32 433.019 17.9378  11
   1   2  32 412.754 19.4011  10
  -3   1  32 428.949 20.5403   3
   1   2  32 461.480 17.0029  11
  -2   3  32 451.007 18.4408   8
   1  -3 -32 455.857 18.8253  11
  -1   3 -32 452.094 16.5716  11
   2  -3  32 449.999 18.2613   8
  -2   3  32 434.662 20.3439   3
  -1   3 -32 416.917 22.0986   6
   2   1 -32 457.264 16.4739  11
  -3   1  32 438.925 18.0139  11
   3  -1  32 436.872 19.6863   8
   1  -3 -32 425.913 18.1409  12
   3  -1  32 427.077 15.6017   5
   1  -3 -32 483.999 23.6379   6
   3  -1  32 440.668 18.1214  10
   3  -2 -32 464.218 21.1934   6
   2   1 -32 439.803 20.3802   6
   3  -1  32 437.034 18.1073   2
  -3   2 -32 442.586 19.7279  11
  -2   3  32 454.236 20.3414  10
   3  -2 -32 440.680 19.1973   2
   3  -2 -32 455.525 18.6521  11
  -2  -1  32 418.307 16.0119   5
  -1  -2 -32 376.577 14.0628   7
   2  -3 -32 397.893 21.2291   6
  -3   1 -32 359.258 22.2390   6
  -2  -1  32 408.662 16.4153  10
  -1   3  32 419.493 17.8987   8
   1   2 -32 386.521 14.4720  11
  -1   3  32 408.108 16.2741  11
   1   2 -32 412.422 19.8615   6
   2  -3 -32 397.832 16.5586   4
  -2  -1  32 389.321 15.8576   7
  -1   3  32 402.161 17.9335   3
  -3   2  32 378.219 16.9336  11
  -1  -2 -32 405.548 15.8525   4
   3  -1 -32 415.931 16.9222   2
   3  -1 -32 407.554 16.9304  11
  -1  -2 -32 398.937 18.0566  11
  -3   2  32 392.652 18.5059  10
  -2   3 -32 359.758 18.1251   3
   2   1  32 388.447 16.8824  10
  -3   2  32 390.726 14.8818   8
   3  -1 -32 385.915 19.1492   6
  -2   3 -32 394.244 17.0554  11
   2   1  32 405.604 17.4545   2
  -3   1 -32 415.489 16.2798  12
  -3   2  32 407.206 20.5593   3
   3  -2  32 399.289 16.4962   2
   1  -3  32 420.788 16.5847   5
   3  -2  32 400.317 18.9949   8
   3  -2  32 413.022 17.0353  11
  -1   3  32 413.964 19.3094  10
  -3   1 -32 403.968 18.7427  11
   2  -3 -32 374.566 17.7366  11
   2   1  32 409.364 13.6396   5
   2   1  32 405.751 16.3578  11
   3  -2  32 408.332 14.5173   5
   2   1  32 388.601 17.8275   8
  -1  -2 -32 381.523 23.2615   6
  -2   3 -32 401.791 21.6869   6
  -1  -2 -32 387.935 17.6475  12
   2  -3 -32 413.192 15.0402   9
  -3   1 -32 405.866 17.2402   3
   0  -3  32 2.83889 5.41706   5
   3   0 -32 8.03556 7.51852   6
   3   0  32 2.01416 6.46017   8
   3   0 -32 -0.1998 4.68869  11
  -3   0  32 10.2972 6.94094  10
   0   3 -32 -7.2964 7.21033   6
  -3   0  32 4.00461 4.95278   5
  -3   3  32 0.26736 4.96609  11
  -3   0  32 7.27055 5.24468   7
  -3   0 -32 9.12588 4.88297   4
  -3   0 -32 -5.5612 9.75120   6
   3  -3 -32 -0.8143 5.67552  11
   0  -3 -32 3.19233 9.69441   6
  -3   0 -32 -1.9474 5.36325  12
  -3   3 -32 12.7411 7.40210   3
   0  -3 -32 -2.6536 6.03448   9
  -3   0 -32 1.68836 7.05682  11
   0   3  32 3.54880 6.98664  10
   0   3  32 3.82875 4.13290  11
   3  -3  32 -1.9784 4.82371   5
  -3   3  32 3.23250 5.86777   8
   3  -3 -32 -1.0633 9.25899   6
   0   3 -32 6.19652 4.31131  11
   3   0  32 -0.4642 4.78100  11
   0  -3 -32 -7.8217 4.82709   4
   0  -3 -32 2.55552 7.05414  11
   3  -3  32 4.70462 6.57703   8
  -3   3 -32 -12.899 9.03306   6
   0  -3 -32 11.0561 5.88086  12
   3   0  32 -0.1185 6.45252   2
  -3   3  32 -3.6643 7.68820   3
   3   0  32 5.39822 5.83119  10
   3  -3  32 9.33518 5.24569   9
   3  -3  32 8.39782 5.98356  11
   0   3  32 -9.1077 6.06637   8
  -3   3 -32 0.15629 5.48944  11
   3  -3 -32 2.62421 4.19215   9
  -3   3  32 13.9803 7.87773  10
  -2   4 -32 634.926 28.5707   6
   2  -4  32 564.225 22.1461   5
   2   2  32 590.016 24.1373   8
  -4   2  32 603.226 24.0971  10
   4  -2  32 581.785 24.7010   2
   4  -2  32 590.880 25.3635   8
  -4   2 -32 548.771 25.6221  11
  -2   4 -32 597.508 25.4688   3
   2  -4 -32 576.864 23.1287   4
  -4   2  32 583.749 27.1487   3
  -2  -2 -32 617.339 21.9791   4
  -4   2 -32 612.626 25.6232   3
  -2   4 -32 581.478 20.9483  11
  -2   4  32 598.134 22.1500  11
   2   2 -32 598.303 18.6604  11
  -2  -2 -32 552.242 23.5506  12
   2   2  32 553.185 23.6815   2
   4  -2 -32 592.802 24.6484   2
   4  -2 -32 591.088 25.9830   6
  -2   4  32 551.346 25.5603  10
   2  -4 -32 641.654 25.4019  11
  -4   2  32 584.229 23.6380  11
  -4   2 -32 597.727 20.4974  12
   2  -4 -32 582.673 21.7766  12
  -4   2 -32 542.344 32.6355   6
   4  -2  32 548.700 23.0206  11
   4  -2 -32 584.203 23.1920  11
  -2  -2 -32 592.368 20.3822   7
   2  -4 -32 621.723 21.7953   9
  -2  -2  32 548.631 21.2842   5
  -2  -2  32 598.454 22.4620   7
   2   2 -32 599.530 25.9414   6
   2   2  32 584.376 21.3253  11
  -2   4  32 638.312 25.5885   3
  -2  -2 -32 577.166 30.8896   6
   2   2  32 610.174 23.4731  10
  -4   1  32 297.903 14.3428   7
  -4   3 -32 261.276 22.4825   6
   1   3  32 301.655 16.9197   2
   1   3  32 273.007 14.0171  11
   4  -3 -32 260.463 20.7398   6
   4  -1  32 257.626 17.3678   8
   4  -1  32 273.598 18.4588   2
   1  -4 -32 287.828 16.5527   4
  -3  -1 -32 260.330 16.3969  12
  -1   4 -32 338.747 23.5266   6
  -3   4  32 300.280 17.7223   8
  -4   3 -32 296.117 18.3919  11
  -3   4  32 234.675 29.2155   3
  -1   4 -32 255.973 17.9519   3
  -3  -1 -32 316.043 24.8728   6
   3   1 -32 298.759 19.8444   6
   3   1 -32 291.205 14.0814  11
   1   3  32 282.028 18.3990  10
  -3  -1 -32 316.668 15.4927   4
  -1  -3  32 257.971 15.4668   5
   3  -4  32 287.483 14.6752   9
  -3   4  32 253.625 14.9966  11
   1  -4 -32 295.640 16.4771   9
   1  -4 -32 274.198 16.3638  12
  -4   1  32 260.520 19.0800   3
  -4   3 -32 290.373 20.1506   3
  -4   1  32 294.819 14.8507   5
  -3   4  32 270.848 19.4462  10
   1   3  32 269.235 18.0220   8
   3  -4  32 282.076 19.2489   8
  -4   1  32 295.069 22.9046  11
  -1   4 -32 306.793 12.3325  11
   4  -1  32 269.267 16.1095  11
   4  -3 -32 291.831 17.4661  11
  -3  -1 -32 303.598 15.9332   7
  -4   3  32 253.418 20.0188   3
   3   1  32 284.087 17.4232   8
   3  -4 -32 290.090 14.3921   9
   4  -1 -32 237.560 15.0502  11
   4  -3  32 291.567 18.0169   8
  -3   4 -32 257.062 18.7898   3
  -3   4 -32 302.881 21.3562   6
  -4   1 -32 261.272 22.3387   6
   4  -3  32 306.758 17.5849  11
  -1   4  32 277.694 18.8262  10
  -4   1 -32 313.901 15.7388  12
   3   1  32 259.712 14.6774  11
   3   1  32 302.937 15.8229  10
  -3  -1  32 270.686 14.8372   5
  -1  -3 -32 314.721 23.5622   6
   4  -1 -32 291.553 18.1418   2
  -4   3  32 295.040 17.0847  11
  -4   1 -32 261.188 18.9512  11
   3  -4 -32 294.116 18.5089  11
  -1   4  32 273.197 13.9745  11
  -1  -3 -32 299.954 15.6007   4
  -3   4 -32 265.958 15.7834  11
  -1  -3 -32 288.615 17.6004  12
   1  -4  32 296.644 15.9763   5
   1   3 -32 217.911 24.5516   6
  -1   4  32 268.698 17.2758   8
  -4   3  32 284.973 19.7489  10
   4  -1 -32 264.970 19.5654   6
  -3  -1  32 281.395 14.8569   7
   3  -4 -32 274.157 15.5989   4
   3   1  32 264.988 17.5414   2
  -4   4  32 34.9400 11.0053   8
   0  -4 -32 32.7298 8.42049   4
   0   4  32 41.1680 6.90754  11
   0   4  32 30.7221 10.8738  10
   0  -4 -32 23.2852 9.57657   9
   4   0 -32 31.8245 7.21610  11
   4   0  32 9.43515 6.76402  11
  -4   0 -32 24.4925 11.1229  11
   4  -4 -32 40.3154 10.7578  11
   4   0 -32 35.7154 9.95088   6
   4  -4  32 24.7900 9.62794   8
   0  -4  32 33.7033 8.51300   5
  -4   0 -32 43.0873 14.9693   6
  -4   0 -32 15.8255 8.22297   7
   4  -4 -32 38.5419 8.55018   4
  -4   4 -32 27.6012 13.1732   6
   4   0  32 29.2677 9.40597   8
   0   4  32 42.8494 9.45911   8
  -4   4  32 47.6818 12.7522   3
   0  -4 -32 32.7718 9.00144  12
  -4   4  32 16.6019 10.9631  10
   4   0  32 39.4899 10.2114   2
   4  -4  32 18.5821 9.48895   9
  -4   0 -32 19.8389 8.14767  12
  -4   4 -32 40.2713 12.3680   3
  -4   0  32 25.5106 7.64434   7
  -4   4  32 26.5805 8.11870  11
   4  -4  32 20.3047 8.93201   5
  -4   4 -32 18.5974 8.86173  11
   0   4 -32 12.2510 11.6723   6
  -5   3 -32 541.697 31.2460   6
  -3  -2 -32 542.136 22.2394   7
  -5   3 -32 523.221 27.1884  11
   5  -2  32 500.695 26.4554   8
  -2  -3  32 531.503 23.4657   5
   2  -5 -32 478.651 23.5131   4
  -5   2  32 504.965 29.2125   3
   5  -3 -32 554.260 28.1728   2
  -3   5  32 530.046 29.7224   3
  -2   5 -32 443.326 28.0232   3
   2   3  32 475.205 24.4931   2
   3   2 -32 522.951 27.2228   6
  -5   2  32 532.790 22.8172   5
   5  -2  32 548.295 28.2794   2
  -3   5  32 491.054 27.6934  10
  -3   5  32 482.360 22.0566  11
  -5   2  32 537.613 31.6292  11
   2   3  32 524.575 20.4414  11
   3  -5  32 527.126 23.1990   5
  -3  -2 -32 523.898 25.8425  12
   5  -3 -32 498.947 24.4922  11
  -3  -2 -32 507.507 24.3571   4
  -3   5  32 517.629 24.7501   8
   2   3  32 479.568 25.5581   8
   5  -2  32 483.441 24.2864  11
  -2  -3  32 491.029 22.9794   7
   2  -5 -32 563.844 24.7600   9
   2  -5  32 504.472 22.9193   5
   3  -5 -32 526.170 22.5864   9
  -3   5 -32 495.853 20.6839  11
   5  -3  32 470.896 25.5470   8
   5  -3  32 487.484 24.6405  11
  -3  -2  32 470.863 22.4102   7
   5  -2 -32 476.712 27.2964   6
   2   3 -32 470.885 26.2256   6
  -5   3  32 483.104 28.4191   3
  -2   5  32 421.495 25.1253   8
   3   2  32 480.807 25.1622   8
  -2  -3 -32 487.765 22.3685   4
  -5   3  32 486.019 24.4048  11
   3  -5 -32 485.939 23.0246   4
  -2   5  32 479.396 20.9812  11
  -3   5 -32 510.315 28.5980   3
   3   2  32 431.672 25.7071   2
   3   2  32 482.488 20.8491  11
   5  -2 -32 482.077 26.1590   2
  -2   5  32 466.592 27.5979  10
  -3  -2  32 497.120 22.1504   5
  -2  -3 -32 494.482 25.2912  12
  -5   2 -32 497.297 32.2901   6
  -5   2 -32 556.551 27.6227  11
   5  -2 -32 482.164 23.3097  11
  -5   1  32 185.514 14.7281   7
  -1   5 -32 139.288 16.2649   3
  -5   1  32 120.019 17.0351   3
   5  -1  32 108.975 14.5328  11
  -4   5  32 113.453 14.2210  11
   4   1 -32 118.610 12.6733  11
   1   4  32 160.467 16.3649   2
   1   4  32 136.892 12.1504  11
  -5   4 -32 131.343 15.1566  11
  -5   4 -32 129.007 19.8546   3
  -5   4 -32 155.565 18.5351   6
   4  -5  32 140.728 14.2502   5
  -4  -1 -32 153.099 16.4589  12
  -4   5  32 119.904 17.7761   3
  -4   5  32 108.957 17.3933  10
  -4   5  32 180.783 19.6315   8
   1  -5 -32 156.212 17.1293  12
   5  -1  32 109.026 13.9119   8
  -1  -4  32 141.063 14.8406   5
   1   4  32 166.142 18.9068  10
   1  -5 -32 127.313 13.7904   4
   5  -4 -32 137.399 18.2927  11
   1   4  32 159.332 18.3421   8
   1  -5 -32 151.514 17.7005   9
  -4  -1 -32 93.5086 12.5074   7
   5  -1  32 125.100 16.6187   2
   4   1 -32 106.530 15.0487   6
  -1   5  32 171.188 18.3144   8
  -1  -4 -32 136.566 17.2244  12
   4   1  32 162.034 14.5174  11
   1  -5  32 168.871 15.5188   5
  -4  -1  32 144.416 14.2386   7
  -4   5 -32 165.479 19.8399   3
  -4   5 -32 130.165 15.2974  11
  -1   5  32 146.846 17.1660  10
  -5   4  32 185.569 22.6770  10
   4  -5 -32 125.943 14.8152   4
  -1  -4 -32 181.765 16.0285   4
   1   4 -32 141.427 17.7807   6
  -5   1 -32 143.080 17.3843  11
   4   1  32 132.689 15.2884   8
  -5   1 -32 141.701 17.8608  12
   5  -1 -32 172.891 21.0343   6
  -5   4  32 178.485 16.9424  11
   4   1  32 137.944 16.4946   2
   5  -4  32 141.004 17.6945   8
  -5   4  32 161.192 19.2880   3
   5  -4  32 163.005 14.3743   9
  -5   1 -32 137.728 15.7991   7
  -1   5  32 151.165 12.7856  11
   5  -1 -32 137.781 15.0617  11
   0   0  33 -3.6850 3.83741  10
   0   0 -33 -1.7409 3.11050  11
   0   0  33 -0.0237 2.95101  11
   0   0 -33 0.36994 5.35941   6
   0   0 -33 -0.4677 2.22305   4
   0   0  33 -1.9983 4.08899   8
   0   0  33 1.17288 3.13772   5
   1  -1  33 8.40268 3.90271  11
  -1   0  33 7.58024 3.39531   5
   1  -1 -33 11.7939 6.42455   6
   0  -1  33 8.42945 3.73625   5
   1  -1  33 5.71057 4.47957  10
  -1   1 -33 7.50636 6.60831   6
  -1   1 -33 12.1894 3.71329  11
  -1   0  33 18.6616 3.63205   8
  -1   1  33 26.5080 5.67274  10
   0  -1 -33 14.3247 7.34351   6
   0  -1 -33 12.8065 3.52445   4
   1   0  33 14.3218 3.95853  11
   0  -1  33 19.7380 4.13923  11
   0  -1 -33 10.5719 4.20194  11
  -1   0  33 12.4658 4.98078  10
  -1   0  33 11.9140 3.89525  11
   1   0 -33 18.4092 5.74544   6
   1   0 -33 11.6098 3.54377  11
   1  -1 -33 18.2792 4.01588   4
   1  -1 -33 15.5242 4.39038  11
   1  -1  33 12.8038 4.75895   8
   0  -1  33 21.1019 4.10767   8
   0   1 -33 2.83539 5.16540   6
  -1   1  33 6.25734 4.89002   3
   0  -1  33 7.06152 4.52487  10
   1  -1  33 13.4940 3.31272   2
   0   1  33 10.7348 4.61464  10
   1   0  33 22.0625 5.29851  10
  -1   0 -33 10.9524 3.76548  11
  -1   0 -33 11.9749 2.96745   4
   1   0  33 12.9487 3.65071   5
   1   0  33 8.63136 4.67654   8
  -1   0 -33 20.3448 7.91470   6
   0   1  33 16.0144 4.77381   8
  -1   1  33 10.2827 4.49786   8
   0   1  33 14.8470 3.84151  11
   0   1 -33 14.2580 3.59427  11
   1  -1  33 16.1728 3.87790   5
   1   0  33 15.6823 4.28152   2
  -1  -1  33 32.1589 5.35110   5
  -2   1  33 25.7287 4.49098   8
  -1  -1 -33 23.6967 4.46219   4
   1  -2  33 22.8760 4.80670  11
   2  -1  33 25.5418 4.76242  11
  -1  -1 -33 19.7504 9.32434   6
   1  -2  33 26.8133 5.51858   8
   1  -2 -33 27.6685 5.16943   4
  -1   2  33 27.9143 5.72442   8
  -1   2 -33 24.3751 7.65892   6
   1   1  33 22.1067 5.96293   8
   1   1 -33 25.0934 4.66940  11
   1  -2  33 18.1857 4.60071   5
   2  -1 -33 26.6132 7.57080   6
  -2   1  33 16.4984 6.09259  10
   1   1  33 29.0875 5.48743   2
  -2   1  33 22.9680 6.30605   3
   1  -2 -33 2.37080 7.60348   6
  -1  -1  33 24.5276 4.68283  11
   1   1  33 23.3106 4.50767  11
  -2   1 -33 18.5930 5.29622  11
   2  -1  33 21.5115 5.30862   2
  -1   2  33 18.9422 5.60305   3
   2  -1  33 19.6135 5.86921   8
   1   1 -33 14.4788 6.31779   6
  -1  -1  33 27.9999 5.74844  10
  -1   2 -33 28.2217 5.25377  11
   2  -1  33 20.6674 4.24749   5
   1  -2 -33 30.6934 4.72087   9
  -2   1  33 27.1270 5.37290  11
   1  -2 -33 26.7139 5.75988  11
  -1   2  33 28.1697 6.44124  10
   1   1  33 27.7925 6.36663  10
  -2   1 -33 19.9620 8.09821   6
   2  -1 -33 22.7618 5.32011  11
   2  -1  33 19.5793 5.42027  10
  -1  -1 -33 21.8469 5.81093  11
   2  -2 -33 354.181 13.0570   9
  -2   2  33 348.262 17.4295   3
   0   2  33 353.462 16.8832  10
   2  -2  33 318.506 14.1828  11
   2  -2 -33 357.969 19.2453   6
  -2   2 -33 368.236 15.8988  11
   2  -2  33 334.009 13.2956   5
   0  -2 -33 342.580 13.5547   4
   2   0  33 343.610 15.9498   8
  -2   0 -33 337.236 11.7989   4
  -2   0 -33 349.812 15.2099  12
   2   0  33 322.227 14.3962  11
   2  -2  33 356.308 16.2062   8
   2   0  33 351.442 12.0510   5
   2   0  33 347.304 15.1585   2
  -2   2  33 338.496 14.0085   8
   0   2  33 334.508 13.9623  11
   0   2  33 340.490 15.6418   8
   2  -2 -33 348.368 15.9760  11
  -2   0  33 362.070 14.7234  11
  -2   0  33 334.021 13.3611   7
   0  -2  33 346.930 14.4682   5
  -2   0 -33 338.173 21.2419   6
  -2   2  33 352.206 15.2282  11
   2   0 -33 351.030 14.6292  11
   0  -2 -33 333.093 15.7097  11
  -2   0  33 338.376 15.2898  10
   2   0  33 349.445 15.5776  10
   0   2 -33 336.104 18.3099   6
   0   2 -33 341.600 13.6749  11
  -2   0 -33 335.140 16.2253  11
  -2   0  33 326.022 13.6441   5
   0  -2 -33 385.197 21.2667   6
  -2   2  33 337.607 16.5665  10
  -2   2 -33 353.816 20.8657   6
   2   0 -33 329.086 17.3537   6
  -2   3  33 70.7688 8.55777   8
  -2  -1 -33 79.0504 9.80228  11
   3  -2 -33 65.3395 10.3151   6
   1  -3 -33 66.8256 8.41659   4
  -3   2 -33 71.6432 8.96764  11
  -3   1  33 52.9966 9.54673   3
  -3   1  33 61.4384 6.95036   7
   3  -1  33 61.7557 6.81944   5
   3  -2 -33 66.8807 8.67490  11
   3  -1  33 71.7736 8.99343  11
   1   2  33 82.2805 9.79506   8
   1   2  33 74.2899 9.31729  10
   3  -1  33 82.6444 10.5127   8
   1  -3 -33 62.9378 7.62359   9
  -1   3 -33 78.9460 7.99229  11
  -2   3  33 62.5797 9.62374  10
  -3   2 -33 53.3405 8.74626   3
  -1  -2  33 71.7354 8.00217   5
  -2   3  33 59.3794 9.49075   3
  -3   2 -33 40.2456 11.5624   6
  -2   3  33 75.2664 8.50865  11
  -3   1  33 59.4868 8.85252  10
   2   1 -33 61.0420 9.66691   6
  -3   1  33 62.7467 8.43608  11
   2   1 -33 71.4759 7.51472  11
  -2  -1 -33 54.7850 12.4974   6
   3  -1  33 64.3227 8.46513  10
   1   2  33 60.6864 7.48677  11
   1  -3 -33 66.7045 8.74011  12
   2  -3  33 68.2138 7.10959   9
   1  -3 -33 64.3239 8.70989  11
   1  -3 -33 84.3767 12.9361   6
   2  -3  33 57.6043 8.60881   8
   2  -3  33 77.5094 8.58476   5
  -2  -1 -33 66.4767 7.31695   4
   3  -1  33 57.4710 8.45664   2
  -3   2 -33 70.5075 8.04414  12
  -2  -1 -33 88.3037 10.3501  12
  -1   3 -33 63.0232 10.7058   6
   1   2  33 69.4222 8.48034   2
  -1  -2 -33 46.3972 6.88760   4
   2  -3 -33 42.3923 7.25606   4
   3  -1 -33 45.0493 7.45154   2
   2   1  33 54.6411 7.91668  10
  -3   2  33 28.6240 8.48101   3
  -1   3  33 45.1966 8.30333   3
  -3   2  33 52.7128 8.93312  10
   1   2 -33 53.0268 9.50167   6
  -1  -2 -33 47.6420 8.38313  11
   1  -3  33 44.8396 6.59821   5
  -3   1 -33 46.1874 8.32877   3
   2  -3 -33 43.5051 8.16319  11
   3  -2  33 45.7966 6.05139   5
  -2   3 -33 48.3802 7.39882  11
  -1  -2 -33 53.6465 11.7166   6
  -2  -1  33 40.8887 6.34441   5
   2   1  33 44.6740 6.36517  11
   3  -2  33 48.2150 7.43690  11
  -2   3 -33 50.7001 8.60957   3
   2  -3 -33 49.9262 11.0803   6
   2  -3 -33 51.2684 6.43579   9
  -1  -2 -33 47.2657 6.03473   7
  -3   1 -33 40.3706 7.56151  11
  -2  -1  33 46.6362 6.69009   7
   1   2 -33 52.5368 6.94682  11
  -2   3 -33 33.5956 9.90523   6
   3  -2  33 42.4029 7.87784   2
  -3   1 -33 37.0405 10.7012   6
  -1  -2 -33 42.0460 7.67946  12
   2   1  33 44.4177 5.01275   5
   2   1  33 40.3988 7.72807   8
   3  -2  33 50.4152 8.55843   8
  -1   3  33 51.4797 8.18800   8
   3  -1 -33 32.3158 8.51728   6
  -1   3  33 40.8604 6.72047  11
  -1   3  33 44.6429 8.11158  10
  -2  -1  33 37.8455 7.25883  10
   3  -1 -33 47.3108 7.04885  11
   2   1  33 41.6131 8.09431   2
  -3   1 -33 53.9686 7.24533  12
  -3   2  33 49.0517 7.71223  11
  -3   3 -33 388.195 18.5470  11
   3  -3  33 399.252 15.5643   9
  -3   0 -33 390.671 18.0582  12
   0  -3 -33 381.955 22.8708   6
  -3   3  33 424.529 17.4917   8
   0   3  33 387.179 16.3393  11
   3  -3  33 410.107 17.8578  11
   3  -3  33 397.095 20.1514   8
  -3   3 -33 372.460 23.4337   6
  -3   0  33 384.093 16.2476   5
  -3   3  33 417.565 21.3147   3
   0   3  33 407.858 19.6920  10
  -3   3  33 384.643 17.8901  11
   3   0  33 386.639 19.2738   8
  -3   0 -33 392.716 19.8770  11
  -3   3 -33 412.551 20.6460   3
  -3   3  33 401.099 20.2723  10
   3  -3  33 418.423 15.9129   5
   0  -3  33 421.464 17.6152   5
   0  -3 -33 380.147 19.3248  11
  -3   0  33 375.266 16.0924   7
   3   0 -33 390.445 20.5012   6
   3   0 -33 376.409 16.6875  11
   0   3  33 393.091 19.1015   8
   0  -3 -33 385.785 18.4885  12
   3  -3 -33 422.915 22.6350   6
   0  -3 -33 402.841 18.2563   9
   3   0  33 369.746 17.1047  11
   3   0  33 391.442 17.0539  10
   3  -3 -33 402.423 18.9000  11
   0   3 -33 379.756 21.5171   6
   0  -3 -33 387.186 16.7500   4
  -3   0  33 385.935 18.5769  10
  -3   0 -33 419.331 25.7610   6
   0   3 -33 418.578 14.6896  11
   3   0  33 388.460 18.7840   2
  -2  -2 -33 51.0026 8.72401   4
   2  -4 -33 39.9463 8.06173  12
  -4   2 -33 55.6856 12.0011   3
  -2  -2  33 44.5044 8.27425   7
  -2   4 -33 62.4193 8.05252  11
   2   2 -33 48.5217 10.5433   6
   2   2  33 42.8093 9.22418   2
  -2   4  33 53.4913 9.82478   8
  -2   4  33 44.3747 7.00955  11
  -2  -2 -33 60.5742 9.60239  12
  -2   4  33 22.9303 13.4942   3
  -4   2  33 74.2743 12.5112   3
   2   2  33 55.7890 12.5139  10
   4  -2  33 59.7323 10.8283   2
   4  -2 -33 37.9616 9.66075   2
  -2   4 -33 49.0541 12.7400   6
   4  -2 -33 51.6010 8.49690  11
  -4   2 -33 39.9048 8.88900  11
   2  -4 -33 54.2316 10.3489  11
   2  -4  33 47.8422 8.70475   5
   4  -2 -33 38.7793 10.9799   6
   2   2  33 41.6064 7.07826  11
  -4   2 -33 49.0242 7.70943  12
  -4   2  33 66.8828 9.73520  11
  -2   4  33 31.8714 9.45594  10
   4  -2  33 43.9430 9.87857   8
  -2  -2 -33 52.8563 7.58404   7
  -2   4 -33 47.9594 9.76897   3
  -4   2  33 42.7995 10.5292  10
  -2  -2 -33 45.5683 15.5528   6
  -4   2 -33 58.4427 14.0797   6
   2   2  33 68.4361 10.3083   8
   2   2 -33 61.0942 7.46188  11
   2  -4 -33 47.0181 7.80394   9
   2  -4 -33 57.3543 9.02960   4
  -3  -1 -33 671.306 26.8016  12
   4  -3 -33 690.917 30.1524   6
  -3  -1 -33 722.833 25.4155   4
   3   1 -33 594.265 25.9881  11
   4  -1  33 731.216 26.5624  11
   3   1 -33 671.835 29.0399   6
  -3  -1 -33 721.416 35.5638   6
  -3   4  33 658.624 25.2528  11
   4  -1  33 694.305 27.7219   8
   1   3  33 678.409 26.4003   2
   4  -3 -33 709.280 27.2658  11
  -1   4 -33 724.103 31.5233   6
   4  -1  33 721.251 28.0442   2
   4  -3 -33 651.091 27.7884   2
   1   3  33 657.838 23.3329  11
   3  -4  33 720.903 25.2214   5
  -4   1  33 658.114 25.6574   5
  -4   1  33 678.753 29.7641   3
  -4   1  33 732.039 23.7174   7
   1   3  33 688.732 28.2524   8
  -4   3 -33 735.100 29.7347   3
  -3   4  33 746.364 36.9188   8
   1  -4 -33 745.468 26.7107   9
   1  -4 -33 715.497 26.0839   4
  -1   4 -33 725.595 21.1635  11
  -4   3 -33 743.008 28.5310  11
  -1  -3  33 683.645 25.0386   5
  -3   4  33 677.123 29.5487   3
   1   3  33 681.557 29.4037  10
  -3   4  33 708.402 29.3722  10
  -1   4 -33 673.599 28.4786   3
   3  -4  33 741.484 26.5374   9
   4  -3  33 654.198 27.0553   8
  -1   4  33 656.843 27.1330   8
   4  -1 -33 665.050 24.8621  11
   3  -4 -33 689.168 22.8670   9
   1  -4  33 661.200 24.9284   5
  -4   3  33 690.938 29.8714   3
  -1   4  33 631.688 27.9606  10
   4  -1 -33 633.710 28.1866   6
   3   1  33 660.686 24.3341  11
  -4   3  33 655.394 26.2785  11
  -4   1 -33 668.969 33.0546   6
   4  -1 -33 739.623 26.4280   2
   1   3 -33 644.874 29.1408   6
  -4   3  33 768.078 29.0899  10
  -1  -3 -33 721.631 32.3762   6
  -3  -1  33 691.074 24.4390   7
  -4   1 -33 725.758 24.9078  12
  -1  -3 -33 657.257 26.8668  12
   3   1  33 653.390 27.0749   8
  -4   1 -33 648.109 41.5659  11
  -1   4  33 655.364 23.5129  11
   3   1  33 720.486 24.7489  10
   3   1  33 682.947 27.6303   2
  -3   4 -33 674.380 25.4028  11
   3  -4 -33 653.975 25.2939   4
   3  -4 -33 707.784 27.8572  11
  -3   4 -33 668.175 31.0368   6
   4  -3  33 697.930 26.4332  11
  -3   4 -33 683.002 29.1697   3
  -1  -3 -33 652.693 24.3306   4
  -4   4 -33 539.332 28.3280   3
  -4   4 -33 544.970 24.7527  11
   4  -4  33 542.489 21.1870   9
  -4   4  33 553.561 28.9364   3
  -4   4  33 518.134 23.4941  11
   4  -4  33 490.518 26.8184   5
   0   4  33 544.722 25.4871   8
   4   0 -33 557.486 26.8907   6
   4   0  33 548.319 22.9791  11
  -4   4 -33 514.729 33.1279   6
   0   4  33 522.120 26.3105  10
   0  -4 -33 541.511 24.0409  12
   4   0  33 507.573 25.3811   2
  -4   0 -33 503.626 32.4571   6
  -4   4  33 560.800 27.7918  10
   0  -4 -33 562.816 23.9658   4
  -4   0  33 526.035 21.7592   7
   0   4  33 531.162 20.3394  11
   4  -4  33 543.679 25.6525   8
   4  -4 -33 541.272 22.5935   4
   0  -4 -33 545.295 24.6664   9
   4   0  33 494.489 25.0496   8
   0  -4  33 562.528 23.2734   5
   4   0 -33 557.595 21.7052  11
  -4   0 -33 549.389 23.3517   7
   0   4 -33 588.458 29.3175   6
  -4   0  33 549.521 21.6348   5
   4  -4 -33 572.031 26.0725  11
  -4   0 -33 521.809 23.5811  12
   2   3  33 34.2968 11.2312   2
   5  -3 -33 12.9430 12.3599   2
   3  -5  33 39.6623 9.94805   5
   5  -2  33 32.4636 11.3494   8
  -3  -2 -33 37.4010 10.3299   4
   3   2 -33 20.8751 11.8257   6
   2  -5 -33 23.9338 10.2738   9
  -3   5  33 24.9649 8.02539  11
  -5   3 -33 52.2240 16.0955   6
   5  -3 -33 33.7087 9.71054  11
   5  -2  33 58.7631 14.0575   2
   2   3  33 20.3960 7.13796  11
  -3   5  33 35.9203 10.9086   8
  -5   2  33 43.2047 14.2978   3
  -3  -2 -33 20.0891 10.2261  12
   5  -2  33 37.1404 9.63466  11
  -2  -3  33 40.1917 10.6227   5
   2  -5 -33 52.3768 11.1680   4
   2   3  33 51.2733 11.0434   8
  -3  -2 -33 32.4361 9.63461   7
  -2   5 -33 36.2395 13.1135   3
  -5   3 -33 41.9845 11.4466  11
  -3   5  33 43.1631 14.2141   3
  -3   5  33 26.3822 13.2923  10
  -2  -3  33 30.0479 8.95557   7
  -5   2  33 39.1687 10.0137   5
  -2  -3 -33 54.0261 11.2141  12
   3   2  33 27.3709 11.7372   2
   2  -5  33 57.0182 10.9611   5
  -5   2 -33 58.3122 13.0145  11
  -3   5 -33 48.0785 13.1280   3
   3   2  33 26.6772 12.0561   8
   2   3 -33 32.0427 12.8793   6
   3  -5 -33 26.0335 9.90983   4
  -2  -3 -33 33.9782 9.94147   4
   3  -5 -33 44.5777 10.2798   9
  -5   2 -33 54.7705 16.5213   6
  -3  -2  33 34.1502 9.46007   7
  -3   5 -33 48.3015 8.86866  11
  -5   3  33 47.1108 11.3696  11
  -2   5  33 66.2184 12.2827   8
  -2   5  33 75.0358 15.1859  10
   5  -2 -33 31.2494 13.4164   6
  -3  -2  33 51.4435 10.4907   5
  -5   3  33 52.3401 14.7246   3
   5  -3  33 41.8112 12.1684   8
   5  -2 -33 63.0031 10.5353  11
   5  -2 -33 78.1443 13.4122   2
   5  -3  33 48.8146 11.1138  11
  -2   5  33 32.8854 8.18512  11
   3   2  33 54.5892 9.20259  11
   4  -5  33 181.031 16.2284   5
   1   4  33 133.920 15.7366   8
  -4  -1 -33 170.466 17.0111   7
  -4   5  33 144.402 15.5628  11
   5  -1  33 157.913 17.6732   2
   1   4  33 171.061 18.3751   2
  -5   4 -33 204.910 25.1809   3
   4   1 -33 198.072 13.5732  11
   1   4  33 189.365 13.6491  11
  -4   5  33 218.189 24.1905  10
   5  -1  33 186.703 19.1005   8
   1  -5 -33 192.828 19.3226   9
  -4  -1 -33 210.783 18.1868  12
  -5   1  33 258.831 23.7741   3
  -4   5  33 174.482 19.9929   8
  -4   5  33 157.780 19.9854   3
   1  -5 -33 155.283 17.8753   4
   4   1 -33 174.297 20.7899   6
   5  -1  33 178.940 16.0081  11
  -5   4 -33 184.678 21.1548   6
  -1   5 -33 189.830 19.7010   3
   5  -4 -33 201.576 19.8847  11
   1  -5 -33 174.576 17.7291  12
  -5   4 -33 188.410 18.9658  11
   1   4  33 174.649 17.4765  10
  -1  -4  33 179.328 17.3013   5
   4   1  33 143.569 17.0773   2
  -5   4  33 150.425 17.0159  11
   5  -1 -33 172.147 21.5981   6
  -4   5 -33 174.891 21.3119   3
   5  -4  33 176.909 15.3211   9
   1   4 -33 221.688 23.1272   6
  -1   5  33 148.221 17.9615  10
   4   1  33 180.706 18.2190   8
  -1   5  33 146.394 13.2973  11
   1  -5  33 184.456 16.2877   5
  -1  -4 -33 179.549 18.4823  12
  -4   5 -33 141.201 15.9892  11
  -1  -4 -33 148.595 16.1610   4
  -5   4  33 155.853 20.0354   3
  -5   4  33 236.111 23.6852  10
   4   1  33 168.319 15.0378  11
  -1   5  33 176.832 18.5256   8
   5  -1 -33 146.773 15.7261  11
   4  -5 -33 172.576 15.4198   4
   5  -4  33 123.078 14.6494   8
  -5   1 -33 166.337 16.6355   7
  -5   1 -33 178.120 18.8659  11
  -4  -1  33 169.527 15.7472   7
   0   0 -34 0.22960 2.55250   4
   0   0  34 2.19914 4.17336  10
   0   0 -34 2.08152 5.95244   6
   0   0  34 -0.9911 3.83640   8
   0   0  34 3.34631 3.15646   5
   0   0  34 -2.8383 3.03502  11
   0   0 -34 -1.6232 3.01516  11
   1  -1  34 33.5486 6.06811  10
   0  -1 -34 32.0102 5.99128  11
   1  -1  34 42.8052 6.15635   8
   0   1 -34 44.9672 6.02776  11
   1   0  34 31.9394 5.21878  11
   1  -1  34 40.6178 5.06280   5
   1   0  34 39.8125 5.10434   5
   0  -1 -34 30.4077 8.41182   6
   0  -1 -34 38.8650 4.69977   4
   0   1 -34 22.8088 7.11972   6
  -1   0  34 39.2831 4.61599   8
   1  -1  34 32.0633 5.07977  11
   0  -1  34 32.9930 4.76587   5
  -1   1 -34 37.2145 5.75291  11
   1   0 -34 29.2346 7.19124   6
  -1   1  34 38.3905 6.58974  10
  -1   0 -34 44.8991 4.22809   4
  -1   1  34 28.6246 5.40678   8
  -1   1  34 38.2234 6.88828   3
   1   0 -34 32.5488 5.38446  11
  -1   0 -34 32.3235 6.00999  11
  -1   0 -34 21.6480 8.27359   6
   1   0  34 34.3470 6.19683  10
  -1   1 -34 39.1155 8.47621   6
   1  -1  34 41.2210 5.14173   2
  -1   0  34 24.4439 6.00228  10
   0   1  34 28.3941 4.56258  11
   0  -1  34 34.1451 5.06859   8
   0  -1  34 24.4719 5.43268  10
  -1   0  34 36.6251 5.56114  11
   1   0  34 40.6637 6.32193   8
   0   1  34 33.2098 6.03023   8
   0   1  34 31.6871 5.99926  10
   1  -1 -34 34.6484 4.96400   4
   1  -1 -34 30.5318 7.79631   6
   1  -1 -34 26.4655 5.08931  11
  -1   0  34 23.1143 4.45546   5
   1   1  34 699.580 23.8481   8
   2  -1  34 690.811 22.5438  11
   2  -1 -34 667.330 25.9163   6
   2  -1  34 686.422 20.1744   5
   1   1  34 690.076 22.1588   2
  -2   1 -34 649.164 28.4353   6
  -1  -1 -34 676.022 23.6934  11
   1   1 -34 672.985 22.0255  11
   2  -1  34 647.735 23.0377  10
  -1  -1  34 694.225 22.9436  10
   1  -2 -34 690.280 23.7423  11
   1  -2 -34 681.527 21.4633   4
  -2   1  34 694.675 22.6297  11
   2  -1 -34 716.549 23.3557  11
  -1   2  34 676.451 24.0130  10
  -2   1 -34 708.815 23.9184  11
   1  -2 -34 707.236 20.0088   9
  -2   1  34 667.111 25.0209   3
  -1   2 -34 688.760 22.4882  11
   1  -2  34 675.604 21.5653   5
  -2   1  34 704.815 23.8759  10
   1  -2 -34 661.337 27.8906   6
   1   1  34 647.249 23.6130  10
   1   1 -34 633.057 25.5242   6
  -1   2  34 695.804 22.7373  11
  -2   1  34 691.151 19.4171   8
  -1  -1  34 665.775 21.5959   5
   2  -1  34 693.603 23.8848   8
  -1   2 -34 684.611 27.6078   6
  -1   2  34 665.607 23.3042   3
   1  -2  34 694.950 22.1349   8
  -1  -1 -34 682.467 20.1464   4
  -1  -1 -34 671.915 29.5137   6
  -1   2  34 694.035 22.7304   8
  -1  -1  34 640.070 20.8406  11
   1   1  34 668.243 22.0105  11
   1  -2  34 660.091 23.4988  11
  -2   0  34 323.492 14.6475  10
  -2   0 -34 315.163 20.7742   6
   2  -2 -34 303.641 15.3114  11
  -2   2  34 327.952 14.9527  11
  -2   2  34 286.872 13.3153   8
   2   0  34 304.976 11.5659   5
  -2   0 -34 312.284 15.8048  11
   2   0  34 321.751 15.7237   8
   2   0  34 326.583 14.4452  11
   0   2  34 315.438 16.3342  10
  -2   0 -34 317.333 11.5827   4
   2  -2  34 296.078 13.8809  11
   2   0  34 300.825 15.0295  10
   0  -2 -34 312.569 13.4146   4
   0  -2 -34 319.054 15.8555  11
  -2   0  34 306.402 14.0821  11
   2   0 -34 329.377 17.6147   6
  -2   2 -34 315.369 19.8901   6
   2   0  34 320.246 14.8234   2
   0  -2  34 322.569 14.1598   5
   2  -2 -34 325.979 18.9617   6
  -2   0  34 324.948 13.2295   7
   2  -2  34 310.205 15.6313   8
   0   2 -34 337.034 18.5262   6
  -2   2  34 310.254 16.1162  10
   0  -2 -34 330.998 21.4018   6
   2  -2  34 331.573 13.3265   5
   2   0 -34 316.828 14.2299  11
  -2   2  34 317.291 16.7666   3
   0   2 -34 319.758 13.4015  11
   0   2  34 325.123 13.8887  11
  -2   0 -34 315.204 14.7252  12
  -2   2 -34 332.215 15.4761  11
   0   2  34 320.387 15.5986   8
  -2   0  34 307.031 13.5332   5
  -2  -1 -34 191.021 13.2905  12
  -1  -2  34 181.807 11.8084   5
   2   1 -34 206.811 11.2525  11
   1   2  34 210.798 14.4140   8
   1  -3 -34 207.190 14.2173  11
   1   2  34 180.101 11.1434  11
   3  -1  34 197.169 13.6740   2
   2  -3  34 194.934 11.6749   5
  -2  -1 -34 205.083 20.1483   6
  -3   1  34 207.267 12.9117  11
   1  -3 -34 221.358 12.6034   9
   1   2  34 209.450 13.3009   2
  -3   1  34 191.934 10.9771   7
  -3   1  34 185.054 11.8394   5
   1  -3 -34 232.635 19.4810   6
  -2  -1 -34 199.609 14.8179  11
   1  -3 -34 204.181 13.6104  12
   3  -1  34 212.699 12.8716  11
  -2   3  34 180.603 14.6850  10
  -2  -1 -34 209.181 11.4178   4
  -2   3  34 201.532 12.2887  11
   3  -1  34 214.270 14.4147   8
  -2   3  34 202.275 15.4669   3
   2  -3  34 190.010 13.6845   8
   3  -2 -34 200.497 13.2329  11
  -3   2 -34 204.024 14.1035  11
  -3   2 -34 199.021 11.4552  12
   1  -3 -34 210.304 12.1846   4
   3  -2 -34 217.516 16.4555   6
   1   2  34 202.472 13.6656  10
  -2   3  34 199.865 13.4620   8
  -3   2 -34 206.471 14.3712   3
   3  -1  34 197.524 12.7202  10
  -3   2 -34 164.033 18.0904   6
  -1   3 -34 199.550 17.2810   6
   2   1 -34 206.677 15.5531   6
  -1   3 -34 196.787 11.2386  11
  -3   1  34 195.672 14.9068   3
  -3   1  34 207.534 13.8040  10
   3  -1 -34 268.813 17.2407   6
   3  -2  34 299.882 17.4791   8
  -3   1 -34 282.168 15.5341   3
  -1  -2 -34 276.751 15.7582  12
  -2   3 -34 274.762 16.2139   3
  -2  -1  34 267.126 14.2335  10
   1  -3  34 283.072 14.2051   5
   2  -3 -34 289.379 14.6292   4
   2  -3 -34 285.789 16.3824  11
  -1  -2 -34 293.138 12.4649   7
   2   1  34 292.599 15.1717  10
   2   1  34 287.487 14.0140  11
   3  -2  34 288.433 14.8986  11
   1   2 -34 304.580 18.0725   6
   2   1  34 290.000 16.1018   8
  -1  -2 -34 269.889 20.8553   6
   3  -2  34 301.661 12.4775   5
   1   2 -34 301.604 12.7292  11
  -3   2  34 289.091 15.0926  11
  -3   2  34 291.736 18.0271   3
  -3   2  34 277.535 17.0149  10
   3  -1 -34 276.948 14.5420  11
  -1   3  34 319.785 16.2116   3
  -3   1 -34 260.658 16.1322  11
  -1   3  34 301.315 14.2682  11
   2   1  34 289.185 11.1935   5
  -1   3  34 261.629 16.4620  10
  -2  -1  34 300.239 14.1590   7
  -1   3  34 291.133 16.0870   8
  -2  -1  34 277.883 13.7383   5
  -3   1 -34 280.437 20.9900   6
  -1  -2 -34 287.471 16.1972  11
   2  -3 -34 278.099 12.5278   9
  -2   3 -34 285.721 14.7856  11
  -1  -2 -34 281.363 13.4873   4
   2   1  34 289.389 15.8062   2
   2  -3 -34 264.426 19.3569   6
  -2   3 -34 297.845 20.1208   6
  -3   1 -34 301.545 14.3614  12
   3  -1 -34 287.089 14.8464   2
   3  -3 -34 687.799 29.5109   6
  -3   3 -34 707.261 27.7631   3
   3   0  34 701.623 32.4700  11
   0  -3 -34 693.495 30.9121   6
   0   3 -34 680.003 28.7969   6
   0   3  34 625.623 25.3367  11
   0  -3 -34 747.110 25.6709   9
   3   0  34 706.760 26.0248   2
   0  -3 -34 697.328 29.3124  11
  -3   0 -34 714.760 25.3790  12
  -3   3  34 706.126 28.4664   3
   0  -3 -34 724.404 24.3249   4
   3  -3  34 724.652 27.6637   8
   0  -3 -34 719.544 26.4550  12
  -3   0  34 704.128 23.6053   5
  -3   3  34 733.557 24.4284   8
   0   3 -34 726.888 21.5933  11
   3  -3 -34 690.304 24.9226   4
  -3   0 -34 715.928 27.5354  11
   3  -3 -34 750.169 26.4433  11
   0   3  34 693.265 26.5987  10
  -3   3  34 711.073 25.4320  11
   3  -3  34 734.121 23.0956   5
   0   3  34 683.531 29.0227   8
  -3   3  34 715.219 28.4218  10
   3   0 -34 677.441 24.2500  11
   3  -3  34 730.555 25.1616  11
   3   0  34 702.980 24.7210  10
  -3   3 -34 705.306 31.7016   6
   3   0 -34 619.642 30.6177   6
   3  -3  34 716.828 22.2053   9
  -3   0  34 724.109 23.3885   7
  -2  -2 -34 1099.58 31.3954   7
   2  -4 -34 1144.38 33.3400   9
   2   2  34 1075.28 33.0247  11
  -4   2 -34 1095.92 42.4266   6
  -4   2  34 1085.03 35.5791  10
   2  -4 -34 1130.79 34.0151  12
  -2   4 -34 1181.81 40.6241   6
  -4   2  34 1111.75 35.5666  11
  -4   2 -34 1159.51 32.4749  12
  -2   4 -34 1057.52 37.3886   3
   2   2 -34 1092.49 38.2136   6
  -2  -2 -34 1100.61 36.4549  12
   4  -2 -34 1107.41 35.7233   2
  -2  -2 -34 1062.10 45.6837   6
  -2   4  34 1105.30 36.9609   3
  -4   2 -34 1135.83 37.2751   3
   2  -4 -34 1183.30 39.7287  11
   2   2  34 1116.81 35.9422   2
   2   2  34 1061.65 36.3772   8
   2   2  34 1152.61 35.7614  10
   2  -4  34 1080.11 34.1247   5
   4  -2  34 1069.93 37.4619   8
  -2  -2  34 1092.32 33.3158   5
   4  -2 -34 1092.18 35.3437  11
  -2  -2  34 1072.43 34.6219   7
  -2   4  34 1099.92 35.4915   8
  -2  -2 -34 1083.31 33.3364   4
  -2   4  34 1028.36 37.6020  10
   2  -4 -34 1045.76 34.4245   4
   4  -2 -34 1090.13 38.3850   6
  -4   2  34 1107.19 39.2800   3
  -4   2 -34 1067.14 36.9602  11
   4  -2  34 1154.25 35.4486  11
   4  -2  34 1122.05 36.1111   2
   2   2 -34 1099.76 30.2681  11
   4  -3 -34 176.577 20.6323   6
   4  -1  34 171.251 22.4355   2
  -4   1  34 169.595 12.1663   7
   1   3  34 165.705 14.1443   2
   1   3  34 148.041 16.0502   8
  -1   4 -34 152.361 15.8376   3
   1  -4 -34 154.862 13.5662   4
  -4   1  34 126.297 16.1639   3
   4  -1  34 153.740 14.9221   8
  -1   4 -34 135.668 10.1176  11
  -3  -1 -34 144.634 13.8301  12
  -3   4  34 143.984 18.2155   3
  -4   3 -34 141.990 14.6008  11
   1   3  34 136.712 11.3441  11
   4  -3 -34 149.024 14.5688  11
  -3  -1 -34 154.921 12.4267   4
   3   1 -34 143.248 11.3345  11
   3  -4  34 146.942 13.1545   5
  -3  -1 -34 152.589 12.9796   7
  -3  -1 -34 142.224 18.2527   6
   1  -4 -34 147.892 13.7033  12
   3  -4  34 153.103 14.8938   8
  -4   3 -34 168.643 19.9613   6
  -1  -3  34 161.327 13.0805   5
   3   1 -34 130.088 16.5863   6
   1   3  34 143.567 17.0502  10
  -3   4  34 122.576 16.3906   8
  -1   4 -34 198.694 20.0047   6
   4  -1  34 125.140 13.3107  11
   1  -4 -34 172.209 15.2821   9
  -3   4  34 138.875 12.1858  11
  -3   4  34 158.865 17.1671  10
  -1   4  34 198.913 17.9340  10
   3   1  34 152.371 12.6754  11
   1  -4  34 146.893 12.8265   5
  -4   3  34 196.126 18.8032   3
   3   1  34 200.421 14.7199  10
  -1  -3 -34 183.401 15.7386  12
  -1   4  34 168.669 15.5965   8
  -4   1 -34 201.670 18.1065  11
   4  -1 -34 201.144 17.2472   2
  -3  -1  34 176.592 12.9391   5
  -1   4  34 181.451 12.3251  11
  -3   4 -34 182.865 14.3033  11
  -3   4 -34 175.616 20.7140   6
   3  -4 -34 200.497 13.9768   9
   3  -4 -34 192.636 17.1990  11
  -1  -3 -34 183.064 23.6630   6
  -3  -1  34 182.760 13.1819   7
   3   1  34 193.739 16.2004   8
   1   3 -34 176.887 17.8015   6
   4  -3  34 187.506 15.3788  11
   4  -1 -34 174.029 13.5140  11
  -1  -3 -34 180.969 13.9903   4
  -4   1 -34 190.203 14.0705  12
   3   1  34 167.132 15.7279   2
  -3   4 -34 191.114 17.1025   3
   4  -1 -34 200.976 18.9377   6
  -4   3  34 193.866 15.2287  11
   3  -4 -34 170.757 14.1147   4
   4  -3  34 219.698 17.1741   8
  -4   1 -34 200.223 21.6183   6
  -4   4  34 125.304 14.4469  11
   4  -4  34 124.926 13.2448   5
  -4   4  34 147.012 16.2460  10
  -4   0 -34 126.503 14.6685  12
   0  -4  34 112.806 13.3287   5
   4   0 -34 121.283 15.2296   6
  -4   4 -34 137.025 17.4184   6
   0  -4 -34 164.486 14.4625   4
   0   4  34 117.627 14.5596   8
   4   0  34 108.516 13.6381   2
   4   0  34 124.007 13.1977  11
   4   0  34 120.274 15.4145   8
  -4   0 -34 119.563 18.7196   6
  -4   4  34 128.761 17.0715   3
  -4   4  34 150.328 16.5652   8
   4  -4  34 130.169 15.6447   8
   0  -4 -34 126.883 14.6206  12
   0  -4 -34 140.336 15.8535   9
   4   0 -34 133.058 12.6951  11
   4  -4 -34 152.348 17.6168  11
  -4   0 -34 146.929 15.1309   7
  -4   0  34 141.354 14.0553   5
  -4   0  34 136.543 13.1527   7
  -4   4 -34 122.476 15.7953   3
  -4   0 -34 126.624 16.3349  11
   4  -4  34 121.702 13.1733   9
  -4   4 -34 99.2009 12.4342  11
   0   4  34 143.710 16.9314  10
   0   4 -34 145.207 18.5852   6
   4  -4 -34 140.706 13.5913   4
   0   4  34 121.879 11.3966  11
   2   3  34 164.234 17.9367   2
  -5   3 -34 220.827 20.2719  11
   2  -5 -34 216.718 18.1910   9
  -3  -2 -34 177.848 16.9849   4
  -5   3 -34 233.751 25.6082   6
   3  -5  34 177.660 15.8014   5
  -5   2  34 191.339 21.2784   3
   5  -2  34 177.889 18.5446   8
  -2  -3  34 196.006 16.3421   7
  -3   5  34 172.771 19.9455   8
   5  -2  34 205.179 17.4450  11
   3   2 -34 160.117 17.6300   6
   2  -5 -34 188.629 16.4761   4
  -2   5 -34 172.622 20.7825   3
   2   3  34 189.289 18.9267   8
  -3  -2 -34 234.003 16.9005   7
  -3  -2 -34 178.712 18.3010  12
   5  -3 -34 207.693 20.9397   2
  -5   2  34 178.586 16.8208   5
  -3   5  34 237.507 23.3805   3
  -2  -3  34 162.293 15.3956   5
   2   3  34 190.129 13.9374  11
  -3   5  34 157.999 14.8797  11
   5  -2  34 193.010 22.1093   2
   5  -3 -34 219.757 17.9748  11
  -3   5  34 159.195 17.8323  10
  -2   5  34 184.790 19.1849  10
   5  -3  34 283.090 20.1972  11
  -3  -2  34 184.233 17.1905   5
  -5   3  34 223.648 19.1116  11
  -2  -3 -34 206.407 18.6779  12
   5  -2 -34 199.140 16.7983  11
   5  -2 -34 233.141 23.0618   6
   5  -2 -34 234.084 21.0716   2
  -2   5  34 213.724 19.7636   8
  -5   2 -34 209.045 26.6585   6
   3  -5 -34 213.965 16.9149   4
   2  -5  34 182.223 16.2056   5
  -3   5 -34 180.754 15.2938  11
  -3  -2  34 195.076 16.0404   7
  -2  -3 -34 229.235 17.8751   4
   5  -3  34 171.966 19.5649   8
   2   3 -34 168.961 20.5784   6
   3   2  34 215.982 20.6377   2
  -3   5 -34 197.922 20.7784   3
  -5   3  34 208.783 22.7905   3
   3  -5 -34 205.347 16.8212   9
   3   2  34 228.311 20.7407   8
   3   2  34 199.027 14.9591  11
  -5   2 -34 216.854 21.2397  11
  -2   5  34 203.963 15.0462  11
   5  -1  34 48.1720 14.7401   2
  -4   5  34 48.3084 9.76315  11
   1   4  34 49.8188 8.64700  11
   1  -5 -34 52.0663 11.7560  12
  -1   5 -34 53.6788 13.5749   3
   1   4  34 31.5797 11.1280   2
  -4  -1 -34 49.8294 11.1028   7
  -4  -1 -34 57.3427 11.3685  12
   1  -5 -34 45.3853 12.5846   9
   4   1 -34 55.1730 8.69516  11
  -5   4 -34 54.7043 18.0811   3
   1   4  34 36.9605 13.4774  10
  -5   4 -34 49.6980 19.1993   6
   5  -1  34 39.4549 9.46908  11
   4   1 -34 95.3271 15.4509   6
   1  -5 -34 48.7408 12.2755   4
   1   4  34 45.0797 12.4033   8
   4  -5  34 43.6013 11.0496   5
  -1  -4  34 44.7848 10.9881   5
  -4   5  34 28.8520 14.0888  10
  -4   5  34 53.7734 15.2267   3
  -4   5  34 62.7620 13.1817   8
   5  -4 -34 46.3623 12.0340  11
  -5   1  34 55.5761 15.0962   3
   5  -1  34 32.7622 12.6132   8
  -5   4 -34 55.0596 12.4780  11
   5  -4  34 30.8129 12.3637   8
  -5   4  34 12.7518 15.1446   3
   4   1  34 37.3869 12.4285   8
   4   1  34 31.6515 8.69484  11
  -1   5  34 25.6687 13.9683  10
  -5   4  34 7.13196 15.2101  10
  -5   1 -34 25.5671 14.0830  11
   4  -5 -34 15.1600 9.76194   4
   1   4 -34 5.48030 14.3841   6
   5  -1 -34 28.1773 12.9092   6
   5  -1 -34 19.3420 8.84859  11
   4   1  34 -3.5303 11.7068   2
  -5   4  34 16.7533 10.3555  11
   5  -4  34 30.1169 9.54803   9
  -1  -4 -34 31.2340 11.0076   4
  -4   5 -34 9.21772 9.11182  11
  -4   5 -34 43.1203 14.7348   3
  -4  -1  34 27.1295 9.15284   7
  -5   1 -34 18.2025 9.72337   7
  -1   5  34 36.5443 11.4843   8
  -1   5  34 36.5709 8.29804  11
  -1  -4 -34 26.2785 11.0391  12
   1  -5  34 30.0619 10.7036   5
   0   0 -35 3.59057 2.67618   4
   0   0 -35 11.0964 6.78125   6
   0   0 -35 -0.3135 3.58979  11
   0   0  35 1.40134 4.23169   8
   0   0  35 2.14828 3.32362  11
   0   0  35 0.46397 4.64779  10
   0   0  35 3.49506 3.14868   2
   0   0  35 5.25605 3.57710   5
   1   0 -35 664.750 22.3984  11
  -1   0 -35 698.578 18.6857   4
  -1   0  35 707.628 19.8046   8
   1  -1 -35 749.790 24.0898  11
   0   1  35 683.825 22.3157  11
   0  -1 -35 700.276 23.5652  11
  -1   0  35 736.995 22.3212  11
   1   0 -35 715.678 26.9308   6
   1  -1  35 695.348 23.4249  10
  -1   1 -35 686.749 27.8297   6
   1  -1  35 688.223 22.0529  11
  -1   1  35 698.766 21.4595   8
   0  -1 -35 706.422 20.3258   4
   0  -1 -35 668.025 28.0926   6
  -1   1  35 710.272 22.8102  11
   1   0  35 674.297 22.1718  11
  -1   0 -35 697.271 23.7032  11
  -1   1  35 689.781 24.0073  10
   1  -1 -35 701.484 27.3468   6
   0  -1  35 718.367 21.9014   5
   0  -1  35 695.924 21.8155  11
   1  -1  35 705.106 22.5309   8
   1   0  35 712.512 23.4041   8
   0  -1  35 723.150 23.4641  10
   0   1 -35 669.252 26.7041   6
   1   0  35 669.769 23.4690  10
   1   0  35 706.652 21.0007   5
   1  -1 -35 724.440 20.9746   4
  -1   0  35 704.042 21.5687   5
   0   1 -35 642.398 22.0638  11
  -1   1  35 689.845 24.3429   3
   1   0  35 701.599 20.8696   2
  -1   0  35 695.338 23.5090  10
   0   1  35 720.250 23.1871   8
   0  -1  35 685.591 20.6099   8
  -1   1 -35 696.761 23.0967  11
   1  -1  35 710.916 21.3044   5
   0   1  35 703.654 24.3396  10
  -1   0 -35 695.179 29.0954   6
   2  -1  35 1081.99 32.7635   8
  -1  -1 -35 1074.78 28.7611   4
   2  -1 -35 1032.90 34.7706   6
  -1   2  35 1080.25 32.6072   3
  -2   1  35 1046.09 30.1725   8
   1  -2 -35 1043.80 36.8283   6
  -2   1  35 1060.48 31.2332  11
  -2   1 -35 1108.05 32.9875  11
   1   1 -35 1024.80 35.1181   6
   1  -2  35 1082.71 30.5575  11
  -1  -1 -35 1067.16 39.3116   6
   1   1  35 1036.60 32.5249   8
  -1   2 -35 1058.90 31.0306  11
  -1  -1 -35 1038.04 32.4751  11
  -2   1  35 1093.91 34.4550   3
   1   1  35 1057.35 30.9494  11
  -1  -1  35 1114.77 30.2148  11
  -1  -1  35 1050.92 30.4879   5
  -1  -1  35 1068.03 31.5523  10
   1  -2 -35 1029.11 32.5540  11
   2  -1  35 1073.98 28.7755   5
  -1   2  35 1080.28 31.3911  11
   2  -1  35 1065.41 31.2838  11
   1   1  35 1070.14 32.9314  10
  -1   2 -35 1059.89 37.3677   6
   1  -2 -35 1077.34 28.3796   9
   1  -2  35 1084.94 30.8467   8
   1   1 -35 1081.11 31.0131  11
   1   1  35 1121.03 31.0075   2
  -1   2  35 1105.13 33.9052  10
  -2   1  35 1078.61 32.5673  10
   1  -2 -35 1105.54 30.2561   4
   2  -1 -35 1097.71 32.1058  11
  -2   1 -35 1049.93 38.1809   6
  -1   2  35 1064.94 31.2036   8
   2  -1  35 1106.90 32.5418  10
   1  -2  35 1068.86 30.3642   5
   2   0  35 549.725 19.6430  11
   2   0 -35 504.553 19.0790  11
  -2   2  35 540.282 20.0365  11
  -2   2 -35 496.482 20.0761  11
  -2   2  35 526.958 21.5350  10
   0   2  35 527.285 19.1473  11
   0   2 -35 513.942 18.4036  11
   0   2  35 552.507 21.8999  10
   2   0 -35 502.571 22.5849   6
   0  -2  35 516.894 19.0376   5
  -2   0  35 510.015 19.8533  10
   0   2  35 514.755 20.5659   8
  -2   0 -35 544.027 27.7326   6
   2  -2 -35 537.844 20.7337  11
   0   2 -35 563.997 24.6693   6
  -2   0  35 509.903 18.4363   5
  -2   2 -35 505.349 25.7970   6
   2   0  35 527.082 19.3789   2
  -2   0 -35 514.188 15.9612   4
   0  -2 -35 525.425 18.1790   4
   2  -2  35 520.447 19.0629  11
   0  -2 -35 502.194 26.0129   6
   2   0  35 526.559 16.5843   5
   2   0  35 535.721 20.9524   8
  -2   2  35 516.980 18.6095   8
  -2   2  35 520.498 26.7479   3
  -2   0 -35 508.402 21.9988  12
   2  -2  35 530.222 20.4370   8
   2  -2 -35 519.234 19.0941   4
   2  -2 -35 502.243 23.9608   6
  -2   0 -35 528.970 21.2733  11
   2  -2  35 529.223 17.9181   5
   0  -2 -35 538.337 20.9642  11
  -2   0  35 503.947 19.1068  11
   2   0  35 503.096 20.3616  10
  -2   3  35 214.061 14.3790   8
  -3   1  35 239.716 14.8002  10
   3  -1  35 226.547 15.0489   8
   3  -1  35 222.786 13.6830  11
   2  -3  35 235.766 14.6503   8
  -2  -1 -35 223.747 13.1012   4
  -3   2 -35 226.569 15.3001  11
   3  -2 -35 195.924 17.0351   6
  -3   1  35 212.977 16.2710   3
  -2  -1 -35 211.709 15.6617  11
  -3   1  35 225.316 11.5247   7
   3  -1  35 217.991 14.2715   2
   2  -3  35 214.667 12.8546   5
   3  -1  35 203.124 13.2526  10
   1  -3 -35 229.823 14.8230   9
   1  -3 -35 243.145 13.6073   4
  -1   3 -35 217.741 11.9540  11
  -3   2 -35 176.824 18.9746   6
   1   2  35 242.076 14.9223   8
   2   1 -35 205.520 16.1870   6
  -2   3  35 198.942 12.9566  11
  -2   3  35 213.923 15.7081   3
   1  -3 -35 237.129 21.0595   6
   1  -3 -35 259.357 15.4067  11
  -3   2 -35 235.079 12.4383  12
  -2  -1 -35 180.082 21.2585   6
   3  -2 -35 228.357 14.0074  11
  -2  -1 -35 218.980 14.0988  12
  -1  -2  35 230.984 12.8710   5
   1   2  35 209.459 12.0587  11
   2   1 -35 213.611 11.8996  11
   1  -3 -35 212.526 14.0692  12
  -3   1  35 234.362 13.8681  11
  -3   2 -35 212.759 14.2718   3
   1   2  35 229.182 14.9449  10
   1   2  35 241.510 14.3195   2
  -3   1  35 225.774 12.7789   5
  -2   3  35 222.418 15.7684  10
  -1   3 -35 207.631 18.3631   6
  -1   3  35 234.527 15.1021   8
   2   1  35 246.699 11.0600   5
  -2   3 -35 234.169 18.6066   6
   1   2 -35 227.728 16.8723   6
   1  -3  35 231.465 13.1447   5
  -2  -1  35 230.598 13.9502  10
  -1  -2 -35 226.946 14.5416  12
  -3   1 -35 227.395 19.6449   6
  -3   1 -35 211.568 15.3907  11
   2  -3 -35 221.218 13.2213   4
  -1   3  35 219.790 12.8122  11
   1   2 -35 226.982 11.6497  11
  -2   3 -35 254.362 15.7145   3
   3  -1 -35 186.805 16.3907   6
  -1  -2 -35 228.551 12.8296   4
  -3   1 -35 220.554 14.8623   3
  -1  -2 -35 224.934 11.1934   7
  -1   3  35 249.732 16.2702  10
   3  -2  35 198.719 13.4276  11
   2   1  35 237.277 14.4251  10
   3  -2  35 220.845 11.0718   5
  -1   3  35 254.528 14.7442   3
  -2  -1  35 221.506 12.6018   7
   3  -2  35 244.486 15.8903   8
   2  -3 -35 241.009 11.8224   9
  -3   2  35 232.684 13.7737  11
  -3   2  35 214.080 16.1297   3
  -3   2  35 209.577 15.3047  10
   2   1  35 211.305 14.6666   8
   2  -3 -35 214.195 19.0407   6
  -2  -1  35 241.085 13.0546   5
  -1  -2 -35 226.319 21.1538   6
  -2   3 -35 224.391 13.6060  11
  -1  -2 -35 229.450 15.3288  11
  -3   1 -35 240.669 13.4101  12
   3  -1 -35 225.620 13.4606   2
   2  -3 -35 217.409 14.9851  11
   3  -1 -35 204.293 13.0340  11
   2   1  35 239.324 15.0495   2
   2   1  35 240.850 12.9146  11
   0   3  35 36.7497 10.0032  10
  -3   0  35 36.8400 6.54975   7
   3   0  35 23.3802 7.97368   8
   0   3  35 43.7242 10.8310   8
   0   3 -35 40.6306 6.09793  11
  -3   3  35 44.0505 10.6263  10
  -3   0 -35 38.3227 12.4891   6
   3  -3  35 41.3128 11.8696   9
   3   0  35 42.6201 9.01156   2
  -3   3  35 42.8970 15.8351   3
  -3   3 -35 44.7486 12.2732   6
  -3   3  35 39.1153 8.11217   8
   3   0  35 42.3398 7.95848  10
   3  -3 -35 39.1857 8.02390  11
  -3   0 -35 35.3248 7.83125  12
   0   3  35 50.6117 7.21087  11
   3  -3  35 37.6012 6.54402   5
   3   0 -35 37.5749 10.3512   6
   0  -3  35 30.3868 7.02671   5
  -3   0 -35 40.7718 9.61524  11
   3  -3 -35 28.3519 18.4155   6
   3   0  35 42.4394 7.63784  11
   0  -3 -35 37.1228 7.09786   4
   0  -3 -35 31.4438 12.7885   6
   0  -3 -35 43.8582 8.47847   9
  -3   3 -35 38.3715 9.74863   3
   3  -3  35 34.1263 8.03278  11
   0   3 -35 22.8682 9.89119   6
   3  -3  35 34.9627 9.28586   8
  -3   3 -35 33.7490 7.59517  11
  -3   0  35 23.2742 6.62158   5
   2   2 -35 8.26165 5.40170  11
   4  -2  35 4.88289 10.2455   2
  -4   2 -35 39.3373 13.3470   6
   2   2  35 -0.2268 8.46109  10
  -2   4  35 9.58413 8.33276   8
  -2  -2 -35 3.25476 12.7753   6
  -2  -2 -35 7.71153 6.49588   7
  -2   4 -35 7.10511 6.49574  11
   4  -2 -35 13.5159 7.23789  11
   2   2 -35 9.84436 9.42283   6
   2   2  35 6.73425 7.80579   2
  -2   4 -35 17.9289 12.5089   6
  -2  -2  35 14.2471 7.13312   5
  -2   4  35 11.8610 9.68076  10
  -4   2 -35 18.0226 6.78676  12
   2  -4 -35 16.3297 9.12624   9
  -2   4  35 8.83470 9.52951   3
  -4   2  35 1.01426 7.78696  11
   2  -4 -35 3.55360 7.42668  12
  -4   2  35 12.6638 9.79575   3
  -4   2  35 13.0610 10.0241  10
  -2  -2 -35 3.04869 7.08206   4
   4  -2  35 6.58375 8.43308   8
   4  -2  35 2.86316 6.43441  11
  -4   2 -35 10.9107 7.81287  11
  -2  -2 -35 18.2011 7.82043  12
  -2  -2  35 -3.5978 6.27097   7
   2  -4  35 13.4215 6.84541   5
   2  -4 -35 17.3580 7.72434   4
   2   2  35 -3.9259 7.77502   8
   4  -2 -35 16.3053 9.47687   2
   2   2  35 0.74369 5.54941  11
  -2   4 -35 -4.2510 7.88642   3
  -3  -1 -35 48.6368 15.4737   6
   4  -3 -35 58.1445 10.6869  11
   4  -1  35 53.3254 10.4512   8
   1  -4 -35 61.1119 9.33575   4
  -3   4  35 45.5550 10.3095   8
  -3  -1 -35 63.3320 9.39879   7
  -1   4 -35 74.5464 16.2257   6
  -1   4 -35 65.9028 8.48828  11
   3  -4  35 38.6316 8.85397   5
  -4   3 -35 53.1589 10.3420  11
   4  -1  35 52.9011 18.3260   2
  -4   3 -35 63.0783 13.1958   3
   3   1 -35 69.7179 8.63267  11
   1   3  35 61.9452 8.23298  11
  -4   1  35 58.0740 12.0626   3
   1  -4 -35 49.5712 9.24762  12
  -3   4  35 44.2535 12.6774   3
   3   1 -35 66.1671 12.0650   6
  -1  -3  35 52.0906 8.90764   5
  -3   4  35 39.8139 12.1791  10
  -4   3 -35 53.1205 14.2499   6
  -3  -1 -35 38.9157 9.29595  12
  -3  -1 -35 67.3387 9.26484   4
   1   3  35 46.6149 10.5877   8
   1   3  35 58.6497 11.2232  10
  -4   1  35 49.8988 8.93650   5
  -3   4  35 63.1551 8.96599  11
  -4   1  35 69.6295 8.27469   7
   1   3  35 52.1666 9.49547   2
  -1   4 -35 60.0185 11.4568   3
   4  -1  35 47.3620 9.46282  11
   3  -4  35 41.0947 10.6468   8
  -1  -3 -35 46.6656 8.39720   4
  -3   4 -35 50.0550 8.81284  11
  -4   3  35 34.9310 11.3510  10
  -4   3  35 52.9450 12.8898   3
  -3   4 -35 54.3731 11.8115   3
   3   1  35 47.2805 9.30746  10
   3   1  35 33.2116 9.59443   8
  -1  -3 -35 61.5273 15.5717   6
   4  -3  35 51.0992 11.7582  11
   3   1  35 41.5968 7.58694  11
   3   1  35 38.6911 10.2300   2
   3  -4 -35 61.7042 11.0062  11
   3  -4 -35 50.7036 9.21836   4
  -1   4  35 57.6386 10.6361   8
   1  -4  35 49.1717 9.38497   5
  -1   4  35 55.1815 7.94167  11
   4  -3  35 54.1168 10.5605   8
  -4   1 -35 42.7451 14.0734   6
   4  -1 -35 42.0709 7.84355  11
  -1  -3 -35 44.0251 9.30995  12
  -3   4 -35 43.2857 13.3532   6
  -1   4  35 45.2898 10.9100  10
  -4   1 -35 46.5995 11.3738  11
  -3  -1  35 45.7176 8.01029   7
  -4   3  35 37.2039 8.32618  11
   1   3 -35 44.9348 11.8988   6
   4  -1 -35 28.4718 10.9416   6
  -3  -1  35 37.4338 8.46462   5
   0  -4 -35 -1.5402 9.20517   9
   0  -4  35 2.05194 7.88709   5
  -4   4  35 19.3103 12.5121  10
  -4   4 -35 3.85322 13.5586   6
  -4   0 -35 -18.385 13.0070   6
  -4   0 -35 -6.1670 8.51518   7
  -4   4  35 8.23693 8.06139  11
   0   4  35 -2.9506 5.98677  11
  -4   4 -35 12.4094 12.0403   3
   0   4 -35 -2.0118 13.0843   6
   4   0  35 1.46921 6.89194  11
  -4   4 -35 -0.9825 8.30738  11
  -4   0  35 -2.6021 7.29950   7
   0   4  35 -0.8695 10.3349  10
   4   0  35 8.25821 10.4926   2
   4   0  35 15.5974 10.1300   8
   0   4  35 2.49906 8.91315   8
   4  -4  35 1.58354 7.84009   9
   4  -4  35 -6.8377 9.17577   8
   4  -4 -35 0.96404 7.54721   4
  -4   0 -35 -9.1258 8.46987  12
  -4   0  35 2.26417 8.68040   5
   0  -4 -35 3.74595 8.43329   4
   4   0 -35 8.34614 11.1367   6
   4   0 -35 9.93794 6.92919  11
   4  -4 -35 1.98350 9.48444  11
  -4   4  35 -3.2171 11.4763   3
   4  -4  35 4.66824 8.26752   5
  -4   0 -35 -2.3561 11.5444  11
   0  -4 -35 0.02490 8.69041  12
  -3  -2 -35 71.3480 12.5095   4
  -5   2  35 71.2403 11.4325   5
   5  -2  35 58.2847 12.2263   8
  -5   3 -35 94.5105 17.9119   6
  -2   5 -35 36.3600 14.3725   3
   3   2 -35 73.0333 14.8746   6
  -2  -3  35 65.4370 10.5156   7
  -3   5  35 67.8617 12.7524   8
   2   3  35 68.7847 13.2359   2
  -3   5  35 32.1830 12.8294  10
   5  -3 -35 69.8066 14.7432   2
  -2  -3  35 76.4308 11.6299   5
   2   3  35 63.5118 12.8096   8
  -3  -2 -35 68.5228 12.9618  12
   5  -2  35 75.0825 14.7455   2
   3  -5  35 80.8101 12.3665   5
   2  -5 -35 76.1476 12.1997   9
  -3   5  35 62.7896 15.4460   3
  -5   3 -35 58.4090 12.5570  11
   5  -3 -35 59.9045 11.5591  11
   2   3  35 81.9740 9.66233  11
   5  -2  35 76.9602 12.0940  11
  -3   5  35 61.5582 9.68296  11
   2  -5 -35 66.8326 12.3205   4
  -5   2  35 67.0788 15.3458   3
   5  -2 -35 40.7859 13.4265   2
  -5   3  35 73.1316 12.5963  11
   3  -5 -35 59.9556 11.4312   4
   5  -2 -35 53.2463 10.6181  11
   2   3 -35 68.1524 14.2450   6
  -3   5 -35 71.6038 14.4287   3
  -5   2 -35 55.0653 16.9752   6
  -3  -2  35 39.2283 11.4606   5
  -2   5  35 48.5486 9.07069  11
  -3  -2  35 62.1885 10.4090   7
  -2   5  35 53.2252 12.5520   8
  -3   5 -35 58.2646 9.83009  11
  -5   2 -35 45.7427 12.8657  11
   3   2  35 58.0750 12.2407   8
   5  -3  35 67.1591 13.3029   8
  -2  -3 -35 41.2705 11.2143  12
   3   2  35 61.0784 9.33043  11
   5  -2 -35 81.7002 15.0905   6
   3   2  35 76.9510 13.6452   2
  -2   5  35 76.6101 14.5002  10
   2  -5  35 45.6863 11.3983   5
  -5   3  35 38.4919 14.7843   3
  -2  -3 -35 44.7144 11.1860   4
   5  -3  35 63.3837 12.2354  11
   4  -5  35 173.362 16.5138   5
  -4   5  35 199.720 16.1239  11
  -5   4 -35 228.400 27.4790   3
   5  -1  35 182.002 21.6649   8
   1   4  35 196.094 18.5115   2
  -4   5  35 149.548 19.9839   3
  -1  -4  35 185.809 17.8203   5
   1  -5 -35 217.469 18.0649   4
   5  -4 -35 235.686 20.7806  11
  -5   4 -35 158.291 19.4301  11
   5  -1  35 163.336 18.0024   2
   1  -5 -35 204.407 20.5149   9
  -5   4 -35 225.576 32.2215   6
   1   4  35 208.353 21.2650   8
   1  -5 -35 214.889 18.3330  12
   4   1 -35 215.139 22.2382   6
  -4  -1 -35 219.100 18.5846  12
   4   1 -35 191.145 14.6404  11
   5  -1  35 167.460 16.5504  11
  -4  -1 -35 170.061 17.5469   7
  -4   5  35 230.708 21.8848   8
   1   4  35 197.799 20.6537  10
  -4   5  35 162.914 18.4126  10
  -1   5 -35 150.789 17.9913   3
   1   4  35 198.481 14.3105  11
   1  -5  35 117.488 13.6062   5
   4  -5 -35 148.539 15.7030   4
  -1  -4 -35 120.614 15.0218  12
   5  -4  35 132.063 15.0443   9
   1   4 -35 183.243 20.6048   6
  -1  -4 -35 151.888 17.6099   4
  -1   5  35 132.552 15.1802   8
  -4   5 -35 126.657 13.8309  11
  -5   1 -35 116.591 13.8977   7
  -5   1 -35 144.721 18.7215  11
  -1   5  35 135.693 17.6544  10
   4   1  35 164.133 19.8548   8
   5  -1 -35 159.335 15.8886  11
   5  -4  35 121.169 15.1966   8
  -4   5 -35 105.969 17.5203   3
  -1   5  35 150.536 13.4022  11
   5  -1 -35 133.639 17.8771   6
   4   1  35 152.400 17.3948   2
  -5   4  35 187.089 23.0052  10
   4   1  35 126.992 15.0521  11
  -4  -1  35 152.601 15.5540   7
  -5   4  35 119.351 19.0143   3
  -5   4  35 127.001 14.8354  11
   0   0  36 193.761 10.7769   8
   0   0 -36 189.229 11.4829  11
   0   0 -36 181.249 8.12635   4
   0   0  36 192.110 10.4611  11
   0   0  36 194.966 11.9117  10
   0   0  36 200.393 8.53588   2
   0   0 -36 193.920 15.2359   6
   0   0  36 198.767 10.0232   5
   0  -1  36 849.628 25.2744  11
  -1   1  36 835.628 27.4185  10
   0  -1  36 832.040 24.2188   8
  -1   1  36 851.841 26.0626  11
   1  -1 -36 836.409 26.8621  11
   1   0  36 864.714 26.0072  11
  -1   0 -36 833.391 21.8753   4
  -1   0  36 843.176 25.5499  11
   0  -1 -36 808.363 27.0083  11
   0   1  36 860.811 26.3335   8
   0   1  36 865.610 27.7502  10
  -1   0 -36 844.901 33.3250   6
   0  -1 -36 835.248 32.2020   6
   1   0  36 856.661 24.2464   2
   1   0  36 878.755 24.3650   5
  -1   1 -36 816.902 26.6663  11
  -1   0 -36 800.771 26.7880  11
   1   0  36 836.742 27.5633  10
   1   0  36 844.591 26.9608   8
   1  -1 -36 851.985 24.1803   4
   1  -1  36 847.828 27.2065  10
  -1   0  36 827.733 26.8496  10
  -1   1 -36 854.772 32.0641   6
   0  -1  36 845.565 27.0235  10
   0  -1 -36 826.581 23.4062   4
   0   1 -36 868.804 26.3108  11
   1  -1 -36 829.243 31.1062   6
   0   1 -36 826.382 30.3865   6
   0   1  36 822.930 25.8397  11
  -1   0  36 842.428 23.0564   8
   1   0 -36 836.770 26.2370  11
   1  -1  36 828.909 25.5072  11
   0   1 -36 890.518 21.4210   4
   0  -1  36 877.901 25.4033   5
   1  -1  36 861.608 25.9784   8
   1  -1  36 844.439 24.6069   5
  -1   1  36 852.813 24.9155   8
  -1   0  36 869.369 25.4811   5
   1   0 -36 836.973 30.7305   6
  -1  -1 -36 154.235 17.6246   6
   1   1 -36 143.634 13.8416   6
  -1  -1 -36 150.491 8.72363   4
  -1   2  36 149.286 12.3065  10
   2  -1  36 145.146 10.9820  10
   2  -1  36 146.641 10.3402   2
  -2   1  36 152.102 12.0435  10
   1   1  36 150.923 9.96823  11
  -2   1  36 137.848 13.0005   3
   1   1  36 159.717 11.1316   2
  -1   2 -36 157.872 15.4212   6
  -1  -1  36 145.457 11.3049  10
   2  -1 -36 131.436 13.4044   6
   1  -2  36 139.045 10.7244   8
  -1  -1 -36 173.616 12.2182  11
  -1   2  36 135.024 11.0063   8
  -2   1 -36 163.306 16.4299   6
  -2   1  36 154.421 10.8727  11
  -1  -1  36 140.374 9.61433   5
  -2   1 -36 149.575 11.6268  11
   1  -2 -36 148.174 11.6722  11
   1  -2  36 144.048 10.4048  11
   1  -2 -36 147.376 9.41609   4
   1   1  36 152.994 11.9589  10
   1  -2 -36 143.162 9.00298   9
  -1   2  36 154.323 10.3320  11
  -1   2 -36 138.023 10.0626  11
   1  -2 -36 151.492 16.5436   6
   2  -1  36 155.896 9.10447   5
  -1   2  36 153.081 11.5278   3
   2  -1  36 155.488 11.9721   8
   1   1 -36 143.852 9.71274  11
  -1  -1  36 141.212 11.4431  11
   1  -2  36 147.152 9.80697   5
   1   1  36 148.125 11.7976   8
   2  -1 -36 149.470 10.6147  11
   2  -1  36 143.557 10.4067  11
  -2   0 -36 13.2090 5.34808  12
   2   0  36 9.63254 6.11372   2
   0  -2 -36 11.4205 4.71739   4
   2  -2 -36 5.20985 5.70309  11
  -2   0  36 -1.0779 5.54797  11
  -2   0  36 11.9221 6.44636  10
  -2   0  36 8.69602 4.76373   5
   2   0 -36 -3.3769 3.97312  11
   2  -2 -36 0.03979 8.28164   6
   2  -2  36 4.53718 4.66979  11
   0   2  36 11.0456 6.39960   8
   2   0  36 6.09401 6.17857   8
   2  -2  36 0.57271 4.55078   5
   2  -2  36 2.57106 6.19875   8
  -2   2  36 -4.3344 6.49227  10
   2  -2 -36 5.74087 5.16674   4
   2   0 -36 6.37212 6.77044   6
  -2   2 -36 6.72513 4.97382  11
   0   2  36 0.43700 6.60790  10
  -2   2 -36 14.2295 9.65117   6
   0  -2 -36 16.6044 6.59439  11
   2   0  36 11.0817 4.16448   5
  -2   2  36 9.85005 5.54409   8
   0   2 -36 -1.0940 7.39982   6
   0  -2 -36 12.8951 10.9019   6
   0   2 -36 10.3462 4.47353  11
  -2   0 -36 23.4168 10.1514   6
  -2   0 -36 13.7501 6.28276  11
   0  -2  36 10.2115 5.01619   5
   2   0  36 11.8389 5.05204  11
   2   0  36 6.26677 6.25785  10
  -2   2  36 4.76586 6.92302   3
  -2   2  36 12.4836 5.53759  11
   0   2  36 3.39103 4.20023  11
  -2   3  36 10.1442 7.05078   8
  -3   1  36 7.98423 5.69499   5
  -3   2 -36 10.8611 11.0703   6
   1   2  36 13.8190 7.36259  10
  -2  -1 -36 16.7051 11.9270   6
  -2   3  36 9.43393 7.76087  10
   1  -3 -36 11.2652 6.63580  12
  -1  -2  36 12.9117 5.80716   5
   1  -3 -36 -0.1683 11.6013   6
  -3   1  36 7.66539 7.90449   3
  -2   3  36 21.3555 8.60417   3
  -3   2 -36 20.7169 8.00368   3
  -2  -1 -36 12.2773 5.50755   4
  -3   2 -36 10.1597 6.69779  11
   1  -3 -36 14.0106 6.13651   4
   3  -2 -36 16.7068 6.44234  11
   1   2  36 11.8742 5.24747  11
  -3   2 -36 8.48962 5.74513  12
   1  -3 -36 22.5026 7.75188  11
   3  -1  36 9.59678 6.84380   8
  -2  -1 -36 12.8247 6.47792  12
   2   1 -36 8.94529 8.52811   6
  -3   1  36 7.67326 6.33188  11
   3  -1  36 15.0083 5.91902  11
   3  -1  36 10.4395 7.62505   2
  -3   1  36 11.9219 7.54891  10
   2  -3  36 19.0130 7.92344   8
  -2  -1 -36 1.31670 7.00376  11
  -1   3 -36 6.11341 5.21135  11
  -1   3 -36 11.1118 9.51345   6
   1  -3 -36 10.6599 6.69612   9
   1   2  36 -0.7725 6.64585   8
   3  -2 -36 25.8375 9.23227   6
   3  -1  36 11.5008 6.40659  10
   2  -3  36 3.99308 5.93950   5
   2   1 -36 4.71972 4.60908  11
  -2   3  36 21.2184 6.42643  11
   1   2  36 13.1815 6.60985   2
   1   2 -36 22.4682 5.62840  11
  -1   3  36 6.30462 5.24674  11
  -2   3 -36 18.5400 8.15217   3
  -3   1 -36 8.83701 7.19752  11
  -3   1 -36 10.0361 5.94877  12
   2   1  36 32.5459 7.62348  10
  -1  -2 -36 26.6216 8.04217  11
   3  -1 -36 22.2766 6.63647  11
   2   1  36 7.38640 4.90418  11
   2   1  36 5.52913 6.19415   8
  -1  -2 -36 20.5067 5.96545   7
   1  -3  36 14.2953 5.97336   5
   3  -2  36 28.8607 8.10936   8
  -1   3  36 1.02960 7.49858  10
  -3   2  36 13.9530 7.90930   3
  -3   1 -36 7.07896 10.0739   6
  -1   3  36 12.1808 7.06516   8
   3  -2  36 8.43412 6.12286  11
  -2   3 -36 20.8821 5.97837  11
  -2  -1  36 15.0824 7.45155  10
   2  -3 -36 13.8635 7.39446  11
  -2  -1  36 18.7110 6.25305   7
  -1   3  36 20.8619 7.25062   3
  -3   2  36 10.6190 5.85645  11
  -3   1 -36 14.8967 8.04955   3
  -1  -2 -36 12.1187 11.8254   6
  -2   3 -36 12.1561 10.4049   6
   1   2 -36 8.11091 7.88362   6
  -2  -1  36 6.22853 5.52847   5
   3  -2  36 15.7915 5.13234   5
  -1  -2 -36 20.2048 7.37551  12
  -3   2  36 27.3487 9.06920  10
  -1  -2 -36 13.8952 5.69748   4
   2  -3 -36 17.9183 11.4259   6
   2   1  36 1.54538 7.29370   2
   2  -3 -36 4.73339 5.74775   4
   3  -1 -36 19.3510 8.67596   6
   3  -3 -36 -3.5669 6.53789  11
   0  -3 -36 21.4124 12.3175   6
   3  -3  36 9.85050 8.43706   8
   0  -3 -36 2.19820 6.82902  12
  -3   3  36 5.07266 9.45962   3
   3   0  36 0.07046 5.38811  11
   0   3  36 -1.9532 8.97663  10
   0   3  36 2.70623 4.80714  11
  -3   3 -36 8.11821 9.52385   3
  -3   0 -36 15.1973 7.60491  12
   3   0  36 1.51640 6.35796  10
   3   0  36 8.12583 7.46911   8
  -3   3  36 7.96010 6.36689  11
   0  -3  36 -1.3635 5.99295   5
  -3   3 -36 -5.2151 5.53090  11
   0   3 -36 5.09769 4.96169  11
   3  -3  36 14.0985 6.58204   9
  -3   0 -36 7.85792 11.4342   6
   3   0  36 15.1088 8.20766   2
   3  -3  36 7.92370 7.53258  11
  -3   0  36 3.67153 6.07613   7
  -3   0 -36 -7.8822 7.31547  11
   3   0 -36 6.51078 5.40530  11
   3   0 -36 -7.3001 7.99252   6
  -3   0  36 3.79198 6.82418   5
   3  -3 -36 -13.469 11.4720   6
   3  -3  36 7.15716 5.74726   5
   0  -3 -36 0.36267 6.53203   4
   0   3  36 -0.9134 7.84889   8
  -3   3 -36 -8.5811 10.5788   6
   3  -3 -36 -7.1228 5.64687   4
   0   3 -36 -1.6213 9.85676   6
  -3   3  36 6.29076 7.31896   8
  -2   4 -36 22.9041 7.32156  11
   4  -2 -36 24.8026 7.84892  11
  -2  -2  36 28.9500 7.74959   5
   2  -4  36 15.3670 7.54367   5
  -2   4  36 41.7064 10.6012   3
  -2  -2 -36 32.8579 9.09984  12
   2   2  36 24.6745 11.5094  10
   2  -4 -36 30.3355 8.19587   4
  -4   2 -36 34.4095 9.96836  12
  -4   2  36 27.1312 10.4286   3
  -2  -2 -36 33.8333 8.04920   7
   2   2  36 28.1648 9.16594   8
  -2   4  36 47.9456 9.76746   8
  -2   4 -36 27.5706 13.3064   6
  -4   2  36 31.4154 10.8797  10
   2   2 -36 18.4085 9.97135   6
   4  -2  36 25.9334 7.51561  11
  -4   2 -36 27.9636 9.12816  11
   2  -4 -36 46.7094 9.07128   9
  -2  -2 -36 20.4132 13.7452   6
  -2   4 -36 26.2625 9.06433   3
   4  -2 -36 36.4283 10.1406   2
  -2  -2  36 20.6670 7.66051   7
  -2   4  36 30.8536 6.88301  11
   2   2 -36 35.2197 6.45567  11
   2  -4 -36 34.0170 11.7211  12
  -2   4  36 25.2008 9.85189  10
   4  -2 -36 30.7845 12.0496   6
   4  -2  36 43.8056 10.2932   8
   2   2  36 23.4972 9.08272   2
  -4   2 -36 57.6994 13.9685   6
   2   2  36 31.1463 7.19592  11
  -3  -1 -36 616.557 23.3361   7
   3   1 -36 507.619 27.1631   6
  -3   4  36 540.609 22.8858  11
   1   3  36 523.038 26.8052   8
  -1   4 -36 583.671 30.3229   6
   4  -1  36 555.411 25.7373   2
  -1   4 -36 587.748 19.1526  11
  -4   3 -36 543.219 25.7454  11
   1  -4 -36 580.421 23.7278   4
  -1   4 -36 557.748 26.2628   3
   1   3  36 577.900 21.7751  11
  -3   4  36 554.975 27.1625  10
   3  -4  36 580.077 22.8123   5
  -3  -1 -36 550.632 33.9100   6
   1  -4 -36 564.472 25.1208   9
  -3   4  36 571.291 24.7493   8
   4  -1  36 583.931 24.1637  11
   1  -4 -36 522.546 23.4683  12
   4  -3 -36 516.554 24.7127  11
  -3  -1 -36 535.954 24.1790  12
  -1  -3  36 552.932 22.8626   5
  -4   1  36 532.426 22.2101   5
  -3  -1 -36 640.860 24.2998   4
   1   3  36 574.198 25.8467   2
   4  -1  36 547.894 25.4972   8
  -4   3 -36 529.151 30.9685   6
  -3   4  36 584.052 27.6960   3
  -4   1  36 533.509 27.7603   3
   3  -4  36 569.796 26.2943   8
   3   1 -36 558.582 21.2230  11
   1   3  36 569.171 25.8338  10
  -4   3 -36 548.904 26.7083   3
  -4   1  36 604.174 21.2800   7
   4  -1 -36 569.834 23.1517  11
   4  -3  36 556.145 24.8239  11
  -4   3  36 570.322 26.9938  10
  -1   4  36 533.208 21.5952  11
   3   1  36 560.427 22.6444  11
  -3  -1  36 550.683 22.0082   5
  -4   1 -36 559.212 22.5567  12
  -4   1 -36 582.990 26.9165  11
   3  -4 -36 497.527 29.4740  11
   3   1  36 586.802 23.2466  10
  -1   4  36 507.865 26.7384  10
  -3   4 -36 567.781 27.6849   3
   1   3 -36 539.443 28.5408   6
   4  -3  36 599.388 26.0712   8
  -3  -1  36 531.469 21.6811   7
  -1  -3 -36 572.204 25.2553  12
   4  -1 -36 531.456 26.2700   6
  -4   3  36 524.032 28.0562   3
   1  -4  36 540.115 22.7016   5
   3  -4 -36 566.497 23.2872   4
   3   1  36 582.982 25.9019   2
  -1   4  36 572.284 25.2925   8
  -4   1 -36 547.887 30.9165   6
   3   1  36 526.910 24.9690   8
  -4   3  36 528.725 23.6874  11
  -3   4 -36 540.194 23.4705  11
  -1  -3 -36 532.517 22.3556   4
  -4   4  36 250.423 17.6057  11
   4   0 -36 228.217 21.8336   6
  -4   4  36 229.856 22.4010  10
   4  -4  36 265.004 16.1191   5
   0   4  36 251.968 20.3314  10
   4   0 -36 271.823 16.6531  11
   0   4  36 254.760 19.5111   8
   0   4 -36 308.997 25.7675   6
  -4   0 -36 243.679 17.8120   7
   4   0  36 254.637 17.2280  11
   4  -4 -36 217.128 20.3347  11
   0  -4 -36 282.299 18.3640   4
  -4   4  36 243.969 23.6168   3
  -4   0 -36 264.265 27.2867   6
   0   4  36 221.576 14.6454  11
  -4   0 -36 252.390 23.1462  11
   0  -4 -36 232.956 19.5588   9
  -4   4 -36 240.370 19.3145  11
   4  -4  36 292.337 19.7858   8
  -4   4 -36 267.553 24.9855   6
  -4   4 -36 290.273 23.2090   3
  -4   0 -36 272.720 18.6547  12
   4   0  36 255.342 19.5134   2
   4   0  36 273.116 19.8381   8
   4  -4 -36 262.947 17.7256   4
  -4   0  36 278.758 17.3324   7
   0  -4 -36 244.836 18.7094  12
   0  -4  36 259.974 16.8882   5
  -4   0  36 275.118 16.7181   5
   5  -2  36 2.38870 11.2654   8
   2  -5 -36 -4.7614 9.87990   4
  -2  -3  36 20.5152 10.3902   5
   5  -3 -36 18.0343 13.8194   2
   5  -2  36 10.9816 9.66060  11
   3  -5  36 15.8297 10.1340   5
   2   3  36 -13.708 10.4278   2
  -3   5  36 32.4099 13.3856  10
  -3   5  36 26.0000 14.4254   3
  -2   5 -36 11.9528 13.2386   3
  -2  -3  36 9.33250 8.85284   7
  -5   3 -36 -0.1530 15.7053   6
  -3  -2 -36 1.96159 10.2036   4
  -3  -2 -36 4.27886 10.0380  12
   5  -3 -36 9.90061 9.69327  11
   3   2 -36 -11.496 11.8722   6
  -5   2  36 19.5600 10.5655   5
   2  -5 -36 -10.125 9.86762   9
   2   3  36 2.76501 11.0379   8
  -3   5  36 5.74843 7.57611  11
  -3   5  36 21.1534 11.5711   8
  -5   2  36 26.7709 14.1538   3
   2   3  36 16.4830 7.18297  11
  -5   3 -36 15.7212 11.1861  11
   3  -5 -36 9.25127 9.51367   4
  -2   5  36 17.2272 13.1409  10
   3   2  36 1.87073 11.6314   8
  -2  -3 -36 21.6719 10.1858   4
   2   3 -36 19.2633 13.1026   6
  -2  -3 -36 -0.4616 10.0242  12
  -3   5 -36 24.5366 13.2680   3
   5  -2 -36 20.3242 9.10712  11
  -2   5  36 23.5918 7.96428  11
   5  -2 -36 42.7047 14.5940   6
  -5   3  36 2.93457 10.4351  11
  -3  -2  36 3.99784 9.09015   7
   5  -3  36 16.6635 11.8258   8
   5  -3  36 33.8414 10.5833  11
  -5   2 -36 35.5627 12.6416  11
   3   2  36 -7.3826 11.3312   2
  -3   5 -36 -0.8858 8.32560  11
  -3  -2  36 16.5681 10.5885   5
  -5   3  36 29.1899 14.5678   3
   2  -5  36 3.11395 10.1362   5
  -5   2 -36 10.1464 15.1096   6
  -2   5  36 -9.5480 10.4717   8
   3   2  36 22.6945 7.72478  11
   1  -5 -36 14.5639 12.3101   9
   4   1 -36 20.7199 14.2809   6
  -1   5 -36 -4.6496 13.1442   3
  -1  -4  36 1.03039 10.2726   5
  -4   5  36 17.4403 9.71110  11
  -4   5  36 21.2221 14.8497   3
  -5   4 -36 8.83822 17.1196   3
  -4   5 -36 -2.0495 14.6497   3
  -4  -1  36 7.89784 9.51201   7
   1  -5  36 10.1071 12.2223   5
   5  -1 -36 33.1404 14.8639   6
   1   4 -36 29.3746 17.4148   6
  -5   4  36 25.2058 15.7707   3
  -1  -4 -36 15.0711 11.6537  12
   0   0  37 0.94594 4.60094   8
   0   0  37 0.58511 4.57054  10
   0   0 -37 0.61066 6.90865   6
   0   0  37 3.34789 4.01043  11
   0   0 -37 3.10534 3.07333   4
   0   0 -37 -2.9949 3.81948  11
   0   0  37 1.61561 3.49736   2
   0   0  37 -0.6064 3.57376   5
   0   1 -37 565.842 24.7460   6
  -1   1  37 565.567 21.5119  10
   0   1 -37 564.917 20.3769  11
   1  -1 -37 590.284 18.4968   4
  -1   1 -37 560.172 25.8469   6
  -1   0 -37 574.763 21.3073  11
   1   0  37 574.234 18.4593   2
   1   0 -37 570.774 24.7208   6
   0  -1 -37 564.550 21.5457  11
  -1   1 -37 587.406 20.7568  11
   0   1  37 556.623 21.6686  10
   1  -1 -37 551.220 20.8429  11
   0  -1 -37 550.850 26.0043   6
   1  -1  37 555.646 20.0993   8
   1  -1  37 562.603 21.3161  10
   1  -1  37 556.115 19.6684  11
   0  -1  37 552.208 19.1069  11
  -1   0  37 554.230 19.1624   5
   0  -1  37 598.454 19.4781   5
   1   0  37 573.018 18.2415   5
   1  -1  37 560.661 18.6927   5
  -1   1  37 530.220 18.9579   8
   0   1  37 566.953 20.6898   8
  -1   0  37 540.349 17.1858   8
  -1   1  37 563.568 20.1573  11
   0   1  37 577.635 20.0715  11
  -1   0  37 554.943 19.5356  11
   0  -1 -37 562.876 17.5763   4
   1  -1 -37 546.284 25.0649   6
  -1   0 -37 582.177 16.1411   4
   0  -1  37 561.322 20.8339  10
  -1   0 -37 572.927 26.8868   6
   1   0  37 592.084 20.2619  11
   0  -1  37 510.979 20.1348   8
   1   0  37 543.851 21.3004  10
   1   0  37 561.853 20.9252   8
  -1   0  37 550.961 20.9462  10
   1   0 -37 563.865 20.4469  11
   2  -1  37 973.099 30.7414   8
   2  -1  37 958.291 30.3594  10
  -2   1 -37 956.161 37.0616   6
   1   1  37 983.376 28.9128   2
   2  -1 -37 946.052 33.8411   6
  -2   1 -37 980.912 31.3604  11
   1  -2 -37 962.287 30.5542  11
  -1   2  37 964.807 30.9166   3
  -1  -1 -37 962.973 31.1107  11
  -2   1  37 978.318 29.9272  11
   1   1  37 948.112 29.2732  11
   1   1 -37 991.442 29.0282  11
   1  -2  37 954.712 28.3677   5
   2  -1  37 984.502 29.6114  11
  -2   1  37 943.508 32.5779   3
   1  -2 -37 913.611 35.2868   6
  -1  -1  37 928.264 28.3575   5
  -1   2  37 1010.24 32.3630  10
   1  -2 -37 955.444 28.0499   4
   1   1  37 935.904 30.5570   8
   1   1  37 946.754 31.2374  10
  -1   2 -37 920.418 29.1761  11
  -2   1  37 954.053 30.9580  10
  -1   2  37 958.510 29.5185  11
   1  -2  37 941.195 28.8593   8
   1  -2  37 955.476 28.4432  11
   2  -1  37 974.724 27.5558   2
  -1   2  37 977.796 29.5945   8
  -1  -1 -37 967.798 26.6836   4
  -1  -1  37 900.501 27.6829  11
  -1  -1 -37 941.466 37.4570   6
   2  -1 -37 969.938 30.2906  11
   1   1 -37 936.304 33.6382   6
  -1  -1  37 959.540 29.7820  10
  -1   2 -37 952.408 35.7904   6
   2  -1  37 981.592 27.0302   5
   0  -2 -37 190.534 14.0839  11
  -2   0 -37 201.052 12.8166  12
   0   2  37 193.602 11.7521  11
   2   0  37 199.320 9.79559   5
  -2   0 -37 209.107 19.9190   6
   0  -2 -37 185.588 19.6624   6
   2   0  37 200.485 13.6268   8
   2   0 -37 193.160 11.9237  11
   0   2  37 196.212 13.3204   8
   0   2 -37 195.817 16.7253   6
  -2   0  37 191.707 11.1374   5
   2  -2  37 207.974 12.6120  11
   2   0 -37 184.886 15.5001   6
   0  -2 -37 198.917 11.6139   4
   2  -2 -37 196.049 11.4776   4
  -2   0  37 178.127 13.1394  10
  -2   2 -37 203.050 19.4631   6
  -2   2 -37 191.646 13.2195  11
   2  -2  37 188.810 10.7444   5
   2  -2  37 214.151 13.5203   8
  -2   0  37 202.089 12.4881  11
   2  -2 -37 221.615 13.9337  11
   0   2  37 213.487 14.7054  10
  -2   2  37 220.602 15.1652  10
   0  -2  37 203.434 12.0426   5
   0   2 -37 188.442 11.3149  11
   2   0  37 199.608 13.2859  10
  -2   2  37 191.131 12.2986   8
   2  -2 -37 211.119 17.9336   6
  -2   0 -37 210.549 14.7917  11
   2   0  37 189.604 12.7558   2
   2   0  37 207.441 12.3876  11
  -2   2  37 203.091 12.7875  11
  -2   2  37 203.727 14.9004   3
   2  -3  37 317.323 17.1323   8
  -1   3 -37 305.187 21.5521   6
   2   1 -37 256.751 21.3083   6
  -1   3 -37 329.280 14.9666  11
   1  -3 -37 310.215 15.3828   4
   2   1 -37 297.176 14.8640  11
   1  -3 -37 309.521 23.9901   6
   3  -1  37 319.516 16.6760  10
   3  -2 -37 296.402 20.3895  11
   3  -2 -37 331.422 20.2555   6
   1   2  37 332.191 16.7328   2
  -2  -1 -37 307.390 18.5190  11
  -3   1  37 301.998 21.9845   3
   1   2  37 296.408 17.3199  10
  -2  -1 -37 319.420 14.3760   4
   3  -1  37 297.843 16.0613  11
   3  -1  37 339.288 16.9535   2
  -2   3  37 304.798 16.3873   8
  -3   1  37 325.325 15.4849   5
  -3   1  37 310.835 17.5022  10
  -3   1  37 304.416 16.5487  11
  -3   2 -37 324.645 15.1183  12
   2  -3  37 311.957 15.1286   5
  -3   2 -37 320.815 18.0899   3
  -3   2 -37 310.283 24.1049   6
  -2  -1 -37 318.859 24.4901   6
   1   2  37 320.864 16.2667  11
   1  -3 -37 306.492 18.1266  11
  -2   3  37 319.319 19.4739   3
   1  -3 -37 334.786 15.6447   9
   1  -3 -37 291.466 16.9025  12
   2   1  37 360.052 18.2327  10
  -3   2  37 361.344 19.2463  10
  -1   3  37 340.540 17.5032  11
  -2  -1  37 339.784 17.7388  10
  -1  -2 -37 342.834 18.7225  12
  -1  -2 -37 322.780 24.2681   6
  -2   3 -37 377.073 23.7645   6
  -3   2  37 371.715 18.0578  11
  -1  -2 -37 346.831 15.8738   4
  -1   3  37 370.164 18.2574   8
   2  -3 -37 362.701 19.3990  11
  -1  -2 -37 376.729 19.5323  11
  -3   1 -37 327.731 29.7699   6
   3  -2  37 374.272 17.8468  11
   3  -1 -37 334.022 20.3631   6
  -2  -1  37 359.641 16.4615   7
  -1   3  37 360.809 18.0333   3
  -3   1 -37 355.532 16.6608  12
  -2   3 -37 352.422 18.3869  11
  -3   1 -37 359.707 19.4147  11
   3  -2  37 367.060 14.6073   5
  -3   1 -37 356.668 18.2077   3
   2   1  37 360.815 18.3965   2
   2  -3 -37 355.088 16.7477   4
   1   2 -37 359.411 15.2708  11
   3  -2  37 357.313 20.0094   8
   1   2 -37 346.049 30.2849   6
   2  -3 -37 331.870 23.2218   6
  -2  -1  37 353.946 16.3077   5
  -1   3  37 290.879 21.9049  10
   2   1  37 328.103 18.5916  11
   3  -1 -37 353.653 17.8931  11
   3   0  37 57.3821 9.29394  10
  -3   3 -37 41.8502 11.2316   3
   3  -3 -37 59.6578 8.90694   4
  -3   3  37 73.4832 9.79065  11
  -3   0 -37 73.1363 11.2303  12
  -3   3  37 66.4657 10.4639   8
   3   0  37 66.5384 10.6004   2
   3   0  37 64.3375 10.2888   8
   0  -3 -37 70.6408 15.3218   6
  -3   3  37 67.3164 11.2440  10
  -3   0  37 59.0841 8.07865   7
   0   3  37 62.1863 11.3561  10
   0   3  37 63.0467 10.5140   8
   3  -3  37 71.6946 8.58364   5
  -3   3  37 80.9146 13.1512   3
   0   3 -37 72.3234 8.69264  11
   0   3  37 67.7291 8.18979  11
   0  -3 -37 59.9139 9.47247  12
  -3   0 -37 63.9920 10.5667  11
   3   0 -37 63.7614 8.44024  11
   3   0 -37 69.0333 12.0376   6
  -3   0  37 67.9796 8.42919   5
  -3   3 -37 66.3665 9.35132  11
   3  -3 -37 59.2472 14.1091   6
  -3   3 -37 59.7161 20.6480   6
  -3   0 -37 65.4531 15.2454   6
   0  -3  37 57.2310 8.70382   5
   3   0  37 86.1955 10.7150  11
   3  -3  37 63.3853 9.42693  11
   2   2  37 19.6037 9.44282   2
  -2   4  37 20.1029 10.5126  10
  -2   4 -37 -3.1834 9.15189   3
   2   2 -37 4.50339 9.50113   6
  -2  -2  37 1.97153 7.21531   7
   4  -2 -37 16.2196 7.43532  11
   4  -2  37 4.86664 8.71573   8
   4  -2  37 24.0257 8.35061  11
  -2  -2 -37 13.3883 8.27926   4
   2   2  37 9.72351 6.24470  11
  -4   2  37 27.6095 11.4173  10
  -4   2  37 18.6291 8.48862  11
   2  -4  37 19.3133 8.07316   5
  -2  -2 -37 28.8001 14.9208   6
  -4   2 -37 28.5926 12.7917   6
  -2   4  37 11.9005 8.85134   8
  -4   2 -37 17.5598 8.92135  11
  -2   4  37 16.7238 6.89426  11
   2   2  37 12.3090 9.61277  10
  -2  -2  37 5.17751 7.38661   5
   2  -4 -37 26.1686 7.85529   4
  -4   2  37 12.4612 10.8472   3
   2  -4 -37 18.0149 8.34828  12
   2   2  37 20.5556 9.36588   8
  -2   4  37 21.3958 12.1855   3
   4  -2 -37 11.9416 9.74626   2
   4  -2 -37 6.14526 11.4590   6
   2  -4 -37 22.0905 8.17030   9
  -2  -2 -37 18.0021 8.64010  12
  -2   4 -37 12.1820 7.06772  11
   1  -4 -37 74.0442 11.1241   9
   1   3  37 56.2534 10.8549   2
  -1   4 -37 70.5443 14.9894   6
   1   3  37 58.9150 11.2951   8
  -3  -1 -37 55.4844 15.8480   6
  -1  -3  37 68.7859 9.68721   5
   1   3  37 57.5398 8.51611  11
   4  -1  37 50.9020 10.8500   8
  -3  -1 -37 71.0344 10.8423  12
  -4   1  37 73.0131 10.7319   7
  -4   3 -37 78.6835 14.0405   3
  -4   3 -37 51.4630 15.0381   6
   1  -4 -37 51.7988 10.2159  12
   4  -3 -37 73.3313 11.0127  11
   1   3  37 68.5759 11.7529  10
  -3   4  37 59.6590 9.27034  11
  -3   4  37 63.1556 11.1997   8
   3  -4  37 61.8009 11.9826   8
  -4   1  37 72.7802 9.43128   5
  -1   4 -37 65.0323 11.6283   3
  -3   4  37 52.8085 12.5633  10
  -4   1  37 70.3893 13.6829   3
   3   1 -37 58.1298 12.1514   6
   4  -1  37 67.7051 12.7260   2
   4  -1  37 61.6748 9.68250  11
  -3  -1 -37 66.3453 10.1307   7
   3   1 -37 75.1323 9.14357  11
   3  -4  37 67.5591 9.73849   5
  -3   4  37 51.4873 13.0979   3
  -4   3 -37 50.6917 10.6153  11
   1  -4 -37 67.1339 10.7811   4
   3   1  37 76.9628 12.1538   8
   3  -4 -37 81.7588 10.6553   4
   4  -3  37 58.6376 10.0339  11
  -1   4  37 70.7633 12.0097   8
  -4   3  37 68.4779 11.1697  11
  -1  -3 -37 85.0651 10.5518   4
  -3   4 -37 67.5577 13.1573   3
   3   1  37 60.9277 8.67238  11
  -4   3  37 90.0678 13.9600  10
  -1  -3 -37 56.9153 17.0250   6
   1  -4  37 67.0803 10.2123   5
  -4   1 -37 75.0234 10.3169  12
  -1  -3 -37 71.8056 10.9610  12
   3   1  37 82.2005 12.2694   2
   4  -1 -37 69.2469 9.45655  11
  -3  -1  37 74.0882 10.3505   7
  -1   4  37 69.6582 8.95351  11
  -4   1 -37 77.2867 12.0050  11
  -1   4  37 74.5740 13.0768  10
  -4   3  37 77.1581 14.3791   3
   1   3 -37 71.9636 14.3940   6
   3  -4 -37 93.5077 13.6742  11
  -4   1 -37 88.2911 16.5230   6
   4  -3  37 114.942 14.6112   8
  -3   4 -37 80.2917 15.2566   6
  -3  -1  37 80.5333 10.2650   5
   4  -1 -37 75.0306 13.2596   6
  -3   4 -37 70.7300 10.2629  11
   0   4  37 19.4235 9.17953   2
  -4   4  37 -6.5352 7.50406  11
   0  -4 -37 -4.3404 8.77360   4
   0   4  37 25.5694 10.6503   8
  -4   0  37 10.0653 8.10802   7
  -4   0 -37 27.1448 15.5923   6
   4   0 -37 -14.328 11.1205   6
   0  -4  37 9.15214 8.85240   5
   4  -4  37 1.08677 10.2022   8
  -4   0 -37 22.5290 9.42576   7
  -4   4  37 13.8553 12.8546  10
  -4   0  37 12.1594 10.0442   5
  -4   4  37 33.2764 12.6510   3
   4   0  37 19.5449 11.8264   2
   4  -4 -37 -9.2565 9.68699  11
   4  -4  37 23.0044 9.39533   5
   0  -4 -37 3.23463 8.96338  12
   0   4 -37 13.0103 14.4878   6
   4   0 -37 12.1169 7.62288  11
  -4   4 -37 -3.9478 8.97068  11
   4  -4 -37 9.56399 8.68010   4
   4   0  37 17.5862 8.02781  11
  -4   4 -37 2.44900 12.6533   3
   4   0  37 7.31111 10.8195   8
  -4   0 -37 26.8687 12.9025  11
  -4   4 -37 -3.3975 15.0446   6
  -4   0 -37 8.28787 9.39734  12
   0   4  37 5.37748 12.1461  10
   0   4  37 -1.4911 6.43199  11
  -3   5  37 210.668 22.7870  10
  -5   3 -37 190.937 22.0154   6
   2   3  37 175.236 20.5272   2
   5  -2  37 188.461 19.1312   8
  -3  -2 -37 226.164 18.2797   4
  -3  -2 -37 189.871 19.9085  12
  -2   5 -37 200.979 21.4148   3
   3  -5  37 180.501 16.4632   5
  -5   2  37 194.857 17.9346   5
  -5   3 -37 165.156 20.6516  11
  -2  -3  37 197.842 16.4251   5
   2  -5 -37 187.421 18.7714   9
   5  -3 -37 136.430 17.4004   2
  -5   2  37 207.766 22.7898   3
  -3   5  37 171.369 15.7690  11
  -3   5  37 192.321 20.8721   8
   3   2 -37 198.533 22.6070   6
   2  -5 -37 196.624 18.9219   4
   5  -3 -37 189.646 17.8822  11
   2   3  37 187.233 14.4478  11
   2   3  37 182.706 19.6132   8
  -3   5  37 199.731 24.7709   3
   5  -2  37 187.077 18.2217  11
   3   2  37 190.107 14.8795  11
  -3   5 -37 199.974 15.8470  11
   5  -2 -37 169.629 16.3573  11
  -2  -3 -37 137.878 16.3210  12
  -5   3  37 155.416 18.9245   3
   5  -3  37 173.587 18.9666  11
  -2   5  37 131.030 14.2315  11
   5  -2 -37 190.326 24.3136   6
  -5   2 -37 160.901 21.3132  11
   2  -5  37 134.021 14.7851   5
   3  -5 -37 153.484 15.9654   4
  -2   5  37 167.749 19.7623   8
  -2   5  37 132.368 17.6033  10
  -5   2 -37 191.000 21.6718   6
   3   2  37 135.123 16.9790   2
  -3   5 -37 137.610 17.9260   3
  -3  -2  37 123.335 14.5627   7
  -3  -2  37 175.739 16.3135   5
   3   2  37 144.373 16.7676   8
   2   3 -37 129.220 18.3831   6
   5  -3  37 120.397 15.4036   8
  -5   3  37 158.674 19.0320  11
  -2  -3 -37 179.467 17.7627   4
   0   0  38 0.41745 4.88857   8
   0   0 -38 0.97920 7.56217   6
   0   0  38 2.43787 4.06604   5
   0   0 -38 -0.1335 4.13619  11
   0   0  38 6.07294 3.86722   2
   0   0  38 11.5644 5.72798  10
   0   0 -38 6.92488 3.29654   4
   0   0  38 3.47093 3.98515  11
   1   0  38 57.2561 7.93940  10
   1   0  38 53.0556 7.02592  11
  -1   1 -38 50.3458 6.93174  11
  -1   0  38 49.3686 6.69420  11
   0   1 -38 36.3338 8.70258   6
  -1   0 -38 55.9462 11.0374   6
  -1   0 -38 56.7620 5.56519   4
  -1   1 -38 49.2811 10.4151   6
  -1   0  38 57.7104 8.16430  10
   0   1  38 67.4081 8.04397  11
  -1   1  38 48.0498 6.38920  11
   1  -1  38 49.9857 7.32583  10
   1  -1  38 66.7768 8.16792  11
  -1   1  38 57.2901 7.01296   8
   0  -1  38 54.1432 7.96743  10
   0  -1 -38 55.3064 10.9487   6
   1   0 -38 64.0285 10.1357   6
  -1   0  38 65.6877 7.77977   5
   0  -1  38 56.9476 7.65488  11
   1   0  38 53.2886 7.80246   8
   0  -1 -38 50.3050 7.45359  11
   1   0  38 69.7088 7.32438   5
   0   1  38 45.1620 7.56649   8
   1  -1  38 62.0831 7.74661   8
   1  -1 -38 41.1079 6.43009  11
   1  -1 -38 48.8697 10.8658   6
   0  -1  38 52.1411 7.85343   8
   0   1 -38 74.7318 8.37381  11
  -1   1  38 64.7133 8.49527  10
   1   0 -38 72.9043 8.39714  11
   1   0  38 59.3147 6.79525   2
  -1   0 -38 55.4310 7.83021  11
   0   1  38 55.5631 8.37502  10
   0  -1 -38 64.6628 6.51500   4
   0  -1  38 57.5820 6.78703   5
   1  -1 -38 56.9578 7.18383   4
   1  -1  38 48.3784 6.23223   5
  -2   1 -38 52.3719 11.6982   6
   2  -1  38 63.1621 7.08559   5
   2  -1  38 72.5900 9.19791   8
   1   1 -38 46.2389 9.65035   6
  -2   1  38 57.4790 7.77339  11
   2  -1  38 76.5837 9.34190  11
  -1   2  38 60.2670 9.15991   3
  -1   2 -38 52.4315 11.7919   6
  -1   2 -38 49.2041 6.85434  11
   2  -1  38 55.5899 8.04678  10
   1  -2  38 60.5167 7.57552   5
  -1  -1  38 50.3534 8.06706  10
  -1  -1 -38 40.3147 11.9067   6
   2  -1 -38 46.8301 7.00941  11
   1   1 -38 72.3835 8.26414  11
  -2   1 -38 70.0322 9.37609  11
   2  -1 -38 61.1292 10.3464   6
  -1  -1 -38 69.7607 7.44020   4
   1  -2  38 61.7948 8.25847   8
   1   1  38 54.0133 9.94218  10
  -2   1  38 50.3254 9.19380  10
  -2   1  38 72.1377 10.6833   3
   1  -2  38 63.6506 8.09369  11
  -1  -1 -38 37.1176 7.46213  11
  -1   2  38 71.8992 8.86808  11
   1   1  38 67.0579 8.59647  11
   1   1  38 55.6694 8.42147   8
  -1  -1  38 64.4117 7.55585   5
  -1   2  38 56.1653 9.20477  10
   1   1  38 62.6232 8.02915   2
   1  -2 -38 74.4937 9.31427  11
  -1   2  38 70.0154 8.59228   8
  -1  -1  38 53.8937 8.18929  11
   1  -2 -38 60.7201 7.17903   4
   1  -2 -38 57.4650 12.2914   6
   2   0  38 441.218 19.8396   8
   0   2  38 438.709 18.1035  11
   2   0  38 441.730 19.3936  10
   2   0  38 434.812 15.2077   5
  -2   0 -38 444.116 19.0709  12
  -2   0  38 464.265 19.2058  10
  -2   2  38 445.793 18.5905  11
  -2   2 -38 425.629 19.2682  11
   0  -2 -38 462.164 17.2081   4
   0  -2  38 437.889 17.7600   5
   2  -2 -38 411.112 23.8607   6
   2   0  38 467.357 18.5716  11
   0   2  38 432.862 20.3186  10
  -2   0 -38 428.803 26.5407   6
  -2   2  38 422.009 20.5266   3
  -2   2 -38 423.612 25.0525   6
  -2   2  38 448.140 20.9353  10
   2  -2 -38 431.696 19.4937  11
   2  -2 -38 432.694 17.4660   4
   0   2  38 440.364 20.3574   8
   0   2 -38 436.663 17.4107  11
   0   2 -38 456.361 23.3451   6
   0  -2 -38 453.302 20.1384  11
  -2   0  38 426.941 16.8813   5
   2   0 -38 431.010 22.1425   6
   2  -2  38 438.680 16.9548   5
   2  -2  38 449.197 19.8320   8
   2  -2  38 408.729 17.9419  11
  -2   2  38 435.951 17.7479   8
   2   0  38 460.548 19.0561   2
  -2   0  38 444.194 18.1249  11
   0  -2 -38 450.333 25.7327   6
   2   0 -38 429.791 18.0314  11
  -2   0 -38 459.315 20.4523  11
   1  -3 -38 684.469 26.4472  11
   1   2  38 658.373 25.9437  10
   3  -1  38 639.406 24.1459   2
  -3   2 -38 671.199 22.7800  12
   2   1 -38 639.174 23.8457  11
  -3   2 -38 630.392 25.8487  11
   3  -1  38 639.968 26.5478   8
   1   2  38 642.579 23.1532  11
   1   2  38 666.184 26.3204   8
  -2  -1 -38 656.103 25.9119  12
   2  -3  38 637.782 22.8800   5
   3  -2 -38 629.206 30.7802   6
  -3   2 -38 672.449 25.9311   3
  -3   1  38 652.139 25.2013  10
  -2   3  38 652.070 24.4515   8
   3  -1  38 618.148 24.4953  10
  -2  -1 -38 700.131 21.8203   4
   3  -1  38 610.088 25.5799  11
   1  -3 -38 657.061 22.6685   9
  -3   1  38 631.630 27.5403   3
   2  -3  38 635.900 24.5139   8
  -1   3 -38 665.292 30.4814   6
   1  -3 -38 676.397 23.5866   4
  -2   3  38 673.609 24.5405  11
   2   1 -38 601.908 27.5955   6
  -2  -1 -38 612.506 25.8895  11
  -3   1  38 640.726 24.5485  11
  -1   3 -38 626.414 22.6968  11
   1  -3 -38 654.758 28.9480  12
   3  -2 -38 619.653 25.0718  11
  -1  -2  38 662.396 23.5595   5
  -2   3  38 664.222 27.2083  10
   1   2  38 677.661 24.9203   2
  -3   2 -38 562.680 41.0786   6
  -2   3  38 623.787 26.3700   3
   1  -3 -38 687.848 31.7242   6
   3  -1 -38 632.312 24.3765  11
  -3   1 -38 606.543 31.2276   6
   2  -3 -38 696.992 26.8482  11
  -2   3 -38 676.260 31.5234   6
  -1   3  38 665.220 25.4400   8
  -3   2  38 634.773 27.4933   3
  -3   1 -38 694.459 24.2747  12
  -2  -1  38 651.846 24.4699  10
  -1  -2 -38 696.172 23.1168   4
  -1   3  38 655.344 23.9483  11
  -1   3  38 673.172 25.3572   3
   2   1  38 694.654 24.2000  11
  -2   3 -38 662.598 25.0647  11
   3  -1 -38 640.729 31.3734   6
   2   1  38 645.647 26.3528   8
  -1  -2 -38 653.803 26.3502  11
  -1  -2 -38 644.709 33.2647   6
  -3   2  38 653.057 26.5647  10
   3  -2  38 686.223 24.9599  11
   1   2 -38 656.478 28.8827   6
   1   2 -38 673.338 22.5287  11
   1  -3  38 641.626 23.7505   5
  -3   2  38 655.417 25.1292  11
   2   1  38 657.742 25.0927  10
  -1   3  38 674.269 26.6512  10
  -3   1 -38 705.662 32.9532  11
   2   1  38 676.555 25.1914   2
   2  -3 -38 670.852 31.0417   6
  -1  -2 -38 625.870 25.4633  12
  -2   3 -38 618.542 26.2321   3
   3  -2  38 660.581 21.1976   5
  -2  -1  38 621.338 25.0455   5
   3  -2  38 578.268 35.4228   8
  -3   3 -38 22.2481 12.5890   6
   0  -3  38 13.1189 6.99635   5
   0   3  38 29.2362 9.01705   8
  -3   0  38 25.4989 7.15782   5
   0  -3 -38 33.5445 14.0532   6
  -3   3  38 28.0063 10.3249   3
   3  -3  38 13.1234 8.97932   8
   3  -3 -38 14.6021 7.29799   4
   3  -3 -38 25.5412 8.23723  11
  -3   0 -38 36.5758 8.50966  12
   0  -3 -38 23.8048 7.33694   4
  -3   3 -38 24.1508 7.22181  11
   3   0  38 29.1125 7.47933  11
   3  -3 -38 27.9525 13.8071   6
   3   0 -38 23.3797 9.96819   6
   3  -3  38 24.1643 6.94436   5
   0  -3 -38 27.3472 8.44113  12
   3  -3  38 26.5385 8.45359  11
   3   0  38 37.3522 9.79938   2
   3   0  38 16.3583 7.96544   8
   3   0  38 42.2324 8.83765  10
  -3   3  38 33.8649 9.88869  10
  -3   3 -38 24.2741 9.84275   3
  -3   0  38 24.0154 7.01622   7
  -3   3  38 23.3437 8.71479   8
   3   0 -38 30.7380 6.82087  11
   0   3  38 14.8462 5.66125  11
   0   3  38 27.7978 9.58664  10
   0   3 -38 35.6321 6.33584  11
   0   3 -38 22.3614 11.5682   6
  -3   3  38 40.9124 8.52092  11
  -3   0 -38 20.2678 12.4188   6
  -3   0 -38 26.9797 9.22518  11
   2  -4  38 178.011 14.1926   5
   2   2  38 183.353 16.4093   2
  -2  -2 -38 145.242 20.2747   6
   4  -2 -38 177.110 20.9516   6
   2   2  38 173.403 13.3385  11
   2   2 -38 150.004 11.3827  11
   4  -2  38 175.659 15.6750  11
   4  -2  38 181.580 16.9432   8
  -2  -2 -38 155.706 15.6990  12
   2   2  38 136.631 15.7599   8
  -2   4  38 178.229 13.7170  11
  -4   2  38 170.744 19.1046  10
   2   2 -38 178.335 18.3532   6
  -4   2 -38 139.646 18.9684   6
  -2  -2  38 162.034 14.1732   5
  -2   4  38 219.381 17.0268   8
  -2   4  38 152.085 17.6311  10
  -2   4  38 163.454 19.1157   3
   2   2  38 167.281 15.3911  10
   4  -2 -38 162.391 14.4594  11
  -4   2 -38 179.931 17.6358  11
  -4   2  38 175.467 18.5567   3
   2  -4 -38 176.192 14.5167   4
  -2   4 -38 145.875 13.0977  11
  -2   4 -38 133.557 16.4035   3
  -4   2  38 165.292 15.7164  11
  -2  -2 -38 142.848 12.7796   4
   2  -4 -38 134.176 14.5826  12
  -2   4 -38 175.118 19.7057   6
  -1   4 -38 291.937 14.1019  11
   4  -1  38 266.855 18.9925   8
   1  -4 -38 279.266 17.6508   4
   1  -4 -38 286.611 18.7465   9
   3   1 -38 271.562 15.2343  11
  -1   4 -38 299.653 20.5387   3
  -3   4  38 253.606 21.9083  10
   4  -1  38 292.134 18.2925  11
  -4   1  38 294.233 22.6359   3
  -1  -3  38 321.354 17.6153   5
  -4   3 -38 290.882 20.2249  11
   3   1 -38 253.824 21.5927   6
   4  -3 -38 265.203 18.8056  11
   3  -4  38 294.738 20.6374   8
  -1   4 -38 291.319 25.7277   6
   1   3  38 292.179 19.0967   2
  -4   3 -38 262.230 22.0620   3
   1   3  38 281.058 19.1754   8
  -3  -1 -38 292.964 17.9684   7
  -4   1  38 306.201 16.4261   5
  -3   4  38 274.118 20.1009   8
   1  -4 -38 254.586 18.2486  12
   3  -4  38 305.917 17.4356   5
   1   3  38 273.786 15.9280  11
  -3  -1 -38 279.094 18.6554  12
  -4   3 -38 262.426 26.0519   6
  -3  -1 -38 258.044 28.0204   6
  -3   4  38 310.695 22.0613   3
   4  -1  38 265.905 21.2918   2
   1   3  38 292.959 21.1202  10
  -3   4  38 269.396 17.2190  11
  -4   3  38 342.634 24.3716   3
   3   1  38 297.403 18.1207  10
  -3  -1  38 339.281 18.3782   7
   3   1  38 310.080 19.7912   8
  -1  -3 -38 334.017 17.7091   4
  -3   4 -38 332.665 27.7560   6
  -3  -1  38 325.950 18.2531   5
  -1  -3 -38 339.836 20.8153  12
   4  -1 -38 305.544 18.2798  11
  -3   4 -38 326.422 18.7629  11
   4  -3  38 308.771 20.3671   8
  -1   4  38 321.333 16.7317  11
  -1   4  38 303.233 21.8365   8
   3   1  38 298.522 20.1525   2
   3   1  38 293.328 17.5038  11
  -1  -3 -38 338.414 29.1796   6
   3  -4 -38 317.452 21.9468  11
  -1   4  38 290.797 22.3865  10
   1  -4  38 296.024 17.9819   5
  -4   3  38 314.072 23.2536  10
  -4   1 -38 321.471 22.2504  11
  -4   1 -38 320.100 18.0361  12
  -4   1 -38 347.647 26.4294   6
   3  -4 -38 295.928 17.8620   4
   4  -1 -38 312.115 22.4845   6
   1   3 -38 317.846 23.7115   6
  -3   4 -38 303.911 22.3215   3
  -4   3  38 325.066 19.5564  11
   4  -3  38 324.241 19.7230  11
  -4   0 -38 20.7492 9.58661   7
   4   0 -38 -0.1795 11.7781   6
  -4   0  38 6.52978 8.67493   7
  -4   4  38 8.69802 13.1238  10
   0  -4 -38 -7.5998 9.27726  12
   0  -4  38 13.4951 8.97927   5
   0   4  38 -4.2906 12.2662  10
  -4   0 -38 15.8591 9.47717  12
  -4   4  38 9.26414 12.8367   3
   0   4  38 12.6923 6.91747  11
  -4   0 -38 12.4071 14.4804  11
  -4   4 -38 6.16344 15.4576   6
   4   0  38 -14.104 9.89209   8
   4  -4 -38 0.41589 9.12375   4
   4   0  38 4.63170 11.6737   2
   0   4  38 2.83010 9.76437   2
   0   4  38 5.53910 10.1579   8
   4  -4  38 2.13717 10.6800   8
  -4   4  38 0.00608 8.21488  11
   0   4 -38 9.35174 15.2115   6
  -4   4 -38 -1.8292 11.8570   3
  -4   4 -38 11.9488 9.95598  11
   4   0 -38 -1.1752 7.36816  11
  -4   0 -38 29.9257 16.1397   6
  -4   0  38 4.74414 9.71412   5
   4  -4 -38 -15.853 9.84310  11
   4   0  38 1.14892 7.74020  11
   5  -3 -38 132.925 15.6345  11
   2   3  38 186.356 20.7978   2
   2   3  38 149.560 13.8727  11
  -5   2  38 118.569 18.1861   3
   3  -5  38 158.778 15.9123   5
   2   3  38 117.670 16.7071   8
  -5   2  38 175.433 17.4576   5
  -3   5  38 139.386 16.7546   8
  -3  -2 -38 127.189 15.5549  12
  -3   5  38 219.958 23.7840   3
  -2   5 -38 141.544 18.1636   3
   3   2 -38 151.815 18.6902   6
   2  -5 -38 162.140 17.0546   4
  -2  -3  38 134.768 16.5648   5
  -5   3 -38 131.357 16.2129  11
   5  -2  38 132.392 14.5804  11
  -3   5  38 139.860 17.8083  10
  -5   3 -38 207.751 25.7587   6
   5  -2  38 105.644 15.5191   8
  -2  -3 -38 137.432 16.3404   4
  -2   5  38 151.616 14.5730  11
   5  -2 -38 154.032 19.3100   6
   5  -3  38 154.672 19.0967  11
   3   2  38 163.143 14.9540  11
  -2   5  38 111.084 16.9926  10
   3  -5 -38 116.378 14.1913   4
  -2   5  38 174.575 21.0038   8
   3   2  38 151.241 17.3499   2
  -2  -3 -38 125.716 15.4237  12
  -5   2 -38 146.354 17.1921  11
   2  -5  38 148.713 16.6032   5
  -5   3  38 164.869 19.5968   3
   5  -2 -38 155.783 16.5112  11
  -3   5 -38 113.424 16.8480   3
  -5   3  38 104.287 13.4677  11
  -5   2 -38 153.144 21.4237   6
   5  -3  38 130.383 16.0771   8
   2   3 -38 116.676 18.5139   6
  -3  -2  38 136.701 14.9231   7
  -3  -2  38 167.997 17.1180   5
   3   2  38 126.817 17.1582   8
   0   0 -39 2.65841 4.40464  11
   0   0 -39 0.06109 8.25249   6
   0   0  39 -2.1182 5.06689  10
   0   0  39 0.27889 4.07403   5
   0   0  39 0.33681 4.42095  11
   0   0  39 1.54297 4.97119   8
  -1   0  39 14.2902 6.34940  10
   1  -1 -39 13.0514 4.83603   4
   0   1  39 10.8083 4.49732  11
   0  -1 -39 4.75403 3.98147   4
  -1   0 -39 3.40578 5.27811  11
   1   0  39 8.07990 4.68187  11
   1   0  39 0.19353 6.02174  10
   0  -1  39 4.40910 4.84155  11
  -1   0 -39 5.85494 8.78493   6
  -1   1  39 0.07982 4.84351  11
   0   1 -39 5.29523 7.41319   6
   1  -1  39 3.38970 5.56708   8
   0  -1 -39 8.43560 5.76645  11
   0  -1  39 2.14063 4.63356   5
   1   0 -39 -0.5835 7.46873   6
   0   1 -39 12.5213 4.84793  11
  -1   1 -39 5.89611 8.17912   6
   1   0  39 15.7818 4.79571   5
  -1   0  39 4.21672 4.77041   5
  -1   1  39 -6.3574 5.71795  10
   1   0  39 18.8130 6.35664   8
   1   0  39 6.07397 5.22961   2
   0   1  39 10.8546 5.90084   8
  -1   1 -39 7.31724 5.04236  11
   0  -1  39 4.87206 5.97181   8
   0  -1  39 10.7468 6.51624  10
   1  -1 -39 -6.8146 8.13761   6
   1  -1  39 5.70406 5.04751  11
   1  -1  39 12.3682 5.24406  10
   0  -1 -39 26.4133 10.0311   6
  -1   0  39 13.5030 5.74335  11
   1  -1  39 9.92534 4.45840   5
   0   1  39 -1.0184 5.94433  10
  -1   1  39 6.79961 5.75741   8
   1  -1 -39 11.9720 5.47465  11
   1   0 -39 13.6845 5.44169  11
   2  -1  39 58.3862 6.84820   5
   1   1  39 60.3259 7.84494  11
   1  -2 -39 63.1370 7.85056   4
   1   1 -39 67.4202 8.56578  11
   2  -1 -39 61.6688 11.3249   6
  -2   1  39 51.0921 7.41875  11
  -1  -1  39 51.3056 8.15854  10
   1   1 -39 53.9009 10.7920   6
   2  -1  39 46.3410 7.29072  11
  -1   2 -39 50.2726 11.8086   6
  -1  -1 -39 55.0454 13.4221   6
   1   1  39 64.6218 8.32161   2
   2  -1 -39 58.4850 7.85357  11
   2  -1  39 48.5577 8.72726   8
   2  -1  39 61.9738 8.28441  10
   1   1  39 53.1510 9.08540  10
  -1  -1  39 52.5898 6.74148   5
   1  -2  39 45.4541 8.36705   8
  -1   2 -39 70.8847 9.01932  11
  -1   2  39 65.2664 8.23884  11
   1  -2 -39 57.9742 12.5654   6
  -2   1 -39 54.9214 8.34680  11
  -2   1  39 71.7051 9.53492  10
   1   1  39 54.5145 8.86394   8
   1  -2 -39 63.1026 9.42217  11
  -1  -1 -39 51.5499 8.17055  11
  -1   2  39 67.6954 9.87177   3
  -2   1  39 51.2757 9.52224   3
   1  -2  39 53.3580 8.48053  11
  -2   1 -39 59.4319 12.5916   6
  -1   2  39 46.5049 9.50028  10
  -1  -1 -39 57.5060 6.64210   4
  -1   2  39 53.2440 8.35261   8
   1   1  39 62.7591 7.36836   5
   1  -2  39 53.1338 7.03786   5
   2  -2  39 237.157 14.9170   8
   2  -2 -39 246.284 20.4629   6
  -2   2  39 273.981 14.6320   8
  -2   0  39 251.879 13.3067   5
   2   0 -39 266.634 17.9476   6
   0   2 -39 244.987 19.1428   6
   0   2  39 249.784 15.3601   8
  -2   2 -39 257.837 20.7255   6
   2  -2  39 239.794 14.1226  11
  -2   0  39 239.374 15.2509  10
   2   0  39 224.128 15.6243   8
   2   0 -39 232.934 13.6158  11
  -2   0 -39 256.462 16.2817  11
  -2   0 -39 252.572 14.8509  12
   2   0  39 235.443 14.5524   2
   2   0  39 256.914 11.6250   5
   2  -2 -39 237.213 15.4288  11
   2   0  39 260.931 14.2088  11
   0  -2 -39 250.583 16.0568  11
   0  -2 -39 245.642 22.4902   6
   0  -2  39 238.632 13.4259   5
   0   2 -39 216.149 12.7683  11
  -2   0 -39 253.957 22.2125   6
   0  -2 -39 234.706 12.5391   4
   2   0  39 248.509 14.9835  10
  -2   2 -39 227.789 14.3090  11
   0   2  39 223.424 15.6786  10
   0   2  39 242.438 13.4625  11
  -2   2  39 228.389 14.2719  11
  -2   2  39 261.126 16.8931  10
   2  -2  39 245.436 12.7232   5
  -2   2  39 226.339 16.0633   3
   2  -2 -39 235.631 13.0330   4
  -2  -1 -39 57.7481 7.68656   4
   2  -3  39 37.2278 9.73705   8
  -2   3  39 47.2434 10.3680  10
  -3   2 -39 62.4685 10.3592   3
  -3   2 -39 35.8596 12.9303   6
  -2  -1 -39 37.6557 14.2122   6
  -2   3  39 69.8547 10.1679   8
  -3   1  39 64.4232 10.5026  10
   3  -2 -39 78.9365 13.2684   6
  -3   1  39 81.3594 12.4405   3
  -2  -1 -39 57.9725 9.75915  12
   1   2  39 44.3266 12.1044  10
   1  -3 -39 37.6001 14.9061   6
   1  -3 -39 60.1476 10.4374  11
   3  -1  39 66.6628 10.2606  11
   3  -1  39 48.3087 10.0582   8
   1   2  39 46.5230 10.4777   2
  -2   3  39 68.4484 11.4227   3
  -3   2 -39 47.4569 8.90527  11
  -2  -1 -39 49.4679 10.6571  11
  -3   1  39 62.2247 8.41018   5
  -1  -2  39 73.3246 8.87843   5
   1   2  39 65.7867 10.3601   8
   2   1 -39 55.1724 8.01139  11
   1  -3 -39 44.3346 8.99991  12
  -3   2 -39 62.2458 8.48271  12
   3  -2 -39 51.8252 8.52163  11
  -3   1  39 72.8954 10.5144  11
   3  -1  39 44.2439 9.77952   2
   2   1 -39 65.2561 11.4006   6
   1   2  39 65.0276 8.35944  11
  -2   3 -39 77.8982 9.83272  11
   2   1  39 77.4247 9.79771  11
   2  -3 -39 67.4531 14.9778   6
   1  -3  39 66.1556 8.95302   5
  -1   3  39 75.2405 9.85839  11
   1   2 -39 80.6189 13.2104   6
  -2  -1  39 77.4565 9.24316   5
   2  -3 -39 74.1112 9.74016   4
   1   2 -39 74.9726 9.56281  11
   2   1  39 67.1957 10.3934   8
  -1   3  39 72.6591 10.3842   3
  -1  -2 -39 79.6304 10.2579  12
   3  -2  39 72.5510 7.91756   5
   2  -3 -39 78.7863 11.3829  11
  -3   2  39 92.7717 10.7520  11
   2   1  39 93.2264 11.2811  10
  -3   1 -39 82.6822 11.5402  11
  -2   3 -39 82.5522 15.9571   6
   3  -2  39 78.0026 10.2442  11
  -3   1 -39 75.7733 9.18297  12
   3  -2  39 74.1170 10.8410   8
  -1   3  39 63.0028 10.7107  10
   2   1  39 85.1684 10.7099   2
  -1  -2 -39 95.7885 10.4420   4
  -1  -2 -39 59.3977 15.2364   6
  -2   3 -39 61.7251 10.3508   3
  -1  -2 -39 96.4968 11.9966  11
   3  -1 -39 87.0134 13.5499   6
  -2  -1  39 82.2295 10.7410  10
  -3   2  39 90.5734 12.7976   3
  -3   2  39 89.7635 12.0906  10
  -3   1 -39 51.7394 12.9229   6
   3  -1 -39 76.9633 9.78242  11
  -3   3  39 340.318 18.4728  11
  -3   3  39 353.357 20.6643  10
  -3   0  39 308.764 19.5336   7
   0  -3 -39 325.625 16.5782   4
   0   3  39 304.054 16.0224  11
  -3   0 -39 313.455 25.5364   6
   3  -3  39 321.538 15.6343   5
   3   0  39 329.956 19.4299   8
   3  -3 -39 301.356 16.9372   4
   3   0  39 322.047 19.2587   2
   3  -3 -39 344.525 19.5891  11
  -3   3  39 313.245 22.1657   3
   0  -3 -39 348.806 27.4299   6
  -3   3 -39 278.302 25.0351   6
   3   0 -39 336.453 22.0548   6
   3   0 -39 320.692 17.1817  11
   0  -3 -39 314.889 18.6284  12
   0   3  39 336.285 19.0939   8
   0   3  39 315.886 19.8755  10
  -3   3 -39 316.122 18.5380  11
   3   0  39 294.397 17.0768  11
  -3   0 -39 293.869 27.2096  11
  -3   3 -39 329.707 19.7153   3
  -3   0  39 329.423 16.2587   5
   0   3 -39 343.301 15.4765  11
   0  -3  39 298.203 16.7750   5
   0   3 -39 328.147 24.6261   6
  -3   0 -39 334.619 18.2865  12
   3  -3 -39 370.741 33.2209   6
   3  -3  39 316.742 19.3564   8
   4  -2 -39 242.396 17.0520  11
  -2  -2  39 255.631 16.6349   5
  -2  -2 -39 268.589 16.3567   4
  -2   4  39 267.965 20.7818   3
   4  -2 -39 241.963 23.3845   6
  -2   4  39 232.640 20.0145  10
   2   2 -39 244.344 13.6914  11
  -4   2  39 259.016 20.7400   3
  -2   4 -39 221.526 24.4516   6
  -4   2 -39 257.590 20.1794  11
   4  -2  39 217.026 19.2133   8
   4  -2  39 223.293 17.3174  11
   2   2  39 241.894 15.4376  11
   2  -4 -39 248.655 17.3743  12
   2   2  39 239.649 18.8821  10
   2  -4  39 216.488 16.0311   5
  -2  -2 -39 283.565 25.9030   6
   2  -4 -39 239.648 16.3872   4
  -2   4 -39 234.224 15.4292  11
  -2  -2 -39 233.352 18.9421  12
   2   2 -39 220.549 20.5631   6
   2   2  39 268.451 19.0349   8
  -2   4  39 229.518 19.2562   8
  -2   4  39 211.253 15.1273  11
   2   2  39 296.588 18.8553   2
  -2   4 -39 237.816 20.1861   3
  -4   2 -39 258.868 24.7930   6
  -4   2  39 251.369 18.6298  11
  -3   4  39 487.949 28.3479   3
  -1   4 -39 510.494 19.1818  11
  -3  -1 -39 491.618 22.7545   7
   1   3  39 550.187 24.9451   2
  -3  -1 -39 518.858 34.6254   6
  -1   4 -39 476.190 30.8333   6
   1  -4 -39 511.590 23.5592  12
   3  -4  39 526.464 24.8554   8
  -3   4  39 558.558 25.4835   8
   1  -4 -39 559.194 24.2888   9
   4  -1  39 497.528 25.5469   8
  -1  -3  39 526.088 22.9962   5
  -4   3 -39 515.731 28.5490   3
  -4   3 -39 515.210 32.3541   6
  -4   1  39 529.903 29.9910   3
   1   3  39 495.769 26.1750  10
  -3   4  39 444.079 22.3260  11
   4  -3 -39 509.874 24.3127  11
  -4   3 -39 526.743 26.0589  11
   1   3  39 510.921 21.3923  11
   4  -1  39 535.865 26.4619   2
  -1   4 -39 539.877 26.5062   3
   4  -1  39 502.332 23.4803  11
   1   3  39 488.362 25.3278   8
  -3  -1 -39 507.961 24.5296  12
  -4   1  39 511.679 22.6139   5
  -3   4  39 551.040 28.0947  10
   1  -4 -39 509.058 22.9628   4
   3   1 -39 476.804 27.5300   6
   3   1 -39 510.175 20.8214  11
   3  -4  39 549.414 22.4157   5
  -1  -3 -39 517.855 22.4502   4
  -4   1 -39 500.697 27.4263  11
  -4   3  39 522.059 24.5214  11
  -3  -1  39 512.614 23.1396   7
  -4   3  39 480.379 28.3936   3
   3   1  39 504.407 25.7977   8
  -4   3  39 574.091 28.5912  10
  -1  -3 -39 504.575 25.3012  12
  -1   4  39 511.643 21.7215  11
   3   1  39 481.972 22.2458  11
  -1   4  39 514.063 25.3978   8
   4  -1 -39 524.911 23.8546  11
  -1   4  39 526.180 27.4080  10
   3   1  39 480.924 24.5622   2
   4  -1 -39 518.953 27.8143   6
   3  -4 -39 501.841 24.2665   4
  -3   4 -39 496.366 23.8237  11
   4  -3  39 562.167 24.7552  11
  -3  -1  39 506.016 22.4525   5
  -4   1 -39 528.216 33.2493   6
   4  -3  39 537.549 26.5976   8
  -3   4 -39 505.550 28.0785   3
  -3   4 -39 518.175 31.6490   6
   3  -4 -39 557.419 27.5986  11
   3   1  39 533.903 23.0693  10
  -4   1 -39 553.065 22.8525  12
   1  -4  39 523.053 23.3138   5
  -1  -3 -39 539.625 32.8680   6
   1   3 -39 542.482 30.0965   6
  -4   4  39 497.699 28.6779  10
   0   4  39 415.773 24.6467   8
  -4   0 -39 458.389 23.4962   7
  -4   4  39 431.894 23.6761  11
   4   0 -39 461.336 28.5167   6
   4   0  39 447.331 26.1933   2
  -4   0 -39 448.652 32.3987   6
   0   4  39 437.007 20.2380  11
  -4   0  39 474.314 22.7293   5
  -4   0  39 447.996 21.6773   7
   4   0  39 423.180 22.1833  11
   0   4  39 480.795 26.3385  10
  -4   0 -39 475.624 23.6108  12
   4  -4 -39 476.859 26.7932  11
   0  -4 -39 441.807 24.2662  12
   4   0 -39 470.848 21.5465  11
  -4   4 -39 449.703 28.4436   3
   4  -4  39 489.262 26.1446   8
   0  -4 -39 460.927 23.9331   4
   4   0  39 437.604 26.3316   8
  -4   4 -39 408.416 23.8291  11
  -4   4 -39 480.679 31.0088   6
   4  -4 -39 420.742 22.3972   4
   0   4  39 425.846 23.3438   2
  -4   4  39 444.731 28.6428   3
   0   4 -39 477.688 35.8188   6
   0  -4  39 446.326 21.9740   5
   0   0  40 11.3554 4.91511   5
   0   0  40 6.18743 4.48680  11
   0   0 -40 5.25951 4.17209   4
   0   0 -40 -0.1499 8.31119   6
   0   0  40 8.82256 5.55239   8
   0   0 -40 -0.9115 4.38958  11
   0   0  40 3.52630 5.97973  10
   0   1 -40 6.75639 4.54443  11
   0  -1 -40 12.7343 4.72350   4
  -1   0 -40 15.5013 9.91202   6
   1   0  40 12.9459 5.34839  11
  -1   0 -40 14.1899 6.18759  11
   0   1 -40 -3.4330 7.84517   6
  -1   0  40 8.88198 5.02747  11
   1  -1 -40 19.2413 9.53755   6
   1   0  40 7.87392 5.79394   2
   1   0  40 5.95091 4.65930   5
   1   0  40 10.4010 6.19515   8
   1  -1  40 6.57258 6.03834  10
   1   0 -40 6.26416 4.88639  11
   0   1  40 12.4215 6.88971  10
   0   1  40 9.23582 4.92288  11
  -1   1  40 6.05490 5.79934   8
  -1   1  40 7.82568 6.57275  10
  -1   1  40 -0.3326 4.45407  11
   1  -1  40 6.68932 6.31259   8
  -1   1 -40 3.49815 5.44260  11
   0  -1 -40 6.18394 5.91076  11
  -1   0  40 9.92612 6.54926  10
   1  -1  40 5.64344 5.21076  11
   1  -1  40 9.96394 4.77337   5
   1  -1 -40 15.9451 6.21089  11
   1   0 -40 -5.6457 7.28117   6
   0  -1  40 3.44281 5.21274  11
   0  -1  40 5.29233 5.13439   5
   1   0  40 0.64106 6.33908  10
   0   1  40 5.47531 6.06646   8
   0  -1  40 4.24908 6.07558   8
   1  -1 -40 -4.8819 4.26377   4
   0  -1 -40 6.88792 9.55317   6
  -1   0  40 6.73612 4.77828   5
   0  -1  40 10.7010 6.47054  10
  -1   1 -40 14.0387 8.74062   6
  -1   2  40 25.2208 9.12721   3
  -1   2  40 24.6219 5.91775  11
   1   1 -40 26.6352 5.99180  11
  -2   1  40 32.0037 6.63935  11
   2  -1 -40 30.4720 10.9304   6
   1   1  40 29.2053 7.57263   2
   1   1  40 24.4712 8.00172  10
   1   1  40 31.1648 6.58187  11
  -1   2  40 11.9396 7.82650  10
  -1  -1 -40 33.0855 5.63620   4
   1  -2 -40 24.9696 11.4659   6
  -1   2 -40 33.2118 6.35972  11
   1   1 -40 29.4083 9.51167   6
   2  -1  40 26.4303 6.33855  11
   1   1  40 22.6048 7.82589   8
  -1  -1 -40 14.8846 12.4751   6
   1  -2  40 31.9991 6.38509   5
  -1   2  40 28.5274 7.89438   8
   2  -1 -40 27.8623 6.48594  11
   1   1  40 26.8988 5.75412   5
   2  -1  40 29.3795 7.35968  10
   1  -2  40 19.9730 7.56243   8
  -1  -1  40 15.8433 5.72105   5
   1  -2 -40 32.7072 6.45774   4
   1  -2  40 16.9997 6.68535  11
  -1  -1 -40 19.7225 7.46715  11
   1  -2 -40 21.0227 6.96299  11
   2  -1  40 31.0618 6.19419   5
   2  -1  40 33.7325 8.47756   8
  -2   1  40 36.0923 8.62240  10
  -1   2 -40 28.1832 10.5125   6
  -2   1 -40 29.6910 10.8219   6
  -2   1 -40 33.8706 7.46331  11
  -1  -1  40 37.3586 7.84076  10
   0  -2 -40 115.827 10.1705   4
   0   2 -40 118.975 10.4817  11
   2  -2 -40 110.967 12.5041  11
  -2   0 -40 106.684 13.0100  11
  -2   2  40 121.680 11.5909  11
   2  -2  40 105.275 12.8896   8
   2   0  40 106.772 8.62003   5
  -2   2  40 123.625 13.8622   3
   2  -2 -40 113.619 14.9884   6
   2   0  40 103.631 10.9903   2
   2   0 -40 84.5844 14.1534   6
  -2   0 -40 106.970 11.4555  12
   2  -2  40 126.156 10.2888   5
   2   0  40 122.543 12.1902  10
   0   2  40 124.103 12.6134   8
   2   0  40 112.471 11.3006  11
   2   0  40 94.4932 11.1029   8
  -2   0  40 119.236 12.3198  10
  -2   0  40 107.485 11.6653   5
  -2   2 -40 113.491 16.1209   6
  -2   2  40 104.522 11.9793   8
  -2   0 -40 132.094 26.0047   6
   0   2  40 101.500 12.7056  10
  -2   2  40 98.5886 12.0951  10
   0   2 -40 75.0719 12.8362   6
   0  -2 -40 111.089 12.9982  11
   2  -2 -40 112.319 10.3118   4
   0  -2 -40 108.728 16.2604   6
   2  -2  40 106.364 11.3568  11
   2   0 -40 108.103 12.8355  11
   3  -2 -40 291.791 17.6600  11
  -2   3  40 275.789 18.6568  10
  -3   2 -40 268.283 24.6908   6
  -1  -2  40 292.192 15.8078   5
   3  -1  40 270.226 16.7952  10
  -2  -1 -40 282.493 17.6150  12
  -3   2 -40 276.031 18.2212  11
   1   2  40 258.284 17.9950   8
   3  -2 -40 271.561 23.2062   6
  -3   2 -40 298.049 18.6525   3
   2   1 -40 314.082 15.8791  11
   1  -3 -40 270.109 26.4414   6
  -2  -1 -40 309.987 25.5139   6
  -3   1  40 284.568 18.3910  10
  -3   1  40 290.186 15.3420   5
  -2   3  40 309.856 18.7857   3
  -1   3 -40 291.494 15.3206  11
   1  -3 -40 296.552 15.3593   4
   2  -3  40 266.745 15.4160   5
  -2   3  40 317.641 17.9706   8
   2  -3  40 280.394 17.5264   8
   1   2  40 285.660 19.1345  10
   1   2  40 272.231 15.2331  11
   3  -1  40 290.054 18.5485   8
  -1   3 -40 302.123 23.6337   6
   1  -3 -40 256.363 17.0856  12
  -3   2 -40 264.353 14.8182  12
   2   1 -40 265.559 20.1062   6
  -3   1  40 324.689 20.7139   3
  -3   1  40 300.653 17.6894  11
   1  -3 -40 279.894 19.0888  11
  -2  -1 -40 285.653 19.0502  11
   3  -1  40 275.700 16.3914  11
  -1  -2 -40 296.537 18.3098  12
   1  -3  40 314.006 16.4629   5
  -3   1 -40 268.581 18.9947  11
   3  -2  40 320.815 20.3013   8
   3  -1 -40 325.792 17.5194  11
   2   1  40 339.014 19.3202   8
  -2   3 -40 309.583 17.1522  11
   3  -2  40 299.230 17.5902  11
  -1   3  40 308.984 19.6669  10
  -2   3 -40 294.937 23.2945   6
   2  -3 -40 312.579 16.3640   4
  -2  -1  40 293.921 15.9138   5
   2  -3 -40 352.420 19.8539  11
   3  -2  40 330.380 14.5524   5
  -3   1 -40 304.151 16.4126  12
  -1   3  40 306.553 18.2215   3
  -1  -2 -40 332.870 15.9477   4
  -3   2  40 348.322 20.5939   3
   1   2 -40 344.401 22.4195   6
   2   1  40 351.038 18.5971   2
   3  -1 -40 313.273 22.0176   6
  -1   3  40 318.080 18.8597   8
   2  -3 -40 314.222 25.4237   6
   2   1  40 299.003 16.0831  11
  -1   3  40 310.915 16.0959  11
  -3   1 -40 314.205 25.1805   6
  -2  -1  40 309.048 18.1611  10
  -1  -2 -40 284.980 19.4457  11
  -2   3 -40 286.304 19.2565   3
   0   3 -40 16.7367 13.2845   6
   3   0  40 9.79374 8.92040   8
   0   3  40 33.4675 9.46729   8
   0  -3 -40 31.5313 8.66003  12
   0   3 -40 29.6397 6.94022  11
  -3   3  40 25.7426 10.9322  10
  -3   0 -40 25.4437 14.8296   6
  -3   3 -40 37.5178 9.16126  11
   3  -3  40 15.1910 10.2494   8
   3   0 -40 19.6978 7.18954  11
  -3   0 -40 23.3212 10.5559  11
  -3   3  40 28.1044 8.04118  11
   0  -3 -40 21.4328 15.4160   6
  -3   3  40 23.5738 11.0084   3
  -3   3 -40 33.1048 10.7781   3
  -3   3 -40 11.9197 13.8231   6
   3   0 -40 18.1696 11.0164   6
   0   3  40 25.3082 6.99104  11
   0  -3 -40 15.9075 7.27417   4
   3   0  40 20.2687 6.97650  11
   3  -3 -40 39.1603 8.74378   4
   3  -3 -40 23.7479 8.75306  11
   0   3  40 34.0513 10.4824  10
   3   0  40 27.8540 8.53719  10
  -3   0  40 13.2425 7.14926   5
   0  -3  40 16.5926 8.01022   5
  -3   0 -40 36.9029 8.70749  12
  -2   4  40 460.176 21.3506  11
   2   2  40 446.362 20.6293  11
   2  -4  40 474.046 22.1618   5
   2   2 -40 469.702 18.7182  11
  -2   4 -40 456.527 24.9241   3
  -4   2 -40 458.978 25.6879  11
  -2   4  40 438.728 25.5435  10
   2   2 -40 449.884 26.5279   6
  -4   2  40 445.386 23.4781  11
  -4   2  40 503.851 27.2400   3
   4  -2 -40 483.932 23.1054  11
   2   2  40 474.386 24.1882  10
  -2  -2 -40 504.368 21.1629   4
  -2   4  40 492.822 24.5693   3
   4  -2  40 408.304 22.3882  11
   4  -2 -40 467.560 31.1976   6
   4  -2  40 468.998 25.1901   8
   2  -4 -40 430.165 21.6505   4
  -2   4  40 460.869 23.7119   8
  -2   4 -40 433.426 20.5000  11
   2   2  40 484.148 25.0105   2
   2   2  40 459.646 25.4086   8
  -2  -2  40 483.179 21.8493   5
  -4   2 -40 465.361 30.8777   6
  -2  -2 -40 463.220 24.5897  12
  -2   4 -40 437.789 29.6644   6
   2  -4 -40 479.244 22.5481  12
  -2  -2 -40 464.951 31.9348   6
   3   1 -40 195.942 21.4331   6
  -3  -1 -40 236.284 26.8951   6
  -3   4  40 248.418 22.5992   3
   1   3  40 247.286 19.7132   8
  -1   4 -40 257.616 19.9244   3
  -3   4  40 228.770 17.1027  11
   1  -4 -40 233.943 17.4178   4
   3  -4  40 238.662 16.1350   5
   1   3  40 220.284 19.5493  10
  -3  -1 -40 226.184 17.8870  12
  -1   4 -40 279.396 26.8621   6
   1   3  40 201.770 14.7929  11
   4  -1  40 223.351 17.2749  11
  -3  -1 -40 231.599 17.6467   7
  -4   3 -40 211.534 22.8548   3
  -4   3 -40 221.122 23.5822   6
   4  -1  40 241.538 24.3085   2
   1   3  40 247.005 20.1401   2
  -3   4  40 205.967 20.7887  10
  -1   4 -40 224.416 13.3901  11
   4  -3 -40 240.735 18.3107  11
   3  -4  40 194.809 19.5363   8
   3   1 -40 231.996 15.4956  11
   4  -1  40 234.977 18.8300   8
  -4   1  40 254.484 16.6705   5
  -1  -3  40 230.195 16.3378   5
   1  -4 -40 221.725 17.9109  12
  -4   3 -40 236.726 19.2577  11
  -3   4  40 211.017 20.1396   8
   4  -3  40 208.010 17.8984  11
   3  -4 -40 234.544 21.5443  11
   3   1  40 242.629 19.0630   2
  -1  -3 -40 240.626 17.1447   4
  -4   3  40 227.942 18.1209  11
  -3  -1  40 207.446 15.7804   5
  -4   1 -40 225.239 15.8580  12
   1  -4  40 240.907 16.5890   5
  -3   4 -40 207.183 17.2668  11
   1   3 -40 216.692 22.1703   6
  -3   4 -40 219.406 25.8114   6
   4  -1 -40 197.479 16.1843  11
   4  -3  40 247.391 19.7915   8
   3   1  40 208.491 15.7680  11
  -4   3  40 211.749 22.7363   3
  -1   4  40 194.700 19.0564   8
  -1   4  40 243.193 20.0066  10
  -1   4  40 211.809 15.4912  11
  -4   1 -40 230.093 21.5561  11
   3   1  40 248.338 17.3338  10
  -3  -1  40 215.886 17.2073   7
  -1  -3 -40 229.476 18.5902  12
   3  -4 -40 199.951 15.9441   4
  -4   3  40 225.229 23.1830  10
   4  -1 -40 204.267 23.0332   6
  -1  -3 -40 219.824 27.3556   6
   3   1  40 214.655 18.8336   8
  -3   4 -40 209.494 20.9064   3
  -4   1 -40 217.956 24.1516   6
  -4   0 -40 33.3713 16.1536   6
  -4   4  40 28.4072 14.5018  10
   4  -4  40 5.15550 11.8342   8
   4  -4 -40 22.4446 11.7591  11
   0   4  40 -0.4423 7.23962  11
   4   0  40 -2.9754 12.0219   8
  -4   0  40 -9.1661 9.98958   5
  -4   0  40 -7.9907 9.14521   7
   0   4  40 1.89934 12.1798  10
   4   0  40 -4.7811 8.46253  11
  -4   4 -40 19.9199 14.6759   3
   0  -4 -40 -6.8078 9.73176   4
   4   0 -40 0.39124 13.2228   6
  -4   4  40 -3.5368 8.66605  11
   4   0 -40 -3.7457 8.42806  11
   0  -4  40 12.2119 9.55141   5
   0  -4 -40 9.21765 9.95325  12
  -4   0 -40 0.05818 9.40945  12
  -4   4 -40 -4.7213 16.3112   6
  -4   4 -40 -7.2846 9.88177  11
   4   0  40 13.7892 12.7262   2
   4  -4 -40 -2.8588 9.07637   4
  -4   0 -40 -2.5949 9.71547   7
  -4   4  40 13.4058 14.2593   3
   0   4  40 -4.0053 10.5432   2
   0   4 -40 16.7133 16.7514   6
   0   4  40 4.87400 11.4230   8
   0   0  41 0.16116 6.21481   8
   0   0 -41 12.1202 9.36995   6
   0   0  41 2.58820 6.38847  10
   0   0 -41 8.31033 3.91933   4
   0   0  41 -3.1245 4.60125  11
   0   0  41 4.99333 5.00470   5
   0   0 -41 6.67382 5.37362  11
   1  -1  41 527.464 21.7327  10
   0  -1 -41 536.653 21.9206  11
   1  -1  41 516.715 20.2159  11
   1  -1 -41 555.199 18.3513   4
   1   0 -41 539.617 21.0456  11
   0  -1  41 536.591 19.6825   5
   0  -1 -41 538.379 17.6285   4
   0   1 -41 502.809 20.4111  11
  -1   1  41 543.182 20.2969   8
   1  -1 -41 557.778 27.1208   6
  -1   1  41 534.924 20.7681  11
   1   0  41 554.768 18.8138   2
   1   0  41 544.892 19.2158   5
  -1   1 -41 542.909 27.2655   6
  -1   1 -41 510.983 20.9583  11
   1  -1  41 527.599 19.0275   5
   1  -1  41 526.250 21.1556   8
   0  -1 -41 535.977 27.8738   6
   0  -1  41 515.326 19.6244  11
   0   1 -41 513.379 26.1800   6
  -1   0  41 553.236 21.9308  10
   0   1  41 554.978 21.0309  11
   0   1  41 493.488 22.0739  10
   1   0 -41 472.462 24.9287   6
  -1   0  41 479.584 18.5684   5
  -1   0  41 548.263 20.5616  11
  -1   0 -41 565.568 22.5598  11
   0  -1  41 535.053 21.5273  10
   1   0  41 542.922 21.6368   8
   1   0  41 531.706 21.9311  10
   1   0  41 508.947 20.5773  11
  -1   1  41 548.401 22.7276  10
  -1   0 -41 554.506 28.7168   6
   0   1  41 550.933 21.3303   8
   1  -1 -41 542.526 21.6722  11
  -1   2 -41 558.731 28.3520   6
   1   1  41 550.628 18.7176   5
  -1  -1 -41 501.439 29.2953   6
  -1  -1 -41 478.383 22.1320  11
   1   1  41 501.118 21.9708   8
   1  -2 -41 555.292 20.0772   4
   2  -1  41 521.210 18.3134   5
   2  -1 -41 546.855 26.7304  11
   2  -1  41 508.635 21.6543  10
  -1   2 -41 497.020 21.0598  11
   1   1  41 482.728 20.5293  11
  -1   2  41 490.967 30.2742  10
   2  -1  41 549.053 22.4721   8
  -1  -1 -41 525.893 18.1181   4
   1  -2  41 498.265 20.5989   8
   1  -2  41 515.081 19.7967   5
  -1  -1  41 509.519 21.0870  10
   1   1  41 541.072 20.5468   2
   1  -2 -41 555.811 23.2005  11
  -2   1 -41 539.102 23.1033  11
   2  -1 -41 467.864 26.5162   6
   1   1 -41 489.648 19.8764  11
  -2   1  41 557.359 22.8672  10
  -2   1  41 526.828 21.0900  11
   2  -1  41 532.356 21.0799  11
  -1   2  41 558.232 21.3477  11
   1   1  41 488.816 22.1940  10
  -1   2  41 517.344 21.6058   8
   1  -2 -41 491.285 27.5208   6
   0   2 -41 515.400 21.0888  11
   2   0  41 482.934 24.6469   8
   0   2  41 477.823 20.2257  11
  -2   0 -41 508.684 23.7891  12
  -2   0  41 506.347 19.8742   5
   2  -2  41 516.712 20.8691  11
   2   0 -41 459.564 24.8210   6
  -2   0 -41 473.814 29.3563   6
   0   2  41 500.398 22.6444   8
   0  -2  41 470.375 19.7523   5
   2  -2  41 528.905 22.2359   8
  -2   2  41 533.397 21.3491   8
   0  -2 -41 530.106 19.3319   4
   2   0 -41 482.559 20.5985  11
   2  -2 -41 528.438 20.4932   4
  -2   2 -41 452.916 20.9102  11
  -2   2  41 517.007 23.6843   3
  -2   0 -41 501.203 22.7081  11
   0   2  41 493.899 23.0925  10
   2  -2  41 530.960 19.2255   5
   2   0  41 508.398 23.9777  10
   0  -2 -41 507.984 29.9814   6
  -2   0  41 508.093 21.7977  10
  -2   0  41 500.315 21.0460  11
   2   0  41 497.192 17.3617   5
   2  -2 -41 530.326 23.0647  11
   0  -2 -41 463.070 22.3651  11
  -2   2  41 464.892 20.7328  11
   2   0  41 556.744 21.1714   2
   2   1 -41 175.159 12.9544  11
   3  -1  41 171.304 14.5753  10
  -2   3  41 194.587 15.9554   8
  -1  -2  41 169.740 13.0423   5
  -2   3  41 174.690 16.7835  10
  -3   2 -41 162.930 19.5490   6
   1  -3 -41 208.182 17.9752  11
  -3   1  41 161.824 12.9315   5
   1  -3 -41 174.609 13.5053   4
  -3   2 -41 159.472 12.6869  12
   3  -1  41 211.168 14.9147  11
   2  -3  41 162.445 15.3437   8
   1   2  41 174.994 15.5826  10
   2  -3  41 162.225 12.5683   5
  -1   3 -41 144.318 17.6880   6
  -1   3 -41 160.234 12.9358  11
   1   2  41 149.999 15.1457   8
   1  -3 -41 155.380 14.7004  12
   3  -1  41 167.093 15.6769   8
   1   2  41 182.873 15.6627   2
  -2  -1 -41 178.254 17.3088  11
   1   2  41 177.368 12.4635  11
   1  -3 -41 169.983 20.3416   6
  -2  -1 -41 181.527 21.2191   6
  -3   1  41 165.894 15.9681  10
  -2  -1 -41 183.428 15.4654  12
  -2   3  41 151.215 17.9397   3
  -3   2 -41 165.516 16.5745   3
  -3   2 -41 148.217 15.7587  11
   2   1 -41 154.814 17.3363   6
   3  -2 -41 173.106 14.8974  11
  -3   1  41 174.279 14.9992  11
  -2  -1  41 159.352 14.9027  10
  -2   3 -41 150.356 18.3738   6
   2   1  41 165.571 12.7799  11
  -2  -1  41 158.194 12.5540   5
  -3   1 -41 159.880 15.8500  11
  -1  -2 -41 160.517 20.4071   6
  -3   1 -41 159.072 18.8133   6
   2  -3 -41 175.379 13.8639   4
   2  -3 -41 190.499 23.9358   6
   1   2 -41 174.037 12.4837  11
  -1   3  41 158.645 15.9403   8
  -1   3  41 164.935 16.0112   3
   3  -2  41 196.505 11.8568   5
  -2   3 -41 155.967 15.2458   3
  -1   3  41 162.014 12.4803  11
   3  -2  41 156.442 15.6870   8
  -3   2  41 196.738 17.7285   3
   1  -3  41 174.340 13.3487   5
   3  -1 -41 168.602 19.0325   6
   3  -2  41 164.229 16.3575  11
   3  -1 -41 160.084 13.3445  11
  -3   2  41 177.731 14.6956  11
  -1  -2 -41 167.796 17.4963  11
   1   2 -41 144.637 17.5320   6
  -1  -2 -41 169.758 12.9162   4
   2   1  41 152.297 15.6455  10
  -2   3 -41 188.330 14.2328  11
  -1  -2 -41 150.061 14.6320  12
   2   1  41 151.919 15.0756   8
  -3   2  41 158.541 16.9448  10
  -3   1 -41 147.832 17.0980  12
  -1   3  41 123.393 14.2035  10
   0   3 -41 24.6778 7.01020  11
  -3   3 -41 21.6928 10.1229   3
   0  -3 -41 20.9445 8.88361  12
   0   3  41 13.7799 6.58094  11
   3   0 -41 34.1612 11.6155   6
   3   0  41 22.1134 10.3027   2
  -3   3  41 1.81230 10.6926  10
   0   3 -41 19.8218 13.9858   6
   3  -3  41 31.6014 8.61832   5
  -3   3 -41 12.7443 8.25425  11
   3   0  41 44.7386 9.31507  10
  -3   0 -41 14.6260 10.7015  11
  -3   3  41 33.5560 8.09997  11
   3  -3 -41 17.6929 8.32931   4
   3  -3 -41 24.2444 9.24214  11
   3   0  41 29.0173 8.02572  11
  -3   0 -41 27.2789 15.1467   6
   0  -3  41 13.5248 7.81120   5
   0   3  41 18.2698 10.5503   8
   0   3  41 21.8711 11.0966  10
  -3   0  41 28.8441 7.85785   5
   0  -3 -41 36.2818 16.1875   6
   3   0 -41 20.3936 7.38631  11
  -3   3 -41 12.5880 14.3957   6
  -3   3  41 18.0445 11.5186   3
   3  -3  41 13.2881 10.0849   8
   0  -3 -41 21.9184 8.29158   4
  -3   0 -41 46.7399 9.34225  12
   3   0  41 21.7738 9.30061   8
  -2  -2 -41 60.7797 18.3807   6
   4  -2 -41 43.8006 10.1732  11
   4  -2  41 46.5528 10.7369  11
  -4   2 -41 49.7968 11.4549  11
  -2  -2  41 36.7297 9.74927   5
   2   2  41 54.2058 9.32358  11
  -2   4 -41 49.2878 9.28045  11
   2   2  41 39.4853 12.0530   2
  -4   2  41 40.3137 10.3105   5
  -2  -2 -41 51.4461 9.76210   4
  -4   2  41 67.0980 11.4758  11
   4  -2  41 35.2773 11.7157   8
   2  -4  41 66.7588 10.1540   5
  -2  -2 -41 42.0003 11.2472  12
  -2   4  41 66.4350 12.7355   3
   2  -4 -41 40.4273 10.4686  12
   2   2  41 38.6343 11.7809   8
  -2   4  41 36.5945 12.5115  10
  -2   4 -41 37.2966 16.6956   6
   2   2  41 46.9287 11.8900  10
  -4   2  41 45.6049 13.1040   3
  -2   4 -41 42.7583 12.1441   3
   2   2 -41 53.8145 8.42395  11
   2   2 -41 14.5432 12.1837   6
   4  -2 -41 57.7494 15.7048   6
  -2   4  41 48.5345 11.4875   8
  -4   2 -41 49.7602 16.7032   6
   2  -4 -41 44.3291 9.86275   4
  -2   4  41 57.4704 9.50901  11
  -1   4 -41 -6.1675 15.6834   6
  -3   4  41 -5.4553 11.8401  10
  -4   1  41 4.76404 8.90471   5
   4  -1  41 13.0769 10.5452   8
  -3  -1 -41 8.28320 8.85044  12
  -1   4 -41 24.4505 10.5847   3
  -4   3 -41 19.1352 14.6459   3
   3  -4  41 0.55496 12.0317   8
  -3  -1 -41 13.4626 16.3568   6
   1   3  41 2.39780 7.22264  11
   1   3  41 10.1464 11.8738  10
   3   1 -41 0.86619 7.63848  11
  -3  -1 -41 10.3128 9.82941   7
   3   1 -41 4.92129 11.7569   6
  -3   4  41 -2.5871 7.96038  11
  -1  -3  41 -9.6235 8.20933   5
  -4   3 -41 28.6469 15.6875   6
   1  -4 -41 -4.1651 8.79254  12
   1   3  41 -15.294 9.64507   2
  -3   4  41 13.7963 11.2089   8
   1   3  41 17.8960 10.6841   8
  -1   4 -41 7.19385 7.19097  11
   4  -1  41 -3.4155 7.86369  11
   3  -4  41 22.4262 8.85647   5
  -3   4  41 -7.7331 13.0205   3
   4  -3 -41 -8.5024 8.74893  11
  -4   3 -41 15.2197 9.79171  11
   1  -4 -41 21.8444 9.69262   4
   1   3 -41 -16.876 13.6347   6
  -3   4 -41 19.6922 9.01048  11
  -4   1 -41 7.48573 14.3562   6
   3   1  41 14.7463 10.0899  10
  -4   1 -41 15.5008 11.8967  11
  -1  -3 -41 7.39805 17.6158   6
   3   1  41 6.74368 7.35699  11
  -3  -1  41 3.42627 8.93929   5
  -3  -1  41 12.1395 8.54123   7
   3  -4 -41 16.7876 11.5230  11
   4  -1 -41 11.3953 12.8660   6
  -4   1 -41 6.78575 8.55570  12
  -1   4  41 16.5340 10.8556   8
   3   1  41 -10.228 9.64248   8
  -1  -3 -41 13.6393 9.89834  12
  -1   4  41 4.20872 11.6471  10
   3   1  41 -6.7984 11.0927   2
   1  -4  41 24.5910 8.72031   5
  -4   3  41 -5.1733 12.5170  10
   4  -1 -41 5.27987 7.94994  11
  -3   4 -41 4.18312 12.2092   3
  -1  -3 -41 9.66852 9.58460   4
  -3   4 -41 2.27987 15.5858   6
   4  -3  41 6.72244 11.2842   8
   3  -4 -41 10.9911 8.66160   4
   4  -3  41 19.1427 9.52803  11
  -4   3  41 18.0177 9.76683  11
  -1   4  41 8.22389 7.46176  11
  -4   3  41 -28.971 11.4828   3
   0   4  41 37.0557 8.99893  11
   0  -4 -41 54.1079 11.7432   4
  -4   4 -41 54.7645 15.6590   3
   0   4 -41 35.6990 18.1529   6
  -4   4  41 54.2011 15.7318   3
  -4   4  41 54.2392 14.6087  10
   4   0  41 33.6980 9.54784  11
  -4   0 -41 43.5968 11.4403   7
   0  -4  41 49.0417 10.9195   5
   0   4  41 21.6745 14.0865  10
   4  -4  41 22.7988 12.1962   8
   0   4  41 44.9385 11.8199   2
   4   0 -41 46.5852 10.1186  11
   4   0  41 45.7084 13.5667   2
   4  -4 -41 51.8513 11.5524   4
   4   0 -41 25.3940 14.8380   6
  -4   4  41 49.7108 10.7736  11
  -4   0 -41 33.7027 10.5221  12
  -4   4 -41 65.1167 18.0116   6
  -4   0  41 63.9891 11.0060   5
  -4   4 -41 41.4088 11.6965  11
   4  -4 -41 60.0624 13.3579  11
   0   4  41 41.1604 11.9445   8
   0  -4 -41 45.7267 11.7171  12
  -4   0  41 73.9999 11.2316   7
   4   0  41 44.4761 12.5428   8
  -4   0 -41 72.1281 18.0037   6
   0   0  42 505.092 18.6025   5
   0   0  42 525.953 21.6380  10
   0   0  42 501.728 19.6391   8
   0   0  42 517.471 20.1994  11
   0   0 -42 497.383 26.9110   6
   0   0 -42 525.381 21.0847  11
  -1   1  42 1225.20 35.4928  11
   0  -1 -42 1172.70 43.7326   6
   0  -1 -42 1154.36 36.3064  11
   0  -1  42 1122.01 35.6889  10
   1   0  42 1136.92 36.4138  10
   1  -1  42 1130.96 36.2434  10
  -1   0  42 1208.22 34.9650  11
   1   0 -42 1160.96 41.4751   6
   0  -1  42 1124.61 33.7009  11
  -1   0 -42 1110.29 43.3699   6
  -1   1  42 1167.11 33.8465   8
   1  -1 -42 1135.26 41.9992   6
   0   1  42 1090.91 36.2878  10
   1  -1  42 1166.69 34.3059  11
  -1   1 -42 1106.24 41.5844   6
   1   0  42 1190.11 36.6512  11
   1  -1 -42 1157.37 36.0979  11
   0   1  42 1149.60 34.9660   8
   0  -1 -42 1204.35 31.3687   4
  -1   0  42 1110.88 33.2708   5
   0  -1  42 1178.44 33.8391   5
   1   0  42 1194.84 32.8742   5
   1   0  42 1201.54 35.9995   8
  -1   0 -42 1155.57 36.6832  11
   1  -1  42 1189.25 33.2825   5
   0   1 -42 1160.24 35.3565  11
  -1   1 -42 1166.52 36.1910  11
   1  -1  42 1170.56 34.9407   8
   0   1  42 1181.23 35.2006  11
   1  -1 -42 1186.99 32.2156   4
   0   1 -42 1129.58 41.2298   6
  -1   1  42 1156.76 37.1695  10
   0   1  42 1159.16 32.3862   2
  -1   0  42 1165.61 36.0936  10
   1   0 -42 1076.87 34.9003  11
  -1   2  42 71.4843 10.7422  10
  -1   2 -42 84.3966 10.4230  11
   1   1  42 77.0734 10.3070   8
   1   1 -42 63.8084 11.9807   6
  -1  -1 -42 69.9673 8.49659   4
  -1  -1 -42 57.1517 9.12150  11
   1  -2 -42 59.1648 14.5689   6
  -1   2  42 64.0984 10.1385   8
   1  -2 -42 68.9061 10.2280  11
   1  -2 -42 68.1752 8.28480   4
  -1  -1  42 60.7907 8.23941   5
   2  -1 -42 50.5166 12.0787   6
  -2   1  42 71.8842 10.7045  10
   1   1  42 53.2707 10.2128  11
   1  -2  42 59.5248 9.61152   8
  -1  -1 -42 58.0435 16.3200   6
   1  -2  42 87.5665 13.0011   5
   2  -1  42 78.6809 9.06244   5
  -2   1 -42 80.0963 12.1577  11
   2  -1  42 62.6730 10.5005  10
  -2   1  42 83.9311 9.67003   5
  -1  -1  42 84.7235 10.2020  10
   2  -1  42 69.0350 8.93408  11
   1   1  42 65.6483 7.73438   5
   2  -1 -42 85.2944 10.6319  11
   1   1  42 58.7120 9.01612   2
   2  -1  42 76.7186 10.6272   8
  -2   1 -42 80.0399 14.2126   6
   2  -2  42 5.88156 6.19922   5
   0  -2 -42 5.96559 5.78497   4
   0  -2 -42 21.5341 13.8039   6
   2   0  42 13.7233 5.80359   5
   2   0  42 19.4338 8.64699   2
  -2   0  42 9.08386 8.42809  10
   2   0  42 7.43265 7.74089   8
   0   2 -42 17.8143 10.2049   6
  -2   2  42 -1.8148 12.5289   8
   0   2  42 -2.5948 5.31062  11
  -2   2 -42 12.0749 11.4460   6
   2  -2 -42 16.5183 12.1383   6
  -2   0 -42 14.5328 9.56238  11
  -2   0  42 17.5622 6.57808   5
  -2   0  42 8.60948 7.38943  11
   2  -2 -42 7.24120 7.06859  11
   0   2  42 7.62713 8.38368   8
  -2   0 -42 11.7367 12.6068   6
   2   0 -42 7.31801 6.01779  11
   2  -2  42 4.48915 8.09964   8
   0   2  42 9.45277 8.24814  10
   0  -2 -42 22.0323 8.49002  11
   2  -2  42 -4.5793 6.49859  11
  -2   2 -42 8.12095 6.22968  11
   0  -2  42 4.57855 5.78352   5
   2   0 -42 -17.089 7.88611   6
   2   0  42 13.6485 6.40085  11
  -2   0 -42 10.5541 7.25512  12
   2   0  42 3.37273 7.57005  10
  -2   2  42 10.0483 8.42327  10
   0   2 -42 7.45467 5.92864  11
   2  -2 -42 5.40138 6.33517   4
   1  -3 -42 134.988 16.8922  11
  -1   3 -42 119.030 18.2285   6
   1  -3 -42 113.829 13.6546  12
   2   1 -42 132.811 12.3750  11
   1   2  42 146.085 15.1496  10
  -1   3 -42 125.035 12.4216  11
   2  -3  42 122.680 15.4325   8
  -3   1  42 132.145 15.5699  11
  -3   1  42 158.708 15.8585  10
  -2  -1 -42 132.161 15.1184  12
  -1  -2  42 137.640 12.4892   5
  -2   3  42 146.029 16.4411  10
   3  -2 -42 128.899 14.5658  11
  -2   3  42 143.745 15.8384   3
  -2   3  42 134.210 18.4716   8
  -3   1  42 122.514 12.7374   5
   1   2  42 140.697 13.9010   2
   1   2  42 152.124 16.1390   8
   2  -3  42 134.169 12.1768   5
  -2   3  42 129.206 13.0791  11
  -3   2 -42 137.656 18.8223   6
   3  -2 -42 129.292 17.9665   6
  -3   2 -42 115.774 14.8516  11
   3  -1  42 115.790 14.3510  10
   1  -3 -42 133.195 19.8355   6
  -3   2 -42 118.936 12.0484  12
   3  -1  42 133.910 13.3035  11
  -2  -1 -42 164.885 21.0037   6
   1   2  42 120.341 11.7993  11
   1  -3 -42 119.427 12.2043   4
   3  -1  42 119.634 15.0866   8
   2   1 -42 135.395 17.0731   6
   2  -3 -42 133.051 12.5922   4
  -2  -1  42 126.641 12.3163   5
  -1   3  42 112.385 13.8003  10
   1   2 -42 137.140 12.0617  11
  -3   1 -42 129.018 15.2663  11
   3  -2  42 136.461 15.1325   8
  -3   2  42 117.923 14.2673  10
   2  -3 -42 150.606 16.9860  11
   3  -1 -42 131.774 16.5684   6
  -1   3  42 124.645 15.8965   8
  -1   3  42 114.870 14.7574   3
   1  -3  42 130.059 12.6546   5
   2   1  42 124.689 12.4276  11
  -2   3 -42 126.294 17.6398   6
   3  -2  42 104.768 13.8126  11
  -1  -2 -42 141.146 12.4721   4
  -1  -2 -42 129.865 14.5605  12
   2   1  42 141.848 14.6251  10
  -3   1 -42 133.056 12.8482  12
  -1  -2 -42 93.5230 18.0268   6
   1   2 -42 133.268 16.4225   6
  -2   3 -42 123.115 15.1775   3
  -2   3 -42 129.200 13.3696  11
  -2  -1  42 158.708 15.4962  10
   3  -1 -42 112.615 12.8691  11
  -3   2  42 148.655 14.3873  11
   2   1  42 132.816 15.5216   2
   2   1  42 168.404 17.2378   8
  -3   2  42 140.130 17.0265   3
   3  -2  42 138.253 11.0655   5
  -3   1 -42 122.430 17.5692   6
  -1  -2 -42 140.112 17.9257  11
  -1   3  42 130.686 12.0523  11
  -3   3  42 4.76181 7.55491  11
  -3   3  42 1.13909 10.2847   3
   3   0  42 4.39740 8.74225  10
   0  -3  42 1.86755 7.67568   5
   0   3 -42 9.05310 6.69177  11
  -3   0 -42 -14.013 14.1828   6
   0   3  42 18.9271 10.5462  10
  -3   3  42 10.0403 10.9260  10
  -3   3 -42 -6.3552 12.7660   6
   3  -3  42 4.92707 10.4407   8
   0   3  42 5.42332 6.04320  11
  -3   0 -42 0.92105 8.25012  12
   3   0  42 -4.3000 10.4669   2
  -3   3 -42 5.22167 7.84686  11
   0  -3 -42 -9.0819 21.0141   6
   0  -3 -42 6.76702 8.44846  12
  -3   0  42 5.68441 7.22304   5
   3  -3 -42 12.4314 8.76874  11
  -3   3 -42 3.85459 10.0348   3
   0   3  42 -9.2613 9.59254   8
   3   0 -42 4.64962 7.05596  11
   0  -3 -42 5.63141 11.8681   4
  -3   0 -42 -1.6134 9.62605  11
   3   0 -42 22.7565 11.2796   6
   3   0  42 -18.001 8.95505   8
   0   3 -42 8.75331 12.9462   6
   3   0  42 3.50396 7.22097  11
   3  -3 -42 6.84126 8.27233   4
   3  -3  42 -3.4127 7.14054   5
   2   2  42 14.5270 11.5333  10
   4  -2  42 -3.7899 11.0337   8
  -4   2  42 -1.3930 11.6608   3
   4  -2 -42 5.50311 8.58453  11
  -2  -2 -42 2.80537 12.1908   4
  -4   2 -42 31.3376 16.7429   6
  -2   4  42 12.5876 7.69468  11
   4  -2 -42 -18.818 13.9080   6
  -2  -2  42 6.47241 8.73017   5
  -4   2 -42 -3.3134 10.0640  11
  -2   4 -42 35.6577 16.8270   6
   2  -4  42 15.1335 8.77962   5
   2   2 -42 21.3687 7.59626  11
  -4   2  42 35.3848 9.51138   5
  -2  -2 -42 7.79886 9.54913  12
   2   2  42 16.2328 7.72686  11
   2  -4 -42 -6.8591 9.25088   4
   2   2  42 23.6495 10.9524   2
  -2   4 -42 2.97261 8.03125  11
  -2   4  42 12.5323 11.4034  10
  -2   4 -42 10.8553 10.9331   3
  -4   2  42 20.5004 9.89163  11
   2   2 -42 12.8200 13.0831   6
   2  -4 -42 11.6871 9.59997  12
   2   2  42 19.7706 11.6330   8
   4  -2  42 7.87035 9.18678  11
  -2  -2 -42 21.0788 17.2121   6
  -2   4  42 30.9367 11.6067   8
  -3  -1 -42 332.344 20.0582   7
   3   1 -42 329.000 25.2140   6
   3   1 -42 300.973 17.8275  11
   3  -4  42 320.693 23.3667   8
   1  -4 -42 325.738 19.6704   4
  -4   3 -42 380.677 25.9972   3
   1   3  42 305.066 21.6255  10
   1   3  42 296.035 21.7929   8
  -4   1  42 288.707 20.0126   5
   4  -1  42 306.421 19.7191  11
  -3   4  42 337.647 23.0205   8
   1   3  42 332.180 18.3782  11
  -3   4  42 303.757 18.8126  11
  -3   4  42 320.066 24.2890  10
   1   3  42 320.285 21.8328   2
  -4   3 -42 300.242 27.9587   6
  -3   4  42 307.035 24.3004   3
  -1   4 -42 297.583 30.8630   6
  -1   4 -42 309.710 22.5249   3
  -3  -1 -42 316.970 20.3729  12
  -1  -3  42 291.384 18.2458   5
  -4   3 -42 299.871 22.0510  11
   3  -4  42 336.909 19.1614   5
   4  -3 -42 322.637 21.4530  11
  -3  -1 -42 288.463 30.9189   6
   4  -1  42 312.809 21.3003   8
   1  -4 -42 300.099 20.4898  12
   3   1  42 409.780 21.7100  10
  -4   3  42 290.651 24.5206   3
   3  -4 -42 307.625 24.0124  11
  -3   4 -42 300.378 24.6654   3
   4  -1 -42 360.496 26.3812   6
   1   3 -42 324.711 28.3656   6
   4  -3  42 306.476 20.7256  11
  -4   3  42 343.844 21.7288  11
  -1  -3 -42 324.201 22.0151  12
  -1   4  42 295.687 23.9818  10
  -4   1 -42 269.875 23.7503  11
  -4   1 -42 343.552 19.6222  12
  -3   4 -42 354.410 20.8438  11
   4  -3  42 281.449 23.1164   8
   3   1  42 394.139 24.3305   2
  -3   4 -42 307.963 29.1625   6
  -1   4  42 336.370 18.5552  11
   3  -4 -42 318.630 19.7155   4
   3   1  42 305.269 22.1506   8
  -3  -1  42 322.902 18.8054   5
  -1   4  42 327.101 21.9708   8
   3   1  42 325.814 18.9555  11
   4  -1 -42 360.259 20.1441  11
   1  -4  42 341.687 19.7249   5
  -1  -3 -42 349.878 19.6661   4
  -4   1 -42 326.473 29.2221   6
  -4   3  42 337.404 24.7854  10
   0   0  43 10.5828 5.21663   5
   0   0 -43 -17.962 9.30899   6
   0   0  43 14.4192 7.32547  10
   0   0 -43 4.72996 5.54973  11
   0   0  43 3.39110 6.92252   8
   0   0  43 5.35181 5.19533  11
   1  -1  43 225.438 14.1496  11
   1  -1  43 255.843 15.7536   8
  -1   0  43 215.192 15.7303   5
   1   0 -43 251.106 19.3010   6
   0  -1  43 236.169 13.2731   5
  -1   1  43 219.080 13.1316   5
   1   0  43 262.974 14.7895  11
   0   1 -43 228.614 23.7112   6
  -1   1 -43 221.552 25.1966   6
  -1   1 -43 240.035 17.3214  11
   0   1  43 236.523 13.8264   2
   1   0  43 237.732 12.8789   5
   0   1  43 215.551 15.2196   8
   0   1  43 233.951 14.0325  11
   0   1  43 235.236 12.9769   5
   1   0 -43 248.915 11.5680   4
  -1   1  43 233.576 14.9033   8
   1  -1  43 202.761 21.3238  10
  -1   1  43 244.530 14.4995  11
   1  -1 -43 249.480 12.8377   4
   1   0 -43 217.743 17.3188  11
   0  -1 -43 192.460 20.6447   6
  -1   0 -43 204.164 21.6156   6
  -1   0 -43 252.717 16.2467  11
   1  -1  43 239.843 12.7175   5
  -1   0  43 253.955 15.9722  10
  -1   0  43 219.045 13.6583  11
   0  -1 -43 237.332 15.7674  11
   0   1 -43 234.923 15.9535  11
   0  -1  43 223.629 15.0797  10
   0  -1 -43 236.805 11.9583   4
   1  -1 -43 217.049 15.3530  11
   0   1  43 196.877 19.1355  10
   1  -1 -43 252.824 21.7355   6
   1   0  43 250.197 16.2717   8
   1   0  43 264.003 17.9366  10
   0  -1  43 232.632 13.6967  11
  -1   1  43 203.492 15.5678  10
   1  -2 -43 15.0277 13.7029   6
  -2   1  43 14.9346 9.17012  10
  -1   2  43 10.8502 8.09381  10
   2  -1 -43 6.72087 6.47216  11
   1   1 -43 11.9815 5.70530  11
   1   1  43 3.82405 5.73239   5
   2  -1  43 8.72074 7.70813  10
  -1   2  43 13.2423 6.32881  11
   1  -2 -43 -4.5116 6.08163   4
  -1   2 -43 3.75080 10.8923   6
  -2   1  43 15.5893 6.11561   5
  -2   1 -43 23.2608 7.74509  11
  -1  -1  43 6.57938 6.03932   5
  -1  -1  43 26.4869 8.04245  10
   2  -1  43 10.4669 8.28549   8
  -1  -1 -43 11.1278 8.02977  11
   1   1  43 24.5732 8.02670   2
   1  -2  43 2.08672 6.30123   5
   1   1  43 14.1214 8.21294  10
   1  -2 -43 22.7739 8.39290  11
  -1  -1 -43 22.9912 14.4180   6
   2  -1  43 6.31850 6.45799  11
  -1   2 -43 19.4495 6.48441  11
   2  -1  43 15.3037 5.97468   5
   1   1 -43 0.02574 9.62508   6
  -1   2  43 18.6054 8.16494   8
  -2   1 -43 19.7735 10.8658   6
   1   1  43 14.2494 6.04120  11
   2  -2  43 526.114 22.1378  11
   0   2  43 523.103 21.3090  11
  -2   0 -43 544.539 24.2149  11
   2  -2 -43 531.693 20.5925   4
   2   0  43 568.112 18.8165   5
  -2   0  43 485.476 23.2623  10
   2  -2 -43 530.151 23.6083  11
  -2   2  43 513.977 25.1948   3
   0  -2 -43 541.056 32.1662   6
  -2   2 -43 514.575 23.3735  11
   2   0  43 505.453 21.9309  11
   2  -2  43 552.742 23.5050   8
  -2   0  43 523.972 20.9370   5
   0  -2 -43 574.293 24.8550  11
   0   2  43 461.602 25.4881   8
   0  -2  43 538.552 21.1950   5
   2   0  43 474.368 22.4625  10
   0  -2 -43 559.530 20.3392   4
   2   0 -43 532.452 28.0063   6
  -2   0 -43 531.323 22.7636  12
   2   0 -43 499.369 21.6357  11
  -2   2  43 545.415 24.8319  10
  -2   2 -43 510.734 29.6011   6
   2   0  43 536.230 22.3536   2
   2  -2  43 534.055 20.3725   5
   0   2 -43 520.836 28.0443   6
   0   2 -43 549.043 21.7403  11
   2  -2 -43 524.214 29.7002   6
   0   2  43 471.760 24.0477  10
   2   0  43 532.550 23.7737   8
  -2   0 -43 566.017 32.3151   6
   1   2  43 227.488 14.6311  11
   3  -1  43 206.840 16.0583  10
  -1   3 -43 203.091 14.5792  11
   1  -3 -43 180.356 16.1546  12
   3  -1  43 230.944 18.8591   8
  -1   3 -43 193.587 21.1978   6
   2  -3  43 198.377 18.2433   8
   1  -3 -43 214.093 21.9394  11
   3  -2 -43 201.936 25.3737   6
   1   2  43 195.750 17.1610   8
  -2   3  43 209.428 18.6501   3
  -3   2 -43 196.484 17.5679  11
  -3   1  43 233.884 17.5985  11
  -2   3  43 217.189 18.3053  10
   2   1 -43 197.421 14.1417  11
  -3   2 -43 204.543 18.6889   3
   1   2  43 221.051 17.6136  10
   1   2  43 203.313 17.5789   2
  -3   1  43 214.715 14.8218   5
  -3   1  43 227.145 19.2673  10
  -2  -1 -43 216.172 17.2057  12
  -2   3  43 196.834 19.0575   8
   2   1 -43 216.329 21.0326   6
  -2   3  43 204.325 15.5546  11
  -3   2 -43 195.867 22.0040   6
  -2  -1 -43 221.423 19.3351  11
   3  -2 -43 184.833 16.2232  11
   1  -3 -43 206.281 15.9901   4
   1  -3 -43 226.346 27.1412   6
  -1  -2  43 208.195 14.6796   5
   3  -1  43 215.574 15.7652  11
   2  -3  43 189.754 13.9722   5
  -2  -1 -43 200.897 24.6873   6
  -1   3  43 229.204 19.2711  10
   2   1  43 191.849 16.9273  10
   3  -1 -43 189.260 15.1039  11
  -3   2  43 218.358 17.9952  10
  -2   3 -43 206.244 17.7776   3
  -3   1 -43 207.403 17.9817  11
  -2  -1  43 193.052 17.3581  10
  -2   3 -43 198.324 15.1140  11
   2   1  43 225.827 18.1409   8
   2   1  43 205.983 14.7677  11
  -1  -2 -43 207.314 17.2571  12
  -1   3  43 213.277 18.2857   8
  -3   2  43 191.868 18.1882   3
   3  -2  43 186.198 16.0904  11
   2   1  43 194.939 17.6899   2
   1   2 -43 189.720 21.4854   6
   2  -3 -43 195.919 14.4210   4
   2  -3 -43 221.386 19.0734  11
  -3   1 -43 176.337 14.4691  12
  -2  -1  43 194.829 14.3784   5
  -3   2  43 192.758 16.2020  11
  -1  -2 -43 175.133 21.7659   6
   3  -1 -43 214.112 21.6976   6
  -2   3 -43 193.109 22.6937   6
  -1  -2 -43 205.477 19.9912  11
   3  -2  43 214.141 19.0963   8
  -1   3  43 186.226 13.9790  11
   3  -2  43 196.378 12.7360   5
   1   2 -43 208.846 14.0476  11
   1  -3  43 212.393 14.6477   5
  -3   1 -43 186.272 23.9761   6
  -3   0 -43 0.69540 8.73377  12
   0  -3 -43 7.33140 7.59162   4
  -3   3 -43 19.3842 15.9395   6
  -3   3  43 2.21263 12.0597  10
  -3   0 -43 -4.7314 9.89826  11
  -3   3 -43 22.0753 10.8169   3
   3  -3  43 2.12362 10.3374   8
  -3   0 -43 -11.328 15.7099   6
   3  -3 -43 14.4145 8.90208   4
   3   0 -43 5.74193 7.49553  11
   0   3  43 7.92719 6.89562  11
   3   0  43 21.9161 10.9795   8
  -3   3  43 -2.2808 7.45586  11
   0   3 -43 19.2394 6.97289  11
   3  -3 -43 15.2447 9.51969  11
   3  -3  43 9.73425 7.92733   5
   3   0  43 14.6208 9.35046  10
  -3   3  43 34.7431 11.8472   3
   0   3  43 14.6787 10.6763  10
  -3   3 -43 17.0237 8.67972  11
   0  -3  43 9.82496 8.35536   5
   0   3 -43 3.65127 12.8572   6
   3   0  43 14.5198 7.85322  11
   3   0  43 14.4716 11.1822   2
   0  -3 -43 8.30295 19.0643   6
   0   3  43 33.9929 11.1414   8
   0   3  43 14.1713 10.2294   2
   3   0 -43 16.9213 12.0793   6
  -3   0  43 14.2220 8.29850   5
   0  -3 -43 23.6089 9.34214  12
  -2   4 -43 13.0705 11.2016   3
  -2  -2 -43 16.4916 17.9088   6
  -2   4 -43 32.5431 17.4100   6
  -4   2  43 34.5252 11.2351  11
   2   2  43 43.6945 12.7487   2
  -2  -2  43 29.2324 9.48971   5
  -4   2 -43 33.2393 11.3102  11
   2   2  43 27.0052 11.5667   8
  -2   4  43 17.7383 12.3014   8
   4  -2 -43 21.0231 8.79947  11
  -4   2  43 20.3091 9.35353   5
  -2  -2 -43 44.7339 11.4121  12
  -2   4 -43 24.5149 8.82851  11
   2   2 -43 35.6860 14.1741   6
   4  -2  43 22.1703 9.73245  11
  -2   4  43 33.4268 12.0324  10
  -4   2  43 27.4769 12.8925   3
   2   2  43 30.4545 12.5751  10
   2   2 -43 20.0993 7.74168  11
   4  -2  43 33.0017 12.6460   8
   2  -4 -43 20.1040 10.1771  12
   2   2  43 22.1797 8.13381  11
   4  -2 -43 35.1713 15.3939   6
   2  -4  43 39.4965 9.57537   5
  -4   2 -43 41.8071 17.3166   6
   2  -4 -43 28.2335 9.83262   4
  -2   4  43 21.7715 8.67097  11
  -1   4 -43 137.213 21.0472   6
   3  -4  43 123.172 14.0404   5
   3  -4  43 94.6355 15.1457   8
  -3  -1 -43 93.6177 12.8267  12
  -3   4  43 107.775 16.7179   3
  -4   3 -43 84.2281 14.4259  11
   4  -1  43 87.3440 12.1128  11
   1  -4 -43 88.2377 12.6354  12
  -4   3 -43 128.547 17.5272   3
   4  -1  43 67.7815 13.3343   8
  -4   1  43 79.3921 11.8389   5
   1   3  43 86.7436 10.9459  11
  -3  -1 -43 88.1555 12.3997   7
   3   1 -43 87.1800 11.0602  11
   1   3  43 111.680 16.5398  10
  -3   4  43 82.9177 12.3374  11
   4  -3 -43 104.090 13.6444  11
  -4   3 -43 94.4916 19.0235   6
   1   3  43 98.6826 15.1367   2
   1   3  43 111.427 14.9530   8
  -1   4 -43 100.281 14.3960   3
  -1  -3  43 76.2302 11.3150   5
   1  -4 -43 137.420 14.5361   4
  -3   4  43 115.432 16.3052  10
  -3  -1 -43 85.1019 20.0129   6
   3   1 -43 69.3451 15.0780   6
  -3  -1  43 73.0554 11.9218   5
   4  -1 -43 90.9782 11.9835  11
   3   1  43 80.2647 14.5499   2
   3   1  43 71.7045 10.6039  11
  -1  -3 -43 101.208 14.1004  12
  -4   1 -43 73.0277 11.5480  12
  -4   1 -43 73.9799 17.9240   6
  -4   1 -43 59.2833 14.1510  11
  -4   3  43 99.9405 13.8822  11
   1  -4  43 86.2086 12.3157   5
  -3   4 -43 106.640 19.3443   6
  -3   4 -43 88.5714 12.4114  11
   4  -1 -43 92.0279 23.0140   6
  -1   4  43 84.6698 15.6335  10
  -3   4 -43 82.3915 15.1080   3
   3  -4 -43 95.7042 13.0003   4
  -4   3  43 99.3520 15.8090   3
   3   1  43 110.807 14.1018  10
  -1   4  43 79.7127 13.8085   8
   1   3 -43 88.7356 17.8496   6
   4  -3  43 71.4805 13.9807   8
  -1   4  43 86.0917 11.8261  11
   3  -4 -43 114.684 15.9962  11
  -1  -3 -43 105.983 12.9255   4
   3   1  43 66.1060 14.1465   8
  -4   3  43 87.8312 16.6626  10
   0   0 -44 4.29923 5.79359  11
   0   0  44 -0.3306 5.18926  11
   0   0  44 4.00207 7.28043  10
   0   0 -44 -6.7100 10.4054   6
   0   0  44 9.26614 6.66179   8
   0   0  44 0.95846 5.54803   5
  -1   1  44 6.49718 7.54741   5
   1   0 -44 8.87525 5.74228  11
   1  -1  44 12.2253 8.26094   8
  -1   1 -44 13.3156 6.01846  11
   0   1 -44 2.54873 9.57107   6
   1   0  44 14.6428 8.61293   8
   1  -1 -44 25.3193 11.2967   6
  -1   0  44 11.2634 6.67895  11
   0  -1  44 9.80593 6.44551  11
   0   1 -44 11.9507 6.26292  11
  -1   0 -44 18.4121 9.80898  11
   0   1  44 29.6133 8.37805  10
   1   0  44 11.6230 6.18902  11
   1   0 -44 -0.7323 11.0193   6
   0   1  44 9.77108 7.17745   2
  -1   1  44 16.0199 6.47956  11
  -1   1 -44 16.3031 9.81532   6
   1  -1 -44 13.7286 5.69863   4
   0  -1 -44 15.9184 5.78871   4
   0  -1 -44 10.1435 11.7642   6
   0  -1 -44 19.9422 7.10509  11
   0   1  44 12.4524 5.50354   5
  -1   0 -44 12.2333 12.5714   6
   1  -1  44 7.85223 6.29456  11
   1  -1  44 5.87677 5.43124   5
   0   1  44 12.2814 5.86342  11
  -1   0  44 16.9815 6.28518   5
   1   0  44 5.87562 6.26564   5
   0   1  44 18.4812 8.18764   8
   1  -1  44 22.1553 7.55498  10
  -1   0  44 7.84512 7.68721  10
   1   0  44 10.3639 7.39771  10
  -1   1  44 -8.8819 7.58828   8
  -1   2  44 636.678 24.7328   8
   1   1  44 566.358 25.1617  10
  -1  -1 -44 656.728 33.8084   6
   2  -1  44 612.255 24.6886  11
   2  -1  44 627.645 21.5949   5
   1   1 -44 600.168 23.3715  11
   2  -1  44 585.281 24.7364  10
  -2   1  44 632.137 24.3953  11
   1   1 -44 621.300 30.1707   6
  -1   2  44 619.016 26.4797  10
   1   1  44 610.469 24.0192  11
   1  -2 -44 628.836 22.5515   4
   1   1  44 658.099 24.9815   2
  -1  -1  44 602.788 23.0159   5
  -1   2 -44 596.459 30.9860   6
  -2   1 -44 584.064 31.9964   6
  -2   1 -44 629.856 26.1672  11
   2  -1  44 563.255 34.2199   8
  -1  -1 -44 557.008 28.7667  11
  -2   1  44 639.919 23.3608   5
   1  -2 -44 530.705 33.3881  11
   2  -1 -44 587.959 24.3550  11
  -2   1  44 590.904 25.3384  10
   1  -2  44 589.819 22.5400   5
  -1   2  44 643.896 24.4726  11
   2  -1 -44 619.835 30.7212   6
  -1   2 -44 619.961 24.1855  11
  -1  -1 -44 609.765 25.6460  12
   1  -2 -44 594.098 31.9841   6
   1   1  44 609.183 25.3153   8
   1   1  44 634.867 21.3047   5
   0  -2 -44 501.789 19.5347   4
   2   0 -44 479.092 26.3976   6
   0   2  44 472.599 20.8994  11
   2   0 -44 471.859 21.7680  11
   0   2  44 442.730 23.2373  10
   2  -2  44 470.243 22.0662   5
  -2   0 -44 501.083 31.5861   6
   2   0  44 501.413 21.6111  11
  -2   0 -44 503.841 22.4676  12
   2  -2 -44 482.800 23.6975  11
   0   2  44 462.665 21.2972   2
  -2   2 -44 457.759 29.9197   6
  -2   2  44 487.258 24.8324   3
  -2   2  44 458.182 23.7929  10
  -2   2  44 486.118 22.2767  11
   0   2 -44 478.512 20.6792  11
   0  -2  44 499.436 20.4864   5
   0   2  44 505.223 23.4369   8
   2   0  44 468.282 22.3864  10
   2   0  44 486.176 22.9452   8
  -2   0  44 484.549 20.7158   5
   2   0  44 541.517 18.5664   5
   0  -2 -44 510.289 25.4110  11
   0   2 -44 480.965 27.5965   6
   2  -2  44 490.589 23.3577   8
   2  -2  44 486.712 21.6257  11
  -2   0  44 491.008 28.3461  10
  -2   2 -44 516.719 22.8118  11
   0  -2 -44 444.185 39.7020   6
  -2   0 -44 543.983 24.2598  11
   1   2  44 123.728 15.0380  10
   2   1 -44 102.110 15.7254   6
  -3   1  44 129.334 23.2507  11
   1  -3 -44 152.209 17.6278  11
   3  -1  44 135.124 14.2181  11
  -2   3  44 148.980 17.8017   3
  -2   3  44 137.858 16.4319   8
  -2   3  44 131.223 15.6165  10
  -3   1  44 126.969 14.6659  10
  -2  -1 -44 176.815 22.2276   6
  -2  -1 -44 143.182 18.4806  11
  -1  -2  44 129.560 13.6546   5
  -3   2 -44 125.907 16.1455  11
  -2   3  44 147.819 14.4505  11
   1  -3 -44 129.670 12.9572   4
  -3   2 -44 149.004 13.2324  12
   2  -3  44 124.754 12.5468   5
  -2  -1 -44 149.354 15.7402  12
  -1   3 -44 146.480 13.3742  11
  -3   2 -44 112.176 18.9664   6
   1   2  44 129.719 12.7825  11
   3  -1  44 133.531 15.0411  10
   3  -2 -44 161.678 19.5740   6
  -1   3 -44 130.735 18.7931   6
   2   1 -44 124.297 13.1498  11
   1   2  44 133.546 16.5589   8
   1   2  44 122.484 13.9520   2
   1  -3 -44 122.624 15.2130  12
  -3   2 -44 136.134 17.5581   3
   3  -2 -44 116.812 14.9250  11
  -3   1  44 133.740 13.1406   5
   3  -1  44 134.314 17.1879   8
   2   1  44 100.225 13.3427   2
  -2  -1  44 90.8046 14.7408  10
   1   2 -44 87.9448 10.2157  11
  -1  -2 -44 77.8361 13.5450  11
  -1   3  44 74.0359 13.0524  10
  -3   1 -44 87.4971 11.0574  12
   1  -3  44 89.7952 10.6188   5
   3  -2  44 107.931 13.8240   8
  -2   3 -44 81.8226 12.4703   3
   3  -1 -44 66.9936 10.0578  11
   3  -2  44 85.4049 11.0308  11
  -1  -2 -44 93.3073 11.0781   4
  -3   2  44 75.2769 13.3529  10
   3  -1 -44 61.6794 13.7742   6
  -3   2  44 85.8186 14.1376   3
  -1  -2 -44 61.2129 17.2694   6
  -3   1 -44 72.8438 16.3310   6
   2   1  44 106.920 12.4855  11
  -1   3  44 66.2977 11.6861   8
  -2   3 -44 101.643 17.5665   6
  -2   3 -44 94.2142 11.2737  11
   1   2 -44 105.344 16.4033   6
   2  -3 -44 93.1008 11.2319   4
   2   1  44 89.7698 12.4539  10
  -3   2  44 90.2137 12.2462  11
  -3   1 -44 105.051 14.0381  11
  -2  -1  44 85.7939 10.3773   5
   2   1  44 84.7014 12.9955   8
   2  -3 -44 130.252 14.9611  11
  -1   3  44 81.0910 10.2678  11
  -1  -2 -44 83.6464 12.1696  12
   0   3  44 706.063 30.8361  10
   3  -3  44 726.498 25.9164   5
  -3   0  44 677.650 26.3034   5
  -3   3  44 731.104 32.9843   3
   0   3  44 700.886 30.3499   8
   3  -3 -44 738.708 31.1721  11
   3   0  44 702.008 28.1974  10
  -3   0 -44 727.956 29.0565  12
   0   3 -44 728.285 25.3022  11
   3  -3  44 687.962 30.0211   8
   3   0  44 752.413 33.6469   2
  -3   3 -44 712.980 30.0664  11
   0  -3 -44 720.882 26.5155   4
   3  -3 -44 739.376 28.3489   4
   0   3  44 707.375 27.6873  11
   0   3  44 777.706 30.7734   2
  -3   3 -44 734.629 31.0362   3
  -3   3 -44 759.112 37.8580   6
   3   0  44 686.563 31.8655   8
  -3   0 -44 640.672 39.2253   6
  -3   0 -44 760.493 32.6064  11
   3   0  44 745.936 28.8052  11
  -3   3  44 693.629 29.4307  11
  -3   3  44 750.932 31.7241  10
   0   3 -44 692.576 36.8730   6
   0  -3  44 658.321 27.2969   5
   3   0 -44 720.605 28.0552  11
   0  -3 -44 686.478 29.8929  12
   3   0 -44 745.568 36.3204   6
  -2  -2 -44 669.802 31.1845  12
  -2   4 -44 729.795 38.8834   6
   2  -4 -44 698.693 28.4625   4
   2   2 -44 708.552 24.9886  11
   2  -4 -44 709.293 29.1437  12
   4  -2 -44 684.638 36.1299   6
  -2   4 -44 645.481 31.9277   3
  -2   4  44 672.763 27.1988  11
   4  -2  44 727.627 29.7149  11
  -2   4  44 722.458 30.4074   8
   4  -2 -44 633.686 28.2842  11
   2   2 -44 659.785 34.1010   6
  -4   2 -44 684.497 39.2973   6
  -4   2  44 670.079 32.8094   3
   2   2  44 694.287 30.5144  10
  -2   4 -44 723.158 27.0534  11
   2   2  44 684.838 27.2258  11
  -4   2  44 652.802 27.7032   5
   2  -4  44 714.153 28.3673   5
  -2  -2 -44 671.816 40.1840   6
  -2  -2  44 639.218 27.1593   5
   4  -2  44 674.519 31.3950   8
  -2   4  44 726.511 32.5941  10
  -4   2  44 699.878 29.7275  11
   2   2  44 615.339 30.5309   8
   2   2  44 735.469 31.3360   2
  -4   2 -44 734.067 33.0458  11
   3   1 -44 28.8170 14.4349   6
  -4   3 -44 47.2234 17.6820   6
  -4   3 -44 31.5060 15.2037   3
  -3  -1 -44 42.3034 11.0145   7
   1   3  44 23.7293 12.7769   8
   4  -1  44 38.5906 10.6020  11
   4  -3 -44 8.33558 10.2681   4
   1   3  44 39.0372 13.5664  10
   3   1 -44 33.1287 9.26309  11
  -3  -1 -44 37.1578 18.7647   6
  -1   4 -44 41.5994 12.9865   3
  -4   1  44 20.5498 10.4304   5
  -4   3 -44 19.3822 11.2840  11
   1   3  44 38.6030 9.18416  11
  -1  -3  44 34.3083 10.2412   5
   1  -4 -44 38.4240 10.3300   4
   4  -1  44 40.7055 12.7141   8
   4  -3 -44 35.5944 11.0171  11
   3  -4  44 42.5008 10.4005   5
  -1   4 -44 54.6413 19.0915   6
  -3   4  44 31.3658 14.1169  10
   1  -4 -44 36.2682 10.9612  12
  -3  -1 -44 50.8195 11.4500  12
   1   3  44 19.7259 12.2707   2
  -3   4  44 24.0431 13.5995   3
  -4   3  44 49.3686 11.3511  11
  -3   4 -44 56.7615 19.1409   6
   1   3 -44 53.4585 16.9535   6
   3   1  44 30.3915 9.13366  11
   4  -1 -44 28.8247 15.3681   6
  -4   3  44 48.9795 15.3482   3
  -1   4  44 25.5278 13.2994  10
  -3  -1  44 42.0460 10.6117   5
  -3   4 -44 34.0198 10.5872  11
   3   1  44 53.2434 14.4121   2
   1  -4  44 32.2735 10.4165   5
   3  -4 -44 44.9295 11.0321   4
  -1   4  44 49.1094 9.39220  11
   3  -4 -44 42.4674 13.9928  11
  -4   1 -44 37.2151 16.6840   6
  -4   3  44 58.2372 15.8525  10
  -4   1 -44 55.3021 10.8508  12
  -1   4  44 25.6123 13.2157   8
  -1  -3 -44 47.4509 12.3163  12
   4  -1 -44 40.0206 9.81297  11
   4  -3  44 38.4908 13.0603   8
  -1  -3 -44 43.4361 11.0985   4
   3   1  44 34.9156 12.3958   8
  -3   4 -44 37.9347 14.7477   3
  -4   1 -44 27.9212 13.0612  11
   3   1  44 53.4083 11.9304  10
   0   0 -45 4.92578 5.91345  11
   0   0  45 0.13403 7.34283  10
   0   0 -45 25.7142 11.7458   6
   0   0  45 18.9546 7.82859   8
   0   0  45 4.25294 6.53541   5
   0   0  45 0.41795 7.56819  11
   1  -1  45 116.969 12.2922  10
  -1   0  45 123.137 12.2781  11
   0   1  45 121.493 13.8997   8
   1   0  45 125.914 12.2187  11
  -1   1  45 124.980 14.2588  10
   0   1  45 101.071 13.1263   5
   0   1 -45 98.3203 14.8489   6
   0  -1  45 109.781 10.8054   5
   1  -1 -45 134.814 13.6591  11
   1   0 -45 129.057 15.9495   6
   0   1  45 115.889 13.2663  10
  -1   0  45 95.3262 16.1714  10
   1  -1 -45 119.922 9.89335   4
   0  -1  45 117.382 12.5266  11
   0   1 -45 122.316 11.8192  11
  -1   1 -45 135.399 17.3881   6
  -1   1 -45 105.757 11.9465  11
   1  -1  45 140.179 12.6898  11
  -1   0  45 98.5388 10.5192   5
   1   0 -45 97.9876 11.6925  11
   0   1  45 133.069 15.0297   2
   1   0  45 101.932 12.7567  10
   0  -1 -45 117.270 22.9072   6
   1  -1  45 116.884 14.0105   8
  -1   1  45 120.550 11.9263  11
  -1   0 -45 90.6056 15.6269   6
   1  -1  45 114.661 12.4016   5
  -1   0 -45 102.406 13.3809  11
   0  -1 -45 127.520 10.1848   4
  -1   1  45 101.583 10.9568   5
   0  -1  45 128.969 13.2762  10
   1   0  45 121.385 10.5891   5
   1   0  45 98.2246 11.5911   8
  -1   2 -45 5.03922 6.89625  11
   1  -2 -45 10.1005 8.22386  11
   2  -1 -45 -18.093 10.4643   6
   1   1  45 4.68909 8.99949   8
   2  -1  45 2.94693 8.98089   8
   1   1 -45 4.04202 6.00208  11
  -1  -1 -45 4.67754 8.78431  11
  -2   1 -45 0.30131 7.23043  11
   1   1  45 11.0800 8.71413   2
   1   1  45 5.16795 6.44252   5
  -1   2  45 12.3604 8.76072  10
   1   1  45 3.85673 8.41658  10
   1   1  45 2.10874 6.59185  11
   1  -2 -45 2.25732 6.78818   4
   2  -1  45 0.65612 6.44311   5
  -1   2 -45 3.83190 12.1906   6
  -1  -1 -45 -23.716 12.8662   6
   1  -2  45 -4.6962 6.02526   5
  -2   1  45 18.5586 9.33218  10
  -2   1  45 25.0009 7.70290  11
   1   1 -45 -5.6832 10.1930   6
  -1  -1  45 4.87873 7.98880  10
   2  -1 -45 14.3125 6.84991  11
  -1   2  45 9.74493 6.54787  11
  -1  -1 -45 7.57561 7.92206  12
  -2   1 -45 17.3723 12.7709   6
  -2   1  45 9.58522 6.89938   5
  -1   2  45 15.4477 9.23968   8
   2  -1  45 -5.9936 7.02573  11
   2  -1  45 15.4969 8.05124  10
  -1  -1  45 2.92587 6.38414   5
   0   2  45 391.644 22.0550   8
  -2   2  45 343.533 21.8675   3
   0  -2 -45 403.613 22.0964  11
   2  -2  45 400.917 17.6373   5
   0  -2 -45 382.047 30.6721   6
   2  -2  45 378.888 29.9787   8
  -2   2 -45 375.471 20.6772  11
  -2   0 -45 390.573 30.5857   6
  -2   0 -45 375.226 21.3888  11
  -2   2  45 376.758 22.2544  10
   0   2 -45 394.517 18.8914  11
   0  -2  45 363.167 18.1839   5
   2   0  45 407.024 19.6350  11
   2  -2  45 382.723 20.1777  11
   2   0 -45 431.159 26.2739   6
  -2   0  45 380.417 20.6030  10
   0   2  45 391.656 19.0492  11
   2  -2 -45 434.084 21.8560  11
  -2   2 -45 364.998 28.6337   6
   2  -2 -45 408.699 29.3988   6
   2   0 -45 372.019 19.5696  11
   0  -2 -45 440.486 18.6646   4
   2   0  45 429.035 22.6896   8
   0   2  45 393.817 21.8032  10
  -2   0  45 396.627 18.6546   5
   0   2 -45 389.724 27.8401   6
  -2   2  45 369.007 19.2227  11
   2   0  45 385.123 20.4941  10
  -2   0 -45 393.521 20.3426  12
   2   0  45 397.752 16.4402   5
   2  -2 -45 384.369 17.4397   4
  -2   3  45 99.6908 19.2738   3
  -2   3  45 63.1287 10.1206  11
   1  -3 -45 90.6808 13.8416  11
  -3   2 -45 60.3005 12.9792   3
  -3   2 -45 71.8723 9.92592  12
   1   2  45 91.7400 13.9838  10
   3  -1  45 56.6290 12.0189   8
  -2   3  45 79.4156 14.0400  10
  -1   3 -45 74.9983 10.4288  11
   1  -3 -45 75.2259 11.6902  12
  -3   2 -45 49.0250 16.5225   6
  -3   2 -45 73.0067 11.6892  11
  -2  -1 -45 90.5834 18.6022   6
  -3   1  45 92.6294 11.2036   5
   3  -2 -45 86.8617 12.2710  11
   2   1 -45 95.3379 12.3762  11
   2  -3  45 83.9670 10.4479   5
   1   2  45 97.7866 11.0945  11
  -2  -1 -45 104.658 14.6540  11
   1   2  45 112.342 14.0768   8
  -3   1  45 77.5011 13.5960  10
  -1   3 -45 77.0850 18.6799   6
   1   2  45 85.4527 13.0800   2
  -2   3  45 74.6320 12.8325   8
   3  -2 -45 68.3792 16.7301   6
   3  -1  45 105.009 13.8845  11
  -2  -1 -45 79.7787 11.8800  12
  -1  -2  45 74.9764 11.0110   5
   3  -1  45 109.510 12.9795  10
   2   1 -45 55.2044 13.6320   6
   1  -3 -45 84.4400 11.2629   4
   2   1  45 110.782 12.2316  11
  -3   1 -45 110.850 18.9221   6
   3  -2  45 81.7432 13.4619   8
   2   1  45 102.595 13.7635   8
  -2   3 -45 132.467 14.6204  11
  -1   3  45 106.985 15.1650  10
  -3   1 -45 88.1630 12.0643  11
  -3   1 -45 108.137 14.1140  12
   2  -3 -45 122.877 14.5325   4
  -2   3 -45 109.248 19.0162   6
   1  -3  45 103.923 12.1365   5
   3  -1 -45 127.372 13.9985  11
  -1  -2 -45 106.755 13.2513  12
  -2  -1  45 98.8541 13.4476  10
  -2  -1  45 79.1616 10.7987   5
  -2   3 -45 71.2060 12.8166   3
   2   1  45 96.5747 14.7594   2
   1   2 -45 110.215 12.8998  11
  -1   3  45 109.152 13.6930   8
  -1   3  45 122.023 13.0198  11
  -1  -2 -45 86.2071 19.0924   6
  -1  -2 -45 101.352 14.6506  11
   2   1  45 105.989 14.0153  10
  -3   2  45 121.516 15.3621  11
  -3   2  45 99.8661 14.8917   3
   3  -1 -45 119.968 17.4422   6
  -1  -2 -45 124.297 13.3405   4
   2  -3 -45 105.608 14.4322  11
  -3   2  45 106.374 15.6607  10
   1   2 -45 104.540 17.4649   6
   0   3  45 252.222 17.1113  11
   0   3  45 248.614 20.1405   8
   0  -3 -45 281.078 20.3223  12
   0  -3 -45 249.217 17.8304   4
  -3   3 -45 271.926 28.7859   6
   0   3 -45 245.853 28.0293   6
   3  -3 -45 236.076 17.9427   4
  -3   0  45 244.230 16.6134   5
  -3   0 -45 277.648 19.3764  12
   3  -3  45 254.772 16.4755   5
   3  -3  45 315.030 22.1857   8
   3   0 -45 267.056 18.0279  11
   0   3  45 262.467 20.5201   2
  -3   3  45 239.095 21.4475  10
  -3   3  45 266.119 17.9723  11
   3   0 -45 237.494 25.9447   6
   0   3  45 258.767 21.0230  10
  -3   3 -45 249.915 18.9748  11
   3   0  45 253.671 18.0236  11
   3   0  45 267.295 20.9993   8
   3  -3 -45 264.517 20.8947  11
   0  -3  45 252.410 17.4850   5
   0   3 -45 253.677 15.9216  11
  -3   0 -45 244.272 22.3861  11
  -3   0 -45 225.590 29.0167   6
  -3   3 -45 251.525 20.6228   3
  -3   3  45 213.998 22.5972   3
   3   0  45 236.855 18.2402  10
  -2   4  45 -9.6555 12.3088  10
  -2   4 -45 -5.8122 8.30815  11
   2  -4 -45 22.5519 10.3372   4
  -4   2  45 9.85089 11.1977  11
   2   2 -45 -1.9492 8.06690  11
   4  -2 -45 16.5177 9.93482  11
  -2   4  45 6.89224 12.4897   8
  -2  -2 -45 -3.3266 18.5498   6
  -2   4 -45 20.6248 18.2255   6
  -2  -2  45 -5.1997 9.21478   5
   4  -2  45 11.1404 9.86848  11
  -2   4 -45 11.9968 11.8913   3
   2   2 -45 -21.221 13.0418   6
   2   2  45 35.3769 13.5837   8
  -2  -2 -45 23.5969 10.7343  12
   2   2  45 10.5177 12.3990   2
   2   2  45 -0.2421 8.18364  11
  -4   2  45 7.77441 9.91413   5
   2   2  45 17.7584 13.4389  10
  -4   2 -45 3.62217 17.0866   6
  -4   2 -45 -6.7782 11.6001  11
   2  -4 -45 3.07998 10.2349  12
   4  -2 -45 -13.121 16.4579   6
  -2   4  45 3.09534 7.81947  11
   4  -2  45 19.9189 12.5407   8
  -4   2  45 -11.990 13.4955   3
   2  -4  45 7.54412 9.85271   5
   0   0  46 3.56047 7.94609   8
   0   0  46 7.57964 8.20470  10
   0   0  46 3.21173 5.69876  11
   0   0  46 7.79279 6.18968   5
   0   0 -46 7.88381 6.40744  11
   0   0 -46 -3.9596 10.6447   6
  -1   0  46 14.5550 7.31118  11
   1   0 -46 5.14361 6.42165  11
   1  -1  46 0.81728 8.89246   8
   0   1  46 5.63603 6.16143   5
   0   1  46 1.58869 8.39948   8
  -1   0  46 15.5547 8.95835  10
  -1   1 -46 2.85114 6.20872  11
  -1   0  46 11.1753 6.10347   5
  -1   1  46 13.9835 7.01041   5
  -1   0 -46 2.43239 12.3459   6
  -1   0 -46 8.90802 7.99500  11
   1  -1  46 12.3066 7.40426  11
   1   0  46 15.4857 7.55435  11
   0   1  46 6.51961 8.40646  10
   0   1  46 9.66957 6.18898  11
   1   0 -46 5.11997 10.9046   6
   1  -1 -46 -1.9567 12.3651   6
   1  -1 -46 3.96766 7.14802  11
   0   1 -46 1.13331 10.7386   6
   1  -1 -46 6.94834 5.83957   4
   0  -1  46 6.98723 7.49727  11
   0  -1  46 13.3974 6.08042   5
   0  -1  46 12.1241 8.20875  10
   0   1 -46 8.91267 6.60051  11
   1   0  46 24.5381 9.48330   8
   1  -1  46 1.84233 6.70535   5
   1   0  46 -6.7628 7.66536  10
   1  -1  46 20.9547 7.80233  10
  -1   1 -46 21.9300 12.4332   6
   0  -1 -46 22.7739 8.30180  11
  -1   1  46 18.0570 9.21745  10
   0  -1 -46 14.0101 12.9565   6
   1   0  46 22.7606 6.67949   5
  -2   1 -46 42.7615 14.6554   6
   1   1  46 62.3003 10.9353  10
   2  -1  46 51.9400 9.23246  11
   2  -1  46 61.6394 11.2312   8
  -1   2  46 46.4276 10.2267  10
   1   1  46 35.7766 10.1711   8
   1  -2 -46 44.0717 9.59483  11
  -1   2  46 42.1799 8.62965  11
   2  -1 -46 50.2167 14.0461   6
   2  -1 -46 60.3261 9.91164  11
   1  -2  46 55.1582 8.62539   5
   1   1 -46 56.8361 13.3910   6
   1  -2 -46 65.5948 10.2738   4
   1   1  46 48.9467 10.2134   2
   1   1 -46 53.9235 8.67174  11
   2  -1  46 39.3938 9.96153  10
  -2   1 -46 33.6973 9.52769  11
  -1  -1 -46 38.9962 9.63178  12
   2  -1 -46 79.7011 9.65208   4
  -2   1  46 55.8901 8.73779   5
  -2   1  46 47.9184 11.0360  10
  -1   2 -46 51.1489 8.89460  11
  -1  -1  46 69.5357 9.34233   5
   1   1  46 52.3810 11.9597   5
   2  -1  46 58.4369 8.55077   5
  -1  -1 -46 57.7991 16.9667   6
   1   1  46 55.8116 9.09267  11
  -1  -1 -46 26.3099 9.69510  11
  -1   2 -46 54.5719 14.0720   6
   1  -2 -46 49.6604 15.9576   6
  -1  -1  46 73.0065 11.5566  10
  -1   2  46 52.9837 11.2206   8
   0  -2 -46 351.964 18.5384   4
   0  -2  46 354.351 17.8761   5
   2   0  46 354.153 19.3072  11
   2  -2  46 314.163 20.5026   8
   0   2  46 356.726 20.3726   2
   0   2  46 359.160 21.6430  10
   2   0 -46 360.319 19.1045  11
  -2   0  46 317.883 20.4033  10
   2   0  46 348.328 20.5932   8
   0  -2 -46 358.087 31.0341   6
  -2   0 -46 289.621 28.0548   6
   2   0  46 384.965 18.6396   5
   0  -2 -46 376.724 22.0277  11
   2  -2  46 348.084 17.1897   5
  -2   0 -46 353.059 19.6707  12
   2  -2 -46 309.186 29.4979   6
   2  -2 -46 356.665 17.7267   4
  -2   2 -46 321.998 27.8028   6
  -2   2 -46 318.464 19.6820  11
   2  -2  46 356.276 20.0123  11
   2   0  46 341.915 20.3750  10
  -2   2  46 372.592 21.9664  10
   0   2  46 335.257 17.9941  11
   0   2 -46 356.120 26.9414   6
   2  -2 -46 348.607 21.1806  11
  -2   0 -46 365.194 21.3636  11
  -2   2  46 366.133 19.5783  11
  -2   0  46 359.336 17.9052   5
   2   0 -46 311.875 24.7934   6
   0   2  46 317.683 20.9031   8
   0   2 -46 359.898 18.2584  11
  -3   2 -46 264.390 20.7284   3
   3  -2 -46 240.900 19.2020  11
   3  -1  46 241.118 20.8832   8
   1  -3 -46 256.716 21.4761  11
   3  -2 -46 247.320 26.9090   6
  -3   1  46 277.327 18.1595   5
  -1   3 -46 278.967 28.6887   6
  -2   3  46 233.006 21.3499  10
   3  -1  46 286.425 18.5900  11
  -1  -2  46 265.907 16.6429   5
  -3   1  46 277.786 21.3072  10
   1  -3 -46 284.818 17.0382   4
   2  -3  46 289.674 17.6816   5
  -2  -1 -46 270.622 19.7573  12
  -2  -1 -46 316.326 30.9179   6
  -2  -1 -46 297.483 22.4354  11
  -2   3  46 290.575 18.6329  11
   1   2  46 232.613 21.1530   8
  -2   3  46 329.669 23.3323   3
   3  -1  46 262.666 18.6749  10
  -2   3  46 269.718 19.9144   8
   1  -3 -46 250.449 19.4662  12
  -1   3 -46 260.643 16.9965  11
   1   2  46 259.660 16.8529  11
   1   2  46 267.066 21.0633   2
   3  -2 -46 258.312 18.2104   4
   2   1 -46 246.453 23.4446   6
   1   2  46 271.063 19.9935  10
  -3   2 -46 256.784 16.4970  12
   2   1 -46 277.624 17.2049  11
  -3   2 -46 259.546 19.9449  11
  -3   2 -46 227.651 26.4859   6
   2   1  46 271.340 17.5890  11
  -1  -2 -46 268.040 22.6858  11
  -3   2  46 244.974 22.1922   3
   3  -2  46 296.537 19.9140  11
   1  -3  46 287.844 17.4570   5
  -1   3  46 300.334 17.2623  11
  -2   3 -46 269.984 18.8290  11
  -3   2  46 246.455 23.0110  10
   2  -3 -46 294.506 19.0660   4
  -3   1 -46 258.196 27.0412   6
  -3   1 -46 275.769 20.9123  11
   1   2 -46 270.987 24.5779   6
  -2  -1  46 255.721 17.4251   5
   2   1  46 277.953 21.9059   8
   3  -2  46 286.760 22.0468   8
  -3   1 -46 273.463 18.2193  12
  -3   2  46 313.550 20.1503  11
  -1  -2 -46 248.158 26.9363   6
   3  -1 -46 224.679 25.9204   6
   2  -3 -46 293.276 21.9646  11
  -1   3  46 256.460 22.2798   8
  -2   3 -46 309.653 21.0865   3
  -2   3 -46 278.314 28.6714   6
   2   1  46 280.125 21.0915   2
  -1  -2 -46 291.366 20.5685  12
   3  -1 -46 238.794 18.3166  11
   2   1  46 285.909 21.2608  10
   1   2 -46 278.045 16.8798  11
  -1   3  46 277.097 22.3624  10
   0   3  46 16.2651 12.0838   8
   3  -3 -46 20.5828 9.26572   4
  -3   3 -46 31.6705 10.2380  11
  -3   3  46 -14.093 11.9769   3
   0   3 -46 23.9392 8.60787  11
   3   0 -46 29.9328 9.21592  11
   3  -3 -46 10.4547 10.2340  11
   3   0  46 26.3622 11.7218   8
   0   3  46 13.0351 12.2843  10
   3   0  46 30.1554 9.04696  11
   3  -3  46 33.0983 9.34634   5
  -3   0 -46 24.9544 10.0798  12
   0  -3 -46 43.4607 10.8584  12
   0  -3  46 11.0683 8.99444   5
  -3   3  46 9.58606 12.3820  10
   0   3  46 17.1560 8.00677  11
   3   0 -46 13.6796 14.6841   6
   0  -3 -46 34.1941 10.0716   4
  -3   3 -46 18.8961 15.8272   6
   0   3  46 42.2147 12.2636   2
   0   3 -46 17.7101 16.0822   6
   3   0  46 13.5051 10.8808  10
  -3   0 -46 13.6941 11.5779  11
  -3   3 -46 15.3689 12.2773   3
  -3   3  46 19.2143 8.70551  11
  -3   0  46 21.6883 9.22561   5
  -3   0 -46 25.0255 17.3391   6
   3  -3  46 35.9831 12.7996   8
   0   0 -47 70.3877 14.3540   6
   0   0  47 42.0410 7.82559   5
   0   0  47 43.7956 7.89785  11
   0   0 -47 61.1732 9.47526  11
   0   0  47 52.8648 10.0186  10
   0   0  47 39.2684 10.9910   8
  -1   1  47 204.585 16.5228  10
   1  -1 -47 164.682 19.5946   6
  -1   0 -47 198.358 17.2082  11
   0  -1 -47 186.765 23.2337   6
  -1   1 -47 187.467 21.3818   6
   0   1  47 200.577 13.0134   5
   0  -1  47 189.256 15.2187  10
   1   0  47 158.600 16.7764   5
   0   1  47 187.177 13.8815  11
   1   0 -47 184.698 21.6604   6
   0   1 -47 211.340 15.1496  11
  -1   0 -47 136.957 18.1014   6
   1  -1  47 196.000 16.2420   8
  -1   1  47 193.920 13.1921   5
   0   1 -47 201.213 23.0736   6
   1  -1  47 198.512 14.9396  10
   1  -1 -47 201.164 12.7879   4
  -1   0  47 171.905 13.0742   5
   1  -1 -47 179.467 15.5093  11
   0   1  47 199.174 17.7492   8
  -1   1  47 209.345 15.0300  11
   0   1  47 194.992 15.7781  10
   1  -1  47 200.857 13.1352   5
   1   0  47 189.950 18.4107   8
   0  -1  47 221.547 19.4019  11
   1   0  47 184.851 15.4380  10
   1   0 -47 166.822 14.6916  11
  -1   0  47 210.138 16.5458  10
  -1   0  47 178.815 14.5482  11
   0  -1 -47 176.268 15.9117  11
   0  -1  47 203.023 13.5894   5
   1   0  47 181.424 14.6626  11
   1  -1  47 211.397 15.6749  11
  -1   1 -47 187.228 15.1425  11
   1   1  47 72.6346 10.2577  11
   1   1 -47 65.3351 9.77750  11
   1   1  47 69.2570 9.39979   5
   1   1  47 58.9922 11.6298   8
  -1   2  47 63.2944 9.22577  11
  -1  -1  47 64.7071 9.69523   5
   2  -1  47 62.4556 11.3010  10
  -1  -1  47 58.5499 11.0904  10
   1  -2 -47 57.1508 10.3612   4
  -2   1  47 72.8401 10.1402   5
  -1  -1 -47 68.2543 18.1948   6
  -2   1  47 63.5587 9.87777  11
   2  -1 -47 58.2084 11.6847   4
   2  -1 -47 56.8208 14.8780   6
  -1   2 -47 43.1387 14.5725   6
   1   1 -47 39.3310 13.1054   6
   1  -2  47 71.4408 9.68284   5
  -2   1  47 65.5833 11.8862  10
  -2   1 -47 74.1127 11.8393  11
   1  -2 -47 57.9971 18.1929   6
   2  -1  47 67.7375 10.7000  11
  -1   2 -47 67.7234 9.98296  11
   2  -1  47 63.7318 8.74781   5
   1   1  47 67.9977 12.0005  10
  -2   1 -47 87.5530 17.2262   6
   2  -1  47 51.7745 11.9723   8
   2  -1 -47 63.2904 9.79129  11
   1  -2 -47 74.7849 11.1762  11
  -1   2  47 45.9461 11.0658  10
  -1  -1 -47 59.5361 12.1342  11
  -1  -1 -47 62.5390 11.2605  12
   0   2  47 227.783 17.4677   2
  -2   2 -47 208.668 17.1714  11
   2  -2 -47 212.613 18.0997  11
   0   2 -47 200.294 15.1020  11
   0  -2 -47 223.176 18.9652  11
   2  -2  47 216.886 14.8758   5
  -2   2  47 229.813 19.1019  10
   0  -2  47 191.687 14.7164   5
   2   0  47 225.273 17.3227  10
   2   0 -47 216.505 16.7381  11
   2  -2  47 215.605 18.2302   8
  -2   2  47 219.196 16.3795  11
  -2   0  47 248.712 18.4692  10
   2  -2 -47 182.806 22.1190   6
  -2   0 -47 159.025 22.0165   6
   0   2  47 203.417 18.2353  10
   0   2  47 216.848 15.8712  11
  -2   0  47 196.888 14.8043   5
   0  -2 -47 227.031 18.3407  12
  -2   0 -47 226.443 18.5006  11
   0   2  47 236.298 17.9547   8
   2   0  47 158.697 17.1682   8
   2   0  47 220.084 16.3683  11
   0   2 -47 212.956 24.8991   6
  -2   0 -47 244.414 17.2570  12
  -2   2 -47 222.212 26.2763   6
   0  -2 -47 222.776 16.0433   4
   0  -2 -47 230.550 25.1505   6
   2  -2 -47 233.965 15.6700   4
   2   0 -47 203.178 23.8677   6
   1  -3 -47 248.075 19.1396  12
  -3   2 -47 246.370 21.3213   3
  -1   3 -47 210.383 16.7408  11
   1   2  47 232.219 16.5584  11
  -2  -1 -47 246.978 19.4906  12
  -1  -2  47 212.972 15.6843   5
   1   2  47 231.971 19.7427  10
   3  -2 -47 211.079 18.9772  11
   2  -3  47 235.286 16.0217   5
  -3   2 -47 228.274 28.3578   6
  -1   3 -47 269.464 29.8963   6
  -3   1  47 238.314 20.8897  10
   3  -1  47 209.530 20.4541   8
   3  -1  47 214.971 17.4715  11
  -2   3  47 217.020 21.8560   3
   3  -2 -47 231.626 26.3044   6
   1   2  47 192.631 20.6363   8
  -2  -1 -47 242.473 22.4880  11
  -3   1  47 199.165 15.9249   5
  -3   2 -47 220.064 16.0376  12
   1  -3 -47 249.467 17.6495   4
   3  -2 -47 227.433 17.3691   4
   1  -3 -47 203.884 21.0562  11
   2   1 -47 231.452 24.1407   6
   2   1 -47 233.479 16.0666  11
  -3   2 -47 226.924 19.4825  11
  -2  -1 -47 253.500 30.3167   6
  -2   3  47 208.980 16.8687  11
   1   2  47 244.018 21.2822   2
  -2   3  47 231.581 20.4879  10
  -1  -2 -47 192.350 24.6453   6
  -3   1 -47 200.558 16.6415  12
  -2   3 -47 230.992 29.8674   6
  -2  -1  47 215.203 15.8142   5
   3  -2  47 215.110 19.0229  11
   2   1  47 215.672 16.5162  11
   2   1  47 241.281 21.1441   2
  -3   2  47 203.560 21.1181   3
   1   2 -47 221.312 15.8069  11
   2   1  47 192.322 19.0951  10
  -1  -2 -47 216.998 21.7686  11
  -3   2  47 195.595 20.3980  10
   2  -3 -47 192.494 21.1486  11
  -2   3 -47 198.904 17.3180  11
   2   1  47 228.622 20.8047   8
   2  -3 -47 217.150 17.9673   4
   1  -3  47 197.606 15.8475   5
  -3   1 -47 240.877 27.8121   6
   3  -1 -47 194.043 17.4452  11
  -1   3  47 225.684 21.3304   8
  -1   3  47 220.069 21.4383  10
  -1  -2 -47 254.200 19.7879  12
   3  -2  47 229.665 21.4070   8
   1   2 -47 221.019 27.6879   6
  -3   1 -47 212.033 20.2293  11
  -3   2  47 186.469 17.4238  11
  -1   3  47 203.453 15.4613  11
   3  -1 -47 205.053 26.1825   6
  -2   3 -47 232.519 20.7254   3
   3   0 -47 52.2270 10.3272  11
   0  -3 -47 68.3641 12.0688  12
  -3   0 -47 49.3592 18.6488   6
   3  -3  47 45.8448 13.5381   8
  -3   0 -47 78.0355 11.8473  12
  -3   3 -47 37.4762 17.7345   6
   0   3  47 58.2185 12.8238   8
   0   3  47 55.4417 13.7217  10
   0   3  47 37.7939 9.39122  11
   3   0  47 54.1115 10.3629  11
   0   3  47 44.9677 12.5470   2
   0  -3  47 23.4310 9.85216   5
   0   3 -47 50.5804 16.1551   6
  -3   3 -47 30.7044 13.8862   3
   3   0  47 17.8299 12.0645   8
   3   0  47 43.6838 11.6264  10
  -3   0 -47 37.6248 13.2483  11
  -3   3  47 39.3050 13.4153   3
   0   3 -47 42.2792 9.28983  11
  -3   3 -47 49.6649 11.4605  11
   3  -3  47 48.1221 10.0702   5
   3  -3 -47 51.7337 12.1633  11
  -3   0  47 30.0977 9.73674   5
  -3   3  47 70.9449 14.0408  10
   3  -3 -47 53.9915 10.7621   4
   0  -3 -47 55.7181 10.7589   4
   0   0  48 4407.06 108.495   5
   0   0 -48 4485.97 112.386  11
   0   0  48 4942.74 118.823  11
   0   0  48 4657.36 113.677  10
   0   0 -48 4539.40 121.246   6
   1   0  48 370.769 19.1641  11
   0   1 -48 331.910 18.7072  11
  -1   0  48 351.478 17.3825   5
  -1   0 -48 332.776 26.7033   6
   0   1  48 319.317 19.3898  10
   0   1  48 323.002 17.9332  11
   1  -1  48 346.312 19.1632  10
   1   0  48 324.729 16.6738   5
   0  -1 -48 334.917 29.1274   6
   0   1  48 340.726 16.7256   5
   1   0 -48 325.603 19.2292  11
   1   0  48 302.293 20.9825   8
   1  -1 -48 297.761 19.2696  11
  -1   0  48 338.945 20.7456  10
  -1   0 -48 342.731 20.7027  11
   0  -1  48 319.438 18.8065  10
  -1   1  48 330.413 17.0354   5
   0  -1  48 318.456 16.8376   5
   1   0  48 308.685 19.2978  10
   0  -1 -48 332.624 20.1288  11
   1  -1  48 341.944 16.8515   5
  -1   0  48 330.434 18.3066  11
  -1   1 -48 308.483 18.7869  11
   0   1  48 362.830 24.2825   8
  -1   1  48 344.819 20.8805  10
  -1   1  48 323.542 18.3013  11
   1  -1  48 344.718 20.1214   8
  -1   1 -48 342.349 32.8529   6
   1   0 -48 291.458 24.9076   6
   1  -1 -48 330.036 27.8071   6
   0   1 -48 327.148 26.4092   6
   1  -1  48 339.695 19.1937  11
   2  -1 -48 358.148 19.0477   4
  -1   2  48 398.424 22.7025   8
   1  -2 -48 345.318 31.2186   6
   2  -1  48 387.311 20.5668  11
   1   1  48 411.064 20.4649  11
  -1  -1  48 366.321 20.7967  10
   1  -2  48 367.645 18.2541   5
   1   1 -48 380.977 27.1333   6
  -1   2  48 352.271 22.2454  10
  -1  -1 -48 392.977 23.7718  11
   1  -2 -48 381.828 18.1199   4
   2  -1 -48 373.493 21.5114  11
  -1  -1 -48 328.543 31.5343   6
  -1  -1 -48 360.046 21.6013  12
  -2   1  48 382.858 19.0915   5
  -1   2 -48 380.398 20.0924  11
   2  -1  48 330.139 20.9632   8
  -1   2  48 355.047 19.5619  11
   1   1  48 395.213 23.1937   8
   2  -1  48 344.174 20.7877  10
   1   1  48 399.090 17.9820   5
   1   1  48 366.937 21.5498  10
  -2   1 -48 349.770 29.0531   6
  -2   1  48 392.962 21.5022  10
   1   1 -48 356.540 19.5545  11
   2  -1 -48 398.926 28.0191   6
   1  -2 -48 351.680 22.3897  11
  -1   2 -48 325.804 26.9774   6
  -1  -1  48 389.168 18.9801   5
  -2   1  48 398.037 21.3148  11
   2  -1  48 396.590 17.6288   5
  -2   1 -48 381.252 22.2709  11
   2  -2  48 1.62920 7.59603   5
  -2   2 -48 -1.6514 7.85391  11
  -2   2  48 12.1898 8.02579  11
  -2   0  48 6.57248 7.47175   5
   0   2  48 -0.5686 10.4017  10
  -2   0 -48 -0.3797 15.3697   6
   0   2 -48 12.9851 12.7870   6
   2  -2 -48 10.9989 8.39005   4
   0   2  48 7.84814 9.82181   2
   2   0 -48 8.24507 8.27671  11
  -2   2 -48 11.3881 15.2829   6
   2  -2  48 3.56812 11.1804   8
   0  -2  48 4.51373 8.14716   5
   2   0 -48 5.33259 13.4055   6
   0   2 -48 9.10599 7.63563  11
   2  -2 -48 12.5042 8.71152  11
   0  -2 -48 15.6228 9.55501  12
   0  -2 -48 -8.9308 17.0158   6
   0  -2 -48 25.8169 10.5545  11
   2   0  48 10.7887 7.64368  11
   0   2  48 -0.7522 9.79854   8
   0  -2 -48 -11.127 7.38677   4
  -2   0 -48 13.6601 9.61962  11
  -2   0 -48 30.3693 9.45154  12
   2   0  48 8.81841 9.91072   8
   2   0  48 -5.6218 9.02647  10
  -2   0  48 23.7962 10.6394  10
   2  -2 -48 15.2286 17.2349   6
   0   2  48 -0.8240 7.05247  11
  -2   2  48 4.71951 11.3453  10
  -1   3 -48 132.890 20.7437   6
   3  -2 -48 130.654 21.8771   6
   3  -2 -48 139.535 17.7430  11
  -2   3  48 128.217 16.0478  10
   1   2  48 147.659 14.6867  11
   2   1 -48 125.639 19.5447   6
  -3   2 -48 169.754 15.0390  12
  -1   3 -48 145.448 14.9202  11
  -3   2 -48 173.941 19.4415   3
  -2   3  48 141.086 15.1734  11
  -2  -1 -48 155.554 18.4099  11
   1   2  48 158.449 17.1716   2
   3  -1  48 156.044 19.4994   8
   3  -1  48 171.125 16.7428  11
   1  -3 -48 147.474 17.1892   4
   1   2  48 153.594 17.0552  10
   1  -3 -48 139.760 16.9644  12
  -2  -1 -48 169.808 17.7185  12
   2   1 -48 163.193 14.8615  11
   1   2  48 131.642 15.4106   8
  -1  -2  48 158.092 14.6530   5
  -2  -1 -48 168.780 23.6208   6
  -3   2 -48 116.563 20.7199   6
  -3   2 -48 142.992 17.9871  11
   2  -3  48 160.810 14.8660   5
   1  -3 -48 148.153 17.5171  11
   3  -2 -48 157.674 15.4054   4
  -3   1  48 175.324 18.0264  10
  -3   1  48 176.412 14.6711   5
  -3   1 -48 169.037 19.3192  11
  -1   3  48 178.980 15.2531  11
   1   2 -48 157.250 14.9897  11
   3  -1 -48 197.211 24.3422   6
  -2  -1  48 157.987 14.7922   5
   1   2 -48 213.838 24.1595   6
   1  -3  48 160.768 15.1468   5
  -2   3 -48 155.925 18.5908   3
  -1  -2 -48 157.017 18.3292  12
  -1   3  48 181.983 21.1573   8
  -3   2  48 186.244 21.4368  10
   2   1  48 169.105 19.8772  10
   3  -2  48 187.776 20.3487   8
  -2   3 -48 161.126 16.8498  11
   2  -3 -48 140.458 16.6941  11
   3  -1 -48 131.638 16.4685  11
   2   1  48 174.650 15.7435  11
  -1  -2 -48 111.158 23.2739   6
   2   1  48 165.594 20.2702   8
  -2   3 -48 166.495 23.1456   6
  -1   3  48 152.118 17.2553  10
   3  -2  48 194.053 18.7221  11
  -3   2  48 167.326 15.5533   5
  -1  -2 -48 219.837 26.5868  11
  -3   1 -48 125.567 15.9391  12
   2  -3 -48 164.767 17.6376   4
  -3   1 -48 181.653 22.8304   6
   0   3  48 172.195 20.1613   2
  -3   0 -48 136.223 14.9054  12
   0  -3  48 139.382 15.5588   5
   0  -3 -48 148.134 18.0936  12
   0   3 -48 124.889 14.5035  11
  -3   0  48 101.245 12.9652   5
   3   0  48 153.906 16.5666  11
   0   3  48 93.7986 16.3428  10
   3  -3  48 136.998 15.1777   5
  -3   3  48 108.497 16.8863   3
   0   3  48 137.254 14.9821  11
   0   3 -48 138.529 20.3760   6
   3   0 -48 133.420 18.4097   6
   3  -3 -48 168.628 16.0560   4
  -3   0 -48 103.704 21.0527   6
   3   0  48 129.002 16.6767   8
   0  -3 -48 143.626 17.0141   4
   3   0 -48 122.408 16.3318  11
   3   0  48 135.554 14.8622  10
  -3   3 -48 138.942 22.0075   6
   3  -3  48 147.046 17.0143   8
   3  -3 -48 144.674 19.3633  11
  -3   3  48 149.052 17.1072  10
  -3   0 -48 117.190 15.3697  11
  -3   3 -48 129.004 16.5651   3
   0   3  48 186.362 21.6537   8
  -3   3 -48 99.8629 14.0221  11
   0   0  49 53.3879 9.56539  11
   0   0 -49 43.1084 13.7192   6
   0   0  49 59.9945 8.97558   5
   0   0 -49 33.7919 8.71750  11
   0   0  49 61.4856 11.7396  10
   1  -1 -49 91.2870 11.9386  11
   0   1  49 89.4775 12.1249  10
   0   1  49 100.332 14.4572   8
   1   0 -49 101.965 16.5671   6
   0  -1  49 102.643 11.4288   5
   1   0  49 104.375 13.5497   8
  -1   0  49 80.9665 9.87540   5
  -1   1 -49 94.8238 11.9097  11
   1  -1  49 115.450 11.5167   5
  -1   0 -49 99.3487 17.5170   6
  -1   1  49 91.8766 11.1223  11
  -1   0  49 94.7476 12.2228  11
   1   0  49 121.500 13.8592  11
   1   0  49 95.7598 12.8170  10
   0   1  49 97.6550 11.4875   5
  -1   0  49 107.336 13.6335  10
  -1   0 -49 110.528 13.3651  11
   0   1  49 104.806 12.3916  11
  -1   1 -49 83.2166 17.7753   6
   1  -1  49 116.465 14.1968  10
  -1   1  49 95.3803 10.3290   5
  -1   1  49 89.6234 12.3906  10
   0  -1 -49 75.5136 17.5114   6
   1  -1  49 95.4039 12.5730  11
   1   0 -49 83.6379 11.3632  11
   1  -1 -49 73.2297 16.8529   6
   0   1 -49 110.203 13.6697  11
   0  -1  49 133.368 15.3927  10
   0   1 -49 96.2011 17.7124   6
   1   0  49 93.2327 10.9098   5
   0  -1 -49 78.6782 11.1159  11
   1  -2 -49 262.063 29.9804   6
   1  -2 -49 293.423 21.4152  11
   2  -1  49 302.691 16.0279   5
   1  -2  49 274.642 17.4945   5
  -2   1 -49 278.013 27.6594   6
  -1   2 -49 255.975 25.9808   6
   1   1  49 307.696 18.5112  11
  -1  -1 -49 275.934 30.7814   6
   1   1  49 300.081 20.3612  10
   2  -1  49 299.021 21.3242   8
   2  -1  49 271.789 18.9166  10
  -1  -1  49 296.518 20.5310  10
  -2   1  49 316.524 21.4781  10
  -2   1  49 276.644 19.1906  11
   2  -1 -49 279.534 16.3810   4
  -1   2  49 299.218 18.2129  11
   2  -1  49 270.804 18.4993  11
   1   1 -49 281.337 24.9394   6
   1   1 -49 247.071 17.4465  11
  -2   1  49 260.789 16.5023   5
  -1   2 -49 262.892 18.2079  11
   1   1  49 266.588 21.4175   8
   1  -2 -49 314.594 16.7005   4
   2  -1 -49 257.899 18.7496  11
  -1   2  49 312.235 21.2819   8
  -2   1 -49 290.162 20.6249  11
  -1  -1 -49 262.169 19.8941  12
   1   1  49 334.412 16.3565   5
   2  -1 -49 264.461 25.7557   6
  -1  -1  49 266.677 16.4142   5
  -1   2  49 251.556 20.2608  10
  -1  -1 -49 290.655 22.0608  11
  -2   0  49 298.682 21.2090  10
  -2   2 -49 297.178 29.0525   6
   0   2  49 282.080 21.2943  10
   2  -2 -49 261.411 26.8459   6
  -2   2  49 271.437 18.7966  11
   2  -2 -49 317.358 17.3058   4
   0  -2 -49 278.000 32.5784   6
   2   0  49 274.813 18.8641  11
  -2   2  49 272.317 21.5178  10
   0  -2 -49 273.393 21.3928  11
   2   0 -49 233.528 25.2081   6
   0  -2 -49 258.497 20.3335  12
   0  -2  49 262.342 16.9367   5
   0   2 -49 242.779 25.2559   6
   0   2 -49 254.568 17.5864  11
  -2   0 -49 281.266 19.7838  12
   2   0  49 285.080 22.3861   8
   2   0  49 237.258 19.5730  10
  -2   2 -49 264.500 19.5976  11
  -2   0 -49 297.324 21.2033  11
   2  -2  49 271.840 20.7737   8
   2   0 -49 264.254 18.5991  11
   2  -2 -49 282.254 20.7136  11
  -2   0 -49 248.087 27.9738   6
   0   2  49 281.786 21.5446   8
   0   2  49 272.213 21.6065   2
   0   2  49 280.775 17.9048  11
  -2   0  49 265.353 16.9510   5
   2  -2  49 267.347 16.6891   5
   2   1 -49 57.6956 9.81468  11
   1   2  49 70.0924 13.6261   2
  -1   3 -49 58.2922 19.5072   6
   3  -2 -49 44.8611 11.7884  11
  -3   2 -49 27.3298 11.1404  11
   1  -3 -49 67.9505 14.5240  11
   2   1 -49 33.7217 15.9746   6
  -2   3  49 64.4107 14.8047  10
   1  -3 -49 35.5748 11.7671  12
  -3   2 -49 48.2575 18.5166   6
  -1   3 -49 64.1102 10.5102  11
   1  -3 -49 90.1614 13.1097   4
   1   2  49 62.5917 14.2833   8
   3  -2 -49 83.4287 12.1476   4
   2  -3  49 55.0031 10.6998   5
   3  -2 -49 58.4464 20.5946   6
   3  -1  49 79.4348 11.6901  11
  -2   3  49 73.9392 11.9121  11
  -2  -1 -49 68.7346 14.9164  11
   1   2  49 81.0708 13.7199  10
   1   2  49 66.7921 10.8051  11
  -1  -2  49 63.4890 10.5596   5
   3  -1  49 61.0464 13.8000   8
  -2  -1 -49 48.1288 19.4226   6
  -3   1  49 61.7637 10.6553   5
  -2  -1 -49 74.9273 12.8991  12
  -3   1  49 44.7253 14.5288  10
  -3   2 -49 65.4846 11.4890  12
  -1   3  49 37.5419 9.27414  11
   1  -3  49 50.0206 10.9181   5
  -1  -2 -49 34.0257 20.9726   6
   2  -3 -49 41.6851 11.5999   4
  -2  -1  49 54.8662 10.0002   5
  -1   3  49 46.6501 13.7620  10
  -1  -2 -49 28.9410 11.3568  12
   2   1  49 51.3331 13.8909   8
  -1   3  49 27.2510 13.5664   8
   1   2 -49 43.6702 9.88391  11
   2   1  49 45.8838 13.0910  10
  -3   2  49 35.3507 10.1483   5
   2  -3 -49 44.0724 12.9958  11
   3  -1 -49 38.3126 10.7197  11
  -3   1 -49 61.1741 18.7529   6
  -3   1 -49 29.8273 11.6038  11
   1   2 -49 22.0574 16.8145   6
  -2   3 -49 43.3032 10.6248  11
   3  -1 -49 12.1455 17.8305   6
  -2   3 -49 35.4632 17.7465   6
   3  -2  49 46.3470 13.4735   8
   3  -2  49 45.4389 11.5131  11
  -3   2  49 60.5881 15.1321  10
  -2   3 -49 38.8703 12.5888   3
   2   1  49 38.6811 9.30018  11
  -3   1 -49 64.4268 11.1674  12
   0   0  50 6.61937 8.00658  11
   0   0 -50 4.34042 7.65813  11
   0   0  50 7.53282 7.28391   5
   0   0  50 18.9651 9.43903  10
   0   0 -50 5.35265 13.6637   6
  -1   0 -50 -3.1274 14.0224   6
   1   0 -50 -12.480 12.9136   6
   0   1  50 -21.243 10.4678   8
  -1   1  50 2.03184 9.76292  10
   1  -1 -50 -6.9336 14.6400   6
   0  -1 -50 11.1586 9.07398  11
   1  -1  50 0.68079 7.17239   5
   1  -1  50 0.11035 9.05366  10
  -1   0 -50 -0.6753 8.93450  11
  -1   1 -50 8.30523 8.54955  11
  -1   0  50 6.82295 8.01451   5
  -1   1  50 6.93239 7.23030  11
   0   1 -50 11.8134 14.6580   6
   0  -1  50 7.72171 7.39802   5
   0  -1  50 -0.2915 8.94869  10
   0  -1 -50 11.0807 15.2400   6
   1  -1  50 13.6404 9.26226  11
   0   1  50 15.5251 7.54187   5
   1   0  50 -2.2543 10.5559   8
   1   0  50 -6.2318 8.94489  10
   1   0  50 7.74229 7.51385  11
  -1   1 -50 14.9946 14.9131   6
  -1   1  50 -4.6222 7.33956   5
   1   0 -50 10.6772 7.94389  11
  -1   0  50 3.47374 9.85023  10
  -1   0  50 8.77531 8.88013  11
   0   1  50 -1.0166 10.1766  10
   0   1  50 -4.6719 7.51295  11
   1  -1 -50 2.04682 8.25855  11
   0   1 -50 8.84207 7.96000  11
   1   0  50 7.02487 7.16733   5
   1  -2 -50 85.1669 10.7939   4
  -1   2 -50 55.8590 17.5419   6
  -1  -1 -50 83.3952 12.6266  12
   1  -2 -50 97.2751 14.1225  11
   2  -1 -50 73.4840 11.9185  11
   1   1  50 71.5434 12.9047   8
   1   1  50 83.7850 13.0721  10
   1   1  50 66.8166 10.2445  11
   2  -1  50 83.1739 14.3254   8
  -2   1 -50 61.6992 11.8804  11
  -1   2  50 103.776 13.7300  11
   2  -1  50 51.4486 10.4994  11
  -2   1  50 72.5550 10.8636   5
   2  -1  50 77.9258 13.0155  10
   2  -1  50 107.289 12.0339   5
   1  -2 -50 40.6371 19.0361   6
  -2   1  50 74.9886 13.9580  10
  -2   1  50 80.5312 12.0932  11
  -1   2 -50 68.5817 10.8569  11
  -1  -1 -50 72.2906 20.4171   6
  -2   1 -50 75.1300 18.5114   6
   1   1  50 65.1085 9.83290   5
   2  -1 -50 87.3281 18.4272   6
   1  -2  50 73.1134 10.5239   5
   1   1 -50 76.8318 10.6512  11
   1   1 -50 49.7723 15.9153   6
  -1   2  50 53.2731 12.5756  10
  -1  -1  50 68.1995 10.4116   5
  -1  -1  50 78.5325 13.2672  10
  -2   0 -50 75.4231 13.2070  11
   2  -2 -50 82.7188 13.1531  11
   0   2  50 69.1634 13.5930  10
   0  -2 -50 65.3011 21.0988   6
   0  -2 -50 111.104 15.3953  11
   0  -2 -50 77.8474 12.9902  12
   2   0  50 87.7641 12.4280  11
   0   2  50 79.6343 11.0201  11
  -2   0 -50 88.9866 19.3733   6
   2   0 -50 81.6020 11.5956  11
  -2   0 -50 140.740 15.7567  12
   0   2  50 78.3699 10.9918   5
   0  -2  50 85.5025 10.8553   5
   2   0  50 93.6534 13.1302  10
   2  -2 -50 81.7895 11.6147   4
   0   2  50 95.5833 14.6919   8
   2   0 -50 80.2918 19.0796   6
   2  -2  50 89.5454 11.4380   5
   2  -2 -50 91.7941 20.7345   6
  -2   0  50 87.7437 14.4678  10
  -2   2  50 79.8333 14.9564  10
  -2   2  50 93.3904 12.8111  11
   2   0  50 104.661 15.1873   8
  -2   2 -50 137.083 20.8287   6
  -2   2 -50 90.5817 12.1249  11
   0   2 -50 65.9136 17.6879   6
  -2   0  50 90.8774 11.7572   5
   0   2 -50 86.2366 11.7318  11
  -1   3 -50 135.592 23.3739   6
   1   2  50 150.741 17.8113   2
  -3   2 -50 105.875 21.1944   6
  -1  -2  50 167.787 14.9338   5
  -2  -1 -50 183.911 18.6786  12
   1  -3 -50 147.443 15.8911  12
  -2  -1 -50 120.678 17.4014  11
   3  -2 -50 140.423 14.5440   4
   1   2  50 137.016 17.1390   8
   1   2  50 146.403 17.8124  10
  -2   3  50 146.277 16.8244  10
   3  -2 -50 121.298 14.9713  11
   3  -1  50 173.633 17.5964  11
   1  -3 -50 171.077 21.5118  11
  -1   3 -50 125.965 15.6571  11
  -3   2 -50 140.597 18.7476  11
   1  -3 -50 170.078 17.3266   4
   3  -2 -50 168.049 21.8452   6
   2   1 -50 132.015 14.8199  11
   2  -3  50 135.767 14.8765   5
  -3   1  50 157.389 15.9032   5
  -3   1  50 181.660 22.3597  10
   1   2  50 143.343 15.3238  11
  -2  -1 -50 136.066 22.7548   6
   3  -1  50 153.856 17.8057   8
   2   1 -50 140.534 20.4556   6
  -2   3  50 98.2493 12.7954  11
  -3   2  50 119.430 13.4062   5
   3  -1 -50 105.186 19.3553   6
   2   1  50 134.933 15.3055  11
   2   1  50 118.970 15.4040  10
  -2   3 -50 117.698 16.2021   3
  -1   3  50 105.029 17.2127  10
  -1   3  50 125.098 14.5590  11
   3  -2  50 156.738 17.6492   8
   3  -1 -50 133.132 16.7839  11
   1   2 -50 103.452 18.7327   6
  -2  -1  50 102.492 12.6549   5
  -1  -2 -50 111.190 15.1644  12
  -3   1 -50 88.8883 20.0462   6
  -3   1 -50 78.6493 13.8531  11
  -3   1 -50 156.441 17.1467  12
  -2   3 -50 124.060 14.5871  11
   3  -2  50 112.422 13.9951  11
  -1   3  50 128.702 16.7101   8
   1  -3  50 118.823 13.6815   5
   2  -3 -50 125.634 16.3455  11
   2   1  50 130.683 17.9286   8
   1   2 -50 127.387 14.9097  11
   2  -3 -50 164.142 17.6521   4
  -2   3 -50 127.231 22.1827   6
  -1  -2 -50 145.154 24.7539   6
  -3   2  50 129.551 18.2997  10
  -3   2  50 139.188 18.3678  11
   0   0 -51 13.9358 8.88523  11
   0   0  51 8.49322 7.49678   5
   0   0 -51 34.8497 15.9268   6
   0   0  51 6.94473 9.82434  10
   0   0  51 -2.0464 8.49682  11
  -1   0 -51 60.3779 16.6376   6
   1   0  51 83.5843 10.1677   5
  -1   1 -51 46.9419 9.66273  11
   1   0  51 63.2546 12.2121  10
  -1   0  51 87.5289 12.9509  10
   1  -1 -51 61.5645 11.0488  11
   1   0  51 69.9511 11.0791  11
  -1   1  51 58.5768 10.3355  11
   0   1  51 78.7510 11.0237  11
   1  -1  51 64.7697 11.1568  10
  -1   1  51 83.1101 10.4780   5
  -1   0  51 61.7663 10.2315   5
  -1   1 -51 74.9563 18.0582   6
   0  -1 -51 87.2552 19.5868   6
   0   1  51 60.4184 13.2168  10
   1  -1  51 72.9373 10.0906   5
  -1   0 -51 57.1722 11.1264  11
   1   0 -51 77.5513 17.6486   6
   0  -1  51 69.2801 10.1345   5
   0  -1 -51 66.1323 12.1658  11
   1  -1 -51 59.5542 17.4085   6
   1   0  51 55.2486 13.9908   8
  -1   1  51 72.4218 13.1423  10
   1  -1  51 76.3913 12.0833  11
   0  -1  51 85.0711 13.4342  10
   0   1 -51 59.4897 16.7661   6
   0   1 -51 73.6324 11.5048  11
  -1   0  51 63.6471 11.8184  11
   0   1  51 56.7253 10.1059   5
   0   1  51 67.7921 13.2848   8
   1   0 -51 57.2916 10.0864  11
  -1  -1 -51 16.8840 9.70606  12
  -1  -1  51 23.3035 9.07844   5
   1   1  51 16.2910 12.0951   8
   1   1  51 35.5979 9.64286  11
   1   1 -51 37.2059 9.82361  11
   1   1  51 25.4679 9.14649   5
  -2   1  51 15.6206 11.6764  10
   1   1  51 20.5408 11.1821  10
  -1   2 -51 40.7685 15.9195   6
   2  -1  51 32.0200 8.50541   5
  -1  -1 -51 13.3344 19.1362   6
   2  -1  51 4.86262 12.5608   8
  -2   1  51 24.3005 8.97949   5
   1   1 -51 2.03447 14.3662   6
  -2   1  51 11.2447 9.88145  11
  -1  -1  51 20.5130 11.1455  10
  -2   1 -51 28.1257 10.4639  11
  -1   2 -51 14.7323 9.45809  11
   1  -2  51 15.1930 8.60182   5
   2  -1  51 24.2395 11.2729  10
   2  -1 -51 21.5696 9.30455  11
  -1   2  51 2.01434 11.1948  10
  -2   1 -51 41.1903 17.2616   6
  -1   2  51 8.94504 8.19452  11
   1  -2 -51 -16.084 19.0850   6
   1  -2 -51 18.3259 11.5013  11
   2  -1 -51 -13.047 14.8230   6
   2  -1  51 -2.8257 9.61922  11
   2  -2 -51 64.7636 20.8232   6
  -2   0 -51 93.0026 19.3673   6
   0  -2  51 106.343 12.2051   5
   2  -2 -51 75.4887 13.3778  11
  -2   0  51 94.3438 15.2509  10
   0   2 -51 78.0862 17.8054   6
   0   2  51 100.779 15.8756  10
   2   0 -51 99.2701 18.8910   6
   2   0 -51 58.4770 10.7136  11
  -2   2 -51 81.2622 11.8819  11
   0  -2 -51 80.1074 21.6165   6
  -2   2  51 75.7234 11.7491   5
   0  -2 -51 96.5964 14.7073  11
  -2   0 -51 102.035 13.0574  12
   2   0  51 92.8431 15.6647   8
   2   0  51 93.3397 13.8433  10
   2   0  51 77.0042 11.8657  11
  -2   0 -51 76.6509 13.2525  11
   0  -2 -51 78.8634 13.1642  12
  -2   0  51 53.5483 10.5605   5
   2  -2  51 87.3958 11.6087   5
   0   2  51 114.174 14.9853  11
  -2   2  51 77.9800 14.7646  10
   0   2 -51 84.3749 11.3940  11
   2  -2 -51 114.582 13.0346   4
   0   2  51 89.3648 11.4393   5
   0   2  51 97.5764 15.2762   8
  -2   2 -51 82.7039 19.2872   6
  -2   2  51 83.3865 11.7134  11
   0   0  52 0.76017 9.65401  10
   0   0 -52 9.54402 14.0080   6
   0   0 -52 0.42533 8.52071  11
   0   0  52 6.23133 9.56085  11
   0   0  52 2.81185 8.03798   5
  -1   0 -52 226.481 19.6491  11
   0   1 -52 246.106 18.3894  11
   0   1  52 215.941 19.5799  10
   0  -1  52 239.450 16.6314   5
   1  -1  52 222.895 18.7526  10
   1  -1  52 280.790 19.7821  11
   0   1 -52 231.988 26.4793   6
  -1   1 -52 223.861 18.6542  11
  -1   1  52 252.393 16.1076   5
  -1   0 -52 217.899 24.9930   6
  -1   0  52 198.530 16.5826   5
  -1   0  52 219.192 19.7304  10
   1   0  52 239.151 15.8884   5
  -1   1  52 213.533 19.5876  10
  -1   1  52 206.810 18.1677  11
   1  -1 -52 212.792 25.4861   6
   0  -1 -52 258.768 28.2842   6
   0  -1 -52 243.254 20.3586  11
   1   0 -52 197.022 24.0827   6
   1  -1 -52 249.733 19.5769  11
   1   0  52 215.299 18.0819  11
   1  -1  52 232.303 16.0767   5
   1   0  52 208.847 18.9036  10
   1   0  52 234.187 22.1956   8
   1   0 -52 214.744 17.8791  11
   0  -1  52 193.255 19.4151  10
   0   1  52 216.068 17.8664  11
   0   1  52 243.380 16.2061   5
  -1   1 -52 241.774 27.5571   6
   0   1  52 221.238 25.6369   8
   2  -1 -52 154.083 17.5981  11
  -1  -1  52 203.695 15.8113   5
   2  -1 -52 185.838 25.4232   6
  -2   1 -52 161.011 23.2998   6
  -1   2  52 188.300 16.4044  11
  -1   2 -52 172.210 23.1354   6
   1   1  52 200.031 15.4111   5
  -1  -1  52 167.488 18.5020  10
   2  -1  52 155.763 17.6866   8
   1   1 -52 138.021 21.6027   6
   2  -1  52 141.171 17.7184  10
  -1  -1 -52 208.782 25.2209   6
  -1  -1 -52 204.704 21.2210  11
  -1  -1 -52 170.812 18.0479  12
   2  -1  52 200.048 18.2141  11
   1  -2 -52 182.911 27.8548   6
   1  -2 -52 158.542 19.7911  11
  -2   1 -52 174.089 18.7368  11
  -1   2  52 177.990 15.5256   5
   1   1  52 155.753 17.7046  10
   1   1  52 178.368 21.4081   8
  -2   1  52 176.802 18.1710  11
   1  -2  52 172.155 15.3509   5
   1   1 -52 188.791 18.1440  11
  -1   2 -52 156.798 17.6429  11
  -1   2  52 175.921 20.0260  10
  -2   1  52 170.863 19.3506  10
   2  -1  52 187.147 14.8648   5
  -2   1  52 179.051 15.3783   5
   1   1  52 175.172 16.7178  11
   0  -2 -52 6.04468 10.5313  12
   0  -2 -52 7.42988 20.4878   6
  -2   0  52 7.33053 9.01391   5
   0   2  52 -8.7750 13.1465  10
   0   2  52 9.39769 9.68493   5
  -2   0 -52 1.79588 10.1270  12
  -2   0 -52 22.3740 17.8107   6
  -2   0  52 16.4502 12.7627  10
   0   2 -52 34.3317 16.5105   6
   0   2 -52 4.15726 8.66951  11
   0  -2 -52 9.79404 11.7935  11
   2  -2 -52 20.3179 11.4197   4
   2  -2 -52 1.60022 20.3957   6
   2  -2 -52 11.1369 10.9659  11
  -2   2 -52 -2.9943 17.4687   6
  -2   2 -52 25.2267 10.6453  11
   2   0 -52 13.9390 9.47120  11
   0  -2  52 32.7575 9.70474   5
   2  -2  52 13.2812 9.51617   5
  -2   2  52 1.09023 10.0344   5
   2   0 -52 34.8590 17.4087   6
  -2   2 -52 30.3060 12.7075   3
   0   2  52 -3.3633 12.6841   8
  -2   2  52 10.2418 13.4847  10
  -2   2  52 27.6923 10.6438  11
  -2   0 -52 15.5451 11.2913  11
   2   0  52 12.7354 13.2223   8
   2   0  52 6.20130 11.4562  10
   0   2  52 6.60598 8.98618  11
   2   0  52 27.3440 9.17415  11
   0   0  53 42.6543 10.7484  11
   0   0 -53 17.3084 15.2770   6
   0   0  53 17.3622 8.30844   5
   0   0 -53 19.0364 9.72073  11
   0   0  53 30.6455 10.7294  10
   0  -1  53 70.4879 10.5456   5
   1   0  53 22.4290 13.4165   8
   0   1  53 43.8665 10.1611  11
   1  -1  53 61.3562 11.7764  11
   1   0  53 49.5594 11.8637  10
   1   0  53 39.9279 10.0524  11
  -1   1  53 49.5025 13.2155  10
  -1   1  53 42.9073 11.0539  11
   0   1 -53 52.2977 10.7604  11
   0  -1  53 36.1087 11.5098  10
  -1   1 -53 39.0648 9.99859  11
   1   0  53 24.4158 9.17373   5
   0   1  53 57.0899 12.4790  10
   0  -1 -53 33.2911 10.7920  11
   0   1  53 57.7067 9.89630   5
   1  -1  53 66.5958 12.2408  10
  -1   0 -53 6.75847 18.3136   6
   1  -1  53 43.6818 10.0483   5
  -1   0  53 32.5188 9.86952   5
  -1   0  53 26.7175 12.6048  10
   1   0 -53 16.1007 16.1240   6
   1   0 -53 41.1441 10.5620  11
  -1   1 -53 35.1164 18.5106   6
   0  -1 -53 59.7804 18.8832   6
   1  -1 -53 46.3856 11.0754  11
   1  -1 -53 63.8177 19.2431   6
   0   1 -53 36.7742 16.4367   6
  -1   0 -53 44.9774 11.3082  11
  -1   1  53 57.8006 10.8322   5
  -1   2 -53 368.769 22.3856  11
  -1  -1  53 392.458 20.7246   5
  -2   1  53 392.026 22.6919  11
  -1   2 -53 418.859 35.7292   6
  -1   2  53 388.290 22.6198  11
  -1   2  53 375.430 25.0096  10
   1   1  53 439.017 19.9767   5
   1   1 -53 311.366 33.8227   6
   1   1  53 331.439 27.0269  10
   1   1  53 390.712 22.8188  11
   1   1  53 451.649 26.8168   8
  -2   1 -53 282.904 33.8536   6
  -1  -1 -53 349.399 23.1295  12
  -2   1  53 386.081 20.5806   5
   2  -1 -53 326.741 32.2487   6
   2  -1  53 354.110 25.6183   8
   2  -1  53 393.936 24.7404  10
   2  -1 -53 406.951 23.8593  11
  -1  -1  53 383.554 24.7939  10
   2  -1  53 361.967 23.0744  11
   1  -2  53 372.314 19.9877   5
   1  -2 -53 408.586 25.1713  11
  -2   1 -53 348.244 24.3331  11
  -1   2  53 404.378 21.0313   5
  -1  -1 -53 429.499 36.5538   6
  -2   1  53 325.461 26.2350  10
   1  -2 -53 433.015 37.3305   6
  -1  -1 -53 372.504 25.0254  11
   2  -1  53 405.208 20.3589   5
   1   1 -53 403.960 22.9484  11
  -2   0 -53 119.026 15.8756  11
   2  -2  53 158.596 15.4412   5
  -2   2  53 124.700 16.6166  10
   0  -2 -53 158.680 20.4293  12
   0   2  53 175.460 15.4344   5
  -2   0 -53 158.036 16.2585  12
  -2   0 -53 139.076 22.7988   6
  -2   2  53 138.609 14.5158   5
   2  -2 -53 163.022 19.3359  11
  -2   2 -53 135.460 16.0586  11
   2   0 -53 126.202 19.2213   6
   2   0  53 132.567 16.6213  10
   2   0 -53 107.282 13.6170  11
  -2   2 -53 143.571 16.4082   3
   0  -2 -53 124.888 24.5841   6
   0  -2 -53 141.153 17.5604  11
  -2   0  53 161.240 15.7754   5
  -2   0  53 190.409 21.5910  10
   0   2  53 135.959 16.9122  10
   2  -2 -53 123.550 23.7579   6
   0   2 -53 126.244 23.2767   6
   0   2 -53 152.402 16.7387  11
   0  -2  53 142.048 15.3353   5
  -2   2 -53 119.056 23.1510   6
   0   0  54 1183.15 42.0191  10
   0   0 -54 1256.89 43.3899  11
   0   0  54 1270.63 38.6408   5
   0   0 -54 1188.76 56.2683   6
   0   0  54 1288.52 41.3631  11
  -1   1 -54 136.668 22.5766   6
  -1   0 -54 178.620 19.0223  11
   0  -1 -54 195.077 23.0911   6
  -1   0  54 205.903 16.3749   5
  -1   0  54 172.173 18.8174  10
   1  -1 -54 202.711 32.6315   6
   1  -1 -54 202.857 18.4863  11
   1   0 -54 165.817 17.4036  11
   1   0  54 154.886 18.2099  10
   1   0  54 189.717 18.4607  11
   1  -1  54 204.109 19.7887  10
   0  -1 -54 161.931 19.0498  11
   0   1  54 197.203 16.7610   5
   1   0  54 205.088 16.6789   5
  -1   1  54 167.424 16.9452  11
  -1   0 -54 188.712 24.6791   6
   1   0 -54 223.333 27.2327   6
   0  -1  54 200.928 16.1504   5
   0  -1  54 198.028 18.8598  10
   0   1 -54 201.003 22.8224   6
   0   1 -54 166.435 17.6767  11
  -1   1 -54 207.299 18.4512  11
   1  -1  54 187.970 15.6506   5
  -1   1  54 158.975 18.8443  10
   0   1  54 175.521 19.4039  10
   0   1  54 169.464 17.6257  11
  -1   1  54 215.071 16.0709   5
   0   0 -55 12.4103 10.3673  11
   0   0  55 25.5430 9.39884   5
   0   0  55 29.1013 12.4272  10
   0   0  55 20.4702 11.5361  11
   0   0 -55 -2.0180 18.6623   6
   0   1  55 287.811 20.3756  11
   0  -1  55 303.927 22.8456  10
   1  -1  55 269.680 21.1651  10
   0   1  55 318.127 19.6119   5
   0   1  55 273.243 22.0192  10
  -1   1 -55 238.807 27.6403   6
  -1   1 -55 275.796 20.3550  11
   0  -1 -55 253.391 22.2641  11
   0  -1  55 270.272 18.9456   5
   0  -1 -55 253.318 32.4570   6
   1  -1 -55 278.337 21.5361  11
   1  -1  55 311.213 21.0448   5
   1   0 -55 336.738 21.3702  11
  -1   0  55 304.473 19.1258   5
  -1   0  55 272.454 21.3708  10
   1   0  55 250.497 24.3653  10
   1   0  55 299.456 21.8499  11
   0   1 -55 311.033 30.8344   6
   0   1 -55 273.762 21.0215  11
  -1   1  55 297.665 18.4055   5
  -1   1  55 268.356 22.5377  10
  -1   1  55 290.537 19.9146  11
   1  -1 -55 268.321 32.6517   6
   1   0  55 333.768 18.4001   5
  -1   0 -55 294.919 22.4711  11
  -1   0 -55 269.588 35.0209   6
   1   0 -55 283.094 33.9516   6
   0   0  56 23.1575 11.9399  11
   0   0  56 -4.8057 11.6070  10
   0   0  56 19.0932 10.1944   5
   0   0 -56 4.86635 10.0904  11
   0   0 -56 -3.5081 17.5516   6
   0   0   0    0.00    0.00   0

 _exptl_absorpt_process_details 'SADABS-2014/5'
 _exptl_absorpt_correction_type   multi-scan
 _exptl_absorpt_correction_T_max  0.7469
 _exptl_absorpt_correction_T_min  0.6376
 _exptl_special_details
)
 The following wavelength and cell were deduced by SADABS from the
 direction cosines etc. They are given here for emergency use only:
 CELL 0.71077    4.261    4.262   34.925   90.030   90.020  119.999
)

;
_shelx_hkl_checksum              18200
loop_
_space_group_symop_operation_xyz
'x, y, z'
'-x, -y, z+1/2'
'-y, -x, -z+1/6'
'y, x, -z+2/3'
'x-y, -y, -z'
'-x+y, y, -z+1/2'
'x, x-y, -z+5/6'
'-x, -x+y, -z+1/3'
'-y, x-y, z+2/3'
'y, -x+y, z+1/6'
'x-y, x, z+5/6'
'-x+y, -x, z+1/3'
loop_
_atom_site_label
_atom_site_type_symbol
_atom_site_fract_x
_atom_site_fract_y
_atom_site_fract_z
_atom_site_U_iso_or_equiv
_atom_site_adp_type
_atom_site_occupancy
_atom_site_site_symmetry_order
_atom_site_calc_flag
_atom_site_refinement_flags_posn
_atom_site_refinement_flags_adp
_atom_site_refinement_flags_occupancy
O1 O -0.1866(3) -0.5553(4) -0.01702(3) 0.00352(19) Uani 1 1 d . . .
O2 O -0.2103(3) -0.0190(3) -0.37420(3) 0.0035(2) Uani 1 1 d . . .
B1 B -0.5189(5) -0.3130(5) -0.35593(5) 0.0032(3) Uani 1 1 d . . .
B2 B -0.5205(5) -0.2020(5) -0.54619(5) 0.0035(3) Uani 1 1 d . . .
O3 O -0.5618(4) -0.1664(3) -0.04516(3) 0.0042(2) Uani 1 1 d . . .
Ni1 Ni -0.08696(4) -0.17392(9) -0.2500 0.00369(8) Uani 1 2 d S T P
O4 O -0.6459(2) -0.2917(5) -0.2500 0.0037(3) Uani 1 2 d S T P
loop_
_atom_site_aniso_label
_atom_site_aniso_U_11
_atom_site_aniso_U_22
_atom_site_aniso_U_33
_atom_site_aniso_U_23
_atom_site_aniso_U_13
_atom_site_aniso_U_12
O1 0.0025(5) 0.0051(5) 0.0029(4) -0.0011(4) -0.0001(4) 0.0018(4)
O2 0.0035(5) 0.0024(5) 0.0048(4) 0.0005(4) 0.0011(4) 0.0016(4)
B1 0.0038(7) 0.0028(7) 0.0035(6) 0.0001(5) 0.0008(5) 0.0021(6)
B2 0.0039(7) 0.0031(6) 0.0032(6) 0.0001(5) -0.0002(5) 0.0017(5)
O3 0.0047(5) 0.0026(5) 0.0052(4) 0.0005(4) 0.0014(4) 0.0017(4)
Ni1 0.00386(10) 0.00331(13) 0.00373(11) 0.000 0.00075(8) 0.00166(7)
O4 0.0048(5) 0.0038(6) 0.0023(6) 0.000 -0.0004(4) 0.0019(3)
loop_
_atom_type_symbol
_atom_type_description
_atom_type_scat_dispersion_real
_atom_type_scat_dispersion_imag
_atom_type_scat_source
B B 0.0013 0.0007 'International Tables Vol C Tables 4.2.6.8 and 6.1.1.4'
Ni Ni 0.3393 1.1124 'International Tables Vol C Tables 4.2.6.8 and 6.1.1.4'
O O 0.0106 0.0060 'International Tables Vol C Tables 4.2.6.8 and 6.1.1.4'
loop_
_geom_angle_atom_site_label_1
_geom_angle_atom_site_label_2
_geom_angle_atom_site_label_3
_geom_angle
_geom_angle_site_symmetry_1
_geom_angle_site_symmetry_3
B1 O1 B2 117.45(12) 4_554 2_445
B1 O1 B1 119.61(11) 4_554 12_545
B2 O1 B1 118.85(12) 2_445 12_545
B2 O2 B1 119.07(13) 10 .
B2 O2 Ni1 109.80(10) 10 8_554
B1 O2 Ni1 123.80(10) . 8_554
O2 B1 O3 107.75(13) . 9_454
O2 B1 O1 107.87(13) . 4_554
O3 B1 O1 109.73(14) 9_454 4_554
O2 B1 O1 108.71(13) . 9_444
O3 B1 O1 115.32(14) 9_454 9_444
O1 B1 O1 107.24(11) 4_554 9_444
O3 B2 O2 108.58(15) 2_454 11_554
O3 B2 O4 106.44(12) 2_454 3_444
O2 B2 O4 114.91(14) 11_554 3_444
O3 B2 O1 113.11(13) 2_454 2_444
O2 B2 O1 111.84(13) 11_554 2_444
O4 B2 O1 101.84(14) 3_444 2_444
O3 B2 Ni1 52.10(8) 2_454 3_454
O2 B2 Ni1 145.16(12) 11_554 3_454
O4 B2 Ni1 58.29(6) 3_444 3_454
O1 B2 Ni1 102.88(10) 2_444 3_454
B2 O3 B1 135.62(13) 2_455 12_445
B2 O3 Ni1 93.94(10) 2_455 4_554
B1 O3 Ni1 129.98(11) 12_445 4_554
O3 Ni1 O3 89.57(8) 4_554 11_554
O3 Ni1 O2 175.36(5) 4_554 10
O3 Ni1 O2 86.01(5) 11_554 10
O3 Ni1 O2 86.01(5) 4_554 8_554
O3 Ni1 O2 175.36(5) 11_554 8_554
O2 Ni1 O2 98.44(7) 10 8_554
O3 Ni1 O4 67.73(5) 4_554 1_655
O3 Ni1 O4 95.47(5) 11_554 1_655
O2 Ni1 O4 111.25(5) 10 1_655
O2 Ni1 O4 84.18(5) 8_554 1_655
O3 Ni1 O4 95.47(5) 4_554 .
O3 Ni1 O4 67.73(5) 11_554 .
O2 Ni1 O4 84.18(5) 10 .
O2 Ni1 O4 111.25(5) 8_554 .
O4 Ni1 O4 156.94(10) 1_655 .
O3 Ni1 B2 33.95(6) 4_554 3_544
O3 Ni1 B2 101.63(6) 11_554 3_544
O2 Ni1 B2 146.09(6) 10 3_544
O2 Ni1 B2 75.40(5) 8_554 3_544
O4 Ni1 B2 35.73(5) 1_655 3_544
O4 Ni1 B2 129.42(6) . 3_544
O3 Ni1 B2 101.63(6) 4_554 12_445
O3 Ni1 B2 33.95(6) 11_554 12_445
O2 Ni1 B2 75.40(5) 10 12_445
O2 Ni1 B2 146.09(6) 8_554 12_445
O4 Ni1 B2 129.42(6) 1_655 12_445
O4 Ni1 B2 35.73(5) . 12_445
B2 Ni1 B2 127.49(9) 3_544 12_445
B2 O4 B2 124.65(19) 3_444 12_445
B2 O4 Ni1 85.98(7) 3_444 1_455
B2 O4 Ni1 104.82(7) 12_445 1_455
B2 O4 Ni1 104.82(7) 3_444 .
B2 O4 Ni1 85.98(7) 12_445 .
Ni1 O4 Ni1 156.94(9) 1_455 .
loop_
_geom_bond_atom_site_label_1
_geom_bond_atom_site_label_2
_geom_bond_distance
_geom_bond_site_symmetry_2
O1 B1 1.519(2) 4_554
O1 B2 1.540(2) 2_445
O1 B1 1.549(2) 12_545
O2 B2 1.431(2) 10
O2 B1 1.433(2) .
O2 Ni1 2.0610(13) 8_554
B1 O3 1.438(2) 9_454
B1 O1 1.520(2) 4_554
B1 O1 1.550(2) 9_444
B2 O3 1.426(2) 2_454
B2 O2 1.431(2) 11_554
B2 O4 1.491(2) 3_444
B2 O1 1.540(2) 2_444
B2 Ni1 2.547(2) 3_454
O3 B2 1.426(2) 2_455
O3 B1 1.438(2) 12_445
O3 Ni1 2.0144(14) 4_554
Ni1 O3 2.0144(14) 4_554
Ni1 O3 2.0144(14) 11_554
Ni1 O2 2.0611(13) 10
Ni1 O2 2.0611(13) 8_554
Ni1 O4 2.1718(11) 1_655
Ni1 O4 2.1718(11) .
Ni1 B2 2.547(2) 3_544
Ni1 B2 2.547(2) 12_445
O4 B2 1.491(2) 3_444
O4 B2 1.491(2) 12_445
O4 Ni1 2.1718(11) 1_455
