#------------------------------------------------------------------------------
#$Date: 2020-12-21 18:26:15 +0200 (Mon, 21 Dec 2020) $
#$Revision: 260046 $
#$URL: file:///home/coder/svn-repositories/cod/cif/4/35/07/4350780.cif $
#------------------------------------------------------------------------------
#
# This file is available in the Crystallography Open Database (COD),
# http://www.crystallography.net/
#
# All data on this site have been placed in the public domain by the
# contributors.
#
data_4350780
loop_
_publ_author_name
'Chen, Pengyun'
'Murshed, M. Mangir'
'Fischer, Michael'
'Frederichs, Thomas'
'Gesing, Thorsten M.'
_publ_section_title
;
 KLi2RE(BO3)2 (RE = Dy, Ho, Er, Tm, Yb, and Y): Structural, Spectroscopic,
 And Thermogravimetric Studies on a Series of Mixed-Alkali Rare-Earth
 Orthoborates
;
_journal_issue                   24
_journal_name_full               'Inorganic Chemistry'
_journal_page_first              18214
_journal_page_last               18224
_journal_paper_doi               10.1021/acs.inorgchem.0c02684
_journal_volume                  59
_journal_year                    2020
_chemical_formula_sum            'B2 K Li2 O6 Y'
_chemical_formula_weight         259.51
_space_group_crystal_system      monoclinic
_space_group_IT_number           14
_space_group_name_Hall           '-P 2yn'
_space_group_name_H-M_alt        'P 1 21/n 1'
_atom_sites_solution_hydrogens   .
_audit_creation_method           SHELXL-2018/3
_cell_angle_alpha                90
_cell_angle_beta                 102.8351(8)
_cell_angle_gamma                90
_cell_formula_units_Z            4
_cell_length_a                   6.71322(6)
_cell_length_b                   9.30571(8)
_cell_length_c                   8.98650(8)
_cell_measurement_reflns_used    4326
_cell_measurement_temperature    301(2)
_cell_measurement_theta_max      33.02
_cell_measurement_theta_min      3.19
_cell_volume                     547.371(9)
_computing_structure_refinement  'SHELXL-2018/3 (Sheldrick, 2018)'
_computing_structure_solution    'SHELXT 2014/5 (Sheldrick, 2014)'
_diffrn_ambient_temperature      301(2)
_diffrn_measured_fraction_theta_full 1.000
_diffrn_measured_fraction_theta_max 0.996
_diffrn_measurement_device_type  'Bruker D8 Venture'
_diffrn_radiation_type           MoK\a
_diffrn_radiation_wavelength     0.71073
_diffrn_reflns_av_R_equivalents  0.0860
_diffrn_reflns_av_unetI/netI     0.0560
_diffrn_reflns_Laue_measured_fraction_full 1.000
_diffrn_reflns_Laue_measured_fraction_max 0.996
_diffrn_reflns_limit_h_max       10
_diffrn_reflns_limit_h_min       -10
_diffrn_reflns_limit_k_max       14
_diffrn_reflns_limit_k_min       -14
_diffrn_reflns_limit_l_max       12
_diffrn_reflns_limit_l_min       -13
_diffrn_reflns_number            18713
_diffrn_reflns_point_group_measured_fraction_full 1.000
_diffrn_reflns_point_group_measured_fraction_max 0.996
_diffrn_reflns_theta_full        25.242
_diffrn_reflns_theta_max         33.252
_diffrn_reflns_theta_min         3.193
_exptl_absorpt_coefficient_mu    11.373
_exptl_absorpt_correction_T_max  0.67969
_exptl_absorpt_correction_T_min  0.56648
_exptl_absorpt_correction_type   numerical
_exptl_absorpt_process_details   'J. Appl. Cryst. 48 (2015) 3-10'
_exptl_crystal_colour            colorless
_exptl_crystal_density_diffrn    3.149
_exptl_crystal_description       prism
_exptl_crystal_F_000             488
_exptl_crystal_size_max          0.103
_exptl_crystal_size_mid          0.061
_exptl_crystal_size_min          0.054
_refine_diff_density_max         0.831
_refine_diff_density_min         -0.888
_refine_diff_density_rms         0.192
_refine_ls_extinction_coef       0.0064(6)
_refine_ls_extinction_expression Fc^*^=kFc[1+0.001xFc^2^\l^3^/sin(2\q)]^-1/4^
_refine_ls_extinction_method     'SHELXL-2018/3 (Sheldrick 2018)'
_refine_ls_goodness_of_fit_ref   1.005
_refine_ls_hydrogen_treatment    undef
_refine_ls_matrix_type           full
_refine_ls_number_parameters     110
_refine_ls_number_reflns         2101
_refine_ls_number_restraints     0
_refine_ls_restrained_S_all      1.005
_refine_ls_R_factor_all          0.0640
_refine_ls_R_factor_gt           0.0328
_refine_ls_shift/su_max          0.002
_refine_ls_shift/su_mean         0.000
_refine_ls_structure_factor_coef Fsqd
_refine_ls_weighting_details
'w=1/[\s^2^(Fo^2^)+(0.0176P)^2^+0.7549P] where P=(Fo^2^+2Fc^2^)/3'
_refine_ls_weighting_scheme      calc
_refine_ls_wR_factor_gt          0.0497
_refine_ls_wR_factor_ref         0.0559
_reflns_Friedel_coverage         0.000
_reflns_Friedel_fraction_full    .
_reflns_Friedel_fraction_max     .
_reflns_number_gt                1594
_reflns_number_total             2101
_reflns_threshold_expression     'I > 2\s(I)'
_cod_data_source_file            KLi2Y_BO3_2.cif
_cod_data_source_block           K2LiY(BO3)2
_cod_depositor_comments
;
The following automatic conversions were performed:

data item '_exptl_absorpt_correction_type' value 'Numerical' was
changed to 'numerical' in accordance with the built-in table derived
from the CIF Core dictionary named 'cif_core.dic' version 2.4.5 last
updated on 2014-11-21.

Automatic conversion script
Id: cif_fix_values 8369 2020-08-20 11:38:08Z andrius 
;
_cod_original_sg_symbol_H-M      'P 21/n'
_cod_database_code               4350780
_shelx_shelxl_version_number     2018/3
_shelx_space_group_comment
;
The symmetry employed for this shelxl refinement is uniquely defined
by the following loop, which should always be used as a source of
symmetry information in preference to the above space-group names.
They are only intended as comments.
;
_shelx_res_file
;
TITL Fuchs_Andreasq_0m_a.res in P2(1)/n
    K2LiY(BO3)2.res
    created by SHELXL-2018/3 at 01:45:52 on 23-Jul-2020
REM Old TITL Fuchs_Andreasq_0m in P2(1)/n

REM SHELXT solution in P2(1)/n
REM R1 0.044,  Rweak 0.004,  Alpha 0.035,  Orientation as input
REM Formula found by SHELXT:  B4 K O6 Y

CELL  0.71073   6.71322   9.30571   8.98650   90.000  102.8351   90.000
ZERR    4.000   0.00006   0.00008   0.00008    0.000    0.0008    0.000
LATT  1
SYMM 1/2-X, 1/2+Y, 1/2-Z
SFAC B K LI O Y
UNIT 8 4 8 24 4
TEMP 28.350
L.S. 10
BOND
LIST 4
acta
FMAP 2
PLAN 20
WGHT    0.017600    0.754900
EXTI    0.006383
FVAR       0.58088
Y     5    0.537077    0.882926    0.341891    11.00000    0.00646    0.00412 =
         0.00487    0.00001    0.00127    0.00013
K     2    0.574671    0.375860    0.413975    11.00000    0.01364    0.00941 =
         0.00926   -0.00016    0.00188   -0.00227
O1    4    0.723888    0.726933    0.816882    11.00000    0.00678    0.00586 =
         0.00883    0.00181    0.00118    0.00215
O2    4    0.600048    0.964045    0.858695    11.00000    0.01064    0.00746 =
         0.00725   -0.00120    0.00270    0.00184
O3    4    0.601386    0.894531    0.607415    11.00000    0.01433    0.00909 =
         0.00583    0.00065    0.00188    0.00391
O4    4    0.658413    0.498306    0.149464    11.00000    0.00835    0.00537 =
         0.00842   -0.00218    0.00175   -0.00012
O5    4    0.573873    0.748085    0.123841    11.00000    0.01439    0.00692 =
         0.00718    0.00092    0.00431    0.00178
O6    4    0.659689    0.651263    0.369625    11.00000    0.01274    0.00772 =
         0.00520   -0.00026    0.00070    0.00299
B1    1    0.647953    0.859098    0.762815    11.00000    0.00578    0.00725 =
         0.00586   -0.00141   -0.00039   -0.00039
B2    1    0.631948    0.629638    0.214566    11.00000    0.00530    0.00918 =
         0.00693    0.00038    0.00103   -0.00125
LI1   3    0.417062    0.883123    0.993406    11.00000    0.01623    0.01237 =
         0.00851   -0.00052    0.00205    0.00133
LI2   3    0.417168    0.385127    0.050154    11.00000    0.01910    0.01280 =
         0.01090    0.00288    0.00374   -0.00515
HKLF 4




REM  Fuchs_Andreasq_0m_a.res in P2(1)/n
REM wR2 = 0.0559, GooF = S = 1.005, Restrained GooF = 1.005 for all data
REM R1 = 0.0328 for 1594 Fo > 4sig(Fo) and 0.0640 for all 2101 data
REM 110 parameters refined using 0 restraints

END

WGHT      0.0125      0.7186

REM Highest difference peak  0.831,  deepest hole -0.888,  1-sigma level  0.192
Q1    1   0.7945  0.6364  0.7800  11.00000  0.05    0.83
Q2    1   0.5487  0.3554  0.3355  11.00000  0.05    0.75
Q3    1   0.7020  0.7879  0.7985  11.00000  0.05    0.75
Q4    1   0.6221  0.8521  0.0873  11.00000  0.05    0.73
Q5    1   0.8205  0.7263  0.7743  11.00000  0.05    0.72
Q6    1   0.6295  0.7803  0.1540  11.00000  0.05    0.71
Q7    1   0.7446  0.6942  0.2235  11.00000  0.05    0.66
Q8    1   0.5110  0.3019 -0.0049  11.00000  0.05    0.66
Q9    1   0.6121  0.8621  0.6221  11.00000  0.05    0.65
Q10   1   0.4753  0.8603  0.9392  11.00000  0.05    0.65
Q11   1   0.7379  0.7370  0.8885  11.00000  0.05    0.63
Q12   1   0.5294  0.4987  0.2010  11.00000  0.05    0.61
Q13   1   0.6285  0.8613  0.5322  11.00000  0.05    0.61
Q14   1   0.6206  0.9377  0.5657  11.00000  0.05    0.60
Q15   1   0.5665  0.8215  0.5463  11.00000  0.05    0.60
Q16   1   0.5613  0.9136  0.6539  11.00000  0.05    0.60
Q17   1   0.6747  1.0126  0.8865  11.00000  0.05    0.59
Q18   1   0.4176  0.8801  0.2422  11.00000  0.05    0.58
Q19   1   0.6934  0.6001  0.2955  11.00000  0.05    0.58
Q20   1   0.5318  0.9251  0.8973  11.00000  0.05    0.58
;
_shelx_res_checksum              68165
_shelx_hkl_file
;
   1   0   0   10.40    3.80
   1   0   0   11.70    6.80
   1   0   0   10.80    6.00
  -1   0   0    0.80    6.80
  -1   0   0    9.20    6.10
  -1   0   0    2.00    6.40
  -1   0   0    6.00    3.90
  -1   0   0   -0.40    7.10
   1   0   0   12.00    5.80
   1   0   0   10.80    7.20
   2   0   0 5056.39  146.39
   2   0   0 5079.29  152.78
   2   0   0 5267.17  151.38
  -2   0   0 5421.06  152.88
  -2   0   0 5021.40  150.98
  -2   0   0 5138.59  151.48
  -2   0   0 4950.70  146.39
  -2   0   0 5368.26  153.18
   2   0   0 5414.86  150.58
   2   0   0 5155.78  152.08
   3   0   0    6.10   14.80
   3   0   0   10.70    8.80
   3   0   0    4.50   16.70
   3   0   0    5.90   13.00
  -3   0   0    9.20   16.70
   3   0   0   15.00   17.30
  -3   0   0   -2.00   17.70
  -3   0   0  -12.10   15.50
  -3   0   0   15.40   15.90
   4   0   0   91.69   20.30
   4   0   0   96.59   22.00
   4   0   0   77.49   28.10
  -4   0   0   94.19   23.70
  -4   0   0   83.69   24.00
  -4   0   0  131.39   25.00
   4   0   0   96.09   12.60
   5   0   0   -6.00   26.50
   5   0   0   10.30   10.70
  -5   0   0   -2.20   25.70
  -5   0   0    1.80   26.70
  -5   0   0   23.20   27.50
  -5   0   0   17.90   28.30
   5   0   0  -24.40   19.10
   5   0   0   65.59   23.70
  -6   0   0  221.78   42.80
  -6   0   0  193.98   46.20
  -6   0   0  187.58   38.10
  -6   0   0  186.88   39.40
   6   0   0  253.17   36.40
   6   0   0  255.57   32.80
   6   0   0  207.98   36.00
   7   0   0   -1.40   34.60
  -7   0   0  -47.80   34.00
   7   0   0   18.80   30.80
  -7   0   0    3.70   39.70
  -8   0   0  391.96   66.19
  -8   0   0  276.77   56.09
   8   0   0  293.97   47.00
  -9   0   0  -24.70   53.79
  -9   0   0   30.20   67.79
  -9   0   0    3.00   66.29
   9   0   0  -12.20   42.50
 -10   0   0  462.15   87.39
 -10   0   0  150.68   81.49
 -10   0   0  267.57   76.79
   0  -1   0   -0.50    5.20
   0  -1   0   -1.30    4.60
   0  -1   0    4.50    4.80
   0  -1   0   -3.00    3.30
   0  -1   0    3.50    4.30
   0   1   0    1.40    3.80
   0   1   0    2.60    5.00
   0   1   0    0.70    5.20
   0   1   0    1.90    5.20
   0   1   0    3.30    5.50
   1  -1   0 1474.65   46.00
  -1  -1   0 1382.76   43.20
  -1  -1   0 1423.26   46.50
   1  -1   0 1401.16   48.50
   1  -1   0 1497.85   47.00
  -1  -1   0 1481.85   45.20
   1  -1   0 1542.15   46.80
  -1  -1   0 1478.75   49.30
   1  -1   0 1427.66   47.50
   1  -1   0 1454.85   45.40
  -1  -1   0 1441.36   46.80
   1   1   0 1418.46   42.00
  -1   1   0 1437.76   46.60
   1   1   0 1556.04   46.80
   1   1   0 1517.55   44.90
   1   1   0 1417.46   43.10
  -1   1   0 1408.66   48.00
  -1   1   0 1376.46   45.70
  -1   1   0 1446.96   47.20
  -1   1   0 1427.46   46.20
   1   1   0 1420.06   45.90
   2  -1   0 2485.95   82.39
  -2  -1   0 2541.55   82.49
   2  -1   0 2577.14   85.79
   2  -1   0 2541.05   79.39
   2  -1   0 2550.34   80.09
  -2  -1   0 2637.34   80.19
   2  -1   0 2565.64   81.09
  -2  -1   0 2528.05   80.19
  -2  -1   0 2556.74   82.39
   2   1   0 2572.84   79.69
  -2   1   0 2620.44   84.79
  -2   1   0 2614.84   79.59
  -2   1   0 2527.65   82.79
  -2   1   0 2527.65   82.09
   2   1   0 2663.33   81.49
   2   1   0 2712.63   82.39
  -2   1   0 2541.35   80.49
   2   1   0 2602.34   78.59
  -3  -1   0 1777.82   64.69
  -3  -1   0 1749.62   63.39
   3  -1   0 1733.43   59.49
   3  -1   0 1838.82   63.39
   3  -1   0 1588.14   73.69
   3  -1   0 1815.62   62.69
  -3  -1   0 1707.33   65.39
  -3  -1   0 1832.32   63.79
   3   1   0 1840.72   63.89
  -3   1   0 1826.32   59.29
  -3   1   0 1581.04   70.29
  -3   1   0 1714.33   74.49
   3   1   0 1674.33   50.09
   3   1   0 1690.03   68.99
  -3   1   0 1703.23   63.69
   3   1   0 1686.33   62.89
   3   1   0 1838.92   60.29
  -4  -1   0  114.89   28.30
  -4  -1   0  146.39   26.90
   4  -1   0  155.98   23.90
  -4  -1   0  137.99   26.30
   4  -1   0  133.49   18.30
   4  -1   0  158.18   27.90
   4   1   0  158.78   20.10
  -4   1   0  152.08   18.30
  -4   1   0  190.58   26.30
  -4   1   0  151.58   27.40
   4   1   0  176.48   29.10
  -4   1   0  212.18   30.20
  -4   1   0  130.69   27.40
   4   1   0  157.48   23.20
   5  -1   0  104.69   25.00
  -5  -1   0   99.89   30.10
   5  -1   0   54.09   28.20
   5  -1   0   70.69   17.10
  -5  -1   0   85.99   29.50
  -5  -1   0   94.49   30.20
  -5  -1   0  156.48   31.90
   5  -1   0  115.29   26.10
  -5   1   0   71.49   29.00
   5   1   0   85.89   27.20
  -5   1   0  100.19   30.00
  -5   1   0  156.38   33.70
  -5   1   0   80.39   30.10
   5   1   0   96.79   26.10
  -6  -1   0  410.56   46.20
  -6  -1   0  520.85   57.09
   6  -1   0  461.35   45.90
   6  -1   0  426.26   48.60
   6  -1   0  453.15   32.80
  -6  -1   0  462.65   55.39
   6  -1   0  442.36   52.09
  -6  -1   0  327.77   43.80
  -6   1   0  534.45   52.69
  -6   1   0  441.16   52.09
   6   1   0  462.35   45.80
  -6   1   0  450.55   49.60
   6   1   0  423.06   42.10
   6   1   0  484.15   49.30
   7  -1   0   -9.20   32.30
  -7  -1   0   31.30   43.30
   7  -1   0   37.90   38.00
  -7  -1   0   27.00   38.20
  -7  -1   0   71.99   39.50
   7   1   0   -4.20   31.00
  -7   1   0    8.00   40.30
  -7   1   0   47.40   38.50
   7   1   0   -9.50   29.80
  -7   1   0  -26.80   38.30
  -8  -1   0  481.95   67.09
  -8  -1   0  438.56   67.59
   8  -1   0  470.15   53.59
  -8   1   0  479.95   71.49
   8   1   0  388.46   47.70
  -8   1   0  514.85   66.69
  -8   1   0  381.66   69.99
   9  -1   0  -62.09   49.20
  -9  -1   0  -23.60   64.69
  -9  -1   0  -43.50   55.29
  -9   1   0  -55.49   59.09
  -9   1   0   21.60   73.89
  -9   1   0  -95.79   57.59
   9   1   0   17.90   39.30
 -10  -1   0  267.37   82.69
 -10  -1   0  336.67   88.19
 -10  -1   0  569.84   95.99
 -10   1   0  286.97   83.99
 -10   1   0  484.55   91.09
   0  -2   0   22.70   10.20
   0  -2   0   27.60    7.60
   0  -2   0   37.70   11.30
   0  -2   0   39.00   10.40
   0  -2   0   40.10   11.70
   0   2   0   27.90   10.90
   0   2   0   18.00   10.10
   0   2   0   29.20    8.00
   0   2   0   46.00    9.60
   0   2   0   29.40   12.00
  -1  -2   0  619.64   30.20
   1  -2   0  577.04   30.70
   1  -2   0  582.54   29.70
  -1  -2   0  568.04   24.50
  -1  -2   0  590.14   30.10
   1  -2   0  632.94   29.50
  -1  -2   0  605.84   26.60
  -1  -2   0  601.24   28.60
   1  -2   0  606.94   27.10
   1   2   0  599.04   30.80
  -1   2   0  595.34   29.50
   1   2   0  515.55   18.50
  -1   2   0  605.44   30.50
   1   2   0  585.84   28.80
  -1   2   0  591.54   29.90
  -1   2   0  614.44   30.20
  -1   2   0  580.64   27.30
   1   2   0  643.84   26.40
   1   2   0  599.94   24.40
  -2  -2   0  176.18   23.80
  -2  -2   0  139.39   16.80
   2  -2   0  152.38   17.20
   2  -2   0  221.18   24.30
  -2  -2   0  170.08   15.90
   2  -2   0  143.89   18.40
  -2  -2   0  141.39   20.00
  -2  -2   0  144.99   20.00
   2  -2   0  133.29   19.90
   2   2   0  162.58   12.00
   2   2   0  135.19   18.40
  -2   2   0  170.68   22.10
   2   2   0  162.98   15.70
   2   2   0  118.89   17.00
  -2   2   0  134.39   19.40
   2   2   0  148.19   14.80
  -2   2   0  149.88   19.10
  -2   2   0  113.69   17.30
  -2   2   0  136.79   20.00
  -3  -2   0 5038.80  159.88
   3  -2   0 4906.31  146.79
  -3  -2   0 4718.03  147.49
  -3  -2   0 4915.21  157.38
   3  -2   0 4803.22  151.28
  -3  -2   0 4879.51  144.59
   3  -2   0 4687.03  146.79
   3  -2   0 4874.01  147.99
   3   2   0 4751.92  143.49
  -3   2   0 5002.30  151.38
   3   2   0 4766.12  146.59
  -3   2   0 4589.84  149.19
  -3   2   0 4946.10  147.19
   3   2   0 4937.31  149.99
   3   2   0 4906.71  143.79
  -3   2   0 4734.33  148.79
  -3   2   0 4864.21  153.58
   4  -2   0  135.39   27.90
   4  -2   0  152.38   23.90
  -4  -2   0  135.69   33.10
  -4  -2   0  143.89   22.60
  -4  -2   0  126.49   28.00
  -4  -2   0  147.29   26.60
  -4  -2   0  159.88   40.30
   4  -2   0  154.28   23.80
   4   2   0  133.09   25.80
  -4   2   0  190.58   30.80
  -4   2   0  158.58   28.20
  -4   2   0  126.99   22.10
  -4   2   0  155.08   28.50
  -4   2   0  142.89   27.80
   4   2   0  132.79   25.70
   4   2   0  160.18   21.00
  -4   2   0  117.39   24.80
   5  -2   0 2857.81  110.49
   5  -2   0 2850.41   99.79
  -5  -2   0 2891.71  111.29
   5  -2   0 3042.00  105.59
  -5  -2   0 2831.72  109.59
  -5  -2   0 2915.31  121.29
  -5  -2   0 3009.40  106.29
   5   2   0 3124.49   99.29
   5   2   0 3029.80  109.09
  -5   2   0 2907.51  107.09
  -5   2   0 2929.31  111.39
  -5   2   0 2992.40  116.99
   5   2   0 2814.52  102.79
  -5   2   0 2834.42  110.49
  -5   2   0 2865.21  106.69
  -5   2   0 2935.61  112.79
   6  -2   0  -12.30   27.90
  -6  -2   0   22.10   34.10
  -6  -2   0   22.60   28.80
   6  -2   0    9.10   32.40
   6  -2   0   19.30   31.30
  -6  -2   0   -6.00   32.30
  -6   2   0   17.50   30.40
   6   2   0   29.40   27.80
  -6   2   0   66.49   36.70
  -6   2   0   35.80   36.70
   7  -2   0  814.82   72.29
   7  -2   0  858.91   70.19
  -7  -2   0  710.33   71.39
   7  -2   0  731.53   50.99
  -7  -2   0  853.11   75.09
  -7  -2   0  766.92   74.99
   7   2   0  857.41   57.99
  -7   2   0  814.82   73.49
  -7   2   0  692.93   73.39
   7   2   0  717.93   73.99
  -7   2   0  782.42   73.59
   8  -2   0  -75.39   41.10
  -8  -2   0   -5.70   57.59
  -8  -2   0   62.99   53.59
   8   2   0    4.60   33.00
  -8   2   0  -80.79   58.29
  -8   2   0   21.70   55.19
   9  -2   0  137.09   61.19
  -9  -2   0   88.39   66.79
  -9  -2   0  218.68   85.59
  -9   2   0  188.68   73.99
  -9   2   0  231.98   68.89
   0  -3   0   -6.40    9.40
   0  -3   0    1.70   15.30
   0  -3   0   -3.40   14.40
   0  -3   0   -8.90   14.20
   0  -3   0   12.80   13.90
   0   3   0    8.10   14.90
   0   3   0   11.30   13.10
   0   3   0    8.50   10.30
   0   3   0   -7.80   14.40
   0   3   0   10.70   14.70
   0   3   0   -1.20    9.90
   1  -3   0  167.98   20.90
   1  -3   0  187.48   23.10
   1  -3   0  176.38   18.00
  -1  -3   0  159.88   19.40
  -1  -3   0  179.38   19.20
  -1  -3   0  175.68   22.10
  -1  -3   0  177.78   21.90
  -1  -3   0  164.08   18.00
   1  -3   0  191.78   23.60
   1   3   0  159.48   19.00
   1   3   0  143.09   18.80
   1   3   0  173.88   21.30
  -1   3   0  215.98   26.20
   1   3   0  172.38   17.50
  -1   3   0  199.88   24.20
  -1   3   0  172.88   20.50
  -1   3   0  177.38   20.20
  -1   3   0  172.58   18.90
   2  -3   0  370.46   29.20
  -2  -3   0  396.66   29.10
  -2  -3   0  384.66   27.10
   2  -3   0  330.97   37.10
  -2  -3   0  309.37   31.50
  -2  -3   0  386.96   35.00
   2  -3   0  375.86   26.90
   2  -3   0  326.27   31.70
   2   3   0  355.96   15.10
  -2   3   0  318.27   27.90
   2   3   0  360.56   29.60
   2   3   0  340.97   24.50
  -2   3   0  325.77   35.20
   2   3   0  383.46   21.30
  -2   3   0  359.66   29.90
  -2   3   0  369.06   28.30
  -2   3   0  321.87   31.60
   3  -3   0  586.54   40.70
  -3  -3   0  578.64   39.70
   3  -3   0  526.55   41.80
  -3  -3   0  536.05   43.70
  -3  -3   0  484.95   39.30
  -3  -3   0  550.84   41.70
  -3  -3   0  572.64   27.50
   3  -3   0  614.24   38.00
   3   3   0  577.34   22.90
  -3   3   0  528.75   40.60
  -3   3   0  580.84   41.90
   3   3   0  501.75   39.60
   3   3   0  573.54   31.80
  -3   3   0  584.94   40.50
   3   3   0  576.44   38.20
  -3   3   0  515.75   42.40
  -4  -3   0  310.77   36.90
  -4  -3   0  357.46   42.10
  -4  -3   0  387.56   42.20
   4  -3   0  310.87   36.00
   4  -3   0  310.87   37.10
  -4  -3   0  354.86   42.70
   4  -3   0  351.06   34.20
  -4  -3   0  256.27   30.10
   4  -3   0  384.56   40.60
   4   3   0  391.36   48.40
   4   3   0  346.47   29.80
  -4   3   0  311.77   34.90
   4   3   0  287.47   34.00
  -4   3   0  404.56   39.00
  -4   3   0  370.36   41.10
  -4   3   0  348.67   39.50
  -4   3   0  244.68   32.60
  -5  -3   0  369.86   41.90
  -5  -3   0  463.05   53.99
  -5  -3   0  367.16   40.80
  -5  -3   0  425.36   45.40
   5  -3   0  351.06   42.50
   5  -3   0  453.35   42.10
   5  -3   0  466.85   56.89
   5  -3   0  361.66   42.00
  -5   3   0  429.46   49.30
  -5   3   0  371.56   44.30
  -5   3   0  397.96   42.30
   5   3   0  442.86   35.80
   5   3   0  471.35   46.80
   5   3   0  434.46   43.70
  -5   3   0  360.16   44.50
  -5   3   0  427.46   49.40
  -6  -3   0  186.08   42.30
   6  -3   0  159.98   41.50
  -6  -3   0  286.47   36.90
   6  -3   0  187.98   38.00
   6  -3   0  196.88   31.70
  -6   3   0  138.69   38.40
  -6   3   0  249.88   35.00
   6   3   0  145.69   29.90
   6   3   0  207.98   32.50
  -6   3   0  231.98   43.50
  -7  -3   0  133.09   40.70
  -7  -3   0  141.49   46.50
  -7  -3   0  136.69   45.50
   7  -3   0  189.28   49.40
   7  -3   0  104.09   47.60
   7  -3   0   84.09   30.50
  -7   3   0  113.39   45.60
   7   3   0  150.88   40.70
   7   3   0  136.59   31.90
  -7   3   0  141.09   48.10
   8  -3   0  911.71   88.89
  -8  -3   0  831.62   97.19
  -8  -3   0  939.61   89.79
  -8   3   0  893.31   96.99
   8   3   0  913.21   58.29
  -8   3   0  866.71   91.09
  -9  -3   0  119.49   65.89
   9  -3   0  -57.99   66.09
  -9  -3   0  136.19   69.49
  -9   3   0  146.59   63.89
  -9   3   0   66.49   71.89
   0  -4   0 7017.60  207.18
   0  -4   0 7425.96  208.58
   0  -4   0 7230.38  207.28
   0  -4   0 6930.01  209.68
   0   4   0 7399.36  206.48
   0   4   0 6720.13  208.28
   0   4   0 6756.02  201.78
   0   4   0 6907.21  207.48
   0   4   0 7057.79  208.38
   0   4   0 6919.11  202.38
  -1  -4   0  552.94   37.70
  -1  -4   0  598.84   35.40
   1  -4   0  495.85   39.60
  -1  -4   0  570.74   31.30
  -1  -4   0  566.94   33.50
  -1  -4   0  577.14   33.10
   1  -4   0  595.54   32.60
   1  -4   0  530.45   36.60
  -1   4   0  514.55   33.10
   1   4   0  559.74   37.00
   1   4   0  572.64   31.00
  -1   4   0  540.95   35.10
   1   4   0  556.04   33.00
  -1   4   0  590.74   33.80
   1   4   0  581.64   32.00
  -1   4   0  516.65   37.30
  -2  -4   0 4878.31  149.88
  -2  -4   0 4727.13  145.39
  -2  -4   0 5054.09  152.58
   2  -4   0 4604.04  152.78
  -2  -4   0 4800.42  154.08
  -2  -4   0 4886.61  152.38
   2  -4   0 5218.38  153.48
  -2   4   0 4645.54  149.69
   2   4   0 4959.60  145.79
  -2   4   0 4942.11  154.38
  -2   4   0 5129.29  153.78
  -2   4   0 4837.12  153.38
   2   4   0 5102.69  146.79
  -2   4   0 5096.69  154.68
   2   4   0 4381.46  154.38
   3  -4   0  133.99   29.40
   3  -4   0  145.49   23.00
  -3  -4   0  166.68   26.70
  -3  -4   0  204.78   32.30
   3  -4   0  141.99   24.00
  -3  -4   0  179.98   28.30
   3  -4   0  161.38   29.70
   3  -4   0  147.49   26.20
  -3  -4   0  174.18   29.50
  -3   4   0  178.28   30.20
  -3   4   0  129.39   29.60
  -3   4   0  166.78   26.60
   3   4   0  148.39   15.90
   3   4   0  128.99   19.20
   3   4   0  182.38   25.80
  -3   4   0  191.48   29.00
  -3   4   0  123.89   25.20
   4  -4   0  134.89   32.50
  -4  -4   0   98.09   33.60
  -4  -4   0   98.69   29.80
   4  -4   0   76.09   27.10
   4  -4   0  132.99   26.40
  -4  -4   0   84.99   31.10
  -4  -4   0   73.09   15.10
   4  -4   0  112.79   31.30
  -4  -4   0  136.29   29.80
   4   4   0   94.59   10.20
   4   4   0  104.79   20.70
   4   4   0   82.59   28.20
  -4   4   0  111.79   29.00
  -4   4   0   71.29   26.70
   4   4   0   82.69   30.30
  -4   4   0  118.89   32.60
  -4   4   0   90.19   29.60
  -4   4   0  119.19   32.40
   5  -4   0  106.09   31.20
  -5  -4   0   18.40   31.50
  -5  -4   0   51.09   41.40
   5  -4   0   17.90   35.30
  -5  -4   0   63.39   18.90
   5  -4   0   60.89   27.90
   5  -4   0   41.90   30.50
  -5  -4   0   26.10   30.40
  -5  -4   0   52.49   36.40
   5   4   0   21.20   19.30
  -5   4   0   29.90   32.80
  -5   4   0    8.00   31.10
   5   4   0   66.59   25.30
   5   4   0    6.00   29.80
  -5   4   0   30.30   34.90
  -5   4   0   37.00   28.10
  -5   4   0   72.19   30.90
   6  -4   0   88.79   35.80
   6  -4   0   12.70   29.20
   6  -4   0  -51.99   34.50
  -6  -4   0  -14.60   33.60
  -6  -4   0    6.50   34.70
   6  -4   0   20.40   40.90
  -6  -4   0   16.60   23.80
   6   4   0   36.10   22.00
  -6   4   0   16.10   40.00
  -6   4   0   -2.20   34.30
   6   4   0   36.70   25.90
  -6   4   0   89.59   35.70
   7  -4   0    1.40   33.30
  -7  -4   0   -7.10   43.70
  -7  -4   0   24.80   40.20
  -7  -4   0   44.70   34.10
   7  -4   0   83.49   43.20
  -7   4   0  -13.20   44.60
   7   4   0  -15.10   27.90
  -7   4   0  143.29   45.20
   7   4   0  -31.80   23.70
  -7   4   0  -17.00   49.00
  -8  -4   0  205.28   64.09
   8  -4   0  163.38   62.59
   8   4   0  174.88   46.10
  -8   4   0  118.69   64.39
   9  -4   0    9.50   72.89
  -9  -4   0 -165.78   61.49
  -9  -4   0  146.59   67.09
  -9   4   0   29.00   62.79
  -9   4   0  -66.49   66.39
   0  -5   0   -9.70   17.30
   0  -5   0  -15.60   19.10
   0  -5   0    7.70   18.20
   0   5   0   12.60   19.80
   0   5   0  -18.90   20.30
   0   5   0   -8.70   12.70
   0   5   0    5.30   17.50
   0   5   0   -2.70   12.70
  -1  -5   0 1645.94   60.99
   1  -5   0 1628.94   71.29
  -1  -5   0 1696.23   69.09
   1  -5   0 1720.63   65.79
   1  -5   0 1700.93   68.99
  -1  -5   0 1678.73   66.29
   1  -5   0 1705.03   67.49
  -1  -5   0 1576.24   66.49
  -1  -5   0 1714.73   68.29
   1   5   0 1652.43   67.89
   1   5   0 1746.63   62.59
  -1   5   0 1661.03   69.29
   1   5   0 1511.55   62.19
  -1   5   0 1544.35   69.29
  -1   5   0 1787.02   67.39
   1   5   0 1662.63   53.69
   1   5   0 1621.44   71.79
  -1   5   0 1798.22   74.69
  -1   5   0 1608.84   60.19
  -1   5   0 1645.04   68.69
  -2  -5   0   15.00   20.70
   2  -5   0   -9.70   22.70
  -2  -5   0    6.30   20.20
  -2  -5   0   28.00   24.70
   2  -5   0  -11.10   25.50
   2  -5   0  -20.70   19.70
  -2  -5   0   16.60   21.50
  -2  -5   0  -13.80   22.70
   2  -5   0   22.20   18.50
   2   5   0  -13.10   16.10
   2   5   0    8.00   25.10
  -2   5   0   13.00   22.50
  -2   5   0  -17.80   22.90
  -2   5   0  -13.40   21.30
  -2   5   0   24.30   24.10
   2   5   0   11.80   16.70
  -2   5   0   32.70   22.40
  -3  -5   0  337.97   40.10
   3  -5   0  352.66   40.70
  -3  -5   0  360.76   39.70
  -3  -5   0  353.76   39.70
  -3  -5   0  410.86   40.10
   3  -5   0  417.66   40.90
   3  -5   0  394.26   46.10
   3  -5   0  419.26   40.00
   3  -5   0  314.17   36.30
  -3   5   0  381.56   40.90
  -3   5   0  343.47   42.90
   3   5   0  388.86   29.70
   3   5   0  360.26   53.99
   3   5   0  415.76   33.60
  -3   5   0  330.27   34.60
  -3   5   0  378.86   40.20
  -3   5   0  382.86   43.30
   4  -5   0   67.99   25.90
   4  -5   0   80.69   32.60
  -4  -5   0   36.30   29.50
   4  -5   0   61.59   35.90
  -4  -5   0   56.79   29.90
   4  -5   0   41.90   29.50
  -4  -5   0   94.99   33.80
  -4  -5   0   72.69   32.60
   4   5   0   40.60   19.60
  -4   5   0   49.50   32.80
   4   5   0   66.59   15.00
   4   5   0   82.99   26.10
  -4   5   0   31.20   27.40
  -4   5   0   35.70   29.30
  -4   5   0   75.09   36.20
  -4   5   0   28.00   30.70
  -5  -5   0  463.95   52.99
   5  -5   0  548.35   49.40
  -5  -5   0  661.53   63.99
   5  -5   0  523.65   55.59
  -5  -5   0  489.25   54.19
  -5  -5   0  672.33   68.09
   5  -5   0  528.15   54.79
   5  -5   0  494.65   54.89
   5   5   0  559.84   46.70
  -5   5   0  541.35   54.19
   5   5   0  609.94   40.30
  -5   5   0  507.85   60.29
  -5   5   0  478.55   55.19
  -6  -5   0   82.29   40.80
   6  -5   0   58.09   36.50
   6  -5   0  109.09   45.70
  -6  -5   0   91.79   43.20
  -6  -5   0   59.09   20.60
   6   5   0   67.69   24.10
  -6   5   0   64.69   40.70
  -6   5   0  140.49   41.50
   6   5   0   43.20   25.90
  -6   5   0   75.79   40.70
  -7  -5   0   53.29   56.29
  -7  -5   0   28.00   38.70
   7  -5   0   24.00   39.20
   7  -5   0   -6.40   51.79
   7   5   0   31.10   22.60
   7   5   0   46.20   26.00
  -7   5   0   57.99   57.69
  -7   5   0  102.39   49.00
  -8  -5   0  932.51  111.29
   8  -5   0  757.02   86.49
  -8  -5   0  753.32   86.19
   8  -5   0  715.93   79.19
  -8   5   0 1079.59  104.89
  -8   5   0  697.23  138.19
   9  -5   0   89.89   73.29
  -9  -5   0 -103.19   65.49
  -9  -5   0  -82.59   63.79
  -9   5   0   61.69   68.29
  -9   5   0   68.29   73.59
   0  -6   0  333.87   39.70
   0  -6   0  274.27   34.70
   0  -6   0  273.87   32.90
   0  -6   0  352.46   39.70
   0   6   0  255.97   33.30
   0   6   0  303.97   37.20
   0   6   0  271.47   32.40
   0   6   0  279.77   29.10
   0   6   0  298.57   33.90
   0   6   0  294.97   29.30
   1  -6   0  356.46   39.00
   1  -6   0  298.17   36.40
  -1  -6   0  476.35   42.00
   1  -6   0  386.06   39.00
  -1  -6   0  395.56   32.20
  -1  -6   0  371.36   41.80
  -1  -6   0  350.26   43.30
  -1  -6   0  360.26   40.40
   1  -6   0  362.86   36.00
   1   6   0  412.46   36.20
  -1   6   0  381.96   43.00
   1   6   0  373.86   37.20
   1   6   0  375.96   24.00
  -1   6   0  362.06   37.90
  -1   6   0  330.07   38.20
  -1   6   0  380.96   40.70
  -1   6   0  380.86   42.80
   1   6   0  336.77   40.60
   1   6   0  358.86   39.40
  -1   6   0  342.37   31.90
  -2  -6   0  464.05   43.50
   2  -6   0  529.35   41.10
  -2  -6   0  386.46   43.60
   2  -6   0  409.06   47.80
   2  -6   0  433.16   43.00
  -2  -6   0  381.46   41.70
  -2  -6   0  532.05   50.19
  -2  -6   0  470.15   42.80
   2  -6   0  417.56   51.29
  -2   6   0  456.05   44.20
   2   6   0  479.45   37.40
   2   6   0  444.16   38.60
  -2   6   0  443.76   47.40
  -2   6   0  441.56   46.30
  -2   6   0  387.46   42.70
  -2   6   0  509.75   46.90
   2   6   0  381.26   44.30
   3  -6   0 1160.58   64.29
  -3  -6   0 1276.77   66.79
  -3  -6   0 1349.56   73.79
   3  -6   0 1145.59   68.89
  -3  -6   0 1216.18   67.09
  -3  -6   0 1185.18   65.79
   3  -6   0 1328.17   73.39
  -3  -6   0 1168.58   70.19
   3  -6   0 1192.78   62.79
   3   6   0 1057.29   59.49
  -3   6   0 1163.08   63.29
  -3   6   0 1263.47   66.79
   3   6   0  997.70   61.49
   3   6   0 1279.87   55.69
  -3   6   0 1250.97   70.29
  -3   6   0 1152.48   68.59
  -3   6   0 1298.47   68.79
  -4  -6   0  181.78   39.20
  -4  -6   0  241.88   44.60
   4  -6   0  190.18   40.90
   4  -6   0  226.28   35.40
  -4  -6   0  215.38   42.40
  -4  -6   0  154.78   37.20
   4  -6   0  261.47   40.00
   4  -6   0  188.88   43.70
   4   6   0  207.38   26.30
   4   6   0  207.58   22.70
  -4   6   0  194.38   42.90
  -4   6   0  202.18   40.80
   4   6   0  227.28   32.80
  -4   6   0  227.18   35.70
  -4   6   0  196.08   42.10
  -4   6   0  233.78   39.40
   5  -6   0 2205.08  102.59
  -5  -6   0 2155.08  106.59
  -5  -6   0 2100.09  110.99
   5  -6   0 2151.38   93.29
   5  -6   0 2041.80  107.59
  -5  -6   0 2223.08   98.39
  -5   6   0 2024.00  102.89
  -5   6   0 2034.80   98.59
   5   6   0 2271.07   80.19
   6  -6   0  236.38   50.39
  -6  -6   0  199.48   52.99
   6  -6   0  208.68   54.19
  -6  -6   0  169.28   45.60
   6   6   0  249.18   32.90
  -6   6   0  229.58   54.69
   6   6   0  173.58   27.10
  -6   6   0  228.48   45.80
   7  -6   0  807.82   96.39
  -7  -6   0  759.82   90.69
  -7  -6   0  829.02   86.29
   7  -6   0  882.21   79.39
  -7   6   0  827.22   82.09
  -7   6   0  731.53   85.09
   8  -6   0  -65.09   52.49
  -8  -6   0   75.29   60.89
   8  -6   0   11.60   62.39
  -8   6   0  -20.30   53.39
  -8   6   0   36.50   65.69
  -9  -6   0  115.79   81.79
  -9  -6   0  152.08   73.19
   9  -6   0  182.28   76.59
  -9   6   0  207.88   77.69
  -9   6   0  273.07   90.39
   0  -7   0  -18.20   24.90
   0  -7   0  -58.99   24.40
   0  -7   0  -19.00   26.10
   0  -7   0   31.10   30.30
   0   7   0   -5.30   28.90
   0   7   0    9.50   25.40
   0   7   0   33.30   24.50
   0   7   0   -3.40   29.60
   0   7   0   10.70   18.50
   1  -7   0   44.40   29.30
  -1  -7   0  -19.80   27.20
  -1  -7   0   28.10   28.50
  -1  -7   0   16.80   19.30
   1  -7   0    2.00   27.40
  -1  -7   0   22.20   27.80
  -1  -7   0    5.30   27.00
   1  -7   0   43.00   33.10
   1  -7   0   40.60   25.30
  -1   7   0   44.60   23.60
   1   7   0   31.00   30.80
  -1   7   0   38.80   27.30
  -1   7   0   29.10   29.70
   1   7   0   34.30   24.30
   1   7   0  -11.30   13.50
  -1   7   0  -16.70   23.70
  -1   7   0   33.90   31.80
   1   7   0  -12.90   23.70
   1   7   0  -22.00   21.60
  -1   7   0   13.70   29.10
   2  -7   0  106.59   35.20
  -2  -7   0  224.08   35.60
  -2  -7   0  198.58   38.20
   2  -7   0  162.78   35.30
   2  -7   0  225.88   33.70
  -2  -7   0  154.68   27.90
  -2  -7   0  207.28   33.90
  -2  -7   0  182.48   33.80
  -2  -7   0  248.08   38.90
   2  -7   0  189.38   39.00
  -2   7   0  200.38   35.90
   2   7   0  228.18   29.10
  -2   7   0  212.58   35.20
  -2   7   0  205.08   38.90
   2   7   0  197.38   33.50
  -2   7   0  176.28   37.60
  -2   7   0  164.68   34.40
   2   7   0  176.98   29.20
  -3  -7   0  343.77   49.20
   3  -7   0  381.06   49.90
  -3  -7   0  397.16   49.20
  -3  -7   0  382.36   43.30
   3  -7   0  408.96   42.40
  -3  -7   0  404.16   42.90
   3  -7   0  366.36   48.00
   3  -7   0  461.05   51.79
  -3  -7   0  239.48   41.70
   3   7   0  451.85   43.00
  -3   7   0  368.26   46.90
  -3   7   0  427.56   48.40
   3   7   0  376.96   40.10
  -3   7   0  395.76   45.10
  -3   7   0  422.36   48.30
  -3   7   0  352.46   41.60
   4  -7   0  347.17   53.79
  -4  -7   0  438.26   54.29
  -4  -7   0  411.36   47.40
   4  -7   0  467.85   47.50
   4  -7   0  501.45   56.69
   4  -7   0  520.75   57.09
  -4  -7   0  434.96   51.99
   4   7   0  495.15   48.30
  -4   7   0  433.86   52.79
   4   7   0  447.76   41.00
   4   7   0  446.06   46.00
  -4   7   0  388.66   46.30
   5  -7   0  255.07   54.49
  -5  -7   0  233.68   52.09
  -5  -7   0  175.28   45.30
  -5  -7   0  137.49   57.39
   5  -7   0  256.97   52.29
  -5   7   0  189.38   50.99
   5   7   0  164.38   31.20
  -5   7   0  233.08   44.60
   5   7   0  180.58   27.70
   5   7   0  292.67   29.70
   6  -7   0  805.62   91.79
   6  -7   0  672.13   78.19
  -6  -7   0  535.65   62.29
  -6  -7   0  746.63   81.59
  -6   7   0  730.53   79.89
   6   7   0  750.82   46.60
  -6   7   0  767.72   92.49
   7  -7   0    4.30   55.79
  -7  -7   0  -50.39   56.69
  -7  -7   0   -0.10   55.29
  -7   7   0   13.30   57.39
  -7   7   0  -16.60   58.89
  -8  -7   0  457.25   83.89
   8  -7   0  497.55   81.89
   8  -7   0  294.47   78.99
  -8   7   0  545.45   85.19
  -8   7   0  441.66   74.69
   0  -8   0 6766.42  220.18
   0  -8   0 6793.72  221.68
   0  -8   0 7051.69  219.48
   0  -8   0 6636.84  219.28
   0   8   0 6817.92  207.58
   0   8   0 7038.60  216.08
   0   8   0 6736.73  220.98
   0   8   0 6702.83  217.68
  -1  -8   0   34.60   31.60
  -1  -8   0  -67.69   30.80
   1  -8   0   94.59   30.40
   1  -8   0  -37.50   35.20
   1  -8   0  -68.69   30.90
  -1  -8   0  -16.90   30.90
  -1  -8   0   22.10   31.70
   1  -8   0    1.10   32.90
   1   8   0   23.00   26.80
   1   8   0    9.60   28.30
  -1   8   0   -3.60   26.20
  -1   8   0  -11.20   30.20
   1   8   0    3.30   15.70
  -1   8   0   37.80   23.20
   1   8   0  -33.70   29.30
  -1   8   0  -45.90   31.30
  -1   8   0  -19.90   34.10
   1   8   0    6.10   28.20
  -1   8   0  -47.30   31.10
  -2  -8   0 1969.00   78.39
   2  -8   0 1922.81   93.39
  -2  -8   0 1925.01   87.19
  -2  -8   0 1952.00   84.89
  -2  -8   0 1863.71   97.39
   2  -8   0 1931.01   98.89
  -2  -8   0 1881.91   92.79
   2  -8   0 1903.11   86.69
  -2  -8   0 1883.91   92.29
  -2   8   0 1943.41   87.69
   2   8   0 1934.91   80.79
   2   8   0 1911.41   85.89
  -2   8   0 1778.72   94.09
   2   8   0 1749.22   84.79
  -2   8   0 1805.12   77.89
  -2   8   0 1806.62   86.59
  -2   8   0 1776.32   91.49
   3  -8   0   84.59   41.50
   3  -8   0  123.19   35.80
  -3  -8   0  145.29   43.10
  -3  -8   0  141.69   37.20
   3  -8   0  102.99   44.90
  -3  -8   0  123.19   34.20
  -3   8   0   83.79   35.50
  -3   8   0  192.68   44.90
  -3   8   0  110.69   30.70
   3   8   0  123.09   30.50
   3   8   0  171.98   31.50
   3   8   0  111.79   34.00
   4  -8   0   61.49   45.50
  -4  -8   0   40.10   40.60
  -4  -8   0   15.00   39.20
   4  -8   0   14.70   41.70
  -4  -8   0   12.00   35.70
  -4   8   0   36.90   41.80
   4   8   0   30.40   30.10
  -4   8   0   38.30   38.20
   4   8   0   40.50   28.30
   5  -8   0   85.99   53.29
   5  -8   0   72.39   52.89
  -5  -8   0   71.79   42.70
  -5  -8   0   64.89   51.89
  -5   8   0  -36.10   35.80
   5   8   0  132.79   28.20
  -5   8   0   80.19   53.19
   5   8   0   53.29   29.70
   6  -8   0   71.09   60.69
   6  -8   0  -20.50   64.69
  -6  -8   0    7.20   48.70
  -6   8   0   36.60   54.29
   7  -8   0  340.37   76.29
  -7  -8   0  150.78   71.19
  -7  -8   0  206.28   69.19
  -7   8   0  134.89   72.29
  -7   8   0  167.18   68.09
   8  -8   0  -10.60   68.59
   8  -8   0  145.99   79.49
  -8  -8   0  223.28   78.89
  -8   8   0  228.48   70.29
  -8   8   0  335.57   87.39
   0  -9   0   10.30   38.30
   0  -9   0   -8.40   37.30
   0  -9   0   39.00   35.20
   0   9   0   54.49   34.60
   0   9   0    0.00   37.00
   0   9   0   14.60   24.70
   0   9   0    2.50   25.60
  -1  -9   0  617.94   62.69
   1  -9   0  554.24   67.99
   1  -9   0  585.74   69.49
  -1  -9   0  618.64   62.29
   1  -9   0  498.85   57.99
   1   9   0  495.65   38.00
   1   9   0  624.84   72.49
   1   9   0  581.44   58.79
  -1   9   0  489.65   52.29
  -1   9   0  529.35   62.59
   1   9   0  610.54   56.59
  -1   9   0  687.13   57.79
   1   9   0  606.94   55.49
  -1   9   0  537.25   56.59
  -2  -9   0  113.29   38.50
  -2  -9   0  118.89   37.80
   2  -9   0  137.19   41.80
   2  -9   0   37.10   44.40
  -2  -9   0   90.39   40.90
  -2  -9   0  151.68   29.70
  -2   9   0  127.59   30.80
   2   9   0  161.38   40.00
   2   9   0  182.78   34.80
  -2   9   0  147.59   44.90
  -2   9   0  155.48   40.60
   2   9   0  150.78   39.80
  -2   9   0   56.49   42.30
   3  -9   0  760.72   77.59
  -3  -9   0  879.21   77.69
  -3  -9   0  789.52   69.39
  -3  -9   0  843.72   65.29
   3  -9   0  792.32   83.09
   3   9   0  844.32   65.29
  -3   9   0  820.32   76.79
   3   9   0  848.82   60.79
  -3   9   0  810.62   60.89
   3   9   0  873.41   68.99
  -3   9   0  630.54   70.49
  -4  -9   0  -67.99   45.30
  -4  -9   0   41.50   43.00
   4  -9   0   12.70   50.29
   4  -9   0  -36.00   49.30
  -4  -9   0   65.19   47.30
  -4   9   0  -11.30   38.90
  -4   9   0   11.20   34.80
   4   9   0  -12.00   32.80
  -4   9   0   46.20   51.09
   4   9   0   21.30   36.80
   5  -9   0  228.88   68.49
  -5  -9   0  235.68   62.99
   5  -9   0  178.58   68.59
  -5  -9   0  118.99   53.59
  -5   9   0   96.79   48.80
  -5   9   0  198.58   65.39
   5   9   0  173.48   33.50
   6  -9   0   41.60   62.19
  -6  -9   0   99.19   62.19
  -6  -9   0  -55.69   59.49
  -6   9   0   11.80   62.19
  -6   9   0  -58.29   60.99
   7  -9   0  171.58   73.89
   7  -9   0   78.09   68.29
  -7  -9   0   16.30   71.29
  -7  -9   0  -58.39   63.49
  -7   9   0  -65.09   69.59
  -7   9   0    0.90   62.99
   0 -10   0  124.29   46.70
   0 -10   0  262.47   50.99
   0  10   0  141.69   33.30
   0  10   0  146.99   43.80
   0  10   0  168.78   48.40
  -1 -10   0  101.09   42.90
   1 -10   0  138.49   46.20
   1 -10   0  155.28   50.89
  -1 -10   0  153.88   48.00
  -1 -10   0  113.29   43.10
  -1  10   0    3.10   45.00
   1  10   0  115.99   42.20
  -1  10   0   95.69   40.00
  -1  10   0   94.39   43.00
   1  10   0   89.69   27.10
  -1  10   0  151.88   44.00
   1  10   0  178.08   44.30
   2 -10   0  230.28   57.39
  -2 -10   0  254.17   53.39
  -2 -10   0  138.09   44.70
  -2 -10   0  257.77   48.60
   2 -10   0  184.18   53.09
  -2  10   0  268.27   51.69
   2  10   0  247.58   44.70
   2  10   0  215.18   46.50
  -2  10   0  218.38   35.10
  -2  10   0  253.47   57.49
  -3 -10   0 1352.46   79.49
   3 -10   0 1174.28  106.19
  -3 -10   0 1259.27   97.49
   3 -10   0 1199.58  100.49
  -3 -10   0 1223.08   89.69
  -3  10   0 1160.48   72.09
  -3  10   0 1204.08   96.79
   3  10   0 1383.96   81.49
  -3  10   0 1105.29   83.09
  -4 -10   0  141.29   55.09
   4 -10   0   94.29   62.39
   4 -10   0  115.59   67.19
  -4 -10   0   89.29   57.99
  -4  10   0  140.69   41.70
   4  10   0  175.88   40.80
  -4  10   0   51.79   61.99
  -4  10   0  118.59   52.49
  -5 -10   0  816.32   99.79
   5 -10   0  869.61  101.19
   5 -10   0  578.44   87.89
  -5 -10   0  888.61   99.59
  -5  10   0  866.01   96.39
   5  10   0  771.52   54.29
  -5  10   0  730.33   87.09
  -5  10   0  864.01   82.89
  -6 -10   0   85.99   78.99
   6 -10   0  -33.00   63.19
   6 -10   0   73.79   70.39
  -6 -10   0  -97.69   58.69
  -6  10   0    0.10   65.19
  -6  10   0   66.29   75.49
  -6  10   0  -16.80   57.29
  -7 -10   0  186.48   79.69
   7 -10   0  251.47   85.89
   7 -10   0  516.45   93.99
  -7 -10   0  465.85   87.99
  -7  10   0  600.94   96.49
  -7  10   0  405.36   78.19
   0 -11   0   43.80   52.89
   0 -11   0  -50.39   49.00
   0  11   0    3.60   47.80
   0  11   0  -79.29   35.30
  -1 -11   0   23.20   48.00
   1 -11   0   13.10   54.19
  -1 -11   0   39.80   48.90
   1 -11   0  -40.70   58.29
  -1 -11   0   35.30   51.09
   1  11   0  -10.60   43.60
  -1  11   0   -0.50   30.60
  -1  11   0   20.60   50.79
  -1  11   0  -34.50   46.60
   1  11   0  148.99   53.49
  -2 -11   0  -39.40   48.10
  -2 -11   0   49.99   56.49
   2 -11   0   -6.60   55.89
   2 -11   0   70.39   58.59
  -2  11   0  -12.30   59.29
  -2  11   0  -80.09   48.10
  -2  11   0   40.20   32.20
   2  11   0   77.09   45.00
  -3 -11   0  -49.20   53.79
  -3  11   0   12.70   60.49
  -3  11   0   -5.30   55.79
   3  11   0  -16.60   44.00
  -3  11   0   -3.40   34.80
   4 -11   0  298.67   77.49
  -4 -11   0  144.59   60.99
  -4 -11   0  181.08   68.29
   4 -11   0  318.17   71.79
   4  11   0  346.77   46.50
  -4  11   0  282.67   72.09
  -4  11   0  308.57   69.99
  -4  11   0  204.18   47.50
  -5 -11   0   65.29   66.29
  -5 -11   0  190.18   68.99
   5 -11   0  -10.70   64.39
   5 -11   0  -10.10   68.69
  -5  11   0  -13.50   51.49
  -5  11   0   76.59   57.49
  -5  11   0   43.30   65.79
   6 -11   0  341.67   86.29
  -6 -11   0  307.17   81.19
  -6 -11   0  400.26   76.49
   6 -11   0  348.67   90.89
  -6  11   0  248.98   81.59
  -6  11   0  330.17   72.69
  -6  11   0  402.36   91.89
   0 -12   0 1414.86  114.59
   0  12   0 1346.47  118.59
   1 -12   0   97.09   68.89
   1 -12   0  177.18   77.79
  -1 -12   0   83.59   65.49
  -1 -12   0  116.09   72.29
   1  12   0  206.98   59.89
  -1  12   0   47.70   64.49
   2 -12   0  840.42   90.59
   2 -12   0  869.51  107.39
  -2 -12   0  972.50   98.69
  -2  12   0  837.62  109.49
  -2  12   0  796.52   65.49
  -2  12   0  945.01  109.39
   2  12   0  872.81   91.69
  -3 -12   0  128.29   78.69
   3 -12   0  105.79   72.19
   3 -12   0   70.19   62.29
  -3 -12   0  195.88   67.89
   3  12   0   95.89   51.39
  -3  12   0  109.29   69.09
  -3  12   0   55.09   42.10
   4 -12   0   28.00   70.19
   4 -12   0  -57.49   73.59
  -4 -12   0  136.69   66.59
  -4 -12   0  -46.10   63.09
  -4  12   0   45.10   65.69
  -4  12   0   88.19   67.59
  -4  12   0  -22.50   48.40
   5 -12   0  234.38   79.89
  -5 -12   0  199.98   78.89
   5 -12   0  303.67   92.49
  -5 -12   0  139.69   68.69
  -5  12   0  259.37   75.69
  -5  12   0  197.38   82.69
   0 -13   0  -34.10   53.79
   0 -13   0  -52.29   58.79
   0 -13   0   69.49   66.19
   1 -13   0  516.55   83.69
  -1 -13   0  493.25   80.39
  -1 -13   0  558.54   78.49
   1 -13   0  754.22   94.89
   1  13   0  827.62   93.19
  -1  13   0  656.93   78.49
  -2 -13   0   40.40   64.79
  -2 -13   0  108.59   65.39
   2 -13   0  116.89   67.09
   2 -13   0 -146.39   61.79
  -2  13   0  -25.70   67.19
   2  13   0   87.19   72.79
   3 -13   0   34.10   79.79
   3 -13   0  204.98   77.09
  -3 -13   0  189.28   69.69
  -3 -13   0  133.99   66.49
  -3  13   0   23.70   68.29
  -3  13   0  199.98   70.99
  -4 -13   0  185.38   77.19
   4 -13   0   88.49   85.09
   4 -13   0  149.69   84.59
  -4 -13   0  147.89   76.29
  -4  13   0  135.39   84.39
  -4  13   0   59.19   71.29
   0 -14   0   85.69   78.99
   0 -14   0   43.10   67.19
   0  14   0  317.77   84.09
   1 -14   0  141.19   79.39
   1 -14   0  206.08   86.69
   1 -14   0  323.27   72.89
  -1 -14   0   -2.10   77.29
  -1 -14   0   74.09   73.39
  -1  14   0   98.59   78.89
   1  14   0  137.79   73.09
   2 -14   0  283.47   87.89
  -2 -14   0  441.86   87.09
   2 -14   0  412.06   96.99
  -2 -14   0  394.86   84.29
  -2  14   0  312.47   92.19
  10   0  -1  -60.29   72.79
 -10   0   1   65.39   76.39
 -10   0   1  -24.10   70.09
  -9   0   1  963.30  104.39
  -9   0   1  811.42   97.59
   8   0  -1   21.90   54.29
   8   0  -1  -10.40   41.80
  -8   0   1   47.10   50.09
  -8   0   1  -20.20   47.20
   7   0  -1 1920.01   88.09
  -7   0   1 1880.71   96.89
   7   0  -1 1795.12   91.39
   7   0  -1 1899.41   63.69
  -7   0   1 1874.91   97.09
   6   0  -1   62.89   31.80
   6   0  -1  -11.70   14.40
   6   0  -1   -3.80   28.00
  -6   0   1   -6.70   59.99
  -6   0   1   70.39   33.60
   6   0  -1  -15.60   31.20
  -6   0   1   19.40   36.60
  -6   0   1    1.40   31.00
   5   0  -1  927.31   49.90
   5   0  -1  759.02   58.79
  -5   0   1  767.52   56.69
   5   0  -1  801.72   51.39
   5   0  -1  732.83   55.59
  -5   0   1  753.02   54.49
  -5   0   1  871.41   64.69
  -5   0   1  803.22   54.69
  -5   0   1  924.41   59.99
   5   0  -1  810.62   38.50
   4   0  -1    1.40   18.90
   4   0  -1   14.20   24.50
  -4   0   1  -33.60   20.10
  -4   0   1    8.00   22.20
   4   0  -1   -3.50   12.80
  -4   0   1   27.70   22.10
  -4   0   1   12.20   21.60
   4   0  -1   11.60   19.00
   4   0  -1   10.70   27.20
  -3   0   1  469.05   34.80
  -3   0   1  462.45   39.80
   3   0  -1  504.35   26.50
   3   0  -1  504.85   36.10
   3   0  -1  528.55   32.00
   3   0  -1  426.46   45.70
  -3   0   1  476.55   41.80
   3   0  -1  566.64   32.20
   2   0  -1    4.50   13.30
   2   0  -1  -14.90   15.60
   2   0  -1   12.20   13.40
  -2   0   1    8.60   15.70
   2   0  -1   11.10   15.90
  -2   0   1   17.20   13.50
  -2   0   1  -27.20   15.00
   2   0  -1  -13.50   11.30
  -2   0   1   -4.30   17.10
  -2   0   1   16.20   14.20
   1   0  -1  879.91   34.10
  -1   0   1  865.91   33.90
   1   0  -1  910.21   33.10
  -1   0   1  927.41   32.40
  -1   0   1  830.42   30.50
   1   0  -1  840.12   33.30
  -1   0   1  913.11   33.20
  -1   0   1  928.41   30.50
   1   0  -1  865.81   30.70
   0   0  -1    3.10    2.30
   0   0  -1    5.10    2.50
   0   0   1    6.20    5.20
   0   0  -1    6.00    4.90
   0   0  -1    2.40    3.40
   0   0   1    1.80    3.30
  -1   0  -1 4168.18  119.09
  -1   0  -1 4283.57  120.19
   1   0   1 4147.49  117.69
   1   0   1 4349.46  120.29
  -1   0  -1 4206.88  118.89
  -2   0  -1   12.80   12.30
  -2   0  -1    8.60   11.50
   2   0   1    4.70    9.50
   2   0   1   11.90    8.90
  -2   0  -1   10.00    7.70
   2   0   1    9.40   10.70
  -2   0  -1    2.50   10.80
  -3   0  -1 5841.92  173.98
  -3   0  -1 5893.51  166.98
  -3   0  -1 5598.24  174.28
   3   0   1 5872.61  170.28
   3   0   1 5924.01  174.28
  -3   0  -1 6042.80  175.58
   3   0   1 5908.71  171.28
  -3   0  -1 5980.50  177.48
   4   0   1    8.70   18.50
  -4   0  -1    8.30   21.10
   4   0   1  -25.70   13.30
  -4   0  -1    7.80   21.20
  -4   0  -1   20.20   21.90
  -4   0  -1  -14.10    9.50
   4   0   1  -27.40   16.00
  -4   0  -1    8.50   19.90
  -5   0  -1 1252.27   66.29
   5   0   1 1246.38   57.69
   5   0   1 1141.09   51.89
  -5   0  -1 1173.98   65.09
  -5   0  -1 1106.29   62.09
  -5   0  -1 1212.68   65.69
   5   0   1 1342.17   60.29
  -6   0  -1   -0.70   61.39
   6   0   1   14.70   21.40
  -6   0  -1  -12.80   29.80
   6   0   1  -22.60   24.10
   6   0   1  -13.90   28.80
  -6   0  -1   42.70   33.90
  -6   0  -1  -62.09   33.80
  -7   0  -1  825.92   73.69
  -7   0  -1  827.12   76.89
  -8   0  -1  -64.89   47.70
   8   0   1   13.40   30.50
  -8   0  -1  -10.70   51.99
  -8   0  -1  -32.00   60.69
  -9   0  -1   84.59   62.99
  -9   0  -1  138.39   68.39
  -9   0  -1  -40.20   66.09
 -10  -1   1  475.15   84.69
 -10  -1   1  250.27   84.09
  10  -1  -1  122.79   99.59
 -10   1   1  627.04   91.99
 -10   1   1  497.75   91.39
  -9  -1   1  -91.19   59.79
   9  -1  -1  149.59   66.99
  -9  -1   1  -90.69   55.79
  -9   1   1   51.69   63.39
   9   1  -1   21.30   52.99
  -9   1   1   45.80   56.39
  -9   1   1  -49.00   62.29
   8  -1  -1  369.66   59.29
   8  -1  -1  292.77   55.69
  -8  -1   1  212.98   58.09
  -8  -1   1  203.48   59.69
  -8   1   1  138.99   54.79
   8   1  -1  149.09   45.80
  -8   1   1  257.97   59.59
  -8   1   1  168.48   56.99
  -7  -1   1  479.35   59.59
   7  -1  -1  626.44   58.69
   7  -1  -1  461.75   44.30
  -7  -1   1  610.34   71.29
   7  -1  -1  578.94   68.99
  -7  -1   1  464.45   54.89
  -7   1   1  460.35   55.99
   7   1  -1  485.35   52.49
  -7   1   1  596.04   68.39
   7   1  -1  555.94   58.09
   6  -1  -1  316.17   40.40
   6  -1  -1  348.57   40.30
   6  -1  -1  339.77   39.60
   6  -1  -1  356.76   45.90
  -6  -1   1  317.27   43.50
  -6  -1   1  337.27   41.60
  -6  -1   1  392.96   45.30
  -6   1   1  342.17   48.30
   6   1  -1  388.26   45.80
   6   1  -1  341.47   19.50
  -6   1   1  405.36   45.20
   6   1  -1  369.46   44.00
  -6   1   1  301.97   44.40
   6   1  -1  426.96   48.90
  -5  -1   1  146.89   31.20
   5  -1  -1  134.59   35.40
  -5  -1   1  127.79   29.30
   5  -1  -1  171.18   28.70
  -5  -1   1   89.29   29.10
   5  -1  -1  138.99   33.80
   5  -1  -1  145.09   29.50
  -5  -1   1   82.59   36.50
  -5  -1   1  119.89   31.20
   5  -1  -1  142.69   23.50
  -5   1   1  131.69   31.80
   5   1  -1  115.99   29.60
   5   1  -1  115.49   14.20
   5   1  -1  108.79   30.50
  -5   1   1  125.09   31.80
  -5   1   1  124.19   28.80
   5   1  -1  137.39   27.90
  -5   1   1  145.19   31.50
   5   1  -1  175.98   29.90
  -4  -1   1   46.40   24.50
  -4  -1   1   54.19   24.50
   4  -1  -1   13.20   25.00
   4  -1  -1   39.50   25.50
  -4  -1   1   56.99   27.80
   4  -1  -1   42.80   17.30
  -4  -1   1   11.90   21.30
  -4  -1   1   33.10   23.30
   4  -1  -1   60.59   21.40
  -4   1   1   66.49   24.40
  -4   1   1   63.09   25.00
  -4   1   1   38.00   22.00
   4   1  -1   29.40   11.50
   4   1  -1   46.30   23.90
   4   1  -1   18.60   16.50
   4   1  -1   54.29   23.70
  -4   1   1   39.00   23.90
   3  -1  -1  586.54   34.70
   3  -1  -1  579.54   33.50
  -3  -1   1  565.44   37.50
   3  -1  -1  609.74   33.30
   3  -1  -1  631.64   42.60
   3  -1  -1  539.45   39.80
  -3  -1   1  614.24   36.40
  -3   1   1  542.75   36.50
   3   1  -1  535.35   31.70
  -3   1   1  607.94   31.50
  -3   1   1  503.85   35.20
  -3   1   1  627.84   43.60
  -3   1   1  616.84   45.30
   3   1  -1  610.34   37.20
   2  -1  -1 1917.31   63.99
   2  -1  -1 1872.71   68.99
  -2  -1   1 1815.42   64.09
  -2  -1   1 1884.21   64.09
  -2  -1   1 1968.00   70.69
   2  -1  -1 1779.42   63.09
  -2  -1   1 1885.41   64.59
  -2  -1   1 1994.60   67.39
   2  -1  -1 1798.62   66.29
   2  -1  -1 1957.30   63.79
  -2   1   1 1906.21   63.49
  -2   1   1 1840.52   66.39
   2   1  -1 1922.11   63.19
  -2   1   1 1853.61   62.99
   2   1  -1 1820.92   66.59
  -2   1   1 2038.40   68.69
   2   1  -1 1877.51   64.89
  -2   1   1 1796.72   63.79
   2   1  -1 2072.49   64.99
   1  -1  -1  757.02   30.60
  -1  -1   1  767.42   29.40
  -1  -1   1  781.22   32.20
   1  -1  -1  753.12   32.60
   1  -1  -1  737.63   28.50
   1  -1  -1  750.42   31.10
  -1  -1   1  736.13   28.40
  -1  -1   1  718.73   33.00
  -1  -1   1  715.93   28.60
  -1   1   1  776.42   31.20
   1   1  -1  773.02   32.00
   1   1  -1  768.22   28.60
  -1   1   1  782.62   32.40
   1   1  -1  740.93   29.30
   1   1  -1  733.03   29.00
   1   1  -1  730.53   33.70
  -1   1   1  777.42   28.70
  -1   1   1  733.63   30.40
  -1   1   1  708.43   24.70
   0  -1  -1  159.28   12.80
   0  -1   1  174.28   14.20
   0  -1  -1  161.88   11.80
   0  -1  -1  141.29    7.90
   0  -1   1  160.68   12.80
   0  -1   1  147.19    8.10
   0  -1   1  156.68   11.80
   0  -1  -1  152.08    7.80
   0  -1   1  157.48   12.90
   0   1  -1  166.58   14.00
   0   1   1  168.38   13.20
   0   1  -1  166.88   12.10
   0   1  -1  176.88   13.10
   0   1  -1  150.28   12.80
   0   1   1  158.18   12.00
   1  -1   1 1457.75   47.80
  -1  -1  -1 1488.05   42.80
  -1  -1  -1 1486.95   49.40
   1  -1   1 1483.65   49.80
   1  -1   1 1496.85   47.60
   1  -1   1 1468.45   44.50
   1  -1   1 1474.15   48.70
  -1  -1  -1 1513.55   42.90
  -1   1  -1 1437.66   49.90
  -1   1  -1 1434.16   48.30
  -1   1  -1 1545.75   49.00
  -1   1  -1 1511.75   48.40
  -1   1  -1 1462.25   44.70
  -2  -1  -1  494.65   25.10
  -2  -1  -1  463.55   29.70
   2  -1   1  453.95   26.50
  -2  -1  -1  493.65   24.20
  -2  -1  -1  473.55   14.80
  -2  -1  -1  490.95   26.30
   2  -1   1  477.55   24.70
   2  -1   1  491.25   23.90
   2  -1   1  452.05   24.70
  -2   1  -1  448.36   24.70
  -2   1  -1  466.65   27.90
   2   1   1  481.15   26.90
   2   1   1  483.95   18.60
  -2   1  -1  411.16   30.70
  -2   1  -1  459.65   24.90
   2   1   1  482.45   19.20
  -2   1  -1  481.55   28.40
   3  -1   1  777.82   36.30
  -3  -1  -1  700.33   36.70
   3  -1   1  724.63   33.00
  -3  -1  -1  681.93   41.50
  -3  -1  -1  765.82   37.70
   3  -1   1  745.03   37.40
  -3   1  -1  728.63   37.90
  -3   1  -1  764.82   36.30
  -3   1  -1  827.32   43.80
  -3   1  -1  724.43   33.10
   3   1   1  758.02   41.50
   3   1   1  776.92   30.20
   3   1   1  716.13   31.30
   4  -1   1 1377.06   53.79
  -4  -1  -1 1156.98   55.89
   4  -1   1 1210.18   48.20
  -4  -1  -1 1363.66   59.09
  -4  -1  -1 1285.17   58.59
   4  -1   1 1310.17   54.09
  -4  -1  -1 1290.57   61.39
   4   1   1 1287.37   47.80
  -4   1  -1 1193.38   57.19
  -4   1  -1 1222.28   64.19
  -4   1  -1 1329.47   64.29
   4   1   1 1285.37   56.59
  -4   1  -1 1296.57   48.90
  -4   1  -1 1269.97   65.99
   4   1   1 1158.98   51.59
  -5  -1  -1  113.39   29.10
  -5  -1  -1  153.68   31.70
   5  -1   1  117.39   25.60
   5  -1   1  133.19   29.10
  -5  -1  -1  128.59   30.60
  -5  -1  -1  136.29   32.10
  -5   1  -1  165.88   34.10
   5   1   1  155.48   21.10
  -5   1  -1  131.79   28.30
  -5   1  -1  134.49   31.70
  -5   1  -1  108.89   18.70
  -5   1  -1  121.89   33.00
   5   1   1   83.09   27.60
  -6  -1  -1 1785.02   89.29
   6  -1   1 1711.63   74.39
   6  -1   1 1731.23   82.49
  -6  -1  -1 1858.61   91.69
  -6  -1  -1 1836.82   87.39
  -6  -1  -1 1844.22   92.39
   6  -1   1 1776.72   79.29
  -6   1  -1 1896.31   90.79
   6   1   1 1903.31   72.49
   6   1   1 1915.31   84.49
  -6   1  -1 1705.43   94.79
  -6   1  -1 1747.73   94.09
  -6   1  -1 1845.02   84.19
   6   1   1 1924.01   69.09
  -7  -1  -1   21.40   49.20
  -7  -1  -1   98.89   40.90
   7  -1   1   83.29   31.20
  -7  -1  -1   59.49   41.50
   7  -1   1   93.09   34.30
   7   1   1   38.50   24.80
   7   1   1   51.59   24.00
  -7   1  -1   15.40   41.10
  -7   1  -1   46.90   48.60
  -7   1  -1  125.99   40.20
  -8  -1  -1  404.16   66.39
  -8  -1  -1  419.06   65.49
   8  -1   1  278.97   44.10
  -8   1  -1  295.87   66.89
  -8   1  -1  305.57   69.29
  -8   1  -1  391.86   60.39
   8   1   1  273.07   35.00
  -9  -1  -1  534.35   98.09
  -9  -1  -1  466.45   70.69
  -9  -1  -1  642.74   86.29
  -9   1  -1  542.55  129.99
  -9   1  -1  621.94   82.39
  -9   1  -1  478.55   80.59
 -10  -2   1  -67.69   78.09
 -10  -2   1   58.19   77.09
  10  -2  -1   83.89   72.39
 -10   2   1  130.59   86.09
 -10   2   1   26.20   75.19
  -9  -2   1   78.69   63.79
  -9  -2   1   40.20   63.39
   9  -2  -1  102.89   68.59
  -9   2   1  -32.50   54.89
  -9   2   1  105.29   65.49
   9   2  -1  -20.00   44.90
  -8  -2   1  154.78   56.09
   8  -2  -1  180.48   55.69
  -8  -2   1  200.28   63.69
   8  -2  -1  101.29   31.10
   8   2  -1  138.29   45.70
  -8   2   1  111.69   60.29
  -8   2   1  170.68   56.59
  -7  -2   1  156.58   43.70
  -7  -2   1   55.69   39.70
   7  -2  -1  237.48   49.60
   7  -2  -1  117.99   29.40
  -7  -2   1  179.68   44.70
   7  -2  -1   88.49   45.00
  -7   2   1  106.39   44.60
  -7   2   1  164.08   43.10
  -7   2   1  119.69   42.60
   7   2  -1  201.58   42.70
   7   2  -1   92.79   34.20
   6  -2  -1  360.36   41.80
  -6  -2   1  320.97   42.80
   6  -2  -1  318.67   41.00
  -6  -2   1  378.46   43.00
   6  -2  -1  351.96   42.00
  -6  -2   1  329.27   44.30
   6  -2  -1  366.96   50.29
  -6   2   1  384.06   47.70
   6   2  -1  425.76   46.00
   6   2  -1  370.46   43.90
  -6   2   1  321.67   55.19
  -6   2   1  384.26   45.00
  -6   2   1  360.76   45.10
  -5  -2   1  -11.30   34.20
  -5  -2   1    9.80   27.80
   5  -2  -1   -7.70   30.70
   5  -2  -1  -12.50   31.60
   5  -2  -1   28.70   24.10
  -5  -2   1   14.00   30.30
  -5  -2   1  -20.60   23.00
  -5   2   1   -8.30   28.10
   5   2  -1  -39.60   22.20
  -5   2   1  -18.00   26.70
   5   2  -1   -7.30    7.00
   5   2  -1   -1.60   23.20
  -5   2   1   52.99   30.90
  -5   2   1  -19.70   20.60
  -5   2   1  -35.40   25.70
   5   2  -1    2.40   20.90
  -5   2   1   -3.70   28.80
   5   2  -1  -17.20   25.70
   4  -2  -1 8510.85  245.78
  -4  -2   1 8599.64  250.87
  -4  -2   1 7793.52  247.08
   4  -2  -1 8115.89  243.88
  -4  -2   1 8347.67  256.67
   4  -2  -1 8447.25  245.48
  -4  -2   1 7957.80  246.08
   4  -2  -1 8428.96  250.07
  -4  -2   1 8226.08  243.68
   4  -2  -1 7801.22  251.87
  -4   2   1 8271.07  246.68
   4   2  -1 7985.00  246.58
  -4   2   1 8436.76  248.38
  -4   2   1 8308.27  250.07
   4   2  -1 8059.59  232.08
  -4   2   1 8252.07  245.08
  -4   2   1 8353.86  252.37
   4   2  -1 8294.97  246.48
  -4   2   1 7995.70  249.28
  -3  -2   1 1079.49   51.39
  -3  -2   1 1091.29   45.40
   3  -2  -1 1078.89   49.50
   3  -2  -1 1074.59   52.99
  -3  -2   1  960.20   54.49
   3  -2  -1 1172.68   59.19
  -3  -2   1 1085.99   56.99
   3  -2  -1 1102.19   63.89
   3  -2  -1 1043.30   48.60
  -3   2   1 1061.19   46.50
  -3   2   1 1061.59   50.79
   3   2  -1 1101.69   45.60
   3   2  -1 1095.69   51.99
  -3   2   1 1025.80   51.49
   3   2  -1 1086.89   45.30
   3   2  -1 1110.49   49.10
  -3   2   1 1087.29   53.89
  -3   2   1 1012.70   45.80
  -2  -2   1 9960.70  275.67
   2  -2  -1 9960.20  273.27
  -2  -2   1 9316.77  269.07
  -2  -2   1 9649.83  278.07
   2  -2  -1 9339.57  274.77
   2  -2  -1 9475.05  272.57
  -2  -2   1 9569.24  272.67
   2  -2  -1 9632.04  276.67
  -2  -2   1 9620.54  273.37
   2  -2  -1 9210.58  273.97
  -2   2   1 9034.20  268.97
   2   2  -1 9336.27  274.77
   2   2  -1 9899.21  271.67
   2   2  -1 9619.44  272.97
   2   2  -1 9419.96  278.17
  -2   2   1 9352.66  275.87
  -2   2   1 8966.00  272.27
  -2   2   1 9999.00  274.87
  -2   2   1 9904.01  274.27
   2   2  -1 9003.40  269.37
   1  -2  -1   67.79   13.70
   1  -2  -1   60.09   14.80
   1  -2  -1   80.59   10.10
   1  -2  -1   69.89   16.80
  -1  -2   1   67.19   13.50
  -1  -2   1   54.29   12.60
  -1  -2   1   86.09   17.20
   1  -2  -1   72.89   16.20
  -1  -2   1   88.39   16.70
  -1  -2   1   61.09   16.00
  -1   2   1   68.39   15.80
  -1   2   1   61.39   13.70
  -1   2   1   62.39   10.10
   1   2  -1   51.99   16.60
  -1   2   1   74.59   14.20
   1   2  -1   82.89   13.90
  -1   2   1   73.09   15.50
   1   2  -1   73.29   12.40
   1   2  -1   93.59   17.90
   1   2  -1   64.09   13.10
   0  -2  -1 1755.42   54.99
   0  -2   1 1792.52   57.99
   0  -2  -1 1770.02   54.59
   0  -2   1 1718.43   57.89
   0  -2   1 1685.13   58.29
   0  -2   1 1717.43   57.59
   0  -2   1 1806.52   58.59
   0  -2  -1 1829.02   54.99
   0  -2  -1 1763.12   54.49
   0  -2  -1 1687.63   57.79
   0   2  -1 1667.13   57.69
   0   2   1 1730.43   53.89
   0   2  -1 1726.13   58.79
   0   2   1 1725.93   54.29
   0   2  -1 1756.72   57.59
   0   2  -1 1680.93   57.99
   0   2   1 1811.82   58.09
   0   2  -1 1798.02   58.19
   0   2   1 1739.63   53.49
   1  -2   1  190.58   20.60
  -1  -2  -1  158.58   16.50
  -1  -2  -1  142.49   15.90
   1  -2   1  158.28   17.70
   1  -2   1  145.69   17.10
   1  -2   1  166.78   18.00
  -1  -2  -1  156.68   14.20
  -1   2  -1  210.38   22.50
  -1   2  -1  153.68   18.30
   1   2   1  163.58    8.90
   1   2   1  163.38   16.80
  -1   2  -1  174.48   18.80
  -1   2  -1  170.78   21.10
  -2  -2  -1  160.08   21.00
   2  -2   1  159.18   18.80
   2  -2   1  168.48   18.20
  -2  -2  -1  184.18   11.40
   2  -2   1  167.98   18.60
   2  -2   1  162.98   20.30
  -2  -2  -1  169.08   15.40
   2  -2   1  181.88   20.10
  -2  -2  -1  161.08   16.60
  -2  -2  -1  166.98   18.60
  -2   2  -1  169.78   21.70
  -2   2  -1  179.78   20.40
   2   2   1  188.18   14.80
  -2   2  -1  173.68   21.00
   2   2   1  171.98   12.40
  -2   2  -1  218.88   24.50
  -3  -2  -1   46.30   16.00
  -3  -2  -1   69.29   15.30
   3  -2   1   48.90   19.80
   3  -2   1   78.19   16.40
   3  -2   1   48.40   17.30
   3  -2   1   57.09   16.50
  -3  -2  -1   54.59   16.20
   3   2   1   54.39   10.20
  -3   2  -1   77.39   16.70
  -3   2  -1   71.79   21.40
  -3   2  -1   63.09   17.20
  -3   2  -1   51.89   21.90
  -3   2  -1   64.79   19.40
  -3   2  -1   93.39   21.00
   3   2   1   71.79   18.30
   3   2   1   66.29   12.10
   4  -2   1   90.79   26.50
  -4  -2  -1   90.19   23.80
  -4  -2  -1   63.79   24.60
  -4  -2  -1  106.19   21.00
   4  -2   1  142.49   21.70
  -4  -2  -1  100.99   27.30
  -4   2  -1  123.09   21.90
  -4   2  -1   84.49   29.50
  -4   2  -1  160.48   27.80
  -4   2  -1  122.59   28.50
   4   2   1  104.19   24.90
   4   2   1   95.29   16.80
  -4   2  -1  110.09   28.20
   4   2   1  113.59   15.10
   5  -2   1   -0.50   25.70
  -5  -2  -1   17.10   27.40
  -5  -2  -1   -5.20   25.40
   5  -2   1   12.10   23.50
   5  -2   1  -16.90   19.60
  -5  -2  -1   20.40   30.30
   5   2   1  -27.80   23.60
  -5   2  -1   19.60   31.90
  -5   2  -1  -21.40   23.50
  -5   2  -1   69.09   34.20
   5   2   1    5.60   23.60
  -5   2  -1   -5.80   27.70
   5   2   1   10.90   14.70
  -5   2  -1    1.90   28.00
  -6  -2  -1  932.61   64.39
  -6  -2  -1  849.32   70.99
   6  -2   1  801.22   57.49
  -6  -2  -1 1043.10   87.79
  -6  -2  -1  822.62   63.09
   6  -2   1  873.71   62.29
   6  -2   1  908.51   60.49
  -6   2  -1  754.32   62.59
  -6   2  -1  956.50   71.09
  -6   2  -1  890.31   70.89
   6   2   1  851.61   41.60
  -7  -2  -1    9.00   42.50
   7  -2   1  -52.79   34.40
  -7  -2  -1   14.60   39.30
   7  -2   1  -12.60   34.40
  -7  -2  -1  -12.40   38.30
  -7   2  -1    2.40   39.00
   7   2   1   22.90   20.60
  -7   2  -1   61.59   48.40
  -7   2  -1  -49.90   41.80
  -8  -2  -1  403.06   67.39
  -8  -2  -1  323.37   69.79
  -8   2  -1  389.36   76.19
  -9  -2  -1   30.70  100.39
   9  -2   1  129.09   46.40
  -9  -2  -1  -84.89   57.69
  -9   2  -1   78.09   68.69
  -9   2  -1  -44.50   64.59
 -10  -3   1  152.98   81.39
 -10   3   1   90.69   78.59
  -9  -3   1   31.80   63.89
  -9  -3   1  194.68   69.49
   9   3  -1  106.69   47.50
  -9   3   1  169.68   62.49
  -9   3   1   55.99   65.59
   8  -3  -1   89.09   34.30
  -8  -3   1   95.69   61.59
   8  -3  -1  127.79   58.49
  -8   3   1   94.09   60.99
  -8   3   1   28.70   54.29
   8   3  -1  106.79   42.70
  -7  -3   1  323.87   51.89
   7  -3  -1  415.46   58.89
   7  -3  -1  361.16   41.40
  -7  -3   1  373.66   44.60
  -7  -3   1  323.57   53.99
   7   3  -1  374.46   43.00
  -7   3   1  324.27   49.10
  -7   3   1  271.87   54.79
   7   3  -1  280.57   45.50
  -6  -3   1  407.76   48.40
  -6  -3   1  317.77   48.00
   6  -3  -1  399.36   47.20
   6  -3  -1  325.47   42.50
   6  -3  -1  311.27   50.59
   6   3  -1  409.36   44.20
   6   3  -1  367.76   45.10
  -6   3   1  305.77   46.90
  -6   3   1  394.26   44.90
  -5  -3   1 1700.03   80.29
   5  -3  -1 1652.43   84.29
  -5  -3   1 1721.83   91.89
   5  -3  -1 1924.41   77.99
   5  -3  -1 1748.03   76.99
   5  -3  -1 1611.94   74.49
  -5  -3   1 1806.32   72.39
  -5  -3   1 1703.73   82.29
  -5  -3   1 1683.43   83.29
  -5   3   1 1693.53   86.99
   5   3  -1 1696.63   80.39
  -5   3   1 1802.12   77.09
   5   3  -1 1641.04   79.09
   5   3  -1 1741.63   71.69
  -5   3   1 1846.32   84.99
  -5   3   1 1594.84   80.89
  -5   3   1 1659.13   76.19
   5   3  -1 1802.92   74.09
  -4  -3   1    2.90   25.50
  -4  -3   1  -21.10   28.70
   4  -3  -1   -4.40   25.00
  -4  -3   1   18.80   17.40
   4  -3  -1    3.20   27.80
  -4  -3   1   27.10   26.60
   4  -3  -1   19.50   21.90
   4  -3  -1   12.00   30.10
   4  -3  -1   18.80   21.00
  -4  -3   1   10.40   23.70
  -4   3   1    3.00   24.70
   4   3  -1   -6.70   25.90
   4   3  -1    0.40   22.60
  -4   3   1    8.70   25.00
  -4   3   1  -50.39   19.90
  -4   3   1    5.80   21.00
   4   3  -1   -1.40   16.60
  -4   3   1   15.10   28.50
   4   3  -1   13.40   10.10
  -3  -3   1  938.71   38.90
  -3  -3   1  860.11   49.50
   3  -3  -1  904.41   49.60
   3  -3  -1  936.61   47.40
   3  -3  -1  824.42   54.39
  -3  -3   1  969.00   50.29
   3  -3  -1  893.21   51.39
  -3  -3   1  998.00   55.29
   3  -3  -1  925.71   45.70
  -3  -3   1  946.11   47.10
  -3   3   1  930.21   49.30
  -3   3   1 1045.60   54.09
  -3   3   1  929.01   48.80
  -3   3   1  824.02   43.10
   3   3  -1  924.91   52.29
   3   3  -1  927.81   36.00
   3   3  -1  880.81   39.10
   3   3  -1  943.31   42.60
  -3   3   1  937.31   47.10
   3   3  -1  943.61   47.20
  -2  -3   1  108.29   21.50
   2  -3  -1   97.39   14.90
  -2  -3   1  123.49   25.90
  -2  -3   1  140.99   20.40
   2  -3  -1  138.99   22.80
  -2  -3   1  121.39   23.20
   2  -3  -1  124.39   28.80
   2   3  -1  121.49   14.30
  -2   3   1  114.49   16.90
  -2   3   1  164.28   22.20
   2   3  -1  105.99   14.50
  -2   3   1  143.89   23.10
   2   3  -1  124.09   26.20
  -2   3   1  153.08   22.50
   2   3  -1  113.29   18.70
   2   3  -1  140.99   18.20
  -2   3   1  132.49   22.70
   2   3  -1   94.89   24.00
  -1  -3   1  720.03   36.00
  -1  -3   1  728.73   36.30
   1  -3  -1  723.93   40.40
  -1  -3   1  763.22   39.20
   1  -3  -1  688.03   36.30
  -1  -3   1  680.73   35.10
  -1  -3   1  727.83   38.10
   1  -3  -1  744.33   38.60
   1  -3  -1  686.83   30.10
   1  -3  -1  750.52   35.20
   1   3  -1  668.13   37.50
  -1   3   1  722.23   35.30
   1   3  -1  747.03   35.30
  -1   3   1  689.43   34.60
   1   3  -1  716.73   38.70
  -1   3   1  740.73   35.90
  -1   3   1  683.13   31.20
  -1   3   1  788.32   38.20
   1   3  -1  727.23   33.60
   0  -3   1   25.10   16.00
   0  -3   1   13.60   15.40
   0  -3  -1   15.40   10.70
   0  -3  -1    2.40   12.20
   0  -3   1    4.40   12.60
   0  -3  -1   20.50   15.80
   0  -3   1   23.80   15.70
   0  -3   1   -4.80   12.80
   0  -3  -1    9.50   13.20
   0  -3  -1    9.30   13.00
   0   3   1    1.70   14.60
   0   3   1    4.00    5.70
   0   3   1   17.50   12.40
   0   3  -1   14.20   12.40
   0   3   1    6.60   11.00
   0   3  -1   17.90   14.20
   0   3  -1   14.90   16.20
   0   3   1   14.70   10.50
   0   3  -1   10.40   13.80
   0   3  -1   20.00   15.60
   1  -3   1   32.00   15.50
  -1  -3  -1   26.70   11.60
   1  -3   1   35.90   18.10
   1  -3   1   19.80   15.30
  -1  -3  -1   30.00   12.80
  -1  -3  -1   27.40   13.00
  -1  -3  -1   24.30   14.10
   1  -3   1   18.70   14.50
  -1   3  -1   33.40   16.30
   1   3   1   56.69   14.10
   1   3   1   19.60   10.60
  -1   3  -1   36.10   16.10
   1   3   1   29.20    9.10
  -1   3  -1    4.80   16.80
  -1   3  -1   32.60   17.00
  -2  -3  -1  344.17   26.30
   2  -3   1  372.66   28.70
  -2  -3  -1  356.16   25.40
   2  -3   1  403.16   25.50
  -2  -3  -1  396.86   34.60
  -2  -3  -1  362.26   21.20
  -2  -3  -1  352.76   13.80
  -2  -3  -1  352.96   31.90
   2  -3   1  324.37   31.30
  -2   3  -1  376.26   31.20
  -2   3  -1  330.17   32.20
  -2   3  -1  351.36   30.70
  -2   3  -1  354.96   33.30
   2   3   1  362.66   18.00
   2   3   1  356.36   21.20
   2   3   1  332.57   19.50
   3  -3   1  261.77   28.90
  -3  -3  -1  255.97   32.10
  -3  -3  -1  269.27   27.90
   3  -3   1  249.48   27.90
  -3  -3  -1  256.97   30.80
   3  -3   1  245.48   26.60
   3  -3   1  278.87   28.60
  -3  -3  -1  279.47   21.10
  -3   3  -1  265.87   32.70
  -3   3  -1  333.57   36.20
  -3   3  -1  255.37   30.00
   3   3   1  239.78   20.00
   3   3   1  247.08   17.90
  -3   3  -1  205.98   25.50
  -3   3  -1  300.97   35.80
  -4  -3  -1  759.42   55.09
  -4  -3  -1  764.72   58.09
   4  -3   1  821.52   46.20
   4  -3   1  772.02   49.60
  -4  -3  -1  885.41   42.30
   4  -3   1  874.81   46.20
  -4  -3  -1  838.42   47.40
  -4  -3  -1  805.92   49.90
   4  -3   1  799.52   53.59
  -4   3  -1  747.13   51.69
  -4   3  -1  819.42   52.79
   4   3   1  828.62   33.40
  -4   3  -1  841.82   54.79
   4   3   1  787.82   49.80
   4   3   1  823.92   35.60
  -4   3  -1  873.71   49.20
  -4   3  -1  814.92   58.39
   5  -3   1  259.07   31.20
  -5  -3  -1  166.58   33.30
   5  -3   1  229.38   29.30
   5  -3   1  178.48   36.40
  -5  -3  -1  175.78   38.00
   5  -3   1  199.58   31.70
  -5  -3  -1  277.77   47.30
  -5  -3  -1  197.08   34.20
   5   3   1  152.28   17.00
   5   3   1  173.08   34.20
  -5   3  -1  201.28   38.00
  -5   3  -1  191.88   36.80
  -5   3  -1  219.18   29.20
  -5   3  -1  231.28   38.70
  -5   3  -1  225.28   39.60
  -6  -3  -1  578.14   51.79
   6  -3   1  502.45   47.70
   6  -3   1  544.75   59.99
   6  -3   1  502.35   56.09
  -6  -3  -1  413.56   52.39
  -6   3  -1  514.45   56.69
  -6   3  -1  488.55   56.19
  -6   3  -1  576.54   50.89
   7  -3   1    4.20   38.80
  -7  -3  -1  117.99   43.10
  -7  -3  -1   53.39   42.20
   7  -3   1   -9.70   40.80
  -7  -3  -1  136.99   49.30
  -7   3  -1   85.89   47.40
  -7   3  -1   87.39   48.80
  -7   3  -1  154.78   36.00
   8  -3   1  203.08   48.60
  -8  -3  -1  305.17   59.79
  -8  -3  -1  236.78   68.59
  -8   3  -1  232.88   72.99
   9  -3   1  303.57   63.89
  -9  -3  -1  340.37   77.19
  -9  -3  -1  420.56   76.49
  -9   3  -1  307.87   77.59
  -9   3  -1  306.37   81.69
   9  -4  -1  516.65   58.59
  -9  -4   1  784.52   90.89
  -9  -4   1  639.74   87.29
   9  -4  -1  660.33   84.49
  -9   4   1  681.53   91.59
  -9   4   1  703.83   83.59
  -8  -4   1  -44.10   58.79
   8  -4  -1  -23.20   38.50
   8  -4  -1   36.90   61.39
  -8   4   1   -6.40   55.99
   8   4  -1   67.19   41.30
   7  -4  -1 1075.89   75.69
   7  -4  -1 1223.38   95.39
  -7  -4   1 1316.67   75.39
  -7  -4   1 1320.57   91.39
  -7   4   1 1097.69   82.59
  -7   4   1 1244.88   92.29
   6  -4  -1  157.28   36.70
   6  -4  -1   70.09   43.00
   6  -4  -1  190.38   41.60
  -6  -4   1   78.89   26.40
  -6  -4   1  135.19   42.40
  -6  -4   1  140.99   41.70
  -6   4   1   63.99   35.40
  -6   4   1  106.29   41.70
   6   4  -1  100.19   29.90
   6   4  -1  130.49   35.90
  -6   4   1  209.78   38.70
   5  -4  -1 1780.32   80.79
  -5  -4   1 1787.12   69.59
   5  -4  -1 1892.21   84.49
  -5  -4   1 1736.83   84.79
   5  -4  -1 1786.72   80.89
  -5  -4   1 1719.73   85.19
   5  -4  -1 1692.43   90.39
  -5  -4   1 1791.02   98.19
  -5  -4   1 1744.63   86.59
  -5   4   1 1651.23   84.29
   5   4  -1 1682.73   80.09
   5   4  -1 1734.93   53.79
  -5   4   1 1692.83   79.99
  -5   4   1 1760.02   89.89
   5   4  -1 1729.13   81.39
  -5   4   1 1742.03   82.79
   5   4  -1 1723.33   72.29
  -5   4   1 1662.23   90.09
  -4  -4   1   49.10   16.60
  -4  -4   1   36.80   28.90
  -4  -4   1   58.99   32.80
   4  -4  -1   27.00   29.40
  -4  -4   1   83.99   30.70
  -4  -4   1   39.20   27.40
   4  -4  -1   33.40   30.40
   4  -4  -1   20.50   25.40
   4  -4  -1   28.90   22.00
  -4   4   1   26.20   24.60
  -4   4   1   71.89   25.30
   4   4  -1   32.00   21.60
  -4   4   1   33.40   28.40
   4   4  -1   29.10   15.50
  -4   4   1   14.20   29.40
   4   4  -1   66.39   13.50
   4   4  -1  103.19   28.40
  -4   4   1   53.69   28.10
   4   4  -1   39.80   26.50
   3  -4  -1  182.48   31.20
   3  -4  -1  256.57   28.90
  -3  -4   1  202.48   28.90
   3  -4  -1  234.38   33.70
  -3  -4   1  206.68   32.50
  -3  -4   1  219.38   31.50
  -3  -4   1  231.58   31.30
   3  -4  -1  203.48   27.50
   3  -4  -1  202.68   33.70
  -3   4   1  198.38   29.30
   3   4  -1  195.18   21.90
   3   4  -1  232.08   23.50
   3   4  -1  197.88   29.80
   3   4  -1  204.58   28.20
  -3   4   1  228.38   30.20
   3   4  -1  230.68   33.50
  -3   4   1  253.37   31.60
  -3   4   1  217.38   28.90
  -3   4   1  282.17   33.90
   2  -4  -1  192.88   28.30
  -2  -4   1  182.08   28.70
   2  -4  -1  194.38   21.20
  -2  -4   1  238.98   28.70
  -2  -4   1  193.78   25.00
   2  -4  -1  187.68   30.40
  -2  -4   1  192.48   26.30
   2  -4  -1  235.08   26.10
   2   4  -1  199.98   19.40
  -2   4   1  180.08   26.40
  -2   4   1  201.98   26.60
  -2   4   1  196.78   23.80
   2   4  -1  190.58   27.70
   2   4  -1  180.98   21.80
   2   4  -1  220.78   24.10
  -2   4   1  180.48   25.00
  -2   4   1  213.58   24.80
  -1  -4   1 2751.72   88.99
  -1  -4   1 2438.26   96.29
   1  -4  -1 2716.33   89.49
   1  -4  -1 2765.52   85.49
  -1  -4   1 2705.83   88.29
   1  -4  -1 2611.04   93.19
   1  -4  -1 2531.35   94.49
  -1  -4   1 2416.96   95.69
   1   4  -1 2690.13   87.79
  -1   4   1 2687.43   87.79
   1   4  -1 2607.14   89.09
  -1   4   1 2682.43   87.99
   1   4  -1 2720.53   87.99
  -1   4   1 2648.83   85.49
   1   4  -1 2544.45   90.89
   0  -4   1   -6.80   16.90
   0  -4   1    2.10   18.40
   0  -4  -1    5.90   15.10
   0  -4  -1   10.40   15.80
   0  -4  -1  -11.90   18.10
   0  -4   1   17.90   14.80
   0  -4  -1   23.70   15.50
   0  -4   1   39.70   21.70
   0  -4   1   23.60   16.60
   0   4  -1   -1.60   16.50
   0   4   1   28.30   14.70
   0   4   1    0.00   15.90
   0   4  -1   15.30   22.80
   0   4  -1    1.40   15.10
   0   4  -1    0.80   19.90
   0   4  -1  -16.30   15.00
   0   4   1   11.40   11.60
   0   4   1    6.80    7.90
   0   4   1   11.80   15.50
  -1  -4  -1 7933.91  225.68
   1  -4   1 6807.32  231.18
   1  -4   1 7811.62  227.28
  -1  -4  -1 7514.55  221.68
  -1  -4  -1 7865.01  218.48
   1  -4   1 7564.54  225.68
  -1  -4  -1 7962.40  222.48
  -1  -4  -1 7518.25  220.48
  -1   4  -1 7902.81  226.88
   1   4   1 7430.56  210.98
  -1   4  -1 7541.15  223.18
   1   4   1 7594.64  217.08
   1   4   1 7438.86  218.78
  -1   4  -1 7415.26  225.88
  -1   4  -1 7888.31  226.28
  -1   4  -1 7319.77  224.48
   1   4   1 7750.72  222.48
  -2  -4  -1   -0.60   18.40
   2  -4   1  -10.80   20.50
  -2  -4  -1   16.90   13.70
   2  -4   1    5.10   22.10
  -2  -4  -1   -3.90   21.30
  -2  -4  -1   11.60   18.90
   2  -4   1  -18.00   16.80
   2  -4   1    6.60   18.70
  -2  -4  -1   13.00   14.70
  -2   4  -1    3.40   19.70
  -2   4  -1    9.50   19.50
   2   4   1   13.90   10.90
   2   4   1  -13.40   11.50
  -2   4  -1   22.10   20.50
   2   4   1   16.30   13.10
  -2   4  -1   36.60   21.60
  -2   4  -1    0.30   21.50
  -3  -4  -1 1421.56   61.29
   3  -4   1 1360.56   64.19
  -3  -4  -1 1574.64   71.59
  -3  -4  -1 1446.06   69.59
  -3  -4  -1 1505.35   62.79
   3  -4   1 1470.05   67.69
   3  -4   1 1505.45   68.69
   3  -4   1 1571.14   66.09
   3  -4   1 1581.14   66.69
   3   4   1 1503.75   51.99
  -3   4  -1 1604.54   68.49
   3   4   1 1490.25   49.99
  -3   4  -1 1492.65   69.09
  -3   4  -1 1504.65   71.49
   3   4   1 1515.15   51.29
  -3   4  -1 1600.24   68.09
  -3   4  -1 1466.55   67.49
  -4  -4  -1  -26.90   25.10
   4  -4   1   23.30   22.00
   4  -4   1   -3.40   27.00
   4  -4   1   29.70   26.00
  -4  -4  -1   15.00   29.20
  -4  -4  -1  -15.80   11.70
   4  -4   1  -12.10   23.10
  -4  -4  -1   55.39   33.90
  -4   4  -1    0.30   22.90
  -4   4  -1   39.80   32.30
   4   4   1   15.90   13.10
  -4   4  -1   -2.90   26.70
  -4   4  -1   -7.80   27.40
  -4   4  -1   20.20   29.20
   4   4   1  -10.60   10.40
  -5  -4  -1 1262.07   72.29
  -5  -4  -1 1262.17   77.29
  -5  -4  -1 1328.37   67.39
   5  -4   1 1277.87   68.59
   5  -4   1 1286.37   67.49
   5  -4   1 1224.68   64.69
  -5  -4  -1 1374.76   87.79
   5  -4   1 1152.38   70.29
  -5  -4  -1 1266.07   53.89
  -5   4  -1 1360.96   75.09
   5   4   1 1202.38   43.90
  -5   4  -1 1274.27   74.89
  -5   4  -1 1239.88   64.89
   6  -4   1  -13.00   35.30
   6  -4   1   29.00   28.90
  -6  -4  -1   63.79   38.60
  -6  -4  -1    4.80   28.10
   6  -4   1  -18.80   33.80
  -6   4  -1   37.80   40.70
  -6   4  -1   38.20   39.40
  -6   4  -1  100.69   33.40
  -7  -4  -1   98.39   35.60
   7  -4   1   43.20   52.99
  -7  -4  -1  176.28   48.80
  -7  -4  -1  157.98   55.59
   7  -4   1  136.99   45.50
  -7   4  -1  123.39   53.69
  -7   4  -1  120.49   42.10
  -7   4  -1  189.88   54.99
  -8  -4  -1  -55.59   53.29
  -8  -4  -1   -9.00   72.49
   8  -4   1   39.50   53.09
  -8   4  -1  117.19   62.89
  -9  -4  -1  102.09   64.19
   9  -4   1   58.79   70.79
  -9  -4  -1   31.70   68.29
  -9   4  -1   24.00   67.79
  -9   4  -1   62.69   72.59
   9  -5  -1  106.69   69.39
  -9  -5   1  260.77   76.89
   9  -5  -1   29.40   55.99
  -9  -5   1   60.59   73.59
  -9   5   1   28.30   70.99
  -9   5   1   37.70   67.59
  -8  -5   1  435.96   70.69
   8  -5  -1  521.85   60.89
  -8  -5   1  538.65   77.29
  -8   5   1  458.45   72.79
  -8   5   1  591.04   79.29
   7  -5  -1  177.58   57.79
  -7  -5   1  162.38   33.90
   7  -5  -1  227.28   47.70
  -7  -5   1  167.08   59.79
  -7   5   1  166.38   62.39
   7   5  -1   73.49   35.70
   7   5  -1  110.69   39.60
  -7   5   1  140.99   46.20
  -6  -5   1  223.48   47.00
   6  -5  -1  279.47   46.30
  -6  -5   1  195.18   48.50
   6  -5  -1  263.77   52.09
   6   5  -1  265.17   36.10
  -6   5   1  303.67   46.30
   6   5  -1  294.27   41.10
  -6   5   1  267.07   49.99
  -6   5   1  270.57   44.90
  -5  -5   1  289.47   43.10
   5  -5  -1  284.57   47.40
  -5  -5   1  235.08   52.29
  -5  -5   1  382.06   52.59
   5  -5  -1  344.87   46.80
   5  -5  -1  320.57   43.20
  -5  -5   1  409.86   49.60
   5  -5  -1  336.97   41.50
   5   5  -1  336.27   35.70
  -5   5   1  336.17   40.00
  -5   5   1  277.97   43.00
   5   5  -1  341.37   24.10
   5   5  -1  331.87   40.90
  -5   5   1  329.67   46.90
   4  -5  -1   -7.30   26.00
  -4  -5   1   97.59   30.30
  -4  -5   1   27.70   31.40
  -4  -5   1   53.99   33.20
  -4  -5   1  110.89   36.90
   4  -5  -1  110.09   34.00
   4  -5  -1   64.79   30.00
   4  -5  -1   67.49   34.50
  -4   5   1   76.59   33.10
  -4   5   1   29.40   32.00
  -4   5   1   76.49   30.00
   4   5  -1   69.99   31.00
   4   5  -1   63.89   16.90
  -4   5   1   -2.70   29.10
  -4   5   1   44.00   25.80
   4   5  -1   75.39   24.90
   4   5  -1   39.90   13.30
  -3  -5   1  121.49   29.00
   3  -5  -1  134.19   23.70
   3  -5  -1  151.78   28.60
  -3  -5   1  193.08   33.70
  -3  -5   1   94.89   30.90
   3  -5  -1  126.09   32.10
  -3  -5   1  115.29   30.40
   3  -5  -1  119.69   32.50
  -3   5   1  115.49   30.70
  -3   5   1  148.29   29.30
  -3   5   1   92.49   29.20
   3   5  -1  138.69   21.20
  -3   5   1  116.09   26.70
   3   5  -1  182.88   26.60
   3   5  -1  108.29   14.10
   3   5  -1  114.89   29.80
  -3   5   1  128.99   31.80
  -2  -5   1   79.79   25.10
   2  -5  -1   81.49   23.80
  -2  -5   1   61.69   25.60
  -2  -5   1   63.49   29.50
   2  -5  -1   94.49   27.60
   2  -5  -1   50.69   18.30
  -2  -5   1  109.99   28.40
  -2  -5   1   81.99   24.60
   2  -5  -1  133.19   30.80
   2   5  -1  135.59   29.80
  -2   5   1   97.59   25.30
  -2   5   1   87.59   22.30
  -2   5   1   89.09   25.10
  -2   5   1   75.49   25.40
   2   5  -1   95.79   22.90
  -2   5   1   66.89   25.50
   2   5  -1   89.09   13.90
   2   5  -1  127.29   29.90
  -1  -5   1  922.31   49.70
   1  -5  -1  876.51   53.69
   1  -5  -1  903.41   46.90
  -1  -5   1  892.11   48.30
   1  -5  -1  916.51   42.10
  -1  -5   1  893.21   45.60
  -1  -5   1  919.41   53.99
  -1  -5   1  889.91   50.39
  -1   5   1  899.51   47.90
  -1   5   1  838.92   50.19
  -1   5   1  847.52   49.20
  -1   5   1  848.82   34.80
  -1   5   1  947.11   44.40
   1   5  -1  867.11   44.70
   1   5  -1  876.31   45.30
   1   5  -1  888.81   47.30
   1   5  -1  845.72   49.99
   0  -5  -1  132.79   25.50
   0  -5  -1  118.49   23.20
   0  -5   1  129.19   24.70
   0  -5   1  140.99   25.80
   0  -5   1  144.59   25.10
   0  -5  -1  160.78   23.10
   0  -5   1  151.18   26.20
   0   5   1  166.18   24.60
   0   5  -1  196.08   26.40
   0   5  -1  171.78   22.10
   0   5   1  143.19   17.80
   0   5  -1  119.59   26.10
   0   5   1  107.09   19.50
   0   5  -1  154.38   23.70
   0   5   1  192.48   25.10
   0   5  -1  155.78   26.80
   0   5   1  154.88   17.60
  -1  -5  -1    3.40   21.20
   1  -5   1   67.69   21.30
  -1  -5  -1   48.40   21.90
   1  -5   1   53.39   24.90
  -1  -5  -1   60.39   21.30
   1  -5   1   49.99   22.70
  -1  -5  -1   59.49   14.30
   1  -5   1   43.50   21.90
  -1  -5  -1   46.50   19.30
  -1   5  -1   57.09   20.90
   1   5   1   62.29   16.10
   1   5   1   60.39    8.90
  -1   5  -1   72.39   23.40
  -1   5  -1   41.70   22.90
   1   5   1   60.79   21.80
  -1   5  -1   40.50   24.80
   2  -5   1  760.32   48.50
   2  -5   1  809.52   50.79
  -2  -5  -1  848.02   45.60
   2  -5   1  896.11   48.60
  -2  -5  -1  809.32   47.00
  -2  -5  -1  792.12   52.49
  -2  -5  -1  811.72   42.50
   2  -5   1  882.51   55.69
  -2   5  -1  904.31   52.79
   2   5   1  866.91   37.30
  -2   5  -1  902.91   51.69
   2   5   1  838.22   42.60
   2   5   1  872.41   40.90
  -2   5  -1  912.51   51.19
  -2   5  -1  774.82   51.89
  -2   5  -1  820.52   51.19
   3  -5   1   31.40   19.00
   3  -5   1   19.00   23.50
  -3  -5  -1    1.50   28.70
   3  -5   1   23.10   23.50
  -3  -5  -1  -23.30   26.40
  -3  -5  -1   -3.60   15.00
  -3  -5  -1   -6.60   22.50
  -3  -5  -1    6.00   22.60
   3  -5   1    2.90   27.90
   3  -5   1  -19.20   25.90
  -3   5  -1    8.80   28.40
  -3   5  -1   -1.80   24.70
  -3   5  -1   30.30   28.90
   3   5   1   -8.00   14.30
  -3   5  -1  -18.00   24.40
   3   5   1  -12.20   12.20
   3   5   1   -3.70   14.60
  -3   5  -1    6.00   25.60
  -4  -5  -1  774.22   56.29
  -4  -5  -1  860.81   57.09
   4  -5   1  729.33   60.29
   4  -5   1  836.22   49.50
  -4  -5  -1  808.02   64.09
  -4  -5  -1  836.72   69.29
   4  -5   1  847.42   60.09
   4  -5   1  950.50   56.69
  -4   5  -1  821.32   60.79
  -4   5  -1  789.42   62.29
   4   5   1  957.50   45.20
  -4   5  -1  676.93   64.09
  -4   5  -1  756.42   57.49
   4   5   1  806.42   35.00
  -4   5  -1  782.82   59.19
   5  -5   1   26.50   36.00
  -5  -5  -1  178.18   39.40
   5  -5   1   14.90   33.40
  -5  -5  -1   46.60   30.80
  -5  -5  -1  -30.80   36.10
   5  -5   1   45.40   34.30
   5  -5   1   43.80   30.10
  -5  -5  -1   38.10   42.00
  -5   5  -1   83.59   39.50
  -5   5  -1   77.89   37.70
  -5   5  -1   -3.40   33.20
  -6  -5  -1  739.23   68.89
   6  -5   1  756.62   68.89
  -6  -5  -1  737.23   77.79
   6  -5   1  723.93   75.59
   6  -5   1  922.41   70.29
   6  -5   1  771.82   71.89
  -6  -5  -1  846.32   40.70
  -6   5  -1  899.21   77.09
  -6   5  -1  746.13   74.69
  -6   5  -1  852.61   72.49
   7  -5   1   30.50   52.59
  -7  -5  -1  -14.10   58.09
  -7   5  -1   51.89   62.19
  -7   5  -1   23.70   55.09
  -8  -5  -1  736.23   86.59
  -8  -5  -1  720.83   81.19
   8  -5   1  775.62   82.39
  -8   5  -1  491.65   82.29
  -8   5  -1  684.33   82.19
  -9  -5  -1  -32.70   76.59
  -9  -5  -1   33.40   66.09
  -9   5  -1   70.39   77.69
  -9   5  -1   34.10   78.99
   9  -6  -1 -118.39   71.19
  -9  -6   1   85.69   72.89
  -9  -6   1   29.50   77.39
   9  -6  -1   29.90   75.69
  -9   6   1  -96.79   68.59
  -9   6   1   51.79   75.59
   8  -6  -1   57.89   67.19
   8  -6  -1   13.40   55.49
  -8  -6   1  178.18   66.69
  -8   6   1   95.39   68.59
   8   6  -1   47.70   39.10
   7  -6  -1   25.60   58.09
   7  -6  -1  140.29   46.00
  -7  -6   1    1.80   53.19
  -7  -6   1  -42.60   53.49
  -7   6   1   30.40   49.00
   7   6  -1   29.90   38.10
  -7   6   1  -69.99   59.19
  -6  -6   1   94.69   48.10
   6  -6  -1  180.98   46.20
   6  -6  -1  101.89   51.39
  -6  -6   1  104.99   45.30
  -6   6   1  181.98   52.89
   6   6  -1  106.39   38.20
  -6   6   1  121.89   40.70
   6   6  -1  136.39   34.60
  -5  -6   1  207.88   44.50
   5  -6  -1  155.38   45.00
  -5  -6   1   27.20   46.60
   5  -6  -1   36.50   35.50
   5  -6  -1  161.98   43.60
  -5  -6   1   81.69   42.40
  -5   6   1  153.48   43.20
   5   6  -1  132.99   35.70
   5   6  -1  150.78   31.60
  -5   6   1  181.48   35.70
   5   6  -1  159.88   21.00
  -4  -6   1 3942.31  139.89
   4  -6  -1 3772.12  130.39
   4  -6  -1 3253.97  135.39
  -4  -6   1 3675.53  141.19
  -4  -6   1 3699.13  133.09
   4  -6  -1 3489.05  138.09
   4  -6  -1 3489.35  133.39
  -4  -6   1 3740.63  135.09
  -4   6   1 3636.84  127.59
  -4   6   1 3674.83  135.59
   4   6  -1 3503.35  129.89
  -4   6   1 3499.15  138.69
  -4   6   1 3590.94  134.69
  -4   6   1 3580.64  135.09
   4   6  -1 3658.53  123.59
  -3  -6   1   84.99   32.50
  -3  -6   1   75.29   34.70
   3  -6  -1  108.09   37.40
  -3  -6   1  117.69   33.20
  -3  -6   1   99.89   31.90
   3  -6  -1   99.89   34.90
  -3  -6   1   65.19   33.90
   3  -6  -1   83.29   23.90
   3  -6  -1  110.29   30.90
  -3   6   1   70.09   31.10
  -3   6   1   82.99   33.30
   3   6  -1   56.19   23.20
  -3   6   1   99.59   31.80
  -3   6   1   55.89   26.80
   3   6  -1   75.09   33.70
   3   6  -1   27.70   31.70
   3   6  -1   78.49   11.20
   3   6  -1  125.69   27.30
  -3   6   1  123.19   32.90
  -2  -6   1 7039.60  219.28
  -2  -6   1 6914.51  217.88
   2  -6  -1 6890.31  223.68
  -2  -6   1 7239.78  216.68
   2  -6  -1 7261.07  219.08
   2  -6  -1 6688.53  219.18
   2  -6  -1 7442.85  214.18
  -2  -6   1 7070.19  220.78
  -2  -6   1 7292.37  222.58
   2   6  -1 6420.86  229.78
  -2   6   1 7164.68  218.08
  -2   6   1 6823.42  221.08
   2   6  -1 7254.47  214.88
  -2   6   1 7249.58  218.98
   2   6  -1 7261.37  220.58
  -2   6   1 6886.21  213.68
   2   6  -1 6835.22  202.28
   2   6  -1 7154.78  213.78
  -2   6   1 6814.42  217.88
  -1  -6   1  222.68   32.20
   1  -6  -1  194.98   29.70
  -1  -6   1  214.28   31.20
  -1  -6   1  214.68   34.00
  -1  -6   1  143.49   36.30
   1  -6  -1  197.68   34.70
   1  -6  -1  196.78   32.50
   1  -6  -1  195.08   25.70
  -1  -6   1  170.68   31.40
  -1  -6   1  204.68   30.90
  -1   6   1  220.98   28.30
  -1   6   1  256.17   28.80
  -1   6   1  202.08   32.10
   1   6  -1  192.48   32.80
  -1   6   1  208.18   22.10
   1   6  -1  267.67   31.40
  -1   6   1  221.08   31.20
  -1   6   1  218.48   29.90
   1   6  -1  183.88   29.50
   1   6  -1  201.58   28.30
   0  -6  -1 1470.05   71.19
   0  -6  -1 1540.95   66.49
   0  -6   1 1474.25   71.29
   0  -6  -1 1564.24   69.29
   0  -6  -1 1515.25   66.59
   0  -6   1 1518.75   69.79
   0  -6   1 1541.65   69.49
   0  -6   1 1708.03   70.39
   0   6  -1 1460.25   71.09
   0   6   1 1514.55   58.69
   0   6  -1 1590.54   70.19
   0   6  -1 1503.85   70.89
   0   6   1 1622.44   68.79
   0   6   1 1488.15   66.39
   0   6  -1 1558.34   67.09
   0   6   1 1686.13   66.49
   0   6   1 1555.14   53.99
  -1  -6  -1    7.10   21.30
  -1  -6  -1   24.90   26.10
   1  -6   1   -4.70   27.00
   1  -6   1   -8.80   23.10
  -1  -6  -1    9.70   22.80
   1  -6   1   26.00   25.40
  -1  -6  -1   46.20   15.00
   1  -6   1  -31.80   21.30
  -1  -6  -1   31.10   24.20
  -1   6  -1   -3.80   20.90
   1   6   1  -12.20   17.30
  -1   6  -1  -24.50   26.10
  -1   6  -1   27.40   26.20
  -1   6  -1   17.00   23.10
  -1   6  -1    2.40   25.10
   1   6   1   79.79   22.60
  -1   6  -1   -1.80   22.10
   1   6   1    1.20   10.10
  -2  -6  -1  138.19   33.80
  -2  -6  -1  222.68   31.20
   2  -6   1  216.38   36.10
  -2  -6  -1  234.28   35.00
   2  -6   1  215.68   30.20
   2  -6   1  174.88   33.80
  -2  -6  -1  190.58   26.60
  -2  -6  -1  121.39   27.60
   2  -6   1  338.27   40.30
   2   6   1  203.58   27.80
   2   6   1  225.48   27.40
   2   6   1  211.58   22.30
  -2   6  -1  204.88   32.70
  -2   6  -1  163.88   32.20
  -2   6  -1  197.48   33.00
  -2   6  -1  225.78   33.20
  -2   6  -1  172.98   30.00
  -2   6  -1  207.88   36.70
  -3  -6  -1  242.28   40.70
   3  -6   1  263.37   39.50
  -3  -6  -1  285.37   35.30
  -3  -6  -1  296.57   36.60
   3  -6   1  243.88   41.80
   3  -6   1  238.68   35.30
  -3  -6  -1  235.28   36.40
   3  -6   1  329.27   38.80
  -3  -6  -1  254.47   43.30
  -3   6  -1  258.27   37.50
   3   6   1  276.67   26.80
  -3   6  -1  221.48   39.70
  -3   6  -1  277.17   39.90
  -3   6  -1  275.57   40.10
  -3   6  -1  240.38   40.90
   3   6   1  214.08   28.30
  -4  -6  -1  368.66   48.70
   4  -6   1  450.15   52.09
  -4  -6  -1  359.76   45.70
   4  -6   1  348.07   48.00
  -4  -6  -1  427.76   50.69
   4  -6   1  447.76   50.29
  -4  -6  -1  467.15   49.90
   4  -6   1  414.46   44.40
  -4   6  -1  403.26   49.50
  -4   6  -1  413.36   45.90
   4   6   1  402.86   29.90
   4   6   1  342.47   33.40
  -4   6  -1  423.56   49.80
   5  -6   1  157.18   44.50
  -5  -6  -1  241.58   47.90
   5  -6   1  305.87   40.80
   5  -6   1  180.38   45.80
   5  -6   1  218.28   43.60
  -5  -6  -1  174.18   49.60
  -5  -6  -1  244.08   42.90
  -5   6  -1  282.67   45.40
  -5   6  -1  179.88   45.20
  -6  -6  -1  539.65   65.29
   6  -6   1  427.56   56.49
  -6  -6  -1  505.35   56.69
   6  -6   1  506.95   62.89
  -6   6  -1  517.85   62.79
  -6   6  -1  461.95   67.09
   7  -6   1  160.88   64.39
  -7  -6  -1   99.69   51.39
   7  -6   1   20.20   43.30
  -7   6  -1   49.50   62.49
  -7   6  -1  131.49   74.49
   8  -6   1  340.57   80.39
  -8  -6  -1  379.96   73.89
  -8  -6  -1  169.28   74.09
  -8   6  -1  317.17   74.79
  -8   6  -1  479.55   83.79
   8  -7  -1  -11.90   69.99
   8  -7  -1 -104.99   64.29
  -8  -7   1  -90.79   62.49
  -8   7   1   85.99   68.29
  -8   7   1   43.10   59.09
   7  -7  -1  150.48   78.99
  -7  -7   1  176.08   69.29
  -7  -7   1  134.59   63.89
   7  -7  -1  181.68   60.29
  -7   7   1  207.98   58.79
  -7   7   1  283.77   69.49
   7   7  -1  158.78   42.30
  -6  -7   1   36.40   46.90
   6  -7  -1   39.50   46.20
   6  -7  -1  -21.90   54.09
  -6  -7   1   29.00   55.49
  -6   7   1   36.50   36.30
   6   7  -1   62.89   38.50
  -6   7   1  -32.60   51.99
   6   7  -1   61.89   36.70
  -5  -7   1  320.47   50.59
   5  -7  -1  257.17   52.99
   5  -7  -1  287.07   54.69
  -5  -7   1  350.96   55.49
   5   7  -1  233.28   36.90
   5   7  -1  355.66   46.00
  -5   7   1  297.77   52.99
  -5   7   1  353.36   45.20
   4  -7  -1  109.59   38.20
  -4  -7   1   71.39   38.20
   4  -7  -1   92.39   40.20
  -4  -7   1   -0.90   36.60
  -4  -7   1   85.89   36.90
   4  -7  -1  100.99   43.30
  -4   7   1   47.20   33.00
   4   7  -1  111.89   30.30
   4   7  -1   91.19   36.70
  -4   7   1   86.59   39.00
   4   7  -1  103.29   25.90
   3  -7  -1  893.71   64.99
  -3  -7   1  982.70   67.49
  -3  -7   1  927.01   72.39
   3  -7  -1  988.90   75.99
   3  -7  -1  920.31   69.39
  -3  -7   1 1028.10   64.39
  -3  -7   1 1024.00   69.09
  -3  -7   1 1001.40   70.29
   3  -7  -1 1096.09   61.19
   3   7  -1 1059.09   56.19
   3   7  -1  951.40   67.59
  -3   7   1  997.40   60.79
  -3   7   1 1116.39   69.69
  -3   7   1  965.70   69.69
  -3   7   1 1061.09   67.59
  -3   7   1  975.40   68.29
   3   7  -1 1060.09   58.49
  -2  -7   1  337.57   41.80
   2  -7  -1  367.96   47.60
   2  -7  -1  416.96   48.50
  -2  -7   1  395.96   45.40
  -2  -7   1  309.37   40.20
   2  -7  -1  347.17   39.40
   2  -7  -1  345.87   43.00
  -2  -7   1  357.06   42.30
  -2  -7   1  398.86   45.70
  -2   7   1  441.46   49.99
   2   7  -1  341.47   42.10
  -2   7   1  321.37   42.20
   2   7  -1  396.66   42.10
  -2   7   1  340.77   37.80
  -2   7   1  437.56   46.80
  -2   7   1  374.36   43.30
   2   7  -1  333.87   40.90
   2   7  -1  361.26   40.90
  -2   7   1  322.17   32.20
  -1  -7   1  927.61   61.79
  -1  -7   1  995.20   54.29
   1  -7  -1 1089.59   60.09
   1  -7  -1  937.41   67.89
  -1  -7   1  906.41   60.69
  -1  -7   1 1025.80   61.09
  -1  -7   1  962.50   60.09
   1  -7  -1  957.60   61.79
  -1  -7   1  980.10   61.19
   1  -7  -1 1119.69   57.39
   1   7  -1 1012.30   55.59
  -1   7   1  882.51   59.99
  -1   7   1 1056.09   62.89
  -1   7   1  931.41   61.89
  -1   7   1  939.91   57.99
   1   7  -1  977.70   65.89
   1   7  -1  986.80   58.49
  -1   7   1 1044.40   54.69
  -1   7   1  974.50   41.90
   0  -7  -1   95.59   32.70
   0  -7  -1    9.60   25.30
   0  -7   1    2.40   29.70
   0  -7  -1   33.70   28.50
   0  -7   1   24.90   26.70
   0  -7   1  -12.80   27.70
   0  -7  -1  -28.80   25.10
   0  -7   1    5.30   25.80
   0   7  -1    7.50   30.90
   0   7   1   -5.10   22.40
   0   7  -1   22.70   23.80
   0   7   1   -4.40   26.20
   0   7  -1   16.20   25.00
   0   7   1   28.00   27.00
   0   7  -1   16.10   29.20
   0   7  -1   -9.40   26.40
   0   7   1    7.60   17.80
   0   7   1   24.30   15.30
   0   7  -1   44.80   21.00
   1  -7   1  973.00   58.69
   1  -7   1 1011.70   62.09
  -1  -7  -1 1054.19   43.00
  -1  -7  -1  949.01   59.29
   1  -7   1  880.91   62.39
  -1  -7  -1  931.01   56.59
  -1  -7  -1  935.51   56.79
   1  -7   1  985.60   67.29
  -1  -7  -1  893.11   58.49
   1   7   1  982.90   38.70
  -1   7  -1 1055.99   59.99
  -1   7  -1  929.61   63.99
   1   7   1  996.50   56.19
   1   7   1 1044.60   60.39
   1   7   1  948.31   49.99
  -1   7  -1  971.90   55.59
  -1   7  -1 1064.79   58.49
  -1   7  -1  922.81   62.29
  -1   7  -1 1034.90   64.69
  -2  -7  -1  122.29   23.40
   2  -7   1  115.59   38.40
  -2  -7  -1   92.09   35.30
   2  -7   1  190.18   33.60
  -2  -7  -1  123.79   34.90
  -2  -7  -1   51.49   30.50
   2  -7   1  100.29   32.60
  -2  -7  -1   79.29   29.90
  -2  -7  -1   87.89   28.70
   2  -7   1  130.79   36.20
  -2   7  -1   47.60   29.50
   2   7   1   59.79   25.50
  -2   7  -1   57.99   33.70
  -2   7  -1   75.09   35.90
  -2   7  -1   94.39   29.60
  -2   7  -1   61.59   31.70
   2   7   1   76.29   21.50
  -2   7  -1   32.00   33.20
   2   7   1   87.49   26.10
   3  -7   1  313.37   46.20
   3  -7   1  285.87   39.50
   3  -7   1  299.67   45.90
  -3  -7  -1  302.17   37.80
  -3  -7  -1  305.47   40.40
  -3  -7  -1  269.57   45.00
  -3  -7  -1  263.47   43.40
  -3  -7  -1  288.17   37.40
   3  -7   1  275.17   41.20
  -3  -7  -1  279.97   32.20
   3   7   1  253.17   31.30
   3   7   1  358.06   30.30
  -3   7  -1  197.78   42.50
  -3   7  -1  265.87   44.70
  -3   7  -1  250.17   44.80
  -3   7  -1  291.27   51.99
  -3   7  -1  268.87   41.70
   4  -7   1  492.65   57.69
   4  -7   1  626.64   53.69
  -4  -7  -1  580.24   53.79
  -4  -7  -1  411.66   55.19
   4  -7   1  555.54   67.99
  -4  -7  -1  535.35   62.69
  -4   7  -1  467.55   55.69
  -4   7  -1  566.04   60.19
  -5  -7  -1  -18.90   44.10
   5  -7   1   19.80   39.20
   5  -7   1   45.50   43.90
   5  -7   1   -4.00   40.60
  -5  -7  -1  -16.90   35.30
  -5  -7  -1  -49.00   47.80
  -5   7  -1   40.20   38.60
  -5   7  -1   -9.00   44.00
   6  -7   1  455.25   68.79
   6  -7   1  558.14   64.69
  -6  -7  -1  505.65   57.89
  -6  -7  -1  411.96   69.89
  -6   7  -1  446.06   63.59
  -6   7  -1  479.85   72.49
  -7  -7  -1   70.59   60.59
  -7  -7  -1   98.49   54.99
   7  -7   1  122.49   61.49
  -7   7  -1  -11.00   60.29
  -7   7  -1   69.09   68.99
   8  -7   1  120.69   69.39
  -8  -7  -1  215.08   78.59
  -8   7  -1  127.99   66.19
  -8   7  -1  -15.30   77.89
   8  -8  -1  111.29   71.49
  -8  -8   1 -166.28   64.49
   8  -8  -1  -38.40   73.89
  -8   8   1   57.59   65.69
  -8   8   1   -7.30   75.89
   7  -8  -1  787.12   95.19
  -7  -8   1 1063.39  144.89
  -7  -8   1  834.22   90.89
  -7   8   1  878.91  104.89
  -7   8   1  770.92   81.59
   7   8  -1  877.91   68.89
   6  -8  -1  107.99   62.09
  -6  -8   1  104.29   59.89
   6  -8  -1   50.89   61.09
  -6  -8   1   77.69   51.79
  -6   8   1   76.29   44.50
   6   8  -1   36.90   40.70
  -6   8   1  124.09   61.29
  -5  -8   1  636.84   69.59
  -5  -8   1  612.14   71.89
   5  -8  -1  614.34   72.49
   5  -8  -1  708.43   86.19
  -5   8   1  626.74   63.99
   5   8  -1  524.15   64.79
   5   8  -1  728.73   53.39
   5   8  -1  613.04   61.29
  -5   8   1  670.83   79.79
  -4  -8   1  150.98   44.40
  -4  -8   1   63.69   45.00
   4  -8  -1  148.29   49.70
   4  -8  -1  216.98   50.99
  -4  -8   1  221.28   51.19
   4   8  -1  111.29   33.90
  -4   8   1  161.68   37.10
   4   8  -1  158.18   33.90
  -4   8   1  172.78   45.60
   4   8  -1  169.58   41.90
   3  -8  -1  132.99   42.50
   3  -8  -1  230.98   43.70
  -3  -8   1  111.89   37.00
   3  -8  -1  183.68   33.90
  -3  -8   1  181.68   40.20
  -3  -8   1  200.98   41.60
   3   8  -1  239.28   42.10
   3   8  -1  217.38   35.50
  -3   8   1  169.28   30.30
  -3   8   1  148.89   44.00
   3   8  -1  156.58   32.40
  -3   8   1  158.68   44.10
  -3   8   1  173.18   45.80
  -3   8   1  179.38   38.50
  -2  -8   1  478.85   57.19
   2  -8  -1  560.54   66.19
  -2  -8   1  531.55   81.39
   2  -8  -1  489.65   53.49
  -2  -8   1  455.95   50.79
  -2  -8   1  613.74   51.89
   2  -8  -1  472.75   52.19
  -2   8   1  539.55   54.59
  -2   8   1  508.45   48.80
   2   8  -1  458.65   55.19
   2   8  -1  383.86   42.60
  -2   8   1  455.95   56.69
   2   8  -1  479.15   55.89
  -2   8   1  550.74   51.59
   2   8  -1  590.74   49.30
   2   8  -1  452.15   28.60
  -1  -8   1  101.39   36.10
  -1  -8   1  127.49   28.60
   1  -8  -1  163.18   37.30
   1  -8  -1  141.49   41.40
  -1  -8   1  137.49   35.80
   1  -8  -1  183.98   33.90
   1  -8  -1  139.29   39.20
  -1  -8   1  180.58   36.60
  -1  -8   1  133.29   37.40
  -1  -8   1  181.78   38.70
   1   8  -1  132.69   35.50
   1   8  -1  114.29   32.40
  -1   8   1  188.58   32.20
  -1   8   1  186.08   38.80
  -1   8   1  144.99   31.90
  -1   8   1  124.99   19.70
  -1   8   1  225.38   38.70
   1   8  -1  210.18   40.90
   1   8  -1  145.79   33.20
  -1   8   1  139.79   34.30
   0  -8   1  730.33   61.79
   0  -8   1  666.13   62.59
   0  -8  -1  643.24   55.79
   0  -8  -1  684.63   57.49
   0  -8   1  722.43   60.69
   0  -8  -1  715.03   62.69
   0  -8   1  635.24   56.69
   0  -8  -1  745.43   57.29
   0   8  -1  680.33   52.59
   0   8   1  713.53   56.59
   0   8  -1  678.53   55.99
   0   8  -1  682.13   47.50
   0   8  -1  633.94   59.99
   0   8   1  688.63   37.30
   0   8   1  708.83   52.39
   0   8  -1  696.23   62.39
   0   8  -1  771.02   67.79
   0   8   1  738.63   58.79
  -1  -8  -1 1781.92   83.89
  -1  -8  -1 1816.42   88.79
   1  -8   1 1822.92   94.19
  -1  -8  -1 1743.93   82.89
   1  -8   1 1834.42   90.19
   1  -8   1 1806.42   86.29
  -1  -8  -1 1888.41   86.69
   1  -8   1 1790.52   90.09
  -1   8  -1 1867.01   90.19
  -1   8  -1 1950.50   89.69
  -1   8  -1 1780.02   90.29
  -1   8  -1 1982.50   83.89
   1   8   1 1899.61   76.79
   1   8   1 1763.82   80.99
  -1   8  -1 1844.42   79.69
   1   8   1 1883.41   62.99
   1   8   1 1842.02   84.39
  -1   8  -1 1705.13   90.79
  -2  -8  -1  125.19   36.70
   2  -8   1   63.39   37.40
  -2  -8  -1   79.89   35.10
  -2  -8  -1  130.89   26.60
   2  -8   1  128.89   43.80
  -2  -8  -1   86.19   38.60
  -2  -8  -1  135.89   34.50
   2  -8   1  145.29   36.50
  -2  -8  -1   91.89   32.70
   2   8   1   84.59   32.90
  -2   8  -1   60.39   37.00
  -2   8  -1   44.00   35.60
   2   8   1  144.89   26.00
  -2   8  -1  157.38   46.00
   2   8   1   77.39   29.10
  -2   8  -1  141.99   38.00
  -2   8  -1   83.99   30.40
  -3  -8  -1 2472.45  114.89
   3  -8   1 2386.26  117.99
  -3  -8  -1 2551.54   99.19
   3  -8   1 2466.85  112.99
  -3  -8  -1 2638.94  108.49
  -3   8  -1 2604.94  117.09
   3   8   1 2663.73  100.99
   3   8   1 2440.16   87.49
  -3   8  -1 2637.44  111.09
  -3   8  -1 2548.15  106.99
   3   8   1 2663.63   93.29
  -4  -8  -1   21.10   39.80
   4  -8   1    5.70   36.90
  -4  -8  -1   -4.40   41.00
   4  -8   1   26.50   45.70
  -4  -8  -1   27.50   34.00
   4  -8   1  -18.10   41.80
  -4   8  -1   62.29   45.10
   4   8   1   64.69   27.50
  -4   8  -1  -24.70   36.80
  -5  -8  -1  520.95   73.39
   5  -8   1  589.94   73.09
  -5  -8  -1  640.84   73.59
   5  -8   1  565.04   70.09
  -5   8  -1  641.64   75.39
  -5   8  -1  611.34   65.29
  -6  -8  -1   13.90   47.40
   6  -8   1   41.70   62.09
  -6  -8  -1  -88.49   54.79
   6  -8   1  -20.50   60.49
  -6   8  -1   36.70   72.69
  -6   8  -1    7.70   56.39
   7  -8   1  151.88   71.19
  -7  -8  -1  188.08   77.39
  -7  -8  -1  319.87   75.09
  -7   8  -1   40.60   61.49
  -7   8  -1  117.99   70.29
  -8  -8  -1 -111.99   70.89
   8  -8   1   18.30   73.59
  -8   8  -1  -31.20   69.79
  -8   8  -1   25.40   76.79
   7  -9  -1   79.79   77.29
   7  -9  -1   17.70   69.89
  -7  -9   1  -51.19   68.39
  -7  -9   1  137.49   71.69
  -7   9   1  127.49   60.19
  -7   9   1  207.68   72.19
   6  -9  -1  279.47   73.59
  -6  -9   1  111.09   66.79
  -6  -9   1  280.07   69.49
   6   9  -1  179.98   45.90
  -6   9   1  252.37   63.29
  -6   9   1  167.98   63.99
  -5  -9   1   -7.50   56.89
  -5  -9   1  127.99   53.49
   5  -9  -1  -64.49   62.49
   5  -9  -1 -159.58   59.49
  -5   9   1   35.80   41.80
  -5   9   1  -13.80   55.19
   5   9  -1   -2.10   39.80
  -4  -9   1   60.19   48.10
  -4  -9   1  121.39   48.50
   4  -9  -1   64.99   52.19
  -4  -9   1   62.99   43.40
   4  -9  -1   40.40   50.99
  -4   9   1   20.80   31.40
   4   9  -1   -2.00   37.70
   4   9  -1   56.29   42.10
  -4   9   1   71.69   38.90
  -4   9   1   50.39   49.80
   4   9  -1  192.48   41.50
  -3  -9   1    5.10   39.00
  -3  -9   1   86.89   40.20
  -3  -9   1  -27.70   35.60
   3  -9  -1   77.09   51.69
   3  -9  -1   72.89   42.10
   3   9  -1   49.00   36.70
  -3   9   1  -47.20   34.30
  -3   9   1   18.60   26.60
  -3   9   1   50.99   42.60
   3   9  -1    9.40   36.50
   3   9  -1   38.90   37.80
  -2  -9   1   29.90   37.60
  -2  -9   1   22.30   31.00
   2  -9  -1   60.19   40.30
   2  -9  -1    8.80   42.70
  -2  -9   1    9.90   36.70
   2  -9  -1    9.80   36.10
   2   9  -1   34.00   39.20
   2   9  -1   46.40   37.40
  -2   9   1   13.50   40.50
  -2   9   1  -34.10   36.90
  -2   9   1   95.89   38.00
   2   9  -1   27.70   40.70
   2   9  -1    6.70   15.30
   2   9  -1   14.90   31.50
  -2   9   1  -45.70   37.10
  -1  -9   1   -6.70   37.00
   1  -9  -1  -68.79   30.70
  -1  -9   1   47.80   37.50
  -1  -9   1   42.90   35.00
   1  -9  -1   17.10   37.40
   1  -9  -1   25.50   38.60
  -1   9   1    8.10   17.40
   1   9  -1  -42.70   35.40
  -1   9   1  -15.60   29.30
  -1   9   1  154.28   36.00
  -1   9   1   18.30   35.60
   1   9  -1  -19.60   29.40
  -1   9   1   -2.60   34.00
   1   9  -1  -20.30   20.40
   1   9  -1    1.20   37.60
   0  -9  -1  466.25   52.09
   0  -9   1  469.85   53.49
   0  -9   1  556.74   64.29
   0  -9  -1  469.95   49.90
   0  -9  -1  544.85   64.39
   0   9  -1  479.35   56.39
   0   9   1  509.05   56.89
   0   9   1  392.06   42.70
   0   9  -1  440.86   41.90
   0   9  -1  539.75   63.29
   0   9  -1  503.45   52.39
   0   9  -1  465.45   55.99
   0   9   1  532.65   55.09
   0   9   1  425.66   32.40
  -1  -9  -1  194.68   42.10
   1  -9   1  102.29   42.00
  -1  -9  -1  233.28   52.89
   1  -9   1  117.59   42.80
  -1  -9  -1  204.18   43.50
   1   9   1  162.18   32.90
  -1   9  -1  145.59   42.70
  -1   9  -1  217.18   34.60
   1   9   1  158.68   19.30
   1   9   1  160.68   40.10
  -1   9  -1  132.89   36.60
   1   9   1  175.18   37.10
  -1   9  -1  191.28   45.50
  -2  -9  -1  270.07   48.80
  -2  -9  -1  272.17   44.80
  -2  -9  -1  243.78   41.90
   2  -9   1  292.97   49.40
   2  -9   1  217.18   51.69
  -2   9  -1  216.88   48.90
  -2   9  -1  227.38   45.40
   2   9   1  269.47   37.80
  -2   9  -1  235.68   53.19
  -2   9  -1  297.17   40.30
   2   9   1  264.07   44.40
   3  -9   1  249.08   59.19
  -3  -9  -1  125.79   33.20
  -3  -9  -1  316.07   47.20
   3  -9   1  234.98   53.39
  -3  -9  -1  260.77   40.00
  -3  -9  -1  241.88   50.89
  -3   9  -1  199.78   53.09
  -3   9  -1  234.08   47.90
   3   9   1  231.48   29.00
  -3   9  -1  246.98   41.90
   3   9   1  252.57   33.10
   3   9   1  202.08   42.40
   4  -9   1  463.15   66.99
  -4  -9  -1  618.44   72.69
  -4  -9  -1  560.24   69.29
   4  -9   1  578.54   70.99
  -4   9  -1  607.54   72.29
   4   9   1  688.53   61.79
  -4   9  -1  622.44   76.09
  -4   9  -1  496.85   62.99
  -5  -9  -1   82.09   45.50
   5  -9   1   53.79   63.09
   5  -9   1    6.80   58.89
  -5   9  -1   52.89   46.50
  -5   9  -1   50.19   59.09
  -6  -9  -1  990.60  107.39
  -6  -9  -1 1078.39  106.69
   6  -9   1  996.50  102.79
   6  -9   1  961.10  109.19
  -6   9  -1 1115.59  110.49
  -6   9  -1 1032.30  100.59
  -7  -9  -1  -59.69   79.09
  -7  -9  -1   60.09   69.29
   7  -9   1   16.10   63.59
  -7   9  -1  144.69   66.99
  -7   9  -1  -34.60   70.19
  -7 -10   1  256.27   81.89
   7 -10  -1  280.27   86.79
   7 -10  -1  234.28   86.59
  -7 -10   1  188.48   81.59
  -7  10   1  117.39   65.89
  -7  10   1  143.89   77.79
  -6 -10   1  108.09   65.29
   6 -10  -1  285.07   79.99
   6 -10  -1   61.79   74.49
  -6 -10   1  226.28   69.59
  -6  10   1  244.18   71.39
   6  10  -1  240.68   49.50
  -6  10   1  127.29  104.39
   5 -10  -1   71.29   60.89
   5 -10  -1  123.69   70.99
  -5 -10   1  150.98   67.69
  -5 -10   1   91.09   58.89
  -5  10   1  109.69   45.10
   5  10  -1  112.39   45.60
  -5  10   1  174.88   57.39
  -5  10   1   75.49   63.29
   4 -10  -1 1878.41  121.69
  -4 -10   1 1920.21  118.79
  -4 -10   1 1877.51  117.39
   4 -10  -1 1659.13  128.69
  -4  10   1 1773.82   97.19
  -4  10   1 1715.43  116.49
   4  10  -1 1850.21  102.19
  -3 -10   1   73.39   46.50
   3 -10  -1   25.00   55.89
  -3 -10   1  138.09   45.10
   3 -10  -1   65.29   55.49
  -3 -10   1   65.19   50.39
  -3  10   1   18.20   28.50
  -3  10   1  100.99   50.89
   3  10  -1   47.80   46.50
  -3  10   1   40.40   39.70
   3  10  -1    4.00   45.00
  -2 -10   1 1783.12   98.69
  -2 -10   1 2015.10   90.29
   2 -10  -1 1855.11  106.09
   2 -10  -1 1732.93  101.79
  -2 -10   1 1626.84   97.59
   2  10  -1 1786.92   61.49
   2  10  -1 1740.03   89.49
   2  10  -1 1643.44   61.99
  -2  10   1 1798.32   97.09
   2  10  -1 1723.53   94.69
   2  10  -1 1685.43   97.89
  -2  10   1 1708.33   97.39
  -1 -10   1   79.29   41.50
  -1 -10   1   91.99   42.80
  -1 -10   1  111.19   41.10
   1 -10  -1   55.89   48.50
   1 -10  -1   64.99   42.60
   1  10  -1   69.89   47.30
  -1  10   1   24.20   18.40
  -1  10   1  -10.60   42.80
  -1  10   1   52.29   39.80
  -1  10   1   64.89   38.40
   1  10  -1   -6.40   44.30
   1  10  -1  116.99   28.30
   1  10  -1   47.30   33.20
   0 -10   1  878.91   77.79
   0 -10   1  967.10   81.39
   0 -10  -1 1005.80   81.49
   0 -10  -1  847.92   79.79
   0  10   1  878.81   71.79
   0  10   1  947.31   60.49
   0  10  -1  896.11   66.09
   0  10  -1 1033.80   78.79
   0  10   1 1065.79   73.89
   0  10  -1  954.00   65.49
   1 -10   1  250.47   54.89
   1 -10   1  321.07   54.69
  -1 -10  -1  176.08   47.60
  -1 -10  -1  253.07   49.80
   1  10   1  327.47   29.30
  -1  10  -1  199.18   51.89
  -1  10  -1  197.48   45.30
  -1  10  -1  231.08   51.49
   1  10   1  270.87   44.40
   1  10   1  231.08   40.80
  -1  10  -1  255.57   39.10
  -2 -10  -1   62.99   42.90
  -2 -10  -1   17.30   38.30
   2 -10   1  -75.59   47.70
   2 -10   1   16.00   46.60
  -2 -10  -1   -4.30   41.10
  -2  10  -1   43.70   44.80
  -2  10  -1   48.60   50.19
   2  10   1   46.50   43.00
  -2  10  -1   78.89   34.30
   2  10   1   19.10   34.50
  -3 -10  -1  262.17   43.30
  -3 -10  -1  240.58   63.39
   3 -10   1  260.87   69.19
   3 -10   1  450.15   68.59
  -3 -10  -1  320.27   51.09
  -3  10  -1  276.87   65.89
  -3  10  -1  206.18   53.39
   3  10   1  157.18   31.90
  -3  10  -1  216.78   44.60
  -4 -10  -1  115.59   51.29
   4 -10   1    4.80   59.69
  -4  10  -1  -67.89   53.39
  -4  10  -1   42.20   43.30
   5 -10   1   94.19   66.59
   5 -10   1  -90.09   59.29
  -5 -10  -1  122.39   61.69
  -5 -10  -1   97.79   60.89
  -5  10  -1  -32.30   61.99
  -5  10  -1   49.99   54.99
   6 -10   1  258.47   81.09
  -6 -10  -1  302.87   77.69
   6 -10   1  278.07   78.49
  -6  10  -1  291.97   80.29
  -6  10  -1  326.17   71.99
   7 -10   1   -3.40   78.39
  -7 -10  -1   64.19   80.39
  -7 -10  -1  -87.79   71.99
  -7  10  -1   89.89   83.89
  -7  10  -1   43.00   83.29
  -7  10  -1  126.29   74.69
  -6 -11   1   55.49   70.49
   6 -11  -1  108.59   83.99
  -6 -11   1   82.59   76.39
   6 -11  -1   20.10   77.39
  -6  11   1  -11.00   67.59
  -6  11   1  151.88   83.89
  -6  11   1  -12.60   63.49
  -5 -11   1  632.84   83.59
   5 -11  -1  610.04   92.39
  -5 -11   1  722.93   86.09
   5 -11  -1  670.83   87.69
  -5  11   1  654.33   87.49
  -5  11   1  578.44   62.39
  -5  11   1  576.44   82.19
   5  11  -1  488.15   61.49
   4 -11  -1  179.28   69.79
  -4 -11   1   99.49   59.19
   4 -11  -1  172.78   67.19
  -4  11   1  185.88   64.29
  -4  11   1  119.99   39.60
   4  11  -1  167.78   52.89
  -4  11   1   97.79   65.09
  -3 -11   1  610.14   76.99
  -3 -11   1  673.33   79.29
  -3  11   1  670.23   72.19
  -3  11   1  562.84   80.99
   3  11  -1  894.11   89.99
  -3  11   1  690.03   55.79
   2 -11  -1   16.70   61.79
  -2 -11   1   35.50   53.09
   2 -11  -1  -31.20   56.49
  -2 -11   1  -30.00   51.09
  -2  11   1  -43.30   43.60
   2  11  -1   27.90   15.50
   2  11  -1   23.00   50.29
   2  11  -1   27.40   12.30
  -2  11   1    0.10   53.89
  -1 -11   1  392.06   55.59
   1 -11  -1  400.36   67.09
   1 -11  -1  250.67   67.09
  -1 -11   1  286.37   60.29
  -1  11   1  178.48   49.90
   1  11  -1  260.37   38.20
   1  11  -1  205.58   42.30
  -1  11   1  237.88   26.60
  -1  11   1  302.57   54.79
   1  11  -1  274.17   62.59
   0 -11  -1   97.89   57.39
   0 -11  -1  101.09   51.89
   0 -11   1   19.10   54.59
   0 -11   1   16.40   50.69
   0  11   1   68.89   46.40
   0  11  -1   75.99   36.30
   0  11   1  130.89   51.49
   0  11  -1   -5.80   52.39
   0  11  -1   -0.60   41.40
   0  11   1   63.59   36.40
  -1 -11  -1  184.58   55.49
   1 -11   1  255.67   62.89
  -1 -11  -1  209.28   61.99
  -1 -11  -1   60.89   50.29
   1 -11   1  115.89   62.09
   1  11   1  141.19   45.20
  -1  11  -1  243.08   58.99
   1  11   1  274.27   24.80
  -1  11  -1  269.77   42.10
  -1  11  -1  179.98   62.79
   1  11   1  173.58   61.79
  -2 -11  -1  -29.50   44.20
   2 -11   1   25.50   58.29
  -2 -11  -1   16.90   57.09
   2 -11   1   64.69   63.49
  -2 -11  -1   53.39   50.69
  -2  11  -1   -3.80   56.59
  -2  11  -1  -20.70   36.50
  -2  11  -1   55.79   60.39
   2  11   1   62.89   41.20
  -3 -11  -1  211.48   58.79
   3 -11   1  146.79   66.79
  -3 -11  -1  156.68   69.89
   3 -11   1   77.59   71.29
   3  11   1  193.78   34.60
  -3  11  -1  236.08   85.09
  -3  11  -1  164.78   60.39
  -3  11  -1  242.28   47.20
   4 -11   1   62.39   63.49
  -4 -11  -1   77.29   63.29
   4 -11   1  105.59   64.59
  -4 -11  -1  121.19   60.19
  -4  11  -1  121.59   68.89
  -4  11  -1  127.39   50.59
  -5 -11  -1   62.29   66.89
   5 -11   1  113.59   70.09
   5 -11   1   50.49   71.79
  -5  11  -1  -40.20   61.59
  -5  11  -1   92.59   72.99
  -5  11  -1  107.69   72.99
  -6 -11  -1   67.39   76.69
   6 -11   1   43.60   77.49
   6 -11   1  277.97   89.59
  -6 -11  -1   55.69   70.59
  -6  11  -1   65.99   82.29
  -6  11  -1  267.57   80.09
  -6  11  -1  164.18   75.19
   5 -12  -1  423.66  100.19
  -5 -12   1  217.18   79.49
   5 -12  -1  458.55   91.59
  -5 -12   1  431.26   88.59
  -5  12   1  488.65   75.69
  -5  12   1  400.36   82.29
  -4 -12   1  116.09   68.99
   4 -12  -1  120.19   74.89
   4 -12  -1   78.19   66.89
  -4 -12   1   80.69   65.29
   4  12  -1   76.19   63.29
  -4  12   1  122.89   67.89
   3 -12  -1  -47.10   65.59
  -3 -12   1   94.29   60.59
  -3 -12   1   10.00   60.99
   3 -12  -1  -49.99   59.69
  -3  12   1  -11.10   60.89
  -3  12   1  142.79   61.79
   3  12  -1   72.39   67.09
   2 -12  -1  546.05   81.59
  -2 -12   1  394.36  116.49
   2 -12  -1  413.56   74.89
  -2 -12   1  480.85   90.89
   2  12  -1  585.24   82.29
  -2  12   1  443.56   76.99
   1 -12  -1  415.06   95.89
  -1 -12   1  369.26   67.29
   1  12  -1  414.56   76.99
  -1  12   1  426.46   71.99
   0 -12  -1  207.28   71.39
   0 -12   1  143.49   76.79
   0 -12   1  209.68   61.89
   0 -12  -1  195.48   70.09
   0  12  -1  171.88   72.39
   0  12   1  314.77   63.29
   0  12  -1  179.78   42.30
  -1 -12  -1  600.34   84.19
   1 -12   1  460.95   73.09
  -1 -12  -1  645.84   81.49
   1 -12   1  443.16   76.79
  -1 -12  -1  624.34   81.29
   1  12   1  512.85   60.79
  -1  12  -1  657.53   68.39
  -2 -12  -1   -2.40   59.59
   2 -12   1   76.59   63.99
   2 -12   1  -15.10   61.39
  -2 -12  -1    4.70   59.99
  -2 -12  -1   26.80   61.69
  -2  12  -1  175.58   67.99
  -2  12  -1  -20.20   41.30
   2  12   1   89.39   45.10
  -3 -12  -1  596.34   83.29
   3 -12   1  831.22   93.49
   3 -12   1  554.74   88.09
  -3  12  -1  487.05   60.59
  -3  12  -1  704.53   85.39
  -3  12  -1  731.23   93.79
   4 -12   1   53.19   75.79
  -4 -12  -1  128.69   72.39
  -4 -12  -1   27.20   61.29
   4 -12   1  150.68   73.59
  -4  12  -1   28.20   71.09
  -4  12  -1   30.60   65.99
  -4  12  -1   15.40   57.59
   5 -12   1  284.47   91.09
   5 -12   1  179.68   86.89
  -5 -12  -1  468.25   81.59
  -5 -12  -1  349.37   87.19
  -5  12  -1  257.37   85.89
  -5  12  -1  198.08   85.19
  -5  12  -1  226.28   81.49
  -4 -13   1  -50.99   68.69
   4 -13  -1 -115.09   81.19
  -4 -13   1   40.90   77.89
   4 -13  -1   42.50   77.29
  -4  13   1   29.40   77.79
  -4  13   1   83.59   72.79
   3 -13  -1   28.30   69.89
  -3 -13   1   -7.30   64.49
  -3 -13   1    5.80   63.79
   3 -13  -1   19.40   79.79
  -3  13   1   51.39   72.09
   3  13  -1   -1.30   80.89
   2 -13  -1  -98.79   60.09
  -2 -13   1   -2.10   63.59
  -2 -13   1   53.99   61.99
   2 -13  -1  -47.50   69.39
   2  13  -1 -194.88  147.09
  -2  13   1   52.09   64.09
  -1 -13   1  -45.30   60.49
   1 -13  -1   38.00   67.39
  -1 -13   1   28.90   56.39
   1 -13  -1   66.39   66.59
   1  13  -1   96.49   73.69
   0 -13  -1    0.20   64.39
   0 -13   1   72.39   66.49
   0 -13   1  -28.40   53.79
   0 -13  -1   92.69   71.09
   0  13   1  140.59   72.69
   0  13  -1  -11.00   66.39
   1 -13   1   42.00   66.89
   1 -13   1   97.39   56.89
  -1 -13  -1   98.89   63.59
  -1 -13  -1   71.39   63.29
  -1 -13  -1   31.50   63.59
  -1  13  -1   -0.30   65.39
   1  13   1  103.19   60.59
   2 -13   1  239.88   73.69
  -2 -13  -1  282.07   71.39
   2 -13   1  420.46   82.39
  -2 -13  -1  266.27   72.89
  -2  13  -1  353.36   74.89
  -2  13  -1  401.16   81.89
  -3 -13  -1   68.09   70.79
   3 -13   1  -29.20   77.89
  -3 -13  -1  -16.30   64.39
   3 -13   1  -53.29   79.49
  -3  13  -1  -21.30   75.09
  -3  13  -1  101.59   69.19
  -4 -13  -1  287.07   77.69
  -4 -13  -1  320.27   84.59
   4 -13   1  342.87   91.29
  -4  13  -1  215.78   83.89
  -4  13  -1  182.78   87.09
   2 -14  -1 1198.98  138.99
   2 -14  -1 1059.69  127.69
  -2 -14   1  936.11  105.59
  -2 -14   1  907.11  104.79
  -2  14   1 1036.70  125.59
   2  14  -1 1047.40  104.79
  -1 -14   1  150.68   75.29
   1 -14  -1   12.50   83.09
  -1 -14   1  173.08   71.79
   1 -14  -1   50.59   77.49
   1  14  -1   37.80   79.69
  -1  14   1  181.28   80.19
   0 -14   1  348.07   76.19
   0 -14  -1  307.27   84.59
   0 -14  -1  281.07   86.89
   0 -14   1  435.76   87.49
   0 -14  -1  465.75   83.69
   0  14  -1  386.06   84.49
   0  14   1  111.39   92.59
  -1 -14  -1  145.29   74.99
   1 -14   1   97.29   71.09
  -1 -14  -1   27.60   71.09
   1 -14   1  220.38   78.89
  -1  14  -1   52.09   78.99
  10   0  -2    0.80   69.49
 -10   0   2   56.19   78.09
 -10   0   2  -12.90   72.99
 -10   0   2   32.40   70.79
  -9   0   2    3.10   55.49
  -9   0   2  -14.70   55.99
   9   0  -2   -2.00   63.99
   8   0  -2  519.75   39.10
  -8   0   2  577.34   70.49
  -8   0   2  572.34   69.59
   8   0  -2  592.64   68.19
  -7   0   2  -39.00   34.50
   7   0  -2   20.00   38.70
   7   0  -2   29.40   38.70
   7   0  -2   61.19   40.00
  -7   0   2  -14.70   36.10
   6   0  -2 3486.75  138.09
  -6   0   2 3542.65  134.99
  -6   0   2 3508.35  135.89
   6   0  -2 3629.14  127.19
  -6   0   2 3656.83  133.89
   6   0  -2 3476.25  130.39
   6   0  -2 3522.85  135.19
  -5   0   2   -7.80   26.10
  -5   0   2   -5.10   28.00
   5   0  -2    9.60   25.10
   5   0  -2  -11.70   22.50
  -5   0   2  -19.40   29.50
   5   0  -2   10.40   18.70
  -5   0   2   -0.90   26.90
  -5   0   2  -48.10   26.40
   5   0  -2  -21.50   27.50
   5   0  -2    3.30   31.30
   4   0  -2 3523.35  125.39
  -4   0   2 3649.33  123.59
  -4   0   2 3771.92  129.79
  -4   0   2 3461.65  119.69
   4   0  -2 3505.75  118.69
  -4   0   2 3371.46  119.99
   4   0  -2 3593.74  125.29
   4   0  -2 3729.13  119.19
   4   0  -2 3495.35  114.49
  -4   0   2 3752.92  125.19
   3   0  -2   -0.40   15.50
   3   0  -2  -17.30   17.50
  -3   0   2  -16.30   20.80
  -3   0   2    3.90   17.10
   3   0  -2    7.80   14.70
   3   0  -2  -12.20   21.00
  -3   0   2    7.20   18.80
  -3   0   2    3.00   18.70
   2   0  -2 1630.24   56.69
  -2   0   2 1640.94   60.49
  -2   0   2 1548.15   61.59
   2   0  -2 1512.25   63.49
  -2   0   2 1599.24   60.19
   2   0  -2 1578.94   62.79
   2   0  -2 1608.04   57.09
   2   0  -2 1633.54   61.49
  -2   0   2 1573.64   56.59
  -2   0   2 1546.55   56.19
  -1   0   2   -6.20    7.20
  -1   0   2   16.40   12.80
  -1   0   2   -5.20   12.90
  -1   0   2   17.40   13.50
   1   0  -2   -3.00   13.40
  -1   0   2   -6.70    9.30
   1   0  -2   12.70   14.80
   1   0  -2   -1.10   12.50
  -1   0   2   10.90   10.40
   1   0  -2   10.70   10.40
   0   0   2 1293.37   45.20
   0   0  -2 1301.17   39.30
   0   0  -2 1291.47   41.20
   0   0  -2 1297.67   45.20
   0   0   2 1285.97   40.80
  -1   0  -2    1.10    5.00
  -1   0  -2   -8.60    7.70
  -1   0  -2   -6.50   12.20
  -1   0  -2    1.50    5.10
   2   0   2 1782.82   57.29
  -2   0  -2 1690.33   57.19
  -2   0  -2 1735.43   55.79
  -2   0  -2 1764.22   55.79
  -3   0  -2   16.80   14.20
  -3   0  -2   26.30   10.80
  -3   0  -2   -5.90   13.50
   3   0   2   19.80   14.00
   3   0   2   -3.60    8.00
  -3   0  -2    5.40   14.50
   3   0   2    1.80    7.90
  -4   0  -2 1031.10   54.29
  -4   0  -2 1012.00   50.59
   4   0   2  975.80   37.30
  -4   0  -2  980.60   51.39
  -4   0  -2 1006.90   37.60
   4   0   2  988.20   48.30
   4   0   2 1003.30   38.50
  -4   0  -2  924.81   51.69
  -5   0  -2  -17.30   25.40
  -5   0  -2  -44.90   27.50
  -5   0  -2   -0.70   24.30
  -5   0  -2   -5.50   11.00
   5   0   2   -3.00   13.20
  -5   0  -2   23.20   26.30
   5   0   2   27.70   22.60
   6   0   2  564.64   32.00
  -6   0  -2  655.73   71.29
  -6   0  -2  673.03   56.09
   6   0   2  622.84   56.89
  -6   0  -2  566.94   54.89
  -7   0  -2  -24.20   35.00
  -7   0  -2   -7.70   49.50
  -7   0  -2  -30.40   37.10
  -8   0  -2  261.77   58.59
  -8   0  -2   75.29   60.89
  -8   0  -2   90.79   53.79
  -9   0  -2  -60.59   59.99
  -9   0  -2  -19.40   59.89
  -9   0  -2  -99.79   71.49
  10  -1  -2  336.77   80.19
 -10  -1   2  394.66   85.89
 -10  -1   2  361.96   84.59
 -10   1   2  340.17   76.19
  10   1  -2  248.18   77.99
 -10   1   2  389.86   88.29
  -9  -1   2  222.28   66.39
  -9  -1   2  257.27   67.49
   9  -1  -2  256.47   73.79
  -9   1   2  211.98   69.69
   9   1  -2  167.38   73.39
  -9   1   2  210.78   77.79
  -9   1   2  438.86   69.19
  -8  -1   2   62.89   54.19
  -8  -1   2   -9.10   52.59
   8  -1  -2   41.80   29.20
   8  -1  -2   28.50   51.99
   8   1  -2   10.20   49.00
  -8   1   2    4.00   53.19
  -8   1   2   44.10   51.69
  -7  -1   2  353.76   62.99
   7  -1  -2  386.16   43.40
  -7  -1   2  426.46   53.29
   7  -1  -2  343.27   53.79
  -7  -1   2  372.56   52.79
   7  -1  -2  396.56   49.70
   7   1  -2  478.45   49.80
   7   1  -2  387.16   27.90
  -7   1   2  410.66   54.69
   7   1  -2  421.96   54.09
   7   1  -2  349.37   49.40
  -7   1   2  378.26   52.19
  -6  -1   2  117.69   35.60
   6  -1  -2   78.59   33.00
  -6  -1   2  130.39   36.20
   6  -1  -2   73.69   39.90
  -6  -1   2   85.69   35.90
   6  -1  -2   67.69   39.10
   6  -1  -2   66.99   34.80
   6  -1  -2   63.19   28.30
   6   1  -2   97.59   19.40
  -6   1   2   74.79   33.80
  -6   1   2  103.69   34.90
   6   1  -2   40.90   31.00
  -6   1   2   88.79   49.70
   6   1  -2   28.30   37.50
   6   1  -2   41.60   35.00
   6   1  -2  117.59   36.60
  -6   1   2  130.49   38.10
  -5  -1   2  294.37   36.50
   5  -1  -2  277.77   31.30
   5  -1  -2  259.37   40.90
   5  -1  -2  303.77   36.10
  -5  -1   2  239.18   37.40
   5  -1  -2  290.37   35.50
  -5  -1   2  287.77   43.10
   5  -1  -2  257.27   39.90
  -5  -1   2  288.57   37.20
  -5  -1   2  303.27   40.40
  -5   1   2  309.77   43.30
   5   1  -2  257.67   33.80
  -5   1   2  294.67   36.80
   5   1  -2  254.67   39.60
   5   1  -2  316.87   38.70
  -5   1   2  246.08   38.20
   5   1  -2  250.27   28.80
  -5   1   2  262.07   36.50
  -5   1   2  308.77   40.00
   5   1  -2  293.57   32.60
  -4  -1   2  295.67   31.60
  -4  -1   2  368.26   40.70
   4  -1  -2  259.17   35.30
   4  -1  -2  347.07   35.80
  -4  -1   2  249.38   30.30
   4  -1  -2  277.67   35.70
  -4  -1   2  365.46   40.60
  -4  -1   2  271.97   31.80
  -4   1   2  343.97   41.10
   4   1  -2  274.17   35.30
   4   1  -2  260.87   32.10
  -4   1   2  322.17   37.00
  -4   1   2  255.67   31.50
  -4   1   2  303.87   34.70
  -4   1   2  237.98   30.70
   4   1  -2  263.47   27.30
   4   1  -2  305.57   35.20
  -3  -1   2  980.80   48.00
   3  -1  -2  896.41   52.49
   3  -1  -2 1007.70   45.40
  -3  -1   2 1036.60   54.69
  -3  -1   2  983.20   47.20
  -3  -1   2  976.30   50.39
   3  -1  -2  939.81   51.69
   3  -1  -2  962.30   45.00
   3  -1  -2 1010.10   45.40
  -3   1   2  890.71   48.60
   3   1  -2  898.11   49.10
   3   1  -2  877.91   50.99
   3   1  -2  955.90   50.59
  -3   1   2  990.80   51.29
  -3   1   2  971.50   46.60
  -3   1   2 1001.90   57.89
  -3   1   2 1010.00   47.10
   3   1  -2 1049.89   43.80
   2  -1  -2  925.51   39.50
  -2  -1   2  842.62   39.30
  -2  -1   2  840.52   38.90
   2  -1  -2  838.02   41.30
  -2  -1   2  899.21   46.10
   2  -1  -2  904.11   38.10
   2  -1  -2  818.42   42.50
   2  -1  -2  878.11   43.30
  -2  -1   2  912.71   40.90
  -2  -1   2  898.11   43.80
  -2   1   2  815.72   38.00
   2   1  -2  790.92   43.90
  -2   1   2  867.21   44.10
  -2   1   2  859.61   41.40
  -2   1   2  850.41   37.70
   2   1  -2  924.81   39.10
   2   1  -2  867.71   47.70
   2   1  -2  908.91   38.00
  -2   1   2  852.31   43.30
   2   1  -2  786.12   41.70
   1  -1  -2 1192.38   43.70
   1  -1  -2 1196.28   48.60
  -1  -1   2 1199.98   46.40
  -1  -1   2 1211.38   43.20
   1  -1  -2 1245.08   41.20
  -1  -1   2 1170.58   40.80
  -1  -1   2 1144.79   42.00
  -1  -1   2 1238.98   48.00
   1  -1  -2 1155.78   44.40
   1   1  -2 1209.68   43.20
   1   1  -2 1166.68   48.70
   1   1  -2 1129.89   42.90
  -1   1   2 1227.28   43.30
   1   1  -2 1204.08   46.80
  -1   1   2 1179.88   40.10
  -1   1   2 1191.08   47.10
   1   1  -2 1128.79   46.20
  -1   1   2 1246.58   43.20
   1   1  -2 1179.38   40.70
   0  -1   2  662.93   26.60
   0  -1   2  630.44   20.10
   0  -1   2  638.04   27.20
   0  -1   2  654.63   31.20
   0  -1  -2  605.24   29.30
   0  -1   2  589.94   25.00
   0  -1  -2  624.74   25.90
   0   1  -2  616.94   20.10
   0   1  -2  630.14   27.90
   0   1  -2  623.24   32.00
   0   1  -2  639.14   25.80
   0   1  -2  651.93   28.30
   1  -1   2  387.56   25.70
   1  -1   2  401.16   18.90
   1  -1   2  366.36   18.80
   1  -1   2  370.96   13.90
  -1   1  -2  383.26   26.80
  -1   1  -2  391.66   14.00
  -1   1  -2  378.76   22.20
  -1   1  -2  378.96   21.70
  -2  -1  -2  770.12   27.90
   2  -1   2  770.92   29.70
  -2  -1  -2  823.32   36.40
   2  -1   2  782.92   29.40
   2  -1   2  770.12   30.70
  -2  -1  -2  731.33   28.00
  -2   1  -2  813.92   34.60
  -2   1  -2  681.43   44.30
  -2   1  -2  791.72   34.10
  -2   1  -2  760.32   30.10
  -2   1  -2  761.42   33.80
  -3  -1  -2   29.40   20.00
   3  -1   2   40.00   13.70
  -3  -1  -2   42.30    8.20
   3  -1   2   52.39   14.10
  -3  -1  -2   43.40   14.20
   3   1   2   58.99   19.60
  -3   1  -2   35.70   17.40
  -3   1  -2   46.90   15.00
  -3   1  -2   39.60   14.30
  -3   1  -2   11.50   17.80
  -3   1  -2   25.10   20.20
   4  -1   2 1309.07   59.29
  -4  -1  -2 1482.75   61.09
  -4  -1  -2 1349.86   63.19
  -4  -1  -2 1402.46   63.49
  -4  -1  -2 1446.46   64.19
   4  -1   2 1475.75   58.49
   4  -1   2 1411.36   53.59
  -4   1  -2 1383.16   70.69
  -4   1  -2 1539.15   71.49
   4   1   2 1473.95   61.09
  -4   1  -2 1458.35   63.29
  -4   1  -2 1477.65   55.09
  -4   1  -2 1498.25   67.39
  -5  -1  -2  173.08   32.10
   5  -1   2  206.28   27.70
  -5  -1  -2  234.58   35.60
  -5  -1  -2  173.78   32.60
  -5  -1  -2  224.78   31.90
   5  -1   2  245.58   28.00
   5  -1   2  145.29   27.10
   5   1   2  157.08   29.20
  -5   1  -2  129.89   36.50
  -5   1  -2  208.38   35.90
  -5   1  -2  175.68   31.80
  -5   1  -2  158.18   39.60
  -5   1  -2  182.68   32.30
  -5   1  -2  187.98   22.10
  -6  -1  -2  846.62   68.69
  -6  -1  -2  889.71   76.99
   6  -1   2  788.72   47.40
  -6  -1  -2  807.42   62.79
   6  -1   2  860.21   55.29
  -6  -1  -2  800.12   61.89
   6   1   2  928.01   65.79
  -6   1  -2  828.22   71.89
  -6   1  -2  716.53   61.99
  -6   1  -2  860.71   40.60
  -6   1  -2  827.62   58.59
   7  -1   2  779.42   47.20
  -7  -1  -2  810.62   71.69
  -7  -1  -2  883.41   74.19
  -7   1  -2  713.23   64.49
  -7   1  -2  676.63   67.69
  -7   1  -2  853.11   85.89
  -8  -1  -2  126.99   57.09
  -8  -1  -2   -9.50   48.70
  -8   1  -2   54.39   55.49
  -8   1  -2   71.59   48.70
  -8   1  -2   61.99   57.99
  -9  -1  -2  553.64  103.99
  -9  -1  -2  697.93   96.19
  -9  -1  -2  636.34   79.89
  -9   1  -2  506.65   86.29
  -9   1  -2  829.12   95.59
  10  -2  -2  152.08   77.19
 -10  -2   2   98.29   78.49
 -10  -2   2  110.39   76.99
 -10   2   2   22.60   69.59
 -10   2   2  -78.49   73.89
   9  -2  -2  709.83   83.09
  -9  -2   2  705.13   88.29
  -9  -2   2  645.44   83.79
  -9   2   2  800.62   98.49
  -9   2   2  819.82   91.19
   9   2  -2  826.82   83.99
   8  -2  -2   52.79   32.50
  -8  -2   2  -49.00   52.89
  -8  -2   2   68.99   52.69
   8  -2  -2   53.59   60.29
   8   2  -2  151.28   56.59
   8   2  -2   86.09   47.30
  -8   2   2   79.39   58.69
  -8   2   2  -55.59   45.60
  -7  -2   2  885.41   73.89
   7  -2  -2  830.22   77.49
   7  -2  -2  803.32   57.39
  -7  -2   2  930.31   76.49
  -7  -2   2  765.12   73.89
   7   2  -2  790.92   69.59
   7   2  -2  825.22   75.29
   7   2  -2  818.62   66.09
  -7   2   2  865.51   68.99
  -7   2   2  824.32   73.19
  -6  -2   2   21.90   33.50
   6  -2  -2   -7.20   27.00
   6  -2  -2  -15.00   38.40
   6  -2  -2   10.40   32.50
  -6  -2   2   70.49   35.70
   6  -2  -2   43.20   33.70
   6  -2  -2   -1.30   39.40
  -6  -2   2  106.29   30.90
   6   2  -2   36.80   29.30
  -6   2   2   80.39   47.20
  -6   2   2   44.90   45.80
  -6   2   2    9.40   34.00
  -6   2   2   29.20   30.50
   6   2  -2   38.90   14.10
   6   2  -2  -24.80   34.30
   6   2  -2   39.50   29.90
  -6   2   2   31.40   34.30
  -5  -2   2   42.30   31.60
   5  -2  -2   24.50   26.00
   5  -2  -2   31.00   26.20
  -5  -2   2   45.40   30.20
   5  -2  -2   47.60   35.10
  -5  -2   2   14.90   36.70
   5  -2  -2   42.30   33.80
  -5  -2   2   48.80   28.90
  -5   2   2    8.20   29.60
   5   2  -2   43.70   16.40
   5   2  -2   42.50   28.30
  -5   2   2   63.49   31.20
   5   2  -2   31.20   34.10
  -5   2   2    6.50   31.30
  -5   2   2  110.79   34.20
   5   2  -2   57.69   24.60
  -5   2   2   49.10   29.90
   5   2  -2   24.50   25.90
  -4  -2   2  457.75   52.39
   4  -2  -2  484.65   49.00
  -4  -2   2  437.96   45.00
  -4  -2   2  537.05   44.50
  -4  -2   2  481.25   45.80
  -4  -2   2  503.55   39.10
   4  -2  -2  550.44   52.09
   4  -2  -2  583.74   40.70
   4  -2  -2  520.85   40.70
   4  -2  -2  542.95   52.89
   4   2  -2  527.95   40.90
   4   2  -2  445.76   37.20
   4   2  -2  492.75   42.60
  -4   2   2  567.14   44.20
  -4   2   2  602.74   46.10
  -4   2   2  500.65   46.80
   4   2  -2  505.85   48.10
  -4   2   2  560.34   49.90
  -3  -2   2 2138.29   76.09
  -3  -2   2 2122.89   81.69
   3  -2  -2 1837.92   84.59
  -3  -2   2 2086.89   85.79
   3  -2  -2 1890.81   93.19
   3  -2  -2 2237.28   76.69
   3  -2  -2 2294.67   77.89
  -3  -2   2 2175.18   85.59
  -3   2   2 2101.79   70.89
  -3   2   2 2062.79   79.79
  -3   2   2 2096.69   79.89
   3   2  -2 2182.18   78.59
  -3   2   2 2347.27   82.79
  -3   2   2 2155.68   77.99
   3   2  -2 2276.57   76.59
  -2  -2   2  143.99   19.70
   2  -2  -2  140.09   22.10
  -2  -2   2  140.39   20.10
   2  -2  -2  160.28   18.70
  -2  -2   2  175.88   24.90
  -2  -2   2  150.38   23.20
   2  -2  -2  151.28   19.60
   2  -2  -2  150.98   22.70
   2  -2  -2  185.98   25.90
   2   2  -2  175.08   24.70
  -2   2   2  156.38   19.50
  -2   2   2  172.28   15.80
   2   2  -2  156.28   20.30
  -2   2   2  134.89   18.60
  -2   2   2  155.88   22.20
   2   2  -2  182.28   19.60
   2   2  -2  197.38   23.70
   2   2  -2  158.18   27.30
  -2   2   2  153.08   21.50
  -2   2   2  152.08   21.50
  -1  -2   2 5218.08  153.18
   1  -2  -2 5478.15  150.78
   1  -2  -2 5229.98  152.28
  -1  -2   2 5092.99  152.38
  -1  -2   2 5070.59  154.38
  -1  -2   2 5325.77  156.38
  -1  -2   2 5029.40  149.59
   1  -2  -2 5037.20  155.28
   1  -2  -2 5004.80  144.29
   1  -2  -2 5002.30  155.58
  -1   2   2 5129.09  150.78
   1   2  -2 5035.90  153.68
   1   2  -2 5141.79  149.59
  -1   2   2 5283.87  154.58
  -1   2   2 4993.20  144.49
   1   2  -2 5148.29  156.48
  -1   2   2 5167.88  149.49
  -1   2   2 5119.49  147.69
   1   2  -2 5286.57  152.68
   1   2  -2 5279.17  155.58
  -1   2   2 5255.37  155.38
   0  -2  -2   10.10   12.00
   0  -2   2    6.70    7.30
   0  -2  -2    5.50    6.70
   0  -2   2    7.50   15.00
   0  -2   2   21.40   14.00
   0  -2   2   10.10   12.40
   0  -2  -2    8.50   14.80
   0  -2   2    9.80   13.60
   0  -2  -2    4.30    8.00
   0  -2  -2   12.40    7.80
   0   2  -2    2.40   15.00
   0   2  -2   22.00   15.00
   0   2  -2   14.20   13.50
   0   2   2    4.00   11.60
   0   2  -2    7.10   16.20
   1  -2   2 4430.16  128.89
   1  -2   2 4692.73  138.59
   1  -2   2 4638.54  135.59
   1  -2   2 4573.44  135.59
  -1  -2  -2 4374.96  134.69
  -1   2  -2 4771.82  138.89
  -1   2  -2 4422.96  136.99
  -1   2  -2 4746.23  136.99
  -1   2  -2 4625.64  138.99
  -2  -2  -2   21.70    9.90
   2  -2   2   56.19   10.10
   2  -2   2   33.40   13.80
  -2  -2  -2   21.50    8.80
  -2  -2  -2   30.10   18.20
   2  -2   2   18.60   17.40
   2  -2   2   22.70   13.80
  -2  -2  -2   28.60    9.30
  -2   2  -2   39.10   16.50
  -2   2  -2   19.40   14.60
  -2   2  -2   28.40   15.20
  -2   2  -2   42.50   16.40
  -3  -2  -2 3297.27  102.79
  -3  -2  -2 3196.38  100.69
   3  -2   2 3210.68  102.09
  -3  -2  -2 3246.68   91.39
  -3  -2  -2 3395.86  102.09
   3  -2   2 3216.78  104.39
   3  -2   2 3258.37  100.49
  -3   2  -2 3276.67  111.69
  -3   2  -2 3318.37  105.89
  -3   2  -2 3101.39  107.69
  -3   2  -2 3239.08  101.39
  -3   2  -2 3229.28  107.99
  -4  -2  -2  667.43   41.50
  -4  -2  -2  682.03   49.50
   4  -2   2  737.43   39.10
   4  -2   2  682.13   43.70
  -4  -2  -2  691.03   41.50
  -4  -2  -2  714.43   49.90
  -4   2  -2  790.22   54.59
  -4   2  -2  674.23   41.40
  -4   2  -2  714.23   53.39
  -4   2  -2  662.23   50.39
   4   2   2  679.33   44.60
  -4   2  -2  695.23   47.90
   5  -2   2  272.07   31.30
   5  -2   2  208.98   29.90
  -5  -2  -2  235.88   33.10
  -5  -2  -2  252.37   34.10
  -5  -2  -2  229.38   36.80
  -5  -2  -2  294.77   37.20
   5  -2   2  236.08   32.50
  -5   2  -2  211.38   31.40
  -5   2  -2  217.58   27.40
   5   2   2  243.98   34.40
  -5   2  -2  208.28   40.20
  -5   2  -2  240.08   36.50
  -5   2  -2  227.58   42.30
  -5   2  -2  268.77   36.70
   6  -2   2   18.10   27.10
  -6  -2  -2  -27.80   29.70
  -6  -2  -2   32.30   45.30
  -6  -2  -2   31.00   35.10
   6  -2   2  -49.10   26.80
  -6  -2  -2  -24.20   32.90
  -6   2  -2  -35.60   34.20
  -6   2  -2   21.70   35.00
  -6   2  -2   61.59   23.70
  -6   2  -2   11.80   30.30
  -7  -2  -2   60.29   43.50
  -7  -2  -2  -67.39   33.70
   7  -2   2   46.60   30.20
  -7  -2  -2   24.50   46.80
  -7   2  -2   31.40   42.60
  -7   2  -2  -30.90   34.50
  -7   2  -2   31.40   52.89
  -8  -2  -2   44.20   59.89
  -8  -2  -2   19.70   47.70
   8  -2   2  -51.09   32.40
  -8   2  -2  -66.69   60.49
  -8   2  -2   92.59   59.89
  -9  -2  -2  -39.30   60.29
  -9  -2  -2  -82.59   73.29
  -9   2  -2  -33.40   71.09
  -9   2  -2   79.69   73.79
 -10  -3   2  175.18   80.79
  10  -3  -2  126.59   79.69
 -10  -3   2  216.48   86.59
 -10   3   2   49.50   84.59
 -10   3   2  314.67   76.29
   9  -3  -2  136.09   66.59
  -9  -3   2   51.89   65.29
   9  -3  -2   95.79   43.50
  -9  -3   2   57.49   64.59
   9   3  -2   74.29   62.49
  -9   3   2  192.08   71.39
  -9   3   2  109.89   65.59
   8  -3  -2  244.88   69.39
  -8  -3   2  153.68   61.69
  -8  -3   2  266.67   64.29
   8  -3  -2  255.97   43.10
  -8   3   2  290.77   67.69
  -8   3   2  214.08   55.69
   8   3  -2  154.88   49.50
  -7  -3   2  307.27   51.49
  -7  -3   2  299.27   50.79
   7  -3  -2  391.66   57.29
   7  -3  -2  329.67   44.20
  -7  -3   2  286.97   46.80
  -7   3   2  291.67   55.59
   7   3  -2  219.58   44.60
   7   3  -2  362.66   53.49
  -7   3   2  317.47   46.30
  -6  -3   2    6.10   35.40
   6  -3  -2   81.59   42.70
   6  -3  -2   60.39   31.80
   6  -3  -2   46.50   42.50
  -6  -3   2   86.39   29.10
   6   3  -2   21.30   12.00
   6   3  -2   23.00   12.00
   6   3  -2  -15.80   24.90
   6   3  -2  -10.30   34.70
  -6   3   2   11.90   29.30
  -6   3   2  -28.30   34.30
   6   3  -2   54.89   30.70
  -5  -3   2  672.23   55.69
   5  -3  -2  517.25   48.10
  -5  -3   2  551.84   55.79
  -5  -3   2  560.24   45.20
  -5  -3   2  577.84   66.09
   5  -3  -2  601.84   49.80
   5  -3  -2  589.24   63.79
  -5  -3   2  519.65   56.99
   5  -3  -2  637.24   56.09
   5  -3  -2  517.55   59.09
   5   3  -2  561.54   51.19
   5   3  -2  604.44   47.60
  -5   3   2  594.04   53.89
  -5   3   2  606.24   47.30
   5   3  -2  661.93   57.19
   5   3  -2  635.14   45.90
  -5   3   2  550.84   60.19
  -5   3   2  426.76   54.09
   4  -3  -2  -14.00   22.40
   4  -3  -2   -5.50   22.80
  -4  -3   2   -7.30   29.50
   4  -3  -2    7.70   26.40
  -4  -3   2    5.50   25.90
  -4  -3   2  -12.90   23.40
   4  -3  -2   40.70   31.20
   4  -3  -2   -5.10   24.50
  -4  -3   2   43.60   26.00
  -4  -3   2  -22.20   17.90
  -4   3   2    6.60   21.70
  -4   3   2  -11.80   23.50
  -4   3   2  -12.20   25.50
   4   3  -2   22.10   28.30
  -4   3   2   -4.40   27.60
   4   3  -2   10.90   21.20
   4   3  -2    7.80   23.50
   3  -3  -2   70.09   21.40
   3  -3  -2   47.90   20.80
  -3  -3   2    1.40   24.80
   3  -3  -2   23.10   26.70
  -3  -3   2   47.30   22.60
  -3  -3   2    5.30   22.20
  -3  -3   2   26.00   21.10
   3  -3  -2   19.80   26.50
   3  -3  -2   14.40   23.90
  -3   3   2   30.80   21.20
  -3   3   2  -12.00   20.10
  -3   3   2   39.80   25.10
   3   3  -2  -14.40   23.70
   3   3  -2   19.00   20.00
   3   3  -2    1.10   17.30
  -3   3   2   21.70   18.70
   3   3  -2   24.80   17.90
  -3   3   2   34.00   14.40
   3   3  -2  -18.70   27.60
  -2  -3   2  488.35   39.50
   2  -3  -2  528.35   25.20
   2  -3  -2  526.45   41.90
  -2  -3   2  493.85   35.60
   2  -3  -2  501.05   39.10
  -2  -3   2  532.85   37.80
   2  -3  -2  524.65   40.50
  -2   3   2  538.65   25.70
   2   3  -2  485.55   43.70
   2   3  -2  489.35   31.60
   2   3  -2  534.95   33.10
  -2   3   2  494.15   35.90
   2   3  -2  542.45   32.70
  -2   3   2  556.24   34.70
   2   3  -2  500.05   40.50
  -2   3   2  473.65   42.60
  -1  -3   2  186.88   23.20
   1  -3  -2  122.89   23.60
   1  -3  -2  147.59   17.60
   1  -3  -2  167.88   15.60
  -1  -3   2  142.59   20.90
  -1  -3   2  160.08   20.40
   1  -3  -2  161.88   19.50
  -1  -3   2  136.59   17.60
   1  -3  -2  178.08   21.70
  -1  -3   2  144.99   21.90
   1   3  -2  197.78   23.80
   1   3  -2  121.29   22.60
  -1   3   2  157.78   13.30
  -1   3   2  162.48   19.60
   1   3  -2  162.48   22.90
   1   3  -2  148.69   19.90
  -1   3   2  139.89   17.80
   1   3  -2  121.99   22.40
  -1   3   2  124.29   19.10
  -1   3   2  139.59   21.20
  -1   3   2  146.49   16.30
   0  -3   2 1092.69   47.70
   0  -3  -2 1144.59   40.20
   0  -3  -2 1078.29   40.30
   0  -3   2 1107.69   45.90
   0  -3   2 1042.10   46.10
   0  -3  -2 1121.59   47.80
   0  -3  -2 1129.39   41.30
   0  -3  -2 1131.29   42.90
   0  -3   2 1104.59   46.80
   0   3   2 1071.29   36.30
   0   3   2 1120.09   41.50
   0   3  -2 1037.60   47.70
   0   3  -2 1064.89   45.70
   0   3  -2 1068.09   47.80
   0   3   2 1080.89   47.30
   0   3   2 1138.79   36.40
   0   3  -2 1063.29   46.80
   0   3  -2 1021.40   48.30
   1  -3   2 2850.21   89.29
  -1  -3  -2 2682.73   80.39
   1  -3   2 2635.24   95.09
  -1  -3  -2 2711.23   80.29
  -1  -3  -2 2664.63   86.39
  -1  -3  -2 2817.72   81.69
  -1   3  -2 2616.64   90.49
  -1   3  -2 2745.83   90.69
   1   3   2 2701.13   86.69
  -1   3  -2 2764.22   90.59
  -1   3  -2 2316.07  106.79
  -1   3  -2 2681.23   88.89
  -2  -3  -2 3223.38   99.39
  -2  -3  -2 3348.66   99.99
   2  -3   2 3267.87  104.59
   2  -3   2 3289.87   98.39
   2  -3   2 3261.57  108.79
  -2  -3  -2 3367.46  116.29
   2  -3   2 3411.26  109.19
   2  -3   2 3311.07  106.89
  -2  -3  -2 3324.57   98.49
  -2   3  -2 3297.07  107.59
  -2   3  -2 3125.69  113.79
  -2   3  -2 3261.97  108.89
  -2   3  -2 3146.99  107.89
   3  -3   2  193.98   19.50
   3  -3   2  190.48   25.80
   3  -3   2  175.58   25.70
  -3  -3  -2  197.38   22.10
  -3  -3  -2  257.47   22.30
  -3  -3  -2  183.88   29.80
  -3  -3  -2  158.08   20.20
  -3  -3  -2  191.08   14.30
  -3   3  -2  215.18   26.50
  -3   3  -2  200.98   29.10
  -3   3  -2  174.58   29.90
  -3   3  -2  207.98   28.60
  -4  -3  -2 1508.55   64.09
  -4  -3  -2 1468.95   57.99
   4  -3   2 1380.96   61.09
  -4  -3  -2 1420.36   71.39
   4  -3   2 1459.25   66.39
   4  -3   2 1449.15   58.59
  -4  -3  -2 1385.36   66.59
  -4   3  -2 1355.66   72.59
  -4   3  -2 1422.26   68.99
  -4   3  -2 1519.65   66.79
  -4   3  -2 1498.65   68.39
  -4   3  -2 1538.65   76.99
  -5  -3  -2  323.57   43.80
  -5  -3  -2  350.66   38.80
   5  -3   2  302.77   37.60
  -5  -3  -2  381.46   44.90
  -5  -3  -2  311.47   39.00
   5  -3   2  321.47   32.30
  -5   3  -2  364.56   44.10
  -5   3  -2  302.17   47.70
  -5   3  -2  346.47   46.60
  -5   3  -2  347.27   43.10
  -5   3  -2  351.46   36.90
  -6  -3  -2  380.26   41.90
  -6  -3  -2  362.96   43.10
   6  -3   2  447.66   52.39
  -6  -3  -2  316.77   48.90
   6  -3   2  418.96   51.19
   6  -3   2  367.76   40.90
  -6   3  -2  492.85   51.09
  -6   3  -2  452.65   53.19
  -6   3  -2  365.06   51.49
   7  -3   2  378.96   46.50
  -7  -3  -2  361.76   49.99
  -7  -3  -2  421.76   61.49
  -7  -3  -2  314.97   50.09
   7  -3   2  400.56   45.40
  -7   3  -2  392.36   61.79
  -7   3  -2  471.55   54.09
  -7   3  -2  335.47   66.59
  -8  -3  -2    3.90   50.89
   8  -3   2   43.00   40.60
  -8  -3  -2  103.39   61.59
  -8   3  -2   26.50   57.69
  -8   3  -2  -26.30   61.59
  -9  -3  -2  573.64   90.29
  -9  -3  -2  534.65   84.29
  -9   3  -2  536.45   86.09
  -9   3  -2  515.15   88.59
  -9  -4   2   65.29   68.09
   9  -4  -2   37.90   67.39
   9  -4  -2   -5.40   47.70
  -9  -4   2   35.00   65.59
  -9   4   2   46.50   66.29
  -9   4   2  -45.70   57.39
   9   4  -2  -72.69   58.09
   8  -4  -2 1005.20  107.39
  -8  -4   2 1026.70  105.29
   8  -4  -2 1171.38   83.59
  -8   4   2 1145.89   89.19
   8   4  -2 1044.30   87.79
   7  -4  -2   -3.10   50.49
  -7  -4   2  -14.50   42.70
  -7  -4   2  -22.30   37.10
   7  -4  -2  -23.30   37.10
   7   4  -2   11.10   39.00
  -7   4   2   11.30   38.90
  -7   4   2  -21.00   45.50
   7   4  -2    8.10   39.50
  -6  -4   2 2873.21  124.49
  -6  -4   2 3161.38  111.79
   6  -4  -2 2848.92  119.69
  -6  -4   2 2903.81  125.59
   6  -4  -2 2939.11  127.89
  -6   4   2 2881.61  123.79
   6   4  -2 3196.68  113.99
   6   4  -2 2952.80  109.69
   6   4  -2 3097.59   91.69
   6   4  -2 3048.90   90.59
   6   4  -2 2861.61  122.29
  -6   4   2 3014.50  116.09
  -5  -4   2   -1.20   37.30
   5  -4  -2  -59.69   28.40
   5  -4  -2  -17.70   28.20
   5  -4  -2   14.40   38.80
   5  -4  -2   12.70   33.10
  -5  -4   2    9.10   33.20
  -5  -4   2  -47.40   30.10
   5  -4  -2   14.80   37.70
  -5  -4   2    1.60   21.50
  -5  -4   2   24.10   31.60
   5   4  -2   -9.20   23.90
  -5   4   2  -11.30   33.40
   5   4  -2   -7.20   34.90
  -5   4   2  -25.30   27.70
  -5   4   2  -43.00   24.10
   5   4  -2  -54.89   32.40
  -5   4   2  -15.10   27.50
  -5   4   2  -27.40   30.00
   5   4  -2   -5.10   23.40
   5   4  -2   23.00   14.70
  -4  -4   2 2938.91  112.39
   4  -4  -2 2967.90  119.69
  -4  -4   2 3004.10  115.19
   4  -4  -2 3219.08  112.29
   4  -4  -2 2939.71  115.79
   4  -4  -2 2894.91  108.69
  -4  -4   2 3046.00  120.09
   4  -4  -2 2986.20  114.29
  -4  -4   2 2994.00  111.79
   4   4  -2 3162.18   97.49
   4   4  -2 3193.98  107.59
  -4   4   2 3089.99  111.29
   4   4  -2 2954.70  109.79
  -4   4   2 2966.10  117.59
  -4   4   2 2951.20  112.69
   4   4  -2 3021.90  116.69
   4   4  -2 2991.90  102.89
  -4   4   2 2935.21  101.79
  -4   4   2 2897.71  110.29
   3  -4  -2   31.20   26.60
   3  -4  -2   16.30   25.90
   3  -4  -2   31.20   22.10
  -3  -4   2   -9.60   22.70
  -3  -4   2    0.70   24.00
  -3  -4   2    0.40   26.00
  -3  -4   2    6.90   23.30
   3  -4  -2  -34.20   22.10
  -3  -4   2  -24.30   18.30
   3  -4  -2  -15.10   24.60
   3   4  -2  -16.30   18.90
  -3   4   2   35.40   24.70
  -3   4   2  -13.40   21.90
   3   4  -2   15.40   19.80
  -3   4   2  -46.10   20.60
   3   4  -2   -1.00   29.70
  -3   4   2   17.80   25.70
   3   4  -2   -5.40   16.20
   3   4  -2   15.00   15.60
   3   4  -2   31.10   29.30
   2  -4  -2 3995.20  116.39
  -2  -4   2 3946.41  128.69
  -2  -4   2 3859.51  128.49
  -2  -4   2 3826.72  128.19
   2  -4  -2 4126.69  138.89
   2  -4  -2 3645.14  129.39
   2  -4  -2 3986.60  123.79
  -2  -4   2 3699.63  124.79
  -2   4   2 3751.02  116.39
  -2   4   2 3909.21  127.99
  -2   4   2 3878.31  127.09
  -2   4   2 3634.84  132.19
   2   4  -2 3975.20  121.59
   2   4  -2 3612.74  127.59
   2   4  -2 3746.93  118.89
   2   4  -2 3790.32  131.49
   2   4  -2 3757.62  122.89
   1  -4  -2  134.09   21.80
  -1  -4   2  112.39   26.10
  -1  -4   2  110.09   23.20
  -1  -4   2   92.99   22.40
  -1  -4   2  114.99   22.80
   1  -4  -2  114.99   14.90
  -1  -4   2  133.79   19.50
   1  -4  -2  141.09   22.90
   1  -4  -2  115.09   21.70
  -1   4   2  125.69   24.10
   1   4  -2  152.18   22.40
   1   4  -2  131.79   27.60
  -1   4   2   98.89   11.00
  -1   4   2  144.09   19.50
  -1   4   2  120.99   19.90
   1   4  -2  125.89   29.50
  -1   4   2  127.59   19.40
  -1   4   2   95.79   15.90
   0  -4  -2    0.40   13.30
   0  -4  -2   -3.40   14.20
   0  -4   2   31.10   22.30
   0  -4   2   15.50   18.90
   0  -4  -2   32.70   13.90
   0  -4  -2   26.00   23.70
   0  -4   2   13.60   15.20
   0  -4  -2   17.00   13.60
   0  -4   2   23.00   18.10
   0   4   2    7.40   16.40
   0   4  -2   15.90   18.30
   0   4   2   -3.60   11.40
   0   4   2    2.80   11.80
   0   4  -2   -6.60   15.50
   0   4   2   34.10   12.30
   0   4  -2    0.90   19.90
   0   4  -2    7.80   17.30
   1  -4   2  380.56   40.90
  -1  -4  -2  487.75   34.30
   1  -4   2  511.45   36.50
  -1  -4  -2  476.95   27.00
  -1  -4  -2  440.36   28.50
   1  -4   2  429.96   38.90
  -1  -4  -2  465.75   21.20
  -1  -4  -2  485.75   26.60
   1  -4   2  427.46   36.10
  -1   4  -2  475.45   36.80
  -1   4  -2  446.96   37.40
   1   4   2  466.55   33.00
  -1   4  -2  439.76   35.10
  -1   4  -2  456.05   39.80
  -2  -4  -2 1081.09   46.20
  -2  -4  -2 1115.99   45.50
   2  -4   2 1132.49   52.99
   2  -4   2 1109.99   53.99
  -2  -4  -2 1012.10   43.70
   2  -4   2 1145.29   53.09
  -2  -4  -2 1083.29   50.29
   2  -4   2 1084.99   56.79
  -2  -4  -2 1090.79   56.69
  -2   4  -2 1163.58   53.89
  -2   4  -2 1039.20   55.49
  -2   4  -2 1202.28   54.99
  -2   4  -2 1028.70   55.49
   3  -4   2  -14.70   21.20
  -3  -4  -2    6.50   24.30
  -3  -4  -2   10.10   18.50
   3  -4   2  -23.80   24.70
  -3  -4  -2   22.90   17.60
  -3  -4  -2   19.90   26.50
   3  -4   2  -13.90   23.80
  -3  -4  -2   24.10    9.30
   3  -4   2    9.40   22.70
   3  -4   2   18.80   15.60
  -3  -4  -2    4.50   11.20
  -3   4  -2   32.70   24.40
  -3   4  -2    6.70   26.20
  -3   4  -2   32.60   27.20
  -3   4  -2   32.70   26.80
  -3   4  -2   25.70   23.90
  -4  -4  -2 1211.08   68.89
  -4  -4  -2 1171.88   45.50
  -4  -4  -2 1045.40   57.79
   4  -4   2 1112.69   64.69
   4  -4   2 1143.69   65.39
   4  -4   2 1219.38   53.79
  -4  -4  -2 1183.28   69.79
  -4  -4  -2 1252.97   60.59
   4  -4   2 1163.28   58.39
  -4   4  -2 1011.10   63.29
  -4   4  -2 1226.78   72.69
  -4   4  -2 1241.98   70.89
  -4   4  -2 1165.88   64.19
  -4   4  -2 1275.57   64.19
  -5  -4  -2   51.49   42.40
   5  -4   2   79.99   30.10
  -5  -4  -2   86.99   22.00
  -5  -4  -2  104.09   33.30
   5  -4   2  143.69   35.80
  -5  -4  -2  105.49   40.20
  -5  -4  -2   89.49   31.50
   5  -4   2   67.69   25.90
  -5   4  -2  146.79   35.20
  -5   4  -2   90.19   38.00
  -5   4  -2   26.10   37.80
  -6  -4  -2  382.96   54.79
   6  -4   2  455.55   48.20
  -6  -4  -2  434.36   45.40
   6  -4   2  495.05   56.39
  -6   4  -2  374.36   47.00
  -6   4  -2  453.75   56.09
  -6   4  -2  517.15   59.99
  -7  -4  -2   15.90   53.69
  -7  -4  -2   32.10   40.60
   7  -4   2   47.50   39.90
  -7   4  -2  -41.50   49.30
  -7   4  -2   69.59   53.49
  -8  -4  -2  498.45   70.49
  -8  -4  -2  542.85   79.49
   8  -4   2  600.24   71.89
  -8   4  -2  499.05   81.59
  -8   4  -2  401.96   91.39
  -9  -4  -2  109.49   69.79
  -9  -4  -2  118.09   72.39
  -9   4  -2   93.39   76.09
  -9   4  -2   56.89   78.39
   9  -5  -2  270.37   73.69
  -9  -5   2  277.77   77.29
   9  -5  -2  167.78   62.09
  -9  -5   2  270.37   75.39
  -9   5   2  139.69   66.59
   9   5  -2  168.88   64.69
  -9   5   2  206.18   75.59
  -8  -5   2  112.59   66.59
   8  -5  -2  204.28   51.19
   8  -5  -2  108.89   80.49
  -8  -5   2  203.58   62.09
   8   5  -2  154.48   51.79
  -8   5   2  155.98   62.39
  -8   5   2   42.60   54.69
   7  -5  -2  498.25   72.09
  -7  -5   2  370.66   66.59
   7  -5  -2  440.56   58.09
  -7   5   2  465.25   52.39
  -7   5   2  385.36   68.99
   7   5  -2  513.05   56.59
   7   5  -2  411.86   51.39
   6  -5  -2  194.38   47.80
   6  -5  -2  154.78   44.40
  -6  -5   2  155.18   44.80
  -6  -5   2  124.49   43.10
  -6   5   2  165.38   37.30
  -6   5   2  204.98   47.70
   6   5  -2  167.38   18.70
   6   5  -2  181.48   45.80
   6   5  -2  134.09   38.40
   6   5  -2  143.39   28.40
  -5  -5   2 1094.09   82.39
  -5  -5   2 1001.60   71.89
   5  -5  -2 1169.88   68.99
   5  -5  -2 1024.20   80.19
  -5  -5   2 1082.39   72.09
   5  -5  -2  993.30   77.19
   5   5  -2  963.20   66.99
   5   5  -2 1113.09   70.99
  -5   5   2 1042.90   61.99
   5   5  -2 1265.47   65.89
  -5   5   2 1127.29   74.39
  -5   5   2 1114.29   72.29
   5   5  -2 1077.69   47.60
  -4  -5   2   15.20   31.60
   4  -5  -2   25.10   34.20
  -4  -5   2    2.20   34.60
   4  -5  -2  -38.50   26.40
  -4  -5   2   -5.10   30.90
   4  -5  -2   44.30   29.10
   4  -5  -2    8.50   35.00
   4  -5  -2  -37.40   31.40
  -4  -5   2   -0.60   29.40
  -4   5   2   16.90   23.70
  -4   5   2    3.90   28.70
   4   5  -2   20.40   24.10
  -4   5   2   30.90   29.80
   4   5  -2   -4.50   27.00
  -4   5   2   45.50   28.70
   4   5  -2   11.10   30.90
  -4   5   2   11.80   31.70
   4   5  -2   24.20   18.60
   3  -5  -2   73.79   20.60
   3  -5  -2  108.89   32.70
  -3  -5   2   79.09   28.20
  -3  -5   2  126.49   29.50
   3  -5  -2   79.89   33.70
   3  -5  -2   77.59   34.30
  -3  -5   2  106.69   31.60
   3  -5  -2  103.19   27.50
  -3  -5   2  118.39   31.60
  -3  -5   2  130.09   31.50
   3   5  -2   85.89   31.80
  -3   5   2   81.99   30.30
   3   5  -2  126.19   21.70
  -3   5   2  107.49   23.50
  -3   5   2   81.19   28.50
   3   5  -2   93.99   35.40
   3   5  -2  134.39   25.70
   3   5  -2  111.09   19.70
  -3   5   2   93.29   27.50
  -3   5   2  123.39   31.10
  -2  -5   2   21.60   23.90
   2  -5  -2    6.10   24.30
  -2  -5   2   52.99   26.30
  -2  -5   2   45.00   26.60
   2  -5  -2   13.80   28.60
   2  -5  -2    8.00   15.80
  -2  -5   2   12.70   23.40
   2  -5  -2    8.00   24.20
   2  -5  -2  -17.30   20.10
  -2  -5   2  -20.10   21.80
   2   5  -2   27.20   21.80
   2   5  -2   21.50   26.80
  -2   5   2   35.20   23.80
   2   5  -2    4.80   18.00
  -2   5   2    5.80   24.40
  -2   5   2   15.60   21.70
   2   5  -2    3.10   26.70
  -2   5   2   17.40   20.90
  -2   5   2   -7.40   17.00
  -1  -5   2  298.87   33.70
   1  -5  -2  321.07   31.60
  -1  -5   2  308.97   32.10
   1  -5  -2  285.77   26.90
  -1  -5   2  294.87   32.80
   1  -5  -2  241.68   33.80
  -1  -5   2  245.88   30.80
  -1  -5   2  310.77   33.70
   1  -5  -2  249.08   29.30
   1   5  -2  258.77   32.90
   1   5  -2  269.97   29.10
  -1   5   2  277.27   12.60
   1   5  -2  269.87   34.70
  -1   5   2  290.47   31.10
  -1   5   2  292.57   30.50
  -1   5   2  260.57   29.30
   1   5  -2  292.97   32.80
  -1   5   2  294.67   33.70
  -1   5   2  276.47   31.50
   1   5  -2  302.27   36.60
   0  -5   2  186.98   25.00
   0  -5  -2  194.68   24.40
   0  -5  -2  224.28   28.50
   0  -5  -2  216.28   23.50
   0  -5  -2  209.58   24.70
   0  -5  -2  167.68   23.80
   0  -5   2  194.98   27.90
   0  -5   2  250.37   30.00
   0   5  -2  170.88   25.90
   0   5   2  196.38   21.00
   0   5  -2  186.38   27.40
   0   5   2  225.38   24.80
   0   5  -2  179.38   23.90
   0   5   2  186.58   23.30
   0   5   2  159.08   26.60
   0   5  -2  190.88   31.30
   0   5  -2  256.57   28.70
  -1  -5  -2  976.40   44.30
  -1  -5  -2  948.21   51.79
  -1  -5  -2  961.50   50.89
   1  -5   2  895.01   50.19
   1  -5   2  861.71   55.39
  -1  -5  -2  932.51   36.70
   1  -5   2  915.41   52.69
  -1  -5  -2  908.61   44.20
   1  -5   2  966.90   51.09
  -1   5  -2  962.10   53.09
  -1   5  -2  885.91   60.19
  -1   5  -2  923.21   54.89
  -1   5  -2  983.00   51.29
   1   5   2  921.11   49.20
  -1   5  -2  947.21   53.89
   1   5   2  953.60   34.40
   1   5   2  921.01   35.70
  -2  -5  -2 1092.69   49.50
   2  -5   2 1118.69   57.29
   2  -5   2  992.10   59.79
  -2  -5  -2  977.50   50.19
  -2  -5  -2 1049.70   47.60
   2  -5   2  996.40   54.99
  -2  -5  -2  996.90   59.39
   2  -5   2  969.40   58.39
  -2   5  -2 1029.70   59.19
  -2   5  -2 1041.20   57.59
  -2   5  -2  999.00   57.49
  -2   5  -2 1023.70   56.49
   2   5   2  997.70   47.80
  -3  -5  -2  165.58   20.30
  -3  -5  -2  190.28   28.60
  -3  -5  -2  219.48   33.80
   3  -5   2  202.68   28.00
   3  -5   2  196.48   32.20
  -3  -5  -2  199.88   37.10
   3  -5   2  143.39   34.30
   3  -5   2  245.78   36.10
   3  -5   2  205.28   32.80
  -3   5  -2  305.87   39.50
  -3   5  -2  220.68   36.00
  -3   5  -2  209.88   36.20
  -3   5  -2  177.58   33.20
  -3   5  -2  262.97   35.20
   4  -5   2  587.94   41.20
   4  -5   2  501.65   53.29
  -4  -5  -2  562.14   47.70
  -4  -5  -2  573.14   58.49
   4  -5   2  531.75   47.50
  -4  -5  -2  540.15   59.19
   4  -5   2  507.85   57.49
  -4   5  -2  539.75   58.39
  -4   5  -2  598.24   55.79
  -4   5  -2  472.25   53.39
  -4   5  -2  518.65   56.89
  -4   5  -2  607.84   54.79
  -5  -5  -2  268.67   53.29
  -5  -5  -2  260.67   48.10
   5  -5   2  441.06   46.30
  -5  -5  -2  350.76   40.50
  -5  -5  -2  359.66   44.50
  -5  -5  -2  376.16   19.70
   5  -5   2  302.87   37.00
   5  -5   2  374.06   47.50
  -5   5  -2  337.07   48.90
  -5   5  -2  372.46   52.89
  -5   5  -2  408.86   50.59
  -6  -5  -2  299.27   45.50
  -6  -5  -2  312.97   30.10
  -6  -5  -2  261.77   55.39
   6  -5   2  465.35   52.49
   6  -5   2  361.56   45.70
   6  -5   2  283.57   48.30
  -6   5  -2  330.57   58.19
  -6   5  -2  445.76   55.19
  -6   5  -2  306.27   56.19
  -7  -5  -2  864.11   99.29
   7  -5   2  932.61   83.89
  -7   5  -2  887.31  104.59
  -7   5  -2 1008.30  101.99
  -8  -5  -2    4.00   57.69
   8  -5   2  -67.89   58.39
  -8  -5  -2   45.10   65.59
  -8   5  -2  112.09   69.89
  -8   5  -2  -25.10   64.79
  -9  -5  -2  694.33  100.59
  -9   5  -2  830.02  106.19
  -9  -6   2  682.03   92.59
  -9  -6   2  604.54   94.99
   9  -6  -2  646.44   90.39
   9  -6  -2  594.64   96.59
  -9   6   2  526.95   82.19
  -9   6   2  684.63   97.79
   8  -6  -2   43.60   60.19
   8  -6  -2  120.39   69.09
  -8  -6   2   95.99   66.29
  -8   6   2  -47.60   62.99
  -8   6   2   91.19   62.79
   8   6  -2   53.39   53.09
   7  -6  -2  488.25   68.09
   7  -6  -2  558.04   78.89
  -7  -6   2  624.74   77.69
  -7  -6   2  630.54   75.89
  -7   6   2  620.24   59.79
   7   6  -2  652.13   76.29
  -7   6   2  496.45   74.29
  -6  -6   2   85.49   49.99
   6  -6  -2  140.49   54.69
   6  -6  -2    4.40   42.00
  -6  -6   2   99.19   43.30
   6   6  -2  166.38   46.10
  -6   6   2   62.49   34.70
   6   6  -2   60.89   19.90
   6   6  -2   43.00   40.40
  -6   6   2   83.49   49.40
   5  -6  -2  -14.40   40.20
  -5  -6   2  -22.60   37.00
  -5  -6   2   16.70   38.60
   5  -6  -2   -5.50   40.30
   5   6  -2   -8.20   16.10
  -5   6   2   -2.10   26.50
  -5   6   2   23.90   38.20
   5   6  -2    2.30   31.50
   5   6  -2  -42.80   19.30
   5   6  -2  -24.00   38.50
  -4  -6   2   69.59   42.00
   4  -6  -2  150.18   40.10
   4  -6  -2  184.98   36.80
  -4  -6   2  154.68   37.50
   4  -6  -2   69.69   33.70
  -4  -6   2   66.59   35.60
  -4  -6   2   74.79   40.60
   4  -6  -2  119.49   39.90
  -4  -6   2   69.49   35.30
   4   6  -2   93.49   39.00
   4   6  -2  155.38   32.00
  -4   6   2  132.99   38.60
  -4   6   2  150.28   39.60
  -4   6   2  136.69   27.70
   4   6  -2   75.69   18.40
   4   6  -2   71.29   23.00
  -4   6   2   69.59   34.90
  -4   6   2   85.09   34.90
   3  -6  -2 1137.39   75.69
  -3  -6   2 1230.28   69.59
  -3  -6   2 1235.78   70.99
   3  -6  -2 1253.57   56.39
   3  -6  -2 1071.79   69.79
   3  -6  -2 1187.78   63.99
  -3  -6   2 1177.28   73.39
  -3  -6   2 1103.89   67.39
  -3  -6   2 1141.89   70.99
  -3   6   2 1314.97   67.19
  -3   6   2 1264.47   70.29
   3   6  -2 1119.19   73.69
  -3   6   2 1151.88   66.09
   3   6  -2 1293.47   62.29
  -3   6   2 1235.38   58.29
  -3   6   2 1269.57   70.99
   3   6  -2 1132.09   58.69
   3   6  -2 1185.48   50.69
   3   6  -2 1275.77   78.09
  -2  -6   2   13.30   25.40
  -2  -6   2   -9.30   26.40
  -2  -6   2   -4.40   25.40
   2  -6  -2  -21.50   26.70
   2  -6  -2   44.30   32.00
   2  -6  -2   11.20   19.50
   2  -6  -2   28.70   23.60
  -2  -6   2   -0.40   28.70
   2  -6  -2   -3.00   26.90
  -2  -6   2   10.10   28.20
   2   6  -2   27.40   30.50
   2   6  -2    9.80   30.60
   2   6  -2   14.80   23.20
  -2   6   2   19.60   26.30
  -2   6   2  -44.30   25.70
  -2   6   2  -24.90   26.10
   2   6  -2  -43.00   22.20
  -2   6   2  -22.80   22.60
  -1  -6   2 1921.81   76.59
   1  -6  -2 1775.32   82.89
   1  -6  -2 1793.72   67.69
   1  -6  -2 1836.82   78.09
  -1  -6   2 1677.33   72.69
  -1  -6   2 1843.12   78.69
  -1  -6   2 1765.12   77.29
  -1  -6   2 1905.21   80.09
   1  -6  -2 1802.82   73.69
   1   6  -2 1674.13   81.69
  -1   6   2 1771.12   78.99
  -1   6   2 1772.12   72.19
   1   6  -2 1764.32   78.69
   1   6  -2 1723.33   80.09
   1   6  -2 1804.42   75.19
   1   6  -2 1811.02   76.39
  -1   6   2 1711.03   70.79
  -1   6   2 1826.82   53.49
  -1   6   2 1811.62   73.69
   0  -6  -2   30.90   27.00
   0  -6  -2  -10.30   21.40
   0  -6   2   -6.20   24.70
   0  -6   2   11.50   27.20
   0  -6   2   15.40   26.10
   0  -6   2  -28.30   24.50
   0  -6  -2   19.50   20.20
   0   6   2  -25.40   14.50
   0   6   2   10.90   20.90
   0   6   2  -42.40   22.10
   0   6  -2   25.70   26.10
   0   6  -2   23.50   25.80
   0   6  -2  -32.40   21.90
   0   6   2   29.40   18.50
   0   6  -2  -26.10   26.10
   0   6  -2  -12.70   22.40
  -1  -6  -2 2695.83   94.89
   1  -6   2 2368.16   95.19
  -1  -6  -2 2552.64   90.99
   1  -6   2 2435.96   99.79
  -1  -6  -2 2485.05   76.59
   1  -6   2 2448.16   95.19
  -1  -6  -2 2566.24   96.09
   1  -6   2 2393.46   96.69
  -1  -6  -2 2464.35   89.99
  -1   6  -2 2469.25   98.19
   1   6   2 2535.25   80.09
   1   6   2 2634.24   82.09
  -1   6  -2 2350.66   94.29
   1   6   2 2477.65   92.59
  -1   6  -2 2429.66   97.89
  -1   6  -2 2592.44   96.49
  -1   6  -2 2317.87   98.39
  -2  -6  -2   49.60   28.50
  -2  -6  -2    9.30   30.50
  -2  -6  -2   26.40   21.70
   2  -6   2   33.70   29.40
  -2  -6  -2   15.50   26.10
  -2  -6  -2   15.80   22.40
   2  -6   2   -9.20   25.00
   2  -6   2   13.90   20.40
   2  -6   2   -4.70   32.30
  -2  -6  -2   40.30   19.20
  -2   6  -2   24.50   30.00
  -2   6  -2   33.10   30.40
  -2   6  -2   22.40   27.10
  -2   6  -2   28.70   29.90
   2   6   2   66.39   22.90
  -2   6  -2   41.80   28.00
   3  -6   2 1311.87   56.79
   3  -6   2 1204.88   68.59
   3  -6   2 1203.78   64.79
  -3  -6  -2 1024.40   70.89
  -3  -6  -2 1165.08   67.99
   3  -6   2 1114.79   72.09
   3  -6   2 1224.28   74.09
  -3  -6  -2 1188.08   63.49
  -3  -6  -2 1229.08   64.39
  -3   6  -2 1140.19   74.89
  -3   6  -2 1197.98   71.79
  -3   6  -2 1303.87   71.69
  -3   6  -2 1120.69   72.79
  -3   6  -2 1199.68   70.29
  -4  -6  -2   52.99   29.40
   4  -6   2   63.09   35.20
   4  -6   2   83.29   38.60
   4  -6   2   59.89   24.80
  -4  -6  -2   95.89   37.70
  -4  -6  -2   55.29   32.70
  -4  -6  -2   24.20   36.90
   4  -6   2  109.89   38.50
  -4   6  -2   35.40   38.90
  -4   6  -2   76.19   36.70
  -4   6  -2   66.69   37.00
   5  -6   2  539.15   61.69
   5  -6   2  430.86   52.39
   5  -6   2  480.95   45.50
  -5  -6  -2  545.85   60.69
  -5  -6  -2  516.05   63.19
   5  -6   2  621.74   69.19
  -5  -6  -2  518.55   56.29
  -5   6  -2  520.45   60.29
  -5   6  -2  526.15   56.49
   6  -6   2  145.39   48.40
  -6  -6  -2  198.18   57.19
   6  -6   2  154.38   45.60
  -6  -6  -2   51.69   41.70
  -6   6  -2  266.07   62.29
  -6   6  -2  131.19   56.99
   7  -6   2  -62.69   53.49
  -7   6  -2   33.80   65.19
  -8  -6  -2   66.69   70.69
  -8  -6  -2  216.38   71.39
   8  -6   2  -97.69   93.79
  -8   6  -2   75.19   68.29
  -8   6  -2  164.98   78.49
  -9  -7   2  105.69   75.69
   9  -7  -2  220.88   75.99
  -9  -7   2  114.09   82.49
   9  -7  -2  170.68   84.09
  -9   7   2  119.39   68.39
  -9   7   2  362.86   88.89
   8  -7  -2   -6.90   84.79
   8  -7  -2  169.78   74.79
  -8  -7   2  107.09   69.29
  -8   7   2  106.79   69.09
   8   7  -2   85.59   54.59
  -7  -7   2   11.40   61.09
   7  -7  -2  -43.30   60.59
  -7  -7   2   60.59   59.69
   7  -7  -2   25.10   69.39
  -7   7   2   65.99   61.69
  -7   7   2   57.99   48.00
   7   7  -2    7.80   47.20
  -6  -7   2  -37.80   50.39
   6  -7  -2  -37.50   56.29
   6  -7  -2  -18.10   51.79
  -6  -7   2   -8.00   47.90
  -6   7   2   52.49   36.80
   6   7  -2   35.50   43.00
   6   7  -2  -45.90   43.70
  -6   7   2  -34.60   52.29
   5  -7  -2   44.20   44.60
  -5  -7   2   87.19   41.70
  -5  -7   2  137.69   45.00
   5  -7  -2   49.70   46.20
  -5   7   2   35.40   31.00
  -5   7   2   84.89   41.50
   5   7  -2  101.19   27.90
   5   7  -2   66.49   41.90
   5   7  -2   45.20   12.70
   5   7  -2   18.40   35.70
   4  -7  -2  382.66   51.09
  -4  -7   2  412.16   49.30
  -4  -7   2  314.67   46.20
   4  -7  -2  375.86   54.49
  -4  -7   2  411.36   53.79
   4   7  -2  351.76   52.39
  -4   7   2  344.67   38.10
   4   7  -2  366.76   42.80
   4   7  -2  380.96   41.10
  -4   7   2  394.86   50.19
  -4   7   2  369.46   51.09
   4   7  -2  363.36   27.50
   3  -7  -2    0.70   22.10
  -3  -7   2   40.60   39.00
   3  -7  -2   49.00   33.80
  -3  -7   2   -1.80   34.90
  -3  -7   2   28.20   32.60
  -3  -7   2   16.40   33.90
   3  -7  -2   -4.70   34.50
  -3  -7   2   36.30   38.90
   3  -7  -2   62.39   37.40
   3   7  -2   25.00   35.30
  -3   7   2    0.30   30.80
  -3   7   2   23.50   25.30
  -3   7   2   82.49   32.10
  -3   7   2   47.00   37.50
   3   7  -2    4.70   15.70
   3   7  -2    5.50   29.10
   3   7  -2   38.00   25.70
   3   7  -2   41.20   35.10
  -3   7   2   27.00   33.70
   2  -7  -2   64.99   32.40
   2  -7  -2   52.89   23.30
  -2  -7   2   46.50   31.00
  -2  -7   2   63.99   30.20
  -2  -7   2   64.99   32.90
  -2  -7   2    4.50   33.90
   2  -7  -2   90.09   39.90
  -2  -7   2   16.70   31.60
   2  -7  -2   59.39   30.00
   2   7  -2   66.49   27.00
  -2   7   2   37.90   14.10
   2   7  -2   42.50   35.40
  -2   7   2   15.80   29.00
   2   7  -2   27.60   26.10
  -2   7   2   91.19   27.90
   2   7  -2   34.90   33.00
  -2   7   2   22.80   33.70
  -2   7   2   11.90   28.70
  -2   7   2   26.50   28.40
   1  -7  -2  251.67   31.90
   1  -7  -2  244.18   37.90
  -1  -7   2  260.47   34.80
  -1  -7   2  251.37   35.10
  -1  -7   2  214.88   39.00
  -1  -7   2  273.67   40.10
   1  -7  -2  318.17   43.60
   1  -7  -2  328.97   37.80
  -1  -7   2  288.97   39.40
   1   7  -2  257.37   37.90
   1   7  -2  287.17   41.50
  -1   7   2  248.38   31.70
  -1   7   2  235.18   36.40
   1   7  -2  326.67   37.20
  -1   7   2  290.77   32.10
  -1   7   2  229.08   31.90
   1   7  -2  249.78   35.00
   0  -7   2   39.80   32.00
   0  -7   2   99.19   35.70
   0  -7   2   88.69   32.60
   0  -7  -2   67.89   32.80
   0  -7  -2   94.29   27.70
   0  -7  -2   44.70   25.90
   0  -7  -2   71.99   27.30
   0  -7   2  111.09   31.50
   0   7  -2  105.69   28.60
   0   7  -2   63.29   34.60
   0   7   2   65.89   24.70
   0   7   2  103.19   20.00
   0   7  -2  105.79   30.10
   0   7   2  110.59   23.20
   0   7  -2  104.89   35.10
   0   7  -2  119.39   26.70
   0   7   2   51.79   28.00
  -1  -7  -2   61.19   11.90
  -1  -7  -2   39.90   28.10
   1  -7   2   68.59   32.40
   1  -7   2   77.59   31.20
   1  -7   2   28.60   33.70
  -1  -7  -2   78.69   30.50
  -1  -7  -2   66.89   28.30
  -1  -7  -2   75.09   28.30
   1  -7   2   -9.50   27.70
  -1   7  -2  115.59   36.30
   1   7   2   33.30   21.10
  -1   7  -2   21.10   32.00
  -1   7  -2   39.60   29.80
   1   7   2   72.99   12.10
   1   7   2   54.79   18.30
  -1   7  -2   23.90   34.70
  -1   7  -2   54.59   29.80
   1   7   2   75.29   27.40
  -2  -7  -2  866.11   66.59
   2  -7   2  832.92   61.59
   2  -7   2  860.91   64.99
   2  -7   2  852.41   65.09
  -2  -7  -2  951.80   46.50
  -2  -7  -2  844.82   61.39
   2  -7   2  793.12   68.19
  -2  -7  -2  908.11   57.29
  -2  -7  -2  890.51   58.29
  -2  -7  -2  921.01   56.19
  -2   7  -2  787.92   61.39
  -2   7  -2  796.62   63.39
  -2   7  -2  781.72   65.29
   2   7   2  953.00   34.20
  -2   7  -2  863.31   67.09
  -2   7  -2  984.40   66.09
   2   7   2  965.80   54.99
  -2   7  -2  864.51   59.59
   3  -7   2  162.88   39.60
  -3  -7  -2   54.29   28.00
   3  -7   2  117.99   28.20
  -3  -7  -2   76.29   39.10
  -3  -7  -2   57.89   24.70
  -3  -7  -2   93.59   37.50
   3  -7   2   54.19   38.90
  -3  -7  -2   57.79   31.00
   3  -7   2   60.09   38.20
  -3  -7  -2   61.39   29.20
  -3   7  -2   53.59   34.80
  -3   7  -2  110.79   38.50
  -3   7  -2   64.59   37.80
   3   7   2  134.19   26.30
   4  -7   2 1979.60   98.29
  -4  -7  -2 1972.80   95.29
   4  -7   2 2058.29   83.79
  -4  -7  -2 1954.30   94.69
  -4  -7  -2 1906.31  101.59
   4  -7   2 1919.51  101.69
  -4  -7  -2 1917.31   87.09
  -4   7  -2 2027.00   99.19
  -4   7  -2 1947.81  101.89
   5  -7   2   -9.80   45.00
  -5  -7  -2   52.69   51.99
  -5  -7  -2   66.79   36.80
  -5  -7  -2  -11.00   47.10
   5  -7   2  -41.90   37.10
   5  -7   2    4.20   39.60
  -5   7  -2   16.00   43.70
  -5   7  -2   13.00   47.60
  -6  -7  -2  787.12   76.49
   6  -7   2  840.92   87.39
  -6  -7  -2  729.53   85.39
  -6   7  -2  894.31  100.09
  -6   7  -2  845.72   96.99
  -7  -7  -2  121.19   63.99
   7  -7   2  126.19   72.69
  -7  -7  -2  225.48   61.19
  -7   7  -2  251.57   71.09
  -7   7  -2  221.58   65.99
   8  -7   2 -149.88   66.89
  -8  -7  -2  -45.70   68.99
  -8   7  -2   61.59   73.29
  -8   7  -2  153.58   82.89
   8  -8  -2  268.97   81.99
   8  -8  -2  242.78   75.09
  -8  -8   2  369.76   86.69
  -8   8   2  316.47   66.39
  -8   8   2  465.15   90.19
  -7  -8   2  -11.50   55.09
   7  -8  -2  -64.99   65.19
  -7   8   2   59.49   54.79
  -7   8   2  -31.00   59.29
   7   8  -2   12.10   50.09
  -6  -8   2 1757.92  117.69
   6  -8  -2 1814.62  122.89
  -6  -8   2 1833.62  119.79
   6  -8  -2 1670.43  124.59
   6   8  -2 2037.50  103.79
  -6   8   2 1846.52  116.89
  -6   8   2 1720.43   95.39
  -5  -8   2   26.60   48.40
   5  -8  -2   95.39   53.89
  -5  -8   2    4.40   43.70
   5  -8  -2   18.80   54.79
   5   8  -2  -28.60   31.20
   5   8  -2   48.50   44.80
  -5   8   2    0.80   35.10
   5   8  -2   41.00   43.10
  -5   8   2   76.39   47.90
  -4  -8   2 1766.72   93.29
  -4  -8   2 1491.65   99.39
   4  -8  -2 1645.84  102.09
   4  -8  -2 1550.24   93.99
  -4  -8   2 1486.55   91.29
   4   8  -2 1712.93   94.09
   4   8  -2 1599.74   50.79
  -4   8   2 1589.44   79.49
  -4   8   2 1629.04   94.09
   4   8  -2 1527.65   79.39
   4   8  -2 1439.16   85.59
   3  -8  -2   35.30   40.90
   3  -8  -2   43.60   40.20
  -3  -8   2   46.20   35.50
  -3  -8   2   10.20   34.90
   3  -8  -2   37.20   27.70
  -3  -8   2   56.39   38.20
  -3   8   2    2.10   26.60
   3   8  -2  -12.90   31.80
  -3   8   2   17.10   25.10
  -3   8   2    1.40   36.60
   3   8  -2   94.89   42.40
  -3   8   2   12.00   36.50
   3   8  -2   -0.80   39.00
   3   8  -2   37.80   16.50
   3   8  -2   38.60   32.20
  -3   8   2   32.20   39.80
  -2  -8   2  411.06   46.40
   2  -8  -2  421.06   46.30
  -2  -8   2  442.96   51.59
   2  -8  -2  372.96   49.70
   2  -8  -2  405.06   54.59
  -2  -8   2  375.96   48.40
  -2   8   2  431.36   27.30
  -2   8   2  495.55   55.49
  -2   8   2  420.26   52.09
   2   8  -2  498.15   60.39
   2   8  -2  432.76   52.09
  -2   8   2  391.96   41.10
  -2   8   2  459.45   47.50
   2   8  -2  452.25   52.49
   2   8  -2  518.55   55.29
  -1  -8   2  175.18   41.20
   1  -8  -2  167.78   32.70
   1  -8  -2  187.88   40.90
   1  -8  -2  174.68   37.90
  -1  -8   2  162.58   33.50
   1  -8  -2  166.48   35.90
  -1  -8   2  154.48   38.70
  -1  -8   2  108.79   33.00
   1   8  -2  145.39   35.10
  -1   8   2  117.09   30.60
   1   8  -2  204.78   43.70
  -1   8   2  166.08   39.50
  -1   8   2  121.29   33.50
  -1   8   2  208.18   33.40
   1   8  -2  210.48   39.60
   1   8  -2   83.29   33.70
   0  -8   2  138.89   40.40
   0  -8  -2  147.59   38.10
   0  -8   2   84.29   38.30
   0  -8   2  121.39   38.10
   0  -8   2  180.18   39.00
   0  -8  -2  134.49   35.30
   0  -8  -2  151.78   36.50
   0  -8  -2  182.78   34.00
   0   8   2  118.39   46.40
   0   8  -2  123.49   40.40
   0   8  -2   89.59   39.70
   0   8  -2  118.09   33.50
   0   8  -2  133.99   35.60
   0   8   2  104.49   35.70
   0   8   2  121.99   25.30
   0   8  -2   82.59   33.90
   0   8   2  134.89   30.60
   1  -8   2    5.20   38.00
   1  -8   2   31.20   36.00
  -1  -8  -2   40.90   31.60
  -1  -8  -2   21.60   31.30
  -1  -8  -2   48.10   29.30
  -1  -8  -2   15.20   31.70
   1  -8   2   35.50   38.50
  -1   8  -2   57.89   37.10
   1   8   2   32.10   25.70
   1   8   2    7.50   20.10
  -1   8  -2   31.30   38.20
  -1   8  -2   73.79   35.50
   1   8   2   63.29   12.00
   1   8   2  -17.60   29.30
  -1   8  -2    9.20   31.40
  -1   8  -2   57.29   32.80
  -2  -8  -2  146.69   40.10
  -2  -8  -2  144.89   22.90
   2  -8   2  103.39   40.50
  -2  -8  -2  140.99   36.40
  -2  -8  -2  115.69   33.20
  -2  -8  -2  135.59   40.00
   2  -8   2  172.18   42.60
  -2  -8  -2  150.88   33.30
  -2   8  -2  191.58   43.00
   2   8   2  158.78   34.80
  -2   8  -2  120.49   34.20
  -2   8  -2  100.49   39.00
   2   8   2  155.68   24.60
  -2   8  -2  157.08   42.80
  -3  -8  -2  239.58   39.10
  -3  -8  -2  303.37   50.69
   3  -8   2  292.37   49.00
  -3  -8  -2  290.17   36.70
  -3  -8  -2  261.77   35.70
   3  -8   2  348.07   54.49
  -3   8  -2  289.47   52.19
   3   8   2  398.76   48.70
  -3   8  -2  228.68   48.80
  -3   8  -2  333.67   47.10
  -4  -8  -2  659.53   62.99
   4  -8   2  686.63   75.89
  -4  -8  -2  553.04   64.39
   4  -8   2  518.35   64.59
   4  -8   2  609.04   60.39
  -4  -8  -2  664.73   68.69
  -4   8  -2  716.23   80.29
  -4   8  -2  656.33   77.49
  -4   8  -2  560.94   62.89
   5  -8   2  212.28   60.39
   5  -8   2  162.48   56.29
  -5  -8  -2  175.78   59.79
  -5  -8  -2  248.58   63.69
   5  -8   2  179.78   50.09
  -5  -8  -2  206.28   46.20
  -5   8  -2  194.58   64.29
  -5   8  -2  228.78   60.99
  -6  -8  -2  354.76   56.09
  -6  -8  -2  366.26   71.49
   6  -8   2  291.97   66.69
  -6   8  -2  368.26   71.49
  -6   8  -2  258.87   79.19
  -7  -8  -2  204.78   70.79
  -7  -8  -2  -14.30   65.09
   7  -8   2  -56.79   61.39
  -7   8  -2   50.09   66.19
  -7   8  -2   13.20   63.49
  -8  -9   2   87.59   87.39
   8  -9  -2  -14.70   77.29
  -8  -9   2   10.70   73.59
   8  -9  -2  107.79   85.39
  -8   9   2 -109.69   66.49
  -8   9   2   22.90   82.09
   7  -9  -2  805.32   96.49
  -7  -9   2  624.74   89.49
  -7  -9   2  750.62   91.89
   7  -9  -2  697.53   93.19
  -7   9   2  626.44   79.29
  -7   9   2  770.82   90.49
   7   9  -2  565.54   68.89
  -6  -9   2   49.80   58.89
  -6  -9   2   41.90   73.29
   6  -9  -2  114.29   63.19
  -6   9   2  185.28   61.59
   6   9  -2  116.89   54.29
  -6   9   2  115.29   50.59
  -5  -9   2  181.88   61.79
   5  -9  -2  128.39   65.79
   5  -9  -2   88.89   66.49
  -5  -9   2   30.80   56.19
  -5   9   2  144.59   42.60
   5   9  -2  205.48   50.29
  -5   9   2  100.39   58.59
   4  -9  -2  -28.40   49.20
   4  -9  -2    2.30   55.29
  -4  -9   2    8.50   45.90
  -4  -9   2    4.70   43.30
   4   9  -2  -51.29   44.20
  -4   9   2  -30.50   30.60
  -4   9   2  -20.80   26.60
   4   9  -2  -12.70   41.70
   4   9  -2  -44.60   43.30
  -4   9   2   36.40   50.79
   3  -9  -2  480.85   56.49
   3  -9  -2  556.34   69.69
   3  -9  -2  595.94   72.19
  -3  -9   2  592.94   68.29
  -3  -9   2  649.24   68.59
  -3  -9   2  692.33   70.89
  -3   9   2  532.95   64.49
   3   9  -2  655.63   65.69
   3   9  -2  485.35   54.99
   3   9  -2  512.15   55.69
   3   9  -2  593.04   33.50
  -3   9   2  590.74   60.19
   3   9  -2  579.24   72.29
   2  -9  -2  130.99   49.10
  -2  -9   2  128.09   39.80
  -2  -9   2  194.48   44.60
   2  -9  -2  168.48   37.50
  -2  -9   2  111.19   39.20
   2  -9  -2  128.09   44.70
  -2   9   2  124.69   41.50
   2   9  -2  118.29   40.50
  -2   9   2  135.69   42.20
  -2   9   2  109.19   35.50
  -2   9   2  125.89   16.30
   2   9  -2  179.48   44.20
  -2   9   2  102.89   39.60
   2   9  -2  162.38   46.30
  -1  -9   2  350.46   49.10
   1  -9  -2  361.36   43.50
   1  -9  -2  286.47   49.60
   1  -9  -2  284.37   48.20
  -1  -9   2  303.17   43.70
   1   9  -2  356.36   43.40
  -1   9   2  338.07   44.30
  -1   9   2  343.57   40.20
   1   9  -2  331.97   52.59
   1   9  -2  289.67   43.80
   1   9  -2  345.87   48.60
  -1   9   2  337.77   46.00
   0  -9  -2   31.40   38.70
   0  -9   2   46.60   36.40
   0  -9  -2   47.00   40.90
   0  -9  -2   -9.60   35.90
   0   9  -2   28.80   41.60
   0   9   2   67.49   25.30
   0   9  -2   96.39   32.50
   0   9  -2   35.70   34.10
   0   9  -2   73.29   43.60
   0   9   2   69.69   32.10
   0   9   2   11.70   27.70
  -1  -9  -2  175.78   44.40
  -1  -9  -2  164.28   41.70
   1  -9   2  213.18   49.30
  -1  -9  -2  148.29   40.20
   1  -9   2  182.58   45.30
  -1   9  -2  120.39   46.50
   1   9   2  135.99   27.10
  -1   9  -2  171.18   39.40
  -1   9  -2  103.29   44.40
   1   9   2  189.88   30.90
   1   9   2  182.68   48.50
  -1   9  -2  190.38   38.30
   2  -9   2  199.48   47.70
   2  -9   2  230.28   52.59
  -2  -9  -2  165.98   39.10
  -2  -9  -2  190.58   22.50
  -2  -9  -2  245.18   41.40
  -2  -9  -2  120.79   46.70
  -2   9  -2  226.18   47.80
  -2   9  -2  147.49   48.10
   2   9   2  161.08   25.10
   2   9   2  273.57   44.30
  -2   9  -2  183.78   41.70
  -3  -9  -2   72.79   49.30
  -3  -9  -2   24.10   31.40
  -3  -9  -2   32.40   38.40
   3  -9   2   41.30   48.40
  -3  -9  -2   46.70   30.30
   3  -9   2  107.89   53.69
  -3   9  -2   -7.90   44.20
  -3   9  -2  113.69   42.40
  -3   9  -2  111.29   49.10
   3   9   2   90.59   38.80
  -4  -9  -2   61.39   41.30
  -4  -9  -2  108.99   56.29
   4  -9   2   92.89   48.80
   4  -9   2   64.79   59.39
   4  -9   2  165.68   59.19
  -4  -9  -2  108.79   40.20
  -4   9  -2  100.79   48.00
  -4   9  -2   22.10   61.09
  -4   9  -2  175.38   55.89
   5  -9   2  110.49   68.89
  -5  -9  -2   40.50   64.19
  -5  -9  -2  107.59   48.60
  -5   9  -2   10.40   64.49
  -5   9  -2  126.39   61.49
  -5   9  -2  183.18   62.19
   6  -9   2   24.20   65.49
  -6  -9  -2  133.09   56.59
  -6  -9  -2   57.49   61.89
  -6   9  -2   59.19   63.19
  -6   9  -2   26.90   67.09
   7  -9   2  696.93   88.29
  -7  -9  -2  962.60  110.39
  -7   9  -2 1058.49  126.59
  -7   9  -2  893.81   96.99
   7 -10  -2  153.98   86.19
  -7 -10   2  456.65   87.99
   7 -10  -2  277.27   87.49
  -7 -10   2  528.65   86.99
  -7  10   2  319.97   87.39
  -7  10   2  390.06   71.19
   6 -10  -2  224.78   76.79
  -6 -10   2  263.17   76.89
  -6 -10   2  349.47   74.39
   6 -10  -2  425.46   86.49
  -6  10   2  428.46   76.39
   6  10  -2  329.27   64.69
  -6  10   2  438.06   72.19
   5 -10  -2  -11.30   65.79
  -5 -10   2   50.19   59.79
   5 -10  -2  -19.30   58.39
  -5  10   2   53.29   38.10
  -5  10   2    9.00   59.59
   5  10  -2  -34.50   56.39
  -5  10   2   -7.60   44.60
   4 -10  -2  493.45   78.79
   4 -10  -2  517.85   78.59
  -4 -10   2  462.35   72.59
  -4 -10   2  617.64   78.09
  -4  10   2  569.04   58.39
   4  10  -2  737.53   87.19
  -4  10   2  575.14   77.49
  -4  10   2  620.64   54.49
   3 -10  -2  222.08   60.29
  -3 -10   2  308.37   57.69
  -3 -10   2  305.97   56.39
   3 -10  -2  201.88   69.39
  -3 -10   2  281.37   57.49
   3  10  -2  267.47   23.10
   3  10  -2  241.28   21.90
   3  10  -2  277.87   55.69
  -3  10   2  284.37   57.29
  -3  10   2  303.67   49.40
   3  10  -2  315.47   57.59
   2 -10  -2   52.79   52.09
  -2 -10   2  155.38   44.00
  -2 -10   2   12.90   45.70
   2 -10  -2  -29.00   43.10
  -2 -10   2   52.29   40.40
  -2  10   2  221.18   51.69
  -2  10   2  -56.99   46.10
   2  10  -2  -30.60   24.70
  -2  10   2   -9.30   39.20
   2  10  -2   -9.20   47.40
   2  10  -2   53.99   42.80
   1 -10  -2 1834.32  106.59
  -1 -10   2 1731.53  101.29
  -1 -10   2 1718.13   91.79
   1 -10  -2 1632.84   95.99
   1  10  -2 1809.12  103.79
   1  10  -2 1650.33   93.79
  -1  10   2 1902.81   93.99
  -1  10   2 1732.43   91.49
  -1  10   2 1651.43   88.49
   1  10  -2 1907.41   81.79
   0 -10   2   48.30   44.00
   0 -10   2   31.60   36.40
   0 -10  -2  -61.89   38.50
   0 -10  -2   20.90   40.40
   0  10  -2   23.70   36.30
   0  10  -2   19.30   46.50
   0  10   2    3.50   26.80
   0  10   2   19.50   33.90
   0  10  -2    5.50   38.10
   0  10  -2   33.20   48.50
   0  10   2    5.10   34.90
   1 -10   2 1485.35  100.89
   1 -10   2 1374.46   93.79
  -1 -10  -2 1448.56   85.69
  -1 -10  -2 1355.36   89.49
  -1  10  -2 1353.86   84.49
   1  10   2 1508.05   78.89
  -1  10  -2 1353.86   97.69
  -1  10  -2 1326.67   96.79
   2 -10   2  121.59   52.59
  -2 -10  -2   56.59   40.80
   2 -10   2   20.00   55.89
  -2 -10  -2   48.30   42.00
  -2 -10  -2   -3.30   44.40
  -2  10  -2   23.90   37.90
  -2  10  -2   11.00   48.70
  -2  10  -2   45.10   54.59
  -3 -10  -2  658.83   69.89
   3 -10   2  811.22   92.59
   3 -10   2  633.84   82.29
  -3 -10  -2  601.24   75.59
  -3 -10  -2  685.63   66.29
  -3  10  -2  734.73   77.79
  -3  10  -2  615.64   79.69
  -3  10  -2  687.83   77.59
  -4 -10  -2   47.90   57.49
  -4 -10  -2  147.69   43.30
  -4  10  -2  151.58   56.29
  -4  10  -2  124.79   68.49
  -4  10  -2  111.09   59.69
  -5 -10  -2   54.89   62.49
   5 -10   2   89.49   64.69
  -5 -10  -2   56.69   53.89
  -5  10  -2  -36.20   68.09
  -5  10  -2  -13.30   63.79
  -5  10  -2   17.70   58.09
  -6 -10  -2  190.38   78.09
  -6 -10  -2  275.07  107.39
   6 -10   2  183.28   74.79
  -6  10  -2  136.69   79.69
  -6  10  -2  290.87   72.79
  -6  10  -2  133.09   76.79
  -6 -11   2   -7.70   67.89
   6 -11  -2   -8.50   78.79
  -6 -11   2 -156.48   64.09
   6 -11  -2  -22.00   77.69
  -6  11   2  106.49   73.39
   6  11  -2    7.90   76.99
  -6  11   2    1.00   83.99
  -5 -11   2   55.39   65.29
   5 -11  -2 -122.09   71.49
   5 -11  -2   89.19   67.89
  -5 -11   2  128.19   69.39
  -5  11   2   65.59   66.39
   5  11  -2  -25.60   73.49
  -5  11   2   -9.50   61.59
   4 -11  -2    4.60   67.09
   4 -11  -2   46.00   65.29
  -4 -11   2   57.59   64.39
  -4 -11   2   -3.50   56.19
   4  11  -2   57.89   67.89
  -4  11   2  -27.50   51.89
  -4  11   2  -33.00   72.19
  -4  11   2   83.09   33.40
   3 -11  -2    4.60   76.49
  -3 -11   2  -39.00   59.19
  -3 -11   2   50.49   57.89
   3 -11  -2  -19.00   57.19
  -3  11   2  -29.40   41.40
   3  11  -2   82.09   60.99
  -3  11   2   12.50   28.50
  -3  11   2  -74.59   63.29
  -2 -11   2  193.58   57.19
   2 -11  -2  202.08   66.19
  -2 -11   2  162.28   62.49
   2 -11  -2  178.68   68.69
   2  11  -2  157.38   49.40
   2  11  -2  196.78   66.09
  -2  11   2  313.97   59.89
   1 -11  -2  -19.50   49.70
  -1 -11   2   38.90   47.20
   1 -11  -2  -67.69   57.29
  -1 -11   2   13.10   57.19
   1  11  -2   19.30   61.99
   1  11  -2  -52.49   40.10
  -1  11   2  -21.60   40.60
  -1  11   2   80.89   63.59
   0 -11  -2  481.95   65.89
   0 -11  -2  425.16   67.79
   0 -11   2  422.16   68.49
   0 -11   2  634.04   70.79
   0  11   2  485.65   53.09
   0  11   2  671.03   92.39
   0  11  -2  444.56   73.19
   0  11  -2  448.16   56.29
  -1 -11  -2  105.09   54.49
   1 -11   2  174.98   62.09
  -1 -11  -2  203.08   54.39
  -1  11  -2   72.99   64.09
  -1  11  -2  145.99   63.09
  -1  11  -2  176.28   45.60
   1  11   2  204.28   38.80
  -2 -11  -2  911.91   86.99
  -2 -11  -2  972.60  105.39
  -2 -11  -2 1041.10   90.79
  -2  11  -2 1073.99  119.09
  -2  11  -2 1040.90   84.69
  -2  11  -2  872.41  103.59
  -3 -11  -2   57.89   43.10
   3 -11   2   54.59   61.79
  -3 -11  -2  -51.09   50.29
  -3 -11  -2  -37.50   49.40
  -3  11  -2  -36.50   43.20
  -3  11  -2  -16.10   58.39
   4 -11   2  869.81  106.09
  -4 -11  -2  904.41   96.79
  -4 -11  -2 1057.79  106.89
  -4  11  -2  935.81  103.69
  -4  11  -2  778.32   85.99
  -4  11  -2  790.22   93.39
   5 -11   2  162.48   71.89
  -5 -11  -2  -18.00   68.59
  -5  11  -2   68.59   73.79
  -5  11  -2  -58.29   65.19
   5 -12  -2   41.50   73.59
  -5 -12   2   55.99   70.09
   5 -12  -2    2.60   81.49
  -5 -12   2   17.70   75.99
  -5  12   2  -61.99   76.29
  -5  12   2  165.98   78.09
   5  12  -2  225.58  108.29
   4 -12  -2 1383.56  123.59
  -4 -12   2  944.91  111.69
   4 -12  -2  938.21  108.79
  -4 -12   2 1154.98  116.69
  -4  12   2 1221.28  114.59
  -4  12   2 1056.49  113.69
   3 -12  -2   82.79   69.69
  -3 -12   2   19.90   60.19
  -3 -12   2   55.69   55.69
   3 -12  -2   50.79   67.49
  -3  12   2  -46.80   77.09
   3  12  -2  -10.10   70.19
   2 -12  -2  800.32   88.09
   2 -12  -2  755.22   90.99
  -2 -12   2  818.62   98.09
   2  12  -2  687.73   72.29
  -2  12   2  957.10  104.09
   2  12  -2 1000.60   99.29
  -1 -12   2  136.69   61.79
   1 -12  -2  217.78   74.99
  -1 -12   2  143.79   62.09
  -1  12   2  157.48   56.99
   1  12  -2   93.99   50.69
   1  12  -2  148.19   77.69
   0 -12  -2   96.29   64.69
   0 -12   2   50.29   52.79
   0 -12   2  102.09   57.79
   0 -12  -2  -10.30   69.79
   0  12   2   62.69   46.40
   0  12  -2   54.29   47.20
  -1 -12  -2  278.87   64.59
   1 -12   2  293.17   66.79
   1 -12   2  346.67   62.59
  -1 -12  -2  361.16   76.79
  -1 -12  -2  317.77   69.29
  -1  12  -2  340.77   74.79
  -1  12  -2  376.36   75.89
   1  12   2  338.87   47.00
  -1  12  -2  213.18   51.69
  -2 -12  -2  509.85   76.89
   2 -12   2  313.27   73.79
  -2 -12  -2  472.95   75.19
  -2 -12  -2  359.26   74.99
  -2  12  -2  390.66   72.89
  -2  12  -2  312.47   77.09
  -2  12  -2  295.27   58.89
  -3 -12  -2  103.39  124.09
  -3 -12  -2   93.59   64.09
   3 -12   2   87.29   69.29
  -3  12  -2  296.37   80.39
  -3  12  -2   23.60   55.89
  -3  12  -2   45.80   66.39
  -4 -12  -2  422.96   83.49
  -4 -12  -2  480.25   77.89
   4 -12   2  391.36   83.09
  -4  12  -2  331.97   85.89
  -4  12  -2  395.76   81.99
  -4  12  -2  483.35   84.69
  -5  12  -2  115.29   75.69
  -4 -13   2  -52.79   75.99
  -4 -13   2   44.60   72.49
   4 -13  -2 -114.69   75.09
   4 -13  -2   25.10   85.49
  -4  13   2   36.60   79.89
   4  13  -2    6.80   75.29
   3 -13  -2  231.48   83.09
  -3 -13   2  302.87   74.59
   3 -13  -2  278.67   88.99
  -3 -13   2  289.47   76.99
   3  13  -2  376.56   83.59
  -3  13   2  118.19   71.99
  -2 -13   2  -53.59   58.99
  -2 -13   2 -141.09   57.79
   2 -13  -2  124.29   70.89
   2 -13  -2  -61.59   71.09
  -2  13   2  118.99   76.29
   2  13  -2  -84.49   69.99
  -1 -13   2  335.37   70.79
   1 -13  -2  511.85   85.39
   1 -13  -2  293.17   77.99
  -1 -13   2  440.96   77.29
   1  13  -2  277.37   79.99
   1  13  -2  208.08   56.29
  -1  13   2  493.05   82.89
   0 -13  -2  -50.89   62.19
   0 -13  -2   52.99   69.99
   0 -13   2   32.90   63.29
   0 -13   2  233.08   67.49
   0  13   2  105.79   56.69
   0  13  -2  -88.29   69.19
   0  13  -2  -97.19   50.49
  -1 -13  -2  118.09   68.29
  -1 -13  -2  117.49   62.89
  -1 -13  -2  146.89   70.69
   1 -13   2  111.29   69.39
  -1  13  -2  135.99   57.39
  -1  13  -2    7.10   71.29
   2 -13   2  129.79   73.39
  -2 -13  -2  169.18   64.59
  -2 -13  -2   15.60   65.49
  -2 -13  -2   -1.10   68.09
  -2  13  -2   54.29   69.79
  -2  13  -2  167.98   78.99
  -2  13  -2   38.80   61.79
  -3 -13  -2    6.50   74.19
   3 -13   2   -6.80   73.79
  -3 -13  -2  -22.70   69.29
  -3  13  -2  -39.50   82.59
  -3  13  -2 -128.39   69.19
   2 -14  -2  141.49   89.49
   1 -14  -2  523.95   98.79
   1 -14  -2  616.04  107.09
  -1 -14   2  465.05   92.49
  -1 -14   2  611.74   85.39
   1  14  -2  685.33   95.29
   0 -14  -2  -86.29   76.09
   0 -14  -2   30.90   70.39
   0 -14   2    6.40   68.79
   0 -14  -2  -84.49   72.09
   0 -14   2   37.70   77.09
  -1 -14  -2  663.23   95.39
  -1 -14  -2  445.26   84.69
   1 -14   2  758.42   89.69
   1 -14   2  692.43   98.69
  -1 -14  -2 1031.70  117.29
  -1  14  -2  817.22  111.09
 -10   0   3  122.79   76.39
  10   0  -3   11.20   74.09
 -10   0   3  108.39   69.59
 -10   0   3  104.69   69.49
  -9   0   3  282.67   69.09
  -9   0   3  416.16   73.49
   8   0  -3  -17.70   27.80
  -8   0   3   20.70   53.49
   8   0  -3  -17.50   51.59
   8   0  -3  -21.60   49.00
  -8   0   3  -23.80   48.70
   7   0  -3  173.88   47.30
  -7   0   3   78.49   40.70
  -7   0   3  135.39   43.00
   7   0  -3  107.99   28.90
   7   0  -3  137.99   52.29
   6   0  -3  -23.70   23.80
   6   0  -3   -4.20   36.40
   6   0  -3  -21.90   37.70
  -6   0   3   43.40   33.40
  -6   0   3  -63.89   33.30
   6   0  -3   40.30   33.80
  -6   0   3  -53.09   30.90
   5   0  -3  994.50   69.59
   5   0  -3 1314.07   63.29
  -5   0   3 1117.39   64.39
  -5   0   3 1070.19   63.99
   5   0  -3 1158.28   67.79
  -5   0   3 1138.99   68.09
   5   0  -3 1055.49   61.39
  -5   0   3 1136.59   66.89
  -5   0   3  967.80   74.29
   5   0  -3 1031.70   74.19
   4   0  -3   36.50   26.80
  -4   0   3   20.70   28.70
  -4   0   3   -8.80   20.90
   4   0  -3    9.40   17.10
   4   0  -3  -15.30   22.10
   4   0  -3   18.20   20.50
  -4   0   3    0.40   21.60
  -4   0   3    2.50   22.70
   4   0  -3  -18.10   27.30
  -4   0   3    1.20   26.00
  -3   0   3 5792.92  174.38
  -3   0   3 5418.46  173.68
  -3   0   3 5533.65  175.68
   3   0  -3 5773.02  169.58
   3   0  -3 5490.45  178.28
   3   0  -3 5110.19  177.08
   3   0  -3 5792.02  170.48
   2   0  -3   10.80   21.20
  -2   0   3   -6.70   18.00
   2   0  -3  -33.50   13.60
   2   0  -3    0.60   13.20
  -2   0   3    4.70   13.30
   2   0  -3  -11.10   19.40
   2   0  -3   14.80   18.60
  -2   0   3   -8.50   13.90
  -2   0   3    2.40   17.70
  -2   0   3   15.40   18.20
  -1   0   3 5332.37  153.28
   1   0  -3 5237.98  158.88
   1   0  -3 5450.96  156.88
  -1   0   3 5644.33  157.68
   1   0  -3 5336.97  163.88
  -1   0   3 5251.97  155.18
   1   0  -3 5436.46  162.78
  -1   0   3 5612.34  161.78
   1   0  -3 5354.16  154.08
   0   0  -3   -2.30    7.60
   0   0  -3  -10.20    8.20
   0   0   3  -10.90    8.80
   0   0  -3   -7.30   10.40
   0   0  -3    4.60   15.20
  -1   0  -3  590.24   20.80
  -1   0  -3  594.74   24.40
  -1   0  -3  571.44   30.50
  -1   0  -3  588.84   20.70
  -2   0  -3   -3.30    9.00
  -2   0  -3    1.80   11.20
  -2   0  -3  -12.60   16.60
  -2   0  -3    2.30    9.10
  -3   0  -3  868.91   38.10
  -3   0  -3  806.52   36.80
   3   0   3  861.71   38.90
  -3   0  -3  861.01   40.10
  -3   0  -3  809.92   38.60
   4   0   3  -16.90   18.50
  -4   0  -3    1.80   13.20
  -4   0  -3  -13.30   19.50
  -5   0  -3  -28.60   33.50
  -5   0  -3   20.80   26.00
  -5   0  -3  -27.00   12.60
   5   0   3   16.10   23.30
  -5   0  -3   13.00   26.30
  -5   0  -3  -18.10   31.20
  -5   0  -3    5.90   24.20
  -6   0  -3    7.40   30.40
   6   0   3   63.89   32.60
  -6   0  -3   70.99   43.40
  -6   0  -3  -50.09   28.90
  -6   0  -3   -6.70   30.10
  -7   0  -3  183.68   44.80
  -7   0  -3  153.28   44.40
  -7   0  -3  116.49   58.29
  -8   0  -3  -16.20   53.29
  -8   0  -3   41.80   64.99
  -8   0  -3  -38.30   46.20
  -9   0  -3  124.89   69.79
  -9   0  -3  120.99   68.39
  -9   0  -3  202.38   79.89
  10  -1  -3  -61.49   72.39
 -10  -1   3    7.80   69.49
 -10  -1   3   26.70   75.49
 -10   1   3  -89.49   66.29
 -10   1   3  -45.40   77.09
  10   1  -3   95.99   76.29
   9  -1  -3  230.78   39.40
   9  -1  -3  251.37   98.19
  -9  -1   3  287.57   68.29
  -9  -1   3  435.86   76.29
  -9   1   3  343.37   81.49
   9   1  -3  306.77   73.49
  -9   1   3  430.06   73.59
  -8  -1   3  -10.00   53.69
  -8  -1   3   31.40   53.79
   8  -1  -3   45.20   52.09
   8  -1  -3  -50.99   56.89
   8  -1  -3  -17.90   29.10
   8   1  -3  -27.10   52.99
  -8   1   3  -24.20   51.29
  -8   1   3   -6.50   56.69
   8   1  -3   -4.30   45.90
  -7  -1   3  301.27   48.50
   7  -1  -3  302.67   58.19
  -7  -1   3  364.56   51.39
   7  -1  -3  301.57   38.30
   7  -1  -3  362.56   55.49
  -7   1   3  315.47   50.99
   7   1  -3  416.16   46.20
  -7   1   3  390.26   52.59
   7   1  -3  293.97   48.50
   7   1  -3  393.06   59.69
   6  -1  -3  129.49   32.70
  -6  -1   3  129.19   38.10
   6  -1  -3  154.48   42.80
  -6  -1   3  153.78   38.90
   6  -1  -3  171.08   38.10
   6  -1  -3   93.89   42.60
  -6  -1   3  104.29   38.90
   6   1  -3   90.89   37.10
  -6   1   3  164.88   39.50
   6   1  -3  141.39   27.00
  -6   1   3  120.69   36.30
  -6   1   3  191.08   41.90
   6   1  -3  111.59   42.10
   6   1  -3  107.99   34.10
  -6   1   3  147.89   53.19
  -5  -1   3   31.80   30.70
  -5  -1   3   31.50   28.60
   5  -1  -3   -4.60   34.00
  -5  -1   3  -13.60   30.60
  -5  -1   3   12.70   34.70
   5  -1  -3   16.20   25.90
   5  -1  -3   19.90   28.30
  -5  -1   3   16.10   28.20
   5  -1  -3   43.10   22.70
   5  -1  -3   36.80   34.80
   5   1  -3  -26.50   34.70
   5   1  -3   18.80   30.30
  -5   1   3  -26.50   31.10
   5   1  -3   41.20   27.90
   5   1  -3   17.60   25.10
  -5   1   3   -2.30   33.10
  -5   1   3   29.20   27.70
   5   1  -3  -39.90   22.50
  -5   1   3    6.10   25.90
  -5   1   3   21.60   31.90
  -4  -1   3  148.99   27.60
  -4  -1   3  124.69   25.90
  -4  -1   3   98.49   27.80
   4  -1  -3  162.78   34.20
   4  -1  -3  112.39   26.20
  -4  -1   3  147.39   34.80
   4  -1  -3  119.89   32.40
  -4  -1   3  179.78   31.50
   4   1  -3  129.29   32.50
  -4   1   3   58.19   25.20
   4   1  -3  146.99   33.00
  -4   1   3   77.29   29.50
   4   1  -3  113.89   25.40
   4   1  -3  162.18   26.90
  -4   1   3  115.69   27.60
  -4   1   3  197.68   32.20
  -4   1   3   76.99   30.30
   3  -1  -3  641.74   44.00
   3  -1  -3  786.72   39.90
   3  -1  -3  713.23   41.30
   3  -1  -3  717.13   59.89
  -3  -1   3  629.24   48.10
  -3  -1   3  685.83   45.80
  -3  -1   3  806.42   49.80
   3   1  -3  625.54   57.49
   3   1  -3  618.34   62.19
  -3   1   3  719.93   46.60
  -3   1   3  579.94   47.00
  -3   1   3  621.64   44.80
   3   1  -3  731.63   39.80
  -3   1   3  742.73   45.00
   3   1  -3  749.13   40.50
   3   1  -3  761.42   48.90
  -2  -1   3   74.39   20.70
   2  -1  -3   75.89   15.00
  -2  -1   3   66.69   15.50
  -2  -1   3   94.29   20.90
   2  -1  -3   58.49   19.90
  -2  -1   3   58.59   16.30
  -2  -1   3   54.09   20.10
   2  -1  -3   70.19   15.90
   2  -1  -3   79.79   21.30
   2   1  -3   71.49   15.50
  -2   1   3   84.59   18.50
   2   1  -3   80.89   21.50
  -2   1   3   55.79   17.60
  -2   1   3   57.49   20.80
   2   1  -3   31.60   20.70
  -2   1   3   59.39   15.20
   2   1  -3   72.39   17.60
   2   1  -3  102.99   30.30
   1  -1  -3   40.00   14.90
  -1  -1   3   71.29   18.40
   1  -1  -3   22.10   15.50
   1  -1  -3   39.90   12.00
   1  -1  -3    9.50   15.10
  -1  -1   3   12.00   14.70
  -1  -1   3   27.40   11.40
  -1  -1   3   32.10   12.90
  -1  -1   3   23.90   11.30
   1   1  -3   30.80   13.80
  -1   1   3   25.10    9.80
  -1   1   3   19.50   17.60
   1   1  -3   28.10   17.10
  -1   1   3   47.10   13.60
   1   1  -3   24.10   14.20
  -1   1   3   48.70   12.40
   1   1  -3   56.79   11.50
   1   1  -3   -6.80   18.70
   1   1  -3   41.40   20.30
   0  -1   3 2649.53   87.39
   0  -1  -3 2588.14   77.29
   0  -1   3 2465.25   77.69
   0  -1   3 2680.43   78.59
   0  -1  -3 2537.85   73.39
   0  -1  -3 2645.54   73.89
   0  -1  -3 2591.34   86.09
   0  -1  -3 2588.34   82.69
   0  -1   3 2650.23   81.39
   0   1  -3 2586.04   87.79
   0   1  -3 2532.55   74.59
   0   1  -3 2590.54   81.99
   0   1  -3 2611.14   81.29
   0   1  -3 2727.53   80.49
   1  -1   3  135.19   13.80
   1  -1   3  125.69   10.60
   1  -1   3  118.69   17.40
  -1   1  -3  133.59   14.30
  -1   1  -3  159.18   18.70
  -1   1  -3  107.89   18.60
  -1   1  -3  137.69    6.40
  -2  -1  -3 3003.70   84.99
   2  -1   3 2931.01   83.99
  -2  -1  -3 2952.20   84.79
  -2  -1  -3 2934.51   94.19
  -2   1  -3 2880.91   87.39
  -2   1  -3 2984.00   92.39
  -2   1  -3 2976.90   92.49
  -2   1  -3 3045.60   95.79
   3  -1   3  362.56   24.60
  -3  -1  -3  352.46   24.70
  -3  -1  -3  379.66   32.00
   3  -1   3  356.46   17.30
  -3   1  -3  400.86   29.30
  -3   1  -3  371.26   31.00
  -3   1  -3  349.77   30.10
  -3   1  -3  338.47   26.50
  -3   1  -3  383.26   40.70
  -4  -1  -3  808.12   43.00
  -4  -1  -3  789.42   44.40
  -4  -1  -3  848.32   51.59
   4  -1   3  811.02   30.50
  -4  -1  -3  854.31   31.90
   4  -1   3  759.82   45.90
  -4  -1  -3  865.91   53.99
  -4   1  -3  893.01   43.50
  -4   1  -3  865.21   45.90
  -4   1  -3  875.91   73.09
  -4   1  -3  807.92   47.50
  -4   1  -3  759.92   58.99
  -5  -1  -3  949.80   55.49
  -5  -1  -3 1029.00   62.19
   5  -1   3  964.10   52.39
   5  -1   3  929.01   32.90
  -5  -1  -3  932.21   61.29
  -5  -1  -3 1032.20   56.39
  -5   1  -3  898.91   60.19
  -5   1  -3 1011.40   46.50
   5   1   3  971.20   54.29
  -5   1  -3  876.41   71.29
  -5   1  -3  847.72   59.09
  -5   1  -3  903.71   55.19
  -5   1  -3  878.81   69.59
   6  -1   3  -11.50   30.30
  -6  -1  -3   51.69   32.90
  -6  -1  -3  -30.90   40.00
  -6  -1  -3    4.60   32.00
  -6   1  -3  -24.60   39.90
   6   1   3   79.09   34.70
  -6   1  -3    3.30   29.80
  -6   1  -3   70.59   19.00
  -6   1  -3  -62.79   29.40
  -7  -1  -3  859.11   72.09
  -7  -1  -3 1011.00   76.39
  -7   1  -3  909.21   99.69
  -7   1  -3 1021.10   72.39
  -7   1  -3  893.91   80.49
  -8  -1  -3  154.88   57.09
  -8  -1  -3  171.28   58.09
  -8  -1  -3   98.39   66.79
  -8   1  -3  244.48   55.49
  -8   1  -3   52.09   63.29
  -8   1  -3  227.98   68.99
  -9  -1  -3  198.68   71.79
  -9  -1  -3  136.89   64.09
  -9  -1  -3  177.98   86.09
  -9   1  -3  253.77   74.59
  -9   1  -3  145.39   80.39
 -10  -2   3  613.34   94.69
 -10  -2   3  625.84   96.49
  10  -2  -3  679.93   92.09
 -10   2   3  706.33   83.39
  10   2  -3  523.35   87.59
 -10   2   3  610.34   94.09
   9  -2  -3  -11.30   38.00
  -9  -2   3  -92.39   58.39
  -9  -2   3  129.69   63.49
   9  -2  -3   60.09   67.09
  -9   2   3  -42.80   57.99
  -9   2   3  174.08   71.89
   9   2  -3   22.40   71.69
  -8  -2   3 1353.26  103.29
   8  -2  -3 1445.66  121.19
  -8  -2   3 1306.57  105.59
   8  -2  -3 1195.38   76.19
   8   2  -3 1226.68   45.30
  -8   2   3 1281.37   86.39
  -8   2   3 1218.28  102.39
   8   2  -3 1157.18   92.19
   8   2  -3 1104.19  102.99
  -7  -2   3  -23.10   40.10
  -7  -2   3   11.90   45.50
   7  -2  -3   12.40   43.90
   7  -2  -3   -3.50   29.80
  -7  -2   3   82.29   41.10
   7  -2  -3   32.90   44.40
  -7   2   3   32.70   35.20
   7   2  -3   46.10   38.60
   7   2  -3   27.90   46.80
  -7   2   3   62.09   43.20
   7   2  -3   17.40   46.30
   6  -2  -3 2241.18  108.89
  -6  -2   3 2369.76  102.69
   6  -2  -3 2378.86  103.39
   6  -2  -3 2404.56  112.69
  -6  -2   3 2291.87  103.49
  -6  -2   3 2423.26  103.59
   6  -2  -3 2354.86   97.59
   6   2  -3 2262.47   99.69
   6   2  -3 2429.26  113.59
   6   2  -3 2378.86   97.49
   6   2  -3 2283.97  103.29
  -6   2   3 2261.77  116.09
  -6   2   3 2312.57  103.39
  -5  -2   3   32.80   29.20
  -5  -2   3  -34.60   30.70
  -5  -2   3   -2.10   29.10
  -5  -2   3    1.60   28.40
   5  -2  -3    1.60   34.80
  -5  -2   3   33.90   36.40
   5  -2  -3   -5.00   27.00
   5  -2  -3   33.80   30.00
   5  -2  -3   76.39   35.30
   5   2  -3   26.20   30.20
   5   2  -3    4.00   24.10
  -5   2   3   73.59   33.50
   5   2  -3    5.40   26.70
  -5   2   3   -3.10   29.40
   5   2  -3  -12.90   33.80
  -5   2   3   54.09   34.40
  -5   2   3  -16.80   28.70
   4  -2  -3 1582.64   69.99
   4  -2  -3 1638.64   68.69
  -4  -2   3 1602.64   71.59
  -4  -2   3 1588.64   75.69
  -4  -2   3 1559.74   68.99
  -4  -2   3 1699.53   81.59
   4  -2  -3 1622.84   75.19
   4  -2  -3 1564.34   76.49
   4  -2  -3 1534.05   81.09
  -4   2   3 1489.55   73.09
  -4   2   3 1620.84   70.79
   4   2  -3 1614.64   69.19
  -4   2   3 1713.83   75.09
   4   2  -3 1610.04   77.49
   4   2  -3 1599.64   85.69
   4   2  -3 1655.83   76.09
   4   2  -3 1557.14   67.69
  -4   2   3 1459.45   75.69
  -3  -2   3   -6.90   22.20
   3  -2  -3   44.00   28.10
  -3  -2   3   17.60   19.60
   3  -2  -3   45.50   18.40
  -3  -2   3   14.70   20.10
   3  -2  -3   28.40   24.80
  -3  -2   3  -19.30   24.10
   3  -2  -3   35.40   19.10
   3   2  -3   29.70   28.30
   3   2  -3    6.10   22.50
   3   2  -3   62.09   20.40
  -3   2   3  -16.30   21.30
   3   2  -3   46.30   18.90
   3   2  -3   -5.70   24.80
  -3   2   3    4.60   20.60
  -3   2   3   24.10   18.60
  -3   2   3   18.80   11.40
  -3   2   3   40.20   21.90
   2  -2  -3   76.29   16.90
  -2  -2   3   42.10   18.10
   2  -2  -3   63.69   20.20
   2  -2  -3   52.09   22.20
  -2  -2   3   44.80   16.10
  -2  -2   3   66.69   21.60
  -2  -2   3   46.30   18.90
   2  -2  -3   62.69   25.80
  -2   2   3   49.20   16.00
  -2   2   3   27.40   17.40
   2   2  -3   78.59   25.00
   2   2  -3   68.99   23.90
   2   2  -3   48.10   15.60
   2   2  -3   68.39   20.70
  -2   2   3   48.20   16.20
  -2   2   3   45.10    7.40
  -1  -2   3  126.99   17.70
   1  -2  -3  110.29   22.60
  -1  -2   3  129.59   17.90
   1  -2  -3  140.29   17.90
   1  -2  -3  131.89   14.60
   1  -2  -3   96.89   15.70
  -1  -2   3  130.69   14.60
  -1  -2   3   98.79   19.60
  -1  -2   3  119.79   22.50
   1  -2  -3  140.49   22.20
   1   2  -3  142.09   18.60
   1   2  -3  124.99   22.00
   1   2  -3  119.39   14.00
   1   2  -3  143.09   23.80
  -1   2   3  130.69   20.60
   1   2  -3  133.79   19.60
  -1   2   3  151.58   15.20
  -1   2   3  151.98   16.00
  -1   2   3  148.09   17.10
   0  -2   3  882.01   39.30
   0  -2   3  868.31   28.70
   0  -2   3  889.41   44.80
   0  -2  -3  888.11   41.60
   0  -2   3  975.10   39.10
   0  -2  -3  887.01   29.00
   0  -2  -3  835.82   34.30
   0  -2  -3  845.62   43.00
   0  -2   3  862.21   37.10
   0  -2  -3  919.01   30.10
   0   2  -3  894.21   43.70
   0   2  -3  941.71   39.40
   0   2  -3  880.01   40.30
   0   2  -3  921.91   41.30
   1  -2   3  179.18   20.60
   1  -2   3  146.49   15.90
   1  -2   3  157.78   16.30
  -1   2  -3  124.09   21.40
  -1   2  -3  157.58   22.80
  -1   2  -3  159.68   18.70
  -1   2  -3  151.68   19.50
  -2  -2  -3 1584.94   45.70
   2  -2   3 1630.24   54.59
   2  -2   3 1563.74   54.49
  -2  -2  -3 1606.14   45.70
   2  -2   3 1593.84   48.70
  -2   2  -3 1468.75   59.59
  -2   2  -3 1587.14   67.99
  -2   2  -3 1570.44   65.49
  -3  -2  -3  384.06   25.40
  -3  -2  -3  365.96   22.40
   3  -2   3  346.77   23.80
  -3  -2  -3  377.06   38.90
   3  -2   3  394.36   26.10
  -3  -2  -3  372.56   25.40
  -3   2  -3  371.06   42.70
  -3   2  -3  348.67   34.20
  -3   2  -3  382.86   34.30
  -3   2  -3  340.27   35.00
   4  -2   3 1084.19   53.69
  -4  -2  -3 1115.99   53.29
  -4  -2  -3 1228.58   58.79
   4  -2   3 1180.98   50.49
   4  -2   3 1214.28   48.60
  -4  -2  -3 1194.18   61.69
  -4   2  -3 1200.68   56.79
  -4   2  -3 1270.27   68.49
  -4   2  -3 1303.97   63.79
  -4   2  -3 1148.59   58.99
  -4   2  -3 1268.77   61.29
  -5  -2  -3   89.89   27.40
  -5  -2  -3   33.10   27.40
  -5  -2  -3   74.09   30.90
   5  -2   3   58.79   22.70
   5  -2   3   92.99   19.40
  -5   2  -3   50.69   23.90
  -5   2  -3   27.00   39.30
  -5   2  -3   37.40   33.20
  -5   2  -3   63.09   30.70
  -5   2  -3   72.89   26.20
  -5   2  -3   63.39   37.40
  -6  -2  -3  551.54   54.49
  -6  -2  -3  541.35   54.39
  -6  -2  -3  613.54   68.19
   6  -2   3  652.23   36.90
   6  -2   3  652.73   54.19
  -6   2  -3  692.13   63.99
  -6   2  -3  635.84   54.49
  -6   2  -3  702.43   76.09
  -6   2  -3  716.03   48.50
  -7  -2  -3  123.49   41.50
   7  -2   3  117.49   20.40
  -7  -2  -3   16.10   60.59
  -7  -2  -3  184.48   46.50
  -7   2  -3   66.09   46.70
  -7   2  -3  126.49   55.39
  -8  -2  -3  220.08   56.79
  -8  -2  -3  271.07   67.69
  -8   2  -3  243.88   75.09
  -8   2  -3  228.38   69.09
  -9  -2  -3  -44.60   71.39
  -9  -2  -3    6.00   63.59
  -9  -2  -3  113.99   76.79
  -9   2  -3   37.10   71.39
  -9   2  -3  -26.40   74.99
 -10  -3   3    4.70   75.59
 -10  -3   3  -45.40   75.79
  10  -3  -3  217.58   83.79
 -10   3   3  127.19   79.39
 -10   3   3   33.60   67.49
  10   3  -3  113.09   74.99
  -9  -3   3  396.16   76.99
   9  -3  -3  303.57   51.99
   9  -3  -3  214.58   73.19
  -9  -3   3  244.48   71.69
   9   3  -3  371.86   80.59
  -9   3   3  479.05   78.59
  -9   3   3  400.36   81.69
   8  -3  -3   16.60   64.39
   8  -3  -3   53.59   40.90
  -8  -3   3   51.99   56.69
  -8  -3   3   66.69   58.09
  -8   3   3   79.29   45.10
   8   3  -3  106.19   58.79
  -8   3   3   49.50   60.09
   8   3  -3   46.20   42.70
   7  -3  -3  164.68   55.79
   7  -3  -3  160.48   41.70
   7  -3  -3   62.79   52.89
  -7  -3   3   69.49   46.30
  -7  -3   3  214.08   48.00
  -7  -3   3  190.88   49.20
   7   3  -3  135.49   40.70
  -7   3   3  152.98   49.00
   7   3  -3  204.88   45.70
   7   3  -3  143.49   20.70
  -7   3   3  160.78   40.50
   7   3  -3  154.68   49.10
   6  -3  -3   74.79   35.10
   6  -3  -3  230.88   48.80
   6  -3  -3   82.89   44.60
  -6  -3   3  106.09   40.10
  -6  -3   3  145.09   33.90
  -6   3   3  154.18   31.60
  -6   3   3  158.68   41.50
   6   3  -3  134.89   48.00
   6   3  -3  102.39   33.60
   6   3  -3   56.29   34.50
  -6   3   3  114.39   46.50
  -5  -3   3  269.47   34.90
  -5  -3   3  300.57   44.90
  -5  -3   3  368.06   51.19
   5  -3  -3  231.18   46.60
   5  -3  -3  350.76   40.90
  -5  -3   3  193.88   38.70
   5  -3  -3  231.68   35.10
  -5  -3   3  235.98   39.90
   5  -3  -3  235.78   39.60
   5  -3  -3  238.38   44.90
   5   3  -3  216.58   36.30
  -5   3   3  231.48   39.90
   5   3  -3  243.88   45.80
  -5   3   3  351.86   46.40
  -5   3   3  243.98   30.40
   5   3  -3  287.07   37.40
  -5   3   3  271.57   41.80
  -5   3   3  222.88   39.50
   5   3  -3  304.37   38.50
  -4  -3   3   95.69   24.10
   4  -3  -3  163.18   30.80
   4  -3  -3  131.09   35.00
   4  -3  -3  184.88   39.90
   4  -3  -3  169.08   34.60
   4  -3  -3  136.69   28.80
  -4  -3   3  136.39   35.60
  -4  -3   3  110.19   31.10
  -4  -3   3  149.29   30.80
  -4  -3   3  169.48   32.00
   4   3  -3  107.69   27.80
   4   3  -3  101.99   40.90
  -4   3   3  129.69   29.40
   4   3  -3  114.39   35.80
  -4   3   3  137.89   30.70
  -4   3   3  144.29   22.60
  -4   3   3  146.89   33.00
  -4   3   3  159.68   33.70
   4   3  -3  135.49   26.90
   3  -3  -3  348.47   36.70
  -3  -3   3  319.67   39.90
   3  -3  -3  318.07   34.30
  -3  -3   3  406.46   44.30
   3  -3  -3  253.17   34.70
  -3  -3   3  361.96   37.30
  -3  -3   3  317.87   38.40
   3  -3  -3  336.67   40.10
  -3  -3   3  363.96   36.20
   3  -3  -3  397.26   34.80
   3   3  -3  290.17   41.40
   3   3  -3  308.87   33.20
  -3   3   3  390.86   40.40
  -3   3   3  328.17   23.60
   3   3  -3  394.56   34.20
  -3   3   3  386.66   37.10
   3   3  -3  358.26   34.60
  -3   3   3  383.86   36.20
   3   3  -3  344.87   39.30
  -3   3   3  370.36   38.70
  -2  -3   3  862.11   45.50
   2  -3  -3  820.62   41.10
  -2  -3   3  885.31   50.89
  -2  -3   3  945.91   49.20
  -2  -3   3  877.31   45.60
   2  -3  -3  795.82   56.69
   2  -3  -3  861.41   52.79
   2   3  -3  786.52   46.00
  -2   3   3  856.71   44.10
  -2   3   3  846.52   42.60
  -2   3   3  853.31   30.80
   2   3  -3  814.02   58.99
  -2   3   3  877.41   39.00
  -2   3   3  874.31   48.10
   2   3  -3  865.91   44.30
   2   3  -3  857.21   40.50
  -1  -3   3 2885.11   89.79
   1  -3  -3 2810.22   97.59
   1  -3  -3 2912.61   90.49
  -1  -3   3 2692.03  100.79
  -1  -3   3 3154.48   98.39
   1  -3  -3 2903.91   82.99
  -1  -3   3 2871.41   95.39
   1  -3  -3 2767.62   99.79
   1  -3  -3 2800.72   92.29
  -1   3   3 2884.11   87.69
   1   3  -3 2888.31   95.59
   1   3  -3 2924.21  101.39
  -1   3   3 2864.71   84.29
  -1   3   3 2831.02   88.99
   1   3  -3 2843.42   98.79
   1   3  -3 2770.22   97.29
   1   3  -3 2919.71   89.69
  -1   3   3 2858.31   95.49
   0  -3   3  966.80   34.40
   0  -3  -3  981.00   33.40
   0  -3  -3  974.80   35.80
   0  -3  -3  945.11   36.40
   0  -3   3  928.91   44.00
   0  -3   3  990.60   44.20
   0  -3  -3 1011.90   44.30
   0   3  -3  983.50   46.90
   0   3  -3  918.41   50.89
   0   3   3  995.80   42.50
   0   3  -3 1001.00   47.40
  -1  -3  -3   52.59   14.20
   1  -3   3   49.60   18.40
   1  -3   3   47.70   18.80
  -1  -3  -3   43.20    7.80
  -1  -3  -3   51.69    7.50
   1  -3   3   33.70   15.80
  -1  -3  -3   36.40   17.60
  -1   3  -3   83.99   20.20
  -1   3  -3   62.49   18.30
  -2  -3  -3 1616.34   50.79
  -2  -3  -3 1533.65   65.89
   2  -3   3 1677.43   60.29
  -2  -3  -3 1572.94   57.49
  -2  -3  -3 1553.44   49.60
   2  -3   3 1568.64   49.80
   2  -3   3 1612.74   66.49
   2  -3   3 1530.65   60.59
  -2   3  -3 1591.24   64.89
  -2   3  -3 1462.85   67.19
  -2   3  -3 1682.73   64.79
  -2   3  -3 1659.13   65.89
  -3  -3  -3  540.15   28.40
   3  -3   3  604.34   29.60
   3  -3   3  569.64   39.10
   3  -3   3  615.84   37.00
  -3  -3  -3  578.24   31.30
  -3  -3  -3  536.55   31.40
  -3  -3  -3  605.94   49.40
  -3   3  -3  612.74   45.60
  -3   3  -3  612.14   45.40
  -3   3  -3  470.55   49.10
  -3   3  -3  615.34   43.40
  -4  -3  -3  629.44   41.20
  -4  -3  -3  745.03   55.09
   4  -3   3  724.93   41.80
   4  -3   3  747.53   39.70
   4  -3   3  714.53   46.60
  -4  -3  -3  635.04   41.60
  -4  -3  -3  695.73   42.00
  -4   3  -3  639.74   49.40
  -4   3  -3  655.93   54.89
  -4   3  -3  699.93   51.49
  -4   3  -3  638.84   58.79
  -4   3  -3  674.43   61.59
  -5  -3  -3 2502.75   95.79
   5  -3   3 2462.45   92.29
   5  -3   3 2524.05   91.09
  -5  -3  -3 2572.54  106.09
  -5  -3  -3 2614.44   98.59
  -5   3  -3 2561.04  113.09
  -5   3  -3 2582.04   99.29
  -5   3  -3 2500.35  105.09
   6  -3   3   35.70   32.80
   6  -3   3  114.79   32.00
   6  -3   3   12.30   26.50
  -6  -3  -3  -33.30   36.40
  -6  -3  -3  -17.70   29.30
  -6  -3  -3   41.10   33.70
  -6   3  -3   11.10   41.80
  -6   3  -3   63.89   31.00
  -6   3  -3  -22.20   44.10
  -7  -3  -3 1243.28   81.99
  -7  -3  -3 1338.07  100.79
  -7   3  -3 1281.17  109.19
  -7   3  -3 1402.66  101.29
  -8  -3  -3   65.59   51.49
  -8   3  -3  101.89   70.69
  -9  -3  -3  128.99   75.59
  -9  -3  -3  284.67   74.29
  -9   3  -3  392.56   90.39
  -9   3  -3  -16.10   78.19
   9  -4  -3  156.58   52.59
  -9  -4   3  172.68   67.69
   9  -4  -3  218.68   80.59
  -9  -4   3  274.47   74.09
  -9   4   3  282.67   72.19
   9   4  -3  260.57   77.69
   8  -4  -3  122.69   48.20
  -8  -4   3  170.28   66.49
   8  -4  -3  249.88   80.19
   8   4  -3  199.28   60.99
  -8   4   3  194.38   47.70
  -7  -4   3   68.29   40.00
   7  -4  -3  -14.60   39.60
  -7  -4   3  -26.60   45.60
  -7  -4   3   39.80   46.80
   7  -4  -3  -63.19   50.09
   7  -4  -3    0.40   49.20
  -7   4   3  -22.60   44.40
   7   4  -3   18.20   15.70
   7   4  -3   25.10   49.70
   7   4  -3   40.90   54.59
   7   4  -3    0.60   16.40
   7   4  -3    4.20   32.60
  -7   4   3  -66.49   32.30
   6  -4  -3  -22.30   42.80
   6  -4  -3  -27.40   41.50
   6  -4  -3  -24.20   34.60
  -6  -4   3   44.20   38.20
  -6  -4   3   12.70   30.50
   6   4  -3   65.59   34.30
   6   4  -3  -27.50   27.50
  -6   4   3   -8.60   37.90
  -6   4   3   15.90   26.50
   6   4  -3   13.30   41.30
   6   4  -3   31.40   30.40
   5  -4  -3  622.24   52.69
   5  -4  -3  567.24   63.29
   5  -4  -3  441.56   57.19
   5  -4  -3  641.44   65.69
  -5  -4   3  504.25   57.19
  -5  -4   3  564.84   57.99
  -5  -4   3  628.94   68.59
  -5  -4   3  587.24   63.29
   5  -4  -3  657.83   55.39
   5   4  -3  543.25   49.30
   5   4  -3  526.85   51.99
  -5   4   3  546.45   65.39
  -5   4   3  550.74   59.29
  -5   4   3  555.24   55.89
   5   4  -3  513.15   57.29
  -5   4   3  659.73   59.49
  -5   4   3  525.25   44.40
   5   4  -3  519.25   53.89
  -4  -4   3   61.69   32.20
   4  -4  -3   29.70   30.90
  -4  -4   3   45.60   33.20
   4  -4  -3   19.80   33.00
   4  -4  -3    0.60   27.80
   4  -4  -3  -65.19   24.10
  -4  -4   3   41.10   29.70
   4  -4  -3   24.90   28.50
  -4  -4   3   -7.00   28.80
   4   4  -3   -0.90   32.10
   4   4  -3   11.70   25.60
   4   4  -3   29.00   23.90
   4   4  -3   17.30   29.90
  -4   4   3   69.39   32.20
  -4   4   3   51.79   28.00
   4   4  -3  -44.70   36.60
  -4   4   3  -16.10   27.70
  -4   4   3   18.40   27.30
  -4   4   3   -9.80   18.90
  -4   4   3   39.20   25.70
   3  -4  -3 1635.14   67.99
  -3  -4   3 1562.14   77.89
  -3  -4   3 1723.53   74.49
  -3  -4   3 1607.94   75.09
  -3  -4   3 1513.05   70.69
   3  -4  -3 1681.23   72.89
   3  -4  -3 1514.25   76.89
   3  -4  -3 1559.74   74.19
   3  -4  -3 1584.44   79.69
  -3  -4   3 1592.64   70.09
   3   4  -3 1511.55   76.69
  -3   4   3 1610.54   70.19
  -3   4   3 1618.64   73.79
  -3   4   3 1558.84   64.79
  -3   4   3 1615.94   68.79
   3   4  -3 1575.54   68.79
  -3   4   3 1574.64   56.99
   3   4  -3 1667.03   69.09
   3   4  -3 1683.63   84.39
   3   4  -3 1638.44   67.89
  -3   4   3 1602.04   75.99
  -2  -4   3   18.70   22.30
  -2  -4   3   26.80   22.50
  -2  -4   3    7.70   23.60
   2  -4  -3    0.80   10.10
  -2  -4   3   27.50   23.00
   2  -4  -3    9.00   17.10
   2  -4  -3   14.40   24.00
  -2  -4   3   32.50   22.70
   2  -4  -3    3.30   24.90
   2  -4  -3   45.50   25.90
  -2   4   3   10.20   13.00
   2   4  -3   -3.40   19.80
  -2   4   3   29.60   11.70
  -2   4   3   13.20   17.80
  -2   4   3   18.20   17.90
   2   4  -3   24.60   19.40
   2   4  -3   31.30   29.00
   2   4  -3   24.00   18.00
  -2   4   3   30.00   21.80
   2   4  -3   32.30   26.20
  -1  -4   3 7125.29  212.58
  -1  -4   3 6969.40  204.18
  -1  -4   3 6747.82  209.78
   1  -4  -3 6903.51  206.98
  -1  -4   3 7253.07  214.38
   1  -4  -3 6706.63  213.88
  -1  -4   3 7243.38  211.88
   1   4  -3 6802.92  213.38
   1   4  -3 7375.76  211.38
   1   4  -3 6756.62  212.58
   1   4  -3 7240.88  211.08
  -1   4   3 7343.17  214.58
  -1   4   3 6971.40  208.78
  -1   4   3 6858.51  202.48
  -1   4   3 6855.71  201.88
   1   4  -3 6492.65  224.58
   0  -4   3   29.50   19.80
   0  -4  -3   13.10   13.70
   0  -4   3   -2.20   11.40
   0  -4   3   11.50   18.30
   0  -4  -3   11.30   16.00
   0  -4  -3    2.90   12.70
   0  -4  -3  -10.50   13.20
   0  -4   3   -8.80   19.40
   0  -4  -3   -2.00   20.10
   0   4  -3   -1.10   18.60
   0   4  -3   19.00   23.10
   0   4  -3   10.40   17.70
   0   4  -3  -12.10   24.90
   0   4  -3   22.10   22.90
   0   4   3  -20.10   18.80
   0   4   3    8.80   13.60
   1  -4   3 4847.31  149.09
   1  -4   3 4631.34  147.09
  -1  -4  -3 4770.22  139.69
  -1  -4  -3 4731.23  137.89
  -1  -4  -3 4857.61  138.79
  -1  -4  -3 4269.67  153.18
   1  -4   3 4685.73  149.79
  -1   4  -3 4513.95  152.78
  -1   4  -3 4972.20  150.58
  -1   4  -3 4679.23  150.78
  -1   4  -3 4588.64  150.98
  -1   4  -3 4791.42  151.18
  -2  -4  -3    4.30   13.00
  -2  -4  -3   -6.70   10.30
   2  -4   3   -7.30   17.80
   2  -4   3   13.10   10.60
  -2  -4  -3    0.00   11.50
   2  -4   3   16.60   20.70
   2  -4   3  -24.20   20.30
  -2  -4  -3    2.80   17.20
  -2  -4  -3  -19.70   23.50
  -2   4  -3  -50.79   20.20
  -2   4  -3   -5.00   24.50
  -2   4  -3    8.20   22.30
  -2   4  -3    1.30   23.10
  -3  -4  -3   74.19   17.90
   3  -4   3   57.39   28.60
  -3  -4  -3   81.79   16.80
   3  -4   3   80.49   15.50
   3  -4   3   59.89   23.20
  -3  -4  -3   63.69   29.60
   3  -4   3   66.99   26.80
  -3   4  -3   62.49   27.10
  -3   4  -3   67.09   28.60
  -3   4  -3   82.89   29.00
  -3   4  -3   78.39   29.40
  -4  -4  -3   63.09   21.00
  -4  -4  -3  106.49   18.70
  -4  -4  -3   68.39   23.80
   4  -4   3   84.79   25.60
  -4  -4  -3   56.59   34.00
   4  -4   3   40.20   28.80
  -4   4  -3   82.39   38.50
  -4   4  -3   86.39   35.60
  -4   4  -3  111.99   32.40
  -4   4  -3   47.10   31.90
  -4   4  -3   61.09   31.70
  -5  -4  -3  -24.20   21.00
  -5  -4  -3   22.20   30.80
  -5  -4  -3   33.70   37.90
   5  -4   3   -9.00   25.90
  -5  -4  -3  -38.70   24.70
   5  -4   3   -0.40   22.60
   5  -4   3   31.70   29.60
  -5   4  -3   20.10   33.20
  -5   4  -3   -2.70   37.50
  -5   4  -3  -31.90   37.60
  -6  -4  -3    2.80   42.80
   6  -4   3  156.08   34.50
  -6  -4  -3   67.79   31.60
   6  -4   3   48.90   32.90
   6  -4   3   88.69   35.10
  -6   4  -3  -14.20   43.90
  -6   4  -3   18.00   42.30
  -6   4  -3    4.30   38.80
   7  -4   3  136.29   38.80
  -7  -4  -3  244.58   45.80
  -7  -4  -3  189.78   65.49
  -7   4  -3  152.78   62.69
  -8  -4  -3   23.70   55.89
  -8  -4  -3   84.29   57.69
  -8   4  -3   90.49   71.49
  -8   4  -3   -0.10   61.79
   9  -5  -3  134.59   75.89
  -9  -5   3   -4.70   67.99
  -9  -5   3  189.88   73.09
   9  -5  -3   74.39   72.39
  -9   5   3  -15.60   72.79
  -9   5   3   26.30   69.09
   9   5  -3  159.78  104.89
   8  -5  -3   33.20   64.49
   8  -5  -3  -71.39   48.90
  -8  -5   3  -13.20   50.59
   8   5  -3    7.00   57.89
  -8   5   3   82.69   52.89
  -8   5   3  -47.30   55.89
   7  -5  -3   29.00   58.59
  -7  -5   3 -101.29   49.30
   7  -5  -3    2.20   45.90
   7   5  -3   75.89   50.09
   7   5  -3  -12.50   15.70
  -7   5   3    3.80   35.80
   7   5  -3    6.10   31.40
  -7   5   3  -14.70   55.59
   7   5  -3    3.70   17.70
   6  -5  -3   59.39   46.40
   6  -5  -3    1.70   41.00
  -6  -5   3  -17.40   41.30
  -6  -5   3   19.60   40.30
   6  -5  -3   52.99   48.20
   6   5  -3    8.90   43.30
  -6   5   3   -5.20   29.60
   6   5  -3    8.80   28.50
   6   5  -3   36.40   27.10
  -6   5   3  113.39   78.69
  -6   5   3  -29.60   40.40
   6   5  -3   91.09   37.80
  -5  -5   3  136.89   39.40
   5  -5  -3  103.19   45.00
   5  -5  -3   99.19   41.30
  -5  -5   3   96.79   38.50
   5  -5  -3  126.69   41.90
   5   5  -3   73.59   31.70
   5   5  -3   96.99   23.00
  -5   5   3  159.98   41.90
  -5   5   3   81.19   36.50
  -5   5   3   98.49   26.90
   5   5  -3   87.99   28.80
   5   5  -3   66.79   42.20
  -5   5   3  127.69   37.50
  -5   5   3   93.69   35.00
  -4  -5   3   -8.80   34.40
  -4  -5   3  101.69   32.90
  -4  -5   3  137.49   37.80
   4  -5  -3   79.59   32.60
   4  -5  -3   49.10   28.30
   4  -5  -3   90.09   36.40
  -4  -5   3  100.09   36.90
  -4  -5   3   69.99   33.20
   4  -5  -3   68.09   37.40
   4  -5  -3   42.60   37.40
  -4   5   3   54.69   25.00
   4   5  -3   64.09   28.50
  -4   5   3   73.69   32.10
   4   5  -3   35.90   40.80
  -4   5   3   96.09   33.70
   4   5  -3   91.69   23.80
   4   5  -3   25.70   37.10
   4   5  -3   55.19   27.70
   4   5  -3   79.29   26.50
  -4   5   3   15.80   33.20
  -4   5   3   85.59   28.10
  -4   5   3   51.59   30.10
   3  -5  -3  627.14   53.19
   3  -5  -3  603.94   58.69
  -3  -5   3  604.24   49.90
  -3  -5   3  575.54   50.59
   3  -5  -3  605.74   58.69
   3  -5  -3  614.74   49.20
  -3  -5   3  536.25   46.40
  -3  -5   3  667.63   59.39
  -3  -5   3  604.44   53.19
   3   5  -3  609.14   44.80
   3   5  -3  603.24   41.60
  -3   5   3  683.93   49.30
   3   5  -3  541.35   62.19
  -3   5   3  633.94   40.90
   3   5  -3  673.03   49.70
  -3   5   3  571.14   36.80
   3   5  -3  591.34   60.59
  -3   5   3  606.14   47.30
  -3   5   3  588.44   52.29
   3   5  -3  682.03   46.80
  -3   5   3  676.03   54.09
   2  -5  -3 1629.04   72.49
  -2  -5   3 1620.24   75.39
  -2  -5   3 1452.25   74.19
  -2  -5   3 1752.62   75.69
   2  -5  -3 1660.03   75.89
   2  -5  -3 1684.93   57.89
   2  -5  -3 1582.24   79.09
   2  -5  -3 1629.64   69.39
  -2  -5   3 1544.65   67.79
  -2  -5   3 1696.83   73.39
   2   5  -3 1586.64   77.29
  -2   5   3 1741.93   75.79
   2   5  -3 1486.05   81.09
   2   5  -3 1590.44   70.19
  -2   5   3 1670.83   66.59
   2   5  -3 1664.53   70.09
  -2   5   3 1635.74   58.99
  -2   5   3 1614.04   55.49
  -2   5   3 1632.94   73.99
  -1  -5   3 1081.89   57.99
  -1  -5   3 1115.49   58.09
   1  -5  -3 1101.29   54.99
  -1  -5   3 1040.20   50.49
   1  -5  -3 1134.69   44.30
   1  -5  -3 1079.19   61.99
  -1  -5   3  989.50   56.39
   1  -5  -3 1042.50   55.19
  -1  -5   3 1045.70   57.49
   1  -5  -3 1088.29   50.79
   1   5  -3 1088.79   61.49
   1   5  -3 1172.48   55.89
   1   5  -3 1085.19   60.99
   1   5  -3  996.50   60.69
  -1   5   3 1115.29   48.20
   1   5  -3 1060.69   55.79
  -1   5   3 1097.19   58.99
   0  -5   3 1491.15   56.99
   0  -5  -3 1635.94   60.59
   0  -5  -3 1562.94   70.59
   0  -5   3 1528.65   68.89
   0  -5  -3 1536.75   58.99
   0  -5  -3 1546.45   59.59
   0  -5  -3 1572.14   60.19
   0  -5   3 1386.16   66.19
   0  -5   3 1468.55   67.39
   0   5  -3 1536.45   71.09
   0   5   3 1626.94   68.39
   0   5  -3 1489.25   70.39
   0   5  -3 1567.54   67.19
   0   5   3 1479.25   48.60
   0   5   3 1529.25   58.29
   0   5  -3 1503.45   68.29
   0   5  -3 1426.36   70.49
  -1  -5  -3   64.69   17.20
   1  -5   3   68.39   25.40
   1  -5   3   77.39   25.70
   1  -5   3  112.39   25.20
  -1  -5  -3   74.99   14.50
  -1  -5  -3   84.29   14.40
  -1  -5  -3   75.09   30.00
   1   5   3   79.99   23.70
  -1   5  -3   83.29   29.40
  -1   5  -3   92.59   26.90
  -1   5  -3  103.09   29.50
  -1   5  -3   72.49   25.90
  -1   5  -3   80.49   28.20
  -2  -5  -3 2389.96   81.09
   2  -5   3 2392.76   93.99
  -2  -5  -3 2448.35   87.89
  -2  -5  -3 2431.86   70.19
  -2  -5  -3 2420.16   85.89
   2  -5   3 2474.15   94.69
   2  -5   3 2455.55   92.49
  -2  -5  -3 2413.76   83.59
  -2   5  -3 2469.15   96.49
  -2   5  -3 2421.36   96.99
  -2   5  -3 2364.96   93.59
  -2   5  -3 2367.56   98.99
  -2   5  -3 2279.17   95.79
   3  -5   3  134.49   32.30
  -3  -5  -3  149.19   35.80
  -3  -5  -3  144.29   24.60
   3  -5   3  168.18   32.30
   3  -5   3  153.48   19.80
  -3  -5  -3  140.19   23.10
   3  -5   3  119.09   32.70
  -3  -5  -3  170.28   37.00
  -3  -5  -3  153.38   21.40
  -3   5  -3  207.88   34.20
  -3   5  -3  163.88   36.30
  -3   5  -3  157.18   37.30
  -3   5  -3  164.98   34.30
  -4  -5  -3  647.74   22.20
  -4  -5  -3  569.44   61.09
   4  -5   3  666.43   57.39
  -4  -5  -3  671.23   51.29
  -4  -5  -3  727.13   23.00
  -4  -5  -3  743.83   49.20
   4  -5   3  645.94   40.50
  -4  -5  -3  743.43   63.69
   4  -5   3  650.53   51.79
  -4   5  -3  645.74   63.19
  -4   5  -3  600.94   60.99
  -4   5  -3  563.94   60.19
   5  -5   3  843.52   65.89
  -5  -5  -3  947.81   74.99
   5  -5   3  858.01   53.49
  -5  -5  -3  892.91   67.39
  -5  -5  -3  839.42   79.89
  -5  -5  -3  959.60   60.99
  -5  -5  -3  916.91   37.10
   5  -5   3  892.21   61.69
  -5   5  -3  901.71   77.19
  -5   5  -3  781.02   72.79
  -5   5  -3  923.81   77.39
   6  -5   3   14.80   36.70
  -6  -5  -3   27.50   46.40
  -6  -5  -3   19.50   20.50
  -6  -5  -3   24.80   35.30
   6  -5   3    8.30   36.20
  -6   5  -3  -40.80   54.29
  -6   5  -3  116.69   52.19
  -7  -5  -3  685.93   72.79
  -7  -5  -3  784.92   87.49
   7  -5   3  737.63   73.79
  -7   5  -3  623.14   89.69
  -7   5  -3  699.73   84.29
  -8  -5  -3  197.38   70.89
   8  -5   3  294.57   55.19
  -8  -5  -3  211.68   69.39
  -8   5  -3  196.68   75.89
  -8   5  -3  157.38   76.99
   9  -6  -3   45.30   76.69
  -9  -6   3  -55.79   76.39
  -9  -6   3   -5.00   70.09
  -9   6   3  -85.29   55.89
  -9   6   3  -79.69   75.79
   8  -6  -3  752.72   92.89
  -8  -6   3  925.41  105.59
   8  -6  -3  972.40  107.39
   8   6  -3  916.51  111.59
  -8   6   3  898.71  106.89
  -8   6   3  873.91   91.19
   7  -6  -3   14.90   50.99
  -7  -6   3   54.09   62.69
  -7  -6   3    4.80   58.09
   7  -6  -3   65.99   67.59
  -7   6   3   45.70   40.00
   7   6  -3   33.10   30.30
  -7   6   3   14.10   58.99
   7   6  -3   69.39   55.69
   6  -6  -3 1408.36   95.19
   6  -6  -3 1303.17   98.49
  -6  -6   3 1266.47   95.69
  -6  -6   3 1402.46   94.49
   6   6  -3 1462.95   89.29
   6   6  -3 1384.36   68.49
   6   6  -3 1146.09   81.29
  -6   6   3 1301.87   90.59
  -6   6   3 1292.37   73.49
   5  -6  -3   84.89   47.10
  -5  -6   3  183.98   44.20
   5  -6  -3  175.58   50.19
  -5  -6   3  124.89   41.40
   5  -6  -3  143.89   45.90
  -5   6   3  171.08   31.60
   5   6  -3  177.58   38.70
  -5   6   3  173.68   39.20
   5   6  -3  134.39   28.10
  -5   6   3  180.88   43.30
   5   6  -3   63.69   45.20
   4  -6  -3 1558.64   91.49
  -4  -6   3 1463.25   88.09
   4  -6  -3 1425.26   90.19
   4  -6  -3 1646.34   87.29
   4  -6  -3 1578.14   83.39
  -4  -6   3 1618.84   83.99
  -4  -6   3 1540.05   82.79
  -4   6   3 1525.45   72.59
   4   6  -3 1538.55   87.39
  -4   6   3 1466.55   78.89
  -4   6   3 1510.05   84.09
  -4   6   3 1668.83   86.19
   4   6  -3 1606.64   76.99
  -4   6   3 1339.17   84.09
   4   6  -3 1604.24   69.69
   4   6  -3 1599.94   69.59
   4   6  -3 1591.64   97.89
  -4   6   3 1598.84   67.69
   3  -6  -3   44.80   33.50
   3  -6  -3   77.09   19.90
  -3  -6   3  111.89   32.10
   3  -6  -3   49.00   38.40
   3  -6  -3   57.19   28.10
  -3  -6   3   30.90   33.40
   3  -6  -3   37.30   34.30
  -3  -6   3   45.50   33.60
  -3  -6   3   53.99   32.50
  -3  -6   3    3.30   31.80
   3   6  -3   59.59   24.50
   3   6  -3   88.39   39.60
   3   6  -3   14.60   23.50
  -3   6   3  109.49   21.70
  -3   6   3   73.49   22.20
  -3   6   3   34.60   32.10
  -3   6   3   75.39   30.30
  -3   6   3   49.30   34.30
  -3   6   3   68.79   32.00
   3   6  -3   72.69   29.60
   3   6  -3   53.59   39.00
  -2  -6   3   -2.80   27.70
   2  -6  -3   34.30   27.90
   2  -6  -3   61.09   35.40
   2  -6  -3   55.49   31.20
  -2  -6   3   81.19   31.20
   2  -6  -3   20.30   24.00
  -2  -6   3   58.69   29.60
  -2  -6   3   80.39   32.90
  -2  -6   3   29.00   25.30
   2  -6  -3   39.70   17.80
   2   6  -3  -19.40   31.30
  -2   6   3    3.50   22.80
   2   6  -3   40.70   24.50
   2   6  -3   39.20   34.40
  -2   6   3   40.70   11.70
  -2   6   3   29.50   24.40
   2   6  -3   30.30   25.80
  -2   6   3   49.30   24.90
  -2   6   3   52.39   26.70
   1  -6  -3   61.19   32.70
   1  -6  -3   77.29   23.50
  -1  -6   3   60.69   23.40
  -1  -6   3   96.99   29.90
   1  -6  -3   98.29   20.30
  -1  -6   3  113.09   30.40
   1  -6  -3   76.09   26.90
  -1  -6   3   82.19   31.00
  -1  -6   3  104.89   28.80
  -1   6   3   85.99   22.50
   1   6  -3   26.10   25.20
  -1   6   3   96.99   24.30
   1   6  -3  129.29   34.50
  -1   6   3   73.69   35.90
   1   6  -3   41.20   33.30
   1   6  -3   69.09   27.00
   1   6  -3   96.09   32.40
  -1   6   3  135.99   27.20
   0  -6  -3 1174.28   51.09
   0  -6   3 1109.49   51.79
   0  -6  -3 1194.08   64.79
   0  -6   3 1055.19   61.79
   0  -6  -3 1117.29   54.29
   0  -6  -3 1142.49   56.49
   0  -6   3 1114.89   62.79
   0  -6   3 1052.69   61.79
   0  -6  -3 1110.49   54.19
   0   6   3 1126.59   49.50
   0   6  -3 1103.89   61.29
   0   6  -3 1200.18   67.09
   0   6  -3 1126.09   64.79
   0   6   3 1263.17   62.69
   0   6   3 1117.19   44.70
   0   6   3 1145.99   43.40
   0   6  -3 1145.59   62.99
   0   6  -3 1103.19   66.49
   1  -6   3  314.97   38.70
  -1  -6  -3  343.37   16.90
  -1  -6  -3  327.57   35.70
  -1  -6  -3  320.07   36.80
  -1  -6  -3  378.36   24.10
   1  -6   3  382.56   39.60
  -1  -6  -3  364.86   35.60
   1  -6   3  234.98   36.30
  -1   6  -3  331.67   42.00
  -1   6  -3  348.67   42.60
  -1   6  -3  308.17   39.20
   1   6   3  359.76   40.20
  -1   6  -3  330.37   38.90
  -1   6  -3  275.87   39.80
   2  -6   3 1387.26   68.79
  -2  -6  -3 1494.35   58.39
  -2  -6  -3 1216.28   77.99
   2  -6   3 1346.07   73.59
  -2  -6  -3 1327.97   64.89
   2  -6   3 1303.87   70.29
  -2  -6  -3 1442.46   62.79
  -2   6  -3 1237.58   71.09
  -2   6  -3 1457.15   76.09
  -2   6  -3 1279.47   77.59
  -2   6  -3 1332.87   73.89
  -2   6  -3 1379.66   74.19
  -3  -6  -3   86.69   35.60
  -3  -6  -3   24.50   22.30
   3  -6   3   58.99   22.00
  -3  -6  -3   11.10   27.00
   3  -6   3  178.78   33.90
   3  -6   3    3.80   30.70
  -3  -6  -3   49.40   24.60
  -3  -6  -3   77.09   24.80
  -3   6  -3   62.49   35.90
  -3   6  -3   97.19   35.50
  -3   6  -3    6.10   33.70
  -4  -6  -3  961.30   73.19
   4  -6   3  884.41   64.99
  -4  -6  -3  936.91   73.29
   4  -6   3  891.01   65.09
  -4  -6  -3  829.22   55.19
  -4  -6  -3  852.81   39.00
  -4  -6  -3  964.90   62.79
   4  -6   3  782.02   48.50
  -4   6  -3  762.42   71.89
  -4   6  -3  865.91   72.79
   5  -6   3   82.09   43.10
  -5  -6  -3   70.39   30.30
   5  -6   3   54.69   30.00
  -5  -6  -3   55.79   56.49
   5  -6   3   38.10   38.20
  -5  -6  -3   56.39   45.30
  -5   6  -3   -6.20   41.60
  -5   6  -3   91.79   48.50
   6  -6   3  159.68   47.80
  -6  -6  -3  275.37   68.39
  -6  -6  -3  153.58   41.70
  -6   6  -3  172.78   65.29
  -6   6  -3  230.28   65.59
  -7  -6  -3  -59.29   57.69
   7  -6   3  -61.09   50.39
  -7   6  -3   17.70   62.29
  -7   6  -3   61.59   65.19
  -8  -6  -3  178.68   82.09
  -8  -6  -3  288.27   74.99
  -8   6  -3  135.59   78.59
  -8   6  -3  113.59   73.99
  -9  -7   3  229.18   82.19
  -9  -7   3  384.96   89.29
   9  -7  -3  240.08   88.79
   9  -7  -3  257.47   79.69
  -9   7   3  417.16   77.09
  -9   7   3  289.67   86.29
   8  -7  -3   25.50   79.99
  -8  -7   3  -11.30   62.99
   8  -7  -3   71.49   72.69
  -8   7   3   33.80   62.89
   8   7  -3  -59.09   67.29
  -8   7   3  -19.30   61.39
   7  -7  -3  359.26   73.09
  -7  -7   3  378.16   84.69
  -7  -7   3  362.76   70.09
   7  -7  -3  377.76   79.69
  -7   7   3  413.06   71.89
   7   7  -3  332.27   69.59
  -7   7   3  361.76   51.29
  -6  -7   3   88.89   52.59
   6  -7  -3   -3.20   53.19
  -6  -7   3   16.10   52.49
   6  -7  -3   55.89   58.19
  -6   7   3  -22.50   31.60
  -6   7   3   18.90   53.29
   6   7  -3   83.59   32.20
   6   7  -3  112.29   50.79
  -5  -7   3  244.98   50.59
   5  -7  -3  320.27   58.09
   5  -7  -3  320.37   58.79
  -5  -7   3  223.68   50.59
  -5   7   3  202.68   46.90
  -5   7   3  270.27   37.10
   5   7  -3  296.47   55.49
  -5   7   3  281.67   44.60
   5   7  -3  281.67   35.70
   5   7  -3  296.77   37.20
   5   7  -3  302.37   47.90
  -4  -7   3   58.89   46.20
   4  -7  -3   19.90   45.10
  -4  -7   3   20.20   35.80
  -4  -7   3   28.50   35.90
   4  -7  -3   36.90   40.80
  -4   7   3   49.40   38.70
  -4   7   3  -20.40   23.20
  -4   7   3  -50.39   37.00
  -4   7   3  -26.50   25.20
   4   7  -3   19.40   24.90
   4   7  -3  -35.40   42.50
   4   7  -3   39.20   37.10
   4   7  -3  -71.89   27.10
   4   7  -3   75.69   44.00
  -3  -7   3  435.26   51.69
   3  -7  -3  417.96   50.39
  -3  -7   3  451.95   53.09
  -3  -7   3  465.25   48.60
   3  -7  -3  462.95   38.60
   3  -7  -3  414.96   55.79
   3  -7  -3  442.26   52.59
   3   7  -3  452.15   54.69
   3   7  -3  548.05   52.09
  -3   7   3  471.65   48.80
   3   7  -3  442.16   41.40
  -3   7   3  470.25   43.80
  -3   7   3  447.86   47.20
   3   7  -3  500.45   50.49
   3   7  -3  530.15   58.59
  -3   7   3  480.45   35.70
  -3   7   3  492.95   51.29
   2  -7  -3  152.18   33.80
  -2  -7   3  175.88   37.60
   2  -7  -3  173.48   44.20
   2  -7  -3  202.18   38.50
  -2  -7   3  172.68   37.70
  -2  -7   3  266.27   42.90
  -2  -7   3  138.79   32.70
  -2  -7   3  194.58   39.60
   2  -7  -3  179.68   36.00
   2  -7  -3  219.58   26.50
   2   7  -3  140.09   42.10
  -2   7   3  229.38   32.10
  -2   7   3  208.58   34.90
   2   7  -3  216.18   34.30
  -2   7   3  198.18   40.00
   2   7  -3  166.48   41.80
   2   7  -3  208.78   36.70
  -2   7   3  175.08   33.80
  -2   7   3  175.28   28.70
  -1  -7   3  166.48   30.80
   1  -7  -3  122.59   30.70
   1  -7  -3  156.78   34.20
  -1  -7   3  174.88   38.50
  -1  -7   3  157.88   37.00
   1  -7  -3  127.69   39.50
   1  -7  -3  191.58   31.60
  -1  -7   3  119.99   36.00
  -1  -7   3  227.18   36.00
   1  -7  -3  166.58   24.90
   1   7  -3  190.18   41.70
   1   7  -3  170.28   34.10
  -1   7   3  149.19   28.30
  -1   7   3  156.78   28.20
   1   7  -3  153.78   39.60
   1   7  -3  154.78   37.50
  -1   7   3  128.99   26.20
   1   7  -3  153.18   34.10
  -1   7   3  224.88   38.70
   0  -7   3  277.57   40.00
   0  -7  -3  243.78   32.70
   0  -7  -3  201.38   39.00
   0  -7   3  237.78   30.50
   0  -7   3  260.77   39.00
   0  -7   3  239.18   38.90
   0  -7  -3  237.58   34.30
   0  -7  -3  281.77   34.30
   0   7   3  240.28   40.30
   0   7  -3  231.18   42.60
   0   7   3  166.58   22.50
   0   7  -3  203.28   38.00
   0   7  -3  213.08   42.10
   0   7   3  268.27   31.90
   0   7   3  263.47   38.50
   0   7  -3  210.58   37.90
   0   7  -3  280.77   39.00
   1  -7   3   57.29   31.70
  -1  -7  -3   30.50   31.80
   1  -7   3   38.80   33.10
   1  -7   3   16.70   31.30
  -1  -7  -3   45.50   25.70
  -1  -7  -3   28.10   25.80
  -1  -7  -3   -0.80   28.40
   1   7   3   83.59   29.30
  -1   7  -3   33.60   32.90
  -1   7  -3  -37.80   31.70
  -1   7  -3   25.80   30.70
  -1   7  -3   -5.10   32.80
  -1   7  -3   20.60   30.80
  -2  -7  -3  608.44   51.49
  -2  -7  -3  590.64   59.89
  -2  -7  -3  573.44   46.20
  -2  -7  -3  589.04   37.70
   2  -7   3  618.44   56.59
   2  -7   3  648.24   59.49
  -2  -7  -3  582.24   48.20
  -2   7  -3  520.15   61.29
  -2   7  -3  696.63   65.29
   2   7   3  685.33   51.89
  -2   7  -3  584.34   58.79
  -3  -7  -3  903.51   58.49
  -3  -7  -3  904.41   57.89
   3  -7   3  928.31   50.99
  -3  -7  -3  854.91   58.99
  -3  -7  -3  854.01   53.99
  -3  -7  -3  887.01   72.99
   3  -7   3  856.01   72.19
   3  -7   3 1209.28   72.99
  -3   7  -3  891.61   73.49
  -3   7  -3  931.91   73.29
  -3   7  -3  863.91   72.89
  -4  -7  -3   90.09   31.00
   4  -7   3  173.28   30.60
   4  -7   3   84.89   42.40
   4  -7   3  110.69   42.30
  -4  -7  -3  112.19   39.40
  -4  -7  -3  112.19   41.30
  -4  -7  -3  148.99   42.50
  -4   7  -3  126.29   45.50
  -4   7  -3   85.49   44.50
   5  -7   3 1159.48   88.49
  -5  -7  -3 1282.47   74.59
  -5  -7  -3  840.82   99.29
  -5  -7  -3 1094.99   95.49
   5  -7   3 1215.38   70.19
  -5   7  -3 1182.28   95.49
  -5   7  -3 1133.39   97.89
   6  -7   3   54.49   52.59
  -6  -7  -3   35.50   40.70
  -6  -7  -3    9.00   90.89
  -6   7  -3   86.59   90.09
  -6   7  -3   17.10   69.89
  -7  -7  -3  593.94   74.79
   7  -7   3  552.44   81.09
  -7  -7  -3  555.84   84.49
  -7   7  -3  666.83   85.39
  -7   7  -3  799.92   95.29
   8  -7   3  263.87   79.99
  -8  -7  -3  -55.99   76.79
  -8   7  -3    9.40   85.19
  -8   7  -3   61.49   78.99
   8  -8  -3   60.49   77.49
  -8  -8   3   59.69   70.79
   8  -8  -3  125.49   83.09
  -8   8   3   31.00   76.59
   8   8  -3   54.39   80.39
  -8   8   3  113.29  101.69
  -7  -8   3  -10.90   62.69
   7  -8  -3   55.69   66.79
   7  -8  -3  -20.90   81.39
  -7  -8   3  -81.49   57.29
  -7   8   3    2.70   61.29
  -7   8   3  -19.20   45.60
   7   8  -3  105.89   72.29
   6  -8  -3   49.90   69.59
  -6  -8   3   38.00   59.99
   6  -8  -3  145.69   68.19
  -6  -8   3   98.09   58.69
  -6   8   3  115.59   40.50
  -6   8   3   87.59   58.69
   6   8  -3  142.59   57.99
   5  -8  -3  578.44   73.09
   5  -8  -3  596.54   72.99
  -5  -8   3  539.95   64.59
  -5  -8   3  472.95   66.29
  -5   8   3  379.46   45.00
   5   8  -3  496.05   51.29
   5   8  -3  432.86   39.30
  -5   8   3  466.25   60.39
  -5   8   3  596.54   69.29
   5   8  -3  553.94   67.09
  -4  -8   3   66.89   39.60
   4  -8  -3   71.29   44.20
  -4  -8   3   95.69   42.30
   4  -8  -3  102.59   47.90
   4   8  -3   30.30   47.60
  -4   8   3   24.30   28.20
   4   8  -3   -8.90   35.40
   4   8  -3   38.30   45.20
   4   8  -3   32.30   42.20
  -4   8   3    1.00   37.90
  -3  -8   3 2409.56  107.59
  -3  -8   3 2517.05  112.79
   3  -8  -3 2586.74   95.09
   3  -8  -3 2418.76  112.79
   3  -8  -3 2446.96  122.29
  -3  -8   3 2459.15  115.99
   3   8  -3 2125.59  104.09
  -3   8   3 2510.35   81.59
   3   8  -3 2523.15  118.69
  -3   8   3 2604.04  105.79
  -3   8   3 2504.65  111.39
  -3   8   3 2440.86  108.49
   3   8  -3 2527.75  106.89
   3   8  -3 2470.35  116.79
  -3   8   3 2545.85   83.99
  -3   8   3 2569.84   97.19
   2  -8  -3  196.98   29.80
  -2  -8   3  103.69   39.40
   2  -8  -3  151.48   46.40
   2  -8  -3  232.98   42.00
  -2  -8   3  165.08   39.40
  -2  -8   3  217.38   39.20
   2   8  -3  281.87   49.99
  -2   8   3  231.98   38.40
   2   8  -3  175.38   38.20
  -2   8   3  211.08   37.90
  -2   8   3  256.67   42.30
   2   8  -3  116.99   39.20
   2   8  -3  167.58   44.30
  -1  -8   3 1918.41   95.39
   1  -8  -3 2112.39   95.29
   1  -8  -3 2075.39   82.39
   1  -8  -3 1965.30  103.49
  -1  -8   3 2046.90   86.89
   1  -8  -3 2033.60   90.29
  -1  -8   3 2055.09   92.69
  -1   8   3 1977.30   85.19
   1   8  -3 2014.40  103.29
   1   8  -3 2073.59  105.39
   1   8  -3 2157.28   97.09
   1   8  -3 2042.80   97.59
  -1   8   3 2027.90   83.99
  -1   8   3 2131.09   89.39
   1   8  -3 1973.70  101.79
   0  -8  -3   57.49   35.50
   0  -8   3  -15.40   33.40
   0  -8   3   24.00   24.10
   0  -8  -3  -36.10   30.50
   0  -8  -3    3.00   27.30
   0  -8  -3   30.00   29.10
   0   8   3   83.29   27.40
   0   8  -3  -40.10   33.30
   0   8  -3  -15.70   32.50
   0   8   3   23.50   36.70
   0   8  -3  -23.20   37.60
   0   8   3   75.89   35.40
   0   8   3  -35.40   18.60
  -1  -8  -3  556.94   54.39
  -1  -8  -3  367.16   46.50
  -1  -8  -3  535.75   51.09
  -1  -8  -3  560.14   56.79
   1  -8   3  496.15   52.89
  -1   8  -3  458.45   54.09
  -1   8  -3  531.65   63.59
   1   8   3  561.94   59.79
  -1   8  -3  468.55   56.89
  -2  -8  -3  371.56   49.60
  -2  -8  -3  365.96   44.00
  -2  -8  -3  413.86   27.40
  -2  -8  -3  470.55   53.99
   2  -8   3  409.96   53.99
  -2  -8  -3  332.27   51.19
  -2  -8  -3  409.86   48.00
  -2   8  -3  390.26   54.19
   2   8   3  341.07   42.00
  -2   8  -3  366.16   50.09
  -2   8  -3  323.57   49.99
  -3  -8  -3  157.38   32.40
   3  -8   3  138.89   42.80
  -3  -8  -3  124.69   60.09
   3  -8   3  144.29   31.60
  -3  -8  -3  152.28   34.30
  -3  -8  -3  181.08   48.50
  -3  -8  -3  185.88   49.00
  -3   8  -3  177.58   44.50
  -3   8  -3  218.28   50.59
  -3   8  -3  168.68   45.70
  -4  -8  -3  100.19   35.80
   4  -8   3   82.89   33.90
  -4  -8  -3  212.38   55.39
   4  -8   3  134.99   52.09
  -4  -8  -3  135.49   43.10
  -4   8  -3   69.99   44.70
  -4   8  -3  124.79   52.19
  -4   8  -3  136.49   53.19
  -5  -8  -3  -28.80   60.79
  -5  -8  -3   16.00   38.70
   5  -8   3   76.79   58.99
  -5   8  -3   67.69   61.39
  -5   8  -3   81.39   61.79
  -5   8  -3   52.09   59.49
  -6  -8  -3   23.50   61.19
   6  -8   3   89.99   63.59
  -6  -8  -3  124.69   50.49
  -6   8  -3   87.79   65.89
  -6   8  -3  202.98   66.19
   7  -8   3    5.60   65.29
  -7  -8  -3   66.09   73.99
  -7  -8  -3   55.49   69.29
  -7   8  -3  -60.99   75.09
  -7   8  -3   32.30   69.69
   8  -9  -3 -103.09   81.29
  -8  -9   3 -116.39   74.89
  -8  -9   3 -139.39   73.99
   8  -9  -3  -25.50   84.99
  -8   9   3  -50.39   63.69
  -8   9   3  199.48   84.99
  -7  -9   3   63.39   67.09
   7  -9  -3   14.70   76.79
   7  -9  -3   55.89   70.19
  -7  -9   3 -122.49   62.39
  -7   9   3   30.60   58.59
  -7   9   3  103.29   66.59
   7   9  -3  127.29   76.69
  -6  -9   3    2.40   57.29
   6  -9  -3    5.60   66.99
   6  -9  -3   53.29   63.29
  -6  -9   3   82.09   64.49
  -6   9   3   -7.90   41.40
   6   9  -3  -50.99   66.59
  -6   9   3   99.29   61.09
  -5  -9   3  -20.80   54.29
   5  -9  -3   10.60   60.49
   5  -9  -3  -25.00   64.39
  -5  -9   3  -10.10   56.09
  -5   9   3    8.10   57.29
  -5   9   3  -15.20   35.90
   5   9  -3  -21.70   55.39
  -4  -9   3  101.09   48.00
  -4  -9   3   44.90   47.60
   4  -9  -3   39.20   52.19
   4  -9  -3  105.39   58.69
   4   9  -3   78.89   31.10
  -4   9   3   77.29   46.60
   4   9  -3  166.08   58.99
   4   9  -3  176.98   54.19
  -4   9   3   60.09   34.60
  -4   9   3  112.09   30.10
   3  -9  -3  -35.60   38.20
   3  -9  -3   19.50   50.39
   3  -9  -3   96.49   32.60
  -3  -9   3   51.39   39.20
  -3  -9   3   36.80   43.10
   3   9  -3   29.00   44.00
  -3   9   3  -21.50   35.40
  -3   9   3   -7.00   31.50
  -3   9   3  -10.10   11.10
  -3   9   3   80.49   48.20
   3   9  -3  -15.70   43.80
  -3   9   3   10.40   15.80
   2  -9  -3  284.67   49.00
   2  -9  -3  339.47   39.40
  -2  -9   3  392.66   53.49
   2  -9  -3  358.96   52.19
  -2  -9   3  338.77   51.49
  -2  -9   3  415.06   49.50
   2   9  -3  385.26   59.89
  -2   9   3  494.65   58.29
   2   9  -3  258.67   49.40
  -2   9   3  472.05   51.29
  -2   9   3  533.65   62.79
   1  -9  -3    9.10   38.30
   1  -9  -3  -10.80   41.40
   1  -9  -3   14.10   31.90
  -1  -9   3  -54.99   36.10
  -1  -9   3   18.30   31.40
   1   9  -3  -19.80   44.00
  -1   9   3   -5.60   29.90
  -1   9   3   43.80   31.20
  -1   9   3    6.50   30.30
   1   9  -3   47.30   40.40
   0  -9  -3 2727.33  111.49
   0  -9  -3 2481.25  105.99
   0  -9  -3 2594.54  116.29
   0  -9   3 2574.04  103.19
   0  -9   3 2433.86  112.39
   0   9  -3 2421.26  119.19
   0   9   3 2488.05   92.09
   0   9  -3 2448.16  112.29
   0   9  -3 2387.26  119.99
  -1  -9  -3   50.29   40.20
  -1  -9  -3   56.69   33.90
   1  -9   3   58.79   41.70
  -1  -9  -3   45.80   43.50
  -1   9  -3   14.40   42.80
  -1   9  -3   38.60   39.50
  -1   9  -3   22.40   42.30
  -2  -9  -3 1094.89   70.19
  -2  -9  -3 1015.80   84.39
  -2  -9  -3  992.90   68.49
   2  -9   3  810.82   78.09
  -2   9  -3  945.71   83.19
   2   9   3 1005.40   78.89
  -2   9  -3  940.61   75.39
  -2   9  -3 1022.30   85.59
   3  -9   3   18.00   37.10
  -3  -9  -3  -43.20   34.90
  -3  -9  -3  -26.60   30.20
  -3  -9  -3  -31.40   47.70
   3  -9   3  -13.80   45.80
  -3   9  -3   47.40   52.89
  -3   9  -3   83.69   53.09
  -3   9  -3    0.50   43.40
   4  -9   3  295.37   70.39
  -4  -9  -3  405.76   72.39
  -4  -9  -3  370.66   51.19
  -4   9  -3  365.06   66.39
  -4   9  -3  411.66   73.49
  -4   9  -3  313.27   66.99
  -5  -9  -3  115.59   47.30
  -5  -9  -3  180.58   61.49
  -5   9  -3   99.29   61.39
  -5   9  -3  132.99   73.39
  -5   9  -3  235.38   67.49
  -6  -9  -3   97.79   62.09
   6  -9   3  103.99   62.99
  -6  -9  -3  149.19   68.69
  -6   9  -3    6.00   70.29
  -6   9  -3   28.80   65.29
  -6   9  -3   47.00   71.59
   7  -9   3  265.07   77.19
  -7  -9  -3  314.47   84.49
  -7   9  -3  383.66   91.09
  -7   9  -3  180.78   80.69
  -7   9  -3  270.47   95.09
   7 -10  -3 -183.48   75.59
  -7 -10   3  -35.90   70.99
   7 -10  -3   76.29   82.29
  -7 -10   3  -72.59   75.79
  -7  10   3   84.89   76.69
   7  10  -3  107.79  115.49
  -7  10   3   80.39   75.99
  -6 -10   3  851.41   93.09
   6 -10  -3  865.21   98.09
  -6 -10   3  891.71  108.29
   6 -10  -3  959.30  105.99
  -6  10   3 1030.50  111.39
   6  10  -3 1062.59  120.69
  -6  10   3  921.51   92.69
  -5 -10   3   11.70   53.29
   5 -10  -3   -2.90   67.99
   5 -10  -3   23.70   59.59
  -5 -10   3    1.30   57.29
  -5  10   3  -15.90   42.40
  -5  10   3   31.80   32.80
   5  10  -3  -85.79   68.19
   4 -10  -3  408.26   78.29
   4 -10  -3  462.75   93.19
  -4 -10   3  395.76   70.19
  -4 -10   3  431.16   70.79
   4  10  -3  402.06   73.09
   4  10  -3  366.76   28.10
   4  10  -3  500.05   69.69
  -4  10   3  519.05   68.09
  -4  10   3  479.45   53.99
   3 -10  -3  215.08   59.69
   3 -10  -3  133.39   65.39
   3 -10  -3  170.98   44.40
  -3 -10   3  215.18   51.09
  -3 -10   3  171.68   59.19
  -3  10   3  194.28   49.80
   3  10  -3  196.78   54.49
  -3  10   3  183.78   43.40
   3  10  -3  157.88   63.89
   2 -10  -3  -49.00   45.90
   2 -10  -3    6.00   40.00
  -2 -10   3  -14.30   38.70
  -2 -10   3    6.10   47.30
   2 -10  -3   75.29   52.29
   2  10  -3   -4.10   45.90
   2  10  -3   50.69   56.49
  -2  10   3   28.40   39.40
  -2  10   3   74.59   46.00
  -1 -10   3  233.38   45.70
   1 -10  -3  153.78   43.30
   1 -10  -3  297.97   52.29
  -1 -10   3  173.18   52.09
   1 -10  -3  196.18   58.79
   1  10  -3  187.38   50.19
  -1  10   3  245.08   42.20
  -1  10   3  298.77   43.70
   1  10  -3  236.48   61.99
  -1  10   3  259.27   41.10
   0 -10   3  302.87   55.89
   0 -10  -3  283.97   55.99
   0 -10  -3  328.67   51.79
   0 -10  -3  384.46   63.29
   0 -10   3  417.36   47.60
   0  10  -3  346.87   52.39
   0  10   3  385.86   46.40
   0  10  -3  238.38   50.49
   0  10  -3  224.98   58.99
   0  10   3  489.05   48.30
   0  10  -3  361.86   61.59
   0  10   3  379.66   45.80
   1 -10   3  567.04   59.29
  -1 -10  -3  569.04   59.29
  -1 -10  -3  587.04   63.69
   1 -10   3  470.85   64.69
  -1  10  -3  422.36   66.89
  -1  10  -3  678.43   75.39
  -1  10  -3  584.54   71.39
  -2 -10  -3  600.44   61.89
   2 -10   3  494.05   71.69
  -2 -10  -3  527.65   74.09
  -2 -10  -3  700.43   68.99
  -2  10  -3  446.66   71.99
  -2  10  -3  541.45   62.99
  -2  10  -3  653.33   80.89
   3 -10   3  323.27   68.99
  -3 -10  -3  370.46   51.59
  -3 -10  -3  340.27   73.59
  -3 -10  -3  381.96   49.30
  -3  10  -3  367.16   69.49
  -3  10  -3  340.47  100.89
  -3  10  -3  299.37   57.29
   4 -10   3  194.98   69.69
  -4 -10  -3  216.68   65.19
  -4 -10  -3  262.87   51.19
  -4  10  -3  172.18   65.89
  -4  10  -3  207.48   67.99
  -4  10  -3  229.18   69.89
   5 -10   3  -24.70   66.09
  -5 -10  -3   -3.70   53.39
  -5 -10  -3    1.30   61.39
  -5  10  -3  115.39   88.49
  -5  10  -3   76.29   65.99
  -5  10  -3   16.30   63.39
   6 -10   3  442.36   78.99
  -6 -10  -3  386.66   90.49
  -6 -10  -3  272.57   86.19
  -6  10  -3  337.37   89.09
  -6  10  -3  358.96   87.79
  -6  10  -3  454.55   86.99
   6 -11  -3  -19.30   80.19
   6 -11  -3 -122.89   77.09
  -6 -11   3   27.70   73.39
  -6 -11   3  -90.99   69.19
  -6  11   3   85.89   72.39
  -6  11   3    8.30   66.29
   6  11  -3  123.99   73.99
  -5 -11   3  189.68   71.99
  -5 -11   3  265.77   70.49
   5 -11  -3  285.77   84.49
   5 -11  -3  259.87   75.39
  -5  11   3   74.79   63.59
  -5  11   3  233.18   59.89
  -4 -11   3  -77.79   52.59
   4 -11  -3  130.29   75.09
   4 -11  -3  -98.59   58.19
  -4 -11   3   56.09   61.99
  -4  11   3   82.29   46.20
  -4  11   3  -20.00   62.59
   4  11  -3   31.70   74.09
   3 -11  -3   92.39   62.69
  -3 -11   3  174.38   60.79
   3 -11  -3  173.58   78.89
   3  11  -3   81.79   67.99
   3  11  -3  144.79   56.49
  -3  11   3  131.49   59.69
   2 -11  -3   43.60   61.29
  -2 -11   3   54.69   54.59
  -2 -11   3   16.60   48.10
   2 -11  -3  -18.20   62.69
   2  11  -3 -103.79   44.80
   2  11  -3  -50.69   64.49
  -2  11   3   23.10   41.50
   1 -11  -3  314.27   73.59
  -1 -11   3  323.17   51.89
   1 -11  -3  259.47   59.39
  -1 -11   3  341.67   64.79
   1  11  -3  374.66   76.19
  -1  11   3  235.38   44.70
   1  11  -3  296.57   54.99
   0 -11   3   22.20   38.90
   0 -11   3  -49.10   56.99
   0 -11  -3   39.60   46.90
   0 -11  -3   11.80   56.19
   0  11  -3   83.99   67.49
   0  11  -3   31.80   44.80
   0  11  -3   19.50   61.59
   0  11   3   40.10   33.10
   1 -11   3  111.29   42.40
  -1 -11  -3   32.00   45.80
  -1 -11  -3  -65.39   51.99
  -1  11  -3   66.29   67.19
  -1  11  -3  146.79   69.49
  -1  11  -3   48.30   50.09
  -2 -11  -3   -1.90   56.59
  -2 -11  -3   17.70   46.80
  -2 -11  -3  111.79   48.60
   2 -11   3  100.69   63.39
  -2  11  -3   67.19   47.90
  -2  11  -3   -3.80   62.99
  -3 -11  -3  779.32   72.39
  -3 -11  -3  545.15   78.89
   3 -11   3  405.46   73.49
  -3 -11  -3  599.74   67.69
  -3  11  -3  485.75   72.99
  -3  11  -3  627.64   87.59
  -3  11  -3  574.34   77.99
   4 -11   3  324.97   76.09
  -4 -11  -3  340.17   64.99
  -4 -11  -3  283.87   72.79
  -4  11  -3  195.68   77.69
  -4  11  -3  325.47   77.89
  -4  11  -3  330.67   71.79
   5 -11   3 1271.77  127.69
  -5 -11  -3 1444.96  128.79
  -5 -11  -3  990.20  117.99
  -5  11  -3 1104.99  106.99
  -5  11  -3 1275.77  133.99
  -5  11  -3 1317.37  138.09
   5 -12  -3  344.47   90.49
  -5 -12   3  293.57   83.99
   5 -12  -3  275.07   94.79
  -5 -12   3  455.95   83.49
  -5  12   3  286.17   76.79
   5  12  -3  303.57   84.89
  -5  12   3  265.27   74.39
  -4 -12   3   86.39   63.99
   4 -12  -3   73.69   69.69
   4 -12  -3   75.89   79.49
  -4 -12   3  -24.00   66.39
  -4  12   3  124.29   65.29
   4  12  -3  -65.39   66.59
  -3 -12   3  663.73   88.19
   3 -12  -3  981.50  110.69
   3 -12  -3  548.75   88.59
  -3 -12   3  631.04   79.49
  -3  12   3  770.82   87.59
   3  12  -3  759.92   89.19
   3  12  -3  696.83   86.09
   2 -12  -3   99.99   65.49
   2 -12  -3   81.09   65.09
  -2 -12   3  -27.10   57.19
  -2 -12   3   34.20   56.99
   2  12  -3   63.29   70.09
   2  12  -3  194.28   58.09
  -2  12   3   49.90   56.49
   2  12  -3   22.60   34.30
  -1 -12   3  659.73   80.79
  -1 -12   3  698.33   78.39
   1 -12  -3  790.12   90.69
   1 -12  -3  851.61  103.29
  -1  12   3  807.02   78.69
   1  12  -3  768.92   91.39
   1  12  -3  896.01  106.69
   0 -12  -3   50.89   60.99
   0 -12   3   25.50   51.39
   0 -12   3  -88.29   55.09
   0  12  -3  -43.40   50.29
   0  12  -3  -58.89   60.99
   0  12   3   43.80   36.80
  -1 -12  -3  511.35   84.49
   1 -12   3  402.06   78.09
   1 -12   3  521.25   65.79
  -1 -12  -3  589.44   76.59
  -1 -12  -3  531.15   76.39
  -1  12  -3  491.35   82.09
  -1  12  -3  422.66   65.29
  -1  12  -3  481.05   84.99
  -2 -12  -3   54.09   60.29
  -2 -12  -3  -42.60   62.49
   2 -12   3  233.48   54.19
  -2 -12  -3   97.79   66.89
   2 -12   3   90.69   64.09
  -2  12  -3   47.10   67.19
  -2  12  -3    6.50   68.79
  -2  12  -3  -27.20   61.69
  -3 -12  -3   54.59   67.39
  -3 -12  -3   70.09   66.59
  -3 -12  -3   -0.10   59.19
   3 -12   3  112.49   67.79
  -3  12  -3  158.28   77.99
  -3  12  -3   35.50   66.59
  -3  12  -3  292.97   82.49
  -4 -12  -3  312.07   93.79
  -4 -12  -3  329.97   84.89
   4 -12   3  259.87   79.69
  -4  12  -3  228.08   89.79
  -4  12  -3  133.99   74.79
  -4  12  -3  214.28   79.79
  -4 -13   3   99.29   71.29
   4 -13  -3   31.30   83.29
   4 -13  -3   -0.10   76.19
  -4 -13   3   99.39   77.09
   4  13  -3  -54.79   82.59
  -4  13   3  -23.60   70.19
  -3 -13   3  -10.10   75.89
   3 -13  -3   -4.00   79.19
  -3 -13   3    5.60   63.99
   3 -13  -3 -109.79   72.99
   3  13  -3   34.90   77.99
  -3  13   3   14.90   66.19
   2 -13  -3  392.76   84.09
  -2 -13   3  378.46   71.19
   2 -13  -3  361.86   87.09
  -2 -13   3  554.44   85.89
   2  13  -3  467.45   80.59
  -2  13   3  367.26   77.09
   2  13  -3  455.55   89.29
   1 -13  -3   56.19   71.99
   1 -13  -3  109.69   66.89
  -1 -13   3   27.40   61.99
  -1 -13   3   80.99   64.99
   1  13  -3  136.59   78.39
  -1  13   3   32.70   50.59
   1  13  -3   69.59   68.39
   0 -13  -3  463.75   82.49
   0 -13  -3  544.25   82.09
   0 -13   3  389.26   78.79
   0  13  -3  339.97   76.09
   0  13  -3  413.06   86.89
   1 -13   3  -74.69   69.29
   1 -13   3  124.49   69.29
  -1 -13  -3   42.70   71.29
  -1 -13  -3   43.60   64.99
  -1 -13  -3   48.50   65.59
  -1  13  -3   -7.10   66.69
  -1  13  -3   38.80   75.09
   2 -13   3  830.42  101.09
   2 -13   3  876.71   89.89
  -2 -13  -3  872.81  104.99
  -2 -13  -3  801.12   96.19
  -2 -13  -3  569.34   79.09
  -2  13  -3  642.14   93.09
  -2  13  -3  632.34  103.09
  -3 -13  -3 -172.58   66.89
  -3 -13  -3  -74.29   65.99
   3 -13   3  -26.30   79.69
  -3  13  -3   27.70   81.09
  -3  13  -3  -59.99   76.99
 -10   0   4  827.02  103.99
 -10   0   4 1218.68  121.99
  10   0  -4  678.53   95.29
  -9   0   4  -46.00   56.79
  -9   0   4  -63.79   56.99
   9   0  -4  -29.90   33.30
   9   0  -4   44.50   69.59
   8   0  -4 1168.58   97.69
   8   0  -4 1116.89   70.49
   8   0  -4 1110.09  109.59
  -8   0   4 1000.50   94.89
  -8   0   4 1193.98   98.89
   7   0  -4  -13.30   43.90
   7   0  -4   13.30   44.90
  -7   0   4  -34.20   38.90
  -7   0   4   53.99   40.30
   7   0  -4  -27.90   29.80
  -6   0   4 1435.46   83.59
  -6   0   4 1214.78   77.09
   6   0  -4 1370.36   86.59
   6   0  -4 1186.88   84.79
  -6   0   4 1268.77   76.79
   6   0  -4 1343.17   71.99
   6   0  -4 1289.77   75.19
   5   0  -4  -26.20   35.50
  -5   0   4   18.60   27.90
  -5   0   4    4.40   30.70
  -5   0   4   14.40   32.20
   5   0  -4  -15.50   27.70
   5   0  -4   -6.60   26.50
  -5   0   4  -18.20   28.20
  -5   0   4   34.70   32.50
   5   0  -4   10.70   35.80
   5   0  -4   43.80   26.40
   4   0  -4   90.19   32.80
  -4   0   4   76.29   29.70
  -4   0   4   96.09   27.70
  -4   0   4   98.99   27.80
  -4   0   4   91.39   30.50
   4   0  -4  134.99   27.80
  -4   0   4  125.29   31.40
   4   0  -4  130.09   27.60
   4   0  -4   98.49   34.60
  -3   0   4   11.60   19.60
  -3   0   4   19.70   20.30
   3   0  -4    8.60   18.40
   3   0  -4  -23.50   26.90
   3   0  -4    2.40   19.30
   3   0  -4   -3.40   24.60
  -3   0   4    1.70   22.60
  -3   0   4   11.50   23.20
   3   0  -4   -3.00   27.70
  -3   0   4  -18.80   22.70
  -2   0   4 1796.52   57.89
   2   0  -4 1712.33   74.99
   2   0  -4 1757.32   82.49
   2   0  -4 1856.51   65.29
  -2   0   4 1843.42   73.29
   2   0  -4 1783.72   70.09
  -2   0   4 1799.12   66.79
  -2   0   4 1689.03   74.99
   1   0  -4    8.80   11.10
   1   0  -4   -2.90    9.70
  -1   0   4   -5.40    8.50
   1   0  -4    4.80   20.80
  -1   0   4   -9.90   11.20
   1   0  -4   24.00   18.90
   1   0  -4  -29.30   14.30
   1   0  -4    0.70   13.10
  -1   0   4  -14.40   16.20
  -1   0   4  -11.60    9.30
   0   0  -4 9263.97  264.87
   0   0  -4 9149.38  271.97
   0   0  -4 9114.39  262.27
   0   0  -4 9704.03  263.37
   0   0   4 9381.56  264.47
  -1   0  -4   -3.30    7.90
  -1   0  -4   -7.50    7.50
  -1   0  -4    7.30   15.70
  -2   0  -4 1971.30   66.09
  -2   0  -4 2028.60   77.19
  -2   0  -4 2067.59   64.79
  -2   0  -4 2117.59   64.89
  -3   0  -4   -2.80   15.30
  -3   0  -4   31.60   26.50
  -3   0  -4    5.60   15.20
  -4   0  -4  275.07   40.50
  -4   0  -4  282.27   33.70
  -4   0  -4  261.77   25.50
  -5   0  -4   -8.30   28.20
  -5   0  -4   -0.50   25.60
  -5   0  -4    2.60   17.10
  -5   0  -4    9.50   36.30
  -5   0  -4  -44.70   35.60
  -5   0  -4   -7.00   24.40
  -6   0  -4  378.26   21.00
  -6   0  -4  284.17   44.30
  -6   0  -4  405.86   57.99
  -6   0  -4  470.35   53.49
  -7   0  -4   -4.60   36.90
  -7   0  -4   34.80   39.80
  -7   0  -4  -32.20   64.19
  -8   0  -4  -44.20   48.20
  -8   0  -4  -15.00   55.69
  -8   0  -4   56.59   63.89
  -9   0  -4  -22.90   75.99
 -10  -1   4  -34.40   74.49
  10  -1  -4   19.20   79.09
 -10  -1   4 -155.88   66.69
 -10   1   4  -85.99   61.49
  10   1  -4  107.39   76.99
 -10   1   4 -121.19   68.09
  -9  -1   4   59.59   60.99
  -9  -1   4   -6.60   58.19
   9  -1  -4   85.39   39.70
   9  -1  -4  -49.40   62.69
   9   1  -4  -16.20   65.49
   9   1  -4   15.80   66.29
  -9   1   4   -8.10   57.39
  -9   1   4   73.69   57.69
  -8  -1   4   30.50   53.69
   8  -1  -4   18.60   65.79
   8  -1  -4   88.99   59.99
   8  -1  -4  -84.89   34.40
  -8  -1   4   20.90   55.69
   8   1  -4  -68.09   49.20
  -8   1   4   36.90   53.29
  -8   1   4  -67.69   50.39
   8   1  -4    9.60   29.60
   8   1  -4   17.20   66.49
   7  -1  -4  337.07   60.69
   7  -1  -4  268.47   41.50
  -7  -1   4  256.47   51.49
  -7  -1   4  245.88   51.69
   7  -1  -4  309.37   55.59
   7   1  -4  208.18   50.89
  -7   1   4  290.57   49.99
   7   1  -4  246.08   36.50
   7   1  -4  328.07   56.79
  -7   1   4  256.47   50.69
   6  -1  -4  126.69   34.00
  -6  -1   4  117.19   40.20
   6  -1  -4  112.89   46.00
   6  -1  -4   46.60   43.10
  -6  -1   4  125.59   41.60
  -6  -1   4  114.29   37.10
  -6   1   4  138.39   39.20
   6   1  -4  126.19   43.10
  -6   1   4   92.89   38.20
   6   1  -4  101.19   44.60
   6   1  -4   72.69   35.00
   6   1  -4  173.78   33.00
   5  -1  -4  459.85   54.49
  -5  -1   4  543.95   53.59
   5  -1  -4  496.75   49.99
  -5  -1   4  527.45   56.49
  -5  -1   4  442.26   50.09
  -5  -1   4  517.65   53.29
   5  -1  -4  563.14   61.19
   5  -1  -4  461.55   49.70
   5  -1  -4  550.94   51.49
  -5  -1   4  496.95   50.79
  -5   1   4  470.45   55.79
   5   1  -4  559.74   49.50
  -5   1   4  558.54   57.99
   5   1  -4  564.04   61.79
  -5   1   4  663.43   59.19
  -5   1   4  455.95   52.49
  -5   1   4  493.35   51.59
   5   1  -4  522.75   60.79
   5   1  -4  558.84   49.50
  -4  -1   4 1314.77   67.69
  -4  -1   4 1238.78   70.39
   4  -1  -4 1086.19   68.09
   4  -1  -4 1117.29   63.49
   4  -1  -4 1182.28   74.99
  -4  -1   4 1338.67   66.39
  -4  -1   4 1216.88   61.49
   4  -1  -4 1231.18   60.99
  -4  -1   4 1164.68   61.59
  -4   1   4 1085.89   61.79
  -4   1   4 1222.68   67.69
   4   1  -4 1341.97   60.89
  -4   1   4 1216.78   65.19
   4   1  -4 1194.08   77.09
   4   1  -4 1226.48   60.29
  -4   1   4 1195.28   65.19
   4   1  -4 1187.78   73.49
  -4   1   4 1173.38   60.49
   4   1  -4 1235.88   70.59
  -3  -1   4  317.87   37.90
  -3  -1   4  328.17   34.70
   3  -1  -4  283.97   42.20
   3  -1  -4  363.76   32.40
  -3  -1   4  341.77   41.20
   3  -1  -4  339.47   39.90
  -3  -1   4  305.27   34.00
   3  -1  -4  314.87   34.20
  -3  -1   4  368.96   36.50
   3  -1  -4  272.27   38.70
  -3  -1   4  343.07   30.80
   3   1  -4  267.47   35.50
   3   1  -4  289.87   31.40
  -3   1   4  286.47   34.30
   3   1  -4  291.47   40.70
   3   1  -4  345.97   33.80
  -3   1   4  339.77   34.30
  -3   1   4  327.27   38.70
  -3   1   4  273.07   32.30
   3   1  -4  258.27   35.40
   2  -1  -4 2232.88   81.59
  -2  -1   4 2226.58   80.59
   2  -1  -4 2312.57   83.99
  -2  -1   4 2249.18   74.29
  -2  -1   4 2173.28   75.79
  -2  -1   4 2341.87   85.59
   2   1  -4 2228.38   78.79
   2   1  -4 2252.77   87.49
   2   1  -4 2303.17   76.09
  -2   1   4 2248.68   66.29
   2   1  -4 2053.99   84.39
  -2   1   4 2304.17   81.39
   2   1  -4 2346.97   90.69
  -2   1   4 2380.66   86.29
  -2   1   4 2061.09   77.79
  -2   1   4 2385.66   79.29
   1  -1  -4   25.60   17.60
   1  -1  -4   28.20   14.80
   1  -1  -4   40.50   12.10
   1  -1  -4   43.20    7.20
  -1  -1   4   34.30   21.50
  -1  -1   4   47.80   12.70
   1  -1  -4   37.00   22.20
  -1  -1   4   22.30   12.30
  -1  -1   4   34.40   14.90
   1   1  -4   24.00   22.30
   1   1  -4   38.90   14.60
   1   1  -4   39.50   11.90
  -1   1   4   38.30    8.90
   1   1  -4   46.70   15.40
   1   1  -4   25.00   18.30
   1   1  -4   36.60   17.80
  -1   1   4   29.60    9.40
  -1   1   4   24.00   15.10
   0  -1  -4 3497.45  110.69
   0  -1  -4 3470.75   99.49
   0  -1  -4 3471.45  103.09
   0  -1   4 3621.24  107.79
   0  -1  -4 3408.46  100.29
   0   1  -4 3555.44  108.59
   0   1  -4 3471.15  105.79
   0   1  -4 3413.66   99.59
   0   1  -4 3469.15  115.59
   0   1  -4 3354.36  106.89
  -1  -1  -4 2349.36   77.19
  -1   1  -4 2393.06   73.39
  -1   1  -4 2215.68   63.69
  -1   1  -4 2214.58   79.59
  -1   1  -4 2216.58   73.19
  -2  -1  -4   -9.90   15.10
  -2  -1  -4   10.40    5.90
  -2   1  -4   17.40   14.40
  -2   1  -4    8.20   14.00
  -2   1  -4    2.60   20.90
  -2   1  -4   35.90    8.60
  -3  -1  -4 3727.23  113.49
  -3  -1  -4 3906.11  113.99
  -3  -1  -4 3725.83  121.39
  -3   1  -4 3827.72  120.49
  -3   1  -4 3557.64  129.89
  -3   1  -4 3807.02  114.39
  -3   1  -4 3863.01  119.99
  -3   1  -4 3815.22  123.29
  -4  -1  -4    3.00   18.40
  -4  -1  -4    1.70   14.60
  -4  -1  -4    5.90   23.70
  -4  -1  -4    9.20   18.40
  -4   1  -4  -19.20   23.00
  -4   1  -4   10.40   32.60
  -4   1  -4   -3.60   20.20
  -4   1  -4   -5.30   23.00
  -5  -1  -4  587.14   25.80
  -5  -1  -4  488.55   58.69
  -5  -1  -4  750.82   49.30
  -5  -1  -4  544.05   52.89
  -5   1  -4  592.14   46.60
  -5   1  -4  491.95   57.89
  -5   1  -4  602.54   56.19
  -5   1  -4  563.04   52.49
  -5   1  -4  624.14   51.39
  -5   1  -4  578.34   64.79
  -6  -1  -4  443.96   47.10
  -6  -1  -4  465.85   51.89
  -6  -1  -4  392.06   62.09
  -6  -1  -4  261.77   56.39
  -6   1  -4  532.75   55.09
  -6   1  -4  450.55   50.89
  -6   1  -4  348.07   59.49
  -6   1  -4  492.55   51.99
  -7  -1  -4  160.68   44.40
  -7  -1  -4  137.39   45.90
  -7   1  -4  212.18   43.50
  -7   1  -4  212.38   51.89
  -8  -1  -4  275.77   63.69
  -8  -1  -4  244.08   72.39
  -8  -1  -4  323.17   68.39
  -8   1  -4  277.67   74.79
  -8   1  -4  282.17   73.99
 -10  -2   4   13.50   66.69
  10  -2  -4 -117.39   79.79
 -10  -2   4   -8.50   74.79
  10   2  -4   35.70   78.79
 -10   2   4  115.39   63.29
 -10   2   4   81.99   74.09
   9  -2  -4  -28.20   43.30
   9  -2  -4    1.00   71.49
  -9  -2   4   48.70   60.09
  -9  -2   4   16.80   58.69
  -9   2   4   13.40   57.29
   9   2  -4  -93.59   68.39
  -9   2   4   24.80   60.09
   9   2  -4  116.89   68.49
   8  -2  -4  -10.30   61.59
   8  -2  -4  -37.70   62.59
  -8  -2   4  -76.79   54.19
   8  -2  -4  -28.90   40.50
  -8  -2   4  -21.30   55.29
  -8   2   4   44.30   39.40
   8   2  -4  -41.70   42.70
  -8   2   4   36.50   59.29
   8   2  -4   71.69   63.19
  -7  -2   4  537.35   62.59
  -7  -2   4  627.74   71.49
   7  -2  -4  463.15   53.79
   7  -2  -4  660.93   80.69
   7  -2  -4  520.45   68.99
  -7   2   4  588.74   71.49
   7   2  -4  539.45   67.39
  -7   2   4  568.54   59.39
   7   2  -4  696.03   69.79
   7   2  -4  587.04   52.39
  -6  -2   4   37.40   34.50
   6  -2  -4   98.89   46.20
  -6  -2   4   38.00   36.40
  -6  -2   4   84.09   36.50
   6  -2  -4   50.29   45.00
   6  -2  -4   12.10   32.00
  -6   2   4   73.59   51.19
  -6   2   4   28.30   35.30
   6   2  -4   73.49   44.40
   6   2  -4   92.59   35.90
   6   2  -4    6.30   36.40
   6   2  -4   26.30   28.10
  -5  -2   4 2953.00  115.39
  -5  -2   4 3156.58  116.79
  -5  -2   4 2865.41  121.19
  -5  -2   4 3078.39  128.59
   5  -2  -4 3029.20  115.89
   5  -2  -4 3174.28  124.89
   5  -2  -4 2994.80  129.89
  -5  -2   4 2976.50  116.89
   5  -2  -4 3016.40  116.99
  -5   2   4 2888.81  120.39
   5   2  -4 2857.91  123.49
   5   2  -4 3072.09  123.39
  -5   2   4 3147.98  124.89
   5   2  -4 3112.09  113.89
   5   2  -4 3125.99  115.59
  -5   2   4 3133.79  120.69
  -5   2   4 3052.59  116.99
   4  -2  -4  326.67   45.60
   4  -2  -4  293.77   39.70
   4  -2  -4  338.17   35.50
  -4  -2   4  364.26   42.80
   4  -2  -4  304.97   42.50
  -4  -2   4  343.77   37.10
  -4  -2   4  267.87   35.90
  -4  -2   4  298.97   40.80
   4  -2  -4  337.77   39.00
  -4   2   4  348.17   36.50
  -4   2   4  351.06   39.10
   4   2  -4  254.37   40.50
   4   2  -4  289.77   49.30
  -4   2   4  327.07   40.90
   4   2  -4  346.97   35.50
   4   2  -4  280.17   42.90
  -4   2   4  411.46   43.60
   4   2  -4  389.46   40.80
   3  -2  -4 5290.77  167.98
  -3  -2   4 5259.07  167.08
  -3  -2   4 5265.97  160.88
  -3  -2   4 5160.68  162.68
   3  -2  -4 4968.50  172.08
   3  -2  -4 5265.27  162.98
   3  -2  -4 5133.39  160.18
   3  -2  -4 5047.69  167.28
  -3  -2   4 5462.75  171.38
  -3  -2   4 5177.38  160.38
  -3   2   4 5034.60  158.88
  -3   2   4 5159.28  168.38
  -3   2   4 5171.88  147.69
   3   2  -4 5236.48  159.98
   3   2  -4 5021.60  167.28
   3   2  -4 4949.40  173.78
   3   2  -4 5022.80  168.98
  -3   2   4 4935.21  169.38
   3   2  -4 5283.27  162.48
  -3   2   4 4941.91  163.08
   2  -2  -4  -14.40   20.00
   2  -2  -4  -11.60   29.60
  -2  -2   4   -9.90   21.40
  -2  -2   4   -7.00   14.60
  -2  -2   4   21.00   22.00
   2  -2  -4   10.20   19.80
   2  -2  -4  -10.50   23.70
   2  -2  -4   15.70   18.60
  -2  -2   4    2.90   16.00
   2  -2  -4   10.90   15.50
   2   2  -4   -9.30   25.00
   2   2  -4   12.20   18.10
  -2   2   4   18.90   17.50
  -2   2   4    2.00   18.50
   2   2  -4    7.50   14.20
  -2   2   4   27.80   15.60
  -2   2   4   20.40   17.20
   2   2  -4  -12.70   25.00
   1  -2  -4 2102.89   72.99
   1  -2  -4 2163.78   82.59
  -1  -2   4 2297.57   76.29
  -1  -2   4 2303.57   82.99
   1  -2  -4 2213.78   70.29
   1  -2  -4 2136.29   74.29
  -1  -2   4 1959.20   78.69
  -1  -2   4 2251.07   75.29
  -1  -2   4 2109.79   68.99
   1   2  -4 2155.28   76.99
  -1   2   4 2235.18   71.99
   1   2  -4 2178.98   77.09
  -1   2   4 2206.78   63.89
   1   2  -4 2092.69   84.59
   1   2  -4 2199.08   69.39
   0  -2  -4   79.79   22.10
   0  -2  -4   76.69    9.70
   0  -2  -4   89.39   17.10
   0  -2   4   86.29   15.60
   0  -2  -4   85.09    8.80
   0  -2   4   88.69   17.90
   0  -2   4  102.09   15.60
   0   2  -4   84.99    7.90
   0   2  -4   73.79   18.70
   0   2  -4   58.59   23.40
   0   2  -4  101.09   18.80
   1  -2   4  235.38   24.60
   1  -2   4  235.48   19.80
   1  -2   4  212.58   20.00
  -1   2  -4  223.18   27.50
  -1   2  -4  218.98   31.40
  -2  -2  -4  -15.10   19.00
   2  -2   4    3.20   10.20
   2  -2   4   -3.60    9.50
  -2   2  -4   25.70   17.30
  -2   2  -4  -15.40   20.50
  -2   2  -4   -2.60   20.20
  -2   2  -4   -1.10   16.50
  -3  -2  -4  451.95   25.10
  -3  -2  -4  488.65   42.90
  -3  -2  -4  455.45   26.10
   3  -2   4  465.05   22.70
  -3   2  -4  507.85   39.20
  -3   2  -4  519.25   40.10
  -3   2  -4  461.55   40.90
  -3   2  -4  410.26   41.80
   4  -2   4   45.10   16.00
  -4  -2  -4   41.90   13.00
  -4  -2  -4   22.50   12.90
   4  -2   4   28.90    6.60
  -4  -2  -4   48.40   18.90
  -4  -2  -4   15.40   27.20
  -4   2  -4   24.90   33.00
  -4   2  -4   49.80   25.30
  -4   2  -4   34.70   28.80
  -4   2  -4   -3.10   24.90
  -5  -2  -4  526.65   49.00
  -5  -2  -4  479.15   54.59
  -5  -2  -4  438.06   47.10
   5  -2   4  490.95   39.70
  -5  -2  -4  514.35   57.19
  -5   2  -4  572.84   47.60
  -5   2  -4  497.65   55.39
  -5   2  -4  629.94   57.39
  -5   2  -4  481.75   55.29
  -6  -2  -4   27.70   30.20
   6  -2   4   74.69   30.50
  -6  -2  -4   73.39   38.70
  -6  -2  -4   25.70   42.50
  -6   2  -4   44.90   38.40
  -6   2  -4   25.50   43.00
  -6   2  -4  -47.10   28.90
  -7  -2  -4   71.09   38.30
  -7  -2  -4  -36.60   42.50
  -7   2  -4   27.70   46.20
  -7   2  -4   31.00   72.99
  -8  -2  -4   27.90   54.79
  -8  -2  -4  -22.50   61.39
  -8  -2  -4   56.19   65.89
  -8   2  -4    7.40   66.89
  -8   2  -4   24.30   72.69
  10  -3  -4   83.99   85.69
 -10  -3   4   89.69   77.79
 -10  -3   4  151.68   79.99
 -10   3   4    3.90   77.69
 -10   3   4  -31.20   64.79
  10   3  -4  114.59   79.89
   9  -3  -4   42.70   76.19
  -9  -3   4  138.19   69.99
  -9  -3   4   94.89   64.29
   9  -3  -4   -1.70   48.20
  -9   3   4   74.99   61.79
   9   3  -4   34.80   71.69
  -9   3   4  188.38   70.09
   8  -3  -4  -87.39   60.49
   8  -3  -4   33.70   67.39
  -8  -3   4   56.99   66.59
  -8  -3   4  107.49   61.69
   8   3  -4   57.39   69.59
   8   3  -4  -26.90   42.30
  -8   3   4   32.80   38.90
  -8   3   4   65.49   68.99
  -7  -3   4   65.79   46.50
   7  -3  -4   43.50   50.69
  -7  -3   4  104.69   59.49
   7  -3  -4   51.49   39.90
  -7  -3   4   63.49   45.20
   7  -3  -4   48.80   55.59
   7   3  -4  -20.10   48.50
   7   3  -4   43.60   28.90
  -7   3   4   25.80   32.10
  -7   3   4   26.80   48.00
   7   3  -4  -10.20   37.90
   6  -3  -4  159.38   51.49
  -6  -3   4  197.88   43.00
  -6  -3   4  130.29   40.70
   6  -3  -4  138.99   42.50
  -6  -3   4  150.78   38.30
   6  -3  -4  157.18   49.30
   6   3  -4  145.89   47.50
  -6   3   4  231.98   51.99
  -6   3   4  162.88   31.40
   6   3  -4  203.38   40.00
   6   3  -4   87.59   38.00
  -6   3   4  143.19   41.10
  -5  -3   4  106.79   40.40
   5  -3  -4  105.39   34.00
   5  -3  -4  107.49   44.90
   5  -3  -4  127.49   37.50
  -5  -3   4   98.99   35.80
  -5  -3   4  153.08   34.20
  -5  -3   4   34.30   39.30
   5  -3  -4  115.89   28.90
   5  -3  -4  126.89   41.90
  -5   3   4  122.49   23.70
  -5   3   4  152.08   36.60
  -5   3   4  115.39   39.60
   5   3  -4  133.19   38.10
  -5   3   4  136.49   40.10
   5   3  -4  105.69   33.50
   5   3  -4  159.38   32.90
  -5   3   4  134.09   36.20
   5   3  -4  156.08   44.00
   4  -3  -4  414.56   46.30
  -4  -3   4  414.46   45.50
  -4  -3   4  414.46   47.80
  -4  -3   4  439.36   46.70
   4  -3  -4  470.05   45.90
   4  -3  -4  430.56   51.19
  -4  -3   4  397.06   46.70
  -4  -3   4  514.85   54.99
   4  -3  -4  398.06   45.50
   4  -3  -4  454.95   46.70
  -4   3   4  419.56   47.50
   4   3  -4  391.36   38.30
  -4   3   4  423.26   29.20
   4   3  -4  375.06   41.90
   4   3  -4  378.96   54.49
  -4   3   4  492.85   44.80
  -4   3   4  404.26   46.60
   4   3  -4  419.26   50.09
  -4   3   4  442.66   48.60
   4   3  -4  540.55   44.80
  -3  -3   4  184.08   30.20
  -3  -3   4  165.18   32.30
  -3  -3   4  179.08   28.40
   3  -3  -4  195.88   27.00
   3  -3  -4  173.38   35.50
  -3  -3   4  180.58   34.90
   3  -3  -4  183.18   37.90
   3  -3  -4  212.28   27.70
  -3  -3   4  161.68   28.70
   3  -3  -4  154.08   33.60
  -3   3   4  183.88   16.90
  -3   3   4  204.48   32.10
   3   3  -4  252.37   30.50
  -3   3   4  160.68   25.90
   3   3  -4  181.98   40.50
   3   3  -4  163.18   25.00
  -3   3   4  220.28   29.20
  -3   3   4  131.89   31.50
   3   3  -4  160.08   30.40
   3   3  -4  150.08   35.00
  -2  -3   4 2916.51  102.79
  -2  -3   4 3014.30  110.29
  -2  -3   4 2840.92   98.89
   2  -3  -4 3186.58   99.69
   2  -3  -4 2942.01  110.29
   2  -3  -4 2984.60  111.39
  -2  -3   4 3149.19  106.69
  -2  -3   4 2934.41  102.89
   2   3  -4 3079.49  103.49
   2   3  -4 3032.50   98.69
  -2   3   4 2935.91   98.89
  -2   3   4 3085.99  106.99
   2   3  -4 3018.50  109.49
  -2   3   4 2986.90  101.99
  -2   3   4 3087.39   96.49
   2   3  -4 2812.42  112.79
   1  -3  -4    9.20    3.60
   1  -3  -4   -3.10   21.40
   1  -3  -4   16.40   13.10
  -1  -3   4   18.20   12.40
  -1  -3   4    6.80   18.00
  -1  -3   4   -5.60   21.90
  -1  -3   4   19.80   22.60
   1  -3  -4   18.50   22.10
  -1  -3   4  -15.70   20.50
   1  -3  -4    6.50   13.40
   1  -3  -4   -4.10   15.50
   1   3  -4   -1.00   11.70
   1   3  -4    5.60   16.90
  -1   3   4    8.70   10.40
  -1   3   4   12.90    7.80
   1   3  -4    4.70   24.80
   1   3  -4   20.60   24.00
   0  -3   4 1648.64   51.49
   0  -3   4 1737.73   64.19
   0  -3   4 1703.03   63.29
   0  -3  -4 1670.93   56.99
   0  -3  -4 1662.93   66.29
   0  -3   4 1757.82   65.69
   0  -3  -4 1614.54   54.99
   0  -3  -4 1724.73   53.89
   0  -3  -4 1697.43   78.59
   0   3  -4 1694.83   64.99
   0   3  -4 1509.75   67.29
   0   3  -4 1647.24   73.69
   0   3  -4 1731.53   68.29
   1  -3   4  158.78   25.10
  -1  -3  -4  152.78   22.40
  -1  -3  -4  146.69   25.70
   1  -3   4  155.98   21.70
   1  -3   4  152.68   20.30
  -1   3  -4  184.48   26.10
  -1   3  -4  109.39   27.90
  -1   3  -4  171.58   26.60
  -1   3  -4  149.69   23.20
  -1   3  -4  149.19   27.70
   2  -3   4  934.71   44.20
  -2  -3  -4  978.80   27.70
  -2  -3  -4  954.10   54.19
   2  -3   4  963.10   42.60
  -2  -3  -4  894.61   47.10
   2  -3   4  909.81   52.99
  -2   3  -4  919.21   55.69
  -2   3  -4  991.90   50.89
  -2   3  -4  938.51   52.69
  -3  -3  -4 1974.80   62.19
  -3  -3  -4 1837.22   78.99
   3  -3   4 1880.81   59.19
   3  -3   4 1919.61   66.49
  -3  -3  -4 1789.62   67.19
  -3  -3  -4 1921.91   62.19
  -3   3  -4 1719.73   84.59
  -3   3  -4 2098.19   81.99
  -3   3  -4 1834.52   80.69
  -3   3  -4 1885.51   77.99
  -4  -3  -4   55.19   31.40
   4  -3   4   26.40   14.90
  -4  -3  -4   30.20   18.40
  -4  -3  -4   25.70   11.40
  -4  -3  -4    5.60   18.40
  -4   3  -4   -2.50   28.40
  -4   3  -4   49.90   26.70
  -4   3  -4   35.10   34.10
  -4   3  -4   18.60   30.40
   5  -3   4  995.60   50.39
  -5  -3  -4 1008.00   73.49
  -5  -3  -4  978.00   59.09
  -5  -3  -4  916.01   59.79
  -5   3  -4 1047.70   78.09
  -5   3  -4  986.20   65.39
  -5   3  -4  972.20   67.69
  -6  -3  -4  230.18   35.90
  -6  -3  -4  195.68   44.80
  -6  -3  -4  132.59   40.90
   6  -3   4  221.88   33.90
  -6   3  -4  202.18   59.89
  -6   3  -4  216.08   40.80
  -6   3  -4  208.68   49.40
  -7  -3  -4  137.99   43.30
  -7  -3  -4  147.79   55.59
  -7   3  -4  221.18   67.69
  -7   3  -4   87.69   57.99
  -8  -3  -4  360.66   65.79
  -8   3  -4  300.47   94.09
  -8   3  -4  417.26   82.99
  -9  -4   4   99.69   63.79
   9  -4  -4   -1.90   58.19
   9  -4  -4   -5.40   70.79
  -9  -4   4  -23.50   64.89
  -9   4   4  101.39   59.79
  -9   4   4    6.70   62.29
   9   4  -4   90.79   68.89
   8  -4  -4 1501.15  103.19
   8  -4  -4 1567.44  153.18
  -8  -4   4 1383.86  119.29
  -8   4   4 1556.94  114.69
  -8   4   4 1812.42   92.89
   8   4  -4 1696.43  126.49
   8   4  -4 1564.64   98.49
  -7  -4   4   89.59   49.70
   7  -4  -4   19.20   58.99
   7  -4  -4   11.60   55.59
   7  -4  -4  -57.79   40.40
  -7  -4   4   39.60   43.90
   7   4  -4   33.90   54.99
  -7   4   4   61.39   49.80
  -7   4   4   15.60   32.10
   7   4  -4   30.70   25.20
   7   4  -4   -8.90   35.80
   7   4  -4   40.60   28.60
   6  -4  -4  421.56   59.09
  -6  -4   4  373.46   50.69
   6  -4  -4  439.86   60.99
   6  -4  -4  409.46   54.39
  -6   4   4  312.37   49.30
   6   4  -4  336.87   46.40
   6   4  -4  445.06   60.39
  -6   4   4  350.86   55.79
  -6   4   4  434.56   44.70
   5  -4  -4   39.60   39.10
   5  -4  -4  -13.30   37.90
  -5  -4   4    9.30   32.50
   5  -4  -4  -16.70   40.70
  -5  -4   4    7.70   34.40
  -5  -4   4    2.40   35.50
  -5   4   4   -8.60   20.40
   5   4  -4   46.60   32.10
   5   4  -4   23.40   33.10
  -5   4   4   25.40   33.60
  -5   4   4   43.90   35.20
  -5   4   4   14.80   36.70
   5   4  -4   17.90   47.30
   5   4  -4   -1.30   32.30
   5   4  -4   -6.00   39.60
  -4  -4   4  130.89   32.60
   4  -4  -4  198.68   39.40
  -4  -4   4  143.49   38.90
   4  -4  -4  112.89   37.90
   4  -4  -4  130.99   43.10
  -4  -4   4  158.68   35.10
  -4  -4   4   85.09   36.50
   4  -4  -4  104.99   32.90
  -4  -4   4  154.18   35.50
   4  -4  -4  172.08   32.40
  -4   4   4  207.98   32.10
  -4   4   4  148.59   34.50
   4   4  -4  150.28   34.80
   4   4  -4  145.39   30.80
  -4   4   4  124.59   36.70
   4   4  -4  170.18   32.70
   4   4  -4  142.99   41.90
  -4   4   4  142.39   32.60
   4   4  -4  130.09   45.20
  -4   4   4  144.19   19.30
   3  -4  -4  262.77   31.60
   3  -4  -4  246.68   41.60
  -3  -4   4  311.67   39.80
  -3  -4   4  237.98   34.90
   3  -4  -4  234.78   37.30
  -3  -4   4  208.98   34.50
   3  -4  -4  245.08   40.40
   3  -4  -4  293.07   37.10
  -3  -4   4  287.27   38.80
  -3  -4   4  228.38   31.90
  -3   4   4  276.67   36.40
  -3   4   4  254.17   20.60
   3   4  -4  250.87   41.30
  -3   4   4  280.87   31.90
   3   4  -4  244.78   31.10
  -3   4   4  230.08   30.00
  -3   4   4  289.47   34.60
   3   4  -4  274.77   32.40
   3   4  -4  246.98   34.80
   3   4  -4  214.88   42.10
  -2  -4   4 1034.70   61.19
   2  -4  -4  978.10   59.69
  -2  -4   4 1118.59   59.19
   2  -4  -4  997.50   48.00
   2  -4  -4  880.81   61.59
  -2  -4   4 1067.99   57.19
   2  -4  -4 1018.80   61.89
  -2  -4   4  957.00   54.49
  -2  -4   4 1036.50   54.09
  -2   4   4 1030.60   46.40
  -2   4   4 1021.70   57.59
   2   4  -4 1027.10   53.19
   2   4  -4 1003.40   56.09
   2   4  -4  948.51   65.49
  -2   4   4  962.30   48.20
  -2   4   4  973.10   40.50
   2   4  -4 1003.20   48.50
   2   4  -4  938.41   60.79
  -1  -4   4  707.53   45.00
   1  -4  -4  725.13   27.30
  -1  -4   4  739.43   46.50
  -1  -4   4  741.53   50.59
  -1  -4   4  682.83   44.60
   1  -4  -4  670.03   39.70
   1  -4  -4  718.63   48.60
   1  -4  -4  627.74   50.59
  -1  -4   4  692.03   35.40
   1  -4  -4  672.23   36.50
  -1   4   4  696.33   42.90
   1   4  -4  719.33   49.80
  -1   4   4  654.23   28.90
   1   4  -4  796.22   47.20
   1   4  -4  610.04   52.89
   1   4  -4  683.83   50.09
  -1   4   4  703.73   28.30
   0  -4  -4  874.61   32.00
   0  -4  -4  802.52   36.70
   0  -4   4  794.32   48.40
   0  -4   4  843.52   46.60
   0  -4   4  819.02   33.70
   0  -4  -4  890.21   53.49
   0  -4  -4  866.21   38.60
   0  -4  -4  860.71   47.70
   0  -4   4  901.01   48.70
   0   4  -4  898.71   50.79
   0   4  -4  831.42   52.19
   0   4  -4  969.20   49.00
   0   4  -4  754.62   57.49
   0   4  -4  869.71   52.69
   1  -4   4   17.40   20.70
  -1  -4  -4    9.20   10.50
  -1  -4  -4  -21.50   16.50
  -1  -4  -4   17.00   11.70
   1  -4   4    2.00    6.70
   1  -4   4  -45.30   20.90
  -1   4  -4   18.70   26.50
  -1   4  -4   28.80   23.60
  -1   4  -4   -5.20   24.80
  -1   4  -4   -0.30   26.00
  -1   4  -4   61.09   22.90
  -2  -4  -4 1030.50   37.60
  -2  -4  -4 1079.19   39.60
   2  -4   4  975.50   52.09
  -2  -4  -4 1062.69   53.49
   2  -4   4 1087.89   32.90
   2  -4   4 1010.70   57.49
  -2  -4  -4 1031.30   46.90
  -2   4  -4 1020.90   61.29
  -2   4  -4 1000.60   65.29
  -2   4  -4 1091.49   56.19
  -2   4  -4 1010.00   61.39
  -2   4  -4 1061.99   59.49
   3  -4   4  105.49   25.40
  -3  -4  -4   59.69   30.30
  -3  -4  -4   83.59   16.20
  -3  -4  -4   75.69   20.60
  -3  -4  -4   89.59   17.60
   3  -4   4  116.29   13.10
  -3   4  -4   84.89   32.50
  -3   4  -4   64.99   29.20
  -3   4  -4  101.29   30.90
  -3   4  -4  111.99   29.60
   4  -4   4  740.73   49.10
  -4  -4  -4  711.63   63.79
  -4  -4  -4  782.22   47.10
  -4  -4  -4  748.63   31.50
  -4  -4  -4  766.72   44.40
   4  -4   4  807.22   36.70
  -4  -4  -4  777.02   44.00
  -4   4  -4  813.72   58.89
  -4   4  -4  782.62   67.59
  -4   4  -4  794.52   64.99
   5  -4   4  -23.80   24.20
  -5  -4  -4    4.20   31.00
   5  -4   4   -1.20   20.50
  -5  -4  -4  -37.10   36.10
  -5  -4  -4   -6.30   24.70
  -5   4  -4   43.90   44.30
  -5   4  -4    4.00   40.40
  -5   4  -4  -12.80   37.80
  -6  -4  -4  229.68   54.19
   6  -4   4  259.67   34.60
   6  -4   4  112.59   29.90
  -6  -4  -4  230.78   38.50
   6  -4   4  200.08   30.00
  -6  -4  -4  337.87   55.69
  -6   4  -4  284.07   54.29
  -6   4  -4  175.18   52.79
  -6   4  -4  340.17   67.59
  -7  -4  -4   -6.10   40.80
  -7  -4  -4   21.10   66.89
  -7   4  -4  -23.80   59.19
  -7   4  -4    3.40   69.99
  -8  -4  -4  313.97   69.89
  -8  -4  -4  147.19   67.49
  -8   4  -4  256.27   85.39
  -8   4  -4  319.77   80.49
   9  -5  -4  231.28   83.49
  -9  -5   4  313.37   79.99
  -9  -5   4  287.47   77.09
   9  -5  -4   23.40   71.69
  -9   5   4  100.29   78.29
  -9   5   4  170.98   72.19
   9   5  -4  294.97   76.49
   8  -5  -4  196.48   64.39
  -8  -5   4  -29.70   56.89
  -8  -5   4   78.39   63.09
   8  -5  -4  102.69   68.99
   8   5  -4  -14.40   69.19
  -8   5   4   34.90   41.00
   8   5  -4   47.00   44.30
  -8   5   4   72.29   62.29
   7  -5  -4  105.09   52.39
   7  -5  -4  197.38   70.09
  -7  -5   4   90.99   57.49
   7  -5  -4  150.78   69.69
   7   5  -4   97.59   29.30
   7   5  -4  165.38   62.79
  -7   5   4   53.89   58.29
  -7   5   4   94.69   37.40
   7   5  -4   21.00   37.50
  -6  -5   4   78.09   42.70
   6  -5  -4   52.29   46.90
  -6  -5   4   66.09   42.30
   6  -5  -4  129.49   51.79
   6  -5  -4  113.49   53.79
  -6   5   4  154.78   45.40
  -6   5   4  130.99   29.90
   6   5  -4  143.89   49.50
   6   5  -4   92.99   28.10
   6   5  -4   88.29   34.50
  -6   5   4   75.79   49.30
  -5  -5   4  408.56   51.79
   5  -5  -4  426.26   55.79
  -5  -5   4  434.46   49.50
   5  -5  -4  331.27   57.19
   5  -5  -4  422.76   55.99
  -5   5   4  343.37   47.80
   5   5  -4  546.95   60.79
  -5   5   4  422.76   40.40
  -5   5   4  582.04   62.89
   5   5  -4  429.96   59.59
   5   5  -4  442.26   52.19
   5   5  -4  447.56   63.89
   5   5  -4  430.96   42.70
  -5   5   4  422.56   47.30
  -4  -5   4   30.70   33.00
  -4  -5   4   32.50   39.10
   4  -5  -4   68.09   29.30
   4  -5  -4   -8.60   34.40
  -4  -5   4  -12.20   35.50
  -4  -5   4  -98.09   31.60
   4  -5  -4   15.50   37.80
  -4  -5   4   44.40   30.00
   4  -5  -4   17.00   32.00
   4  -5  -4   43.10   38.40
   4   5  -4   17.00   28.70
   4   5  -4   23.10   29.00
  -4   5   4   40.50   31.70
  -4   5   4    9.10   24.80
  -4   5   4  -34.50   30.40
   4   5  -4   42.20   43.90
   4   5  -4    7.80   39.20
   4   5  -4    8.20   23.80
  -4   5   4   27.30   38.00
   4   5  -4    5.20   27.40
  -3  -5   4  404.16   44.50
  -3  -5   4  410.36   45.00
  -3  -5   4  296.37   40.00
   3  -5  -4  367.66   46.30
   3  -5  -4  322.27   41.60
  -3  -5   4  324.37   45.80
   3  -5  -4  419.86   42.30
  -3  -5   4  412.06   43.10
   3  -5  -4  286.07   46.00
   3   5  -4  367.86   39.20
   3   5  -4  352.66   42.80
  -3   5   4  366.26   33.50
   3   5  -4  353.76   41.10
  -3   5   4  311.47   34.70
   3   5  -4  343.27   46.80
  -3   5   4  447.36   52.39
  -3   5   4  393.26   47.70
   3   5  -4  307.97   49.90
  -3   5   4  334.47   26.70
   3   5  -4  310.57   34.60
   2  -5  -4  304.07   37.30
   2  -5  -4  318.17   43.40
  -2  -5   4  348.77   40.00
  -2  -5   4  380.56   44.20
  -2  -5   4  383.36   48.60
   2  -5  -4  338.67   41.30
   2  -5  -4  345.47   22.10
   2  -5  -4  312.37   36.10
  -2  -5   4  403.16   44.40
  -2  -5   4  362.26   40.60
  -2   5   4  322.17   31.60
  -2   5   4  340.67   36.30
  -2   5   4  360.76   36.50
   2   5  -4  375.96   40.60
   2   5  -4  371.16   42.00
   2   5  -4  363.66   43.90
   2   5  -4  306.17   45.90
  -2   5   4  348.27   20.80
  -1  -5   4   29.00   26.00
   1  -5  -4   67.29   20.60
   1  -5  -4   86.89   31.00
  -1  -5   4   44.50   25.80
  -1  -5   4   29.10   28.40
   1  -5  -4   61.39   29.80
   1  -5  -4   57.59   14.30
  -1  -5   4   36.40   20.80
  -1  -5   4   53.79   26.50
  -1   5   4   95.99   23.10
   1   5  -4   71.79   27.30
   1   5  -4   61.99   29.30
  -1   5   4   70.09   14.50
   1   5  -4   83.79   33.50
  -1   5   4   63.39   14.90
   1   5  -4   27.10   27.70
   1   5  -4   81.79   26.80
   0  -5  -4  501.85   33.80
   0  -5  -4  408.46   31.70
   0  -5  -4  464.75   33.50
   0  -5   4  421.36   28.40
   0  -5   4  418.06   42.50
   0  -5   4  405.06   41.20
   0  -5   4  456.15   37.80
   0  -5  -4  438.96   49.80
   0   5  -4  383.16   41.00
   0   5  -4  398.86   44.40
   0   5  -4  461.55   48.60
   0   5  -4  431.56   44.80
   0   5  -4  400.16   47.50
   1  -5   4 1729.63   72.69
  -1  -5  -4 1792.32   65.79
   1  -5   4 1665.53   72.79
  -1  -5  -4 1826.52   78.19
   1  -5   4 1677.13   57.09
  -1  -5  -4 1702.23   61.59
  -1  -5  -4 1613.04   77.49
   1  -5   4 1767.72   74.19
  -1   5  -4 1648.54   82.69
  -1   5  -4 1815.72   76.49
  -1   5  -4 1719.33   77.89
  -1   5  -4 1695.33   80.19
  -1   5  -4 1806.62   81.89
  -2  -5  -4  936.11   40.90
   2  -5   4  919.11   51.69
   2  -5   4  837.52   54.89
  -2  -5  -4  899.11   40.00
  -2  -5  -4  838.32   60.39
   2  -5   4  990.80   60.09
   2  -5   4  966.90   35.20
  -2   5  -4  894.01   63.29
  -2   5  -4  908.31   60.09
  -2   5  -4  898.81   60.69
  -2   5  -4  975.40   70.89
  -2   5  -4  916.01   57.29
  -3  -5  -4 1461.05   52.09
   3  -5   4 1454.15   69.99
  -3  -5  -4 1499.15   57.59
  -3  -5  -4 1466.55   60.59
   3  -5   4 1541.45   69.69
  -3  -5  -4 1365.96   77.59
   3  -5   4 1565.14   51.39
  -3   5  -4 1287.57   73.99
  -3   5  -4 1563.64   77.29
  -3   5  -4 1475.95   77.59
  -3   5  -4 1492.95   77.29
   4  -5   4   45.90   16.50
  -4  -5  -4   68.39   26.60
  -4  -5  -4   65.59   14.70
  -4  -5  -4   69.69   38.10
  -4  -5  -4   53.99   14.70
   4  -5   4    2.30   28.70
  -4  -5  -4   57.89   15.70
  -4  -5  -4   15.80   21.00
   4  -5   4   56.09   28.10
  -4   5  -4   -6.40   38.20
  -4   5  -4  113.29   40.80
  -4   5  -4   20.70   38.80
   5  -5   4 1581.84   76.99
  -5  -5  -4 1499.75   96.39
  -5  -5  -4 1666.53   61.29
   5  -5   4 1634.04   65.99
   5  -5   4 1577.74   77.89
  -5  -5  -4 1638.24   75.79
  -5  -5  -4 1559.64   80.59
  -5   5  -4 1654.53  102.19
  -5   5  -4 1557.74   97.69
   6  -5   4  108.49   37.80
  -6  -5  -4  186.58   54.29
  -6   5  -4  233.88   60.29
  -6   5  -4  201.78   64.39
  -7  -5  -4  214.88   52.39
   7  -5   4  245.78   38.90
  -7   5  -4  348.97   78.89
  -8  -5  -4  508.25   93.29
  -8  -5  -4  493.45   81.89
  -8   5  -4  469.65   88.29
  -8   5  -4  230.18   89.59
   9  -6  -4   34.70   84.99
   9  -6  -4  -80.29   68.09
  -9  -6   4 -112.29   67.99
  -9  -6   4  232.98   80.39
  -9   6   4   -8.70   74.79
   9   6  -4   68.09   75.89
   8  -6  -4  -30.90   66.99
  -8  -6   4  -36.50   61.09
  -8  -6   4   70.69   58.39
   8  -6  -4  -17.50   70.39
   8   6  -4   15.10   41.60
  -8   6   4   -5.80   63.49
  -8   6   4    5.80   45.50
  -7  -6   4  562.34   74.89
   7  -6  -4  686.73   95.39
   7  -6  -4  568.94   78.39
  -7   6   4  581.94   75.39
  -7   6   4  569.04   62.49
   7   6  -4  637.54   83.99
   7   6  -4  501.05   61.69
   6  -6  -4  164.78   59.39
  -6  -6   4  227.28   54.19
   6  -6  -4  262.87   63.99
   6  -6  -4  203.78   55.99
  -6  -6   4  163.18   54.39
   6   6  -4  206.78   58.99
  -6   6   4  247.38   35.20
  -6   6   4  311.17   57.89
   6   6  -4  250.87   38.80
   6   6  -4  175.88   34.20
  -6   6   4  220.18   52.59
   5  -6  -4 2731.83  123.49
  -5  -6   4 2462.55  116.29
  -5  -6   4 2478.25  114.19
   5  -6  -4 2567.34  127.79
   5  -6  -4 2617.24  125.69
  -5   6   4 2558.94  111.49
   5   6  -4 2539.05  102.99
   5   6  -4 2599.84  136.59
  -5   6   4 2509.95   94.29
   5   6  -4 2708.23  128.69
  -5   6   4 2728.13  109.39
  -4  -6   4   -0.80   32.80
  -4  -6   4   18.10   33.10
   4  -6  -4   41.20   38.10
  -4  -6   4  -24.40   46.30
   4  -6  -4   11.50   41.80
   4  -6  -4   35.20   42.10
  -4   6   4  -26.20   32.30
   4   6  -4   47.70   33.60
   4   6  -4   96.29   28.40
   4   6  -4   -4.60   28.40
  -4   6   4   86.89   35.60
  -4   6   4   -8.30   19.50
  -4   6   4    1.90   23.80
   4   6  -4   14.30   42.40
   4   6  -4   -4.00   42.90
  -3  -6   4 1987.30   91.99
   3  -6  -4 2026.30  101.39
  -3  -6   4 1991.30   92.09
  -3  -6   4 1990.00   85.49
   3  -6  -4 1964.20   95.79
   3  -6  -4 1875.11   91.19
   3  -6  -4 1906.91   84.99
  -3  -6   4 1887.11   95.09
  -3  -6   4 1947.31   98.19
   3   6  -4 1997.00   98.59
  -3   6   4 1835.22   82.09
  -3   6   4 1958.80   83.69
   3   6  -4 1971.40  102.49
   3   6  -4 1853.31   86.49
  -3   6   4 2034.60   70.79
   3   6  -4 1924.51   83.39
  -3   6   4 2012.40   70.69
  -3   6   4 2161.28   93.39
   3   6  -4 1931.61   84.59
  -3   6   4 1992.80   95.09
  -2  -6   4   50.19   33.90
  -2  -6   4   26.00   24.50
   2  -6  -4  108.19   34.50
   2  -6  -4   54.99   29.00
  -2  -6   4   26.70   31.80
   2  -6  -4   57.39   15.50
   2  -6  -4   70.99   37.60
   2  -6  -4    4.80   25.80
  -2  -6   4   38.50   31.00
  -2  -6   4   62.89   33.40
   2   6  -4  113.19   30.20
   2   6  -4   46.80   37.50
  -2   6   4   16.00   22.50
  -2   6   4   87.69   31.80
   2   6  -4   46.50   26.70
  -2   6   4   14.40   27.70
  -2   6   4   39.60   23.90
   2   6  -4   50.89   37.80
  -1  -6   4  940.31   61.59
   1  -6  -4  905.01   56.19
  -1  -6   4 1007.20   62.59
  -1  -6   4  932.21   60.79
   1  -6  -4  952.20   57.69
  -1  -6   4  972.30   61.49
   1  -6  -4  982.80   51.49
  -1  -6   4  939.31   49.80
   1  -6  -4  970.00   42.80
   1  -6  -4 1000.20   68.39
  -1   6   4  913.61   63.09
   1   6  -4  971.60   66.49
  -1   6   4  915.01   42.70
   1   6  -4 1028.60   71.89
   1   6  -4  959.90   59.39
   1   6  -4  900.41   66.59
  -1   6   4  853.11   52.69
   1   6  -4  958.00   55.59
   0  -6  -4   89.99   24.00
   0  -6  -4  120.09   33.70
   0  -6  -4   98.59   27.30
   0  -6   4  157.68   32.10
   0  -6   4  148.39   31.60
   0  -6   4  133.59   33.00
   0   6  -4  138.89   33.40
   0   6  -4  110.89   35.70
   0   6  -4   70.19   27.90
   0   6  -4   93.09   35.60
   0   6  -4   28.10   33.20
   0   6   4   87.39   21.70
  -1  -6  -4  142.99   29.40
  -1  -6  -4  164.58   11.00
   1  -6   4  101.09   33.40
   1  -6   4  148.69   32.60
  -1  -6  -4  174.58   25.30
  -1  -6  -4  116.49   22.70
   1  -6   4  138.09   18.90
  -1  -6  -4  122.79   32.70
   1  -6   4  164.18   34.00
  -1  -6  -4  166.98   21.00
  -1   6  -4  223.48   37.90
  -1   6  -4  204.28   35.40
  -1   6  -4  110.89   36.20
  -1   6  -4  128.29   39.20
  -1   6  -4  160.58   37.00
  -2  -6  -4  421.76   37.20
  -2  -6  -4  472.95   36.10
   2  -6   4  570.74   50.39
  -2  -6  -4  437.76   47.20
  -2  -6  -4  509.15   39.30
   2  -6   4  487.95   30.00
   2  -6   4  474.45   45.30
   2  -6   4  580.34   54.89
  -2  -6  -4  473.05   22.90
  -2   6  -4  467.85   51.19
  -2   6  -4  451.75   48.70
  -2   6  -4  440.86   49.20
  -2   6  -4  455.75   52.49
  -2   6  -4  455.25   53.99
  -3  -6  -4  156.58   41.60
   3  -6   4  114.59   32.90
  -3  -6  -4  143.09   24.90
  -3  -6  -4  104.49   32.20
  -3  -6  -4  136.99   27.90
   3  -6   4  112.49   35.80
   3  -6   4  143.49   19.10
  -3   6  -4  151.88   42.30
  -3   6  -4  115.29   43.50
  -3   6  -4   72.39   39.80
  -4  -6  -4   41.90   40.60
  -4  -6  -4   53.99   18.40
  -4  -6  -4   52.29   27.90
  -4  -6  -4  119.89   41.30
   4  -6   4   60.89   35.00
   4  -6   4  108.99   28.40
  -4  -6  -4   92.19   31.80
   4  -6   4   96.69   37.50
  -4   6  -4  108.59   45.70
  -4   6  -4   84.29   44.00
   5  -6   4  108.99   27.10
  -5  -6  -4  150.58   63.89
  -5  -6  -4   78.19   49.00
   5  -6   4  146.99   43.80
   5  -6   4  130.89   40.10
  -5  -6  -4  170.88   34.50
  -5   6  -4  237.58   57.09
  -5   6  -4  152.98   57.39
  -6  -6  -4    1.80   37.40
   6  -6   4   43.00   40.80
  -6  -6  -4   66.19   62.99
  -6   6  -4  -39.60   64.59
  -6   6  -4   47.30   61.69
   7  -6   4  -25.80   43.60
  -7  -6  -4  201.88   66.89
  -7   6  -4   51.29   65.59
  -7   6  -4  130.49   68.69
  -8  -6  -4   79.19   74.39
  -8   6  -4   53.19   86.59
  -8   6  -4   99.39   84.59
  -8  -7   4 -102.79   61.69
   8  -7  -4   79.99   70.89
   8  -7  -4   67.69   73.59
  -8   7   4   58.59   65.49
  -8   7   4   13.60   50.69
   8   7  -4  141.89   70.99
  -7  -7   4   85.89   77.09
   7  -7  -4  112.39   68.59
   7  -7  -4  128.09   72.99
  -7  -7   4   64.59   61.69
  -7   7   4   18.00   38.90
   7   7  -4  106.89   68.39
  -7   7   4  127.09   64.59
   7   7  -4   35.30   34.10
  -6  -7   4  282.67   62.69
   6  -7  -4  223.08   70.09
  -6  -7   4  228.68   64.89
   6  -7  -4  272.07   68.99
  -6   7   4  273.67   63.79
   6   7  -4  196.08   42.40
  -6   7   4  273.27   59.69
   6   7  -4  228.68   62.79
   6   7  -4  252.37   37.90
  -6   7   4  226.88   37.80
  -5  -7   4   56.89   46.70
  -5  -7   4   89.79   40.30
   5  -7  -4   67.99   48.60
   5  -7  -4   74.39   52.09
   5  -7  -4   73.69   54.79
  -5   7   4   57.19   26.60
   5   7  -4   28.80   51.79
  -5   7   4   57.89   37.70
   5   7  -4   48.10   47.60
  -5   7   4  111.99   44.40
   5   7  -4   80.59   34.70
   5   7  -4   33.90   30.30
   4  -7  -4 1225.88   88.39
  -4  -7   4 1217.28   77.89
   4  -7  -4 1179.58   82.79
  -4  -7   4 1221.68   82.29
   4  -7  -4 1290.77   94.09
  -4   7   4 1180.08   60.29
  -4   7   4 1302.17   62.69
   4   7  -4 1219.68   68.89
   4   7  -4 1347.17   95.49
   4   7  -4 1422.36   96.39
  -4   7   4 1419.56   79.89
   4   7  -4 1264.07   68.99
  -4   7   4 1241.78   77.89
  -3  -7   4   30.30   42.00
  -3  -7   4   -9.40   31.70
  -3  -7   4   17.30   34.10
   3  -7  -4   53.79   41.30
   3  -7  -4  -17.80   35.90
   3  -7  -4   18.50   36.00
   3   7  -4   70.99   32.70
   3   7  -4  -15.60   27.40
   3   7  -4   12.20   43.30
  -3   7   4   53.79   36.60
  -3   7   4   -0.10   21.50
   3   7  -4    7.40   40.60
   3   7  -4   43.70   35.60
  -3   7   4   22.20   29.80
  -3   7   4   11.60   15.00
  -3   7   4    9.70   30.10
   2  -7  -4 1149.48   73.09
   2  -7  -4 1258.87   71.19
  -2  -7   4 1189.48   77.59
   2  -7  -4 1260.07   75.79
  -2  -7   4 1289.67   80.69
  -2  -7   4 1314.97   68.39
  -2  -7   4 1265.57   75.89
   2  -7  -4 1260.47   82.99
   2   7  -4 1234.48   87.09
  -2   7   4 1318.47   63.69
   2   7  -4 1335.77   72.49
  -2   7   4 1406.16   73.69
   2   7  -4 1294.97   83.49
  -2   7   4 1109.79   87.49
   2   7  -4 1350.66   72.29
   1  -7  -4  287.07   36.00
   1  -7  -4  418.46   48.60
  -1  -7   4  250.67   41.70
   1  -7  -4  297.87   38.70
  -1  -7   4  332.27   44.80
  -1  -7   4  333.07   43.00
  -1  -7   4  382.56   43.50
  -1  -7   4  270.47   42.00
   1  -7  -4  334.67   34.30
   1  -7  -4  223.58   45.10
   1   7  -4  313.87   46.30
  -1   7   4  359.76   33.00
   1   7  -4  303.67   47.50
  -1   7   4  342.27   36.60
   1   7  -4  351.26   47.50
  -1   7   4  345.77   44.60
   1   7  -4  384.36   43.80
   1   7  -4  418.26   50.19
   0  -7   4 1427.96   62.49
   0  -7   4 1409.46   77.09
   0  -7  -4 1491.95   69.19
   0  -7  -4 1407.76   79.39
   0  -7  -4 1396.36   66.99
   0  -7   4 1387.86   75.89
   0  -7  -4 1486.25   64.39
   0  -7   4 1227.18   75.59
   0  -7  -4 1401.66   63.49
   0   7  -4 1418.26   82.29
   0   7  -4 1286.57   77.99
   0   7  -4 1310.97   76.19
   0   7  -4 1420.76   80.49
   0   7   4 1543.65   78.29
   0   7  -4 1333.17   81.99
   1  -7   4  277.77   27.80
   1  -7   4  289.17   43.40
  -1  -7  -4  267.17   37.50
  -1  -7  -4  304.07   26.80
  -1  -7  -4  246.88   39.80
  -1  -7  -4  303.97   32.60
   1  -7   4  224.38   40.60
  -1   7  -4  193.28   44.70
  -1   7  -4  267.47   43.00
  -1   7  -4  237.88   45.20
  -2  -7  -4  384.56   46.70
   2  -7   4  335.27   45.10
  -2  -7  -4  346.87   43.00
  -2  -7  -4  320.27   40.90
  -2  -7  -4  339.07   31.50
  -2  -7  -4  327.17   46.60
   2  -7   4  422.56   49.10
  -2   7  -4  348.37   50.19
  -2   7  -4  303.37   48.40
  -2   7  -4  320.77   49.60
   3  -7   4 1053.99   73.69
   3  -7   4  791.72   72.29
  -3  -7  -4  922.01   57.59
  -3  -7  -4  987.10   77.69
  -3  -7  -4 1041.80   62.39
  -3  -7  -4  994.10   61.09
  -3   7  -4 1052.49   84.49
  -3   7  -4 1003.00   85.29
  -3   7  -4 1008.40   78.99
  -4  -7  -4   -5.70   45.60
   4  -7   4   51.89   47.50
  -4  -7  -4   -3.10   35.50
   4  -7   4  -52.69   22.20
   4  -7   4  -11.10   36.00
  -4  -7  -4   15.50   32.90
  -4  -7  -4   15.40   42.80
  -4  -7  -4  -13.60   28.10
  -4   7  -4    9.90   46.40
  -4   7  -4  -81.79   44.10
  -4   7  -4  136.89   52.89
  -5  -7  -4  283.07   41.10
   5  -7   4  273.17   51.19
  -5  -7  -4  301.87   67.49
  -5   7  -4  218.18   65.79
  -5   7  -4  208.98   65.69
  -6  -7  -4  418.36   58.69
  -6  -7  -4  549.65   84.39
   6  -7   4  384.66   59.99
  -6   7  -4  478.05   84.59
  -6   7  -4  359.26   74.09
  -7  -7  -4   13.00   68.49
   7  -7   4   29.10   66.49
  -7   7  -4   33.10   68.19
  -7   7  -4  -92.49   69.79
  -8  -8   4  824.52   98.49
   8  -8  -4  700.93  104.49
   8  -8  -4  852.91  100.49
  -8   8   4  865.11   98.19
   8   8  -4  788.32   93.39
  -8   8   4  691.63   80.39
  -7  -8   4   90.29   67.79
  -7  -8   4  200.98   68.39
   7  -8  -4  247.08   74.69
   7  -8  -4   23.80   67.49
  -7   8   4  211.38   46.30
  -7   8   4  206.58   70.29
   6  -8  -4  579.24   88.09
  -6  -8   4  565.54   90.79
  -6  -8   4  534.35   77.29
  -6   8   4  655.23   77.59
  -6   8   4  557.64   59.49
   6   8  -4  479.75   44.70
   6   8  -4  704.13   91.49
   5  -8  -4  -21.20   60.99
   5  -8  -4  -38.30   49.40
  -5  -8   4   66.19   50.69
  -5  -8   4  108.89   47.60
   5   8  -4    2.80   44.10
  -5   8   4   43.30   38.00
  -5   8   4   21.90   43.80
  -5   8   4   63.09   30.30
   5   8  -4   50.89   58.09
   5   8  -4   24.40   57.39
   5   8  -4   -6.70   30.00
  -4  -8   4  -60.79   42.20
   4  -8  -4   -4.60   45.90
   4  -8  -4    8.60   42.00
  -4  -8   4  -40.50   37.40
   4  -8  -4    8.40   53.59
  -4   8   4  -17.90   25.50
   4   8  -4   -4.70   28.60
   4   8  -4  -35.20   48.50
  -4   8   4  123.69   50.29
   4   8  -4   30.10   49.10
  -4   8   4    8.10   36.60
   4   8  -4  -12.60   50.19
   3  -8  -4  340.27   52.49
  -3  -8   4  271.67   49.00
  -3  -8   4  276.27   45.70
   3  -8  -4  335.87   39.30
   3  -8  -4  260.57   48.80
   3  -8  -4  232.18   54.79
  -3   8   4  535.95   60.49
  -3   8   4  324.47   45.10
   3   8  -4  341.97   57.09
   3   8  -4  339.37   56.19
   3   8  -4  277.47   38.30
  -2  -8   4  830.62   62.69
  -2  -8   4  932.01   77.49
   2  -8  -4  897.41   67.79
   2  -8  -4  812.62   79.09
  -2  -8   4  894.71   75.19
   2  -8  -4  872.81   49.20
   2  -8  -4  808.92   66.79
  -2   8   4  835.92   59.19
   2   8  -4  874.31   83.59
   2   8  -4  806.82   81.59
  -2   8   4  832.92   57.89
  -2   8   4  809.32   67.49
   1  -8  -4  292.67   32.60
  -1  -8   4  258.47   45.40
  -1  -8   4  273.07   36.50
   1  -8  -4  205.88   49.20
   1  -8  -4  263.17   41.10
   1  -8  -4  314.37   38.50
  -1   8   4  275.47   30.00
  -1   8   4  232.08   27.00
   1   8  -4  252.67   52.39
  -1   8   4  308.77   37.20
   1   8  -4  264.07   49.00
   1   8  -4  281.57   51.09
   0  -8  -4 1419.96   85.69
   0  -8   4 1403.26   82.29
   0  -8  -4 1428.06   73.99
   0  -8   4 1395.06   66.59
   0  -8  -4 1587.44   72.69
   0  -8  -4 1497.15   74.59
   0   8  -4 1427.36   86.39
   0   8  -4 1355.16   88.09
   0   8  -4 1302.27   88.19
   0   8   4 1532.95   96.59
   0   8   4 1471.35   74.29
  -1  -8  -4    7.40   32.90
  -1  -8  -4   40.60   27.60
  -1  -8  -4   13.30   35.10
   1  -8   4   38.70   23.90
  -1  -8  -4   42.60   32.70
   1  -8   4   40.50   37.60
  -1   8  -4    3.90   39.40
  -1   8  -4   16.60   40.30
  -1   8  -4   56.79   39.30
  -2  -8  -4  464.75   56.59
  -2  -8  -4  543.85   57.09
  -2  -8  -4  540.65   58.59
  -2  -8  -4  572.44   51.89
   2  -8   4  524.35   63.49
  -2   8  -4  479.15   58.99
  -2   8  -4  572.14   70.79
  -2   8  -4  683.83   71.89
   3  -8   4  -10.80   24.20
  -3  -8  -4  -31.40   42.40
   3  -8   4   32.40   40.00
  -3  -8  -4   12.70   28.50
  -3  -8  -4  -49.00   44.50
  -3  -8  -4  -22.10   28.70
  -3   8  -4  -17.10   41.90
  -3   8  -4    5.10   43.20
  -3   8  -4   43.30   47.40
   4  -8   4  229.18   56.99
  -4  -8  -4  299.47   53.49
  -4  -8  -4  419.76   67.79
  -4  -8  -4  307.07   40.90
  -4  -8  -4  379.86   43.00
  -4   8  -4  365.76   66.39
  -4   8  -4  327.87   62.49
  -4   8  -4  277.97   69.19
  -5  -8  -4   48.90   38.70
   5  -8   4    6.00   60.69
  -5   8  -4  -64.39   54.99
  -5   8  -4  -44.10   70.29
  -6  -8  -4  105.39   66.29
   6  -8   4  247.58   72.59
  -6  -8  -4  165.08   54.29
  -6   8  -4  139.69   74.59
  -6   8  -4  187.58   71.29
  -6   8  -4  170.38   75.59
   7  -8   4 -131.19   64.39
  -7  -8  -4  152.58   79.99
  -7   8  -4   58.69   78.09
  -7   8  -4  167.38   89.29
  -7  -9   4  206.68   68.69
   7  -9  -4  208.18   81.09
   7  -9  -4  263.47   82.09
  -7  -9   4  105.39   71.19
  -7   9   4  195.18   72.99
   7   9  -4  303.97   74.59
  -7   9   4  151.08   52.09
  -6  -9   4  -11.70   53.19
  -6  -9   4   19.40   60.09
   6  -9  -4   99.59   70.29
   6  -9  -4 -122.19   57.19
  -6   9   4   -4.00   39.30
   6   9  -4  -53.19   74.29
  -6   9   4  -20.60   52.99
   5  -9  -4  237.18   69.29
   5  -9  -4   77.49   69.89
  -5  -9   4  104.59   57.49
  -5  -9   4  135.49   64.79
  -5   9   4  205.68   39.10
   5   9  -4   92.79   71.89
  -5   9   4   48.50   56.19
  -4  -9   4   57.29   53.19
   4  -9  -4  161.58   55.99
   4  -9  -4   -3.50   66.29
  -4  -9   4   96.69   49.70
  -4   9   4   87.49   17.20
  -4   9   4   40.00   44.60
   4   9  -4   11.50   52.79
   4   9  -4   68.29   58.29
  -4   9   4   76.59   23.10
   4   9  -4   73.59   32.00
  -4   9   4  116.79   33.20
  -3  -9   4  286.67   54.09
   3  -9  -4  275.17   35.70
  -3  -9   4  224.08   46.50
   3  -9  -4  252.47   60.99
   3  -9  -4  287.57   52.09
   3   9  -4  204.08   60.69
  -3   9   4  241.58   44.50
   3   9  -4  253.57   36.80
   3   9  -4  229.18   56.69
  -3   9   4  309.57   51.19
  -2  -9   4  141.09   39.60
  -2  -9   4  183.78   49.50
   2  -9  -4  212.38   46.80
   2  -9  -4  199.98   58.19
   2  -9  -4  156.98   31.70
   2   9  -4  198.58   50.99
   2   9  -4  145.09   54.89
  -2   9   4  245.78   46.80
  -2   9   4  173.88   36.10
  -1  -9   4   78.99   34.60
   1  -9  -4   28.10   38.70
   1  -9  -4   95.89   45.70
  -1  -9   4   93.09   46.70
   1  -9  -4   41.50   31.20
  -1   9   4  100.89   34.00
  -1   9   4   22.60   26.10
   1   9  -4   82.29   43.80
   1   9  -4   39.70   47.10
   1   9  -4   70.29   50.29
  -1   9   4   56.19   25.30
   0  -9   4  340.67   53.19
   0  -9  -4  316.27   53.09
   0  -9   4  340.87   40.50
   0  -9  -4  386.16   46.70
   0  -9  -4  328.27   45.80
   0   9   4  438.36   41.70
   0   9  -4  396.26   60.19
   0   9  -4  332.67   57.09
   0   9  -4  333.37   52.89
  -1  -9  -4  632.04   58.49
   1  -9   4  726.73   53.69
   1  -9   4  741.13   74.79
  -1  -9  -4  651.23   71.19
  -1  -9  -4  784.72   70.79
  -1   9  -4  795.52   83.59
  -1   9  -4  613.24   76.19
  -1   9  -4  703.43   86.69
  -2  -9  -4   24.50   50.39
  -2  -9  -4   68.09   34.50
   2  -9   4   49.99   48.20
  -2  -9  -4   61.49   40.90
  -2   9  -4   94.69   52.39
  -2   9  -4    7.40   51.69
  -2   9  -4   37.90   44.50
   3  -9   4 1796.52  113.09
  -3  -9  -4 1648.14   63.89
  -3  -9  -4 1690.33  116.09
  -3  -9  -4 1720.93   88.39
  -3   9  -4 1795.32  116.99
  -3   9  -4 1779.82  111.49
  -3   9  -4 1679.33  118.19
  -4  -9  -4  -24.60   29.60
   4  -9   4   41.20   54.19
  -4  -9  -4   18.10   38.30
  -4   9  -4  -32.20   68.79
  -4   9  -4   45.30   69.49
  -5  -9  -4  770.02   86.79
  -5  -9  -4  776.92   83.49
  -5   9  -4  768.22   92.79
  -5   9  -4  750.32   89.09
  -5   9  -4  747.13   93.09
  -6  -9  -4  244.18   62.59
  -6  -9  -4   63.59   74.19
   6  -9   4  116.19   69.59
  -6   9  -4   91.19   75.09
  -6   9  -4  120.29   76.09
  -6   9  -4   34.30   78.29
  -7 -10   4  407.16   91.99
   7 -10  -4  442.16   96.99
  -7 -10   4  457.25   87.39
   7 -10  -4  314.17   87.59
  -7  10   4  256.37   83.69
   7  10  -4  237.48   82.09
  -6 -10   4   50.69   59.99
   6 -10  -4    0.00   67.29
   6 -10  -4   15.80   78.39
  -6 -10   4  -75.39   61.99
  -6  10   4    0.30   43.40
   6  10  -4   86.49   69.39
  -6  10   4    3.60   59.59
  -5 -10   4  714.13   85.09
  -5 -10   4  652.63   83.39
   5 -10  -4  845.52  101.19
   5 -10  -4  859.81  104.39
  -5  10   4  734.53   72.19
  -4 -10   4  -14.80   57.59
   4 -10  -4   51.89   65.69
  -4  10   4   12.80   52.19
   4  10  -4  -40.90   31.00
   4  10  -4   78.79   72.19
   4  10  -4  -28.60   61.19
  -3 -10   4 1295.57   97.89
   3 -10  -4 1532.65  119.59
   3 -10  -4 1568.74  113.49
  -3 -10   4 1423.16  107.59
   3  10  -4 1338.37  127.29
   3  10  -4 1489.75   78.09
  -3  10   4 1473.85   87.89
   3  10  -4 1475.95  103.69
  -2 -10   4   10.60   54.19
   2 -10  -4   -8.80   55.09
   2 -10  -4   -1.10   46.30
  -2 -10   4   44.30   39.00
   2 -10  -4   37.80   36.50
   2  10  -4   68.79   51.39
  -2  10   4  114.09   41.10
  -2  10   4   31.60   35.60
  -2  10   4  107.89   51.29
   2  10  -4   50.49   61.39
  -1 -10   4  641.44   72.89
   1 -10  -4  648.14   71.29
   1 -10  -4  777.02   88.89
   1 -10  -4  554.84   64.89
  -1 -10   4  634.44   66.19
   1  10  -4  704.43   74.29
  -1  10   4  621.34   52.19
   1  10  -4  660.23   77.39
  -1  10   4  759.42   66.69
   0 -10  -4  121.19   41.40
   0 -10   4   62.99   35.70
   0 -10  -4   39.50   49.30
   0 -10   4  159.28   55.09
   0 -10  -4  114.89   46.90
   0  10  -4   51.49   46.50
   0  10  -4   93.49   61.69
   0  10  -4   19.00   59.89
  -1 -10  -4  -55.69   34.90
   1 -10   4   14.40   57.09
  -1 -10  -4   83.19   46.40
   1 -10   4   10.70   31.20
  -1  10  -4    9.90   60.89
  -1  10  -4   49.99   49.50
  -1  10  -4   50.49   55.89
  -2 -10  -4   62.89   43.30
   2 -10   4   63.29   32.90
  -2 -10  -4   28.80   37.20
   2 -10   4   11.20   54.09
  -2 -10  -4  144.09   59.09
  -2  10  -4  116.59   55.09
  -2  10  -4  172.68   66.99
  -2  10  -4   92.09   60.19
  -3 -10  -4   26.40   41.30
  -3 -10  -4  128.19   41.40
  -3 -10  -4  158.98   64.99
  -3  10  -4   82.79   64.19
  -3  10  -4  -12.80   61.79
  -3  10  -4   94.49   64.69
  -4 -10  -4  224.38   70.79
  -4 -10  -4  174.88   50.49
   4 -10   4  136.49   61.99
  -4  10  -4   77.89   68.49
  -4  10  -4   26.50   64.99
  -4  10  -4  300.57  119.69
  -5 -10  -4   57.19   59.49
   5 -10   4   94.29   68.39
  -5 -10  -4  -29.20   67.19
  -5  10  -4  206.08   71.59
  -5  10  -4  153.28   75.09
  -5  10  -4  112.49   72.99
  -6 -11   4   28.30   67.09
   6 -11  -4  144.39   90.59
  -6 -11   4   74.59   75.19
   6 -11  -4  165.78   80.69
  -6  11   4  -26.90   69.39
   6  11  -4    6.70   77.69
  -5 -11   4   29.90   62.79
   5 -11  -4  -58.19   74.99
   5 -11  -4 -131.69   63.29
  -5 -11   4  -49.40   57.79
   5  11  -4   53.59   75.79
  -5  11   4  -27.60   44.60
  -5  11   4   42.40   59.79
   4 -11  -4  519.45   93.49
   4 -11  -4  553.74   82.99
  -4 -11   4  598.74   82.49
  -4 -11   4  592.84   79.39
   4  11  -4  613.34   98.39
  -4  11   4  502.85   78.49
   4  11  -4  628.84   86.29
   3 -11  -4  162.88   77.19
  -3 -11   4    1.10   55.49
   3 -11  -4  102.09   64.79
  -3 -11   4  124.39   63.19
   3  11  -4   10.70   86.39
  -3  11   4   64.39   51.79
   3  11  -4  124.99   36.30
   3  11  -4  174.28   67.99
  -2 -11   4  856.41   85.69
   2 -11  -4  832.12   89.19
  -2 -11   4  775.22   96.39
   2  11  -4  738.23   81.39
  -2  11   4  839.92   73.99
  -1 -11   4   11.70   38.70
   1 -11  -4  110.29   55.19
   1 -11  -4  -49.20   64.29
   1  11  -4    2.30   52.59
  -1  11   4   26.20   30.80
   0 -11  -4 1004.70  107.09
   0 -11   4  852.91   75.59
   0 -11  -4  746.73   85.09
   0  11  -4  858.21   94.49
  -1 -11  -4   29.10   57.79
   1 -11   4  -25.70   60.19
   1 -11   4   -3.50   36.00
  -1 -11  -4  -55.99   38.30
  -1  11  -4   36.70   63.99
  -1  11  -4   12.70   55.99
  -1  11  -4  -75.79   63.69
   2 -11   4  415.26   47.20
   2 -11   4  368.46   70.29
  -2 -11  -4  293.27   56.59
  -2 -11  -4  396.66   58.49
  -2 -11  -4  376.36   69.69
  -2  11  -4  284.67   69.09
  -2  11  -4  320.87   71.09
  -2  11  -4  460.85   78.99
  -3 -11  -4  243.08   58.29
  -3 -11  -4  304.77   53.19
   3 -11   4  237.98   42.90
  -3 -11  -4  318.87   74.09
   3 -11   4  240.08   67.79
  -3  11  -4  366.36   79.79
  -3  11  -4  394.66   75.99
  -3  11  -4  214.08   77.99
   4 -11   4  -12.30   63.99
  -4 -11  -4  -59.59   67.69
  -4 -11  -4   40.20   61.79
  -4  11  -4   -5.40   70.59
  -4  11  -4   56.09   73.29
  -4  11  -4   12.10   67.29
  -5 -11  -4   -0.50   76.29
   5 -11   4   21.40   75.39
  -5  11  -4 -116.79   74.79
  -5  11  -4   76.49   82.69
  -5  11  -4  -12.60   82.39
   5 -12  -4  142.79   84.59
  -5 -12   4   56.69   74.79
   5 -12  -4   80.19   92.29
  -5 -12   4  111.39   77.99
   5  12  -4  131.39   85.09
  -5  12   4   43.40   68.99
  -4 -12   4  -70.59   61.59
   4 -12  -4   32.00   79.39
   4 -12  -4  100.99   75.29
  -4 -12   4  -13.00   65.59
   4  12  -4  -15.40   79.49
  -4  12   4  -38.70   64.89
  -3 -12   4  291.37   71.49
   3 -12  -4  483.75   86.59
  -3 -12   4  280.47   65.19
   3 -12  -4  461.65   82.89
   3  12  -4  277.37   88.79
  -3  12   4  304.87   71.19
   3  12  -4  303.87   79.69
  -2 -12   4  291.07   72.19
   2 -12  -4  254.87   77.79
  -2 -12   4  346.27   72.69
   2 -12  -4  217.28   68.19
  -2  12   4  264.37   51.79
   2  12  -4  224.78   49.40
   2  12  -4  268.97   82.29
   2  12  -4  287.77   78.29
   1 -12  -4  400.56   80.99
  -1 -12   4  439.66   69.09
   1 -12  -4  417.36   85.39
  -1 -12   4  608.24   82.39
   1  12  -4  552.94   82.59
   1  12  -4  450.65   88.69
   0 -12  -4  210.78   72.79
   0 -12   4  179.78   55.19
   0 -12  -4  250.77   72.99
   0 -12   4  364.36   75.09
   0  12  -4  135.49   73.59
   0  12  -4  100.99   66.79
   1 -12   4   82.79   44.20
   1 -12   4   52.69   62.49
  -1 -12  -4   51.59   61.59
  -1  12  -4    6.80   71.29
  -1  12  -4   -4.00   71.39
  -1  12  -4  -29.20   71.49
  -2 -12  -4  312.37   72.79
  -2 -12  -4  402.06   75.09
   2 -12   4  295.47   73.29
  -2 -12  -4  376.56   73.79
   2 -12   4  377.86   52.59
  -2  12  -4  239.58   83.09
  -2  12  -4  337.97   83.19
  -2  12  -4  226.38   75.99
  -3 -12  -4  -64.89   76.09
  -3 -12  -4   -1.60   70.79
  -3 -12  -4    5.90   68.69
   3 -12   4   97.89   70.39
  -3  12  -4  -85.09   70.99
  -3  12  -4   -5.10   77.79
  -3  12  -4   26.50   73.49
  -4 -12  -4  313.57  149.29
  -4 -12  -4  165.58   80.39
   4 -12   4  211.38   81.49
  -4  12  -4  106.79   76.69
  -4  12  -4  225.88   88.99
   3 -13  -4  161.38   82.29
  -3 -13   4  142.49   71.19
  -3 -13   4   55.89   75.29
   3 -13  -4  201.98   87.19
   3  13  -4   80.39   83.59
  -2 -13   4  -51.79   61.09
   2 -13  -4  -18.20   76.79
  -2 -13   4   87.69   71.19
   2 -13  -4 -123.29   63.09
   2  13  -4   44.60   75.99
   2  13  -4   93.59   89.09
  -1 -13   4  -54.09   66.99
   1 -13  -4  -23.50   64.19
   1 -13  -4   42.20   75.29
  -1 -13   4  102.39   78.59
   1  13  -4   17.00   80.19
   1  13  -4  -12.30   77.09
   0 -13   4   78.89   67.39
   0 -13  -4  122.59   66.99
   0 -13  -4   47.40   68.19
   0 -13   4   36.50   67.29
   0  13  -4   77.89   83.89
   0  13  -4   34.00   81.39
  -1 -13  -4  833.92   93.79
  -1 -13  -4  932.71  101.89
   1 -13   4 1062.79  118.99
  -1 -13  -4 1016.10  108.19
   1 -13   4  910.31   91.79
  -1  13  -4 1259.17  144.39
  -1  13  -4  883.71  107.39
  -1  13  -4  702.83  157.08
  -2 -13  -4   38.20   72.19
   2 -13   4  117.19   78.89
  -2 -13  -4  134.99   73.39
  -2 -13  -4  205.28   81.29
  -2  13  -4   59.99   79.99
  -2  13  -4   13.80   80.29
  -2  13  -4  139.89   94.09
  10   0  -5   35.20   84.69
 -10   0   5   73.79   73.09
   9   0  -5  435.46   53.59
  -9   0   5  578.04   80.99
  -9   0   5  631.24   83.89
   9   0  -5  442.26   83.89
  -8   0   5   -7.90   55.49
   8   0  -5    2.10   39.50
   8   0  -5   14.40   66.69
   8   0  -5    7.10   58.59
  -8   0   5   19.90   56.29
  -7   0   5 2473.85  119.69
   7   0  -5 2521.95  135.69
   7   0  -5 2644.64  129.09
   7   0  -5 2799.82  114.39
  -7   0   5 2708.23  124.39
   6   0  -5  -19.60   43.20
  -6   0   5   27.40   37.00
   6   0  -5  -11.60   42.20
   6   0  -5   13.10   30.70
  -6   0   5  -36.90   33.60
   5   0  -5 1382.16   91.49
   5   0  -5 1378.56   84.39
  -5   0   5 1336.67   81.19
   5   0  -5 1563.14   75.59
   5   0  -5 1449.35   74.09
   5   0  -5 1417.96   78.59
  -5   0   5 1457.35   80.19
  -5   0   5 1470.85   76.09
  -5   0   5 1253.97   72.89
  -5   0   5 1459.65   79.79
  -4   0   5    7.00   24.30
  -4   0   5   17.20   29.80
  -4   0   5    3.50   28.30
   4   0  -5  -27.60   21.40
  -4   0   5   22.90   26.30
   4   0  -5    4.70   32.20
   4   0  -5   22.20   25.70
  -4   0   5    7.40   30.00
   4   0  -5   -1.60   36.00
   4   0  -5   41.40   37.30
  -3   0   5 2498.05   92.49
   3   0  -5 2337.67   95.69
  -3   0   5 2389.46   94.29
  -3   0   5 2322.57   85.59
   3   0  -5 2396.26  100.69
  -3   0   5 2482.75   97.49
   3   0  -5 2409.36   89.09
  -3   0   5 2469.95   78.89
   3   0  -5 2289.57  100.29
  -3   0   5 2423.26   88.69
   3   0  -5 2378.46   87.09
   2   0  -5   26.60   23.30
  -2   0   5   24.70   18.40
   2   0  -5   -3.20   16.40
  -2   0   5  -12.70   10.00
  -2   0   5   -1.50   21.20
   2   0  -5    4.70   30.50
  -2   0   5    3.70   16.40
   2   0  -5  -18.80   25.10
   1   0  -5   33.50   14.70
  -1   0   5   13.50    9.40
  -1   0   5   10.40   10.30
   1   0  -5   15.70   26.30
   1   0  -5   31.10   18.00
   1   0  -5   18.40   22.10
  -1   0   5   15.20   10.90
   1   0  -5   18.60   12.30
   1   0  -5   10.90   14.80
  -1   0   5   20.30   19.10
   0   0  -5  -18.30   12.10
   0   0  -5    2.80   14.20
   0   0  -5   -0.10   11.30
  -1   0  -5  871.61   54.49
  -1   0  -5  980.50   36.50
  -1   0  -5 1021.60   48.40
  -1   0  -5  993.40   36.70
  -2   0  -5   17.20   12.40
  -2   0  -5   45.10   23.40
  -2   0  -5    3.20   12.30
  -2   0  -5   -2.40   12.20
  -3   0  -5   44.80   17.30
  -3   0  -5   42.70   16.50
  -3   0  -5   34.70   28.40
  -3   0  -5   56.39   16.30
  -4   0  -5   -3.30   27.40
  -4   0  -5   29.70   22.80
  -4   0  -5    9.50   30.40
  -4   0  -5   25.10   21.40
  -4   0  -5    3.40   34.60
  -5   0  -5   49.99   26.90
  -5   0  -5   65.69   29.20
  -5   0  -5   71.39   31.90
  -5   0  -5   22.20   40.10
  -6   0  -5   -3.20   16.90
  -6   0  -5   50.29   33.10
  -6   0  -5   -3.60   32.20
  -6   0  -5  -41.50   48.60
  -7   0  -5  763.72   71.19
  -7   0  -5  818.92   79.29
  -7   0  -5  938.31  100.29
  -8   0  -5  -15.90   68.49
  -8   0  -5   54.49   74.89
  -8   0  -5  -19.60   57.29
  10  -1  -5  121.99   85.89
 -10  -1   5   14.00   68.59
 -10  -1   5  128.29   76.69
 -10   1   5  195.78   68.69
  10   1  -5   55.49   83.29
 -10   1   5  198.38   82.29
   9  -1  -5   70.09   70.39
   9  -1  -5  100.59   47.70
  -9  -1   5   -3.10   59.49
  -9  -1   5  211.48   68.89
   9  -1  -5  154.28   69.49
   9   1  -5  163.18   75.29
  -9   1   5  128.59   66.49
  -9   1   5   91.39   60.09
   9   1  -5   61.99   42.30
   8  -1  -5   38.70   68.99
   8  -1  -5  131.19   71.19
   8  -1  -5   91.79   45.70
  -8  -1   5  140.39   58.19
  -8  -1   5  139.79   61.09
   8   1  -5  115.29   69.19
   8   1  -5  156.28   40.40
  -8   1   5  134.99   62.09
   8   1  -5  170.88   61.89
   7  -1  -5  159.18   55.89
  -7  -1   5  108.19   48.10
  -7  -1   5  113.49   44.90
   7  -1  -5   89.29   54.09
   7  -1  -5   42.30   40.50
  -7   1   5   70.39   45.70
   7   1  -5  144.39   61.39
   7   1  -5  110.49   49.80
   7   1  -5   55.89   34.80
   6  -1  -5  724.83   80.49
  -6  -1   5  795.52   68.39
   6  -1  -5  688.33   63.49
  -6  -1   5  870.51   67.29
   6  -1  -5  843.02   82.89
   6   1  -5  911.81   79.69
  -6   1   5  748.93   68.79
   6   1  -5  842.22   80.99
   6   1  -5  799.32   64.29
   5  -1  -5  246.48   39.30
  -5  -1   5  193.38   36.60
   5  -1  -5  210.58   48.40
  -5  -1   5  313.77   44.00
  -5  -1   5  213.38   38.10
   5  -1  -5  206.18   38.90
  -5  -1   5  221.28   42.40
   5  -1  -5  241.48   46.10
  -5  -1   5  230.98   46.40
   5  -1  -5  302.47   39.60
   5   1  -5  193.08   46.40
  -5   1   5  265.57   43.50
   5   1  -5  254.77   47.20
  -5   1   5  194.18   37.60
   5   1  -5  226.48   37.30
   5   1  -5  257.17   38.50
  -5   1   5  226.48   43.60
  -5   1   5  173.38   40.10
  -4  -1   5 1257.97   68.99
   4  -1  -5 1201.58   69.39
   4  -1  -5 1283.07   62.79
   4  -1  -5 1130.19   62.09
   4  -1  -5 1191.98   79.19
   4  -1  -5 1228.38   71.19
  -4  -1   5 1305.57   68.99
  -4  -1   5 1251.27   71.49
  -4  -1   5 1178.88   62.59
  -4  -1   5 1082.29   59.89
  -4  -1   5 1205.38   56.19
  -4   1   5 1171.48   59.99
   4   1  -5 1165.58   60.39
   4   1  -5 1035.70   71.49
  -4   1   5 1073.99   68.09
   4   1  -5 1042.00   78.69
   4   1  -5 1209.38   62.99
  -4   1   5 1253.37   70.09
   4   1  -5 1168.58   75.69
  -4   1   5 1247.38   65.79
   3  -1  -5    8.00   31.60
   3  -1  -5   39.20   32.00
   3  -1  -5   15.00   27.30
   3  -1  -5  -15.90   20.90
  -3  -1   5   13.00   17.30
  -3  -1   5   -1.10   24.50
  -3  -1   5   -5.90   25.70
  -3  -1   5   32.00   21.80
  -3  -1   5   -3.30   21.20
  -3   1   5   14.80   11.10
   3   1  -5   55.99   35.30
   3   1  -5   19.00   30.00
  -3   1   5   39.60   26.70
  -3   1   5   36.20   26.10
   3   1  -5   19.20   29.00
   3   1  -5  -10.70   19.30
  -3   1   5    9.00   23.10
   3   1  -5   30.40   22.50
  -3   1   5    7.20   21.70
   2  -1  -5  261.87   34.10
   2  -1  -5  216.88   26.00
  -2  -1   5  285.77   33.30
  -2  -1   5  206.38   28.50
  -2  -1   5  258.17   32.00
   2  -1  -5  272.87   30.00
   2  -1  -5  262.57   34.60
  -2  -1   5  281.47   25.50
  -2   1   5  250.67   13.70
  -2   1   5  241.18   28.00
   2   1  -5  288.27   30.50
   2   1  -5  228.58   35.30
  -2   1   5  258.77   29.20
   2   1  -5  224.68   33.70
   2   1  -5  257.97   32.30
  -2   1   5  239.98   32.70
   2   1  -5  238.68   25.80
  -1  -1   5 3010.20   94.29
   1  -1  -5 2757.62  110.89
  -1  -1   5 3085.09   94.69
   1  -1  -5 3020.90  106.99
  -1  -1   5 3047.40  105.49
  -1  -1   5 2963.90   91.79
   1  -1  -5 2875.31   96.79
   1  -1  -5 2969.60   88.09
   1  -1  -5 3005.70   93.79
   1   1  -5 2984.40   97.59
  -1   1   5 3086.79  100.59
   1   1  -5 2921.61  109.39
   1   1  -5 2935.11  100.19
   1   1  -5 2961.50  107.89
   1   1  -5 3041.90   92.69
   1   1  -5 3043.00   96.39
   0  -1  -5  582.54   25.50
   0  -1  -5  544.05   44.80
   0  -1   5  578.84   20.60
   0  -1  -5  651.13   30.00
   0  -1   5  592.04   34.50
   0  -1  -5  617.64   27.90
   0  -1  -5  576.04   42.40
   0   1  -5  615.14   24.70
   0   1  -5  575.64   34.80
   0   1  -5  620.34   32.70
   0   1  -5  619.24   47.50
  -1  -1  -5 1872.91   52.09
  -1  -1  -5 1724.23   67.19
  -1  -1  -5 1755.92   99.99
  -1   1  -5 1754.92   78.39
  -1   1  -5 1818.62   51.29
  -1   1  -5 1734.63   70.59
  -1   1  -5 1862.41   51.39
  -1   1  -5 1765.62   63.59
  -1   1  -5 1837.82   63.19
  -2  -1  -5   60.49    9.00
  -2  -1  -5   69.19   18.80
  -2  -1  -5   38.60   24.40
  -2  -1  -5   70.79    8.90
  -2   1  -5   64.69   17.60
  -2   1  -5   86.29   27.20
  -2   1  -5   67.39    8.50
  -2   1  -5   70.29   20.50
  -3  -1  -5 1706.53   58.69
  -3  -1  -5 1783.22   69.09
  -3  -1  -5 1628.94   80.19
  -3  -1  -5 1723.33   57.99
  -3   1  -5 1701.73   57.49
  -3   1  -5 1662.73   66.99
  -3   1  -5 1713.03   80.69
  -3   1  -5 1756.62   66.99
  -3   1  -5 1784.12   74.39
  -4  -1  -5  616.54   38.90
  -4  -1  -5  605.74   38.30
  -4  -1  -5  501.85   59.49
  -4  -1  -5  591.24   39.30
  -4  -1  -5  593.24   46.90
  -4   1  -5  456.35   51.99
  -4   1  -5  584.34   45.50
  -4   1  -5  617.74   47.50
  -4   1  -5  551.94   38.90
  -5  -1  -5  435.26   55.39
  -5  -1  -5  436.06   31.80
  -5  -1  -5  355.76   51.79
  -5  -1  -5  452.45   47.80
  -5  -1  -5  471.15   50.99
  -5   1  -5  436.56   41.90
  -5   1  -5  374.46   51.99
  -5   1  -5  323.87   36.80
  -5   1  -5  531.75   56.09
  -5   1  -5  410.96   49.10
  -6  -1  -5  814.22   60.69
  -6  -1  -5  922.41   67.29
  -6  -1  -5  815.92   92.29
  -6   1  -5  787.22   55.99
  -6   1  -5  730.23   79.49
  -6   1  -5  815.42   68.79
  -7  -1  -5   62.69   43.80
  -7  -1  -5  -30.00   53.99
  -7  -1  -5   33.80   41.90
  -7   1  -5   15.20   43.80
  -7   1  -5  -16.60   37.10
  -7   1  -5  -28.90   55.79
  -8  -1  -5  522.45   83.19
  -8  -1  -5  343.37   76.39
  -8  -1  -5  430.26   72.99
  -8   1  -5  285.57   80.29
  -8   1  -5  289.97   82.29
 -10  -2   5  797.92  100.29
  10  -2  -5 1347.77  152.28
 -10  -2   5  966.70  107.19
  10   2  -5  715.93  102.89
 -10   2   5  971.80  107.09
 -10   2   5  811.42  104.89
  -9  -2   5   98.49   63.29
   9  -2  -5  121.09   74.79
   9  -2  -5  110.89   52.19
  -9  -2   5  123.49   65.79
   9  -2  -5   82.89   79.79
   9   2  -5   92.09   68.39
  -9   2   5  189.28   63.39
   9   2  -5   98.09   72.89
  -9   2   5  -14.80   64.69
   8  -2  -5  262.27   53.49
  -8  -2   5  336.07   87.39
   8  -2  -5  199.08   79.19
  -8  -2   5  295.47   93.39
   8  -2  -5  313.27   78.79
   8   2  -5  212.18   60.69
   8   2  -5  272.77   80.79
   8   2  -5  271.07   40.50
  -8   2   5  313.97   47.20
  -8   2   5  324.77  100.49
   7  -2  -5    7.10   41.70
   7  -2  -5   70.39   55.99
  -7  -2   5  116.79   45.80
  -7  -2   5  109.29   47.80
   7  -2  -5  114.39   58.09
  -7   2   5   44.30   43.20
   7   2  -5  -51.49   50.39
   7   2  -5   50.39   46.40
  -7   2   5   88.59   34.00
   7   2  -5   89.39   34.20
  -6  -2   5   98.89   38.80
  -6  -2   5   80.69   40.10
  -6  -2   5   81.99   38.70
   6  -2  -5  106.29   46.40
   6  -2  -5   95.39   39.30
   6  -2  -5  111.89   49.30
   6   2  -5  100.99   44.50
  -6   2   5  127.89   40.50
   6   2  -5   83.99   48.60
   5  -2  -5   46.60   33.30
   5  -2  -5    7.70   41.40
   5  -2  -5   -5.20   35.90
  -5  -2   5   18.30   37.30
  -5  -2   5   64.29   39.30
   5  -2  -5  109.59   40.10
  -5  -2   5   99.89   33.60
  -5  -2   5    3.40   31.40
  -5  -2   5    7.20   31.20
   5   2  -5   32.00   40.80
   5   2  -5  -41.20   28.40
  -5   2   5   25.60   39.40
  -5   2   5   52.29   35.30
   5   2  -5   90.49   31.10
  -5   2   5   51.19   33.70
  -5   2   5   32.60   35.30
   5   2  -5   40.60   45.60
   5   2  -5   63.89   40.70
  -4  -2   5 1788.22   80.99
  -4  -2   5 1803.62   81.19
   4  -2  -5 1811.92   88.09
  -4  -2   5 1923.71   88.59
   4  -2  -5 1846.92   89.19
   4  -2  -5 1961.60   83.49
  -4  -2   5 1895.41   91.59
   4  -2  -5 1935.91   97.89
   4  -2  -5 1975.10   82.09
  -4  -2   5 1863.11   77.09
   4   2  -5 1939.11   94.09
  -4   2   5 1929.81   83.99
  -4   2   5 1883.21   85.89
   4   2  -5 1978.30  101.09
   4   2  -5 2001.60   82.59
   4   2  -5 1774.72   90.29
   4   2  -5 1825.62   78.49
  -4   2   5 1971.40   80.79
  -4   2   5 1913.11   85.69
   3  -2  -5  259.37   43.20
   3  -2  -5  293.57   33.60
  -3  -2   5  250.17   35.30
   3  -2  -5  249.97   35.40
   3  -2  -5  301.67   33.80
  -3  -2   5  296.27   35.80
   3  -2  -5  270.47   34.00
  -3  -2   5  276.47   29.60
  -3  -2   5  286.97   32.10
   3   2  -5  239.18   38.80
  -3   2   5  306.17   32.80
  -3   2   5  269.77   15.00
   3   2  -5  267.87   30.30
   3   2  -5  230.88   36.20
  -3   2   5  246.78   32.50
   3   2  -5  302.37   33.10
  -3   2   5  271.17   13.80
  -3   2   5  237.28   35.40
   3   2  -5  322.47   45.50
   2  -2  -5 1974.00   75.49
   2  -2  -5 1847.82   85.29
   2  -2  -5 1971.50   71.29
  -2  -2   5 1984.80   73.79
  -2  -2   5 2107.69   83.99
  -2  -2   5 1901.61   81.29
  -2  -2   5 1832.12   75.99
   2   2  -5 1897.11   81.49
   2   2  -5 1875.51   86.89
  -2   2   5 1942.91   68.69
  -2   2   5 2088.99   73.49
  -2   2   5 1949.10   81.89
  -2   2   5 1805.42   67.89
   2   2  -5 1967.70   75.29
   2   2  -5 1984.90   69.99
   2   2  -5 1810.92   83.69
   1  -2  -5   -3.60   15.50
   1  -2  -5   -2.20   12.60
   1  -2  -5    4.30   18.90
  -1  -2   5  -18.30   22.60
  -1  -2   5  -21.50   16.80
  -1  -2   5   -2.10   16.40
  -1  -2   5   -3.20   11.70
   1  -2  -5  -40.60   21.80
   1   2  -5   -8.90   11.80
  -1   2   5  -25.30   14.70
   1   2  -5    3.20   24.40
   1   2  -5    0.60   23.20
   1   2  -5   30.20   20.70
   1   2  -5    2.50   16.80
   0  -2  -5 1059.19   38.60
   0  -2   5 1099.59   48.80
   0  -2   5 1075.69   42.80
   0  -2  -5 1095.69   50.89
   0  -2   5 1152.58   43.10
   0  -2  -5 1089.19   40.50
   0  -2  -5 1078.79   36.60
   0   2  -5 1085.89   34.10
   0   2  -5 1105.39   49.30
   0   2  -5 1040.80   50.79
   0   2  -5 1027.40   61.09
   1  -2   5   29.00   10.10
   1  -2   5   34.60    9.80
   1  -2   5   48.20   20.10
  -1  -2  -5   18.60   22.50
  -1   2  -5   35.20   19.30
  -1   2  -5   37.50   19.50
  -1   2  -5   28.30   24.00
  -1   2  -5   -5.20   26.60
  -2  -2  -5  717.83   52.89
  -2   2  -5  641.44   51.99
  -2   2  -5  816.12   43.70
  -3  -2  -5   29.60   11.20
  -3  -2  -5   -0.40   25.30
  -3   2  -5    9.60   23.20
  -3   2  -5   31.40   30.50
  -3   2  -5  -13.80   26.70
  -4  -2  -5  312.87   38.50
  -4  -2  -5  331.37   30.20
  -4  -2  -5  302.87   31.60
  -4   2  -5  340.77   38.30
  -4   2  -5  348.47   48.40
  -4   2  -5  384.46   44.00
  -4   2  -5  393.66   46.70
  -5  -2  -5    8.30    8.90
  -5  -2  -5   23.90   31.10
  -5  -2  -5   25.50   29.00
  -5  -2  -5   28.20   10.70
  -5  -2  -5   16.70   37.00
  -5  -2  -5   42.10   25.80
  -5   2  -5    6.60   41.50
  -5   2  -5   33.70   33.40
  -5   2  -5  -12.10   31.90
  -6  -2  -5  225.68   43.10
  -6  -2  -5   55.79   62.79
  -6  -2  -5  308.87   64.69
  -6  -2  -5  312.17   38.20
  -6   2  -5  316.97   67.69
  -6   2  -5  266.27   47.90
  -6   2  -5  178.48   52.79
  -7  -2  -5   -6.30   41.30
  -7  -2  -5   32.50   58.19
  -7  -2  -5   13.80   45.80
  -7   2  -5  100.09   61.49
  -7   2  -5  -37.90   49.10
  -8  -2  -5  165.08   76.19
  -8  -2  -5  177.48   75.19
  -8  -2  -5  112.19   64.29
  -8   2  -5   69.79   79.79
   9  -3  -5   73.69   74.79
   9  -3  -5  123.19   74.39
   9  -3  -5  -17.80   61.59
  -9  -3   5   66.19   70.39
  -9  -3   5   21.20   66.29
   9   3  -5   52.09   67.29
  -9   3   5  191.58   58.29
   9   3  -5  306.47   79.59
  -9   3   5   41.80   65.09
   8  -3  -5   52.49   51.39
   8  -3  -5   73.89   84.49
  -8  -3   5  144.69   68.89
  -8   3   5   97.99   40.10
   8   3  -5   53.49   50.69
   8   3  -5  115.89   36.30
   8   3  -5   88.89   70.29
   7  -3  -5  108.29   59.29
  -7  -3   5  122.69   49.70
  -7  -3   5  172.58   53.69
   7  -3  -5   70.39   60.29
   7  -3  -5  115.09   46.30
   7   3  -5   14.90   56.29
  -7   3   5   58.99   30.50
  -7   3   5  165.48   53.69
   7   3  -5  155.68   50.89
   7   3  -5   93.39   35.50
   6  -3  -5  210.58   52.49
   6  -3  -5  221.58   49.30
   6  -3  -5  261.17   57.49
  -6  -3   5  225.38   44.60
  -6  -3   5  236.18   46.00
  -6  -3   5  194.18   45.40
  -6   3   5  226.08   45.60
  -6   3   5  225.78   30.30
   6   3  -5  176.48   47.60
   6   3  -5  252.97   54.69
   5  -3  -5    0.10   44.10
  -5  -3   5   -7.80   30.80
   5  -3  -5   -0.40   37.20
  -5  -3   5   38.30   32.70
  -5  -3   5  -49.70   39.90
   5  -3  -5  -55.89   36.70
   5   3  -5  -10.00   43.90
   5   3  -5    9.90   34.60
   5   3  -5  -14.70   40.40
  -5   3   5   55.69   31.80
  -5   3   5   22.20   35.20
   5   3  -5   -3.40   30.90
  -5   3   5   69.59   34.20
   5   3  -5   72.39   32.70
  -5   3   5   27.00   20.00
   4  -3  -5  659.33   69.99
  -4  -3   5  787.52   59.59
  -4  -3   5  610.74   50.19
  -4  -3   5  584.14   50.69
   4  -3  -5  588.14   60.09
   4  -3  -5  648.84   49.90
   4  -3  -5  605.74   61.79
  -4  -3   5  633.64   54.79
   4  -3  -5  632.34   54.09
  -4  -3   5  509.95   62.49
   4   3  -5  675.43   64.99
   4   3  -5  617.84   48.50
   4   3  -5  651.83   52.79
  -4   3   5  659.53   61.29
  -4   3   5  641.14   52.69
   4   3  -5  601.44   72.69
   4   3  -5  615.04   58.99
  -4   3   5  598.54   29.00
  -4   3   5  621.34   51.09
  -4   3   5  561.24   51.59
  -3  -3   5  413.86   39.70
   3  -3  -5  505.75   60.89
  -3  -3   5  484.05   48.10
   3  -3  -5  459.15   44.70
  -3  -3   5  473.05   51.79
   3  -3  -5  473.05   39.20
  -3  -3   5  479.25   40.50
   3  -3  -5  521.65   48.00
  -3  -3   5  427.96   44.90
   3  -3  -5  441.36   45.50
   3   3  -5  454.65   42.70
   3   3  -5  465.05   54.69
  -3   3   5  408.26   49.20
  -3   3   5  509.25   40.80
   3   3  -5  452.15   38.10
   3   3  -5  502.05   62.89
  -3   3   5  485.85   39.60
   3   3  -5  445.66   53.79
  -2  -3   5 1276.67   57.69
  -2  -3   5 1309.77   68.19
   2  -3  -5 1275.07   71.29
   2  -3  -5 1220.48   61.49
   2  -3  -5 1279.97   53.89
  -2  -3   5 1303.47   59.89
   2  -3  -5 1308.07   58.49
   2  -3  -5 1376.46   70.09
  -2  -3   5 1296.87   62.29
  -2  -3   5 1294.27   54.69
  -2   3   5 1161.58   64.19
   2   3  -5 1234.18   59.09
   2   3  -5 1363.16   73.69
  -2   3   5 1301.07   51.79
   2   3  -5 1245.38   67.99
  -2   3   5 1260.47   51.59
  -2   3   5 1097.39   60.39
   2   3  -5 1110.29   66.69
   1  -3  -5  996.90   58.99
  -1  -3   5  912.81   39.90
  -1  -3   5 1018.40   51.99
  -1  -3   5 1130.89   60.49
  -1  -3   5 1054.89   51.39
   1  -3  -5 1076.99   47.80
   1  -3  -5  967.80   46.70
   1  -3  -5 1012.60   60.29
   1   3  -5 1038.70   56.99
   1   3  -5 1018.90   40.70
   1   3  -5 1041.00   63.19
   1   3  -5 1038.20   51.49
   1   3  -5  970.20   53.69
   0  -3  -5  534.65   28.20
   0  -3  -5  553.14   25.70
   0  -3   5  575.04   36.30
   0  -3   5  580.24   39.90
   0  -3  -5  547.35   35.20
   0  -3  -5  487.95   46.20
   0   3  -5  569.34   53.09
   0   3  -5  608.54   39.20
   0   3  -5  570.14   44.30
  -1  -3  -5 1837.32   74.79
   1  -3   5 1904.81   67.79
   1  -3   5 1950.10   77.19
   1  -3   5 1927.41   67.19
  -1  -3  -5 1911.81   79.59
  -1   3  -5 1934.41   75.99
  -1   3  -5 1960.50   79.99
  -1   3  -5 1893.81   86.79
  -2  -3  -5  281.87   34.50
   2  -3   5  323.27   25.30
   2  -3   5  278.97   34.40
  -2   3  -5  288.27   33.50
  -2   3  -5  227.98   41.20
  -2   3  -5  304.67   34.20
  -2   3  -5  326.47   38.10
  -2   3  -5  313.47   36.60
  -3  -3  -5  829.42   48.40
  -3  -3  -5  937.51   59.59
  -3  -3  -5  863.01   33.10
  -3  -3  -5  900.41   33.00
   3  -3   5  734.43   38.10
  -3   3  -5  826.52   63.39
  -3   3  -5  858.61   58.49
  -3   3  -5  823.42   58.39
  -3   3  -5  848.22   55.19
  -4  -3  -5  303.27   42.30
  -4  -3  -5  278.67   27.10
  -4  -3  -5  338.87   28.90
  -4   3  -5  340.07   41.00
  -4   3  -5  319.77   48.00
  -4   3  -5  368.46   43.50
  -4   3  -5  418.86   50.19
  -5  -3  -5  916.81   64.39
  -5  -3  -5  877.91   70.29
  -5  -3  -5  888.21   55.99
  -5   3  -5  790.02   69.59
  -5   3  -5  785.72   69.49
  -5   3  -5  816.82   83.29
  -6  -3  -5  246.38   47.90
  -6  -3  -5  342.37   40.00
  -6   3  -5  418.96   55.89
  -6   3  -5  348.27   69.39
  -7  -3  -5   22.70   52.89
  -7  -3  -5   25.20   42.30
  -7  -3  -5   21.60   58.69
  -7   3  -5  -63.19   58.79
  -7   3  -5   10.30   56.89
  -8  -3  -5  256.37   80.49
  -8  -3  -5  244.98   69.09
  -8   3  -5  180.88   75.59
  -8   3  -5  286.27   94.69
  -9  -4   5  802.22   92.39
   9  -4  -5  679.33   95.39
  -9  -4   5  718.13   87.19
   9  -4  -5  638.24   96.49
  -9   4   5  685.63   74.09
   9   4  -5  807.82   93.79
   9   4  -5  531.75   86.89
  -9   4   5  712.73   88.99
  -8  -4   5  114.59   59.89
   8  -4  -5   73.99   66.19
   8  -4  -5    6.00   68.69
  -8  -4   5   -0.20   55.89
   8  -4  -5   54.79   59.99
  -8   4   5   84.49   40.30
   8   4  -5   97.09   34.50
   8   4  -5  -31.50   43.40
  -8   4   5   47.30   61.09
  -7  -4   5 1350.36   99.89
   7  -4  -5 1344.37  113.99
   7  -4  -5 1452.05   96.09
   7  -4  -5 1348.57  117.89
  -7  -4   5 1299.17   99.79
   7   4  -5 1403.26  116.99
   7   4  -5 1325.97   92.19
  -7   4   5 1375.36   72.19
  -7   4   5 1368.36   98.09
   6  -4  -5   39.90   44.20
  -6  -4   5   76.49   39.40
   6  -4  -5   81.09   45.30
   6  -4  -5  -32.10   49.20
  -6   4   5   36.00   24.00
  -6   4   5   56.09   48.90
  -6   4   5   69.89   39.00
   6   4  -5   20.50   38.10
   6   4  -5   59.69   48.60
   5  -4  -5 3028.00  128.69
  -5  -4   5 3101.19  122.49
   5  -4  -5 3094.59  129.69
  -5  -4   5 2892.71  118.79
  -5  -4   5 2859.91  122.09
   5  -4  -5 2991.70  136.39
   5   4  -5 3050.69  132.09
  -5   4   5 2801.42  114.99
  -5   4   5 3060.09  122.89
   5   4  -5 3031.40  123.29
  -5   4   5 2922.01  119.29
   5   4  -5 3000.00  140.79
  -4  -4   5   43.00   30.00
   4  -4  -5   74.69   28.10
   4  -4  -5  -37.80   29.00
   4  -4  -5  -19.80   33.80
  -4  -4   5   17.80   33.50
  -4  -4   5   -2.40   30.00
  -4  -4   5   37.60   33.40
   4  -4  -5   14.10   37.50
   4  -4  -5    2.90   39.50
  -4  -4   5  -27.70   36.90
  -4   4   5  -11.00   24.90
   4   4  -5  -11.80   30.50
  -4   4   5  -13.00   33.50
   4   4  -5  -20.70   44.10
   4   4  -5   87.49   31.00
   4   4  -5   44.40   40.90
  -4   4   5  -20.40   27.50
   4   4  -5   17.90   28.20
  -4   4   5   24.10   12.00
  -4   4   5   20.20   29.70
   3  -4  -5  872.61   58.79
  -3  -4   5  775.62   55.99
  -3  -4   5  808.42   59.09
  -3  -4   5  878.21   53.99
   3  -4  -5  827.52   57.69
   3  -4  -5  856.11   52.89
   3  -4  -5  708.03   67.49
  -3  -4   5  824.62   50.59
   3  -4  -5  638.34   63.49
  -3  -4   5  772.82   63.69
   3   4  -5  772.92   58.49
  -3   4   5  819.12   60.49
  -3   4   5  812.02   49.30
   3   4  -5  826.52   72.19
  -3   4   5  844.52   71.09
  -3   4   5  865.21   46.10
   3   4  -5  811.72   50.79
   3   4  -5  844.92   66.69
   3   4  -5  761.42   53.29
  -2  -4   5  116.49   25.60
   2  -4  -5   61.99   33.00
  -2  -4   5   59.99   31.00
   2  -4  -5   76.99   22.70
  -2  -4   5  109.79   33.20
  -2  -4   5  136.79   27.50
   2  -4  -5  103.69   36.00
  -2  -4   5  112.39   28.80
   2   4  -5  101.49   32.10
   2   4  -5  102.39   34.60
  -2   4   5   83.89   19.90
   2   4  -5  115.49   35.40
   2   4  -5   72.79   26.70
  -2   4   5  113.89   29.50
   2   4  -5  100.29   22.80
  -2   4   5   90.19   16.90
  -1  -4   5  172.28   29.80
  -1  -4   5  265.47   35.70
  -1  -4   5  211.48   25.00
   1  -4  -5  199.18   11.30
  -1  -4   5  184.98   28.40
   1  -4  -5  232.78   37.20
   1  -4  -5  201.28   36.00
  -1  -4   5  196.48   30.20
   1  -4  -5  177.58   25.20
   1  -4  -5  201.78   20.40
   1  -4  -5  197.78   22.50
   1   4  -5  181.58   38.80
   1   4  -5  190.58   34.70
  -1   4   5  226.88   31.20
   1   4  -5  213.58   32.60
   1   4  -5  203.18   30.90
   0  -4  -5   24.90   14.50
   0  -4  -5   13.90   13.50
   0  -4  -5   -8.30   14.00
   0  -4   5    9.50   22.90
   0  -4   5    9.00    8.90
   0  -4  -5   19.80   26.40
   0  -4   5    9.00   22.40
   0  -4   5    2.80   23.80
   0  -4  -5  -12.50   42.60
   0   4  -5    6.60   23.60
   0   4  -5    6.50   26.90
   0   4  -5    9.70   30.60
   0   4  -5   16.60   27.50
   0   4  -5   50.39   23.80
   1  -4   5  996.00   62.29
  -1  -4  -5  877.51   54.59
  -1  -4  -5  880.51   33.20
  -1  -4  -5  896.61   33.40
  -1  -4  -5  882.61   44.20
   1  -4   5  878.51   49.99
  -1  -4  -5  846.22   50.79
   1  -4   5  811.82   52.69
  -1   4  -5  895.61   57.59
  -1   4  -5 1018.00   57.99
  -1   4  -5  880.81   55.59
  -1   4  -5  897.91   54.99
  -1   4  -5  912.81   65.99
   2  -4   5   11.00   18.90
   2  -4   5  -31.80   26.40
  -2  -4  -5   -7.50   22.90
   2  -4   5   -7.30   20.80
  -2  -4  -5   14.50    9.40
  -2  -4  -5   18.00    7.90
  -2  -4  -5   10.10   25.30
  -2   4  -5   42.40   31.00
  -2   4  -5  -10.10   31.50
  -2   4  -5   -2.40   29.40
  -2   4  -5   17.40   26.90
  -2   4  -5   16.40   28.30
   3  -4   5   22.30   22.40
  -3  -4  -5   30.20   12.90
  -3  -4  -5   38.90   14.60
   3  -4   5   59.29   19.40
  -3  -4  -5   46.70   22.80
  -3  -4  -5   -7.00   27.50
  -3   4  -5  -15.40   34.60
  -3   4  -5   74.29   33.60
  -3   4  -5   87.89   31.90
  -3   4  -5   53.99   34.00
  -4  -4  -5   80.49   19.20
   4  -4   5   96.79   23.00
  -4  -4  -5  135.19   38.70
  -4  -4  -5  104.29   23.00
  -4  -4  -5  100.89   21.90
  -4   4  -5   86.19   38.20
  -4   4  -5   33.60   37.20
  -4   4  -5   93.79   40.60
  -5  -4  -5   74.39   42.80
  -5  -4  -5  107.89   34.40
  -5  -4  -5    9.80   30.40
  -5   4  -5   49.60   47.30
  -5   4  -5   49.20   48.70
  -5   4  -5   29.80   38.80
  -6  -4  -5   68.89   33.60
  -6  -4  -5    4.40   48.00
  -6   4  -5  -45.40   44.40
  -7  -4  -5  360.86   53.49
  -7  -4  -5  263.37   70.49
  -7   4  -5  349.27   81.49
  -7   4  -5  352.06   81.69
  -8  -4  -5  109.49   74.59
  -8  -4  -5  -19.70   68.29
  -8   4  -5  -66.59   71.09
  -8   4  -5  -24.90   82.09
  -9  -5   5  -12.30   68.79
  -9  -5   5  -77.99   66.59
   9  -5  -5    0.10   86.09
   9  -5  -5  -10.10   80.19
   9   5  -5   28.00   64.99
  -9   5   5    8.50   73.29
   9   5  -5   61.89   75.79
  -9   5   5   -6.80   63.99
  -8  -5   5  338.27   70.29
   8  -5  -5  220.08   77.79
   8  -5  -5  233.88   79.39
   8  -5  -5  311.07   82.89
  -8  -5   5  336.77   69.39
  -8   5   5  427.56   74.89
   8   5  -5  301.27   77.69
   8   5  -5  237.08   37.40
   8   5  -5  231.48   55.49
  -8   5   5  389.56   49.80
  -7  -5   5   53.49   49.80
   7  -5  -5  -63.29   66.29
   7  -5  -5    6.90   54.99
   7  -5  -5  -13.00   64.29
   7   5  -5  -24.30   40.60
   7   5  -5   93.09   71.19
  -7   5   5   34.60   55.79
  -7   5   5   18.50   30.60
   6  -5  -5  617.04   76.49
  -6  -5   5  499.25   61.29
   6  -5  -5  711.83   80.29
   6  -5  -5  611.24   72.09
  -6   5   5  465.55   59.79
   6   5  -5  631.14   68.39
   6   5  -5  587.44   56.89
   6   5  -5  626.94   73.49
  -6   5   5  594.54   64.09
  -6   5   5  632.24   47.00
  -5  -5   5  146.89   40.40
   5  -5  -5  166.88   48.50
   5  -5  -5  182.48   51.79
  -5  -5   5  139.49   42.00
   5  -5  -5  116.19   49.30
   5   5  -5  121.59   55.09
  -5   5   5  146.49   39.40
   5   5  -5  105.89   50.19
   5   5  -5  142.39   42.00
  -5   5   5  120.69   43.80
  -5   5   5   80.99   36.00
  -5   5   5  103.19   24.60
  -4  -5   5  842.02   65.19
   4  -5  -5  871.81   80.49
   4  -5  -5  999.20   76.69
   4  -5  -5  937.01   78.29
  -4  -5   5 1136.49   89.79
  -4  -5   5  965.20   69.89
  -4  -5   5  986.30   68.39
   4   5  -5 1032.50   65.09
  -4   5   5  968.30   39.90
   4   5  -5  956.70   67.19
  -4   5   5 1021.10   68.49
  -4   5   5  959.20   72.69
  -4   5   5  931.21   61.89
   4   5  -5  950.20   86.99
   4   5  -5  953.10   63.09
  -4   5   5 1057.89   57.49
   4   5  -5  867.91   76.79
   3  -5  -5   37.20   37.70
  -3  -5   5    5.00   30.10
   3  -5  -5   37.20   34.10
  -3  -5   5    3.20   24.40
  -3  -5   5    5.20   34.20
  -3  -5   5   -9.10   31.70
   3  -5  -5   -2.10   33.40
  -3  -5   5   36.80   36.10
   3  -5  -5   14.30   25.50
   3   5  -5  -21.60   27.60
   3   5  -5    0.60   24.40
   3   5  -5   26.30   30.00
   3   5  -5   44.80   38.80
  -3   5   5   38.30   24.60
  -3   5   5    4.60   18.60
   3   5  -5   58.69   43.50
  -3   5   5   33.20   31.40
  -3   5   5  -16.10   25.30
   2  -5  -5 1929.61   84.39
  -2  -5   5 1934.51   77.19
  -2  -5   5 2052.69   88.59
  -2  -5   5 2026.10   93.69
  -2  -5   5 1831.42   84.89
   2  -5  -5 2037.60   79.09
   2  -5  -5 2009.10   94.69
  -2  -5   5 1963.00   87.49
   2  -5  -5 1986.70   93.99
   2   5  -5 1996.00   86.09
   2   5  -5 1918.71   84.69
  -2   5   5 1965.80   70.19
   2   5  -5 1934.51   94.19
  -2   5   5 1898.51   70.99
   2   5  -5 1915.21   98.39
  -2   5   5 2050.89   85.89
  -2   5   5 1949.30   62.29
  -1  -5   5  973.90   60.39
  -1  -5   5 1089.99   69.39
   1  -5  -5  893.41   75.59
   1  -5  -5  924.41   65.99
  -1  -5   5  829.02   57.79
   1  -5  -5 1081.39   50.19
  -1  -5   5  999.20   58.89
   1  -5  -5 1024.50   36.20
   1  -5  -5  921.91   64.89
   1   5  -5 1052.89   59.69
   1   5  -5 1086.89   65.69
   1   5  -5  971.20   65.59
   1   5  -5  884.71   70.09
   1   5  -5 1075.59   63.19
  -1   5   5  992.50   58.49
   0  -5  -5  134.99   21.00
   0  -5  -5  147.69   35.30
   0  -5   5  135.29   30.30
   0  -5  -5  106.39   13.70
   0  -5  -5  118.89   21.40
   0  -5  -5  135.09   19.90
   0  -5   5  149.29   31.30
   0  -5   5  128.79   15.70
   0  -5   5  146.99   31.70
   0   5  -5  163.78   35.90
   0   5  -5  130.99   34.40
   0   5  -5  104.09   38.10
   0   5  -5  125.99   34.60
   0   5  -5  107.69   31.00
   1  -5   5 1178.88   59.59
   1  -5   5 1174.88   37.30
  -1  -5  -5 1154.68   65.79
  -1  -5  -5 1063.29   44.20
   1  -5   5 1094.69   59.69
  -1  -5  -5 1143.39   66.99
   1  -5   5 1083.79   63.99
  -1  -5  -5 1092.79   45.10
  -1  -5  -5 1024.90   57.19
  -1   5  -5 1087.19   65.89
  -1   5  -5 1073.59   68.99
  -1   5  -5 1116.09   62.99
  -1   5  -5 1159.58   68.19
  -1   5  -5 1104.99   74.89
   2  -5   5   87.19   26.20
  -2  -5  -5  126.69   18.80
  -2  -5  -5  101.89   21.80
   2  -5   5  162.78   32.70
  -2  -5  -5   95.19   29.50
   2  -5   5   64.49   27.70
  -2  -5  -5  101.39   15.90
  -2   5  -5  121.39   34.20
  -2   5  -5   76.09   36.70
  -2   5  -5  115.49   35.60
  -2   5  -5  123.59   40.60
  -2   5  -5  101.19   32.90
  -3  -5  -5  133.69   19.10
   3  -5   5   78.89   27.80
  -3  -5  -5  108.29   21.30
  -3  -5  -5  117.79   39.00
  -3  -5  -5  110.29   21.10
  -3  -5  -5  111.39   30.80
   3  -5   5  115.59   28.30
  -3   5  -5  105.89   42.60
  -3   5  -5  148.49   45.80
  -3   5  -5   91.39   36.80
  -3   5  -5  136.69   41.40
  -4  -5  -5  443.06   36.80
  -4  -5  -5  481.75   38.10
  -4  -5  -5  449.95   51.99
  -4  -5  -5  556.74   45.70
  -4  -5  -5  461.35   34.40
   4  -5   5  458.65   46.10
  -4  -5  -5  400.96   51.29
  -4   5  -5  458.85   56.39
  -4   5  -5  420.86   57.29
  -5  -5  -5  319.27   43.50
  -5  -5  -5  300.97   53.79
  -5  -5  -5  320.87   41.30
   5  -5   5  292.97   34.50
  -5   5  -5  293.17   55.39
  -5   5  -5  334.47   69.09
   6  -5   5  421.86   39.40
  -6  -5  -5  591.44   71.49
  -6   5  -5  546.65   76.69
  -6   5  -5  475.25   77.09
  -7  -5  -5  -27.10   60.89
  -7  -5  -5  -13.00   61.49
  -7   5  -5  -33.30   69.09
  -7   5  -5   82.99   68.19
   9  -6  -5    5.50   82.09
  -9  -6   5  177.28   83.49
  -9  -6   5  -43.70   75.39
   9  -6  -5   27.90   81.89
   9   6  -5   24.40   79.09
  -9   6   5   85.59  100.19
  -9   6   5   83.99   79.69
  -8  -6   5  331.57   73.49
  -8  -6   5  246.38   71.89
   8  -6  -5  331.07   82.19
  -8   6   5  231.48   72.99
  -8   6   5  304.87   46.70
   8   6  -5  262.37   54.09
   8   6  -5  239.48   72.09
   7  -6  -5  115.59   70.19
   7  -6  -5   45.20   85.49
  -7   6   5   35.70   62.09
   7   6  -5   43.10   41.80
   7   6  -5  119.89   75.09
  -7   6   5    5.30   32.20
   6  -6  -5   72.39   57.79
  -6  -6   5   98.69   49.50
   6  -6  -5   19.70   55.19
  -6  -6   5   16.50   50.59
   6  -6  -5   78.69   57.69
   6   6  -5   69.89   38.00
   6   6  -5   64.89   58.49
   6   6  -5   40.50   38.20
  -6   6   5   95.29   46.70
  -6   6   5   62.29   50.89
  -6   6   5   65.59   26.90
   5  -6  -5  379.86   60.79
  -5  -6   5  366.96   51.79
   5  -6  -5  354.66   60.19
  -5  -6   5  321.87   53.09
   5  -6  -5  337.87   56.99
  -5   6   5  398.46   58.79
   5   6  -5  344.77   65.39
   5   6  -5  284.87   44.20
  -5   6   5  356.46   43.00
   5   6  -5  332.77   43.10
  -5   6   5  412.86   49.40
   5   6  -5  300.47   59.89
  -5   6   5  363.46   38.30
   4  -6  -5  514.25   63.79
   4  -6  -5  524.25   60.79
   4  -6  -5  638.14   67.59
  -4  -6   5  465.25   53.69
  -4  -6   5  636.54   62.19
  -4   6   5  513.95   52.49
   4   6  -5  530.25   69.29
  -4   6   5  545.85   52.09
   4   6  -5  538.75   57.49
   4   6  -5  520.55   57.79
   4   6  -5  501.55   62.09
  -4   6   5  560.34   45.00
   4   6  -5  459.85   50.69
  -4   6   5  541.25   33.30
   3  -6  -5  180.68   34.30
  -3  -6   5   71.39   38.10
  -3  -6   5  129.39   33.20
  -3  -6   5  177.98   47.80
   3  -6  -5  129.99   36.60
   3  -6  -5  211.08   45.20
  -3  -6   5  198.68   45.50
  -3  -6   5  204.18   41.60
   3  -6  -5  203.98   46.40
  -3   6   5  107.19   29.60
   3   6  -5  175.18   36.10
   3   6  -5  243.28   37.90
   3   6  -5  215.38   51.99
  -3   6   5  212.58   25.40
  -3   6   5  203.98   34.40
   3   6  -5  146.49   43.40
  -3   6   5  251.87   43.90
   2  -6  -5 1709.53   77.29
   2  -6  -5 1828.22   94.39
  -2  -6   5 1739.33   90.89
  -2  -6   5 1656.03   74.49
   2  -6  -5 1800.82   56.49
   2  -6  -5 1755.82   87.09
   2  -6  -5 1803.62   80.79
  -2  -6   5 1630.24   85.09
  -2  -6   5 1738.43   87.29
  -2  -6   5 1810.62   87.89
  -2   6   5 1773.12   68.39
   2   6  -5 1906.61   98.59
   2   6  -5 1704.83   93.79
   2   6  -5 1759.02   84.59
  -2   6   5 1858.01   85.19
   2   6  -5 1671.13   82.79
  -1  -6   5  -25.60   33.40
  -1  -6   5   22.50   28.40
   1  -6  -5  -15.30   13.60
   1  -6  -5   31.80   26.90
  -1  -6   5  -40.40   29.90
   1  -6  -5   15.80   32.10
   1  -6  -5  -28.10   22.50
  -1  -6   5  -82.29   29.50
   1  -6  -5   27.10   29.00
  -1   6   5   46.70   27.30
   1   6  -5   -3.60   30.10
   1   6  -5  -15.60   34.70
   1   6  -5   37.60   38.50
   1   6  -5  -34.80   33.30
   1   6  -5    4.30   24.70
   0  -6  -5 1180.18   52.79
   0  -6   5 1132.09   68.79
   0  -6   5 1134.49   46.80
   0  -6   5 1094.89   66.09
   0  -6  -5 1089.59   70.69
   0  -6   5 1068.99   65.09
   0  -6  -5 1293.07   55.09
   0   6  -5 1169.28   73.09
   0   6  -5  978.40   65.89
   0   6  -5 1123.69   76.59
   0   6  -5 1111.59   70.19
   0   6  -5 1176.88   73.69
  -1  -6  -5  130.59   23.20
  -1  -6  -5  138.59   14.10
   1  -6   5   78.19   32.90
  -1  -6  -5  138.79   29.70
  -1  -6  -5  102.29   20.60
  -1  -6  -5   73.79   32.60
   1  -6   5   89.39   13.80
   1  -6   5  188.48   34.80
  -1  -6  -5  101.69   11.80
   1  -6   5  108.29   39.80
  -1   6  -5  164.58   44.50
  -1   6  -5   95.39   37.50
  -1   6  -5  182.18   42.60
  -1   6  -5   84.29   38.70
  -1   6  -5   93.89   42.30
   2  -6   5  559.04   20.70
   2  -6   5  471.55   49.99
   2  -6   5  528.25   52.99
   2  -6   5  527.45   21.20
  -2  -6  -5  566.24   43.00
  -2  -6  -5  524.55   35.30
  -2  -6  -5  572.54   36.30
  -2  -6  -5  559.24   53.59
  -2  -6  -5  588.14   40.00
  -2   6  -5  558.84   61.39
  -2   6  -5  558.24   64.09
  -2   6  -5  493.85   58.49
  -3  -6  -5   68.89   39.50
  -3  -6  -5   53.49   22.00
  -3  -6  -5   48.40   24.90
  -3  -6  -5   89.29   14.50
  -3  -6  -5   51.99   32.70
   3  -6   5   42.40   30.30
  -3  -6  -5   69.99   28.20
   3  -6   5  101.49   33.30
  -3   6  -5   61.39   45.00
  -3   6  -5   90.29   42.70
  -3   6  -5   70.69   39.70
   4  -6   5  129.09   36.60
  -4  -6  -5  172.18   44.40
  -4  -6  -5  136.99   47.20
   4  -6   5   46.60   35.60
  -4  -6  -5  118.09   33.80
  -4   6  -5  104.49   54.49
  -4   6  -5  200.98   48.90
  -4   6  -5   87.99   50.69
   5  -6   5  153.18   38.60
  -5  -6  -5  166.28   36.30
  -5  -6  -5   89.69   55.09
  -5   6  -5  185.68   67.09
  -5   6  -5  259.87   59.29
   6  -6   5  106.39   36.30
  -6  -6  -5   67.69   74.19
  -6   6  -5   95.09   66.19
  -6   6  -5   90.49   64.19
  -7  -6  -5 -131.19   63.99
  -7   6  -5  125.09   75.69
  -7   6  -5   31.90   73.79
   8  -7  -5  110.09   73.59
  -8  -7   5  -33.80   65.69
   8  -7  -5  122.69   80.29
   8   7  -5  -65.79   77.79
  -8   7   5  -80.19   41.30
  -8   7   5  -83.09   63.79
  -7  -7   5  255.87   69.79
   7  -7  -5  351.76   82.59
  -7  -7   5  338.77   67.09
   7  -7  -5  295.77   75.09
  -7   7   5  332.27   65.39
   7   7  -5  162.08   91.59
   7   7  -5  211.28   46.00
  -7   7   5  274.97   40.60
  -6  -7   5  -71.09   53.99
   6  -7  -5  105.09   70.89
   6  -7  -5  176.68   69.39
  -6  -7   5   61.69   58.59
   6  -7  -5  169.28   69.69
  -6   7   5   79.49   56.89
   6   7  -5  130.09   71.29
   6   7  -5   51.29   38.00
  -6   7   5   56.09   28.50
   5  -7  -5  234.68   61.29
  -5  -7   5  224.58   55.09
   5  -7  -5  180.38   57.39
   5  -7  -5  239.38   63.49
  -5  -7   5  233.38   49.50
  -5   7   5  317.97   49.40
   5   7  -5  195.78   66.79
   5   7  -5  172.88   40.50
  -5   7   5  184.18   41.70
   5   7  -5  182.08   60.19
   5   7  -5  191.88   51.29
  -5   7   5  128.69   38.10
   4  -7  -5  236.68   55.29
  -4  -7   5  244.48   48.70
  -4  -7   5  209.08   43.60
   4  -7  -5  193.08   52.29
   4  -7  -5  205.18   49.10
   4   7  -5  166.28   57.89
  -4   7   5  208.88   41.20
   4   7  -5  303.67   55.69
  -4   7   5  242.48   46.50
   4   7  -5  256.97   40.10
  -3  -7   5  103.29   41.30
   3  -7  -5   90.29   45.40
   3  -7  -5  152.48   44.50
   3  -7  -5  142.29   48.20
  -3  -7   5  103.99   34.30
   3   7  -5  105.69   49.30
   3   7  -5  197.98   38.90
  -3   7   5   13.20   38.70
  -3   7   5  155.28   33.50
  -3   7   5  171.48   15.90
  -3   7   5  102.49   34.40
   3   7  -5  155.18   49.00
   2  -7  -5  371.26   28.00
   2  -7  -5  350.96   45.30
   2  -7  -5  251.07   50.59
   2  -7  -5  310.07   44.60
  -2  -7   5  341.27   37.90
   2  -7  -5  343.57   44.10
  -2  -7   5  284.57   45.60
  -2   7   5  327.77   38.90
  -2   7   5  354.06   42.90
  -2   7   5  252.57   30.00
   2   7  -5  316.47   52.49
   2   7  -5  247.48   52.19
   1  -7  -5 1628.44   94.19
  -1  -7   5 1884.01   97.19
   1  -7  -5 1834.62   83.09
   1  -7  -5 1754.42   76.79
  -1  -7   5 1709.13   90.49
  -1  -7   5 1783.42   73.49
   1  -7  -5 1804.32   80.59
  -1  -7   5 1664.73   87.09
   1   7  -5 1729.33   98.29
   1   7  -5 1835.32   96.99
  -1   7   5 1810.22   80.59
   1   7  -5 1701.73   94.49
   0  -7  -5  191.58   30.00
   0  -7  -5  156.68   27.60
   0  -7  -5  195.38   31.60
   0  -7   5  233.48   41.40
   0  -7  -5  242.98   43.70
   0  -7  -5  211.98   36.60
   0  -7   5  196.58   41.10
   0  -7   5  152.28   24.60
   0   7  -5  181.88   45.00
   0   7  -5  196.78   46.30
   0   7  -5  166.38   42.20
  -1  -7  -5 2209.88   86.19
  -1  -7  -5 2387.16   80.99
  -1  -7  -5 2228.38  102.69
  -1  -7  -5 2243.38   84.89
   1  -7   5 2231.48   75.59
   1  -7   5 2160.58   99.69
  -1  -7  -5 2235.18   92.89
   1  -7   5 2284.87   99.89
  -1   7  -5 2117.69  112.49
  -1   7  -5 2232.78  106.59
  -1   7  -5 2249.97  107.69
  -2  -7  -5   45.60   33.80
  -2  -7  -5   47.20   32.30
  -2  -7  -5   53.09   19.70
   2  -7   5   27.70   14.30
  -2  -7  -5   14.70   10.70
   2  -7   5   25.90   13.80
   2  -7   5   85.69   38.00
   2  -7   5   -9.00   34.10
  -2  -7  -5   51.69   25.70
  -2  -7  -5   35.80   15.10
  -2   7  -5   12.80   40.70
  -2   7  -5  -10.90   39.80
  -2   7  -5   57.39   44.50
  -3  -7  -5 1524.35   70.89
  -3  -7  -5 1585.84   93.79
   3  -7   5 1472.05   88.89
  -3  -7  -5 1573.74   74.39
   3  -7   5 1599.74   51.59
   3  -7   5 1645.54   85.19
  -3  -7  -5 1566.34   75.19
   3  -7   5 1600.04   51.49
  -3   7  -5 1475.25   94.39
  -3   7  -5 1582.74  100.69
  -3   7  -5 1663.83  104.29
  -4  -7  -5  554.74   58.49
   4  -7   5  561.54   25.00
   4  -7   5  503.95   58.89
   4  -7   5  544.25   67.49
  -4  -7  -5  411.56   49.10
  -4  -7  -5  549.85   55.59
  -4  -7  -5  447.86   64.69
  -4   7  -5  486.75   71.09
  -4   7  -5  451.35   72.39
  -4   7  -5  476.45   76.39
  -5  -7  -5  266.77   40.70
   5  -7   5  237.28   46.30
  -5  -7  -5  347.47   73.19
  -5   7  -5  239.08   71.09
  -5   7  -5  324.27   68.49
   6  -7   5  126.09   46.90
  -6  -7  -5  101.69   66.89
  -6  -7  -5  232.28   51.29
  -6   7  -5  144.09   79.79
  -6   7  -5  192.78   73.89
  -6   7  -5  157.28   70.69
  -7  -7  -5    2.30   73.69
  -7   7  -5   -7.20   82.79
  -7   7  -5   20.20   76.79
   8  -8  -5   54.69   81.29
  -8  -8   5  -35.10   73.19
   8  -8  -5  -53.19   78.89
  -8   8   5  114.49   74.79
   8   8  -5  181.38   81.29
   7  -8  -5 1169.68  114.69
   7  -8  -5 1230.18  121.69
  -7  -8   5 1108.49  114.09
  -7  -8   5  999.60  106.99
  -7   8   5 1033.30   75.89
  -7   8   5 1194.48  103.29
   7   8  -5 1395.46  126.49
   6  -8  -5   89.29   70.19
  -6  -8   5   73.19   67.39
  -6  -8   5   57.19   61.49
   6   8  -5   -8.30   36.80
  -6   8   5   74.19   31.90
   6   8  -5    1.70   76.69
  -6   8   5   33.50   61.59
   5  -8  -5  946.91  106.39
   5  -8  -5  906.41  109.19
   5  -8  -5 1058.89  116.99
  -5  -8   5 1022.30   97.19
  -5  -8   5  957.10   84.29
   5   8  -5 1018.30  111.69
   5   8  -5  906.41   72.29
  -5   8   5 1008.90   84.79
   5   8  -5  902.81  108.79
  -4  -8   5  -25.90   46.10
   4  -8  -5   13.50   56.59
   4  -8  -5   36.10   46.40
   4  -8  -5   14.30   45.70
  -4  -8   5   59.79   38.80
  -4   8   5   85.49   20.70
   4   8  -5   57.69   56.39
   4   8  -5   68.79   56.39
  -4   8   5   49.10   40.30
  -4   8   5   69.59   47.50
   4   8  -5  135.49   37.20
   3  -8  -5  959.70   75.89
  -3  -8   5  852.01   78.59
   3  -8  -5  888.21   83.99
   3  -8  -5  840.02   90.09
  -3  -8   5  868.61   69.29
   3   8  -5  834.72   68.19
   3   8  -5  835.92   88.99
   3   8  -5  778.82   85.79
  -3   8   5  956.90   63.19
  -3   8   5  726.53   67.19
  -2  -8   5  244.08   39.70
  -2  -8   5  111.39   42.60
   2  -8  -5  228.48   42.80
   2  -8  -5  194.38   42.00
   2  -8  -5  178.08   48.70
  -2   8   5  129.79   27.90
   2   8  -5  229.68   52.89
   2   8  -5  185.48   52.19
  -2   8   5  141.89   29.60
  -2   8   5  156.08   40.20
   1  -8  -5   21.40   41.60
   1  -8  -5   17.80   21.40
   1  -8  -5    8.70   31.20
   1  -8  -5   10.40   31.40
  -1  -8   5   67.99   41.10
  -1  -8   5    7.70   26.10
  -1   8   5   44.80   30.60
   1   8  -5   17.20   44.50
   1   8  -5   37.10   44.30
   1   8  -5   31.50   44.10
   0  -8  -5  312.07   35.90
   0  -8   5  374.76   41.90
   0  -8  -5  279.87   41.20
   0  -8   5  316.47   48.90
   0  -8  -5  387.96   52.69
   0  -8  -5  328.67   40.00
   0  -8  -5  385.66   37.60
   0   8  -5  305.17   52.89
   0   8  -5  419.76   57.09
   0   8  -5  361.86   55.49
  -1  -8  -5  330.67   40.40
  -1  -8  -5  316.57   44.40
  -1  -8  -5  289.07   36.50
   1  -8   5  364.96   51.39
  -1  -8  -5  317.87   50.49
  -1   8  -5  370.96   53.89
  -1   8  -5  278.87   55.89
  -1   8  -5  308.57   52.69
   2  -8   5   41.60   22.20
   2  -8   5  -36.70   35.50
  -2  -8  -5   59.19   47.20
  -2  -8  -5   20.70   33.10
  -2  -8  -5    7.60   28.00
  -2  -8  -5   57.39   35.10
  -2   8  -5  103.29   46.30
  -2   8  -5    9.20   46.90
  -2   8  -5   35.40   48.40
  -3  -8  -5   88.49   33.50
   3  -8   5   87.19   19.70
  -3  -8  -5  104.89   51.79
   3  -8   5  119.09   17.80
  -3  -8  -5  137.49   47.00
  -3  -8  -5   25.60   45.30
  -3  -8  -5   81.69   31.80
   3  -8   5  105.59   43.80
  -3   8  -5  139.79   57.69
  -3   8  -5  140.79   58.79
  -3   8  -5  121.49   56.09
  -4  -8  -5   71.19   30.60
  -4  -8  -5  -24.40   56.89
   4  -8   5   67.29   51.19
  -4  -8  -5   16.00   32.10
  -4   8  -5   71.69   62.29
  -4   8  -5  117.49   67.29
  -5  -8  -5   83.69   41.00
   5  -8   5   48.30   57.99
  -5  -8  -5  -26.30   57.89
  -5   8  -5   27.00   65.19
  -5   8  -5   50.19   64.29
  -5   8  -5   31.10   63.09
  -6  -8  -5  -39.10   63.69
   6  -8   5   55.29   66.89
  -6   8  -5  -15.30   73.49
  -6   8  -5   17.00   70.99
  -6   8  -5  -36.80   72.79
   7  -9  -5   61.69   76.19
  -7  -9   5  -47.80   61.99
  -7  -9   5 -109.69   67.59
   7  -9  -5 -173.98   66.59
   7   9  -5   31.30   73.89
  -7   9   5   49.10   65.49
   6  -9  -5  416.26   90.19
   6  -9  -5  533.75   86.69
  -6  -9   5  615.54   77.19
  -6  -9   5  505.05   80.39
  -6   9   5  605.24   64.19
   6   9  -5  683.43   90.89
  -6   9   5  607.44   76.39
   6   9  -5  345.37   62.39
   5  -9  -5   50.39   71.29
  -5  -9   5  115.69   57.29
  -5  -9   5  124.69   63.69
   5  -9  -5    0.40   77.19
   5   9  -5   82.79   37.50
  -5   9   5  119.19   32.60
   5   9  -5   12.60   73.89
   5   9  -5   90.99   77.29
  -5   9   5   64.99   57.89
  -4  -9   5 1028.30   87.19
   4  -9  -5  996.60   97.99
   4  -9  -5 1141.59  119.39
  -4  -9   5 1053.19   99.99
  -4   9   5 1227.68   82.09
   4   9  -5 1085.69  111.99
   4   9  -5 1263.27  117.39
   4   9  -5 1245.98   76.39
   3  -9  -5   95.19   61.59
   3  -9  -5    0.20   44.50
  -3  -9   5   54.49   38.10
  -3  -9   5   86.89   52.59
   3  -9  -5   50.89   44.60
  -3   9   5   66.39   36.40
  -3   9   5  113.49   42.50
   3   9  -5   33.20   54.29
   3   9  -5    2.30   57.39
   3   9  -5   37.70   36.20
  -2  -9   5  596.14   68.29
   2  -9  -5  570.64   74.09
  -2  -9   5  527.75   61.29
   2  -9  -5  520.45   47.60
   2  -9  -5  694.53   72.89
   2  -9  -5  482.45   58.69
   2   9  -5  777.52   89.29
  -2   9   5  706.63   78.39
   2   9  -5  589.44   72.19
  -2   9   5  625.84   49.00
  -2   9   5  483.75   49.50
   1  -9  -5  229.48   45.10
   1  -9  -5  177.08   54.59
   1  -9  -5  172.18   32.10
  -1  -9   5  177.38   36.80
  -1  -9   5  175.58   50.79
   1   9  -5  136.19   55.49
   1   9  -5  207.08   53.59
   1   9  -5  149.09   53.69
  -1   9   5  183.78   40.10
   0  -9   5  143.99   49.99
   0  -9  -5  262.47   40.00
   0  -9  -5  207.78   39.00
   0  -9   5  206.68   32.90
   0  -9  -5  252.07   51.89
   0   9  -5  202.28   58.59
   0   9  -5  254.47   58.29
   0   9  -5  210.58   55.89
  -1  -9  -5  272.07   51.59
  -1  -9  -5  372.26   57.49
   1  -9   5  386.46   43.90
   1  -9   5  337.17   56.29
  -1  -9  -5  351.86   43.00
  -1   9  -5  387.46   60.89
  -1   9  -5  368.36   64.49
  -1   9  -5  370.06   65.29
  -2  -9  -5   39.30   30.90
  -2  -9  -5  -68.39   35.00
  -2  -9  -5  100.79   59.79
   2  -9   5   40.50   49.00
  -2   9  -5   64.69   61.09
  -2   9  -5   82.19   58.19
  -2   9  -5  107.59   54.69
  -3  -9  -5  336.97   71.19
  -3  -9  -5  353.66   44.60
   3  -9   5  343.87   64.59
  -3  -9  -5  393.86   47.20
  -3   9  -5  185.28   73.19
  -3   9  -5  346.37   76.39
  -4  -9  -5  392.26   69.89
   4  -9   5  301.47   68.59
  -4  -9  -5  231.28   47.90
  -4  -9  -5  246.98   38.30
  -4   9  -5  216.18  133.19
  -4   9  -5  226.78   71.89
  -4   9  -5  260.97   70.99
  -5  -9  -5   88.39   51.99
   5  -9   5  104.69   79.39
  -5  -9  -5   52.19   62.79
  -5   9  -5  222.98   72.99
  -5   9  -5  187.98   73.69
  -5   9  -5  169.58   76.19
   6  -9   5  542.05   79.79
  -6  -9  -5  633.84  101.29
  -6   9  -5  729.83  106.79
  -6   9  -5  749.42  101.49
  -6   9  -5  829.12  109.99
   7 -10  -5  203.78   91.09
  -7 -10   5   64.89   87.59
  -7 -10   5  262.07   76.69
   7 -10  -5  238.68   93.79
  -7  10   5   76.59   74.99
   7  10  -5  227.58   91.19
   6 -10  -5  138.89   75.89
  -6 -10   5  141.29   72.89
  -6 -10   5   -8.70   58.59
   6 -10  -5  157.38   80.49
  -6  10   5   54.09   63.89
   6  10  -5  161.48   80.79
  -5 -10   5  338.07   69.19
  -5 -10   5  285.07   70.69
   5 -10  -5  296.17   74.09
   5 -10  -5  296.87   85.79
  -5  10   5  246.28   68.99
   5  10  -5  185.28   57.59
   5  10  -5  105.09   73.39
  -4 -10   5  593.44   77.39
   4 -10  -5  578.04   89.79
  -4 -10   5  587.04   77.19
   4 -10  -5  571.24   83.49
   4  10  -5  390.36  108.49
   4  10  -5  552.44   93.39
   4  10  -5  622.64   67.89
  -4  10   5  482.95   62.69
   3 -10  -5   53.49   56.29
  -3 -10   5   69.69   49.30
   3  10  -5   52.99   62.79
  -3  10   5    1.50   39.30
   3  10  -5   87.19   40.60
   3  10  -5    1.90   65.19
  -2 -10   5  415.56   69.29
   2 -10  -5  388.36   75.69
   2 -10  -5  364.66   59.69
  -2 -10   5  386.26   51.49
   2  10  -5  406.16   72.29
  -2  10   5  401.26   49.10
   2  10  -5  393.06   80.69
  -1 -10   5  -52.99   51.19
   1 -10  -5   10.30   43.60
   1 -10  -5   24.30   59.89
  -1 -10   5   29.50   35.90
   1  10  -5  -75.49   52.99
   1  10  -5    3.80   59.99
   0 -10  -5  559.24   69.69
   0 -10  -5  588.04   67.99
   0 -10   5  427.16   45.10
   0 -10   5  443.76   67.19
   0  10  -5  485.35   76.09
   0  10  -5  502.65   80.19
   0  10  -5  430.26   68.79
  -1 -10  -5   21.00   36.60
   1 -10   5  114.49   63.69
  -1 -10  -5   60.49   49.60
   1 -10   5   27.20   29.30
  -1  10  -5   67.09   57.99
  -1  10  -5    7.90   59.99
  -1  10  -5   40.10   60.29
  -2 -10  -5  182.18   48.20
   2 -10   5  126.59   67.59
  -2 -10  -5  164.68   63.59
  -2 -10  -5  129.59   41.70
   2 -10   5  156.18   30.90
  -2  10  -5  155.38   68.99
  -2  10  -5  187.28   69.39
  -2  10  -5  187.38   67.19
   3 -10   5  124.49   73.59
  -3 -10  -5   76.59   42.40
  -3 -10  -5   90.39   61.69
  -3 -10  -5   45.10   44.20
  -3  10  -5  -89.19   59.99
  -3  10  -5  -36.00   63.59
  -3  10  -5  152.38   79.09
  -4 -10  -5  132.39   69.59
   4 -10   5  101.69   65.39
  -4 -10  -5  251.07   54.99
  -4  10  -5  139.89   69.49
  -4  10  -5  102.79   71.39
  -4  10  -5   -8.00   69.69
   5 -10   5   -7.90   71.59
  -5 -10  -5  -94.49   72.29
  -5  10  -5  135.59   79.39
  -5  10  -5   42.70   78.89
  -5  10  -5  -49.70   75.29
  -6 -11   5  197.68   80.89
   6 -11  -5   24.20   77.99
   6 -11  -5 -111.19   92.39
  -6 -11   5 -129.19   72.89
   6  11  -5   81.29   88.39
  -6  11   5 -123.49   66.89
  -5 -11   5    0.00   65.59
   5 -11  -5 -133.59   78.79
   5 -11  -5  137.39   70.29
  -5 -11   5   29.90   65.49
   5  11  -5   91.39   80.09
  -5  11   5   59.39   59.09
  -4 -11   5   25.80   61.09
   4 -11  -5  -72.59   66.09
  -4 -11   5   55.19   74.09
   4 -11  -5  -44.70   68.39
   4  11  -5  105.79   72.59
  -4  11   5   68.49   64.99
   3 -11  -5  262.07   76.69
  -3 -11   5  297.57   68.99
  -3 -11   5  243.88   66.29
   3  11  -5  167.18   80.59
   3  11  -5  279.97   49.60
   3  11  -5  314.27   88.09
  -3  11   5  255.17   49.50
  -2 -11   5  101.79   51.79
   2 -11  -5   82.59   63.49
  -2 -11   5  140.19   63.79
   2 -11  -5  164.18   68.89
  -2  11   5   87.59   34.40
   2  11  -5  110.59   74.89
   2  11  -5  140.49   67.79
  -1 -11   5  443.46   54.39
   1 -11  -5  540.65   67.39
  -1 -11   5  482.05   71.09
   1  11  -5  454.25   79.59
   1  11  -5  353.46   77.29
   0 -11  -5  286.57   56.29
   0 -11   5  341.07   48.20
   0 -11  -5  214.58   72.49
   0 -11   5  247.78   66.19
   0  11  -5  273.97   70.69
   0  11  -5  170.48   69.99
   0  11  -5  234.48   74.89
  -1 -11  -5  823.12   75.49
   1 -11   5  842.32   96.09
  -1 -11  -5  795.22   88.29
  -1  11  -5  815.22   93.49
  -1  11  -5  813.92   98.99
  -1  11  -5  910.01   95.39
  -2 -11  -5   72.49   60.99
  -2 -11  -5   43.50   55.19
  -2 -11  -5   40.00   45.50
   2 -11   5   -5.70   58.39
   2 -11   5  -25.50   36.20
  -2  11  -5   43.10   85.09
  -2  11  -5   55.99   68.89
  -2  11  -5   48.30   67.59
  -3 -11  -5 1056.69   96.39
  -3 -11  -5  928.01   92.39
  -3 -11  -5  813.52   94.39
   3 -11   5 1090.99  110.09
  -3  11  -5 1068.79  126.99
  -3  11  -5  899.71  103.09
  -3  11  -5 1197.58  118.89
  -4 -11  -5   88.89   77.99
   4 -11   5   28.10   66.99
  -4  11  -5   -6.70   74.39
  -4  11  -5  -53.49   75.39
  -4  11  -5  -38.00   76.59
   4 -12  -5  -19.60   73.99
  -4 -12   5  -19.90   71.49
   4 -12  -5  -84.89   83.19
  -4 -12   5   27.90   66.59
   4  12  -5  -12.00   86.09
  -4  12   5   42.00   74.99
   4  12  -5  116.59   83.59
  -3 -12   5  180.78   71.89
   3 -12  -5  131.89   71.39
   3 -12  -5   39.70   76.89
  -3 -12   5   99.49   68.39
  -3  12   5   65.19   48.40
   3  12  -5  -88.09   75.89
   3  12  -5  247.38   97.49
  -2 -12   5  226.18   68.69
   2 -12  -5  283.97   80.89
  -2 -12   5  153.48   71.39
   2 -12  -5  252.97   71.99
   2  12  -5  267.47   82.39
   2  12  -5  181.28   98.19
   2  12  -5  232.78   54.39
  -1 -12   5   71.69   54.49
  -1 -12   5   83.29   68.49
   1 -12  -5   76.99   75.59
   1  12  -5   86.39   77.59
   1  12  -5  114.99   82.59
   0 -12  -5   55.19   67.69
   0 -12   5  194.98   47.50
   0 -12   5  246.28   70.89
   0 -12  -5  147.09   69.99
   0  12  -5   70.69   70.39
   0  12  -5  101.49   85.79
   0  12  -5  137.19   76.09
  -1 -12  -5   13.20   64.09
   1 -12   5   82.59   44.70
  -1 -12  -5   43.30   62.59
   1 -12   5   78.89   67.79
  -1  12  -5 -146.39   66.19
  -1  12  -5  -16.50   71.39
  -1  12  -5  203.48  142.19
  -2 -12  -5  156.08   73.39
  -2 -12  -5  185.68   80.69
   2 -12   5  124.29   73.89
  -2  12  -5   70.59   77.89
  -2  12  -5  105.89   81.09
  -2  12  -5   48.10   80.49
   3 -12   5  165.18   77.79
  -3 -12  -5   19.80   75.39
  -3 -12  -5  -74.99   78.79
  -3  12  -5  -17.60   78.39
  -3  12  -5   23.80   74.59
  -3  12  -5  -37.40   75.49
   3 -13  -5  126.09   88.19
  -3 -13   5   -7.80   70.69
   3 -13  -5  142.29   92.19
   3  13  -5   80.39   90.99
   2 -13  -5  668.13  103.19
  -2 -13   5  746.23   96.69
  -2 -13   5  562.94   78.19
   2 -13  -5  569.44   88.39
   2  13  -5  602.34  110.09
   2  13  -5  554.94   97.29
   1 -13  -5  -57.79   62.89
   1 -13  -5   24.60   78.89
  -1 -13   5   37.90   71.69
   1  13  -5   85.29   84.39
   1  13  -5  117.69   80.59
   0 -13  -5   40.90   72.79
   0 -13  -5   43.40   65.59
   0 -13   5  -37.90   81.49
   0 -13   5  144.49   81.09
   0  13  -5  108.69   91.69
   0  13  -5   72.09   84.69
  -1 -13  -5  -21.80   68.29
  -1 -13  -5   68.79   71.89
  -1 -13  -5  160.98   78.39
   1 -13   5    0.70   70.09
  -1  13  -5   -0.80   89.19
  -1  13  -5   -8.10   80.99
  -1  13  -5  124.29   87.99
  10   0  -6  -41.80   87.59
  10   0  -6   29.10   79.49
 -10   0   6  -26.10   79.89
   9   0  -6  -10.40   50.69
   9   0  -6   34.60   76.49
  -9   0   6  -85.89   58.69
   9   0  -6   44.40   71.79
   8   0  -6  109.79   48.20
   8   0  -6  150.58   70.19
  -7   0   6  -59.99   42.70
   7   0  -6  -63.09   53.49
   7   0  -6   -9.90   52.59
  -7   0   6   63.69   47.40
   7   0  -6   57.99   41.00
  -6   0   6  609.94   64.19
   6   0  -6  655.53   80.79
  -6   0   6  616.24   65.49
   6   0  -6  606.94   63.89
   6   0  -6  515.85   65.69
  -5   0   6   22.40   39.70
   5   0  -6   22.10   32.30
  -5   0   6  -24.50   34.60
  -5   0   6   20.10   33.50
   5   0  -6   18.10   39.20
  -5   0   6  -13.20   21.90
   5   0  -6    9.70   41.90
  -5   0   6   21.70   36.10
  -5   0   6  -56.79   29.10
  -4   0   6 1625.64   61.79
  -4   0   6 1562.74   71.89
  -4   0   6 1663.73   85.39
  -4   0   6 1608.24   81.49
   4   0  -6 1480.75   93.59
  -4   0   6 1629.14   78.39
   4   0  -6 1646.94   74.39
   4   0  -6 1446.56   83.09
   4   0  -6 1541.15   75.89
   4   0  -6 1630.64   92.79
  -3   0   6  -22.60   26.30
   3   0  -6    2.30   29.40
   3   0  -6   14.30   32.30
   3   0  -6    7.90   22.20
  -3   0   6    6.60   14.10
  -3   0   6   14.90   23.70
  -3   0   6    5.90   22.10
   3   0  -6  -22.40   23.80
   3   0  -6  -32.10   31.40
  -2   0   6  715.73   51.49
   2   0  -6  656.13   57.89
  -2   0   6  669.93   37.50
  -2   0   6  725.03   32.20
  -2   0   6  703.03   40.10
   2   0  -6  690.23   56.49
   2   0  -6  750.02   45.50
   2   0  -6  791.42   44.50
   1   0  -6   15.60   19.90
   1   0  -6   14.80   15.50
   1   0  -6   -4.80   29.50
   1   0  -6   -3.90   14.70
  -1   0   6    4.70    5.70
   1   0  -6  -23.30   26.00
   1   0  -6   -8.00   16.60
  -1   0   6   -1.70   21.70
  -1   0   6   15.80   12.50
   0   0  -6 1333.47   51.49
   0   0  -6 1369.96   49.80
   0   0  -6 1340.37   53.39
   0   0  -6 1295.57   67.99
  -1   0  -6  -12.50   13.70
  -1   0  -6   -7.20   26.20
  -1   0  -6    5.90   13.50
  -1   0  -6   32.20   23.60
  -2   0  -6  289.77   25.20
  -2   0  -6  272.37   36.30
  -2   0  -6  323.57   27.50
  -2   0  -6  291.57   42.20
  -2   0  -6  265.97   24.40
  -3   0  -6  -13.90   16.50
  -3   0  -6  -19.60   16.00
  -3   0  -6  -10.80   30.50
  -3   0  -6   19.20   15.70
  -4   0  -6  427.96   53.39
  -4   0  -6  473.75   38.90
  -4   0  -6  510.55   42.00
  -4   0  -6  490.15   48.10
  -5   0  -6   23.00   45.70
  -5   0  -6    0.10   28.00
  -5   0  -6  -12.90   25.40
  -5   0  -6    7.90   28.70
  -5   0  -6    7.40   33.60
  -6   0  -6   55.39   36.20
  -6   0  -6  108.49   64.09
  -6   0  -6  -14.70   29.20
  -7   0  -6   84.99   50.39
  -7   0  -6  -98.09   39.60
  -7   0  -6   17.40   62.19
  -8   0  -6   10.20   78.69
  10  -1  -6  229.48   96.79
 -10  -1   6  299.97   85.89
 -10  -1   6  131.59   76.59
  10  -1  -6  -51.59   86.79
  10   1  -6  243.88   93.49
  10   1  -6   49.90   84.59
 -10   1   6  153.08   77.19
 -10   1   6  151.48   69.29
   9  -1  -6  -92.29   65.99
  -9  -1   6  132.49   68.49
   9  -1  -6   56.59   74.59
   9  -1  -6   62.39   52.29
  -9  -1   6   67.99   63.89
   9   1  -6   49.60   65.19
  -9   1   6   92.39   56.39
  -9   1   6  158.78   70.19
   9   1  -6   66.79   49.00
   9   1  -6   72.69   74.59
   8  -1  -6   96.79   49.10
   8  -1  -6  177.18   75.09
   8   1  -6  147.49   46.80
   8   1  -6  -38.50   62.99
  -7  -1   6   56.09   48.50
   7  -1  -6   81.59   44.30
  -7  -1   6   93.19   50.29
   7  -1  -6   34.40   56.09
   7  -1  -6   26.90   55.09
   7   1  -6   42.60   41.30
   7   1  -6   56.99   51.39
   7   1  -6   75.49   58.09
  -7   1   6  -19.60   45.60
   6  -1  -6  348.87   58.19
  -6  -1   6  302.67   49.40
   6  -1  -6  388.66   63.69
  -6  -1   6  324.97   50.29
   6  -1  -6  348.37   50.69
   6   1  -6  302.07   58.99
   6   1  -6  359.76   60.69
  -6   1   6  413.26   52.39
  -5  -1   6  181.28   44.20
  -5  -1   6  107.09   36.80
  -5  -1   6  154.38   30.40
   5  -1  -6  105.89   42.30
   5  -1  -6  135.89   40.70
  -5  -1   6  170.28   37.40
   5  -1  -6  154.08   42.90
  -5  -1   6  177.08   44.10
   5  -1  -6  133.59   50.99
   5   1  -6  133.19   45.70
   5   1  -6   95.89   45.20
   5   1  -6  137.19   50.49
  -5   1   6   91.89   42.00
  -5   1   6   95.79   38.70
   5   1  -6  126.79   36.60
  -5   1   6  186.78   38.00
  -4  -1   6  627.14   62.09
   4  -1  -6  673.93   52.79
  -4  -1   6  714.03   53.29
  -4  -1   6  762.02   62.69
   4  -1  -6  702.93   73.69
   4  -1  -6  678.23   66.99
   4  -1  -6  722.93   62.49
  -4  -1   6  738.83   44.10
  -4  -1   6  649.64   50.89
   4  -1  -6  673.33   52.39
   4   1  -6  592.34   63.89
  -4   1   6  790.52   59.69
  -4   1   6  718.13   35.80
   4   1  -6  868.11   53.49
  -4   1   6  738.83   63.99
  -4   1   6  624.74   55.99
   4   1  -6  775.42   57.19
   4   1  -6  663.13   74.39
   4   1  -6  664.33   68.49
  -4   1   6  697.83   49.30
   3  -1  -6 1932.51   76.49
  -3  -1   6 1614.34   81.09
  -3  -1   6 1849.42   79.09
  -3  -1   6 1896.41   67.79
   3  -1  -6 1685.63   81.39
   3  -1  -6 1786.32   86.99
  -3  -1   6 1720.73   74.79
   3  -1  -6 1786.42   90.99
  -3  -1   6 1801.12   72.79
   3   1  -6 1722.73   91.59
   3   1  -6 1804.12   75.89
   3   1  -6 1663.33   83.89
  -3   1   6 1777.32   56.09
  -3   1   6 1765.72   69.59
   3   1  -6 1659.83   87.49
   3   1  -6 1876.41   74.49
  -3   1   6 1851.21   78.49
  -3   1   6 1832.72   86.99
  -2  -1   6  260.27   29.80
   2  -1  -6  319.57   34.10
  -2  -1   6  361.46   43.00
  -2  -1   6  352.76   35.80
   2  -1  -6  284.67   41.60
   2  -1  -6  302.17   40.40
  -2  -1   6  301.57   27.80
   2  -1  -6  287.67   34.70
  -2   1   6  295.07   28.60
  -2   1   6  309.37   33.90
   2   1  -6  330.17   32.70
   2   1  -6  327.27   43.00
  -2   1   6  235.68   32.10
   2   1  -6  285.07   38.10
  -2   1   6  315.17   16.00
   2   1  -6  293.97   29.10
   2   1  -6  286.07   42.20
   1  -1  -6 2394.36   81.89
  -1  -1   6 2295.17   72.69
   1  -1  -6 2248.38   90.69
   1  -1  -6 2250.57   81.89
  -1  -1   6 2241.38   73.79
   1  -1  -6 2160.08   94.59
  -1  -1   6 2424.86   92.89
   1  -1  -6 2269.07   71.29
  -1  -1   6 2304.87   77.69
  -1   1   6 2233.58   84.79
   1   1  -6 2235.28   96.09
   1   1  -6 2223.28   96.49
   1   1  -6 2311.57   82.19
   1   1  -6 2378.86   75.79
   1   1  -6 2137.89   94.89
   0  -1  -6    2.00   25.30
   0  -1  -6   -0.80   15.10
   0  -1  -6    1.60   13.70
   0  -1  -6   -5.50   28.90
   0  -1   6    6.70   17.10
   0   1  -6   10.20   28.80
   0   1  -6  -19.80   17.20
   0   1  -6   14.70   10.60
   0   1  -6   17.40   19.30
   0   1  -6   17.60   24.80
  -1  -1  -6 1700.93   53.59
  -1  -1  -6 1755.12   53.89
  -1  -1  -6 1568.54   77.49
  -1   1  -6 1658.93   47.50
  -1   1  -6 1724.13   63.59
  -1   1  -6 1658.93   64.39
  -1   1  -6 1705.43   47.50
  -1   1  -6 1636.84   80.79
  -1   1  -6 1664.43   70.99
  -2  -1  -6  493.05   43.60
  -2  -1  -6  511.45   23.70
  -2  -1  -6  504.55   23.70
  -2   1  -6  517.65   48.90
  -2   1  -6  467.85   36.50
  -2   1  -6  509.85   58.69
  -2   1  -6  524.95   36.40
  -3  -1  -6  612.04   31.80
  -3  -1  -6  586.14   43.40
  -3  -1  -6  565.04   56.69
  -3   1  -6  518.55   56.89
  -3   1  -6  591.34   51.99
  -3   1  -6  588.54   41.70
  -3   1  -6  588.34   25.30
  -4  -1  -6  704.23   42.90
  -4  -1  -6  749.73   50.49
  -4  -1  -6  733.93   42.20
  -4  -1  -6  791.72   50.69
  -4  -1  -6  736.63   66.89
  -4   1  -6  741.63   37.00
  -4   1  -6  716.93   56.59
  -4   1  -6  730.73   53.39
  -4   1  -6  616.94   52.49
  -4   1  -6  806.32   70.59
  -5  -1  -6   80.09   29.80
  -5  -1  -6  172.68   51.39
  -5  -1  -6  133.39   33.30
  -5   1  -6   78.19   32.70
  -5   1  -6  107.79   36.40
  -5   1  -6   72.89   46.70
  -5   1  -6  112.09   26.90
  -6  -1  -6 1212.88  107.29
  -6  -1  -6 1138.49   72.59
  -6  -1  -6 1145.09   70.29
  -6   1  -6 1008.40   76.19
  -6   1  -6 1151.68  138.59
  -7  -1  -6  290.97   53.89
  -7  -1  -6  234.08   70.69
  -7  -1  -6  249.28   51.89
  -7   1  -6  285.87   74.99
  -7   1  -6  163.48   54.59
  -8  -1  -6  173.68   80.99
  -8   1  -6  125.69   78.89
  -9  -2   6  817.32   93.49
   9  -2  -6 1155.38  132.19
   9  -2  -6  752.32   82.79
   9  -2  -6  900.51  105.39
  -9  -2   6  898.61  104.79
  -9   2   6 1002.30   99.49
   9   2  -6  919.41  106.39
   9   2  -6 1073.69  122.09
  -9   2   6  895.21   90.99
   8  -2  -6   65.19   50.79
  -8  -2   6   78.59   74.59
  -8  -2   6   45.90   60.99
   8  -2  -6   75.19   72.99
   8   2  -6  -47.10   42.00
  -8   2   6   74.59   73.99
   8   2  -6   -2.00   63.89
   8   2  -6   12.20   87.09
  -8   2   6   92.99   38.20
  -7  -2   6 1668.23  104.39
   7  -2  -6 1715.73  102.09
   7  -2  -6 1760.22  124.19
  -7  -2   6 1879.01  105.79
   7  -2  -6 1776.62  119.19
   7   2  -6 1665.73  111.09
   7   2  -6 1679.83   93.59
   7   2  -6 1696.23  119.59
  -7   2   6 1645.74   78.59
  -7   2   6 1805.72  107.69
   6  -2  -6   54.39   44.50
  -6  -2   6   -9.90   35.30
  -6  -2   6  109.49   38.00
  -6  -2   6   59.29   40.30
   6  -2  -6  176.28   52.49
   6  -2  -6   64.49   47.60
  -6   2   6   95.79   40.40
   6   2  -6   47.40   46.60
   6   2  -6   58.59   47.80
  -5  -2   6  346.07   45.10
   5  -2  -6  435.96   53.79
   5  -2  -6  347.07   53.39
  -5  -2   6  413.26   46.90
   5  -2  -6  333.47   57.29
  -5  -2   6  319.87   50.79
  -5  -2   6  399.86   41.80
   5   2  -6  327.67   53.29
   5   2  -6  290.47   44.60
  -5   2   6  469.45   52.59
   5   2  -6  335.07   60.09
  -5   2   6  484.95   55.79
   5   2  -6  405.06   55.49
  -5   2   6  384.56   48.20
  -4  -2   6  -11.40   26.60
   4  -2  -6  -16.50   31.40
   4  -2  -6   53.09   43.20
  -4  -2   6  -18.70   28.00
  -4  -2   6   -4.80   31.30
   4  -2  -6   34.50   35.10
  -4  -2   6   42.70   35.70
   4  -2  -6   68.09   30.70
  -4  -2   6   19.10   23.80
  -4   2   6   -2.80    9.80
   4   2  -6  -27.70   39.60
  -4   2   6  -32.40   29.60
   4   2  -6   -1.30   28.80
  -4   2   6   13.80   24.50
   4   2  -6   16.40   37.00
   4   2  -6   25.70   27.60
   4   2  -6  -11.40   36.40
  -4   2   6   -1.80   30.00
  -4   2   6    5.90   35.30
  -4   2   6    7.70   11.70
   3  -2  -6  293.17   44.10
   3  -2  -6  316.47   35.70
   3  -2  -6  342.27   43.10
   3  -2  -6  265.57   46.50
  -3  -2   6  275.07   34.40
   3  -2  -6  279.57   38.80
  -3  -2   6  259.77   42.10
  -3  -2   6  231.68   31.60
  -3  -2   6  415.56   44.50
   3  -2  -6  334.07   35.60
  -3  -2   6  259.17   29.30
   3   2  -6  335.37   35.70
  -3   2   6  238.88   40.80
  -3   2   6  304.97   30.10
   3   2  -6  299.27   49.90
   3   2  -6  309.47   43.50
  -3   2   6  319.07   33.20
  -3   2   6  377.36   38.50
   3   2  -6  288.87   43.40
   3   2  -6  310.77   37.10
  -2  -2   6  174.98   24.20
   2  -2  -6  169.98   25.00
   2  -2  -6  146.49   36.90
  -2  -2   6  254.47   37.10
   2  -2  -6  181.98   28.60
  -2  -2   6  198.08   25.50
   2  -2  -6  134.39   30.20
  -2  -2   6  180.88   36.10
  -2   2   6  181.58   21.10
   2   2  -6  159.88   34.10
  -2   2   6  218.28   28.70
   2   2  -6  192.78   39.30
  -2   2   6  132.09   17.40
   2   2  -6  148.79   27.80
   2   2  -6  142.39   34.40
   2   2  -6  185.78   40.10
   1  -2  -6  249.88   26.10
  -1  -2   6  257.77   35.50
   1  -2  -6  228.68   32.20
   1  -2  -6  250.77   14.20
  -1  -2   6  253.17   28.80
   1  -2  -6  238.88   37.90
   1  -2  -6  236.88   26.10
  -1  -2   6  263.97   26.70
   1   2  -6  215.98   24.30
   1   2  -6  220.68   38.50
   1   2  -6  268.27   30.20
   1   2  -6  239.08   38.10
   1   2  -6  218.28   29.00
   0  -2  -6   52.99   15.00
   0  -2  -6   61.69   13.20
   0  -2  -6   74.39   30.00
   0  -2  -6   45.20   30.10
   0  -2   6   47.70   13.00
   0  -2   6   67.99   21.00
   0  -2  -6   65.39   14.90
   0   2  -6   38.80   32.50
   0   2  -6   64.29   25.00
   0   2  -6   79.09   22.30
   0   2  -6   86.19   25.50
   0   2  -6   67.19    8.00
  -1  -2  -6   25.40    4.40
  -1  -2  -6   29.10    4.70
  -1  -2  -6   -3.30   27.40
  -1  -2  -6   12.40   26.60
   1  -2   6   59.89   23.20
  -1  -2  -6   19.40   19.80
  -1   2  -6   -0.80   24.50
  -1   2  -6   34.40   28.70
  -1   2  -6   14.90   32.60
  -1   2  -6   56.59   21.70
  -2  -2  -6   -5.30   24.80
  -2  -2  -6  -19.30   21.90
  -2   2  -6   10.40   23.90
  -2   2  -6   34.70   23.80
  -2   2  -6   14.00   33.30
  -2   2  -6   20.90   29.30
  -3  -2  -6  612.94   27.30
  -3  -2  -6  642.34   58.59
  -3  -2  -6  632.84   48.20
  -3  -2  -6  618.54   26.90
  -3   2  -6  576.84   60.29
  -3   2  -6  576.74   47.60
  -3   2  -6  653.73   46.60
  -3   2  -6  491.15   50.49
  -4  -2  -6  157.28   23.00
  -4  -2  -6  169.28   40.10
  -4  -2  -6  153.98   32.10
  -4  -2  -6  140.59   21.60
  -4   2  -6  269.37   42.00
  -4   2  -6  146.69   44.20
  -4   2  -6  135.99   33.80
  -4   2  -6  156.98   36.10
  -5  -2  -6  627.64   59.19
  -5  -2  -6  718.63   54.59
  -5  -2  -6  702.83   38.10
  -5  -2  -6  711.13   39.40
  -5  -2  -6  546.45   65.29
  -5   2  -6  548.55   62.09
  -5   2  -6  602.64   65.89
  -5   2  -6  836.02   86.99
  -6  -2  -6  -31.10   33.30
  -6  -2  -6  -89.49   57.79
  -6  -2  -6  -39.60   35.70
  -6   2  -6   -7.70   40.70
  -7  -2  -6  306.17   57.29
  -7  -2  -6  410.16   56.79
  -7  -2  -6  338.67   77.09
  -7   2  -6  494.95   84.99
  -7   2  -6  243.28   64.79
  -8  -2  -6   50.69   75.29
  -8   2  -6  -90.09   80.99
   9  -3  -6  209.38   86.39
  -9  -3   6  225.08   70.59
   9  -3  -6  -35.80   74.19
   9  -3  -6   81.29   83.59
  -9  -3   6  163.28   65.19
  -9   3   6   14.50   65.89
   9   3  -6  291.27   78.89
  -9   3   6   56.49   50.89
   8  -3  -6  409.16   83.29
   8  -3  -6  371.96   81.89
  -8  -3   6  415.46   70.69
   8  -3  -6  478.45   74.19
  -8  -3   6  431.16   71.39
  -8   3   6  565.34   61.79
   8   3  -6  406.76   73.69
   8   3  -6  371.66   52.79
   8   3  -6  425.86   86.49
  -8   3   6  396.66   70.89
   7  -3  -6  -28.90   44.00
   7  -3  -6   56.39   67.69
  -7  -3   6   62.99   53.39
   7  -3  -6  -32.20   64.29
  -7  -3   6   51.89   54.39
  -7   3   6   13.00   49.10
   7   3  -6  -53.29   43.50
   7   3  -6  -34.80   61.29
  -7   3   6   57.99   27.70
   6  -3  -6  783.92   93.79
   6  -3  -6  823.52   78.79
  -6  -3   6  786.02   75.89
   6  -3  -6  823.12   82.79
  -6  -3   6  737.33   71.89
   6   3  -6  738.33   85.19
   6   3  -6  707.23   77.29
  -6   3   6  777.32   67.89
  -6   3   6  869.41   56.99
   5  -3  -6  385.66   54.29
  -5  -3   6  353.26   46.70
  -5  -3   6  430.66   50.49
   5  -3  -6  398.16   57.79
   5  -3  -6  368.36   60.39
  -5  -3   6  394.56   48.00
   5   3  -6  329.87   56.19
   5   3  -6  381.06   63.49
  -5   3   6  504.35   55.89
  -5   3   6  401.96   27.90
  -5   3   6  431.86   51.79
   5   3  -6  440.16   54.99
  -5   3   6  470.35   53.99
   4  -3  -6  983.50   72.09
   4  -3  -6 1044.50   65.69
  -4  -3   6  872.11   67.89
   4  -3  -6  995.50   80.79
  -4  -3   6  969.00   74.89
  -4  -3   6  921.21   60.19
   4  -3  -6  986.30   59.89
  -4  -3   6 1040.50   59.89
   4  -3  -6 1018.70   76.49
  -4   3   6  979.60   72.59
   4   3  -6 1024.60   76.89
   4   3  -6  996.30   77.49
   4   3  -6  996.50   86.79
  -4   3   6 1081.69   65.89
  -4   3   6 1015.50   62.29
   4   3  -6  927.01   58.49
   4   3  -6  911.61   63.39
  -4   3   6  895.81   56.89
   3  -3  -6  292.47   45.50
  -3  -3   6  367.86   47.10
  -3  -3   6  400.06   42.70
  -3  -3   6  332.87   35.10
  -3  -3   6  298.87   40.50
   3  -3  -6  320.87   34.70
   3  -3  -6  368.46   39.80
   3  -3  -6  346.77   41.60
   3  -3  -6  339.57   49.50
   3  -3  -6  331.87   41.90
   3   3  -6  298.87   50.29
  -3   3   6  358.46   42.70
   3   3  -6  352.26   35.50
  -3   3   6  355.26   38.40
   3   3  -6  353.56   44.90
  -3   3   6  329.07   38.20
   3   3  -6  290.67   37.90
   3   3  -6  330.07   46.90
  -3   3   6  297.47   30.80
   2  -3  -6  153.78   38.30
   2  -3  -6  148.59   32.90
   2  -3  -6  111.39   36.40
  -2  -3   6  192.78   29.30
  -2  -3   6  118.39   35.70
  -2  -3   6  154.68   30.20
  -2  -3   6  127.39   22.80
   2  -3  -6  162.78   25.60
   2  -3  -6  141.19   30.20
  -2  -3   6  205.88   32.40
   2   3  -6  217.58   42.10
   2   3  -6  163.98   38.50
  -2   3   6  141.59   36.10
   2   3  -6  102.79   35.90
   2   3  -6  155.38   32.70
  -2   3   6  118.09   14.50
   2   3  -6  166.08   24.30
   2   3  -6  136.19   28.60
  -2   3   6  124.99   15.20
  -2   3   6  176.98   33.60
  -1  -3   6  681.33   43.30
   1  -3  -6  547.85   55.99
   1  -3  -6  674.43   36.60
   1  -3  -6  602.14   49.80
  -1  -3   6  630.84   54.99
  -1  -3   6  609.84   43.80
  -1  -3   6  648.34   32.20
   1  -3  -6  661.63   54.99
   1  -3  -6  608.84   40.30
   1   3  -6  651.63   47.80
   1   3  -6  616.44   58.99
   1   3  -6  582.04   31.60
   1   3  -6  585.44   48.10
   1   3  -6  567.84   51.19
   0  -3  -6  411.26   25.90
   0  -3  -6  404.36   24.10
   0  -3  -6  345.97   39.30
   0  -3   6  356.66   40.90
   0  -3   6  490.35   33.30
   0  -3  -6  365.26   46.60
   0  -3  -6  409.16   50.09
   0  -3  -6  389.56   28.00
   0   3  -6  341.17   37.90
   0   3  -6  396.26   48.70
   0   3  -6  385.26   41.10
   0   3  -6  465.05   45.20
   1  -3   6 2026.20   67.49
  -1  -3  -6 2042.20   75.99
   1  -3   6 2113.39   83.59
  -1  -3  -6 2038.90   87.09
  -1  -3  -6 1924.81   85.49
  -1   3  -6 2276.97   84.49
  -1   3  -6 2032.30   87.09
  -1   3  -6 1995.50   97.39
  -1   3  -6 1987.90   83.09
  -2  -3  -6  604.04   50.69
  -2  -3  -6  659.63   52.99
  -2  -3  -6  655.63   50.49
  -2   3  -6  650.43   67.79
  -2   3  -6  636.64   57.89
  -2   3  -6  808.32   59.89
  -2   3  -6  686.33   50.99
  -2   3  -6  580.34   48.50
  -3  -3  -6  511.25   23.50
  -3  -3  -6  485.65   50.89
  -3  -3  -6  540.25   46.60
  -3  -3  -6  507.65   22.80
  -3   3  -6  540.55   58.49
  -3   3  -6  456.95   59.59
  -3   3  -6  593.14   51.99
  -3   3  -6  538.05   61.69
  -3   3  -6  407.16   43.20
  -4  -3  -6 1433.36   66.69
  -4  -3  -6 1364.46   75.79
  -4  -3  -6 1419.46   57.29
  -4   3  -6 1560.34   91.99
  -4   3  -6 1383.46   78.59
  -4   3  -6 1550.04   86.89
  -5  -3  -6  161.48   51.69
  -5  -3  -6  153.58   14.80
  -5  -3  -6  157.18   15.70
  -5  -3  -6  136.89   28.00
  -5  -3  -6  154.08   40.80
  -5  -3  -6  179.58   34.10
  -5  -3  -6   99.29   43.10
  -5   3  -6  153.28   59.09
  -5   3  -6  171.68   44.80
  -5   3  -6  195.38   51.69
  -6  -3  -6  614.44   61.29
  -6  -3  -6  480.85   57.69
  -6   3  -6  730.83   85.09
  -6   3  -6  535.15   64.59
  -7  -3  -6   44.20   61.29
  -7  -3  -6  105.89   65.59
  -7   3  -6  159.98   77.59
  -7   3  -6   98.29   72.99
   9  -4  -6   16.20   83.09
  -9  -4   6  -74.99   67.29
  -9  -4   6  -27.20   64.29
   9  -4  -6  -15.30   81.79
   9   4  -6    5.00   71.99
  -9   4   6  -49.60   73.19
  -9   4   6  -13.60   50.59
  -8  -4   6  105.39   60.79
   8  -4  -6  126.19   75.99
  -8  -4   6   17.40   57.69
   8  -4  -6   -5.90   71.49
   8  -4  -6  187.88   74.99
   8   4  -6   12.00   58.69
   8   4  -6  154.58   43.80
  -8   4   6  122.69   62.59
  -8   4   6   97.09   37.80
   8   4  -6   15.20   68.09
   7  -4  -6   27.40   61.89
   7  -4  -6  -17.40   61.79
   7  -4  -6  -10.80   57.99
  -7  -4   6   10.50   55.39
  -7  -4   6   -9.90   54.79
   7   4  -6   63.09   66.29
  -7   4   6    2.10   27.50
  -7   4   6   -6.10   54.89
   7   4  -6  -95.49   44.90
  -6  -4   6  816.92   75.49
   6  -4  -6  957.80   90.29
  -6  -4   6  783.12   77.59
   6  -4  -6  917.91   85.59
   6  -4  -6  848.72   98.79
  -6   4   6 1031.70   77.69
   6   4  -6  816.22   84.69
   6   4  -6  845.02  106.49
   6   4  -6  838.22   91.59
   5  -4  -6   32.20   45.30
   5  -4  -6   93.09   44.50
  -5  -4   6   36.80   37.80
  -5  -4   6   15.30   34.30
   5  -4  -6   62.69   50.59
  -5   4   6   64.09   33.90
  -5   4   6   95.09   35.70
  -5   4   6   52.79   13.80
   5   4  -6   35.60   53.29
   5   4  -6   75.39   48.00
   5   4  -6   33.10   40.20
  -5   4   6   64.69   43.00
   4  -4  -6 1399.46   94.09
  -4  -4   6 1500.25   85.69
   4  -4  -6 1394.96   89.99
   4  -4  -6 1400.46   82.69
  -4  -4   6 1430.96   79.29
  -4  -4   6 1512.15   78.39
  -4  -4   6 1459.55   73.59
   4   4  -6 1506.55   77.09
   4   4  -6 1571.54  102.39
   4   4  -6 1415.86   82.69
  -4   4   6 1515.95   75.79
  -4   4   6 1502.45   72.09
  -4   4   6 1381.76   69.69
   4   4  -6 1498.55   91.59
   3  -4  -6   12.90   31.50
  -3  -4   6   13.40   35.00
  -3  -4   6   -5.00   25.90
   3  -4  -6   24.80   38.10
  -3  -4   6   36.90   31.30
   3  -4  -6   10.40   38.10
  -3  -4   6   20.60   33.30
   3  -4  -6   36.20   32.60
   3  -4  -6   51.39   26.60
  -3  -4   6   39.20   24.70
   3   4  -6   73.49   45.80
  -3   4   6   57.59   22.40
   3   4  -6   60.99   30.50
  -3   4   6   34.40   24.50
  -3   4   6   50.49   23.40
   3   4  -6   22.30   33.80
   3   4  -6  -11.40   23.80
   3   4  -6   55.89   37.90
  -3   4   6   78.89   33.90
   2  -4  -6 2255.17   81.79
  -2  -4   6 2326.47   93.09
   2  -4  -6 2223.08   81.49
  -2  -4   6 2163.08   86.99
  -2  -4   6 1997.20   98.69
   2  -4  -6 1887.31   87.29
   2  -4  -6 2134.49  100.59
   2  -4  -6 2101.89   98.59
  -2  -4   6 2228.28   90.19
   2   4  -6 2052.69   90.59
   2   4  -6 2100.29   94.19
   2   4  -6 2136.59   99.79
  -2   4   6 2230.78   93.79
   2   4  -6 2114.69   97.39
  -2   4   6 2056.39   65.09
  -2   4   6 2161.78   74.69
   2   4  -6 2185.48   79.09
   2   4  -6 2155.58  104.79
  -1  -4   6  -11.70   13.50
   1  -4  -6  -16.70   30.40
  -1  -4   6   63.49   25.90
  -1  -4   6    5.30   25.50
   1  -4  -6   -4.60   19.60
   1  -4  -6  -32.80   19.50
   1  -4  -6   10.80   18.30
   1  -4  -6   -1.60   33.30
  -1  -4   6  -20.10   25.60
   1   4  -6   32.90   30.50
   1   4  -6    1.60   34.90
   1   4  -6   77.69   34.30
   1   4  -6  -42.40   24.30
   0  -4   6   28.90   26.70
   0  -4  -6   56.19   31.80
   0  -4  -6  101.99   18.10
   0  -4  -6  104.99   22.10
   0  -4  -6   98.29   33.50
   0  -4   6   90.39   30.00
   0  -4  -6   96.79   18.40
   0  -4   6   90.69   25.70
   0   4  -6   94.09   31.90
   0   4  -6   82.69   32.50
   0   4  -6  124.39   30.00
   0   4  -6   72.89   37.90
  -1  -4  -6  172.08   33.70
  -1  -4  -6  172.48   32.50
   1  -4   6  130.09   24.90
   1  -4   6  139.89   23.70
  -1  -4  -6  157.78   16.90
  -1  -4  -6  154.78   26.70
   1  -4   6  130.59   32.40
  -1  -4  -6  168.58   17.30
  -1   4  -6  204.58   37.10
  -1   4  -6  174.88   33.80
  -1   4  -6  203.08   45.00
  -1   4  -6  174.68   37.30
  -1   4  -6  148.89   32.30
  -2  -4  -6  270.77   13.90
  -2  -4  -6  248.58   33.80
   2  -4   6  188.38   36.20
  -2  -4  -6  264.17   36.00
   2  -4   6  288.57   35.60
   2  -4   6  236.58   28.80
  -2  -4  -6  245.78   12.80
  -2   4  -6  263.27   38.70
  -2   4  -6  178.18   38.60
  -2   4  -6  203.58   47.40
  -2   4  -6  237.18   41.30
  -2   4  -6  285.57   37.30
  -3  -4  -6   12.50   27.70
  -3  -4  -6   15.90   31.10
  -3  -4  -6    7.10   11.10
  -3  -4  -6   13.40   26.50
  -3  -4  -6   -1.70   12.00
  -3   4  -6   -8.50   30.10
  -3   4  -6  -70.19   36.20
  -3   4  -6  -41.10   37.60
  -3   4  -6   -7.70   36.50
  -4  -4  -6  481.05   53.09
  -4  -4  -6  533.75   42.10
  -4  -4  -6  517.05   39.90
  -4  -4  -6  578.74   37.50
  -4   4  -6  507.25   63.59
  -4   4  -6  708.63   66.89
  -5  -4  -6  -14.40   40.00
  -5  -4  -6   32.00   25.00
  -5   4  -6    8.50   43.80
  -5   4  -6   22.20   55.29
  -6  -4  -6  -51.39   49.00
  -6  -4  -6   13.30   35.90
  -6   4  -6  -78.09   53.39
  -6   4  -6   76.59   63.99
  -7  -4  -6   55.49   70.09
  -7  -4  -6  140.59   76.99
  -7   4  -6   85.79   73.99
   9  -5  -6   90.39   92.29
   9  -5  -6 -108.19   77.79
  -9  -5   6   28.70   72.79
  -9  -5   6   55.49   77.89
   9  -5  -6   63.19   86.19
   9   5  -6   23.40   77.29
  -9   5   6  -87.49   69.79
   9   5  -6  122.59   85.09
   8  -5  -6   82.99   97.89
   8  -5  -6  129.09   73.59
  -8  -5   6  199.88   67.29
  -8  -5   6  146.89   67.79
   8  -5  -6  105.69   73.09
   8   5  -6  276.97   78.19
  -8   5   6  160.08   40.70
  -8   5   6  213.78   67.79
   8   5  -6  221.88   49.20
   8   5  -6   92.19   61.89
   7  -5  -6    0.90   64.59
  -7  -5   6   -1.40   56.09
   7  -5  -6   -5.60   68.99
  -7   5   6   48.40   26.80
   7   5  -6   35.80   67.59
  -7   5   6  -61.09   56.39
   7   5  -6  -45.80   47.30
   6  -5  -6  242.08   63.49
   6  -5  -6  276.97   68.19
  -6  -5   6  277.87   54.29
   6  -5  -6  201.98   59.99
  -6   5   6   63.59   53.79
   6   5  -6  270.97   69.49
  -6   5   6  284.47   52.79
   6   5  -6  193.98   48.30
   6   5  -6  365.46   78.49
  -6   5   6  225.48   38.90
  -5  -5   6  537.75   65.99
   5  -5  -6  388.36   59.39
   5  -5  -6  392.26   63.69
  -5  -5   6  401.66   50.39
   5  -5  -6  415.16   62.59
   5   5  -6  420.56   69.19
   5   5  -6  389.76   54.99
  -5   5   6  360.96   52.39
  -5   5   6  503.35   60.59
  -5   5   6  521.95   30.60
   5   5  -6  406.96   63.59
  -5   5   6  402.36   47.30
  -4  -5   6  459.45   58.59
  -4  -5   6  394.76   49.70
   4  -5  -6  396.76   58.49
   4  -5  -6  455.15   56.69
  -4  -5   6  459.45   52.09
   4  -5  -6  295.87   56.39
   4   5  -6  492.25   52.19
  -4   5   6  417.66   48.90
  -4   5   6  470.35   46.90
   4   5  -6  394.96   50.19
   4   5  -6  378.76   65.19
  -4   5   6  539.75   57.69
   4   5  -6  440.46   60.19
   3  -5  -6  654.53   52.19
  -3  -5   6  590.64   60.89
  -3  -5   6  707.43   60.19
   3  -5  -6  687.23   63.69
   3  -5  -6  704.83   72.59
   3  -5  -6  786.42   72.89
  -3  -5   6  652.43   49.50
  -3  -5   6  664.43   64.89
   3   5  -6  704.63   62.99
  -3   5   6  648.24   45.10
   3   5  -6  643.84   68.59
  -3   5   6  704.83   48.10
  -3   5   6  619.84   62.69
  -3   5   6  711.73   40.40
   3   5  -6  634.54   78.19
   3   5  -6  773.82   51.39
  -2  -5   6   98.49   24.70
  -2  -5   6  112.99   33.40
  -2  -5   6   81.99   34.10
  -2  -5   6  116.99   34.10
  -2  -5   6   -6.60   37.10
   2  -5  -6  124.99   39.00
   2  -5  -6   53.39   29.70
   2  -5  -6   65.39   27.40
   2  -5  -6   66.59   36.70
  -2   5   6   91.09   31.80
   2   5  -6   82.19   34.20
   2   5  -6  105.49   38.70
  -2   5   6   74.19   11.20
   2   5  -6   45.40   44.30
   2   5  -6   96.59   40.20
  -1  -5   6 1668.63   76.99
  -1  -5   6 1473.95   86.69
   1  -5  -6 1546.95   85.59
   1  -5  -6 1593.04   64.29
  -1  -5   6 1638.14   75.49
   1  -5  -6 1490.65   79.49
  -1  -5   6 1490.45   74.29
  -1  -5   6 1487.55   57.49
   1  -5  -6 1494.15   74.69
   1   5  -6 1558.74   80.39
   1   5  -6 1512.15   83.29
   1   5  -6 1545.95   79.59
   1   5  -6 1437.66   89.69
   1   5  -6 1651.63   82.69
   0  -5  -6  231.28   38.00
   0  -5   6  231.48   34.20
   0  -5  -6  176.28   23.30
   0  -5  -6  158.58   18.80
   0  -5   6  180.68   16.00
   0  -5   6  151.18   31.10
   0  -5  -6  165.08   21.40
   0  -5  -6  183.08   23.10
   0  -5  -6  208.38   40.20
   0  -5   6  262.17   37.70
   0   5  -6  263.47   38.20
   0   5  -6  231.68   39.60
   0   5  -6  212.88   45.90
   0   5  -6  248.48   42.00
   0   5  -6  192.88   40.20
  -1  -5  -6 2716.33   88.49
  -1  -5  -6 2602.74  106.89
  -1  -5  -6 2602.94   83.19
   1  -5   6 2614.64   95.89
   1  -5   6 2569.84   96.49
  -1  -5  -6 2706.33  100.29
   1  -5   6 2447.06  103.99
  -1   5  -6 2549.24  109.39
  -1   5  -6 2572.94  109.39
  -1   5  -6 2364.16  103.99
  -1   5  -6 2618.04  118.49
  -2  -5  -6  183.28   22.50
   2  -5   6  134.59   28.70
  -2  -5  -6  174.98   34.90
  -2  -5  -6  163.48   16.30
  -2  -5  -6  160.28   31.50
  -2  -5  -6  128.79   37.80
  -2   5  -6  204.08   44.30
  -2   5  -6  135.99   39.60
  -2   5  -6  163.98   45.70
  -3  -5  -6  425.86   27.60
  -3  -5  -6  282.07   34.10
   3  -5   6  356.26   40.40
   3  -5   6  392.96   40.10
  -3  -5  -6  380.86   46.40
  -3  -5  -6  409.36   48.90
  -3   5  -6  346.37   53.39
  -3   5  -6  388.56   59.79
  -3   5  -6  427.06   54.09
  -4  -5  -6  513.15   57.29
   4  -5   6  644.74   41.60
  -4  -5  -6  604.44   46.90
  -4  -5  -6  618.34   39.80
  -4   5  -6  699.73   74.09
  -4   5  -6  551.14   77.19
  -4   5  -6  655.73   71.19
  -5  -5  -6  -32.40   43.70
  -5  -5  -6    7.00   37.00
  -5   5  -6    8.50   48.40
  -6  -5  -6  485.25   77.79
  -6   5  -6  480.35   83.29
  -6   5  -6  310.77   74.79
  -7  -5  -6  248.38   69.89
  -7   5  -6  307.77   78.89
  -7   5  -6  230.58   84.79
  -9  -6   6  925.61  108.09
   9  -6  -6  896.31  108.59
  -9  -6   6 1027.10  127.89
   9  -6  -6 1220.48  144.49
   9   6  -6 1221.58  147.99
  -9   6   6 1182.58  122.09
   8  -6  -6   22.10   67.49
  -8  -6   6  126.99   68.69
   8  -6  -6   70.49   76.09
  -8  -6   6   26.00   59.69
   8  -6  -6  147.29   83.79
  -8   6   6   -1.10   59.89
   8   6  -6  -74.89   72.09
   8   6  -6 -116.99   53.99
   7  -6  -6 1069.89  107.99
   7  -6  -6 1126.99  111.29
   7  -6  -6  939.61  103.69
  -7  -6   6  993.00  113.49
   7   6  -6 1060.89   90.89
   7   6  -6 1137.39  117.19
   6  -6  -6    3.10   61.69
  -6  -6   6   14.40   54.69
   6  -6  -6  -90.69   57.19
  -6  -6   6   48.30   50.19
   6  -6  -6  -26.20   58.09
  -6   6   6   40.90   43.60
  -6   6   6 -115.89   53.69
   6   6  -6  -35.90   70.89
   6   6  -6   36.00   43.00
   6   6  -6  -29.10   69.39
  -5  -6   6  255.57   54.19
  -5  -6   6  254.67   46.90
   5  -6  -6  240.38   55.59
   5  -6  -6  170.28   57.99
   5  -6  -6  225.88   63.69
  -5   6   6  176.98   41.60
   5   6  -6  299.77   65.59
  -5   6   6  200.28   22.10
  -5   6   6  118.79   48.40
   5   6  -6  249.08   66.59
  -5   6   6  160.68   39.20
   5   6  -6  278.77   50.09
   4  -6  -6   69.09   47.50
   4  -6  -6   79.59   49.80
  -4  -6   6   77.79   39.20
   4  -6  -6   51.99   40.90
  -4  -6   6   86.59   36.00
  -4   6   6   82.39   26.60
   4   6  -6   91.99   48.00
  -4   6   6   53.89   35.60
   4   6  -6   88.59   54.89
   4   6  -6  143.89   45.60
  -4   6   6   91.69   33.40
   4   6  -6   87.29   39.90
  -3  -6   6  364.66   41.60
  -3  -6   6  412.06   50.69
   3  -6  -6  365.96   56.79
   3  -6  -6  337.97   54.49
   3  -6  -6  350.66   48.30
  -3   6   6  380.36   43.30
  -3   6   6  421.96   29.10
  -3   6   6  363.76   41.70
   3   6  -6  443.36   51.79
  -3   6   6  443.56   53.69
   3   6  -6  355.26   56.39
   3   6  -6  428.56   64.99
   2  -6  -6   24.60   41.10
   2  -6  -6   32.70   38.20
   2  -6  -6  -42.60   27.20
  -2  -6   6    9.70   23.50
  -2  -6   6   36.00   40.10
   2  -6  -6   -8.90   29.00
  -2  -6   6   14.30   34.90
  -2   6   6    4.30    6.40
   2   6  -6   10.20   35.80
  -2   6   6   14.10   32.10
   2   6  -6  -10.10   42.80
   2   6  -6  -51.19   38.30
  -1  -6   6    1.90   30.80
  -1  -6   6   27.30   20.10
  -1  -6   6   40.90   34.20
   1  -6  -6   14.70   25.60
   1  -6  -6   34.00   36.80
   1  -6  -6   28.90   11.10
   1  -6  -6   31.70   34.50
   1  -6  -6   73.99   25.50
   1   6  -6  104.69   40.30
   1   6  -6    1.00   37.80
   1   6  -6   -4.70   40.40
   0  -6  -6   43.70   35.30
   0  -6   6   62.09   14.00
   0  -6   6   55.09   35.10
   0  -6   6   77.29   31.00
   0  -6  -6   57.59   20.90
   0  -6  -6   42.20   35.80
   0  -6  -6   66.49   22.70
   0  -6  -6   80.39   31.00
   0   6  -6   44.10   40.20
   0   6  -6   61.49   36.80
   0   6  -6   33.00   42.10
  -1  -6  -6   62.19   35.20
  -1  -6  -6   59.29   21.10
  -1  -6  -6   21.30   13.90
  -1  -6  -6  -11.10   16.70
   1  -6   6   -1.70   30.10
  -1  -6  -6   54.29   29.40
   1  -6   6  -63.39   31.70
  -1   6  -6   34.70   35.20
  -1   6  -6   16.10   40.70
  -1   6  -6   66.09   39.00
  -2  -6  -6  205.48   24.40
  -2  -6  -6  173.68   38.20
  -2  -6  -6  187.28   21.90
  -2  -6  -6  139.89   39.50
   2  -6   6  180.48   34.90
  -2  -6  -6  186.88   31.80
   2  -6   6  183.38   34.40
  -2   6  -6  201.88   47.30
  -2   6  -6   84.99   48.30
  -2   6  -6  161.28   44.50
  -3  -6  -6  271.27   32.90
  -3  -6  -6  196.18   45.90
  -3  -6  -6  241.38   27.80
  -3  -6  -6  218.08   35.40
   3  -6   6  248.08   36.60
   3  -6   6  165.18   35.20
  -3  -6  -6  203.18   34.30
  -3   6  -6  276.87   60.49
  -3   6  -6  212.08   53.29
  -3   6  -6  237.08   52.99
  -4  -6  -6  125.09   38.00
  -4  -6  -6  112.59   19.90
   4  -6   6  115.99   32.50
  -4  -6  -6   50.79   19.30
  -4  -6  -6  119.29   26.60
  -4  -6  -6  104.39   47.70
  -4   6  -6  201.48   69.79
  -4   6  -6  131.09   50.09
  -4   6  -6  131.99   57.69
  -5  -6  -6  612.64   76.29
  -5   6  -6  699.23   90.69
  -5   6  -6  505.85   78.19
  -5   6  -6  617.04   77.79
  -6  -6  -6  -78.29   62.39
  -6   6  -6   64.69   67.19
  -6   6  -6 -123.59   74.09
  -6   6  -6   49.50   68.19
  -7  -6  -6  359.06   74.79
  -7   6  -6  364.36   96.09
  -7   6  -6  493.75   92.99
  -8  -7   6  397.76   77.89
   8  -7  -6  353.46   93.49
  -8  -7   6  216.38   76.39
   8  -7  -6  277.77   85.89
  -8   7   6  335.37   72.29
   8   7  -6  311.97   84.09
   8   7  -6  153.68   99.09
   7  -7  -6   -9.40   68.69
   7  -7  -6   58.99   73.59
   7  -7  -6   85.09   73.49
  -7  -7   6  138.29   60.49
  -7   7   6  138.89   55.99
   7   7  -6   69.09   48.40
   7   7  -6  202.18   77.89
  -7   7   6  125.19   57.29
   6  -7  -6  502.55   88.69
   6  -7  -6  494.25   83.69
  -6  -7   6  504.35   69.89
   6  -7  -6  488.45   88.79
  -6   7   6  560.44   70.39
   6   7  -6  458.85   91.09
   6   7  -6  562.54   95.59
   6   7  -6  390.06   56.59
   5  -7  -6   18.40   65.19
   5  -7  -6  -17.30   54.59
   5  -7  -6   -4.30   52.99
  -5  -7   6  -22.30   53.49
  -5  -7   6   59.69   43.00
  -5   7   6    7.00   37.20
  -5   7   6  -20.60   53.89
  -5   7   6    2.00   34.10
   5   7  -6   32.20   42.10
   5   7  -6   -8.90   64.49
   5   7  -6   71.19   64.09
   4  -7  -6  324.17   56.79
   4  -7  -6  323.77   63.39
  -4  -7   6  192.58   41.90
  -4  -7   6  220.68   53.59
   4  -7  -6  202.08   53.49
   4   7  -6  270.27   63.89
  -4   7   6  152.08   43.80
  -4   7   6  230.98   25.90
   4   7  -6  301.27   49.30
  -4   7   6  268.17   41.10
   4   7  -6  159.58   64.99
  -3  -7   6  435.96   54.49
   3  -7  -6  413.46   54.69
   3  -7  -6  389.16   57.69
   3  -7  -6  331.27   55.79
  -3  -7   6  356.16   43.10
  -3   7   6  363.26   43.40
   3   7  -6  360.66   66.49
   3   7  -6  418.36   50.89
   3   7  -6  397.06   62.39
  -3   7   6  289.07   35.90
   2  -7  -6  155.98   49.90
   2  -7  -6  127.59   37.50
   2  -7  -6   91.59   42.30
  -2  -7   6  103.79   41.30
  -2  -7   6  138.99   31.40
   2   7  -6  146.79   52.09
   2   7  -6   95.49   48.70
  -2   7   6  200.08   44.50
  -1  -7   6  277.07   49.50
   1  -7  -6  383.06   54.29
   1  -7  -6  281.07   25.50
  -1  -7   6  298.27   47.00
   1  -7  -6  246.08   36.10
   1  -7  -6  291.47   37.00
   1  -7  -6  234.28   41.00
  -1  -7   6  286.47   30.80
   1   7  -6  273.87   49.50
   1   7  -6  262.37   52.29
   1   7  -6  231.28   53.49
   0  -7  -6   60.09   35.50
   0  -7  -6   95.39   40.90
   0  -7   6   66.69   18.10
   0  -7   6   24.30   37.30
   0  -7  -6   66.69   31.30
   0  -7  -6   72.79   27.00
   0  -7  -6   72.09   29.80
   0  -7   6   79.19   40.60
   0   7  -6   67.59   42.80
   0   7  -6  -10.50   42.10
   0   7  -6   -7.10   42.30
   1  -7   6  611.64   25.00
  -1  -7  -6  693.43   56.99
   1  -7   6  654.83   62.79
  -1  -7  -6  720.13   49.50
   1  -7   6  682.33   63.69
  -1  -7  -6  580.14   71.59
  -1  -7  -6  616.34   53.89
  -1   7  -6  621.84   68.29
  -1   7  -6  686.73   70.69
  -1   7  -6  748.83   73.59
   2  -7   6  408.76   49.00
  -2  -7  -6  388.66   35.70
  -2  -7  -6  418.46   38.40
   2  -7   6  476.55   50.69
  -2  -7  -6  399.76   34.90
  -2  -7  -6  345.57   41.90
  -2  -7  -6  401.46   31.30
  -2  -7  -6  509.05   52.79
  -2   7  -6  467.65   60.09
  -2   7  -6  445.86   60.09
  -2   7  -6  279.27   61.29
  -3  -7  -6  161.28   38.70
   3  -7   6  120.09   39.40
  -3  -7  -6  261.97   55.49
  -3  -7  -6  186.38   33.80
  -3  -7  -6  129.89   31.50
  -3  -7  -6  208.88   36.90
   3  -7   6   70.49   43.50
  -3   7  -6  246.08   65.09
  -3   7  -6  137.89   61.29
  -3   7  -6  151.08   57.49
  -4  -7  -6 1287.47   65.19
  -4  -7  -6 1124.79   66.29
  -4  -7  -6 1302.37  111.89
  -4   7  -6 1223.68  106.99
  -4   7  -6 1131.49  116.19
   5  -7   6  -12.40   37.50
  -5   7  -6  122.49   64.09
  -5   7  -6   58.69   68.49
  -6  -7  -6 1086.99  112.89
  -6   7  -6 1472.15  131.19
  -6   7  -6 1173.78  114.19
  -6   7  -6 1200.78  136.89
   8  -8  -6  -88.09   79.09
  -8  -8   6  338.27   77.39
   8  -8  -6  316.17   96.09
   8   8  -6   58.49   87.29
  -8   8   6   45.80   72.79
   7  -8  -6   41.40   78.59
  -7  -8   6  117.99   69.39
   7  -8  -6   -2.00   71.69
  -7  -8   6   93.49   64.29
   7  -8  -6   55.09   82.79
   7   8  -6    4.20   47.00
  -7   8   6  162.68   60.59
   7   8  -6  100.99   72.39
  -6  -8   6  484.45   74.69
   6  -8  -6  540.05   84.09
   6  -8  -6  407.76   80.19
   6  -8  -6  354.66   83.49
   6   8  -6  485.45   93.09
   6   8  -6  398.26   85.99
  -6   8   6  423.06   72.29
   6   8  -6  420.66   57.99
   5  -8  -6  -45.60   67.99
   5  -8  -6   75.49   66.19
   5  -8  -6 -130.19   64.59
  -5  -8   6  -34.10   50.99
   5   8  -6  -66.79   65.89
   5   8  -6   56.99   42.80
   5   8  -6  -17.60   67.39
  -5   8   6   38.70   46.40
  -4  -8   6  821.42   91.49
   4  -8  -6  706.63   82.49
   4  -8  -6  690.43   78.39
   4  -8  -6  781.62   91.99
  -4  -8   6  745.33   67.69
  -4   8   6  713.23   65.19
   4   8  -6  739.83   90.79
   4   8  -6  790.42   88.59
   4   8  -6  723.23   73.89
  -4   8   6  735.53   65.69
   3  -8  -6   77.89   46.40
   3  -8  -6  -20.40   53.99
   3  -8  -6   81.89   43.60
  -3  -8   6   50.99   35.00
  -3  -8   6   40.30   45.40
   3   8  -6   25.90   56.09
  -3   8   6  117.89   46.80
   3   8  -6   31.40   54.39
  -3   8   6   50.99   28.70
   3   8  -6   13.10   38.50
  -2  -8   6  198.78   36.20
   2  -8  -6  241.28   59.29
   2  -8  -6  216.78   44.60
   2  -8  -6  272.77   24.60
   2  -8  -6  273.47   48.60
  -2  -8   6  292.87   52.49
   2   8  -6  220.18   57.09
   2   8  -6  218.08   59.69
  -2   8   6  176.08   50.09
   1  -8  -6    9.70   32.80
   1  -8  -6  -46.00   40.60
   1  -8  -6   17.30   19.00
  -1  -8   6   -2.00   24.60
   1  -8  -6   53.99   34.10
  -1  -8   6   33.50   41.40
   1   8  -6  -38.70   45.00
   1   8  -6   25.20   47.00
   1   8  -6  -36.00   46.40
   0  -8   6  340.77   51.99
   0  -8  -6  382.86   49.40
   0  -8  -6  358.36   58.19
   0  -8  -6  425.66   50.29
   0  -8  -6  341.57   35.60
   0  -8  -6  359.26   39.50
   0   8  -6  280.07   57.39
   0   8  -6  325.77   59.89
   0   8  -6  370.56   61.79
   1  -8   6    2.20   14.10
  -1  -8  -6  -20.30   39.60
  -1  -8  -6   44.20   35.80
  -1  -8  -6   47.90   27.50
  -1  -8  -6   11.40   37.80
   1  -8   6  -31.40   35.70
  -1   8  -6  -68.19   45.00
  -1   8  -6   26.30   51.49
  -1   8  -6   43.80   47.60
  -2  -8  -6  141.49   39.70
   2  -8   6  186.38   45.50
  -2  -8  -6  235.38   45.70
  -2  -8  -6  299.67   53.59
  -2  -8  -6  342.07   58.89
  -2  -8  -6  230.98   34.10
  -2   8  -6  231.28   64.29
  -2   8  -6  273.77   61.79
  -2   8  -6  297.97   66.59
  -3  -8  -6   42.20   59.29
  -3  -8  -6   34.00   33.40
  -3  -8  -6    0.70   33.50
   3  -8   6  -57.89   43.80
  -3   8  -6   69.59   66.59
  -3   8  -6   64.09   66.49
  -3   8  -6 -110.69   64.99
  -4  -8  -6  248.18   41.90
  -4  -8  -6  215.28   36.20
   4  -8   6  304.17   71.79
  -4   8  -6  328.17   76.89
  -4   8  -6  146.69   67.69
   5  -8   6  128.49   53.99
  -5  -8  -6  161.18   65.79
  -5   8  -6   72.99   72.99
  -5   8  -6  100.79   77.09
  -5   8  -6  190.58   78.39
  -6  -8  -6  -30.10   68.99
  -6   8  -6  -83.19   77.39
  -6   8  -6  -82.59   82.09
  -6   8  -6   73.59   86.49
   7  -9  -6  -18.10   78.49
  -7  -9   6   86.99   68.19
   7  -9  -6  -68.79   80.19
  -7  -9   6  -14.60   72.49
   7   9  -6  167.78   83.79
  -7   9   6  -21.20   61.79
   6  -9  -6   30.80   68.89
  -6  -9   6  -66.49   60.29
   6  -9  -6   74.09   75.39
  -6  -9   6   58.69   66.49
  -6   9   6  113.79   61.99
   6   9  -6   64.69   78.79
   6   9  -6  -44.10   45.60
   5  -9  -6  159.38  115.09
  -5  -9   6   66.59   59.99
  -5  -9   6   81.89   61.29
   5  -9  -6   17.30   71.59
   5  -9  -6   65.49   82.39
  -5   9   6  100.59   54.19
   5   9  -6  188.58   74.69
   5   9  -6   82.39   46.80
   4  -9  -6  402.26   73.09
   4  -9  -6  427.66   73.39
  -4  -9   6  442.06   58.59
  -4   9   6  408.56   51.09
   4   9  -6  343.97   86.09
   4   9  -6  397.26   54.99
  -3  -9   6  855.21   98.59
   3  -9  -6  863.21   88.09
   3  -9  -6  994.00   89.29
  -3  -9   6  748.13   71.19
   3  -9  -6  891.91   93.69
   3   9  -6  916.71   79.69
  -3   9   6  847.32   57.19
   3   9  -6  800.52   93.89
   3   9  -6  830.92   93.39
   2  -9  -6  139.89   43.90
   2  -9  -6  124.69   24.30
   2  -9  -6   94.49   45.20
  -2  -9   6  105.09   37.10
   2  -9  -6  201.28   62.89
  -2  -9   6  110.39   54.99
   2   9  -6   66.89   62.79
   2   9  -6  135.49   67.69
  -1  -9   6 1612.94  104.39
   1  -9  -6 1738.73   87.79
  -1  -9   6 1701.83   78.59
   1  -9  -6 1659.13   87.09
   1  -9  -6 1604.44  111.79
   1  -9  -6 1701.33   70.49
   1   9  -6 1951.20  126.29
   1   9  -6 1636.44  114.89
   1   9  -6 1667.13  118.39
   0  -9   6  -24.20   46.10
   0  -9  -6   69.39   35.10
   0  -9  -6  -19.70   27.90
   0  -9   6  -30.80   25.90
   0  -9  -6   39.30   33.40
   0  -9  -6   42.70   52.59
   0   9  -6   33.20   60.49
   0   9  -6   56.49   55.39
   0   9  -6   41.00   57.49
   1  -9   6  791.12   88.09
  -1  -9  -6  785.92   58.59
  -1  -9  -6  746.73   81.09
  -1   9  -6  676.53   85.29
  -1   9  -6  868.71   99.99
  -1   9  -6  880.61  106.59
  -2  -9  -6   93.69   35.20
  -2  -9  -6  131.89   64.49
  -2  -9  -6  105.69   42.20
   2  -9   6   99.49   58.29
  -2   9  -6   61.29   67.29
  -2   9  -6   87.79   67.29
  -3  -9  -6  628.34   65.59
  -3  -9  -6  551.54   79.39
   3  -9   6  553.94   72.39
  -3  -9  -6  582.64   67.89
  -3   9  -6  604.34  108.39
  -3   9  -6  590.54   82.99
  -3   9  -6  554.94   84.59
  -4  -9  -6  161.08   70.89
   4  -9   6  149.09   69.39
  -4   9  -6   74.69   70.69
  -4   9  -6  149.59   74.39
  -4   9  -6  226.58   75.49
  -5  -9  -6  -18.30   69.59
  -5   9  -6 -165.08   73.59
  -5   9  -6   44.70   81.39
  -5   9  -6  -84.09   77.69
  -6 -10   6  197.38   74.39
  -6 -10   6  225.58   68.89
   6 -10  -6  431.86   90.09
   6 -10  -6  193.58   89.89
   6  10  -6  131.99   90.09
  -6  10   6  118.99   68.29
   5 -10  -6   46.80   74.09
  -5 -10   6  -33.50   54.49
   5 -10  -6   85.59   74.69
  -5 -10   6   48.90   63.49
   5  10  -6  108.49   78.49
   5  10  -6   60.39   49.50
  -5  10   6  115.59   64.29
   5  10  -6   32.90   77.49
   4 -10  -6  136.09   71.99
  -4 -10   6  198.58   63.99
  -4 -10   6  173.48   68.09
   4  10  -6  238.68   50.59
   4  10  -6  186.88   79.19
  -4  10   6  165.48   45.40
  -3 -10   6   33.90   45.90
   3 -10  -6   87.19   68.49
  -3 -10   6   74.19   58.19
   3 -10  -6   44.10   62.99
   3  10  -6  -41.10   44.40
   3  10  -6  -97.89   69.09
  -3  10   6   54.69   33.30
   3  10  -6   79.79   71.79
   2 -10  -6   61.19   47.00
  -2 -10   6   20.00   65.19
  -2 -10   6  -12.10   38.30
   2  10  -6  -74.49   70.79
   2  10  -6   32.70   84.09
  -1 -10   6  104.69   37.40
   1 -10  -6   54.99   62.79
   1 -10  -6   85.39   44.70
   1  10  -6  143.19   70.39
   0 -10  -6  147.99   44.70
   0 -10   6  262.57   37.50
   0 -10   6  286.87   74.19
   0 -10  -6  168.38   67.79
   0  10  -6  304.47   88.69
   0  10  -6  277.87   78.49
   0  10  -6  210.08   86.89
  -1 -10  -6   -5.40   55.69
  -1 -10  -6   13.40   37.60
   1 -10   6   62.89   28.60
  -1  10  -6   69.09   71.99
  -1  10  -6  107.69   62.79
  -1  10  -6  157.78   68.69
  -2 -10  -6  281.57   69.69
  -2 -10  -6  233.48   49.90
   2 -10   6   51.29  101.09
  -2 -10  -6  100.49   51.69
  -2  10  -6   96.79   65.89
  -2  10  -6   77.49  130.99
  -2  10  -6   98.69   70.49
  -3 -10  -6   91.29   49.50
  -3 -10  -6   98.49   50.89
   3 -10   6  222.58   65.29
  -3 -10  -6  199.88   71.09
  -3  10  -6  272.17   77.59
  -3  10  -6  254.87   75.19
  -3  10  -6  147.29   72.49
   4 -10   6   50.89   66.19
  -4 -10  -6   94.29   75.19
  -4  10  -6  122.19   74.79
  -4  10  -6 -189.38   68.69
  -4  10  -6    0.20   77.09
  -5 -11   6  -52.29   69.79
   5 -11  -6  190.68   87.79
  -5 -11   6  -89.59   60.59
   5 -11  -6  -65.29   75.19
   5  11  -6   70.39   86.49
   5  11  -6   71.19   89.79
   4 -11  -6  516.35   85.69
  -4 -11   6  373.56   72.59
   4 -11  -6  364.36   90.69
  -4 -11   6  332.57   75.79
   4  11  -6  473.75   68.19
   4  11  -6  233.18   81.69
  -4  11   6  378.96   60.19
   4  11  -6  458.15   90.19
  -3 -11   6   18.00   62.79
   3 -11  -6  -51.19   68.59
   3 -11  -6   35.50   80.79
  -3 -11   6   42.00   58.99
   3  11  -6   34.10   78.49
   3  11  -6  -18.20   72.19
   3  11  -6   20.60   46.60
  -2 -11   6   17.30   46.70
   2 -11  -6  102.59   65.39
   2 -11  -6    2.40   66.19
  -2 -11   6  110.39   63.19
   2  11  -6   46.70   71.19
   2  11  -6  163.58   57.09
   1 -11  -6  116.39   65.39
   1 -11  -6  174.28   58.09
  -1 -11   6  186.28   45.70
  -1 -11   6  242.08   66.69
   1  11  -6  283.67  117.19
   1  11  -6  147.29   79.19
   0 -11   6   91.79   40.10
   0 -11   6  -70.99   56.89
   0 -11  -6   21.90   48.50
   0  11  -6   70.19   69.69
   0  11  -6  151.48   71.39
  -1 -11  -6  214.68   52.49
   1 -11   6  259.47   65.69
  -1 -11  -6  192.68   73.29
  -1  11  -6  196.88   82.39
  -1  11  -6  107.09   75.29
  -1  11  -6  121.89   75.39
  -2 -11  -6  694.43   81.69
  -2 -11  -6  476.85   79.59
   2 -11   6  552.74   78.19
  -2 -11  -6 1016.00  117.59
  -2  11  -6  582.24   91.39
  -2  11  -6  531.35   93.19
  -2  11  -6  717.23   93.39
  -3 -11  -6   16.00   62.29
  -3 -11  -6  148.39   77.19
   3 -11   6   60.99   71.19
  -3  11  -6  182.08   79.39
  -3  11  -6  -45.90   78.19
  -3  11  -6   55.99   80.89
  -4 -12   6  632.14   94.29
   4 -12  -6  685.73  106.39
   4 -12  -6  629.54   95.69
  -4 -12   6  448.66   75.89
   4  12  -6  738.03  103.19
   4  12  -6  498.85  101.19
   3 -12  -6   63.39   66.29
  -3 -12   6   49.99   70.99
  -3 -12   6   -2.10   68.69
   3 -12  -6   75.99   82.49
   3  12  -6 -131.89   87.09
   3  12  -6 -124.39   79.59
   2 -12  -6  649.83   85.29
  -2 -12   6  515.45   84.19
  -2 -12   6  551.54   77.79
   2 -12  -6  408.56   90.29
   2  12  -6  628.74   96.69
   2  12  -6  633.54   84.09
   2  12  -6  603.14   98.79
   1 -12  -6  -31.60   70.49
  -1 -12   6  109.29   54.29
  -1 -12   6  -12.40   68.29
   1  12  -6   29.80   80.89
   1  12  -6   46.10   76.49
   0 -12  -6  111.69   69.39
   0 -12   6   -2.80   71.29
   0 -12  -6   97.19   70.29
   0  12  -6  -33.00   77.69
   0  12  -6   82.69   82.39
   0  12  -6  139.89   78.89
   1 -12   6  156.88   70.59
  -1 -12  -6   34.00   72.79
  -1 -12  -6  107.49   69.89
  -1  12  -6  186.38   85.89
  -1  12  -6  239.18   88.59
  -1  12  -6  149.19   86.89
  -2 -12  -6   23.10   75.99
  -2 -12  -6   -0.30   65.39
   2 -12   6  -45.50   76.69
  -2  12  -6   10.80   82.59
  -2  12  -6  -26.50   82.19
  -2  12  -6   26.70   82.69
   9   0  -7  963.70  109.39
   9   0  -7  607.64   96.29
   9   0  -7  752.52  100.39
  -9   0   7  587.44   88.09
   8   0  -7   18.90   53.89
  -8   0   7   88.59   57.69
   8   0  -7  -43.10   67.99
   7   0  -7   12.50   57.29
  -7   0   7   88.49   45.10
  -7   0   7  110.99   55.29
   7   0  -7  115.69   48.20
   7   0  -7   87.89   66.29
  -6   0   7   -2.90   36.20
  -6   0   7  -27.30   29.90
   6   0  -7  -12.50   46.90
   6   0  -7   11.30   43.10
   6   0  -7    3.00   47.00
   5   0  -7  460.45   57.39
   5   0  -7  368.36   61.79
   5   0  -7  362.16   54.79
  -5   0   7  328.77   43.20
  -5   0   7  353.76   38.80
  -5   0   7  296.07   49.00
   4   0  -7   15.00   28.10
   4   0  -7  -15.10   41.30
  -4   0   7   31.70   32.50
   4   0  -7    7.30   30.70
   4   0  -7  -24.80   36.70
  -4   0   7   27.70   26.20
  -4   0   7   -7.20   16.50
  -4   0   7  -18.40   32.90
   4   0  -7    8.20   42.80
  -3   0   7    9.90   29.60
   3   0  -7   41.50   25.70
   3   0  -7   49.20   39.40
   3   0  -7   34.90   27.00
   3   0  -7   83.19   40.70
   3   0  -7   57.29   36.40
  -3   0   7   44.80   15.10
  -3   0   7   70.99   24.40
   2   0  -7   37.70   33.60
  -2   0   7   21.50   16.30
   2   0  -7    7.70   24.80
  -2   0   7   -0.40   27.30
  -2   0   7   -4.70   12.80
   2   0  -7   72.39   23.50
   2   0  -7   14.80   35.90
   2   0  -7   16.20   28.90
  -2   0   7   -2.80   23.40
   1   0  -7  301.07   42.70
   1   0  -7  272.77   42.60
   1   0  -7  281.87   30.60
   1   0  -7  303.07   35.50
   0   0  -7  -15.30   29.20
   0   0  -7  -16.50   17.30
   0   0  -7  -24.10   18.80
   0   0  -7   15.60   15.00
  -1   0  -7  212.18   41.20
  -1   0  -7  167.48   29.50
  -1   0  -7  160.68   21.60
  -1   0  -7  156.18   21.10
  -2   0  -7   12.80   12.80
  -2   0  -7   20.60   34.80
  -2   0  -7   -8.70   16.50
  -2   0  -7   14.70   16.50
  -2   0  -7   -2.00   28.60
  -3   0  -7  771.82   73.99
  -3   0  -7  808.72   44.60
  -3   0  -7  806.72   44.30
  -3   0  -7  797.52   37.70
  -3   0  -7  729.23   63.39
  -4   0  -7   58.79   26.70
  -4   0  -7   27.50   39.20
  -4   0  -7  -31.00   33.50
  -4   0  -7  -52.39   26.30
  -5   0  -7  676.93   58.69
  -5   0  -7  697.83   77.59
  -6   0  -7  -37.60   56.29
  -6   0  -7   55.69   41.80
  -6   0  -7   12.60   32.20
  -7   0  -7  656.03   93.79
   9  -1  -7   12.00   72.69
   9  -1  -7  101.99   83.79
   9  -1  -7   27.70   72.79
  -9  -1   7  152.98   67.89
  -9   1   7   74.29   64.59
  -9   1   7  120.39   52.89
   9   1  -7    4.60   71.79
   9   1  -7  138.09   74.49
   9   1  -7   94.29   61.59
  -8  -1   7  374.06   67.09
   8  -1  -7  416.16   82.19
   8  -1  -7  260.77   86.59
  -8  -1   7  475.45   73.89
   8  -1  -7  251.97   66.19
   8   1  -7  317.37   80.19
   8   1  -7  372.86   82.09
  -8   1   7  388.56   68.29
   8   1  -7  360.46   59.29
  -7  -1   7  260.57   61.99
   7  -1  -7  275.47   57.49
   7  -1  -7  289.37   72.99
  -7  -1   7  283.07   61.59
   7  -1  -7  271.57   72.39
  -7   1   7  299.87   59.49
   7   1  -7  324.17   75.29
   7   1  -7  331.27   55.39
   7   1  -7  209.38   66.49
   6  -1  -7  171.08   48.40
   6  -1  -7   85.59   49.90
  -6  -1   7  183.98   45.10
  -6  -1   7   22.60   35.70
  -6  -1   7  183.78   46.40
   6  -1  -7  148.29   62.69
   6   1  -7   84.49   51.89
   6   1  -7   68.39   52.49
  -6   1   7   86.69   39.50
  -6   1   7   92.19   28.50
  -5  -1   7  251.77   44.20
   5  -1  -7  292.37   58.89
   5  -1  -7  247.38   50.79
  -5  -1   7  286.07   42.50
  -5  -1   7  226.78   49.20
   5  -1  -7  225.98   50.99
  -5  -1   7  294.57   34.20
   5   1  -7  272.87   56.99
  -5   1   7  305.27   41.60
   5   1  -7  220.28   51.99
   5   1  -7  260.77   59.39
  -5   1   7  271.77   30.90
  -5   1   7  212.08   47.50
  -5   1   7  305.47   48.10
   4  -1  -7   79.69   33.00
  -4  -1   7   48.40   22.60
   4  -1  -7  137.89   34.50
   4  -1  -7   19.00   40.00
  -4  -1   7   41.10   36.10
   4  -1  -7   91.89   38.20
   4  -1  -7   -1.10   41.80
  -4  -1   7   24.90   36.20
  -4  -1   7  113.29   33.20
   4   1  -7   21.00   35.60
  -4   1   7   36.50   34.70
   4   1  -7   83.19   47.10
   4   1  -7   67.69   41.00
  -4   1   7   56.49   31.80
   4   1  -7  120.79   33.60
  -4   1   7   73.79   14.40
   4   1  -7   70.49   40.10
  -4   1   7   25.50   26.00
   3  -1  -7 1531.25   90.99
   3  -1  -7 1575.14   73.69
   3  -1  -7 1507.55   79.09
   3  -1  -7 1647.74   75.89
  -3  -1   7 1580.54   68.49
  -3  -1   7 1583.44   71.99
   3  -1  -7 1491.65   85.39
  -3  -1   7 1379.26   79.49
  -3  -1   7 1625.34   81.79
  -3   1   7 1615.04   64.19
   3   1  -7 1515.65   92.29
  -3   1   7 1592.74   48.30
   3   1  -7 1535.65   90.09
   3   1  -7 1648.83   74.49
   3   1  -7 1490.95   82.39
   3   1  -7 1559.84   69.29
  -3   1   7 1448.16   76.29
  -3   1   7 1485.95   66.49
   2  -1  -7   45.20   34.40
  -2  -1   7   41.20   19.60
   2  -1  -7   48.80   34.50
  -2  -1   7  -22.70   28.40
   2  -1  -7   12.50   21.40
   2  -1  -7   43.90   23.30
   2  -1  -7   37.50   28.80
  -2  -1   7   29.20   19.80
   2   1  -7   14.70   32.00
   2   1  -7  -27.70   33.80
  -2   1   7  -13.40   25.60
  -2   1   7   19.70   14.80
  -2   1   7   -2.40   11.30
   2   1  -7   41.20   36.00
   2   1  -7   11.00   21.30
   2   1  -7  -41.70   22.00
   1  -1  -7 1619.34   79.29
   1  -1  -7 1541.65   54.79
   1  -1  -7 1497.65   62.39
   1  -1  -7 1557.84   66.49
  -1  -1   7 1530.55   60.09
  -1  -1   7 1578.24   77.09
   1  -1  -7 1572.94   64.19
   1  -1  -7 1465.05   82.39
  -1  -1   7 1489.15   48.20
   1   1  -7 1562.24   70.89
   1   1  -7 1379.36   80.09
   1   1  -7 1586.84   57.99
   1   1  -7 1504.45   65.19
   1   1  -7 1428.86   82.99
   0  -1  -7  781.12   53.49
   0  -1  -7  833.52   42.70
   0  -1  -7  815.72   60.59
   0  -1   7  939.71   47.20
   0  -1  -7  814.42   64.79
   0   1  -7  835.22   47.10
   0   1  -7  849.32   51.09
   0   1  -7  857.71   34.00
   0   1  -7  833.52   65.29
  -1  -1  -7   29.10   24.10
  -1  -1  -7    7.30   13.50
  -1  -1  -7   21.60   14.10
  -1  -1  -7   -2.50   30.30
  -1   1  -7   16.00   20.90
  -1   1  -7   59.59   20.50
  -1   1  -7   50.39   26.30
  -1   1  -7   -8.50   34.50
  -2  -1  -7 2013.80   65.89
  -2  -1  -7 1997.60   97.29
  -2  -1  -7 2040.00   65.69
  -2  -1  -7 1957.90   85.19
  -2   1  -7 2021.60   76.69
  -2   1  -7 1980.50   99.99
  -2   1  -7 1967.40   75.69
  -2   1  -7 2016.10   88.49
  -3  -1  -7   50.69   17.00
  -3  -1  -7   33.80   28.80
  -3  -1  -7   40.70   17.40
  -3  -1  -7   17.50   34.60
  -3   1  -7   70.59   45.20
  -3   1  -7    8.30   36.50
  -3   1  -7   15.40   26.40
  -3   1  -7   23.80   27.00
  -4  -1  -7 1068.49   82.59
  -4  -1  -7 1005.50   53.59
  -4  -1  -7 1009.70   66.69
  -4  -1  -7 1125.39   52.09
  -4  -1  -7 1021.10   56.59
  -4   1  -7  997.90   79.19
  -4   1  -7 1116.19   63.09
  -4   1  -7 1102.39   65.09
  -4   1  -7  917.01   71.99
  -5  -1  -7  167.98   33.70
  -5  -1  -7  241.88   59.49
  -5   1  -7  247.68   40.90
  -5   1  -7  259.47   64.79
  -6  -1  -7  256.67   64.09
  -6  -1  -7  171.08   42.40
  -6  -1  -7  135.59   39.70
  -6   1  -7  149.59   50.59
  -6   1  -7  245.08   71.89
  -7  -1  -7  123.89   71.89
  -7   1  -7   44.20   72.29
  -7   1  -7  192.88   68.19
  -9  -2   7  -41.70   66.29
   9  -2  -7 -120.29   73.79
   9  -2  -7  -42.10   77.09
  -9  -2   7   32.30   66.19
   9  -2  -7  -99.59   77.39
  -9   2   7  -85.19   62.09
   9   2  -7  170.08   54.09
  -9   2   7   43.30   46.70
   9   2  -7  -63.69   71.29
   9   2  -7  -89.49   73.59
   8  -2  -7  646.14   92.19
  -8  -2   7  667.23   79.19
  -8  -2   7  685.33   79.49
   8  -2  -7  758.92   97.49
   8  -2  -7  653.43   84.09
   8   2  -7  711.03   93.29
   8   2  -7  680.93   96.39
  -8   2   7  804.12   92.29
  -8   2   7  714.93   64.69
   8   2  -7  546.05   64.49
   7  -2  -7   -4.60   69.89
  -7  -2   7   68.39   57.39
  -7  -2   7    5.30   54.59
   7  -2  -7  125.79   53.89
   7  -2  -7   17.60   61.49
  -7   2   7   19.00   27.10
   7   2  -7  -24.60   58.09
   7   2  -7   11.00   44.10
   7   2  -7  -59.39   64.29
  -7   2   7   13.40   56.09
  -6  -2   7 1304.97   86.09
   6  -2  -7 1427.96  100.99
   6  -2  -7 1391.46   94.79
   6  -2  -7 1388.66  109.19
  -6  -2   7 1279.47   83.89
  -6  -2   7 1345.37   84.79
  -6   2   7 1442.66   85.29
   6   2  -7 1295.37  102.29
   6   2  -7 1487.25  116.69
   6   2  -7 1256.97   98.69
   5  -2  -7  -36.60   41.40
  -5  -2   7  110.49   44.30
  -5  -2   7  -32.60   31.60
   5  -2  -7  133.09   53.69
   5  -2  -7    4.40   43.30
  -5  -2   7   75.49   30.60
  -5  -2   7   20.60   36.30
  -5   2   7  -21.90   39.50
   5   2  -7   32.70   51.19
   5   2  -7   33.00   43.50
   5   2  -7   46.50   43.50
  -5   2   7   -9.30   14.60
  -5   2   7   17.20   12.50
  -5   2   7   71.59   43.80
  -5   2   7   -3.00   31.50
  -4  -2   7  643.24   48.40
  -4  -2   7  625.24   55.89
   4  -2  -7  636.64   61.29
  -4  -2   7  685.43   57.09
   4  -2  -7  652.63   68.39
   4  -2  -7  667.83   76.29
  -4  -2   7  601.54   63.39
   4  -2  -7  632.44   63.39
   4  -2  -7  686.93   73.39
   4   2  -7  525.55   60.69
   4   2  -7  700.63   80.49
  -4   2   7  665.03   57.19
  -4   2   7  651.73   58.89
  -4   2   7  621.24   49.10
   4   2  -7  566.04   69.09
   4   2  -7  644.34   57.79
  -3  -2   7   94.59   27.90
  -3  -2   7  151.58   26.20
  -3  -2   7  107.49   30.40
   3  -2  -7   83.89   33.70
  -3  -2   7   91.89   35.80
   3  -2  -7  140.49   32.00
  -3  -2   7  121.39   29.60
   3  -2  -7  124.09   39.30
   3  -2  -7   95.19   39.50
   3   2  -7  185.88   33.70
  -3   2   7   95.79   23.40
  -3   2   7   83.39   29.10
  -3   2   7  112.39   24.70
  -3   2   7   92.79   32.90
   3   2  -7   86.39   47.00
   3   2  -7   55.79   37.50
   3   2  -7   61.39   26.00
   3   2  -7   10.70   38.40
   2  -2  -7  212.88   29.60
  -2  -2   7  197.08   27.90
   2  -2  -7  163.38   42.00
  -2  -2   7  230.28   27.40
  -2  -2   7  142.19   37.30
   2  -2  -7  177.28   37.50
   2  -2  -7  208.18   31.70
  -2   2   7  219.88   31.00
   2   2  -7  191.08   25.50
   2   2  -7  238.58   44.60
   2   2  -7  158.28   43.20
   2   2  -7  194.28   32.30
   2   2  -7  171.48   36.60
   2   2  -7  193.48   31.60
   1  -2  -7  171.68   23.40
  -1  -2   7  156.68   23.70
   1  -2  -7  233.08   37.40
   1  -2  -7  186.78   16.60
   1  -2  -7  131.69   27.00
  -1  -2   7  198.78   22.10
  -1  -2   7  191.38   26.60
   1  -2  -7  204.88   40.40
  -1  -2   7  215.58   38.50
   1   2  -7  172.68   29.20
   1   2  -7  158.98   29.90
   1   2  -7  163.88   35.20
   1   2  -7  237.38   25.10
   1   2  -7  139.39   39.20
   0  -2  -7  970.70   43.10
   0  -2  -7  979.70   61.69
   0  -2  -7  915.01   66.79
   0  -2   7  989.70   52.19
   0  -2  -7  952.90   43.50
   0  -2  -7  992.70   43.40
   0   2  -7 1009.70   72.09
   0   2  -7  879.41   57.19
   0   2  -7  995.80   56.29
   0   2  -7  974.10   53.29
  -1  -2  -7   60.79   32.30
  -1  -2  -7   76.49   33.90
  -1  -2  -7   57.29   12.20
  -1  -2  -7   83.69   24.50
  -1   2  -7   16.10   36.80
  -1   2  -7   49.20   30.60
  -1   2  -7   70.19   25.80
  -2  -2  -7  279.37   33.10
  -2  -2  -7  321.57   16.90
  -2  -2  -7  341.87   46.00
  -2  -2  -7  306.27   37.30
  -2  -2  -7  329.47   17.40
  -2   2  -7  370.36   42.70
  -2   2  -7  281.77   41.70
  -2   2  -7  405.16   52.89
  -2   2  -7  291.27   40.80
  -3  -2  -7  132.49   29.40
  -3  -2  -7  150.38   15.70
  -3  -2  -7  171.58   20.90
  -3  -2  -7   99.89   34.80
  -3   2  -7  135.49   32.20
  -3   2  -7  160.58   35.20
  -3   2  -7  215.58   44.00
  -3   2  -7  117.49   41.60
  -3   2  -7  144.99   48.00
  -4  -2  -7   14.20   18.60
  -4  -2  -7    0.30   28.10
  -4  -2  -7   32.30   39.00
  -4  -2  -7   18.10   21.20
  -4   2  -7   31.90   31.20
  -4   2  -7   15.70   44.00
  -4   2  -7  -66.09   42.20
  -5  -2  -7  -14.20   32.00
  -5  -2  -7   22.20   55.29
  -5   2  -7  -46.60   34.40
  -5   2  -7   90.49   60.69
  -6  -2  -7  149.59   62.59
  -6  -2  -7  193.08   40.00
  -6  -2  -7  134.79   46.00
  -6   2  -7  233.08   74.69
  -6   2  -7  131.39   48.90
  -7  -2  -7  -35.10   72.19
  -7   2  -7   -8.70   77.49
  -7   2  -7   98.79   81.89
   9  -3  -7  -52.19   78.49
  -9  -3   7  -53.59   66.99
   9  -3  -7  107.29   93.69
   9  -3  -7   23.90   85.49
  -9  -3   7   86.39   72.19
   9   3  -7    8.50   71.79
   9   3  -7   98.69   84.99
  -9   3   7  -90.69   67.49
   8  -3  -7  381.66   83.59
  -8  -3   7  283.07   69.59
   8  -3  -7  146.59   79.49
  -8  -3   7  213.38   65.79
   8  -3  -7   55.59   75.89
   8   3  -7  214.08   72.99
  -8   3   7  277.57   64.79
  -8   3   7  245.78   39.90
   8   3  -7  268.77   53.99
   8   3  -7  250.17   80.29
   7  -3  -7   68.39   67.59
   7  -3  -7  170.48   76.19
  -7  -3   7  110.49   59.99
  -7  -3   7   53.69   59.29
   7  -3  -7  141.09   62.99
  -7   3   7   15.40   25.80
  -7   3   7  104.49   57.69
   7   3  -7  111.19   71.39
   7   3  -7  -17.30   56.99
  -6  -3   7  605.74   60.99
   6  -3  -7  461.35   75.59
   6  -3  -7  498.35   67.19
  -6  -3   7  451.15   59.69
   6  -3  -7  652.13   75.79
   6   3  -7  508.65   65.69
   6   3  -7  573.24   74.79
  -6   3   7  531.95   64.99
   6   3  -7  597.44   86.29
  -5  -3   7  779.62   64.29
  -5  -3   7  737.83   63.99
   5  -3  -7  824.32   89.49
   5  -3  -7  633.84   69.59
   5  -3  -7  673.23   76.89
  -5  -3   7  746.03   64.59
   5   3  -7  719.73   80.19
   5   3  -7  688.43   80.19
  -5   3   7  758.92   62.59
  -5   3   7  753.32   73.49
  -5   3   7  642.24   70.79
   5   3  -7  660.93   82.09
  -4  -3   7   11.20   32.00
   4  -3  -7  -45.50   43.00
  -4  -3   7   11.40   29.30
   4  -3  -7    4.30   39.10
  -4  -3   7   -8.60   28.40
   4  -3  -7   29.50   38.80
  -4  -3   7  -46.50   36.20
   4   3  -7   38.20   38.40
  -4   3   7  -21.80   28.90
   4   3  -7   -8.50   42.70
  -4   3   7   36.90   27.00
   4   3  -7  -11.40   28.10
  -4   3   7    9.50   30.20
   4   3  -7   35.40   49.40
  -3  -3   7 2096.99  103.39
   3  -3  -7 2029.70  103.29
   3  -3  -7 2007.00   84.09
   3  -3  -7 2165.18   92.49
   3  -3  -7 2007.40   94.29
  -3  -3   7 2021.10   81.09
   3  -3  -7 1952.00   92.79
   3  -3  -7 2074.09  107.49
  -3  -3   7 2268.27   86.19
  -3  -3   7 2055.99   94.19
   3   3  -7 2085.89   83.39
   3   3  -7 2060.39  103.09
   3   3  -7 2055.39   93.99
  -3   3   7 2135.69   85.59
   3   3  -7 2059.09  101.59
  -3   3   7 2149.88   77.29
   3   3  -7 1987.80  113.29
  -3   3   7 2166.28  101.39
   2  -3  -7   43.30   30.80
  -2  -3   7   31.50   34.80
   2  -3  -7    4.60   37.50
   2  -3  -7  -29.20   30.90
   2  -3  -7   29.00   27.40
  -2  -3   7   77.69   25.40
   2  -3  -7   81.19   37.60
  -2  -3   7   -2.90   27.40
  -2  -3   7   34.40   23.60
   2  -3  -7   23.70   24.70
   2   3  -7  -19.10   19.40
   2   3  -7   40.40   33.50
   2   3  -7    9.70   28.60
   2   3  -7   17.10   39.60
   2   3  -7   -5.40   28.50
  -2   3   7   -1.10   21.50
   2   3  -7   58.39   37.60
  -1  -3   7 2457.35  110.29
   1  -3  -7 2378.26  108.19
   1  -3  -7 2521.45   86.39
   1  -3  -7 2401.56  109.59
  -1  -3   7 2647.54   89.69
  -1  -3   7 2535.45   96.09
   1  -3  -7 2597.84   91.19
   1   3  -7 2620.34   98.09
   1   3  -7 2416.96   97.49
   1   3  -7 2432.26  101.49
   1   3  -7 2329.37  112.19
   1   3  -7 2582.74   80.69
   0  -3   7  451.75   30.20
   0  -3  -7  406.16   31.30
   0  -3  -7  423.66   46.70
   0  -3  -7  431.36   28.90
   0  -3   7  372.76   42.30
   0  -3  -7  399.66   46.90
   0   3  -7  465.75   52.59
   0   3  -7  462.55   48.60
   0   3  -7  439.56   46.00
   0   3  -7  412.46   53.69
  -1  -3  -7  350.16   39.60
  -1  -3  -7  375.56   40.20
  -1  -3  -7  386.76   44.80
  -1  -3  -7  373.96   18.70
  -1  -3  -7  373.96   20.40
   1  -3   7  431.96   46.40
  -1   3  -7  399.56   43.20
  -1   3  -7  393.56   52.29
  -1   3  -7  402.26   44.20
  -1   3  -7  389.56   40.10
  -2  -3  -7 2106.39   86.59
  -2  -3  -7 2150.08   93.59
  -2  -3  -7 2143.99   93.69
  -2  -3  -7 2093.49   94.39
  -2  -3  -7 2176.28   88.19
  -2   3  -7 1995.90  107.99
  -2   3  -7 2009.20  100.89
  -2   3  -7 2136.29   97.99
  -2   3  -7 2107.49   89.59
  -2   3  -7 2158.28   90.09
  -3  -3  -7  283.87   16.90
  -3  -3  -7  248.08   37.40
  -3  -3  -7  214.28   40.60
  -3  -3  -7  223.48   35.80
  -3   3  -7  287.67   40.70
  -3   3  -7  213.18   52.59
  -3   3  -7  200.38   46.20
  -4  -3  -7  446.16   47.00
  -4  -3  -7  441.96   55.69
  -4  -3  -7  527.65   33.30
  -4  -3  -7  517.65   57.39
  -4  -3  -7  627.64   38.30
  -4   3  -7  476.15   50.89
  -4   3  -7  504.75   73.39
  -4   3  -7  479.35   66.19
  -5  -3  -7  291.87   68.49
  -5  -3  -7  336.97   41.90
  -5  -3  -7  415.86   49.60
  -5   3  -7  422.06   75.39
  -5   3  -7  404.86   54.09
  -6  -3  -7  -44.10   58.59
  -6  -3  -7   28.20   43.70
  -6   3  -7  -47.20   51.59
  -6   3  -7   42.60   69.19
  -7  -3  -7  412.26   84.49
  -7  -3  -7  413.26   84.19
  -7   3  -7  677.53  101.69
   9  -4  -7  746.73  107.09
  -9  -4   7  474.05   89.89
   9  -4  -7  388.36   89.39
  -9  -4   7  543.65   88.29
   9  -4  -7  427.26  102.09
   9   4  -7  583.24   88.19
   9   4  -7  391.36  101.29
  -9   4   7  523.05   84.69
  -8  -4   7   17.20   61.69
   8  -4  -7  -82.89   68.59
   8  -4  -7   43.90   74.79
  -8  -4   7   -0.40   60.59
  -8   4   7   90.79   36.10
   8   4  -7  100.59   49.40
   8   4  -7  103.59   73.49
  -8   4   7   75.69   58.79
   8   4  -7 -101.29   63.29
   7  -4  -7  -51.69   65.09
   7  -4  -7   24.40   98.19
  -7  -4   7  -18.90   55.59
  -7   4   7  -25.60   50.39
   7   4  -7   62.89   61.19
  -6  -4   7    1.60   42.30
   6  -4  -7  121.89   56.99
   6  -4  -7  101.29   66.49
  -6  -4   7   41.40   51.09
   6  -4  -7   88.89   56.59
   6   4  -7   29.00   68.19
  -6   4   7   41.60   13.70
   6   4  -7   25.60   58.69
  -6   4   7   46.80   41.50
   6   4  -7   47.70   51.39
   5  -4  -7   45.50   45.50
   5  -4  -7   43.60   43.80
  -5  -4   7   15.40   35.50
   5  -4  -7    5.10   50.79
   5   4  -7   14.80   45.70
  -5   4   7  -58.99   41.70
  -5   4   7    0.80   33.50
   5   4  -7  -21.60   52.49
   5   4  -7  -46.90   46.20
  -5   4   7  124.49   40.40
  -4  -4   7  -34.80   34.50
   4  -4  -7  -28.50   35.10
   4  -4  -7  -16.80   45.70
  -4  -4   7    2.50   28.00
  -4  -4   7   16.50   42.40
   4  -4  -7  -30.20   40.60
  -4   4   7  -16.00   28.80
  -4   4   7    5.70   31.30
   4   4  -7   41.20   52.89
   4   4  -7   47.70   36.60
  -4   4   7   29.20   27.00
   4   4  -7  -14.10   41.10
   4   4  -7  -24.90   38.00
  -3  -4   7   -0.10   37.30
   3  -4  -7   33.50   40.40
   3  -4  -7   17.30   30.90
   3  -4  -7    9.60   40.90
  -3  -4   7  -18.50   24.30
   3  -4  -7    5.40   34.10
   3  -4  -7   41.40   43.40
  -3  -4   7  -17.80   30.60
  -3  -4   7    7.80   29.90
   3   4  -7   10.40   40.60
  -3   4   7  -24.00   19.80
   3   4  -7   35.50   27.10
  -3   4   7  -23.00   40.90
   3   4  -7   48.00   39.30
   3   4  -7  -51.39   43.20
  -3   4   7   47.10   23.40
  -2  -4   7   66.39   28.20
  -2  -4   7  102.89   31.30
   2  -4  -7   60.39   40.30
   2  -4  -7   97.59   30.20
   2  -4  -7   99.69   40.90
   2  -4  -7  123.29   32.90
   2  -4  -7  118.09   27.20
  -2  -4   7  120.79   35.80
   2   4  -7    6.30   37.20
   2   4  -7  115.99   42.70
   2   4  -7   85.99   46.90
   2   4  -7   29.40   33.00
   2   4  -7   69.89   21.50
   2   4  -7   51.59   38.70
  -1  -4   7  540.75   47.80
  -1  -4   7  523.55   48.30
   1  -4  -7  591.94   63.59
  -1  -4   7  588.04   50.29
   1  -4  -7  577.54   44.80
   1  -4  -7  585.44   39.10
   1  -4  -7  526.05   59.19
   1   4  -7  441.36   53.39
   1   4  -7  541.75   50.49
   1   4  -7  492.75   61.59
   1   4  -7  585.04   69.99
   0  -4  -7   24.50   13.30
   0  -4   7  -20.00   21.50
   0  -4  -7   -7.80   17.00
   0  -4   7   87.49   29.90
   0  -4  -7   15.30   15.20
   0  -4  -7   17.90   32.90
   0  -4   7  -24.70   21.70
   0  -4  -7    4.70   32.70
   0  -4  -7  -10.20   23.80
   0   4  -7   -8.60   32.50
   0   4  -7   -1.20   30.20
   0   4  -7   47.10   30.40
   0   4  -7  -32.20   36.60
  -1  -4  -7 1384.76   47.00
  -1  -4  -7 1533.15   76.09
  -1  -4  -7 1378.56   67.49
   1  -4   7 1289.87   73.19
   1  -4   7 1376.46   55.19
  -1  -4  -7 1294.27   65.39
  -1  -4  -7 1412.86   48.00
  -1  -4  -7 1376.76   76.29
  -1   4  -7 1309.07   73.09
  -1   4  -7 1428.66   80.29
  -1   4  -7 1293.37   92.89
  -1   4  -7 1497.55   79.49
  -2  -4  -7   19.70   27.90
  -2  -4  -7   50.79   33.20
  -2  -4  -7   33.30   30.80
  -2  -4  -7  -20.50   31.60
  -2  -4  -7   31.60   29.30
  -2   4  -7   50.09   45.70
  -2   4  -7   14.20   34.20
  -2   4  -7   75.39   40.70
  -3  -4  -7  273.87   39.30
  -3  -4  -7  326.77   38.50
  -3  -4  -7  294.17   19.70
  -3  -4  -7  225.78   42.90
  -3  -4  -7  279.67   18.50
  -3   4  -7  298.07   53.39
  -3   4  -7  260.67   43.80
  -3   4  -7  310.17   60.89
  -4  -4  -7  -58.99   35.40
  -4  -4  -7   83.69   21.40
  -4  -4  -7   12.70   32.30
  -4  -4  -7  -32.30   37.90
  -4  -4  -7  -20.50   25.70
  -4   4  -7   47.20   63.59
  -4   4  -7   12.70   37.20
  -4   4  -7  -62.99   52.89
  -5  -4  -7  618.34   45.40
  -5  -4  -7  748.53   75.39
  -5  -4  -7  727.53   80.89
  -5   4  -7  643.74   86.09
  -5   4  -7  649.54   90.29
  -5   4  -7  662.13   77.19
  -6  -4  -7  -67.99   54.09
  -6  -4  -7   41.80   64.99
  -6   4  -7 -115.99   62.49
  -6   4  -7   43.70   65.39
  -7  -4  -7  397.46   96.79
  -7  -4  -7  508.35   88.19
  -7   4  -7  568.64   96.49
  -7   4  -7  598.34  102.59
  -9  -5   7  149.69   83.79
   9  -5  -7  -14.00   92.09
  -9  -5   7  -57.79   70.39
   9  -5  -7   23.90   84.19
   9  -5  -7 -147.09   86.59
   9   5  -7  -91.89   85.09
  -9   5   7  -72.39   69.99
   9   5  -7 -135.09   69.29
   8  -5  -7  527.85   87.69
  -8  -5   7  451.25   79.09
   8  -5  -7  552.74   97.39
   8  -5  -7  503.45   89.19
  -8  -5   7  403.26   77.09
   8   5  -7  490.95   85.89
  -8   5   7  428.56   73.49
   8   5  -7  382.66   81.49
  -7  -5   7  -43.80   52.89
   7  -5  -7  -52.19   68.19
   7  -5  -7 -113.79   58.49
   7  -5  -7  -25.50   64.79
   7   5  -7  -22.90   64.49
   7   5  -7  -52.29   56.09
  -7   5   7   47.60   61.59
   6  -5  -7  385.06   80.29
   6  -5  -7  289.87   70.99
  -6  -5   7  361.96   58.79
   6  -5  -7  455.85   75.49
   6   5  -7  421.36   87.19
   6   5  -7  468.15   63.09
   6   5  -7  353.96   79.39
  -6   5   7  425.56   58.29
  -5  -5   7  210.08   43.40
   5  -5  -7  283.57   56.29
   5  -5  -7  220.58   60.59
   5  -5  -7  218.28   62.39
   5   5  -7  149.19   49.20
   5   5  -7  107.89   58.79
  -5   5   7  247.38   50.19
  -5   5   7  138.09   38.20
  -5   5   7  133.99   41.70
   5   5  -7  272.57   68.99
  -4  -5   7  142.89   43.30
   4  -5  -7   49.00   47.60
   4  -5  -7   70.39   42.40
  -4  -5   7   87.69   35.30
   4  -5  -7   76.39   45.90
   4   5  -7  104.49   39.00
  -4   5   7  104.59   34.80
  -4   5   7   70.99   28.00
  -4   5   7   95.59   29.90
   4   5  -7   38.30   55.39
   4   5  -7   48.40   43.50
   4   5  -7   84.89   49.00
  -3  -5   7 1460.05   87.59
   3  -5  -7 1457.05   95.39
   3  -5  -7 1406.46   96.09
  -3  -5   7 1500.35   81.19
  -3  -5   7 1401.56   79.29
   3  -5  -7 1456.15   82.29
  -3  -5   7 1498.95   71.89
   3   5  -7 1392.26  103.49
  -3   5   7 1477.75   59.69
   3   5  -7 1602.64   72.99
   3   5  -7 1584.54   94.69
   3   5  -7 1584.84   90.29
  -2  -5   7   49.10   31.40
  -2  -5   7   15.20   37.60
   2  -5  -7   61.79   26.80
   2  -5  -7   76.79   29.70
  -2  -5   7   56.39   23.00
   2  -5  -7   74.09   41.40
   2  -5  -7    7.00   41.90
  -2  -5   7  100.29   33.90
   2   5  -7   88.19   40.00
   2   5  -7  104.19   42.20
   2   5  -7   78.19   45.50
   2   5  -7   78.09   43.60
  -1  -5   7 1700.03   58.99
   1  -5  -7 1622.84   67.69
   1  -5  -7 1693.63   88.49
   1  -5  -7 1585.64   63.29
  -1  -5   7 1625.34   77.89
   1  -5  -7 1671.43   72.99
  -1  -5   7 1730.83   79.59
  -1  -5   7 1604.14   81.49
   1  -5  -7 1760.92   93.89
   1   5  -7 1507.55   85.89
   1   5  -7 1683.33   89.89
   1   5  -7 1560.44   99.09
   0  -5  -7  904.61   42.10
   0  -5  -7  889.11   47.30
   0  -5  -7  981.00   71.59
   0  -5   7  884.61   56.79
   0  -5  -7  877.61   45.20
   0  -5  -7  852.21   65.99
   0  -5   7  875.31   57.19
   0  -5  -7  857.01   45.10
   0  -5  -7  901.31   38.40
   0   5  -7  902.01   84.49
   0   5  -7  909.51   69.29
   0   5  -7  882.41   69.49
   1  -5   7    4.50   25.20
  -1  -5  -7  -12.20   36.00
  -1  -5  -7   18.10   30.20
  -1  -5  -7   36.00   17.90
  -1  -5  -7   13.20   23.50
  -1  -5  -7   -9.00   14.60
  -1   5  -7   71.79   39.50
  -1   5  -7   54.49   39.40
  -1   5  -7  -16.10   40.30
   2  -5   7 2207.48   79.49
  -2  -5  -7 2102.19   67.49
   2  -5   7 2202.18   78.99
  -2  -5  -7 2114.19   96.09
  -2  -5  -7 2121.69   68.29
  -2  -5  -7 2188.38   88.99
  -2  -5  -7 2143.79   98.69
  -2   5  -7 2117.59  101.69
  -2   5  -7 2277.37  119.89
  -2   5  -7 2140.19  106.59
  -3  -5  -7  357.76   45.40
  -3  -5  -7  323.17   50.89
  -3  -5  -7  320.87   39.40
  -3  -5  -7  357.46   25.30
  -3  -5  -7  285.47   37.60
  -3   5  -7  426.96   54.89
  -3   5  -7  352.96   60.09
  -3   5  -7  346.17   66.79
  -4  -5  -7 1219.48   68.59
  -4  -5  -7 1237.58   64.89
  -4  -5  -7 1286.57   53.39
  -4  -5  -7 1124.39   84.59
  -4   5  -7 1190.48  105.29
  -4   5  -7 1193.78   85.29
  -4   5  -7 1170.18  115.79
  -5  -5  -7   47.30   33.80
  -5  -5  -7   71.79   52.29
  -5   5  -7   78.39   58.79
  -5   5  -7   32.90   62.99
  -5   5  -7  114.99   73.59
  -6  -5  -7   81.09   71.19
  -6  -5  -7   62.49   61.79
  -6   5  -7  105.99   82.29
  -6   5  -7  -43.50   68.19
   8  -6  -7  425.26   91.69
   8  -6  -7  417.76   96.59
   8  -6  -7  275.97   89.29
  -8  -6   7  344.07   83.29
  -8  -6   7  255.77   73.19
  -8   6   7  233.98   67.69
   8   6  -7  171.18   77.49
   8   6  -7  296.77   85.19
  -7  -6   7  -36.10   54.39
   7  -6  -7   54.49   65.19
  -7  -6   7  111.29   62.79
   7  -6  -7  -16.10   66.29
   7  -6  -7   36.10   73.09
  -7   6   7   88.29  103.39
   7   6  -7   72.79   71.59
   7   6  -7  -29.90   58.89
  -6  -6   7  926.61   92.29
   6  -6  -7  945.71  115.69
   6  -6  -7 1011.50  110.49
   6  -6  -7 1078.49  120.19
   6   6  -7  924.81  158.38
   6   6  -7  985.70  122.99
  -6   6   7  998.30   85.79
   6   6  -7  957.20   91.19
   5  -6  -7   65.39   54.59
  -5  -6   7   26.40   37.60
  -5  -6   7   35.40   51.99
   5  -6  -7   63.39   62.39
   5  -6  -7   52.19   62.69
   5   6  -7  -57.49   63.89
  -5   6   7   -5.40   36.20
   5   6  -7  120.39   64.99
  -5   6   7   93.79   38.00
  -5   6   7   87.89   50.29
   5   6  -7  -51.39   44.00
  -4  -6   7  423.96   57.49
   4  -6  -7  360.36   62.49
   4  -6  -7  531.05   62.89
   4  -6  -7  518.65   70.09
  -4  -6   7  482.85   49.70
  -4   6   7  498.75   59.89
   4   6  -7  397.06   74.89
  -4   6   7  450.65   49.70
   4   6  -7  437.96   57.19
  -4   6   7  490.75   44.50
   4   6  -7  475.05   69.99
   3  -6  -7  -15.60   42.10
  -3  -6   7   65.09   38.70
   3  -6  -7   17.30   44.20
  -3  -6   7  -22.50   27.00
   3  -6  -7  -12.30   34.50
  -3   6   7  -27.30   18.30
   3   6  -7  -18.50   50.09
   3   6  -7  -41.10   43.70
   3   6  -7   -2.40   40.40
   2  -6  -7  424.06   46.10
  -2  -6   7  518.15   44.10
  -2  -6   7  539.25   63.69
   2  -6  -7  473.75   58.99
   2  -6  -7  581.04   62.59
  -2  -6   7  408.86   53.79
   2  -6  -7  448.96   53.19
   2   6  -7  514.25   62.19
   2   6  -7  467.95   57.19
  -2   6   7  514.05   63.29
   2   6  -7  482.55   66.79
  -1  -6   7   33.20   25.70
   1  -6  -7   26.50   38.30
   1  -6  -7   72.29   44.50
  -1  -6   7  -23.60   40.40
   1  -6  -7   89.99   28.80
  -1  -6   7   45.80   34.40
   1  -6  -7   19.10   27.30
   1   6  -7  110.99   44.40
   1   6  -7  -12.00   43.90
   1   6  -7   89.19   44.50
   0  -6  -7  266.87   30.90
   0  -6  -7  269.67   30.30
   0  -6  -7  227.38   48.00
   0  -6  -7  230.78   40.10
   0  -6   7  183.28   39.40
   0  -6   7  278.77   39.70
   0   6  -7  249.58   48.30
   0   6  -7  321.67   52.29
   0   6  -7  231.88   55.89
  -1  -6  -7  -12.20   21.90
  -1  -6  -7   14.00   18.60
  -1  -6  -7  -18.00   37.90
  -1  -6  -7   48.80   31.40
   1  -6   7   25.20   30.60
   1  -6   7   30.60   32.60
  -1  -6  -7    7.20   17.50
  -1   6  -7   40.60   47.50
  -1   6  -7  -24.60   41.20
  -1   6  -7  -46.20   39.40
  -2  -6  -7  166.08   20.70
  -2  -6  -7  153.98   38.20
  -2  -6  -7  178.18   34.00
  -2  -6  -7  116.99   22.80
   2  -6   7  172.88   33.10
   2  -6   7  146.99   33.80
  -2   6  -7  104.49   51.09
  -2   6  -7  156.08   49.70
  -2   6  -7  168.88   57.29
  -3  -6  -7   88.19   37.50
   3  -6   7   41.00   27.70
  -3  -6  -7   81.09   31.90
   3  -6   7   59.29   30.10
  -3  -6  -7  145.49   22.20
  -3  -6  -7  152.78   36.90
  -3  -6  -7   63.09   41.60
  -3  -6  -7   78.09   23.70
  -3   6  -7   57.69   58.59
  -3   6  -7   24.80   64.59
  -3   6  -7  123.09   49.60
  -4  -6  -7   26.20   22.00
  -4  -6  -7   -4.50   30.40
  -4  -6  -7   67.99   49.70
  -4   6  -7   20.30   61.09
  -4   6  -7   54.69   52.09
  -4   6  -7   -0.50   67.89
  -5  -6  -7   23.80   62.59
  -5   6  -7   68.29   73.59
  -5   6  -7  -17.40   63.69
  -5   6  -7    9.30   73.79
  -6  -6  -7   76.99   62.19
  -6   6  -7  207.58   76.39
  -6   6  -7   89.09   92.29
  -6   6  -7  -10.80   77.39
  -8  -7   7   34.60   75.39
   8  -7  -7  271.97   95.09
  -8  -7   7  145.59   74.69
   8  -7  -7  109.99   87.19
   8  -7  -7  277.37   86.39
  -8   7   7  -13.30   67.59
   8   7  -7  -30.50   85.89
   8   7  -7  121.79   89.39
   7  -7  -7  257.17   83.29
   7  -7  -7  106.99   76.09
  -7  -7   7  108.29   63.39
   7  -7  -7  253.37   82.89
   7   7  -7  174.98   64.49
   7   7  -7  158.78   76.19
  -7   7   7  100.59   55.79
   6  -7  -7   53.09   72.49
   6  -7  -7   74.39   73.79
  -6  -7   7   53.39   59.59
  -6  -7   7  172.98   62.89
  -6   7   7    0.30   54.59
   6   7  -7   60.09   77.79
   6   7  -7  102.09   52.19
   6   7  -7  104.29   73.19
  -5  -7   7  811.92   82.89
   5  -7  -7  709.33   82.99
   5  -7  -7  645.84   90.19
   5  -7  -7  839.42   98.09
  -5  -7   7  819.02   84.59
   5   7  -7  751.22  101.99
   5   7  -7  660.13   69.19
   5   7  -7  748.53   91.09
  -5   7   7  779.72   70.09
  -4  -7   7   -8.60   47.60
   4  -7  -7  143.19   67.29
   4  -7  -7   89.69   57.59
  -4  -7   7   38.00   38.40
   4  -7  -7  106.99   47.50
   4   7  -7   87.69   47.80
  -4   7   7   47.20   20.20
  -4   7   7   12.10   39.70
   4   7  -7   -2.00   66.69
   4   7  -7   76.39   63.69
  -4   7   7    4.00   29.90
   3  -7  -7 1806.82   93.99
  -3  -7   7 1687.23   98.79
  -3  -7   7 1814.82   84.29
   3  -7  -7 1747.23  106.49
   3  -7  -7 1743.53  115.19
   3   7  -7 1729.13  111.69
   3   7  -7 1640.94  122.49
   3   7  -7 1564.04   96.29
   2  -7  -7   -3.20   41.40
  -2  -7   7   38.20   38.30
   2  -7  -7   -3.40   34.80
   2  -7  -7   50.69   45.50
  -2  -7   7   -2.50   24.40
   2   7  -7    0.50   47.30
   2   7  -7   18.80   52.89
  -1  -7   7 1331.77   74.49
   1  -7  -7 1226.58   90.29
  -1  -7   7 1181.18   88.49
   1  -7  -7 1335.07   70.89
  -1  -7   7 1283.07   78.19
   1  -7  -7 1301.17   82.89
   1  -7  -7 1242.68   69.29
   1   7  -7 1212.58   90.29
   1   7  -7 1370.16  102.89
   1   7  -7 1349.27   91.09
   0  -7  -7  376.76   39.90
   0  -7   7  370.46   20.40
   0  -7  -7  373.46   45.40
   0  -7   7  346.87   51.39
   0  -7  -7  296.37   53.39
   0  -7   7  343.17   49.30
   0  -7  -7  314.17   35.70
   0  -7  -7  396.46   39.20
   0   7  -7  448.26   59.49
   0   7  -7  285.97   61.09
   0   7  -7  310.57   57.59
   1  -7   7  227.18   47.00
   1  -7   7  119.49   39.60
  -1  -7  -7  158.58   44.80
  -1  -7  -7  132.09   32.70
  -1  -7  -7  149.29   36.50
  -1   7  -7  187.78   52.99
  -1   7  -7  147.49   59.49
  -1   7  -7   83.89   52.09
  -2  -7  -7  530.85   63.99
  -2  -7  -7  541.45   47.20
  -2  -7  -7  516.75   44.00
   2  -7   7  440.86   48.40
  -2  -7  -7  504.55   36.70
  -2  -7  -7  559.74   66.69
  -2  -7  -7  477.35   40.60
   2  -7   7  541.55   65.69
  -2   7  -7  431.16   71.69
  -2   7  -7  469.15   80.49
  -2   7  -7  500.55   66.39
  -3  -7  -7  155.08   28.20
   3  -7   7  148.09   37.80
  -3  -7  -7  146.19   33.00
  -3  -7  -7  213.88   60.39
  -3  -7  -7  127.29   23.80
  -3  -7  -7   94.29   36.90
  -3   7  -7   62.19   74.09
  -3   7  -7  149.69   62.99
   4  -7   7  195.98   37.00
  -4  -7  -7  270.47   68.49
  -4  -7  -7  109.69   35.20
  -4   7  -7  222.68   70.39
  -4   7  -7  169.18   73.29
  -4   7  -7  107.09   69.99
  -5  -7  -7  362.56   71.29
  -5   7  -7  468.85   91.69
  -5   7  -7  186.38   73.59
  -5   7  -7  340.07   77.49
  -6   7  -7  114.69   81.69
  -6   7  -7  -44.60   78.79
  -7  -8   7   68.49   63.09
   7  -8  -7  176.38   84.39
   7  -8  -7   30.80   82.49
   7  -8  -7   53.79   77.79
   7   8  -7   74.99   79.99
   7   8  -7  112.69   65.89
  -7   8   7   57.49   63.39
   6  -8  -7   63.19   79.59
   6  -8  -7   44.40   66.89
  -6  -8   7  114.09   70.19
   6  -8  -7   70.69   72.39
  -6  -8   7   40.60   64.79
   6   8  -7   49.60   78.79
  -6   8   7   34.80   62.99
   6   8  -7 -117.89   49.80
   6   8  -7   20.70   75.99
  -5  -8   7   86.69   54.09
   5  -8  -7   60.99   66.79
   5  -8  -7  136.79   72.99
   5  -8  -7   12.00   70.49
  -5  -8   7  136.99   63.09
   5   8  -7  109.29   50.59
   5   8  -7   39.30   71.19
   5   8  -7  110.59  103.69
  -5   8   7   -7.70   40.60
   4  -8  -7  205.18   69.19
   4  -8  -7  190.18   61.69
   4  -8  -7  165.38   65.99
  -4  -8   7  261.97   65.59
  -4  -8   7  189.38   44.00
   4   8  -7  208.98   81.39
  -4   8   7  173.78   36.70
   4   8  -7  163.88   73.89
   4   8  -7  221.58   53.09
   3  -8  -7   91.49   50.19
  -3  -8   7  125.99   55.59
   3  -8  -7   54.19   45.60
  -3  -8   7  116.49   38.60
   3  -8  -7  109.19   67.69
   3   8  -7  123.29   66.89
   3   8  -7   65.29   70.79
   3   8  -7  205.78   48.70
  -2  -8   7  266.97   56.59
   2  -8  -7  264.37   50.49
  -2  -8   7  208.38   34.90
   2  -8  -7  186.38   64.19
   2  -8  -7  254.97   46.40
   2   8  -7  324.27   70.89
   2   8  -7  297.67   71.89
   1  -8  -7  197.48   57.59
  -1  -8   7  174.38   29.80
   1  -8  -7  200.48   21.80
  -1  -8   7  133.99   48.10
   1  -8  -7  118.89   42.10
   1  -8  -7  183.18   38.10
   1   8  -7  210.28   63.89
   1   8  -7  127.69   56.19
   1   8  -7  103.39   56.69
   0  -8  -7  149.29   37.60
   0  -8  -7  146.89   45.00
   0  -8  -7   37.80   50.79
   0  -8   7   86.39   17.10
   0  -8   7   62.89   44.80
   0  -8  -7  103.59   29.90
   0   8  -7  134.79   58.99
   0   8  -7   90.89   62.19
   0   8  -7  257.57   64.49
  -1  -8  -7  106.19   47.10
  -1  -8  -7  228.78   46.10
  -1  -8  -7  122.09   31.00
   1  -8   7  259.57   47.60
  -1  -8  -7  114.79   31.80
  -1   8  -7  214.78   61.79
  -1   8  -7  201.38   62.49
  -1   8  -7  340.17   75.59
  -2  -8  -7   93.19   61.89
  -2  -8  -7   63.99   43.90
   2  -8   7  -29.60   43.60
  -2   8  -7   43.10   62.69
  -2   8  -7   18.40   64.39
  -3  -8  -7  297.07   47.00
  -3  -8  -7  214.78   94.59
   3  -8   7  439.86   55.09
  -3   8  -7  464.15   79.19
  -3   8  -7  375.56   70.59
  -3   8  -7  413.06   88.89
   4  -8   7  112.49   42.00
  -4  -8  -7  174.68   62.09
  -4   8  -7   52.49   67.29
  -4   8  -7   57.49   67.69
  -4   8  -7   -8.70   73.59
  -5  -8  -7  386.66   75.19
  -5   8  -7   98.59   78.69
  -5   8  -7  339.27   95.79
  -5   8  -7  232.68   84.09
   7  -9  -7  -69.19   82.99
  -7  -9   7 -135.39   68.29
   7  -9  -7   50.89   91.09
   7   9  -7   37.20   88.89
  -7   9   7   57.29   69.49
   6  -9  -7  217.38   79.79
   6  -9  -7  281.67   86.09
  -6  -9   7  268.27   66.19
  -6  -9   7  403.06   81.59
   6  -9  -7  192.18   89.09
   6   9  -7  299.97   90.29
   6   9  -7  189.78   90.39
   6   9  -7  172.28   60.59
   5  -9  -7   38.70   67.19
  -5  -9   7  -26.10   62.99
   5  -9  -7  -99.09   72.29
  -5  -9   7  -58.19   60.29
   5  -9  -7  -19.00   67.69
   5   9  -7  122.29   79.39
   5   9  -7   49.70   52.59
  -5   9   7  -23.30   46.60
   5   9  -7  -66.59   70.79
  -4  -9   7   57.09   49.50
   4  -9  -7  159.38   77.19
  -4  -9   7  179.98   61.49
   4  -9  -7  131.09   69.79
   4  -9  -7  -10.00   68.29
   4   9  -7  285.27   76.69
  -4   9   7  134.59   38.50
   4   9  -7   99.09   48.50
   4   9  -7  125.59  102.19
  -3  -9   7  147.99   43.40
   3  -9  -7  248.28   57.19
   3  -9  -7  164.08   60.29
   3   9  -7  266.37   57.29
   3   9  -7  166.18   92.99
   3   9  -7  262.97   83.59
   2  -9  -7   36.30   45.30
  -2  -9   7  -23.30   54.29
   2  -9  -7   92.19   46.80
  -2  -9   7   61.79   35.50
   2  -9  -7   97.29   70.89
   2   9  -7  -34.70   69.59
   2   9  -7  -38.90   68.19
   1  -9  -7  205.18   45.10
   1  -9  -7  141.99   67.69
  -1  -9   7  206.78   34.30
   1  -9  -7  140.89   42.30
  -1  -9   7  217.08   58.89
   1   9  -7  135.39   73.29
   1   9  -7  165.08   69.89
   1   9  -7  209.08   70.69
   0  -9   7 1118.19  102.69
   0  -9  -7 1085.39  103.29
   0  -9  -7 1085.49   69.39
   0  -9  -7 1145.39   71.69
   0   9  -7 1157.28  129.59
   0   9  -7 1097.19  119.09
   0   9  -7 1043.30  107.59
   1  -9   7   28.20   57.79
  -1  -9  -7  -64.39   31.90
  -1  -9  -7  -19.60   53.59
  -1   9  -7    6.40   63.99
  -1   9  -7   13.90   64.89
  -2  -9  -7 1274.87   95.99
  -2  -9  -7 1412.06  119.49
  -2  -9  -7 1305.47   77.99
   2  -9   7 1298.17  106.49
  -2   9  -7 1293.67  114.29
  -2   9  -7 1213.28  113.39
  -2   9  -7 1461.15  133.29
  -3  -9  -7   -1.10   45.30
   3  -9   7  173.18   64.69
  -3  -9  -7  -24.00   66.39
  -3   9  -7  -93.19   68.99
  -3   9  -7   66.19   70.79
  -3   9  -7   35.10   64.09
  -4  -9  -7  816.02   94.09
  -4   9  -7  715.43  101.69
  -4   9  -7  655.83   93.99
  -4   9  -7  417.06   90.19
   6 -10  -7  295.57  104.59
   6 -10  -7  666.33  104.69
  -6 -10   7  333.27   73.39
  -6 -10   7  503.75   89.19
  -6  10   7  347.17   71.09
   6  10  -7  693.33  115.39
   6  10  -7  540.35  106.79
  -5 -10   7  -23.30   66.09
   5 -10  -7   -1.90   70.19
  -5 -10   7    0.70   56.99
   5 -10  -7 -122.39   81.49
   5  10  -7   47.20   59.89
  -5  10   7   34.30   56.59
   5  10  -7   67.99   86.59
   5  10  -7  219.78   92.79
  -4 -10   7  233.18   72.59
   4 -10  -7  252.07  120.89
   4 -10  -7  295.07   78.49
   4 -10  -7  289.47   82.59
  -4 -10   7  238.78   69.69
   4  10  -7  235.28   64.89
   4  10  -7  224.88   87.19
   4  10  -7  233.68   84.39
  -3 -10   7  141.09   62.29
   3 -10  -7  -99.19   56.19
   3 -10  -7   27.70   69.79
  -3 -10   7   14.40   47.00
   3 -10  -7   16.40   65.29
   3  10  -7  161.48   78.39
   3  10  -7  -26.20   71.49
   3  10  -7  -53.09   54.19
   2 -10  -7    0.60   46.70
   2 -10  -7  122.79   52.39
  -2 -10   7  -65.09   57.09
   2 -10  -7   29.80   64.89
  -2 -10   7    9.80   38.70
   2  10  -7   28.60   69.39
   2  10  -7   15.80   56.89
  -1 -10   7  153.38   61.59
   1 -10  -7   78.79   42.90
   1 -10  -7   47.50   44.50
   1  10  -7 -129.99   60.99
   1  10  -7   87.89   65.99
   0 -10  -7  256.57   47.30
   0 -10   7  162.48   61.49
   0 -10   7  218.48   49.90
   0 -10  -7  113.09   71.69
   0  10  -7  190.08   96.49
   0  10  -7  228.58   75.39
   0  10  -7  227.38   75.89
  -1 -10  -7  110.19   64.69
  -1 -10  -7  349.67   49.40
   1 -10   7  265.47   63.99
  -1  10  -7  433.36   83.09
  -1  10  -7  190.28   73.59
  -1  10  -7  110.79   70.99
  -2 -10  -7   74.79   61.49
  -2 -10  -7  196.28   51.99
   2 -10   7  167.78   62.99
  -2 -10  -7   95.89   66.89
  -2  10  -7  156.28   77.09
  -2  10  -7   87.19   68.69
  -2  10  -7   78.39   68.49
  -3 -10  -7  499.35   86.39
   3 -10   7  278.77   68.19
  -3 -10  -7  316.57   63.89
  -3  10  -7  515.45   90.39
  -3  10  -7  459.25   93.89
  -3  10  -7  411.06   89.29
  -5 -11   7  367.26   93.69
   5 -11  -7  397.86  109.89
   5 -11  -7  746.03  100.79
  -5 -11   7  665.83   85.59
   5  11  -7  385.66  106.49
   5  11  -7  553.44  104.69
  -4 -11   7  180.38   75.59
   4 -11  -7  112.49   72.99
  -4 -11   7   20.70   61.99
   4 -11  -7   69.59   82.59
   4  11  -7   23.30   84.89
   4  11  -7  130.79   68.89
   4  11  -7   -7.20   86.29
   3 -11  -7 1258.27  117.09
  -3 -11   7 1130.19  114.49
   3 -11  -7 1206.78  133.79
  -3 -11   7 1019.90  108.09
   3  11  -7 1146.29  134.19
   3  11  -7 1185.68  125.39
   3  11  -7  893.11  111.99
   2 -11  -7 -101.39   63.99
  -2 -11   7  -59.69   43.60
  -2 -11   7 -143.19   58.69
   2 -11  -7   34.00   73.99
   2  11  -7  -12.10   76.79
   2  11  -7    9.70   68.19
   2  11  -7   47.90   81.79
   1 -11  -7 1031.90  103.39
   1 -11  -7  924.31  102.19
  -1 -11   7  968.70  111.09
  -1 -11   7  742.53   85.09
   1  11  -7  934.11  105.89
   1  11  -7  855.21  103.29
   0 -11   7    9.10   58.59
   0 -11  -7  -41.10   56.29
   0 -11  -7   -3.40   68.69
   0  11  -7   15.60   75.19
   0  11  -7   84.19   68.49
   0  11  -7    7.70   69.39
  -1 -11  -7  156.48   63.89
  -1 -11  -7  179.58   55.09
   1 -11   7  231.18   66.09
  -1  11  -7  283.37   81.79
  -1  11  -7  195.08   86.39
  -1  11  -7  126.99   79.69
  -2 -11  -7  203.48   78.09
   2 -11   7  318.67   76.99
  -2  11  -7  302.37   80.79
  -2  11  -7  283.27   88.99
  -2  11  -7  195.68   91.89
   3 -12  -7   70.09   69.19
  -3 -12   7  -53.69   71.89
  -3 -12   7   12.60   76.49
   3 -12  -7  -56.49   83.89
   3  12  -7  -14.40   95.69
   3  12  -7   49.80   90.09
  -2 -12   7  330.77   78.69
   2 -12  -7  217.58   91.19
   2 -12  -7  280.97   73.59
   2  12  -7  302.97   89.99
   2  12  -7  159.98   89.69
   2  12  -7  274.87   90.49
  -1 -12   7  -24.60   73.49
   1 -12  -7  102.09   71.19
   1 -12  -7  100.29   76.79
   1  12  -7   49.30   84.19
   1  12  -7   33.30   87.99
   0 -12  -7   26.40   69.79
   0 -12  -7   45.90  111.39
   0 -12   7  115.59   73.49
   0  12  -7 -107.29   81.69
   0  12  -7  -55.39   86.89
   0  12  -7   64.89   85.89
   9   0  -8 -152.28   79.89
   9   0  -8  -97.19   73.99
  -9   0   8 -148.49   65.49
   9   0  -8  -33.80   74.39
  -8   0   8  496.85   78.09
   8   0  -8  500.85   82.99
   8   0  -8  523.75   90.49
   8   0  -8  493.35   89.19
  -7   0   8   29.40   55.49
   7   0  -8   37.40   72.29
   7   0  -8   29.50   53.19
   7   0  -8   24.20   66.59
   6   0  -8  421.56   69.69
   6   0  -8  491.05   65.39
  -6   0   8  454.95   55.69
  -6   0   8  430.36   50.09
   6   0  -8  423.16   76.29
   5   0  -8  -39.20   49.70
  -5   0   8   34.70   32.70
  -5   0   8  141.99   45.10
   5   0  -8    4.90   48.00
  -5   0   8   -4.60   21.40
   5   0  -8   39.70   43.60
  -4   0   8 1506.35   72.59
   4   0  -8 1659.93  107.09
   4   0  -8 1624.84   79.69
   4   0  -8 1565.54  101.29
  -4   0   8 1522.55   79.99
  -4   0   8 1590.54   59.19
   4   0  -8 1596.04   96.99
   3   0  -8  -44.70   27.00
  -3   0   8   16.60   23.90
   3   0  -8    1.90   44.00
   3   0  -8   15.90   43.10
   3   0  -8    6.20   30.20
   3   0  -8  -17.60   34.10
  -3   0   8    3.00   13.70
  -3   0   8   -7.00   33.90
  -3   0   8   25.20   21.90
   2   0  -8  140.49   42.50
  -2   0   8  181.28   36.80
  -2   0   8  181.08   17.80
   2   0  -8  212.08   30.70
   2   0  -8  119.59   45.30
   2   0  -8  163.28   37.00
   2   0  -8  231.08   35.20
  -2   0   8  205.68   20.20
   1   0  -8  -11.80   20.70
   1   0  -8  -17.90   37.50
   1   0  -8    6.20   35.40
   1   0  -8  -36.80   22.30
   1   0  -8   -0.20   19.60
   0   0  -8   27.30   23.90
   0   0  -8   46.70   37.70
   0   0  -8   36.90   17.90
   0   0  -8   20.80   22.80
   0   0  -8   68.29   37.80
   0   0  -8   30.60   35.80
  -1   0  -8   -1.00   20.80
  -1   0  -8   10.70   26.90
  -1   0  -8   11.10   38.00
  -1   0  -8   22.50   13.10
  -1   0  -8   17.20   14.60
  -1   0  -8    3.30   21.00
  -2   0  -8   82.79   23.20
  -2   0  -8   54.79   22.50
  -2   0  -8   86.69   13.70
  -2   0  -8   58.79   34.00
  -2   0  -8  120.19   44.60
  -3   0  -8   -8.70   43.50
  -3   0  -8  -16.90   10.90
  -3   0  -8  -12.20   25.90
  -3   0  -8   51.79   21.90
  -3   0  -8  -14.60   39.90
  -4   0  -8    7.90   44.90
  -4   0  -8   86.59   60.49
  -4   0  -8  -24.80   33.90
  -4   0  -8   85.39   32.50
  -4   0  -8    9.80   49.50
  -4   0  -8   68.59   16.00
  -5   0  -8  -34.20   34.10
  -5   0  -8   -7.10   68.39
  -6   0  -8  518.05   83.79
   9  -1  -8  111.99   85.69
   9  -1  -8  -34.50   76.39
  -9  -1   8   57.79   69.29
   9   1  -8   24.90   76.09
   9   1  -8  -40.50   81.09
   9   1  -8  155.58   81.09
  -9   1   8   30.30   67.19
  -8  -1   8  102.99   60.19
   8  -1  -8  -13.70   68.19
   8  -1  -8  142.09   70.49
   8  -1  -8   69.69   70.99
   8   1  -8   10.10   69.69
  -8   1   8   63.09   57.79
   8   1  -8   49.00   74.09
   8   1  -8  122.09   66.09
   7  -1  -8  776.62   97.49
  -7  -1   8  607.74   78.59
   7  -1  -8  596.74   86.99
   7  -1  -8  720.43   82.39
   7   1  -8  827.82   94.49
   7   1  -8  759.32   91.79
  -7   1   8  712.93   76.89
   7   1  -8  709.43   91.89
  -6  -1   8  219.58   52.19
   6  -1  -8  158.08   64.59
   6  -1  -8  190.68   54.99
  -6  -1   8   64.39   35.20
   6  -1  -8  102.79   58.89
   6   1  -8  214.98   71.39
   6   1  -8  118.99   59.49
   6   1  -8  142.69   64.59
  -6   1   8  167.58   47.30
  -6   1   8   95.49   26.50
  -5  -1   8 1689.63   73.89
  -5  -1   8 1699.73   84.69
  -5  -1   8 1507.75   98.89
   5  -1  -8 1571.44  112.89
   5  -1  -8 1778.32  105.29
   5  -1  -8 1664.73  108.49
   5  -1  -8 1718.13  101.99
   5   1  -8 1598.44  112.29
   5   1  -8 1728.63  105.39
  -5   1   8 1694.53   91.59
  -5   1   8 1739.33   60.29
   5   1  -8 1601.64  108.89
  -5   1   8 1620.24   81.49
   4  -1  -8  113.69   50.29
   4  -1  -8  102.09   51.29
  -4  -1   8  194.58   40.90
  -4  -1   8  157.88   33.80
   4  -1  -8  192.58   42.30
   4  -1  -8  155.98   47.40
  -4  -1   8  246.38   27.70
   4   1  -8  174.08   38.60
  -4   1   8  201.18   36.20
   4   1  -8  221.28   55.59
  -4   1   8  186.88   16.50
  -4   1   8  154.68   30.80
   4   1  -8  187.18   47.80
  -4   1   8  184.28   43.10
   4   1  -8  187.28   50.09
   3  -1  -8 1099.39   77.69
  -3  -1   8 1188.18   63.69
  -3  -1   8 1200.98   59.19
  -3  -1   8 1242.18   53.49
   3  -1  -8 1248.78   87.99
  -3  -1   8 1129.79   77.79
   3  -1  -8 1165.88   69.19
   3  -1  -8 1139.99   81.69
   3  -1  -8 1246.88   71.59
   3   1  -8 1208.98   87.49
   3   1  -8 1198.28   78.29
   3   1  -8 1149.58   77.59
  -3   1   8 1216.78   70.39
   3   1  -8 1209.38   89.79
   3   1  -8 1207.48   64.69
   2  -1  -8 1776.72   99.19
   2  -1  -8 1720.13   84.39
  -2  -1   8 1792.02   91.99
   2  -1  -8 1852.91   78.39
   2  -1  -8 1870.61   80.19
   2  -1  -8 1747.73   93.79
  -2  -1   8 1796.52   68.69
   2   1  -8 1803.92   72.09
   2   1  -8 1703.73   98.49
   2   1  -8 1762.42   87.89
   2   1  -8 1855.41   82.09
   2   1  -8 1698.13   96.89
  -2   1   8 1906.21   85.69
   1  -1  -8   79.79   17.50
   1  -1  -8  108.89   29.50
   1  -1  -8   80.99   25.40
  -1  -1   8   32.60   21.40
   1  -1  -8  105.29   25.00
   1  -1  -8   49.30   37.40
   1  -1  -8   55.89   35.10
   1   1  -8   69.19   32.60
   1   1  -8  110.49   27.30
   1   1  -8   24.30   40.50
   1   1  -8   66.49   40.90
   1   1  -8   50.29   18.90
   1   1  -8   55.29   29.70
   0  -1  -8 2234.68   79.49
   0  -1  -8 2189.88   99.49
   0  -1  -8 2063.29   78.89
   0  -1  -8 2149.48   76.99
   0  -1  -8 2160.08  103.29
   0   1  -8 2131.99   86.49
   0   1  -8 2186.78   68.29
   0   1  -8 1929.41   81.59
   0   1  -8 2148.19  106.79
  -1  -1  -8  488.85   33.40
  -1  -1  -8  485.55   45.00
  -1  -1  -8  569.44   61.09
  -1  -1  -8  459.05   34.60
  -1   1  -8  443.36   57.69
  -1   1  -8  467.45   46.10
  -1   1  -8  441.86   43.20
  -1   1  -8  489.05   49.40
  -2  -1  -8  348.17   30.50
  -2  -1  -8  339.47   50.99
  -2  -1  -8  314.57   42.60
  -2  -1  -8  296.47   41.70
  -2  -1  -8  324.57   30.10
  -2   1  -8  382.56   43.00
  -2   1  -8  310.47   35.50
  -2   1  -8  379.26   57.89
  -2   1  -8  459.65   49.20
  -3  -1  -8  686.93   42.70
  -3  -1  -8  733.83   48.60
  -3  -1  -8  687.83   76.59
  -3  -1  -8  648.34   67.79
  -3  -1  -8  688.63   40.20
  -3   1  -8  690.33   56.29
  -3   1  -8  696.93   70.39
  -3   1  -8  692.13   84.59
  -4  -1  -8   34.40   24.50
  -4  -1  -8  -62.99   51.99
  -4  -1  -8   15.10   44.80
  -4  -1  -8   23.00   68.89
  -4   1  -8   59.09   30.90
  -4   1  -8  -36.50   51.09
  -4   1  -8    0.70   61.39
  -5  -1  -8  273.27   68.59
  -5  -1  -8  277.57   46.70
  -5  -1  -8  276.67   35.40
  -5   1  -8  221.48   47.20
  -5   1  -8  200.58   72.39
  -6  -1  -8   93.49   69.29
  -6   1  -8  -84.89   48.10
  -6   1  -8   78.89   74.59
  -9  -2   8   14.10   71.39
   9  -2  -8  -73.49   73.09
   9  -2  -8   14.70   86.99
   9  -2  -8   97.89   92.69
  -9  -2   8  -16.40   72.69
   9   2  -8   11.10   72.59
   9   2  -8   18.40   90.59
  -9   2   8  139.19   71.49
   9   2  -8   55.29   81.29
  -8  -2   8   48.80   66.49
   8  -2  -8   74.49   70.09
   8  -2  -8   69.39   72.79
   8  -2  -8  -22.60   73.39
  -8  -2   8    6.20   56.39
   8   2  -8  -20.00   71.49
   8   2  -8   53.39   70.19
   8   2  -8  -21.90   59.49
  -8   2   8   23.80   33.80
  -8   2   8   32.40   56.79
   7  -2  -8   32.00   63.09
  -7  -2   8  -30.00   55.79
   7  -2  -8   19.50   92.89
  -7  -2   8  157.48   59.09
  -7   2   8  -17.50   49.70
   7   2  -8   42.90   71.59
  -7   2   8   -0.60   27.80
   6  -2  -8  -32.60   63.19
   6  -2  -8   19.90   51.39
  -6  -2   8   32.30   44.80
   6  -2  -8   67.39   57.19
  -6  -2   8  -49.99   44.80
  -6  -2   8  -56.69   40.70
   6   2  -8  -66.69   64.59
  -6   2   8  -22.80   17.40
  -6   2   8    4.10   38.90
  -6   2   8   20.40   14.20
   6   2  -8    0.10   56.69
   6   2  -8  -62.99   55.59
   5  -2  -8  198.78   61.29
  -5  -2   8  208.38   45.00
   5  -2  -8  206.38   51.89
  -5  -2   8  237.08   69.89
  -5  -2   8  248.28   45.00
  -5  -2   8  162.98   35.40
   5  -2  -8  242.88   52.89
   5   2  -8  215.68   57.99
   5   2  -8  194.88   61.79
  -5   2   8  139.09   37.40
   5   2  -8  193.08   55.49
  -5   2   8  201.48   48.30
   4  -2  -8   11.20   44.60
   4  -2  -8   32.70   40.10
  -4  -2   8   31.80   41.00
  -4  -2   8   58.69   27.90
   4  -2  -8   56.39   43.00
   4  -2  -8   18.20   47.10
  -4  -2   8   63.59   33.10
  -4   2   8   73.49   38.20
   4   2  -8   20.80   32.10
   4   2  -8   66.49   46.70
  -4   2   8   76.39   31.30
  -4   2   8   47.10   26.30
   4   2  -8   28.80   50.89
   4   2  -8   96.39   47.00
   3  -2  -8  749.23   73.89
   3  -2  -8  706.83   58.59
  -3  -2   8  668.63   47.40
  -3  -2   8  644.94   49.90
   3  -2  -8  650.63   74.39
   3  -2  -8  843.62   66.79
  -3  -2   8  692.53   55.69
  -3   2   8  618.64   59.29
   3   2  -8  699.13   74.49
   3   2  -8  641.54   70.79
  -3   2   8  691.73   39.00
   3   2  -8  695.83   52.29
   3   2  -8  871.41   70.49
  -2  -2   8   42.40   22.90
   2  -2  -8   29.70   36.30
   2  -2  -8   81.89   29.80
   2  -2  -8    6.40   40.30
   2  -2  -8   32.90   32.70
  -2  -2   8   50.09   22.60
  -2  -2   8   41.40   24.00
   2   2  -8   75.09   41.00
   2   2  -8   49.70   42.60
   2   2  -8   39.50   28.10
   2   2  -8   94.09   23.90
   2   2  -8   65.89   31.50
   2   2  -8   16.70   36.90
  -2   2   8   91.49   29.30
   1  -2  -8  605.24   66.79
   1  -2  -8  628.94   47.30
   1  -2  -8  586.84   27.10
  -1  -2   8  571.24   47.10
  -1  -2   8  673.43   43.30
   1  -2  -8  586.64   60.89
   1   2  -8  625.54   54.19
   1   2  -8  589.54   68.89
   1   2  -8  624.64   34.70
   1   2  -8  647.84   70.49
   1   2  -8  654.93   51.59
   1   2  -8  550.44   58.39
   0  -2  -8   37.60   33.10
   0  -2   8   34.40   26.80
   0  -2  -8   55.89   38.90
   0  -2  -8   33.60   20.10
   0   2  -8   51.39   39.40
   0   2  -8    9.00   29.10
   0   2  -8   36.10   30.20
   0   2  -8  -33.70   26.30
  -1  -2  -8  674.13   34.00
  -1  -2  -8  576.94   47.30
  -1  -2  -8  623.54   68.69
  -1  -2  -8  672.43   64.89
  -1   2  -8  588.94   56.39
  -1   2  -8  675.13   55.49
  -1   2  -8  602.54   52.49
  -1   2  -8  594.84   65.29
  -2  -2  -8   37.50   29.10
  -2  -2  -8  104.79   42.50
  -2  -2  -8   -1.40   13.50
  -2  -2  -8   36.00   12.80
  -2  -2  -8   42.00   26.10
  -2   2  -8   65.89   43.90
  -2   2  -8   71.89   40.10
  -2   2  -8    8.40   28.70
  -2   2  -8   51.39   33.30
  -3  -2  -8  885.21   67.69
  -3  -2  -8  949.51   79.69
  -3  -2  -8  967.30   57.69
  -3  -2  -8 1013.40   40.50
  -3  -2  -8  908.61   41.30
  -3   2  -8 1017.80   63.69
  -3   2  -8  996.80   94.39
  -3   2  -8 1124.39   79.89
  -4  -2  -8   49.70   44.90
  -4  -2  -8   41.30   30.10
  -4  -2  -8  -35.90   50.39
  -4  -2  -8   73.39   21.10
  -4   2  -8  -11.00   58.49
  -4   2  -8   70.79   34.20
  -4   2  -8  126.79   60.19
  -5  -2  -8  421.76   73.69
  -5  -2  -8  465.65   56.69
  -5  -2  -8  428.86   49.10
  -5   2  -8  456.45   55.89
  -5   2  -8  450.95   76.39
  -5   2  -8  601.94   87.19
  -6  -2  -8 -130.39   61.39
  -6   2  -8   59.49   70.39
  -6   2  -8   51.79   77.79
  -6   2  -8 -106.29   53.09
   9  -3  -8   36.40   81.29
   9  -3  -8  -70.59   78.89
   9  -3  -8  -14.80   80.69
  -9  -3   8   53.09   72.09
  -9  -3   8  -44.40   69.39
   9   3  -8   82.59   94.29
   9   3  -8   45.80  129.59
  -9   3   8   16.60   77.09
   9   3  -8 -140.59   80.29
   8  -3  -8  187.28   80.39
   8  -3  -8  191.48   91.39
   8  -3  -8  271.37   78.49
  -8  -3   8  124.49   65.59
  -8  -3   8  205.38   67.29
   8   3  -8  231.28   66.19
   8   3  -8  226.38   80.29
   8   3  -8   78.29   74.49
  -8   3   8  199.48   63.39
   7  -3  -8  410.96   85.09
   7  -3  -8  460.05   80.79
  -7  -3   8  273.87   66.79
   7   3  -8  429.26   85.29
   7   3  -8  325.77   80.49
  -7   3   8  329.47   62.19
  -6  -3   8   55.89   46.10
  -6  -3   8  162.68   52.49
   6  -3  -8  177.78   62.69
   6  -3  -8  124.19   63.39
   6  -3  -8   20.00   69.29
   6   3  -8   94.69   66.79
  -6   3   8   68.59   42.30
   6   3  -8  129.49   76.69
   6   3  -8   85.69   58.69
  -5  -3   8 1251.47   81.49
  -5  -3   8 1143.19   75.69
   5  -3  -8 1165.88   91.49
  -5  -3   8 1153.48   75.09
   5  -3  -8 1283.77  100.19
   5  -3  -8 1083.49  107.79
  -5   3   8 1319.47   82.99
   5   3  -8 1103.69   97.59
  -5   3   8 1205.48   70.99
   5   3  -8 1281.97   95.69
  -5   3   8 1147.59   83.29
   5   3  -8 1062.59  109.39
  -4  -3   8   28.40   33.30
   4  -3  -8  -48.00   43.60
   4  -3  -8   40.70   45.70
  -4  -3   8    8.40   30.10
   4  -3  -8   25.30   41.50
  -4  -3   8   52.49   45.90
  -4  -3   8   34.40   32.50
  -4   3   8  -43.00   33.70
   4   3  -8   47.30   46.60
  -4   3   8   33.10   25.90
   4   3  -8   79.69   52.69
   4   3  -8   52.69   35.70
   4   3  -8   72.69   48.40
   3  -3  -8  406.06   60.49
  -3  -3   8  543.75   59.69
   3  -3  -8  449.86   52.79
   3  -3  -8  408.26   48.70
   3  -3  -8  362.46   45.50
   3  -3  -8  338.27   47.80
   3  -3  -8  362.26   57.99
  -3  -3   8  518.45   49.40
  -3  -3   8  436.86   51.39
  -3   3   8  411.76   42.40
   3   3  -8  433.66   57.49
   3   3  -8  349.87   62.69
   3   3  -8  425.46   40.10
   3   3  -8  373.36   53.29
   2  -3  -8 1656.43   79.29
   2  -3  -8 1692.93   74.39
   2  -3  -8 1705.53   96.49
   2  -3  -8 1738.73   85.89
  -2  -3   8 1650.23   70.69
   2  -3  -8 1590.24   96.69
  -2  -3   8 1686.43   77.59
  -2  -3   8 1694.43   74.59
   2  -3  -8 1685.43   83.29
   2   3  -8 1631.04  101.39
   2   3  -8 1660.43   81.19
   2   3  -8 1513.45   88.49
   2   3  -8 1727.43   67.99
   2   3  -8 1714.93   98.69
  -1  -3   8   29.90   27.60
  -1  -3   8  -12.20   19.60
   1  -3  -8  -22.20   37.00
  -1  -3   8    0.70   20.30
   1  -3  -8   18.90   21.70
   1  -3  -8  -42.30   35.60
   1  -3  -8    2.20   30.00
   1   3  -8  -12.10   14.10
   1   3  -8  -30.20   38.00
   1   3  -8  -31.50   32.90
   1   3  -8    0.70   32.00
   1   3  -8   20.00   36.10
   0  -3  -8 2426.16  108.29
   0  -3  -8 2427.26   83.69
   0  -3   8 2418.76   71.39
   0  -3  -8 2482.65   99.69
   0  -3  -8 2457.35   81.69
   0  -3  -8 2403.26   79.39
   0  -3   8 2304.27   98.39
   0   3  -8 2255.47   99.59
   0   3  -8 2302.97  102.39
   0   3  -8 2540.75  119.19
   0   3  -8 2334.97   99.79
   1  -3   8  -35.50   32.70
  -1  -3  -8    1.10   31.80
  -1  -3  -8  -11.00   35.80
  -1  -3  -8   12.20   22.90
  -1  -3  -8    8.70   13.10
  -1   3  -8   21.50   31.10
  -1   3  -8   34.10   46.00
  -1   3  -8  -27.10   33.80
  -1   3  -8   59.79   34.80
  -2  -3  -8  869.91   59.89
  -2  -3  -8  858.41   30.20
  -2  -3  -8  953.30   72.29
  -2  -3  -8  835.12   71.59
  -2  -3  -8  883.91   30.50
  -2  -3  -8  980.10   60.59
  -2  -3  -8 1041.10   72.99
  -2   3  -8  922.81   64.39
  -2   3  -8  947.81   74.09
  -2   3  -8  875.61   88.49
  -3  -3  -8  298.77   48.50
  -3  -3  -8  267.97   50.59
  -3  -3  -8  284.27   45.30
  -3  -3  -8  194.08   38.90
  -3  -3  -8  281.77   19.20
  -3  -3  -8  240.48   19.20
  -3  -3  -8  266.77   38.60
  -3   3  -8  266.17   64.49
  -3   3  -8  274.77   43.60
  -3   3  -8  116.89   49.10
  -4  -3  -8   95.89   19.40
  -4  -3  -8  135.19   53.19
  -4  -3  -8  100.09   46.30
  -4  -3  -8   71.09   35.90
  -4  -3  -8  108.39   33.10
  -4   3  -8  110.09   58.79
  -4   3  -8  126.29   71.39
  -4   3  -8  163.08   43.30
  -5  -3  -8  437.16   54.49
  -5  -3  -8  471.55   75.19
  -5   3  -8  558.64   89.09
  -5   3  -8  585.94   81.19
  -5   3  -8  481.75   60.49
  -6  -3  -8  162.88   68.69
  -6  -3  -8  142.19   60.99
  -6   3  -8  -42.80   78.79
  -6   3  -8  -73.99   65.39
  -6   3  -8  117.19   75.99
   9  -4  -8   23.90   85.99
   9  -4  -8  -92.79   90.19
  -9  -4   8   15.70   72.29
  -9  -4   8   25.40   77.99
   9   4  -8  -23.10   94.49
   9   4  -8  -89.39   80.59
  -9   4   8  146.89   76.19
  -8  -4   8  697.93   84.29
   8  -4  -8  713.53  102.59
   8  -4  -8  664.53   92.49
   8  -4  -8  749.62  100.69
  -8  -4   8  574.54   80.19
   8   4  -8  527.25   85.99
  -8   4   8  775.12   95.39
   8   4  -8  641.04   95.79
   7  -4  -8   47.00   77.59
   7  -4  -8  -16.80   66.39
  -7  -4   8   56.49   54.69
   7  -4  -8  -33.60   67.29
  -7   4   8   -8.70   62.49
   7   4  -8 -107.79   63.59
   7   4  -8  -24.30   70.79
   6  -4  -8  228.78   71.69
  -6  -4   8  227.58   53.59
  -6  -4   8  286.37   62.69
   6  -4  -8  192.38   71.89
   6  -4  -8  220.48   68.39
   6   4  -8  279.67   77.79
   6   4  -8  146.79   80.19
   6   4  -8  178.68   62.29
  -6   4   8  293.27   52.09
  -5  -4   8   30.70   44.70
   5  -4  -8  -42.40   44.80
   5  -4  -8   53.49   58.59
   5  -4  -8   69.79   51.49
  -5  -4   8    2.90   36.30
   5   4  -8  -25.80   59.79
  -5   4   8   62.39   44.50
   5   4  -8   85.39   55.49
  -5   4   8    7.80   32.40
  -5   4   8  -79.99   43.70
   5   4  -8    6.50   48.90
  -4  -4   8  139.19   41.10
   4  -4  -8  216.48   47.60
  -4  -4   8  169.48   38.10
   4  -4  -8  148.59   55.39
  -4  -4   8  130.19   52.49
   4  -4  -8  219.88   54.79
  -4  -4   8  187.58   40.80
   4   4  -8  163.98   50.59
  -4   4   8  184.78   40.10
  -4   4   8  241.18   39.80
   4   4  -8  166.88   61.89
  -4   4   8  174.78   29.10
   4   4  -8  208.68   52.69
   4   4  -8  184.08   41.60
   3  -4  -8   46.20   34.80
  -3  -4   8   79.49   37.00
  -3  -4   8   52.39   42.40
   3  -4  -8   56.79   48.40
   3  -4  -8   31.90   45.30
  -3  -4   8   44.50   27.00
   3  -4  -8   27.10   33.80
   3   4  -8  146.99   30.30
   3   4  -8   58.89   44.40
   3   4  -8   85.89   45.10
  -3   4   8   54.39   27.60
   3   4  -8  -31.60   49.60
  -2  -4   8  719.13   59.69
   2  -4  -8  666.13   59.29
   2  -4  -8  742.33   52.69
   2  -4  -8  889.21   77.69
   2  -4  -8  652.83   67.49
  -2  -4   8  740.53   61.99
   2  -4  -8  632.74   58.19
   2   4  -8  697.73   44.00
   2   4  -8  635.34   64.79
   2   4  -8  783.02   84.19
   2   4  -8  681.53   70.39
   2   4  -8  781.32   79.29
   1  -4  -8   89.99   34.20
   1  -4  -8  124.99   45.80
   1  -4  -8  193.78   29.70
   1  -4  -8  132.99   43.00
   1  -4  -8  201.88   35.10
  -1  -4   8  217.78   37.90
  -1  -4   8  194.28   42.80
   1   4  -8  159.38   44.80
   1   4  -8  217.78   51.89
   1   4  -8  153.08   41.40
   0  -4  -8   15.90   19.90
   0  -4   8   46.70   41.80
   0  -4  -8   67.59   19.20
   0  -4  -8   68.39   15.50
   0  -4  -8    5.70   38.80
   0  -4  -8   33.90   29.60
   0  -4  -8   34.30   38.60
   0  -4   8   39.80   20.50
   0   4  -8   -4.70   36.30
   0   4  -8   29.00   42.20
   0   4  -8  -39.40   36.90
  -1  -4  -8   61.39   37.90
  -1  -4  -8  101.19   15.90
  -1  -4  -8  107.39   40.30
  -1  -4  -8  120.89   24.90
  -1  -4  -8  113.69   31.80
  -1   4  -8   94.19   40.40
  -1   4  -8  144.09   41.90
  -1   4  -8   52.49   48.10
  -2  -4  -8   75.29   37.90
  -2  -4  -8  -32.00   26.30
  -2  -4  -8   13.50    7.90
  -2  -4  -8    9.70   34.50
  -2  -4  -8   17.10   33.40
  -2  -4  -8  -46.20   31.90
  -2  -4  -8   12.00    7.00
  -2   4  -8   59.09   40.80
  -2   4  -8  -69.89   49.90
  -2   4  -8  -24.80   36.50
  -3  -4  -8   44.60   39.20
  -3  -4  -8   28.80   34.20
  -3  -4  -8   57.79   37.20
  -3  -4  -8    0.60   34.20
  -3  -4  -8   18.80   36.70
  -3  -4  -8   28.00    9.30
  -3   4  -8  -30.90   38.50
  -3   4  -8   34.10   51.99
  -3   4  -8   -2.40   61.99
  -4  -4  -8  117.59   41.30
  -4  -4  -8   77.29   49.80
  -4  -4  -8  100.69   43.80
  -4  -4  -8  117.59   34.80
  -4  -4  -8  187.08   53.89
  -4   4  -8  160.38   76.49
  -4   4  -8  180.58   68.69
  -4   4  -8  159.08   47.10
  -5  -4  -8   75.89   45.90
  -5  -4  -8   60.89   45.60
  -5   4  -8    3.10   52.99
  -5   4  -8    2.80   62.89
  -5   4  -8  -55.79   65.99
  -6  -4  -8  387.06   83.19
  -6  -4  -8  592.04   83.39
  -6   4  -8  467.05  100.39
  -6   4  -8  405.36   92.49
  -6   4  -8  673.23  106.09
   8  -5  -8   -0.30   81.99
  -8  -5   8   41.60   71.99
   8  -5  -8  101.69   79.89
  -8  -5   8  -31.40   60.29
   8  -5  -8  -57.69   73.89
   8   5  -8 -145.99   65.99
  -8   5   8   20.50   60.69
   8   5  -8   43.50   79.29
   7  -5  -8  382.16   89.59
  -7  -5   8  392.86   71.79
   7  -5  -8  445.56   83.79
  -7  -5   8  505.35   73.39
   7  -5  -8  441.56   83.79
  -7   5   8  359.16   74.49
   7   5  -8  549.45   90.19
   7   5  -8  478.15   88.49
  -6  -5   8  -32.20   48.10
  -6  -5   8  -84.49   56.89
   6  -5  -8   54.59   65.39
   6  -5  -8   53.99   71.29
  -6   5   8  -43.20   43.70
   6   5  -8   36.60   59.99
   5  -5  -8 1958.60  130.99
   5  -5  -8 1702.43  129.49
  -5  -5   8 1963.20   95.69
   5  -5  -8 1885.21  112.49
   5   5  -8 1896.21  128.99
  -5   5   8 1869.01   87.29
  -5   5   8 1796.52  100.39
  -5   5   8 1908.11   96.59
   5   5  -8 1846.12  144.39
   5   5  -8 1872.41  114.19
   4  -5  -8   18.10   41.40
   4  -5  -8  -10.90   46.80
   4  -5  -8    7.60   53.59
  -4  -5   8    1.80   32.30
  -4   5   8  -47.20   28.80
  -4   5   8   -2.90   31.10
   4   5  -8   56.39   41.40
  -4   5   8   54.89   25.20
   4   5  -8  -94.09   57.09
   4   5  -8   34.80   51.29
   4   5  -8  -23.20   43.20
   3  -5  -8 1015.80   73.69
   3  -5  -8  842.52   91.69
  -3  -5   8  855.71   75.99
   3  -5  -8  854.51   88.09
  -3  -5   8  867.41   55.99
  -3  -5   8  858.31   68.29
   3   5  -8  812.52   99.79
   3   5  -8  904.81   61.89
   3   5  -8  870.11   83.49
   3   5  -8  884.81   86.99
   2  -5  -8  626.74   57.29
  -2  -5   8  557.74   65.59
  -2  -5   8  590.24   60.89
   2  -5  -8  536.55   63.59
   2  -5  -8  562.34   55.59
   2  -5  -8  574.14   65.99
  -2  -5   8  602.34   53.89
   2   5  -8  634.84   62.99
   2   5  -8  540.75   63.19
   2   5  -8  571.14   66.19
   2   5  -8  515.55   69.09
   1  -5  -8   38.00   41.30
   1  -5  -8  -17.90   25.30
   1  -5  -8    8.90   44.20
  -1  -5   8   28.70   33.30
  -1  -5   8  -12.30   30.20
   1   5  -8   57.09   41.50
   1   5  -8    0.50   45.00
   1   5  -8   48.90   43.80
   0  -5  -8  731.73   73.89
   0  -5  -8  700.43   44.30
   0  -5  -8  686.63   44.80
   0  -5  -8  704.33   36.50
   0  -5   8  667.53   51.99
   0  -5  -8  720.53   32.80
   0  -5   8  654.93   59.89
   0  -5  -8  787.82   73.29
   0  -5  -8  729.93   51.59
   0   5  -8  591.64   73.39
   0   5  -8  774.12   70.49
   0   5  -8  844.82   87.19
  -1  -5  -8  183.08   21.20
  -1  -5  -8  229.48   49.90
   1  -5   8   88.19   24.50
   1  -5   8  140.99   26.80
  -1  -5  -8  142.29   25.50
  -1  -5  -8  165.08   21.50
  -1  -5  -8  174.88   32.70
  -1  -5  -8  192.18   41.20
  -1   5  -8  143.19   46.40
  -1   5  -8   85.59   55.39
  -1   5  -8  198.68   47.60
  -2  -5  -8  365.56   48.20
  -2  -5  -8  340.97   24.20
  -2  -5  -8  297.67   44.10
  -2  -5  -8  317.27   22.60
  -2  -5  -8  388.46   48.90
  -2  -5  -8  346.47   40.80
  -2  -5  -8  363.26   40.60
  -2   5  -8  390.76   75.29
  -2   5  -8  340.57   55.69
  -2   5  -8  348.47   61.19
  -3  -5  -8  531.05   65.69
  -3  -5  -8  455.45   51.19
  -3  -5  -8  430.06   50.09
  -3  -5  -8  471.65   24.10
  -3  -5  -8  474.25   59.09
  -3  -5  -8  469.05   55.49
  -3   5  -8  390.96   71.29
  -3   5  -8  433.26   58.79
  -3   5  -8  568.44   82.99
  -4  -5  -8  168.18   48.70
  -4  -5  -8  165.58   40.80
  -4  -5  -8  137.49   37.60
  -4  -5  -8  195.58   53.79
  -4  -5  -8  145.09   49.70
  -4   5  -8  189.08   66.29
  -4   5  -8  180.48   71.39
  -4   5  -8  217.98   58.89
  -5  -5  -8  435.46   88.49
  -5  -5  -8  440.76   73.89
  -5   5  -8  521.15   86.89
  -5   5  -8  450.05   79.09
  -5   5  -8  536.35   93.89
  -6  -5  -8  -68.49   64.29
  -6  -5  -8    1.90   75.09
  -6   5  -8    2.70   85.89
  -6   5  -8  -43.40   82.59
  -6   5  -8   -0.90   76.49
   8  -6  -8  -16.90   84.29
  -8  -6   8  114.19   71.39
   8  -6  -8   10.90   84.89
   8  -6  -8  163.78   84.69
  -8  -6   8  101.29   74.89
  -8   6   8  196.68   70.49
   8   6  -8   -4.90   86.39
   8   6  -8   21.60   71.59
   7  -6  -8   18.90   79.19
   7  -6  -8 -100.49   71.39
  -7  -6   8  -35.40   58.09
   7  -6  -8   62.29   71.19
  -7  -6   8   44.50   65.89
   7   6  -8  -49.90   72.49
   7   6  -8   55.29   76.09
  -7   6   8   69.49   62.59
  -6  -6   8  135.89   61.29
   6  -6  -8  258.67   77.69
   6  -6  -8  247.88   75.49
   6   6  -8  181.98   70.49
   6   6  -8  112.99   71.79
  -6   6   8  148.09   50.19
   6   6  -8   85.89   75.09
  -5  -6   8  121.79   44.10
   5  -6  -8  173.08   64.89
   5  -6  -8  146.69   74.79
   5  -6  -8  234.38   76.39
   5   6  -8  412.16   87.79
  -5   6   8  237.98   40.20
   5   6  -8  139.09   73.79
   5   6  -8  268.67   65.59
  -4  -6   8   88.59   35.50
   4  -6  -8   46.50   63.09
  -4  -6   8   16.00   49.99
   4  -6  -8  -42.70   52.19
   4  -6  -8   56.49   48.70
   4   6  -8   23.80   58.09
  -4   6   8   40.30   27.80
   4   6  -8  133.99   50.39
  -4   6   8   36.40   26.10
  -4   6   8   16.50   26.70
   4   6  -8   -5.70   69.59
   3  -6  -8  416.46   69.09
   3  -6  -8  494.35   68.59
  -3  -6   8  503.95   58.69
   3  -6  -8  567.84   67.49
  -3  -6   8  427.66   42.80
   3   6  -8  381.46   75.39
   3   6  -8  447.66   68.19
   3   6  -8  408.36   60.49
  -2  -6   8  -11.40   50.49
   2  -6  -8   36.80   45.50
   2  -6  -8  -32.70   44.30
   2  -6  -8  -15.90   30.70
  -2  -6   8   26.00   24.40
  -2  -6   8   -5.70   34.40
   2   6  -8  -17.20   43.20
   2   6  -8 -102.79   52.69
   2   6  -8   32.20   44.50
   2   6  -8   61.49   47.20
  -1  -6   8   31.40   43.20
   1  -6  -8  115.29   48.80
  -1  -6   8  188.98   40.20
   1  -6  -8   62.59   33.60
   1  -6  -8   61.89   43.20
   1  -6  -8  158.68   33.40
   1   6  -8  184.68   50.69
   1   6  -8  161.48   50.99
   1   6  -8  171.88   61.19
   0  -6   8   -3.20   32.30
   0  -6  -8   -0.40   13.60
   0  -6  -8   -5.10   25.90
   0  -6  -8  -15.80   44.40
   0  -6  -8   94.49   41.20
   0  -6  -8  -20.40   16.80
   0  -6   8  -21.80   36.50
   0  -6  -8    8.10   16.50
   0   6  -8   15.30   44.40
   0   6  -8   48.50   52.49
   0   6  -8   43.10   43.10
  -1  -6  -8  528.25   36.60
  -1  -6  -8  557.44   60.99
  -1  -6  -8  532.35   43.70
  -1  -6  -8  490.75   41.60
  -1  -6  -8  555.74   63.89
   1  -6   8  516.65   52.19
   1  -6   8  559.74   52.59
  -1   6  -8  522.75   77.59
  -1   6  -8  455.15   60.69
  -1   6  -8  453.75   64.19
   2  -6   8  125.29   28.90
  -2  -6  -8  217.78   33.60
  -2  -6  -8  210.68   37.90
  -2  -6  -8  194.48   48.40
  -2  -6  -8  191.18   44.80
  -2  -6  -8  226.08   23.00
  -2   6  -8  264.27   55.79
  -2   6  -8  243.08   71.49
  -2   6  -8  217.98   63.89
  -3  -6  -8  664.63   68.39
  -3  -6  -8  762.92   74.39
  -3  -6  -8  819.72   65.89
  -3  -6  -8  724.43   65.69
  -3   6  -8  786.42   94.39
  -3   6  -8  632.14   76.89
  -4  -6  -8   14.80   60.49
  -4  -6  -8   -1.60   53.89
  -4  -6  -8   62.59   46.80
  -4  -6  -8  -16.30   35.80
  -4   6  -8   -8.80   63.99
  -4   6  -8   -7.70   70.59
  -4   6  -8 -117.79   67.49
  -5  -6  -8  509.35   70.69
  -5  -6  -8  635.04   82.49
  -5   6  -8  564.54   84.29
  -5   6  -8  570.14   90.29
  -5   6  -8  488.65   95.59
  -7  -7   8  151.28   73.59
  -7  -7   8   43.30   66.19
   7  -7  -8   93.99   73.89
   7  -7  -8  232.08   89.49
   7  -7  -8   40.30   81.39
  -7   7   8  179.68   61.69
   7   7  -8  140.79   89.99
   7   7  -8  100.19   83.39
   6  -7  -8   47.30   68.39
   6  -7  -8  180.68   78.69
   6  -7  -8  -84.09   68.19
  -6  -7   8   -7.20   85.89
  -6   7   8    4.70   53.19
   6   7  -8 -128.89   70.69
   6   7  -8   32.30   73.09
   6   7  -8   54.49   84.19
   5  -7  -8  586.04   92.19
   5  -7  -8  528.05   85.89
  -5  -7   8  597.24   79.49
  -5  -7   8  511.75   64.99
   5  -7  -8  593.24  129.09
   5   7  -8  498.55   74.39
   5   7  -8  561.54   96.89
   5   7  -8  566.54   86.19
  -4  -7   8  260.67   47.00
  -4  -7   8  254.27   63.79
   4  -7  -8  322.47   58.09
   4  -7  -8  252.97   73.79
   4  -7  -8  268.17   75.09
   4   7  -8  416.06   91.99
  -4   7   8  365.46   40.40
   4   7  -8  431.46   65.49
   4   7  -8  366.46   78.89
  -3  -7   8  107.79   35.00
   3  -7  -8   89.49   43.90
  -3  -7   8  102.59   49.60
   3  -7  -8  148.89   69.69
   3  -7  -8  171.18   59.59
   3   7  -8  118.99   67.69
   3   7  -8   75.89   54.19
   3   7  -8  135.49   76.79
   2  -7  -8 1029.00   99.89
   2  -7  -8 1181.58   93.69
  -2  -7   8  965.10   57.69
   2  -7  -8 1053.19   74.29
  -2  -7   8 1071.79   79.59
   2   7  -8 1160.98   94.99
   2   7  -8 1054.39  100.19
   2   7  -8 1025.10  114.49
   1  -7  -8  -27.20   40.30
   1  -7  -8   13.60   30.30
  -1  -7   8  100.19   55.99
   1  -7  -8  -10.20   49.70
  -1  -7   8   42.70   39.80
  -1  -7   8  -12.10   16.60
   1   7  -8   22.80   51.69
   1   7  -8  -68.59   60.59
   1   7  -8   81.09   54.49
   0  -7  -8 1720.83   93.29
   0  -7  -8 1696.33  105.29
   0  -7   8 1553.74   96.29
   0  -7  -8 1772.72   60.89
   0  -7  -8 1734.03   58.29
   0  -7  -8 1644.34   75.99
   0  -7  -8 1642.54   79.69
   0  -7   8 1729.83   90.69
   0   7  -8 1668.63  127.59
   0   7  -8 1552.04  108.39
   0   7  -8 1822.12  111.69
   1  -7   8   66.79   38.00
  -1  -7  -8   68.39   45.10
  -1  -7  -8   37.60   34.80
  -1  -7  -8   99.29   41.20
  -1   7  -8   37.20   61.99
  -1   7  -8  101.09   67.49
  -1   7  -8  115.49   56.29
  -2  -7  -8  963.70   67.19
  -2  -7  -8  842.42   48.80
   2  -7   8  949.01   66.19
  -2  -7  -8  709.33   78.89
  -2  -7  -8  833.22   97.69
  -2   7  -8  825.72  100.49
  -3  -7  -8  225.98   45.80
  -3  -7  -8  171.28   36.60
  -3  -7  -8  340.67   67.29
   3  -7   8  274.37   35.70
  -3   7  -8  124.99   62.09
  -3   7  -8  125.69   70.69
  -3   7  -8  262.77   79.59
  -4  -7  -8   82.79   69.89
  -4   7  -8 -142.09   72.29
  -4   7  -8   71.59   68.19
  -4   7  -8   65.39   65.39
  -5  -7  -8   86.69   66.09
  -5   7  -8  230.08   80.09
  -5   7  -8  155.08   80.39
  -5   7  -8  310.97   95.19
   7  -8  -8   34.90   88.19
  -7  -8   8  -38.90   67.89
   7  -8  -8 -117.49   81.49
   7  -8  -8  -19.00   91.29
   7   8  -8  -49.99   80.59
   7   8  -8  -39.30   83.59
  -7   8   8 -127.89   62.69
   6  -8  -8  320.07   88.89
  -6  -8   8  200.48   63.39
   6  -8  -8  328.07   82.79
   6  -8  -8  380.06   92.99
   6   8  -8  299.97   86.69
  -6   8   8  332.97   69.09
   6   8  -8  241.88   90.99
   6   8  -8  402.66   89.69
  -5  -8   8   52.59   67.09
  -5  -8   8  -19.70   59.89
   5  -8  -8  126.39   73.99
   5  -8  -8   15.00   68.59
   5   8  -8   96.59   83.49
  -5   8   8    6.50   38.90
   5   8  -8   56.59   78.09
   5   8  -8   -1.70   65.19
   4  -8  -8  485.55   83.89
   4  -8  -8  559.04   77.79
  -4  -8   8  375.96   74.89
   4  -8  -8  424.96   80.09
  -4  -8   8  298.67   49.90
   4   8  -8  305.37   66.59
   4   8  -8  388.76   92.39
   4   8  -8  410.26   78.69
  -3  -8   8   82.09   62.49
   3  -8  -8    0.00   45.70
   3  -8  -8  -40.90   58.49
  -3  -8   8  -30.20   33.20
   3   8  -8 -127.99  100.59
   3   8  -8   21.70   56.29
   2  -8  -8   56.29   40.80
  -2  -8   8   45.10   56.19
  -2  -8   8   25.00   29.30
   2  -8  -8   94.29   65.69
   2  -8  -8   26.50   48.00
   2   8  -8  138.89   77.19
   2   8  -8   10.90   66.79
   2   8  -8   60.09   55.99
   1  -8  -8  277.47   42.50
   1  -8  -8  243.08   69.69
   1  -8  -8  263.17   51.19
  -1  -8   8  311.07   58.19
   1   8  -8  289.87   73.49
   1   8  -8  257.37   68.79
   1   8  -8  239.48   78.49
   0  -8  -8   -2.80   30.60
   0  -8  -8 -118.79   52.19
   0  -8  -8  -51.49   36.50
   0  -8   8  -37.50   42.50
   0   8  -8   19.30   64.39
   0   8  -8   54.49   72.99
   0   8  -8   -1.80   63.79
  -1  -8  -8  113.49   33.10
  -1  -8  -8   18.10   51.99
   1  -8   8   64.69   47.20
  -1  -8  -8   97.79   37.50
  -1   8  -8   11.80  122.19
  -1   8  -8   62.79   68.99
  -2  -8  -8  -39.90   45.30
   2  -8   8   15.80   41.10
  -2   8  -8  -71.09   57.09
  -2   8  -8   52.39   68.49
   3  -8   8   68.79   40.10
  -3  -8  -8   -7.90   56.09
  -3  -8  -8   69.19   48.50
  -3   8  -8   67.79   65.69
  -3   8  -8  182.58   69.79
  -3   8  -8   81.59   76.39
  -4  -8  -8  164.98   69.49
  -4   8  -8 -151.18   71.69
  -4   8  -8   29.40   71.59
  -4   8  -8  182.78   88.69
   6  -9  -8   44.70   78.59
   6  -9  -8  -74.19   91.79
  -6  -9   8 -105.99   67.29
   6  -9  -8   16.80   84.29
  -6  -9   8   25.20   77.99
   6   9  -8  -48.00   79.69
   6   9  -8  155.68   95.69
  -6   9   8   49.80   66.79
   6   9  -8   43.80   93.39
  -5  -9   8  653.43   91.39
   5  -9  -8  723.93   98.59
   5  -9  -8  886.71   97.89
   5  -9  -8  886.61  109.99
   5   9  -8  738.63   95.09
   5   9  -8  683.83  108.89
   5   9  -8  821.72  103.09
  -4  -9   8   51.89   67.19
   4  -9  -8   -8.80   68.09
   4  -9  -8  -44.60   71.89
  -4  -9   8   69.39   50.29
   4   9  -8   81.19   72.69
   4   9  -8   38.50   73.49
   4   9  -8   63.29   82.49
   3  -9  -8  664.23   94.99
  -3  -9   8  954.30  104.29
   3  -9  -8  987.10  110.69
   3  -9  -8  750.62   93.99
  -3  -9   8  892.71   74.49
   3   9  -8  997.00  115.49
   3   9  -8  827.72  103.99
   3   9  -8  943.91  116.19
  -2  -9   8  500.65   57.09
   2  -9  -8  476.55   85.39
   2  -9  -8  333.67   60.19
   2  -9  -8  705.53   76.19
  -2  -9   8  361.56  107.29
   2   9  -8  456.45   93.89
   2   9  -8  540.15   85.49
   2   9  -8  473.05   84.39
   1  -9  -8   61.99   44.60
   1  -9  -8  122.79   41.50
  -1  -9   8   48.00   55.49
   1   9  -8  127.09   68.09
   1   9  -8   41.90   75.89
   1   9  -8  157.58   70.19
   0  -9  -8  447.06   78.69
   0  -9  -8  445.56   51.69
   0  -9  -8  320.17   47.70
   0  -9   8  393.46   67.29
   0   9  -8  464.55   83.29
   0   9  -8  259.37   80.09
   0   9  -8  497.65   78.99
   1  -9   8  221.18   61.89
  -1  -9  -8  281.07   44.30
  -1  -9  -8  189.58   70.39
  -1   9  -8  274.07   74.79
  -1   9  -8  262.77   78.19
  -1   9  -8  150.18   70.69
  -2  -9  -8   -8.90   64.29
   2  -9   8   -5.50   60.29
  -2  -9  -8   -8.30   58.09
  -2   9  -8   13.60   67.29
  -2   9  -8    4.60   72.59
  -2   9  -8  -57.39   71.09
  -3  -9  -8  311.87   63.39
  -3  -9  -8  254.47   72.39
   3  -9   8  214.08   63.39
  -3   9  -8  366.46   89.79
  -3   9  -8  362.96   83.49
  -3   9  -8  385.36   89.59
   5 -10  -8   17.20   76.69
  -5 -10   8   35.30   71.79
   5 -10  -8  145.69   95.29
   5 -10  -8   58.99   77.79
  -5 -10   8  140.99   66.09
   5  10  -8  -24.30   89.99
   5  10  -8   93.39   90.69
   5  10  -8    2.00   84.39
   4 -10  -8  -66.19   79.49
   4 -10  -8  -69.39   63.89
  -4 -10   8  105.69   63.79
   4 -10  -8   81.99   71.39
  -4 -10   8  137.29   71.49
   4  10  -8  225.18   87.39
   4  10  -8  -28.00   74.29
   4  10  -8  209.68   88.09
   3 -10  -8  181.28   75.19
   3 -10  -8  156.08   72.99
   3 -10  -8  212.48   81.79
  -3 -10   8  222.98   68.49
  -3 -10   8  224.98   50.09
   3  10  -8  202.38   76.69
   3  10  -8  152.58   81.49
   3  10  -8   42.60   84.49
   2 -10  -8  -56.99   52.59
  -2 -10   8  -11.40   37.90
   2 -10  -8   26.80   73.79
  -2 -10   8  -70.09   55.99
   2 -10  -8  -51.69   53.19
   2  10  -8 -118.39   71.89
   2  10  -8  -15.70   72.69
   1 -10  -8  393.66   80.89
  -1 -10   8  367.96   70.69
   1 -10  -8  244.88   54.99
   1 -10  -8  401.16   58.19
   1  10  -8  213.98   80.99
   1  10  -8  174.78   84.49
   1  10  -8  355.56   80.79
   0 -10  -8  -10.80   45.60
   0 -10  -8  -41.20   64.09
   0 -10   8   40.30   60.89
   0  10  -8   80.69   73.49
   0  10  -8   87.09   77.39
   0  10  -8   31.50   75.19
  -1 -10  -8   10.90   76.79
   1 -10   8  113.29   60.59
  -1  10  -8  240.18   79.79
  -1  10  -8   94.49   73.59
  -1  10  -8   98.99   81.99
   2 -10   8   19.70   59.99
  -2 -10  -8   -6.10   68.19
  -2 -10  -8  -84.79   78.89
  -2  10  -8    6.40   79.59
  -2  10  -8 -174.18   72.39
  -2  10  -8 -187.58   73.29
  -4 -11   8  -37.50   73.59
   4 -11  -8  188.48   92.39
  -4 -11   8   27.40   65.49
   4 -11  -8  -24.40   74.79
   4  11  -8  251.47   95.39
   4  11  -8  301.97  105.19
   4  11  -8  212.88  115.29
  -3 -11   8  113.49   78.89
   3 -11  -8  145.39   96.69
   3 -11  -8  290.47   75.29
   3  11  -8    1.90   95.49
   3  11  -8  172.48   73.79
   3  11  -8   81.89   86.39
  -2 -11   8  610.74   85.49
   2 -11  -8  734.03  105.89
   2  11  -8  675.73  105.99
   2  11  -8  455.25  100.19
   2  11  -8  689.93   92.19
   1 -11  -8  110.29   74.29
  -1 -11   8    6.60   66.09
   1 -11  -8 -113.99   71.39
   1  11  -8  -29.10   78.19
   1  11  -8    9.00   83.09
   0 -11  -8 1311.97  129.29
   0 -11  -8 1397.46  126.89
   0 -11   8 1314.07  116.09
   0  11  -8 1185.58  136.99
   0  11  -8 1408.46  149.99
   0  11  -8 1232.28  144.39
  -1 -11  -8  -32.10   64.59
   1 -11   8 -111.89   67.29
  -1  11  -8   41.40   84.99
  -1  11  -8  163.18   95.19
  -1  11  -8  169.28   85.69
   9   0  -9   23.50   91.19
   9   0  -9   -0.30   90.59
   9   0  -9   69.69   79.09
  -9   0   9   57.29   69.29
   8   0  -9   -2.30   77.39
   8   0  -9  -26.10   73.39
  -8   0   9  -89.49   55.29
   7   0  -9  432.46   87.79
   7   0  -9  556.24   84.39
   7   0  -9  490.65   88.29
  -7   0   9  425.26   74.59
  -6   0   9  -61.09   40.70
   6   0  -9   59.79   70.69
   6   0  -9 -125.09   53.79
   6   0  -9   66.19   64.89
   5   0  -9  388.46   68.19
  -5   0   9  266.17   51.79
  -5   0   9  333.87   46.10
   5   0  -9  222.48   57.29
   5   0  -9  326.87   68.59
   4   0  -9 -104.59   40.50
  -4   0   9   51.09   17.00
  -4   0   9   16.60   34.10
   4   0  -9  -36.00   50.59
  -4   0   9    6.10   26.90
   4   0  -9  113.29   54.59
  -3   0   9  395.96   38.00
  -3   0   9  494.65   36.90
   3   0  -9  447.56   48.10
   3   0  -9  372.26   52.09
   3   0  -9  376.26   60.89
   3   0  -9  436.06   63.09
   2   0  -9  -21.90   27.10
   2   0  -9   -4.90   41.70
   2   0  -9  -18.30   30.20
   2   0  -9    2.30   34.70
   2   0  -9   19.30   42.00
   1   0  -9 1160.58   55.59
   1   0  -9  956.50   62.49
   1   0  -9 1251.87   83.99
   1   0  -9 1054.99   85.99
   1   0  -9 1051.09   68.19
   0   0  -9   37.00   26.10
   0   0  -9  -33.30   39.40
   0   0  -9    8.00   27.60
   0   0  -9   11.40   19.50
   0   0  -9   16.60   41.30
  -1   0  -9  577.94   29.80
  -1   0  -9  650.13   31.70
  -1   0  -9  487.15   50.19
  -1   0  -9  559.84   65.19
  -1   0  -9  634.14   56.19
  -2   0  -9  -56.39   28.70
  -2   0  -9  -79.79   34.90
  -2   0  -9   -6.70   28.10
  -2   0  -9   24.60   48.00
  -3   0  -9  966.00   80.99
  -3   0  -9  842.32   75.49
  -3   0  -9  960.10   98.89
  -4   0  -9   16.30   34.20
  -4   0  -9  -87.79   63.49
  -4   0  -9  -73.99   58.89
  -5   0  -9   -4.60   62.29
  -5   0  -9  -18.50   67.09
  -6   0  -9   78.59   86.09
   9  -1  -9  305.07  101.99
   9  -1  -9  499.75   94.49
   9  -1  -9  345.27   95.19
  -9  -1   9  358.96   84.29
   9   1  -9  137.99   97.29
   9   1  -9  364.16  100.89
  -9   1   9  308.27   83.89
   9   1  -9  479.05   85.49
   8  -1  -9  -80.29   76.39
   8  -1  -9  113.89   79.79
  -8  -1   9   66.99   62.59
   8  -1  -9   85.39   73.59
   8   1  -9   24.20   73.99
   8   1  -9  -11.60   72.39
  -8   1   9  103.39   62.99
   7  -1  -9 1070.99  125.29
   7  -1  -9 1184.38  126.79
   7  -1  -9  968.10  105.49
  -7   1   9  911.51   97.19
   7   1  -9  769.42   93.09
   7   1  -9  915.31  105.79
   7   1  -9  990.10  120.89
   6  -1  -9  538.35   83.79
  -6  -1   9  371.56   59.29
   6  -1  -9  446.16   74.39
   6  -1  -9  468.85   86.69
   6   1  -9  486.65   93.49
  -6   1   9  547.45   60.39
   6   1  -9  384.66   79.79
   6   1  -9  257.97   79.49
  -5  -1   9  299.07   47.50
  -5  -1   9  150.28   54.39
  -5  -1   9  273.97   34.60
   5  -1  -9  175.38   60.09
   5  -1  -9  289.27   66.09
   5  -1  -9  214.28   57.19
   5  -1  -9  259.87   72.69
  -5   1   9  300.57   49.60
   5   1  -9  239.48   70.69
  -5   1   9  297.67   42.80
   5   1  -9  305.77   66.09
   5   1  -9  271.47   69.09
  -4  -1   9 1405.86   61.89
   4  -1  -9 1337.97   90.69
   4  -1  -9 1492.45  108.19
  -4  -1   9 1268.07   70.89
  -4  -1   9 1413.26   79.89
   4  -1  -9 1464.75  104.99
   4   1  -9 1405.66   94.99
   4   1  -9 1262.47  108.69
  -4   1   9 1315.87   64.29
   4   1  -9 1336.57  103.79
   4   1  -9 1411.16   84.99
   3  -1  -9  111.49   51.39
  -3  -1   9   60.69   24.40
   3  -1  -9   40.50   40.90
  -3  -1   9   68.99   29.60
  -3  -1   9   38.20   21.80
   3  -1  -9   85.99   38.80
   3  -1  -9  103.89   50.39
   3   1  -9  132.79   34.20
   3   1  -9  103.09   52.09
   3   1  -9  149.19   50.19
   3   1  -9   71.69   45.90
  -3   1   9  142.59   44.60
   2  -1  -9  752.52   62.79
   2  -1  -9  666.13   76.99
  -2  -1   9  803.42   45.40
   2  -1  -9  635.64   61.39
   2  -1  -9  784.22   59.29
   2  -1  -9  743.43   76.59
   2   1  -9  767.32   79.99
   2   1  -9  746.13   49.90
   2   1  -9  623.04   77.29
   2   1  -9  679.73   68.29
   1  -1  -9  364.16   53.19
   1  -1  -9  397.36   33.40
   1  -1  -9  396.56   47.90
   1  -1  -9  430.36   48.00
   1  -1  -9  368.16   37.30
   1  -1  -9  375.36   57.29
   1   1  -9  382.76   44.90
   1   1  -9  346.37   56.99
   1   1  -9  334.87   41.90
   1   1  -9  398.76   43.70
   1   1  -9  490.35   60.19
   1   1  -9  443.96   46.10
   0  -1  -9  794.22   49.20
   0  -1  -9  766.92   49.60
   0  -1  -9  878.41   76.39
   0  -1  -9  744.33   76.49
   0   1  -9  605.04   75.99
   0   1  -9  824.12   56.39
   0   1  -9  749.73   32.40
   0   1  -9  821.92   79.39
   0   1  -9  706.03   58.89
   0   1  -9  799.02   61.39
  -1  -1  -9  509.85   60.29
  -1  -1  -9  611.14   41.50
  -1  -1  -9  584.84   44.80
  -1  -1  -9  603.14   72.99
  -1  -1  -9  712.83   44.00
  -1  -1  -9  687.43   78.39
  -1  -1  -9  586.94   50.89
  -1   1  -9  708.23   61.19
  -1   1  -9  601.84   54.89
  -1   1  -9  678.53   80.29
  -1   1  -9  610.94   52.29
  -2  -1  -9  214.18   27.80
  -2  -1  -9  163.48   25.00
  -2  -1  -9  176.18   53.09
  -2  -1  -9  189.78   41.90
  -2   1  -9  193.88   37.30
  -2   1  -9  179.18   56.99
  -2   1  -9  232.98   46.40
  -2   1  -9  193.78   34.00
  -3  -1  -9  457.65   68.89
  -3  -1  -9  411.86   41.60
  -3  -1  -9  507.95   57.59
  -3   1  -9  532.85   62.19
  -3   1  -9  579.94   56.49
  -3   1  -9  533.35   78.79
  -4  -1  -9   -2.90   58.09
  -4  -1  -9   74.49   29.10
  -4  -1  -9   26.50   64.59
  -4   1  -9   42.60   36.90
  -4   1  -9  152.98   64.99
  -4   1  -9  153.88  115.89
  -5  -1  -9  103.59   75.49
  -5  -1  -9  323.47   74.39
  -5   1  -9  250.97   78.99
  -5   1  -9  219.88   73.19
  -6  -1  -9   33.20   83.29
  -6  -1  -9   31.90   79.39
  -6   1  -9  220.78   96.39
  -6   1  -9  157.38   88.89
   9  -2  -9  -45.40   77.39
   9  -2  -9   90.99   95.09
  -9  -2   9   96.09   77.69
   9  -2  -9  -50.69   83.69
  -9   2   9  -49.99   70.49
   9   2  -9   88.09   74.69
   9   2  -9  -34.20   85.49
   9   2  -9 -122.29   86.69
  -8  -2   9  568.84   76.79
   8  -2  -9  474.05   85.09
   8  -2  -9  384.16   85.39
   8  -2  -9  484.25   94.99
   8   2  -9  431.16   94.49
  -8   2   9  533.35   79.69
   8   2  -9  370.86   92.29
   7  -2  -9   30.50   65.89
   7  -2  -9  -74.89   68.09
  -7  -2   9   42.90   60.79
  -7   2   9  -24.40   59.59
   7   2  -9  133.79   77.19
   7   2  -9   30.90   66.59
   6  -2  -9  357.76   86.69
   6  -2  -9  434.66   81.69
   6  -2  -9  387.96   79.79
  -6  -2   9  452.25   67.99
   6   2  -9  327.47   79.59
   6   2  -9  319.27   79.19
  -6   2   9  243.68   50.19
   6   2  -9  393.76   88.39
   5  -2  -9    7.00   47.00
   5  -2  -9    9.30   54.29
  -5  -2   9   -4.90   36.00
  -5  -2   9  -51.79   70.39
  -5  -2   9  -33.80   35.50
   5  -2  -9  -46.70   58.79
   5   2  -9   22.50   57.99
   5   2  -9   23.60   56.19
  -5   2   9    7.20   32.20
  -5   2   9  -13.30   43.60
   5   2  -9   19.30   63.39
  -4  -2   9  -10.30   44.20
   4  -2  -9  -33.80   46.90
   4  -2  -9    1.70   44.00
   4  -2  -9   17.40   49.60
  -4  -2   9   -7.10   33.00
   4  -2  -9   -9.30   46.30
  -4  -2   9    6.70   29.80
   4   2  -9    2.50   42.50
  -4   2   9   49.50   24.30
   4   2  -9  137.39   55.69
   4   2  -9   10.90   52.99
  -4   2   9   -7.00   28.00
   4   2  -9   35.20   51.09
   3  -2  -9  -22.50   33.80
  -3  -2   9  -14.40   25.40
   3  -2  -9   33.80   44.40
   3  -2  -9   26.90   46.20
   3  -2  -9   30.60   47.20
  -3  -2   9  -28.40   30.40
  -3  -2   9  -27.50   26.80
   3   2  -9   30.20   32.60
   3   2  -9  -14.90   40.40
  -3   2   9   51.69   36.90
   3   2  -9  -24.50   44.00
   3   2  -9  -35.40   48.20
  -2  -2   9   36.30   19.90
   2  -2  -9   87.49   33.60
   2  -2  -9  -42.40   31.40
   2  -2  -9  -92.79   33.80
  -2  -2   9  -46.20   18.80
   2  -2  -9   90.49   46.70
   2  -2  -9  -28.70   38.30
  -2  -2   9   57.79   26.60
   2   2  -9  -17.00   44.00
   2   2  -9    5.60   25.00
   2   2  -9   45.50   47.40
   2   2  -9   -2.20   39.10
   1  -2  -9   41.20   31.70
  -1  -2   9   31.10   28.40
   1  -2  -9  -28.70   41.90
   1  -2  -9  100.49   41.60
   1  -2  -9   74.39   29.50
   1   2  -9   63.09   40.50
   1   2  -9   40.10   17.30
   1   2  -9  101.29   48.10
   1   2  -9   69.09   30.10
   1   2  -9   56.09   35.80
   0  -2  -9   35.50   37.80
   0  -2  -9   73.29   25.70
   0  -2  -9   68.59   23.20
   0  -2  -9   49.80   23.80
   0  -2  -9    3.50   41.70
   0   2  -9   26.00   32.30
   0   2  -9   81.99   38.20
   0   2  -9   51.69   34.10
   0   2  -9  106.89   48.50
  -1  -2  -9  -11.90   24.80
  -1  -2  -9   20.00   18.90
  -1  -2  -9   -0.30   20.10
  -1  -2  -9   10.60   43.20
  -1  -2  -9  -10.30   37.10
  -1   2  -9   31.20   38.10
  -1   2  -9   -5.80   46.10
  -1   2  -9  -21.80   33.70
  -1   2  -9   19.20   29.70
  -2  -2  -9  231.68   50.59
  -2  -2  -9  345.97   30.80
  -2  -2  -9  244.58   32.60
  -2  -2  -9  248.08   42.40
  -2  -2  -9  277.57   28.40
  -2  -2  -9  269.97   49.80
  -2   2  -9  253.97   51.39
  -2   2  -9  261.07   64.39
  -2   2  -9  268.57   40.00
  -3  -2  -9   33.80   19.60
  -3  -2  -9    9.10   26.50
  -3  -2  -9   57.59   48.50
  -3  -2  -9  -28.10   38.80
  -3   2  -9  118.69   64.89
  -3   2  -9   49.90   49.40
  -3   2  -9   25.80   34.50
  -4  -2  -9  791.82   60.09
  -4  -2  -9  830.72   74.89
  -4  -2  -9  763.32   89.39
  -4  -2  -9  922.41   95.49
  -4   2  -9  748.33   91.89
  -4   2  -9  928.31  108.59
  -4   2  -9  780.62   75.79
  -5  -2  -9  -67.89   55.49
  -5  -2  -9  111.79   70.19
  -5   2  -9   55.89   53.19
  -5   2  -9  108.19   72.69
  -5   2  -9   87.69   71.59
  -6  -2  -9 1135.09  121.89
  -6  -2  -9  935.71  110.59
  -6   2  -9  964.90  109.69
  -6   2  -9  880.81  118.09
  -8  -3   9  239.28   68.19
   8  -3  -9   74.39   80.39
   8  -3  -9  -44.90   83.09
   8  -3  -9  103.29   76.69
  -8  -3   9    6.70   64.79
  -8   3   9  138.59   65.89
   8   3  -9  -31.00   75.09
   8   3  -9   82.49   84.79
   7  -3  -9  722.93   91.69
  -7  -3   9  610.04  119.69
   7  -3  -9  734.03   93.79
   7  -3  -9  615.34   97.09
  -7  -3   9  544.95   72.29
   7   3  -9  680.13  113.09
   7   3  -9  683.43   94.89
  -7   3   9  713.73   76.59
  -6  -3   9   78.39   52.99
   6  -3  -9  114.59   69.69
  -6  -3   9   66.89   52.49
   6  -3  -9  129.79   72.49
  -6   3   9   81.99   45.40
   6   3  -9    5.90   68.09
   6   3  -9    8.90   80.49
   6   3  -9   72.69   75.09
  -5  -3   9  346.67   53.49
   5  -3  -9  383.66   73.89
   5  -3  -9  179.58   57.29
   5  -3  -9  424.56   78.09
  -5  -3   9  254.27   47.90
  -5   3   9  370.06   41.80
   5   3  -9  334.57   71.39
   5   3  -9  343.67   81.59
  -5   3   9  221.98   47.50
   5   3  -9  386.66   73.49
  -4  -3   9 1045.90   85.89
  -4  -3   9 1022.80   71.89
   4  -3  -9 1078.49   87.09
  -4  -3   9 1036.60   70.19
   4  -3  -9 1005.00  101.39
   4  -3  -9 1089.59   88.19
   4  -3  -9  952.60   95.59
  -4   3   9  914.41   79.79
   4   3  -9 1156.38   99.69
   4   3  -9 1082.69   74.69
   4   3  -9  968.50  107.79
   4   3  -9  976.90   90.79
  -4   3   9 1043.40   51.79
   3  -3  -9   69.79   37.40
  -3  -3   9   30.20   31.20
  -3  -3   9   79.49   35.70
   3  -3  -9  115.29   51.89
  -3  -3   9  119.59   40.40
   3  -3  -9   35.40   44.30
   3  -3  -9   25.90   42.10
   3   3  -9   12.20   53.29
  -3   3   9  186.48   38.70
   3   3  -9  110.49   33.90
   3   3  -9   27.70   48.30
   3   3  -9   73.19   49.20
   2  -3  -9  943.51   77.69
   2  -3  -9  964.10   87.29
  -2  -3   9 1100.09   68.09
  -2  -3   9 1037.80   54.29
   2  -3  -9 1135.29   78.39
   2  -3  -9  993.80   65.89
   2  -3  -9  942.01   84.79
   2   3  -9 1070.49   90.29
   2   3  -9 1103.09   93.09
   2   3  -9 1103.19   80.29
   2   3  -9 1030.70   54.99
   2   3  -9 1175.88   71.69
   1  -3  -9  163.38   47.80
  -1  -3   9  147.59   34.30
   1  -3  -9   75.89   38.70
   1  -3  -9  203.48   39.00
   1  -3  -9  131.39   48.10
   1  -3  -9  123.29   34.20
   1   3  -9  109.19   38.80
   1   3  -9  163.78   51.79
   1   3  -9  139.09   41.90
   1   3  -9   98.39   48.40
   0  -3  -9  377.46   35.30
   0  -3  -9  489.85   52.79
   0  -3  -9  511.95   40.80
   0  -3  -9  454.45   57.09
   0  -3   9  417.96   49.90
   0   3  -9  401.46   63.89
   0   3  -9  486.45   51.69
   0   3  -9  424.66   48.70
  -1  -3  -9  491.45   35.40
  -1  -3  -9  498.25   60.59
  -1  -3  -9  432.86   57.39
  -1  -3  -9  551.04   46.10
  -1  -3  -9  425.56   32.80
  -1  -3  -9  402.86   51.19
  -1   3  -9  411.76   53.89
  -1   3  -9  480.95   70.49
  -1   3  -9  473.45   50.99
  -2  -3  -9   -4.10   17.00
  -2  -3  -9   -6.90   39.20
  -2  -3  -9    8.00   30.20
  -2  -3  -9   -2.90   40.10
  -2  -3  -9   -2.20   14.20
  -2  -3  -9   72.99   32.50
  -2  -3  -9   14.20   40.60
  -2   3  -9  -59.29   57.99
  -2   3  -9  -28.90   45.20
  -2   3  -9   43.20   37.20
  -3  -3  -9  432.66   57.09
  -3  -3  -9  465.45   55.39
  -3  -3  -9  413.46   52.39
  -3  -3  -9  442.16   60.29
  -3  -3  -9  379.36   49.60
  -3   3  -9  341.17   51.19
  -3   3  -9  453.45   89.09
  -3   3  -9  392.76   70.09
  -4  -3  -9    9.60   62.39
  -4  -3  -9   50.99   56.29
  -4  -3  -9  150.48   52.19
  -4  -3  -9   96.89   41.60
  -4  -3  -9   88.79   44.10
  -4   3  -9    0.60   68.69
  -4   3  -9   37.70   45.90
  -4   3  -9  106.59   67.49
  -5  -3  -9  295.27   65.89
  -5  -3  -9   98.69   71.99
  -5   3  -9  171.18   80.49
  -5   3  -9  263.37   80.89
  -5   3  -9  234.88   62.69
   8  -4  -9  -17.00   76.99
  -8  -4   9  202.08   71.99
  -8  -4   9   96.29   70.49
   8  -4  -9   18.90   84.79
   8  -4  -9  -32.30   84.59
   8   4  -9   47.90   80.19
   8   4  -9   -4.90   84.99
  -8   4   9  -70.39   61.09
   7  -4  -9  344.67   90.09
  -7  -4   9  310.17   67.59
   7  -4  -9  452.15   86.49
  -7  -4   9  380.86   67.59
   7  -4  -9  285.67   81.99
  -7   4   9  233.38   66.29
   7   4  -9  373.26   83.69
   7   4  -9  421.16   92.39
   6  -4  -9   74.49   66.89
  -6  -4   9  -21.00   48.20
  -6  -4   9    8.40   61.59
   6  -4  -9  -94.99   64.59
   6   4  -9  -33.00   65.29
   6   4  -9   75.79   86.39
  -6   4   9  -65.99   40.20
   6   4  -9  -75.39   73.59
   5  -4  -9  401.86   79.19
  -5  -4   9  491.55   60.09
   5  -4  -9  339.27   64.79
  -5  -4   9  353.66   51.79
   5  -4  -9  496.85   81.99
   5   4  -9  395.96   73.99
  -5   4   9  451.85   44.30
   5   4  -9  496.95   92.49
   5   4  -9  386.86   80.29
   4  -4  -9   36.70   59.79
  -4  -4   9    0.00   34.40
  -4  -4   9  307.67   72.79
   4  -4  -9   70.69   59.79
   4  -4  -9   31.80   46.00
  -4  -4   9    3.20   34.70
   4   4  -9   59.29   57.89
   4   4  -9  105.89   45.70
  -4   4   9   -1.10   40.40
   4   4  -9 -112.99   59.89
   4   4  -9  -20.20   51.89
   3  -4  -9  269.67   48.50
  -3  -4   9  242.88   55.19
   3  -4  -9  278.47   63.29
   3  -4  -9  283.37   61.79
  -3  -4   9  279.67   50.69
  -3  -4   9  189.58   38.90
   3  -4  -9  211.48   43.30
   3   4  -9  301.17   69.69
   3   4  -9  259.27   55.39
   3   4  -9  218.28   59.29
   3   4  -9  313.77   39.50
   2  -4  -9  -84.09   37.40
  -2  -4   9    5.00   47.00
  -2  -4   9  -34.60   33.00
   2  -4  -9   -6.10   45.40
  -2  -4   9   29.00   29.50
   2  -4  -9   34.50   35.20
   2  -4  -9    3.00   31.00
   2  -4  -9    7.50   46.50
   2   4  -9   56.59   50.59
   2   4  -9  -21.70   51.19
   2   4  -9   -2.90   24.80
   2   4  -9  -66.29   43.70
   2   4  -9   11.40   39.20
  -1  -4   9  389.26   38.70
  -1  -4   9  242.18   31.50
   1  -4  -9  362.76   44.10
   1  -4  -9  337.47   56.29
   1  -4  -9  380.26   39.90
   1  -4  -9  277.67   54.69
   1   4  -9  381.86   49.99
   1   4  -9  397.26   65.59
   1   4  -9  329.47   53.99
   0  -4  -9   22.30   15.00
   0  -4  -9   15.10   32.60
   0  -4  -9   37.90   24.40
   0  -4  -9  -16.80   42.20
   0  -4  -9   18.50   22.60
   0  -4  -9  -27.60   43.80
   0   4  -9   58.09   53.59
   0   4  -9   27.10   41.90
   0   4  -9   33.40   42.50
  -1  -4  -9  900.41   54.69
  -1  -4  -9 1132.09   79.09
  -1  -4  -9 1026.50   86.49
  -1  -4  -9 1067.19   70.79
  -1  -4  -9 1040.90   45.00
  -1   4  -9  977.40  103.49
  -1   4  -9  970.10   75.29
  -1   4  -9 1078.59   84.99
  -2  -4  -9   87.09   42.80
  -2  -4  -9   -4.30   37.60
  -2  -4  -9    1.50   39.30
  -2  -4  -9   34.50   34.20
  -2  -4  -9   28.50   11.90
  -2  -4  -9   30.00   30.60
  -2   4  -9   -8.20   62.89
  -2   4  -9  -19.40   49.80
  -2   4  -9   27.60   40.80
  -3  -4  -9  133.79   46.70
  -3  -4  -9  252.17   46.50
  -3  -4  -9  299.77   53.19
  -3  -4  -9  186.18   42.80
  -3  -4  -9  286.67   47.90
  -3   4  -9  296.87   71.39
  -3   4  -9  229.18   52.49
  -3   4  -9  269.17   78.79
  -4  -4  -9    2.90   40.60
  -4  -4  -9   15.50   42.90
  -4  -4  -9   75.59   48.50
  -4  -4  -9   33.70   56.29
  -4  -4  -9  -22.90   55.89
  -4   4  -9   25.60   66.09
  -4   4  -9   21.70   65.99
  -4   4  -9   95.79   49.90
  -5  -4  -9   99.89   69.89
  -5  -4  -9    1.20   68.29
  -5  -4  -9  -14.30   64.59
  -5  -4  -9   83.79   62.39
  -5   4  -9  -24.70   77.79
  -5   4  -9  116.69   82.89
  -5   4  -9   21.90   78.39
   8  -5  -9 -193.48   76.59
  -8  -5   9    7.80   68.49
  -8  -5   9   56.89   70.09
   8  -5  -9   17.50   88.69
   8  -5  -9 -138.89   79.79
   8   5  -9  -98.69   81.29
   8   5  -9  -48.50   78.99
  -8   5   9   71.79   66.09
   7  -5  -9  120.99   82.39
  -7  -5   9  169.08   65.29
   7  -5  -9  294.77   83.29
   7  -5  -9  175.98   79.09
  -7  -5   9  324.97   70.09
  -7   5   9  182.68  112.39
   7   5  -9  373.06   84.89
   7   5  -9  284.07   77.79
   7   5  -9  193.58   89.49
   6  -5  -9  214.78   77.49
   6  -5  -9  136.59   77.69
  -6  -5   9  230.18   63.09
  -6  -5   9  194.58   59.49
   6   5  -9  191.68   77.19
  -6   5   9  141.49   49.70
   6   5  -9  157.98   77.49
   6   5  -9  280.57   87.89
   5  -5  -9  199.88   77.29
   5  -5  -9  180.08   84.39
  -5  -5   9  232.38   60.39
  -5  -5   9  151.88   44.90
   5  -5  -9  256.17   68.69
   5   5  -9  215.58   73.39
   5   5  -9  141.29   81.89
  -5   5   9  210.08   36.20
   4  -5  -9 1099.19  116.19
  -4  -5   9 1170.38   74.19
  -4  -5   9 1206.28   87.39
   4  -5  -9 1293.47   88.59
   4  -5  -9 1158.28  115.59
   4   5  -9 1257.37  105.49
   4   5  -9 1212.48  119.69
   4   5  -9 1140.49  127.29
  -3  -5   9  -45.40   51.19
   3  -5  -9   92.69   57.69
   3  -5  -9  -13.20   37.60
   3  -5  -9  -31.50   54.89
   3   5  -9  -13.10   52.09
   3   5  -9   13.40   51.49
   3   5  -9  -55.29   60.89
   3   5  -9   75.49   36.40
   2  -5  -9 2137.69  125.09
  -2  -5   9 2076.69  103.29
   2  -5  -9 1977.40  122.49
   2  -5  -9 2296.37   98.69
   2  -5  -9 2141.09  119.29
   2   5  -9 2400.76  136.19
   2   5  -9 2113.79  116.59
   2   5  -9 2197.58  107.69
   2   5  -9 2171.98  125.69
   1  -5  -9  184.08   33.60
   1  -5  -9   68.29   33.50
   1  -5  -9  162.48   54.79
   1  -5  -9  117.69   53.89
  -1  -5   9  168.48   37.20
   1   5  -9  184.48   53.29
   1   5  -9  154.68   48.40
   1   5  -9  116.39   61.29
   0  -5  -9  464.75   56.39
   0  -5  -9  483.65   54.59
   0  -5  -9  436.86   46.10
   0  -5   9  421.26   41.50
   0  -5  -9  508.75   44.10
   0  -5  -9  570.24   67.79
   0  -5  -9  479.35   24.50
   0  -5  -9  433.96   21.80
   0   5  -9  472.75   62.29
   0   5  -9  532.55   76.49
   0   5  -9  445.86   58.09
  -1  -5  -9  401.36   54.69
  -1  -5  -9  388.66   41.00
  -1  -5  -9  432.86   48.80
  -1  -5  -9  372.86   55.09
  -1  -5  -9  502.05   55.69
  -1  -5  -9  432.56   35.30
  -1   5  -9  390.16   60.89
  -1   5  -9  299.67   75.29
  -1   5  -9  375.16   62.39
  -2  -5  -9   32.00   30.90
  -2  -5  -9   64.09   38.10
  -2  -5  -9   45.00   41.40
  -2  -5  -9   18.40   44.90
  -2  -5  -9   50.79   36.00
  -2   5  -9  116.69   47.90
  -2   5  -9   27.00   60.19
  -3  -5  -9  192.08   45.20
  -3  -5  -9   83.59   42.60
  -3  -5  -9   91.09   46.70
  -3  -5  -9  105.19   44.60
  -3  -5  -9  135.09   41.30
  -3   5  -9  152.38   73.39
  -3   5  -9  164.68   70.99
  -3   5  -9  196.38   56.09
  -4  -5  -9  -32.70   59.29
  -4  -5  -9  -52.69   48.60
  -4  -5  -9   -9.40   46.30
  -4  -5  -9   38.10   56.69
  -4  -5  -9    9.10   57.19
  -4   5  -9   82.89   72.99
  -4   5  -9   26.30   65.89
  -4   5  -9    4.60   70.59
  -5  -5  -9  114.19   66.79
  -5  -5  -9   -6.00   73.49
  -5   5  -9 -188.98  102.19
  -5   5  -9   45.00   86.39
  -5   5  -9  110.79   81.39
   7  -6  -9  142.59   85.69
  -7  -6   9   75.59   60.89
   7  -6  -9  -48.70   75.09
   7  -6  -9  168.18   80.89
  -7  -6   9    8.30   66.29
  -7   6   9   86.19   82.49
   7   6  -9   56.49   71.69
   7   6  -9    7.10   83.69
   7   6  -9 -149.09   85.29
  -6  -6   9  315.27   70.99
   6  -6  -9  297.67   83.99
   6  -6  -9  240.38   84.99
  -6  -6   9  299.17   70.19
   6  -6  -9  360.76   79.49
  -6   6   9  150.98   49.70
   6   6  -9  345.37   95.89
   6   6  -9  248.28   83.09
   6   6  -9  236.98   92.29
  -5  -6   9  197.48   50.99
   5  -6  -9  176.98   74.79
   5  -6  -9   92.09   71.49
   5   6  -9  153.08   71.09
   5   6  -9  229.78   74.89
  -5   6   9  155.78   35.50
   5   6  -9  152.58   80.19
   4  -6  -9   77.99   50.89
  -4  -6   9   -0.20   36.10
   4  -6  -9  -36.30   67.39
   4  -6  -9   49.10   77.29
   4   6  -9   35.50   63.19
   4   6  -9  -36.20  119.09
   4   6  -9   18.00   68.09
   3  -6  -9  145.69   64.19
   3  -6  -9  111.59   64.59
  -3  -6   9   39.40   30.90
   3  -6  -9   80.79   41.20
   3   6  -9   45.00   64.79
   3   6  -9  127.09   78.19
   3   6  -9   79.29   55.89
  -2  -6   9  -15.50   55.49
   2  -6  -9   39.40   48.40
   2  -6  -9    0.90   58.99
  -2  -6   9  -43.90   38.60
   2  -6  -9   40.10   35.90
   2   6  -9   27.70   58.19
   2   6  -9  -45.10   64.39
   2   6  -9    3.80   52.39
   1  -6  -9   79.89   46.40
   1  -6  -9  103.99   58.69
  -1  -6   9   51.49   37.30
  -1  -6   9  119.49   47.40
   1  -6  -9   82.89   32.80
   1   6  -9   97.09   53.59
   1   6  -9   35.00   57.59
   1   6  -9  163.08   71.59
   0  -6  -9   54.99   34.10
   0  -6  -9  -27.80   31.10
   0  -6  -9  -72.79   49.00
   0  -6  -9  -30.80   42.40
   0   6  -9   30.80   66.89
   0   6  -9   69.99   53.79
   0   6  -9  -22.40   51.49
  -1  -6  -9   22.00   27.20
  -1  -6  -9   15.10   43.30
  -1  -6  -9   66.79   23.00
  -1  -6  -9   79.09   50.49
  -1   6  -9   48.60   59.59
  -1   6  -9   73.49   54.59
  -2  -6  -9  236.88   38.60
  -2  -6  -9  144.29   37.40
  -2  -6  -9  148.09   53.39
  -2  -6  -9  209.58   50.99
  -2  -6  -9  121.99   44.70
  -2   6  -9  158.38   61.99
  -2   6  -9  158.88   73.79
  -3  -6  -9    3.80   45.10
  -3  -6  -9  106.19   59.39
  -3  -6  -9  -48.00   41.90
  -3  -6  -9  -68.49   42.50
  -3  -6  -9   21.30   40.30
  -3   6  -9  -35.60   64.59
  -3   6  -9   88.89   76.19
  -3   6  -9  -12.10   61.79
  -4  -6  -9  795.02   99.49
  -4  -6  -9  463.65   72.49
  -4  -6  -9  431.16   74.39
  -4   6  -9  548.25  120.99
  -4   6  -9  620.64  102.29
  -4   6  -9  546.15   86.49
   7  -7  -9 1007.40  126.29
   7  -7  -9 1071.99  126.19
  -7  -7   9 1274.37  111.49
  -7  -7   9 1134.29  118.89
   7  -7  -9 1283.87  141.19
   7   7  -9 1387.56  147.59
   7   7  -9 1101.79  135.49
   7   7  -9 1054.99  139.19
  -6  -7   9  269.97   81.29
   6  -7  -9  194.38   78.89
   6  -7  -9  123.19   78.59
   6  -7  -9  281.37   84.69
  -6  -7   9  188.38   65.19
  -6   7   9  138.59   51.89
   6   7  -9  142.59   80.99
   6   7  -9  391.46  102.09
   5  -7  -9  522.05   89.89
   5  -7  -9  583.24   92.69
   5  -7  -9  587.74   97.59
  -5  -7   9  484.75   64.49
   5   7  -9  760.72  112.09
  -5   7   9  552.44   67.99
   5   7  -9  519.55   89.69
   5   7  -9  647.54   90.79
   4  -7  -9  310.47   76.49
  -4  -7   9  374.96   50.99
   4  -7  -9  356.46   85.29
   4  -7  -9  322.87   64.69
   4   7  -9  244.38   77.29
   4   7  -9  396.16   88.99
   4   7  -9  255.67   74.59
  -3  -7   9  -13.10   31.70
   3  -7  -9  -55.19   60.89
   3  -7  -9   67.49   43.10
  -3  -7   9   48.40   59.19
   3   7  -9   56.19   66.49
   3   7  -9   46.70  105.29
   2  -7  -9  233.08   45.50
  -2  -7   9  236.88   56.49
   2  -7  -9  281.87   74.59
   2  -7  -9  195.78   66.29
   2   7  -9  309.67  132.49
   2   7  -9  125.29   67.29
   2   7  -9  263.77   75.99
   1  -7  -9  322.97   75.69
   1  -7  -9  423.06   61.59
   1  -7  -9  350.46   44.00
  -1  -7   9  347.17   53.59
   1   7  -9  360.16   77.69
   1   7  -9  473.85   78.89
   0  -7  -9  212.48   67.79
   0  -7   9  237.08   46.80
   0  -7  -9  297.67   38.70
   0  -7  -9  167.88   50.69
   0   7  -9  205.28   71.19
   0   7  -9  198.78   72.99
  -1  -7  -9  611.94   74.39
  -1  -7  -9  806.12   50.29
  -1  -7  -9  894.21   68.99
  -1   7  -9  937.01  117.19
  -1   7  -9  784.22   90.39
  -2  -7  -9  108.49   37.20
  -2  -7  -9   80.39   52.99
  -2  -7  -9    2.00   63.19
  -2  -7  -9   68.39   43.60
  -2   7  -9  133.49   73.49
  -2   7  -9  101.49   71.39
  -2   7  -9   97.69   64.49
  -3  -7  -9  779.32   81.59
  -3   7  -9  546.65   99.69
  -3   7  -9  627.94   89.09
  -3   7  -9  742.23   90.19
  -4  -7  -9   82.99   63.09
  -4   7  -9  175.98   84.09
  -4   7  -9  211.08   76.29
  -4   7  -9  156.28   91.99
   6  -8  -9   56.59   78.29
   6  -8  -9  139.19   93.89
  -6  -8   9  -17.70   60.49
   6  -8  -9   73.59   87.69
   6   8  -9   98.69   92.09
   6   8  -9  137.39   79.39
   6   8  -9 -145.29   93.99
   5  -8  -9  144.59   80.09
   5  -8  -9  101.19   66.09
  -5  -8   9  104.69   62.09
   5  -8  -9  190.98   78.69
   5   8  -9  181.18   81.89
   5   8  -9  316.27   97.19
   4  -8  -9  107.79   72.39
   4  -8  -9  196.38   76.09
  -4  -8   9   84.79   43.10
  -4  -8   9   87.39   58.89
   4   8  -9  132.29   72.99
   4   8  -9  108.19   84.79
   4   8  -9  140.29   79.09
  -3  -8   9  249.58   77.39
  -3  -8   9  251.37   42.00
   3  -8  -9  197.88   56.79
   3  -8  -9  390.66   82.09
   3  -8  -9   97.09   79.19
   3   8  -9  221.68   87.29
   3   8  -9  362.46   81.09
   3   8  -9  300.07   75.29
   2  -8  -9   21.80   56.29
   2  -8  -9   -8.90   63.59
   2  -8  -9    8.00   42.90
  -2  -8   9  -25.20   27.30
  -2  -8   9  -65.29   57.29
   2   8  -9  -38.80   69.89
   2   8  -9  -30.70   68.29
   2   8  -9   34.70   66.19
  -1  -8   9  480.75   68.59
   1  -8  -9  436.76   60.79
   1  -8  -9  491.65   53.79
   1   8  -9  415.26   95.79
   1   8  -9  338.77   98.99
   1   8  -9  681.23   96.39
   0  -8  -9  133.99   47.20
   0  -8  -9  135.99   38.10
   0  -8   9  117.29   52.39
   0  -8  -9   94.39   66.89
   0   8  -9   53.09   74.49
   0   8  -9  147.79   74.89
   0   8  -9   23.30   61.59
  -1  -8  -9  378.06   76.59
  -1  -8  -9  292.77   51.79
   1  -8   9  420.66   56.89
  -1   8  -9  515.45   85.59
  -1   8  -9  434.66   79.39
  -1   8  -9  482.95   92.59
   2  -8   9   83.79   67.69
  -2  -8  -9  -33.00   62.69
  -2  -8  -9   83.99   62.89
  -2   8  -9  -18.00   66.29
  -2   8  -9   12.10   75.89
  -2   8  -9  -58.59   66.39
  -3  -8  -9  255.47   70.89
  -3  -8  -9  273.97   87.59
  -3   8  -9  321.87   98.99
  -3   8  -9  211.18   85.49
  -3   8  -9  151.58   78.59
   5  -9  -9   28.90   78.79
   5  -9  -9   33.80   71.79
   5  -9  -9   58.69   88.99
  -5  -9   9  -49.40   73.89
   5   9  -9   45.70   74.29
   5   9  -9   38.10   97.89
   5   9  -9   29.20   92.89
  -4  -9   9 1211.48  114.39
  -4  -9   9 1056.69   98.59
   4  -9  -9 1182.68  131.39
   4  -9  -9 1248.68  136.69
   4  -9  -9 1402.76  136.59
   4   9  -9 1358.96  132.79
   4   9  -9 1279.57  131.39
   4   9  -9 1278.07  136.59
   3  -9  -9   10.20   71.59
   3  -9  -9   45.00   68.89
  -3  -9   9  -23.10   40.20
   3  -9  -9   50.49   77.49
  -3  -9   9 -132.99   59.39
   3   9  -9   17.70   72.79
   3   9  -9  -90.39   79.99
   3   9  -9   94.69   69.99
   2  -9  -9  990.50  121.99
  -2  -9   9 1003.30  104.09
   2  -9  -9 1119.19   93.99
   2  -9  -9  961.20  110.79
   2   9  -9 1181.68  125.19
   2   9  -9  946.21  116.69
   2   9  -9 1139.09  123.99
   1  -9  -9  125.49   48.40
   1  -9  -9  -85.69   65.79
   1  -9  -9   17.90   50.49
  -1  -9   9   -1.00   68.39
   1   9  -9   57.29   81.89
   1   9  -9  -46.30   67.79
   1   9  -9  168.08   73.89
   0  -9  -9  507.45   60.29
   0  -9  -9  499.65   79.99
   0  -9   9  614.84   76.49
   0  -9  -9  590.14   72.99
   0   9  -9  628.74   94.89
   0   9  -9  403.56   84.79
   0   9  -9  558.14   98.29
   1  -9   9  219.78   66.49
  -1  -9  -9  105.79   85.39
  -1   9  -9  233.68   83.09
  -1   9  -9  -26.70   73.99
  -1   9  -9   19.10   75.79
  -2  -9  -9   48.80   83.69
  -2  -9  -9    9.20   66.09
   2  -9   9  116.79   82.79
  -2   9  -9   79.99   89.39
  -2   9  -9  109.49   75.39
  -2   9  -9   89.49   81.59
   4 -10  -9 -179.48   81.89
   4 -10  -9  -86.59   64.39
   4 -10  -9   67.59   75.79
  -4 -10   9  -12.90   73.19
   4  10  -9 -198.98   69.09
   4  10  -9   81.09   99.69
   4  10  -9  144.79   91.29
  -3 -10   9  279.27   78.29
   3 -10  -9  225.98   85.99
   3 -10  -9    8.50   87.69
   3 -10  -9  255.57  102.69
   3  10  -9  434.56   83.89
   3  10  -9  288.37   98.19
   3  10  -9  105.89   88.99
   2 -10  -9   34.50   77.29
  -2 -10   9   51.49   64.39
   2 -10  -9 -172.48   75.39
   2 -10  -9 -152.38   72.69
   2  10  -9   23.80   72.69
   2  10  -9  -71.69   75.69
   2  10  -9  -33.60   82.39
  -1 -10   9  146.29   67.49
   1 -10  -9   41.80   58.59
   1 -10  -9   11.90   75.99
   1  10  -9  162.28   87.79
   1  10  -9   97.39   86.39
   0 -10  -9  -18.40   67.89
   0 -10   9  119.99   66.09
   0  10  -9   83.59   81.09
   0  10  -9 -110.69   75.99
   0  10  -9 -157.38   72.19
  -1 -10  -9  -74.09   66.49
   1 -10   9   30.00   65.29
  -1  10  -9   -2.60   90.19
  -1  10  -9  -42.20   82.09
  -1  10  -9  -88.59   81.99
   8   0 -10   81.89   85.39
   8   0 -10  -48.70   82.19
   8   0 -10   20.50   73.29
  -8   0  10 -117.79   62.59
   7   0 -10   58.79   66.89
   7   0 -10   35.60   75.99
  -7   0  10   52.39   74.79
   7   0 -10   13.10   77.99
   6   0 -10  -80.99   74.59
   6   0 -10    0.70   71.49
  -6   0  10  133.49   49.90
   6   0 -10   13.20   75.59
   6   0 -10   53.19   79.59
  -5   0  10   -5.80   34.70
   5   0 -10  -14.00   61.29
   5   0 -10 -117.29   67.59
   5   0 -10   32.00   56.59
   4   0 -10   96.79   52.69
   4   0 -10  112.79   64.19
  -4   0  10  203.58   31.60
   4   0 -10   98.89   64.39
   3   0 -10  -59.19   41.80
   3   0 -10   -5.60   54.39
   3   0 -10   22.30   52.19
   3   0 -10  -12.10   37.90
   2   0 -10   30.60   51.29
   2   0 -10    9.50   54.09
   2   0 -10   56.19   39.40
   2   0 -10  -11.30   32.10
   1   0 -10   13.00   25.70
   1   0 -10   -5.80   32.50
   1   0 -10   10.00   27.80
   1   0 -10   28.40   51.39
   1   0 -10    6.90   45.10
   0   0 -10  508.45   48.90
   0   0 -10  509.65   66.79
   0   0 -10  737.23   88.59
   0   0 -10  552.74   50.69
   0   0 -10  547.45   41.00
   0   0 -10  575.64   56.79
  -1   0 -10   -0.10   52.89
  -1   0 -10  -24.80   31.80
  -1   0 -10   15.80   35.20
  -1   0 -10  -17.90   50.49
  -2   0 -10 1138.59   82.49
  -2   0 -10 1340.37  112.79
  -3   0 -10   -9.20   80.49
  -3   0 -10   36.00   51.39
  -4   0 -10 1153.18  132.99
  -5   0 -10 -195.18   68.09
  -5   0 -10   12.20   81.09
   8  -1 -10  194.88   79.99
   8  -1 -10  120.49   85.99
   8  -1 -10  229.28   93.79
  -8  -1  10  185.68   65.09
   8   1 -10  194.38   79.19
  -8   1  10  189.58   70.89
   8   1 -10  302.97   93.49
   8   1 -10  321.27   90.19
  -7  -1  10  363.86   68.29
   7  -1 -10  323.27   92.09
   7  -1 -10  454.45   86.79
   7  -1 -10  394.56   79.79
  -7   1  10  197.08  122.69
   7   1 -10  235.38   82.89
   7   1 -10  213.18   75.79
   7   1 -10  179.58   80.09
   6  -1 -10  289.17   80.19
  -6  -1  10  288.07   58.99
   6  -1 -10  343.97   82.19
   6   1 -10  398.06  135.89
  -6   1  10  300.87   52.79
   6   1 -10  281.87   84.79
   5  -1 -10   -9.20   63.49
   5  -1 -10   15.90   67.69
  -5  -1  10   18.60   37.90
   5  -1 -10   30.40   57.09
   5  -1 -10   67.09   66.59
   5   1 -10  135.69   74.99
   5   1 -10    8.70   77.59
  -5   1  10  -40.70   32.20
   5   1 -10   83.99   68.39
   4  -1 -10 1105.59  115.29
  -4  -1  10 1040.90   54.89
   4  -1 -10  920.21   96.49
  -4  -1  10 1053.29   72.39
   4  -1 -10 1180.48   88.79
  -4   1  10  964.40   52.89
   4   1 -10 1028.50  115.49
   4   1 -10  943.11   90.39
   4   1 -10  978.10  113.59
  -3  -1  10  536.35   42.80
   3  -1 -10  399.16   58.09
   3  -1 -10  481.05   69.59
  -3  -1  10  375.86   35.80
   3  -1 -10  477.65   64.69
   3  -1 -10  283.67   67.79
   3   1 -10  402.26   58.19
   3   1 -10  458.65   72.59
   3   1 -10  352.06   47.90
   3   1 -10  365.96   69.99
   2  -1 -10  434.86   65.49
   2  -1 -10  380.06   66.69
   2  -1 -10  462.65   48.50
   2  -1 -10  496.85   60.99
   2   1 -10  445.76   51.29
   2   1 -10  462.95   68.09
   2   1 -10  475.65   56.79
   2   1 -10  326.77   64.89
   1  -1 -10  641.24   64.09
   1  -1 -10  709.83   82.09
   1  -1 -10  647.84   58.89
   1  -1 -10  642.14   59.29
   1  -1 -10  569.64   73.09
   1   1 -10  545.35   53.09
   1   1 -10  848.92   84.99
   1   1 -10  611.24   73.89
   1   1 -10  597.34   62.39
   0  -1 -10  121.19   52.89
   0  -1 -10   25.50   34.90
   0  -1 -10   39.70   26.80
   0  -1 -10   38.50   48.60
   0  -1 -10  174.18   31.60
   0   1 -10   76.39   35.60
   0   1 -10   65.99   33.80
   0   1 -10   60.79   52.59
   0   1 -10   45.90   53.29
  -1  -1 -10  445.66   64.29
  -1  -1 -10  581.64   73.69
  -1  -1 -10  478.25   52.89
  -1  -1 -10  513.65   46.90
  -1  -1 -10  438.16   45.50
  -1   1 -10  478.75   72.09
  -1   1 -10  524.75   54.79
  -1   1 -10  547.15   55.19
  -2  -1 -10   66.39   27.00
  -2  -1 -10   41.20   26.50
  -2  -1 -10   51.19   59.59
  -2  -1 -10   11.10   37.90
  -2  -1 -10   17.40   54.79
  -2   1 -10   83.49   40.00
  -2   1 -10   13.50   34.00
  -2   1 -10   70.69   71.19
  -3  -1 -10  199.58   52.99
  -3  -1 -10  348.57   81.09
  -3   1 -10  264.17   69.29
  -3   1 -10  122.19  127.79
  -3   1 -10  261.57   43.70
  -4  -1 -10   47.90   69.19
  -4   1 -10  101.99   61.49
  -4   1 -10  229.98   78.09
  -5  -1 -10  -52.09   74.69
  -5  -1 -10   47.30   69.69
  -5   1 -10  -15.80   70.09
  -5   1 -10  147.19   87.69
   8  -2 -10  -42.20   91.59
  -8  -2  10   33.50   71.69
   8  -2 -10  144.39   76.59
   8  -2 -10   94.59   84.19
   8   2 -10  156.88   83.49
  -8   2  10   71.29   67.69
   8   2 -10  176.38   90.79
   8   2 -10   13.70   86.59
   7  -2 -10  219.48   79.19
  -7  -2  10  184.18   66.19
   7  -2 -10  284.27   82.29
   7  -2 -10  213.08   85.19
  -7   2  10  284.87   74.99
   7   2 -10  253.47   83.49
   7   2 -10  260.27   82.09
  -6  -2  10   40.80   54.49
   6  -2 -10  -74.89   75.99
   6  -2 -10  148.29   77.59
   6  -2 -10   -9.90   65.99
   6   2 -10   48.90   86.09
   6   2 -10  -76.49   69.69
   6   2 -10  112.29   77.09
  -6   2  10   77.99   44.80
  -5  -2  10  247.08   49.70
   5  -2 -10  394.46   77.59
   5  -2 -10  252.47   80.99
   5  -2 -10  304.77   65.39
   5  -2 -10  268.07   69.79
   5   2 -10  234.18   79.49
   5   2 -10  468.25   91.99
   5   2 -10  308.67   82.89
   4  -2 -10    5.20   68.49
  -4  -2  10 -109.29   42.40
   4  -2 -10   37.80   45.00
   4  -2 -10   14.30   62.19
  -4  -2  10  -31.50   30.90
   4  -2 -10   21.30   50.79
  -4  -2  10  -78.69   33.80
   4   2 -10   58.19   69.59
   4   2 -10  130.49   69.79
   4   2 -10   -2.40   53.69
   3  -2 -10  591.04   78.29
   3  -2 -10  575.44   69.59
  -3  -2  10  556.54   57.09
  -3  -2  10  530.85   55.39
  -3  -2  10  538.55   44.90
   3  -2 -10  582.64   69.69
   3   2 -10  579.34   67.29
   3   2 -10  598.14   63.59
   3   2 -10  598.64   82.89
   3   2 -10  522.25   75.79
  -2  -2  10  120.79   33.70
   2  -2 -10  -47.30   44.90
   2  -2 -10   15.90   54.59
   2  -2 -10  -70.49   41.50
   2  -2 -10  -10.60   33.80
   2   2 -10   34.20   56.69
   2   2 -10    7.50   54.89
   2   2 -10   -7.50   44.00
   2   2 -10   11.90   27.50
   1  -2 -10  738.03   79.49
   1  -2 -10  794.22   68.29
   1  -2 -10  800.42   90.29
   1  -2 -10  772.42   64.99
   1  -2 -10  820.82   62.59
   1   2 -10  783.82   95.69
   1   2 -10  876.91   95.99
   1   2 -10  817.12   38.30
   1   2 -10  979.70   74.09
   1   2 -10  787.92   64.29
   0  -2 -10   81.49   48.90
   0  -2 -10  146.39   33.50
   0  -2 -10   23.20   36.30
   0  -2 -10   34.30   45.90
   0   2 -10   59.59   56.49
   0   2 -10   34.30   55.59
   0   2 -10   62.19   38.30
   0   2 -10   97.59   39.40
  -1  -2 -10  389.66   63.49
  -1  -2 -10  327.67   35.00
  -1  -2 -10  451.25   41.40
  -1  -2 -10  275.97   36.40
  -1  -2 -10  380.26   57.79
  -1  -2 -10  384.06   52.49
  -1  -2 -10  305.27   56.19
  -1   2 -10  448.66   52.79
  -1   2 -10  493.65   60.59
  -1   2 -10  306.07   73.29
  -2  -2 -10    2.80   21.30
  -2  -2 -10  -20.50   53.99
  -2  -2 -10  143.99   54.49
  -2  -2 -10    0.70   28.00
  -2  -2 -10   -2.20   35.60
  -2   2 -10   52.19   36.70
  -2   2 -10   -1.20   70.99
  -2   2 -10  -16.80   48.80
  -3  -2 -10  -37.30   32.10
  -3  -2 -10   11.70   48.20
  -3  -2 -10   22.60   69.29
  -3  -2 -10  108.29   67.09
  -3   2 -10   23.50   65.79
  -3   2 -10   94.89   60.99
  -3   2 -10    0.60   43.20
  -4  -2 -10   81.29   73.09
  -4  -2 -10  -13.40   69.69
  -4  -2 -10  -21.10   68.09
  -4  -2 -10  108.69   49.70
  -4   2 -10  -58.69   46.00
  -4   2 -10   12.50   72.49
  -4   2 -10  -92.19   62.29
  -5  -2 -10  105.79   76.99
  -5  -2 -10  253.77   78.49
  -5   2 -10   63.29   75.89
  -5   2 -10  141.69   87.89
   8  -3 -10  233.78   97.09
   8  -3 -10  156.38   86.79
   8  -3 -10  203.18   89.79
  -8  -3  10  290.07   81.69
  -8   3  10  334.77   75.89
   8   3 -10  185.18   90.09
   8   3 -10  217.08   83.99
   8   3 -10  248.78   94.89
   7  -3 -10    3.60   76.59
   7  -3 -10   99.09   75.79
  -7  -3  10  159.78   64.59
   7  -3 -10   49.70   77.09
   7   3 -10  156.38   78.49
  -7   3  10    5.90   60.59
   7   3 -10   -5.20   73.19
  -6  -3  10 1144.09  106.79
   6  -3 -10 1209.88  122.99
   6  -3 -10 1229.68  134.79
   6   3 -10 1056.99  110.09
   6   3 -10 1141.39  121.99
   6   3 -10 1158.38  132.59
  -5  -3  10   -5.50   48.10
   5  -3 -10   79.19   59.99
   5   3 -10  -48.60   67.69
  -5   3  10  -48.90   28.40
   5   3 -10  157.58  132.99
   5   3 -10   33.10   70.69
  -4  -3  10 1031.10   72.39
  -4  -3  10  839.22   93.09
   4  -3 -10 1211.28   96.29
   4  -3 -10 1084.39  121.19
   4  -3 -10  923.71   91.29
   4  -3 -10  940.71  109.19
   4   3 -10 1146.69  116.49
   4   3 -10 1024.10  103.59
   4   3 -10  949.90  107.59
   3  -3 -10   16.90   46.50
  -3  -3  10    2.10   37.10
  -3  -3  10   54.79   31.90
   3  -3 -10   53.09   41.90
   3  -3 -10   70.49   62.89
   3  -3 -10   87.39   63.79
  -3  -3  10   26.10   41.60
   3   3 -10  121.39   50.39
   3   3 -10   74.39   68.49
   3   3 -10   68.89   36.90
   3   3 -10   58.09   62.79
   2  -3 -10  573.54   75.79
   2  -3 -10  763.72   92.99
   2  -3 -10  718.73   77.99
   2  -3 -10  581.14   59.89
  -2  -3  10  580.14   40.30
  -2  -3  10  683.83   69.79
  -2  -3  10  470.35   39.60
   2   3 -10  501.75   78.69
   2   3 -10  646.34   46.60
   2   3 -10  579.84   77.29
   2   3 -10  593.14   66.09
   1  -3 -10  501.65   54.19
   1  -3 -10  389.46   46.70
   1  -3 -10  574.64   71.89
   1  -3 -10  346.27   56.19
   1  -3 -10  386.26   65.49
   1  -3 -10  474.95   55.49
   1   3 -10  514.35   77.19
   1   3 -10  508.25   73.59
   1   3 -10  415.26   53.09
   1   3 -10  488.25   63.19
   0  -3 -10   72.29   51.09
   0  -3 -10   52.19   31.40
   0  -3 -10   52.89   27.20
   0  -3 -10   48.90   42.00
   0  -3 -10  -13.70   26.60
   0  -3 -10  -37.10   51.19
   0   3 -10   23.30   39.70
   0   3 -10   15.90   63.99
   0   3 -10   11.00   42.30
  -1  -3 -10  406.06   64.99
  -1  -3 -10  424.66   38.70
  -1  -3 -10  299.97   62.39
  -1  -3 -10  454.65   57.09
  -1  -3 -10  337.87   36.40
  -1   3 -10  385.36   56.29
  -1   3 -10  390.86   54.79
  -1   3 -10  448.46   78.79
  -2  -3 -10   85.99   53.99
  -2  -3 -10   75.89   35.70
  -2  -3 -10   77.49   37.00
  -2  -3 -10   33.80   51.59
  -2  -3 -10   -0.70   46.70
  -2   3 -10    3.00   55.59
  -2   3 -10  107.89   44.70
  -3  -3 -10  100.49   37.80
  -3  -3 -10   69.09   44.90
  -3  -3 -10   54.19   56.79
  -3  -3 -10  154.08   49.10
  -3  -3 -10  121.89   65.49
  -3   3 -10  105.29   49.99
  -3   3 -10  -35.90   69.79
  -4  -3 -10   49.80   68.09
  -4  -3 -10   53.59   50.89
  -4  -3 -10  140.29   70.29
  -4   3 -10  244.58   85.29
  -4   3 -10  148.89   58.49
  -4   3 -10   54.59   69.09
  -5  -3 -10  -43.90   68.09
  -5   3 -10  130.39   86.79
  -8  -4  10  -67.79   72.79
   8  -4 -10    3.80   94.49
   8  -4 -10   71.39   86.69
   8  -4 -10   71.69   84.59
  -8   4  10  -11.10   65.39
   8   4 -10   83.09   94.29
   8   4 -10  -24.60   87.29
  -7  -4  10  -27.90   58.19
   7  -4 -10   39.40   74.99
   7  -4 -10  140.89   77.89
   7  -4 -10  -38.60   81.89
   7   4 -10 -175.18   82.69
  -7   4  10   29.90   64.39
   7   4 -10  118.69   81.59
   7   4 -10  -40.00   76.69
   6  -4 -10   83.89   75.49
   6  -4 -10 -108.99   71.09
  -6  -4  10   -3.10   57.49
   6  -4 -10  -20.00   70.59
   6   4 -10 -117.99   73.19
  -6   4  10  -34.40   37.20
   6   4 -10 -123.19   62.99
   6   4 -10  -36.20   76.99
  -5  -4  10   64.69   58.89
   5  -4 -10   -3.90   68.59
   5  -4 -10  136.49   78.69
   5  -4 -10  115.29   62.89
  -5   4  10   47.90   26.60
   5   4 -10    0.20   78.89
   4  -4 -10   29.90   73.89
   4  -4 -10   36.80   46.70
   4  -4 -10    0.90   69.39
  -4  -4  10  -37.80   40.30
   4   4 -10  -27.40   69.19
   4   4 -10   33.80   66.89
   4   4 -10  -30.20   68.49
   3  -4 -10  115.29   60.59
   3  -4 -10   48.00   68.59
  -3  -4  10   70.49   35.80
   3  -4 -10   97.99   44.80
   3  -4 -10   80.79   41.00
   3   4 -10   56.29   65.69
   3   4 -10  -42.20   63.89
   3   4 -10   96.59   59.19
   2  -4 -10   88.39   36.50
   2  -4 -10   73.49   59.79
   2  -4 -10   59.69   59.69
   2  -4 -10   31.20   40.60
  -2  -4  10   27.30   29.20
   2   4 -10   -4.70   64.69
   2   4 -10  103.09   50.59
   2   4 -10   91.29   70.39
  -1  -4  10   21.50   15.20
   1  -4 -10  -44.10   52.39
   1  -4 -10  -31.20   30.00
   1  -4 -10   16.70   39.00
   1  -4 -10  -50.39   51.99
   1   4 -10  -73.69   62.39
   1   4 -10   36.40   42.30
   1   4 -10  -15.50   48.10
   1   4 -10   75.59   62.49
   0  -4 -10  154.98   52.59
   0  -4 -10  253.87   58.49
   0  -4 -10  261.07   46.10
   0  -4 -10  222.28   32.30
   0  -4 -10  128.49   13.00
   0   4 -10  267.47   52.49
   0   4 -10  220.58   70.89
   0   4 -10  148.19   53.09
  -1  -4 -10  -35.60   38.80
  -1  -4 -10   13.60   28.00
  -1  -4 -10   73.29   49.20
  -1  -4 -10  115.89   51.49
  -1  -4 -10   -5.80   20.90
  -1   4 -10  149.49  116.69
  -1   4 -10   -5.10   48.00
  -1   4 -10   62.59   47.30
  -2  -4 -10  621.74   66.49
  -2  -4 -10  676.23   81.89
  -2  -4 -10  809.22   65.69
  -2  -4 -10  667.23   69.69
  -2  -4 -10  657.73   79.19
  -2   4 -10  662.83   78.99
  -2   4 -10  660.23   79.49
  -2   4 -10  636.74   89.99
  -3  -4 -10  -53.19   53.39
  -3  -4 -10   25.10   42.90
  -3  -4 -10  -42.60   44.70
  -3  -4 -10  -56.49   46.70
  -3  -4 -10   -4.00   55.19
  -3   4 -10  -64.89   51.09
  -3   4 -10 -135.09   54.79
  -3   4 -10  -22.30   71.19
  -4  -4 -10 1720.03  128.99
  -4  -4 -10 1574.64  148.89
  -4   4 -10 1497.15  130.39
  -4   4 -10 1578.54  146.79
  -4   4 -10 1567.14  128.09
  -7  -5  10  -18.80   64.09
  -7  -5  10  163.68   66.99
   7  -5 -10   28.50   76.99
   7  -5 -10  131.19   86.39
   7  -5 -10  239.48   92.49
   7   5 -10   80.89   81.39
   7   5 -10   48.50   82.89
  -7   5  10   -3.80   67.49
   7   5 -10   63.49   97.39
  -6  -5  10  523.95   76.19
  -6  -5  10  379.16   71.59
   6  -5 -10  390.56   89.49
   6  -5 -10  556.04   87.89
   6  -5 -10  450.25   90.39
   6   5 -10  479.15   88.09
   6   5 -10  487.95  102.89
   6   5 -10  485.05   93.99
   5  -5 -10 -104.69   64.89
  -5  -5  10  -36.70   63.99
   5  -5 -10  -33.60   65.79
  -5  -5  10   55.99   49.10
   5  -5 -10  -64.69   68.49
   5   5 -10   37.80   81.29
   5   5 -10   78.09   68.49
   5   5 -10   70.39   80.89
   4  -5 -10  378.96   81.79
   4  -5 -10  200.68   87.09
   4  -5 -10  349.77   63.79
  -4  -5  10  350.46   60.59
   4   5 -10  344.07   75.69
   4   5 -10  446.26   82.89
   4   5 -10  283.17   84.89
  -3  -5  10  120.39   40.90
   3  -5 -10  159.18   79.39
   3  -5 -10  193.68   49.50
   3  -5 -10  227.68   78.59
   3   5 -10  172.38   73.59
   3   5 -10  155.48  127.99
   3   5 -10  248.58   74.79
   2  -5 -10  284.37   70.79
   2  -5 -10  223.28   44.40
   2  -5 -10  339.87   72.69
  -2  -5  10  255.77   39.90
   2  -5 -10  204.68   39.40
   2   5 -10  254.67   79.09
   2   5 -10  352.36   67.29
   2   5 -10  217.28   74.39
   1  -5 -10  553.94   74.79
   1  -5 -10  396.66   45.80
   1  -5 -10  563.24   61.79
   1  -5 -10  699.33   83.89
  -1  -5  10  531.25   45.40
   1   5 -10  479.95   68.79
   1   5 -10  428.66   82.59
   1   5 -10  477.15   64.39
   1   5 -10  540.95   87.09
   0  -5 -10   63.19   37.50
   0  -5 -10   30.10   62.59
   0  -5 -10   66.39   49.30
   0   5 -10   89.49   58.09
   0   5 -10   77.59   52.79
  -1  -5 -10  667.03   77.29
  -1  -5 -10  623.24   68.19
  -1  -5 -10  697.63   71.09
  -1   5 -10  737.53   93.19
  -1   5 -10  728.53   78.59
  -1   5 -10  726.43   84.79
  -2  -5 -10   61.19   44.20
  -2  -5 -10   -6.80   44.10
  -2  -5 -10   22.10   56.19
  -2  -5 -10    9.50   36.20
  -2  -5 -10  -88.79   43.40
  -2   5 -10   -2.40   58.69
  -2   5 -10   50.09  100.49
  -2   5 -10   -9.30   69.89
  -3  -5 -10  167.78   60.99
  -3  -5 -10  135.49   55.99
  -3  -5 -10  168.78   49.90
  -3  -5 -10  259.07   59.39
  -3  -5 -10  146.69   53.69
  -3   5 -10  253.87   78.39
  -3   5 -10  160.98   78.39
  -3   5 -10  138.49   77.99
  -4  -5 -10   -2.20   78.99
  -4  -5 -10  -13.30   79.69
  -4   5 -10  -95.19   74.29
  -4   5 -10  124.59   85.49
   7  -6 -10  209.88   94.39
  -7  -6  10  248.08   77.19
   7  -6 -10  229.58   93.49
  -7  -6  10  222.68   70.89
   7  -6 -10  119.29   84.99
   7   6 -10  213.88  110.79
   7   6 -10  264.77   98.59
   7   6 -10   66.09   85.49
   6  -6 -10 -137.89   68.69
  -6  -6  10  -15.70  106.09
  -6  -6  10   25.90   64.29
   6  -6 -10  -43.80   76.49
   6  -6 -10   -4.40   80.99
   6   6 -10   65.69   80.69
   6   6 -10  -85.29   90.79
   6   6 -10   89.49   74.09
   5  -6 -10  169.28   80.49
  -5  -6  10   93.09   56.69
   5  -6 -10  168.78   80.99
  -5  -6  10  212.68   55.09
   5  -6 -10  226.78   83.69
   5   6 -10  231.88   75.29
   5   6 -10  120.29   79.39
   5   6 -10  229.48   96.69
  -4  -6  10    4.70   55.19
   4  -6 -10  -32.70   67.19
   4  -6 -10   87.39   55.69
   4  -6 -10   71.59   90.39
   4   6 -10  182.88   86.29
   4   6 -10  -34.40   76.19
   4   6 -10   75.19   69.29
   3  -6 -10  230.88   53.89
  -3  -6  10  290.77   55.39
   3  -6 -10  248.68   79.39
   3  -6 -10  219.48   72.69
   3   6 -10  212.78   83.99
   2  -6 -10  -20.50   38.10
   2  -6 -10   32.70   64.59
   2   6 -10   -8.50   65.29
   2   6 -10   63.19   74.79
   1  -6 -10  494.65   82.69
   1  -6 -10  492.95   51.49
   1  -6 -10  677.43   80.99
   1   6 -10  419.16   85.79
   1   6 -10  568.64   79.89
   1   6 -10  586.14   88.29
   0  -6  10    7.10   26.80
   0  -6 -10   53.29   52.29
   0  -6 -10   55.49   64.09
   0  -6 -10   45.20   39.10
   0   6 -10  -21.60   66.39
   0   6 -10  -58.49   65.09
   0   6 -10   21.70   62.89
  -1  -6 -10  460.95   61.89
  -1  -6 -10  586.54   85.29
  -1  -6 -10  541.65   62.79
  -1   6 -10  726.73   94.99
  -1   6 -10  367.16   90.69
  -1   6 -10  554.04   85.69
  -2  -6 -10  310.97   57.99
  -2  -6 -10  358.96   68.79
  -2  -6 -10  269.47   64.69
  -2  -6 -10  216.28   44.50
  -2   6 -10  186.68   82.99
  -2   6 -10  179.88   75.79
  -2   6 -10  122.69   70.69
  -3  -6 -10 -109.79   57.09
  -3  -6 -10  -49.00   55.89
  -3  -6 -10   26.40   65.09
  -3   6 -10  106.19   72.59
  -3   6 -10   92.59   87.39
  -3   6 -10   35.50   88.79
  -6  -7  10  585.64   81.99
  -6  -7  10  701.53   82.89
   6  -7 -10  525.05   88.79
   6  -7 -10  845.92  118.79
   6  -7 -10  568.84  108.29
   6   7 -10  604.04  120.09
   6   7 -10  516.65  102.09
   6   7 -10  610.54  100.69
   5  -7 -10  174.78   77.19
   5  -7 -10 -207.48   75.29
  -5  -7  10   77.19   66.19
   5  -7 -10   -4.70   64.39
  -5  -7  10    1.30   60.89
   5   7 -10  154.48   82.09
   5   7 -10   27.60   72.79
   5   7 -10  212.28   97.69
   4  -7 -10  716.93   96.79
   4  -7 -10  865.21   92.99
   4  -7 -10  692.93   97.69
   4   7 -10  655.23   98.09
   4   7 -10  689.73   92.49
   4   7 -10  522.55  105.29
   3  -7 -10  278.27   56.39
   3  -7 -10  227.98   73.19
   3  -7 -10  228.08   83.29
   3   7 -10  237.78   70.99
   3   7 -10  152.28   73.19
   3   7 -10   50.59   84.29
   2  -7 -10  316.97   75.89
   2  -7 -10  352.96   81.09
   2  -7 -10  403.36   54.69
   2   7 -10  286.97   83.99
   2   7 -10  341.47   88.39
   2   7 -10  202.28   71.19
   1  -7 -10    3.90   59.79
   1  -7 -10  188.48   44.10
   1  -7 -10  176.88   72.39
   1   7 -10  108.29   77.79
   0  -7 -10   82.19   53.89
   0   7 -10  116.39   79.99
   0   7 -10  167.98   68.69
  -1  -7 -10  261.57   83.29
  -1  -7 -10  224.28   57.49
  -1   7 -10  100.19   81.59
  -1   7 -10  167.38   73.19
  -1   7 -10  213.38   82.09
  -2  -7 -10   43.70   61.59
  -2  -7 -10   40.20   71.69
  -2   7 -10   84.29   68.79
  -2   7 -10   51.59   70.79
  -2   7 -10 -183.18   78.79
  -3  -7 -10    5.90   64.09
  -3   7 -10   75.99   76.19
  -3   7 -10  -29.10   89.39
  -3   7 -10 -135.79   79.49
   5  -8 -10  -20.10   71.49
   5  -8 -10   76.09   91.19
  -5  -8  10   37.90   69.49
   5  -8 -10  124.99   78.39
   5   8 -10   80.79   80.99
   5   8 -10   99.99   87.59
   5   8 -10  -94.79   98.39
   4  -8 -10  -54.39   76.69
  -4  -8  10  -16.30   44.30
   4  -8 -10   35.20   76.19
   4   8 -10  112.79   96.19
   4   8 -10   26.40   72.89
   4   8 -10  -76.79   76.59
   3  -8 -10  -43.60   60.99
   3  -8 -10  -50.69   73.19
   3  -8 -10   29.70   94.49
   3   8 -10  111.49   77.69
   3   8 -10  133.99   70.39
   3   8 -10  -43.00   81.39
   2  -8 -10    8.90   70.39
   2  -8 -10 -112.79   66.89
   2  -8 -10  211.88   55.09
   2   8 -10   -3.30   67.69
   2   8 -10   31.10   72.19
   2   8 -10  136.59   83.89
   1  -8 -10  207.18   75.89
  -1  -8  10   25.30   64.59
   1  -8 -10  119.29   47.90
   1  -8 -10  -16.00   60.09
   1   8 -10  163.68   80.99
   1   8 -10   88.89   77.09
   1   8 -10   35.60   72.99
   0  -8 -10  106.99   70.49
   0  -8 -10  120.59   57.29
   0   8 -10  162.78   79.59
   0   8 -10  191.48   75.49
   0   8 -10  229.88   88.29
  -1  -8 -10  -17.90   61.39
  -1   8 -10 -122.59   67.69
  -1   8 -10  -42.90   75.69
  -1   8 -10   -9.20   81.59
  -2  -8 -10  461.25   99.59
  -2  -8 -10 1028.90  105.19
  -2   8 -10  717.13  106.49
  -2   8 -10  758.82   98.39
  -2   8 -10  658.23  110.29
   4  -9 -10  144.09   79.39
   4  -9 -10  270.77   82.29
   4  -9 -10  169.38   92.59
   4   9 -10  214.78   83.29
   4   9 -10  293.17   91.69
   4   9 -10  249.48  103.99
   3  -9 -10   84.09   88.19
   3  -9 -10  109.09  113.09
  -3  -9  10  257.67   71.89
   3  -9 -10  136.99   75.49
   3   9 -10  296.87   92.19
   3   9 -10   57.09  101.59
   3   9 -10  359.76   78.89
  -2  -9  10   36.80   65.09
   2  -9 -10  190.38   88.79
   2  -9 -10  271.17   70.49
   2  -9 -10  165.48   82.89
   2   9 -10  119.39   93.79
   2   9 -10  178.78   81.09
   2   9 -10  181.88   86.19
  -1  -9  10  338.67   70.39
   1  -9 -10  441.26   89.39
   1  -9 -10  506.85   83.39
   1   9 -10  850.21  108.59
   1   9 -10  499.75   89.19
   1   9 -10  544.85  107.89
   0  -9 -10   28.20   73.79
   0   9 -10  -63.49   77.59
   0   9 -10  112.59   82.39
   0   9 -10  -86.49   91.69
  -1  -9 -10  239.78   74.99
  -1   9 -10  201.38   88.59
  -1   9 -10  116.59   84.99
  -1   9 -10  474.75  108.99
   7   0 -11  368.36   88.09
   7   0 -11  310.27   94.19
   7   0 -11  432.26   87.89
  -7   0  11  231.38   63.99
   6   0 -11   66.79   83.39
   6   0 -11  -12.20   70.29
   6   0 -11  129.09   74.99
   6   0 -11  120.09   84.59
   5   0 -11  165.28   71.89
   5   0 -11   69.19   90.29
   5   0 -11   68.79   74.69
  -5   0  11  110.79   37.30
   4   0 -11  -33.20   75.99
   4   0 -11 -110.09   56.39
   4   0 -11   34.70   80.29
   3   0 -11  325.97   74.29
   3   0 -11  395.36   61.29
   3   0 -11  402.66   77.39
   2   0 -11   13.30   43.90
   2   0 -11  -39.30   57.69
   2   0 -11  -21.70   59.49
   1   0 -11  457.95   77.89
   1   0 -11  523.45   51.09
   1   0 -11  589.14   64.39
   1   0 -11  468.45   74.49
   0   0 -11  -49.50   33.70
   0   0 -11  -73.09   30.30
   0   0 -11   51.29   62.99
   0   0 -11  -70.79   58.09
  -1   0 -11   45.20   69.89
  -1   0 -11   29.80   38.10
  -1   0 -11  117.59   72.69
  -1   0 -11  120.29   39.00
  -2   0 -11   30.40   69.19
  -2   0 -11   14.60   46.00
  -3   0 -11  340.77   78.29
  -3   0 -11  353.06   83.99
  -4   0 -11   -4.10   79.39
  -4   0 -11   91.79   66.49
   7  -1 -11  -80.09   74.29
   7  -1 -11  -33.30   86.59
  -7  -1  11  -39.30   59.49
   7  -1 -11   77.29   74.49
   7   1 -11   -7.00   75.99
   7   1 -11  116.19   85.69
   7   1 -11   95.59   78.79
  -7   1  11   40.70   77.39
   6  -1 -11  549.15   89.99
   6  -1 -11  493.15   86.49
  -6  -1  11  446.56   68.49
   6  -1 -11  545.65   98.49
  -6   1  11  560.94   60.69
   6   1 -11  507.25  101.69
   6   1 -11  553.54   98.89
   6   1 -11  529.85   90.29
   5  -1 -11  161.08   82.89
  -5  -1  11  219.98   42.00
   5  -1 -11  233.78   80.79
   5  -1 -11  283.37   77.29
   5  -1 -11  229.58   73.59
   5   1 -11  278.87   80.89
   5   1 -11  330.27   84.99
  -5   1  11  167.68   33.90
   4  -1 -11  261.87   72.09
   4  -1 -11  208.78   61.39
  -4  -1  11  194.28   29.20
   4   1 -11  339.47   88.99
   4   1 -11  248.68   68.99
   3  -1 -11  236.08   68.89
   3  -1 -11  301.67   79.09
   3  -1 -11  392.76   59.19
   3   1 -11  414.66   85.79
   3   1 -11  268.37   58.89
   3   1 -11  285.87   75.49
   2  -1 -11   84.29   42.00
   2  -1 -11   -2.10   51.99
   2  -1 -11  -10.30   61.09
   2   1 -11  -43.40   64.19
   2   1 -11   66.19   44.50
   2   1 -11   24.40   63.89
   1  -1 -11  352.26   63.09
   1  -1 -11  382.66   73.29
   1  -1 -11  303.47   46.80
   1   1 -11  330.87   40.90
   1   1 -11  396.16   79.09
   1   1 -11  293.17   73.39
   1   1 -11  325.57   52.49
   0  -1 -11   29.80   56.09
   0  -1 -11   16.90   28.60
   0  -1 -11   12.80   58.09
   0  -1 -11   -1.00   35.70
   0   1 -11   -3.70   70.19
   0   1 -11   18.40   35.30
   0   1 -11   17.50   39.50
   0   1 -11   67.89   63.49
  -1  -1 -11   84.39   66.09
  -1  -1 -11  147.09   70.29
  -1  -1 -11   87.49   37.40
  -1   1 -11   57.79   41.50
  -1   1 -11   70.49   42.70
  -1   1 -11   12.90   79.79
  -1   1 -11  179.08   76.89
  -2  -1 -11   52.79   42.30
  -2  -1 -11  125.69   77.09
  -2   1 -11  294.27   47.70
  -2   1 -11  156.08   75.69
  -2   1 -11  212.78   59.69
  -3  -1 -11  221.28   68.49
  -3  -1 -11   36.40   69.29
  -3  -1 -11  242.68   71.29
  -3   1 -11  185.78   83.59
  -4  -1 -11  117.39   75.79
  -4  -1 -11  127.59   72.99
  -4  -1 -11  246.08   77.99
  -4   1 -11  102.69   88.59
  -4   1 -11  186.58   75.09
   7  -2 -11   31.50   87.69
   7  -2 -11  187.88   85.69
  -7  -2  11   77.29   63.09
   7  -2 -11   85.79   78.59
   7   2 -11  113.09   87.69
   7   2 -11  245.38   89.89
  -6  -2  11   41.00   61.79
   6  -2 -11 -172.98   68.69
   6  -2 -11  144.99   78.69
   6  -2 -11   23.30   71.99
  -6   2  11   -5.80   41.10
   6   2 -11    0.00   69.89
   6   2 -11   -9.60   76.59
   6   2 -11  -39.70   82.29
   5  -2 -11   49.20   73.79
   5  -2 -11   -4.20   68.89
   5  -2 -11  -93.29   65.19
   5  -2 -11   32.60   70.69
  -5  -2  11  -25.20   47.90
   5   2 -11   73.79   67.59
   5   2 -11   -9.10   79.39
  -5   2  11   -8.40   27.70
   4  -2 -11   60.49   61.79
   4  -2 -11  151.48   57.29
  -4  -2  11   17.90   31.60
   4  -2 -11  -44.80   66.59
   4  -2 -11  110.39   78.19
   4   2 -11   14.30   85.79
   4   2 -11   49.90   70.79
   4   2 -11   66.79   73.49
   3  -2 -11   45.20   55.79
   3  -2 -11  -20.90   44.30
   3  -2 -11    8.80   69.39
   3   2 -11  -62.09   70.99
   3   2 -11   72.39   56.99
   2  -2 -11  323.27   62.29
   2  -2 -11  319.27   74.79
   2  -2 -11  317.67   49.60
   2   2 -11  253.97   77.89
   2   2 -11  302.87   79.29
   2   2 -11  303.37   56.09
   1  -2 -11   26.00   36.40
   1  -2 -11   24.90   64.39
   1  -2 -11   88.39   51.79
   1   2 -11   72.69   70.99
   1   2 -11   62.69   45.70
   1   2 -11   99.89   73.09
   1   2 -11   10.20   37.70
   0  -2 -11 1453.45   81.79
   0  -2 -11 1587.34  129.99
   0  -2 -11 1578.54  107.99
   0   2 -11 1453.95  129.19
   0   2 -11 1614.24   90.79
   0   2 -11 1536.45   94.29
  -1  -2 -11   24.50   31.40
  -1  -2 -11   49.90   63.39
  -1  -2 -11   -4.40   54.49
  -1  -2 -11   13.20   34.60
  -1  -2 -11    2.10   28.20
  -1   2 -11  -63.09   76.69
  -1   2 -11  -16.50   43.80
  -1   2 -11   31.10   42.40
  -2  -2 -11 1585.94  148.99
  -2  -2 -11 1739.93   95.49
  -2  -2 -11 1664.33  130.39
  -2   2 -11 1173.78  131.59
  -2   2 -11 1709.63  101.19
  -2   2 -11 1664.83  120.49
  -3  -2 -11   99.29   73.89
  -3  -2 -11    9.60   73.59
  -3  -2 -11   14.50   63.69
  -3  -2 -11  142.99   67.29
  -3   2 -11  166.18   68.29
  -3   2 -11   53.59   77.39
  -4  -2 -11  217.28   82.59
  -4  -2 -11  167.18   74.19
  -4  -2 -11  215.78   78.99
  -4   2 -11  343.07  101.19
  -4   2 -11  118.29   71.89
  -7  -3  11 -115.69   65.39
   7  -3 -11   94.89   93.19
   7  -3 -11   74.79   82.49
   7  -3 -11   70.89   81.39
   7   3 -11  -23.80   96.69
   7   3 -11   -6.70   80.29
   7   3 -11    1.60   87.99
  -7   3  11  -29.80   66.99
   6  -3 -11  666.33   96.79
   6  -3 -11  442.86   96.39
  -6  -3  11  488.45   75.89
   6  -3 -11  562.74   90.99
   6   3 -11  573.34  106.89
  -6   3  11  525.15   62.69
   6   3 -11  610.14   98.09
   6   3 -11  748.23   98.59
   5  -3 -11  306.57   81.79
  -5  -3  11  168.28   54.79
   5  -3 -11  197.38   76.99
   5  -3 -11  344.17   85.59
   5   3 -11  170.78   85.29
   5   3 -11  164.18   76.79
   5   3 -11  144.39   79.09
   4  -3 -11  -43.20   55.29
  -4  -3  11  130.09   41.40
   4  -3 -11  126.89   70.39
   4  -3 -11  112.59   58.59
   4  -3 -11  124.49   76.49
   4   3 -11  281.67   75.39
   4   3 -11   63.49   72.89
   4   3 -11  203.58   87.79
   3  -3 -11  573.54  103.99
   3  -3 -11  813.32  100.09
  -3  -3  11  787.82   49.99
   3  -3 -11  711.43   80.09
   3  -3 -11  950.20   97.69
   3   3 -11  687.53  112.69
   3   3 -11  755.32   83.39
   2  -3 -11  -33.70   36.60
   2  -3 -11   40.00   50.69
   2  -3 -11   76.59   73.09
   2  -3 -11   26.70   68.49
   2   3 -11  -79.29   49.00
   2   3 -11  -13.00   73.19
   1  -3 -11  455.05   62.19
   1  -3 -11  489.95   81.19
   1  -3 -11  683.03   88.49
   1  -3 -11  571.44   63.69
   1   3 -11  487.95   98.89
   1   3 -11  546.35   66.79
   1   3 -11  410.96   55.19
   1   3 -11  448.06  102.99
   0  -3 -11   53.29   67.89
   0  -3 -11   57.39   63.19
   0  -3 -11   54.99   49.60
   0  -3 -11   93.59   42.40
   0   3 -11   22.20   42.80
   0   3 -11  -23.70   46.80
   0   3 -11   99.39   61.69
  -1  -3 -11  590.34   69.09
  -1  -3 -11  611.74   82.49
  -1  -3 -11  372.76   74.49
  -1  -3 -11  633.54   63.09
  -1  -3 -11  468.05   54.69
  -1   3 -11  642.74   71.69
  -1   3 -11  600.64   65.29
  -1   3 -11  732.13   93.29
  -2  -3 -11  350.96   49.60
  -2  -3 -11  337.97   49.50
  -2  -3 -11  478.35   80.59
  -2  -3 -11  318.67   70.39
  -2  -3 -11  327.77   72.09
  -2   3 -11  316.57   80.59
  -2   3 -11  339.17   65.09
  -2   3 -11  524.15   96.49
  -3  -3 -11  104.49   74.39
  -3  -3 -11  171.98   64.19
  -3  -3 -11  -16.20   89.99
  -3   3 -11  195.28   59.69
  -3   3 -11   59.79   66.49
  -3   3 -11  216.38   89.59
   7  -4 -11    9.00   91.89
   7  -4 -11   95.99   89.99
   7  -4 -11  265.17   94.79
  -7  -4  11  100.29   70.89
   7   4 -11  129.19   89.49
   7   4 -11  274.17   91.59
   7   4 -11  197.08  105.09
   6  -4 -11 -214.08   75.09
   6  -4 -11  152.18   81.69
   6  -4 -11   18.30   76.99
  -6  -4  11 -164.78   58.09
   6   4 -11   36.00   79.89
   6   4 -11  -25.10   79.29
   6   4 -11   -3.10   87.99
   5  -4 -11  872.51  106.89
  -5  -4  11  706.83   77.19
   5  -4 -11  691.63  100.89
   5  -4 -11  808.42  100.89
   5   4 -11  678.23   95.69
   5   4 -11  923.41  119.39
   5   4 -11  692.83   98.49
   4  -4 -11  -64.59   65.19
   4  -4 -11  -69.19   66.39
  -4  -4  11   47.20   51.19
   4  -4 -11   77.19   56.69
   4   4 -11   43.80   66.69
   4   4 -11   -9.50   72.09
   3  -4 -11  670.73   86.09
  -3  -4  11  687.83   58.99
   3  -4 -11  680.93   84.19
   3  -4 -11  672.33   77.29
   3   4 -11  581.54   96.29
   3   4 -11  699.03   91.09
   3   4 -11  573.14   86.99
   2  -4 -11   84.29   42.30
   2  -4 -11  111.29   73.79
   2  -4 -11   63.09   82.19
   2  -4 -11   63.29   49.40
   2   4 -11  100.09   76.09
   2   4 -11   25.80   64.89
   2   4 -11   12.90   59.69
   1  -4 -11  131.39   75.99
   1  -4 -11  110.49   38.80
   1  -4 -11   48.40   47.40
   1   4 -11  148.69   63.19
   1   4 -11  156.58   68.39
   1   4 -11   45.40   52.39
   1   4 -11  171.88   75.89
   0  -4 -11   17.50   36.50
   0  -4 -11  157.68   76.09
   0  -4 -11   47.20   46.50
   0  -4 -11  170.28   70.79
   0   4 -11   47.10   64.39
   0   4 -11   58.79   71.39
   0   4 -11   41.10   56.29
   0   4 -11  135.59   56.69
  -1  -4 -11   39.60   66.69
  -1  -4 -11   80.19   40.40
  -1  -4 -11  -74.39   47.90
  -1  -4 -11  -65.99   69.09
  -1   4 -11  135.99   76.39
  -1   4 -11  109.79   66.29
  -1   4 -11   81.89   55.49
  -2  -4 -11  -40.20   59.39
  -2  -4 -11   54.39   72.79
  -2  -4 -11  -46.60   44.30
  -2  -4 -11  111.09   67.89
  -2  -4 -11   -4.10   59.59
  -2   4 -11  -62.89   61.99
  -2   4 -11  -50.49   73.89
  -2   4 -11  -57.79   60.19
  -3  -4 -11  390.26   77.69
  -3  -4 -11  396.06   82.09
  -3  -4 -11  278.17   98.29
  -3  -4 -11  358.46   88.59
  -3   4 -11  387.66   98.39
  -3   4 -11  466.15   92.09
  -3   4 -11  468.95   85.99
   6  -5 -11  698.53   95.99
   6  -5 -11  678.73  109.79
  -6  -5  11  539.85   77.19
   6  -5 -11  797.82  115.99
   6   5 -11  648.34  101.29
   6   5 -11  705.93  115.59
   6   5 -11  725.73  114.49
   5  -5 -11   82.99   75.69
  -5  -5  11  116.79   62.39
   5  -5 -11  -34.90   70.49
   5   5 -11   82.69   75.79
   5   5 -11   77.59   76.29
   5   5 -11  158.58   90.59
   4  -5 -11  312.97   83.19
   4  -5 -11  233.58   82.69
  -4  -5  11  196.28   61.29
   4  -5 -11  267.47   67.89
   4   5 -11  264.67   77.99
   4   5 -11  322.37   89.99
   4   5 -11  166.28   78.79
   3  -5 -11  659.93   92.69
   3  -5 -11  680.43   99.19
   3  -5 -11  654.23   68.69
  -3  -5  11  573.34   66.59
   3   5 -11  609.24   99.49
   3   5 -11  754.92   93.19
   2  -5 -11  -61.69   74.99
   2  -5 -11   42.10   62.49
  -2  -5  11   79.49   34.10
   2  -5 -11  -80.99   41.40
   2  -5 -11   69.09   48.00
   2   5 -11  151.68   75.09
   2   5 -11   -9.60   73.19
   2   5 -11  174.28   71.49
   1  -5 -11  229.98   75.89
   1  -5 -11  236.58   46.80
   1  -5 -11  296.37   81.69
   1  -5 -11  225.18   48.20
   1   5 -11  260.47   82.89
   1   5 -11  201.28   77.69
   1   5 -11  234.28   66.89
   1   5 -11  371.66   79.29
   0  -5 -11  128.69   48.80
   0  -5 -11  214.58  102.69
   0  -5 -11  161.78   78.69
   0   5 -11    2.30   72.49
   0   5 -11  133.89   74.09
   0   5 -11  108.39   65.59
  -1  -5 -11   94.99   70.59
  -1  -5 -11   85.89   50.69
  -1   5 -11   -1.70   62.19
  -1   5 -11   88.59   76.09
  -1   5 -11  105.89   71.79
  -2  -5 -11  298.87   82.79
  -2  -5 -11  315.37   86.19
  -2  -5 -11  199.98   60.69
  -2  -5 -11  285.77   86.19
  -2   5 -11  508.95   80.09
  -2   5 -11  321.37   87.69
  -2   5 -11  453.35   86.49
  -3  -5 -11  208.38  107.19
  -3   5 -11 -111.59   83.79
  -3   5 -11 -142.79   93.09
  -3   5 -11   47.80   74.69
   6  -6 -11  -25.80   73.89
  -6  -6  11   -4.80   68.09
   6  -6 -11  113.49   92.19
   6  -6 -11 -175.48   81.39
   6   6 -11 -126.59   83.59
   6   6 -11   83.59   88.69
   6   6 -11  -71.59   94.89
   5  -6 -11   63.29   68.69
   5  -6 -11 -166.88   77.29
  -5  -6  11   69.19   58.89
   5  -6 -11   85.09   83.69
   5   6 -11  -33.20   85.49
   5   6 -11  -95.29   89.09
   5   6 -11    4.10   73.29
   4  -6 -11  113.09   72.29
   4  -6 -11   -7.00   70.19
   4  -6 -11  -28.70   78.19
   4   6 -11   41.70   69.59
   4   6 -11   82.59   77.29
   4   6 -11  -68.59   79.29
   3  -6 -11  -53.39   69.49
   3  -6 -11   76.39   71.59
  -3  -6  11   99.89   54.69
   3  -6 -11  -93.59   50.99
   3   6 -11   77.29   82.39
   3   6 -11   85.99   71.59
   3   6 -11 -161.58   73.19
   2  -6 -11  353.56   57.19
   2  -6 -11  385.86   79.69
   2   6 -11  277.77   86.69
   2   6 -11  494.85   86.79
   2   6 -11  353.26   81.79
   1  -6 -11  -96.89   71.99
   1  -6 -11  -18.40   65.59
   1  -6 -11  -27.30   55.19
   1   6 -11   72.49   75.59
   1   6 -11   10.80   74.59
   0  -6 -11 1338.17  121.99
   0  -6 -11 1190.48  132.09
   0   6 -11  876.11  110.69
   0   6 -11 1188.08  108.19
  -1  -6 -11   -9.80   75.49
  -1  -6 -11   39.90   66.39
  -1   6 -11  -27.60   73.49
  -1   6 -11  -84.89   73.69
  -1   6 -11 -103.39   64.19
  -2  -6 -11  721.43   93.19
  -2  -6 -11  763.42  119.79
  -2   6 -11  997.30  120.99
  -2   6 -11  775.02   99.69
  -2   6 -11  806.62   99.79
  -5  -7  11  301.67   72.69
   5  -7 -11  375.46  101.69
   5  -7 -11  281.87   92.99
   5  -7 -11  344.37   78.99
   5   7 -11  137.79   87.69
   5   7 -11  408.06  116.99
   5   7 -11  160.98   93.89
  -4  -7  11   99.89   65.79
   4  -7 -11  216.48   86.29
   4  -7 -11  121.89   79.59
   4   7 -11   47.10   96.89
   4   7 -11  119.29   76.49
   4   7 -11  107.59   83.19
   3  -7 -11  391.26   75.49
   3  -7 -11  424.26   88.69
   3  -7 -11  347.97   83.59
   3   7 -11  299.27   91.19
   3   7 -11  414.36   88.49
   3   7 -11  376.86  107.49
  -2  -7  11  -58.29   52.49
   2  -7 -11 -188.18   91.29
   2  -7 -11  -60.79   52.29
   2  -7 -11 -157.38   70.89
   2   7 -11    0.50   79.69
   2   7 -11  -10.20   70.79
   2   7 -11   54.49   75.09
   1  -7 -11  587.84   91.69
   1  -7 -11  500.85   89.09
   1   7 -11  559.24   88.89
   1   7 -11  608.94   96.19
   1   7 -11  481.55   99.29
   0  -7 -11  220.28   74.89
   0  -7 -11   90.79   85.89
   0   7 -11  174.68   77.69
   0   7 -11  100.19   89.19
   0   7 -11  -94.99   76.29
  -1  -7 -11  311.37   76.19
  -1  -7 -11  232.58   98.59
  -1   7 -11  519.85   90.39
  -1   7 -11  275.27  102.29
  -1   7 -11  331.67   84.49
   4  -8 -11  123.09   76.09
  -4  -8  11  -44.30   65.49
   4  -8 -11  -57.69   82.39
   4  -8 -11  -29.60   87.59
   4   8 -11  154.18   90.69
   4   8 -11  -81.19   98.59
   4   8 -11  -39.00   77.49
   3  -8 -11  155.38   78.99
   3  -8 -11  348.67   88.29
   3  -8 -11  162.38   89.49
   3   8 -11  240.28   96.29
   3   8 -11  120.19  102.29
   3   8 -11  186.88   86.99
   2  -8 -11   22.50   72.29
   2  -8 -11  143.79   85.89
   2   8 -11  181.48   87.39
   2   8 -11   27.90   95.99
   2   8 -11  221.38   88.29
   1  -8 -11  513.15   89.79
   1   8 -11  304.27  101.79
   1   8 -11  273.47   90.59
   1   8 -11  353.36   88.09
   1   8 -11  305.17   90.99
   0  -8 -11  222.48   79.99
   0   8 -11  148.29   96.79
   0   8 -11   62.49   86.09
   0   8 -11  275.17   88.09
   7   0 -12 -152.18   83.79
   7   0 -12   21.20   94.49
   7   0 -12  262.37   96.09
  -7   0  12   67.09   63.49
   6   0 -12  -56.39   84.49
   6   0 -12   -8.30   73.09
   6   0 -12   89.39   89.39
   6   0 -12  -51.69   75.19
   5   0 -12 -159.38   77.09
   5   0 -12  -29.30   64.09
   5   0 -12   17.30   78.39
   4   0 -12 1087.29  132.39
   4   0 -12 1129.89  130.09
   3   0 -12 -131.39   77.29
   3   0 -12   -8.90   56.59
   3   0 -12   43.30   68.99
   2   0 -12 1466.35  125.89
   2   0 -12 1356.26   99.09
   2   0 -12 1174.38  129.89
   1   0 -12   21.60   66.89
   1   0 -12   86.89   48.10
   1   0 -12  -55.59   74.79
   0   0 -12  595.74   69.39
   0   0 -12  621.14   87.09
   0   0 -12  713.23   77.39
  -1   0 -12  -20.50   66.69
  -1   0 -12    1.50   45.10
  -1   0 -12   -7.30   70.99
  -2   0 -12  214.08   71.79
  -2   0 -12  233.38   81.99
  -2   0 -12  142.59   77.09
  -3   0 -12  146.69   79.59
  -3   0 -12  -69.59   68.69
  -3   0 -12   63.29   83.89
   6  -1 -12  171.98   95.49
   6  -1 -12   49.60   82.39
  -6  -1  12  -44.80   58.99
   6  -1 -12   51.69   76.79
   6   1 -12  131.39   92.19
   6   1 -12   20.00   76.19
   6   1 -12   36.10   90.19
   5  -1 -12  270.87   88.09
   5  -1 -12  429.26   91.29
   5  -1 -12  254.77  107.79
   5  -1 -12  295.77   95.79
   5   1 -12  424.76   83.29
   5   1 -12  334.57   89.59
   5   1 -12  448.96   99.99
   4  -1 -12   -4.80   69.79
   4  -1 -12   36.90   71.79
   4  -1 -12   18.20   83.99
   4   1 -12   -7.30   72.49
   4   1 -12   22.30   73.29
   4   1 -12  -40.10   81.29
   3  -1 -12  647.64   72.69
   3  -1 -12  533.75   88.39
   3  -1 -12 1061.89  132.49
   3   1 -12  543.85   90.89
   3   1 -12  512.65   78.09
   2  -1 -12  396.96   59.69
   2  -1 -12  395.56   81.29
   2  -1 -12  429.76   87.39
   2   1 -12  429.26   61.89
   2   1 -12  457.55   83.79
   1  -1 -12  512.65   86.19
   1  -1 -12  520.35   60.99
   1  -1 -12  518.95   78.09
   1   1 -12  398.36   49.00
   1   1 -12  481.65   81.79
   1   1 -12  354.36   59.89
   0  -1 -12  287.17   48.60
   0  -1 -12  291.97   84.69
   0  -1 -12  228.38   75.19
   0   1 -12  144.99   72.29
   0   1 -12  185.28   79.89
   0   1 -12  146.59   48.20
   0   1 -12  107.99   51.49
  -1  -1 -12  103.09   69.89
  -1  -1 -12   41.90   45.00
  -1   1 -12   76.49   56.09
  -1   1 -12  104.99   52.69
  -1   1 -12  -30.40   68.59
  -1   1 -12   50.39   80.59
  -2  -1 -12   32.80   59.19
  -2  -1 -12   80.59   73.49
  -2  -1 -12  -17.40   75.09
  -2   1 -12  163.08   74.49
  -2   1 -12  105.29   78.49
  -2   1 -12   42.10   76.89
   6  -2 -12  -27.00   77.29
  -6  -2  12   22.40   65.49
   6  -2 -12 -125.49   88.79
   6  -2 -12 -199.88   76.29
   6   2 -12  166.38   88.29
   6   2 -12  -16.80   92.59
   6   2 -12 -185.48   83.49
   5  -2 -12  300.67  102.69
   5  -2 -12  305.27   82.89
   5  -2 -12  107.49   80.99
  -5  -2  12  160.18   43.20
   5  -2 -12  287.57   86.69
   5   2 -12  185.18   97.79
   5   2 -12  225.98   86.79
   5   2 -12  104.79   77.09
   4  -2 -12   83.29   73.89
   4  -2 -12  141.09   74.19
   4  -2 -12 -146.09   74.59
   4  -2 -12  -45.20   79.89
   4   2 -12  129.59   83.19
   4   2 -12   72.09   73.19
   3  -2 -12  233.98   53.99
   3  -2 -12  301.67   81.89
   3  -2 -12  278.77   77.79
   3  -2 -12  183.48   75.09
   3   2 -12  325.57   79.89
   3   2 -12  325.37   85.39
   3   2 -12  325.27   81.39
   2  -2 -12   58.79   66.39
   2  -2 -12   86.79   68.99
   2  -2 -12  235.18   53.09
   2   2 -12    2.20   74.49
   2   2 -12  -32.40   65.89
   2   2 -12  142.59   60.99
   1  -2 -12   22.20   45.20
   1  -2 -12   25.90   67.79
   1  -2 -12   94.39   67.69
   1   2 -12  -47.00   46.80
   1   2 -12  144.89   74.09
   1   2 -12   -6.80   64.49
   1   2 -12   40.10   43.80
   0  -2 -12    7.90   72.99
   0  -2 -12   46.40   66.59
   0   2 -12    5.00   64.79
   0   2 -12   20.30   74.29
   0   2 -12  -17.70   46.30
   0   2 -12   68.79   52.69
  -1  -2 -12  813.82   96.29
  -1  -2 -12  880.61   98.19
  -1   2 -12  787.12   97.49
  -1   2 -12  825.92  100.19
  -1   2 -12  845.02   84.69
  -1   2 -12 1083.19  117.09
  -2  -2 -12  174.58   67.89
  -2  -2 -12  113.29   70.69
  -2  -2 -12   -7.30   67.39
  -2   2 -12   33.50   67.99
  -2   2 -12   -8.50   77.59
  -2   2 -12  -67.79   84.19
  -6  -3  12  204.08   64.69
   6  -3 -12  524.75   93.69
   6  -3 -12  257.47   98.89
   6  -3 -12  519.65  102.69
   6   3 -12  430.76   96.99
   6   3 -12  240.48  105.19
   6   3 -12  410.56  112.29
   5  -3 -12  497.75   95.89
   5  -3 -12  540.45   99.49
   5  -3 -12  378.16   80.69
  -5  -3  12  197.48   56.29
   5   3 -12  365.16   90.59
   5   3 -12  333.67   97.29
   5   3 -12  363.06   91.19
   4  -3 -12  -12.50   67.39
   4  -3 -12  232.58   74.19
   4  -3 -12  -10.40   69.79
   4  -3 -12  -54.19   73.59
   4   3 -12  -58.69   69.19
   4   3 -12  -39.40   81.89
   4   3 -12  122.09   76.19
   3  -3 -12   92.19   53.19
   3  -3 -12  100.69   65.89
   3  -3 -12  102.89   69.29
   3  -3 -12  -28.10   71.39
   3   3 -12   38.40   65.89
   3   3 -12   59.29   77.69
   3   3 -12    8.10   76.39
   2  -3 -12  178.58   76.79
   2  -3 -12  173.08   50.79
   2  -3 -12  165.18   60.19
   2  -3 -12   79.99   74.39
   2   3 -12  115.59   74.59
   2   3 -12  142.89   75.69
   2   3 -12  156.48   82.49
   1  -3 -12  231.58   74.99
   1  -3 -12  105.29   62.59
   1  -3 -12  249.48   76.59
   1  -3 -12  201.18   46.20
   1   3 -12  167.58   80.19
   1   3 -12  124.39   62.59
   1   3 -12  154.88   72.99
   1   3 -12  228.48   53.79
   0  -3 -12  536.75   85.99
   0  -3 -12  511.65   79.79
   0  -3 -12  392.06   71.19
   0   3 -12  483.25   91.79
   0   3 -12  469.35   73.69
   0   3 -12  443.06   67.99
   0   3 -12  491.45   88.79
  -1  -3 -12   39.30   80.69
  -1  -3 -12  146.09   67.99
  -1  -3 -12   75.29   69.19
  -1   3 -12  -71.69   62.69
  -1   3 -12  135.09   76.99
  -1   3 -12   78.19   82.09
  -1   3 -12 -134.79   65.59
  -2  -3 -12  -49.10   67.49
  -2  -3 -12  125.39   67.19
  -2   3 -12   51.39   67.49
  -2   3 -12  254.17   94.09
   6  -4 -12  -42.10   90.69
   6  -4 -12  -16.80   95.99
   6  -4 -12  -51.39   81.29
  -6  -4  12 -199.18   65.19
   6   4 -12  216.68   96.39
   6   4 -12 -137.89   95.99
   5  -4 -12   57.79   68.69
  -5  -4  12   66.89   64.39
   5  -4 -12  149.99   88.49
   5  -4 -12   22.40   83.59
   5   4 -12  139.09   85.79
   5   4 -12   89.99   99.69
   5   4 -12  138.09   87.49
   4  -4 -12  364.06   80.59
   4  -4 -12  207.88   88.09
   4  -4 -12  439.16   93.39
   4   4 -12  319.17   86.99
   4   4 -12  286.77   97.99
   4   4 -12  419.66   89.59
   3  -4 -12  -39.00   55.89
   3  -4 -12    8.50   78.59
   3  -4 -12  -59.99   57.79
   3  -4 -12   93.09   74.09
   3   4 -12  -11.50   70.89
   3   4 -12    0.10   83.49
   3   4 -12   50.09   67.19
   2  -4 -12 1739.63  133.19
   2  -4 -12 1564.84  104.79
   2  -4 -12 1572.04  137.39
   2   4 -12 1619.94  202.38
   2   4 -12 1806.12  151.68
   2   4 -12 1706.73  141.69
   1  -4 -12  126.19   69.89
   1  -4 -12  -53.09   55.99
   1  -4 -12   64.39   68.79
   1   4 -12   30.80   61.49
   1   4 -12   38.20   79.29
   1   4 -12   53.79   69.09
   1   4 -12  -16.80   70.89
   0  -4 -12  813.02   98.49
   0  -4 -12 1184.98  123.69
   0  -4 -12  769.92   93.49
   0   4 -12  844.62  112.49
   0   4 -12  846.32  103.69
   0   4 -12 1051.69  125.69
   0   4 -12  698.53   88.99
  -1  -4 -12   52.19   66.99
  -1  -4 -12   -2.30   66.09
  -1  -4 -12  -43.20   66.09
  -1   4 -12  -53.29   83.49
  -1   4 -12   26.90   62.89
  -1   4 -12  -73.69   81.99
  -2  -4 -12  144.09   76.89
  -2  -4 -12  335.57   88.79
  -2   4 -12  237.08   90.99
  -2   4 -12  405.56   80.19
  -2   4 -12  152.08   94.19
   5  -5 -12  530.65  106.69
   5  -5 -12  596.74  113.69
   5  -5 -12  443.96   85.49
   5   5 -12  655.33  115.79
   5   5 -12  343.77  102.99
   5   5 -12  567.54  107.69
   4  -5 -12   53.49   79.49
   4  -5 -12   32.30   80.49
  -4  -5  12  -95.49   57.19
   4  -5 -12   15.40   79.09
   4   5 -12   74.79   84.59
   4   5 -12  133.19   81.79
   4   5 -12 -137.49   85.89
   3  -5 -12  540.45   90.99
   3  -5 -12  515.05   94.99
   3  -5 -12  424.36   74.19
   3   5 -12  546.25   90.49
   3   5 -12  545.05  102.49
   3   5 -12  392.76   89.89
   2  -5 -12  -34.90   78.09
   2  -5 -12   63.39   73.29
   2  -5 -12  -83.09   52.99
   2   5 -12  169.68   86.99
   2   5 -12   95.59   74.69
   2   5 -12  -12.10   68.59
   1  -5 -12   58.29   74.19
   1  -5 -12  251.97   79.09
   1   5 -12  191.48   84.49
   1   5 -12  329.77   88.69
   1   5 -12  153.08   85.59
   0  -5 -12  174.48   74.49
   0  -5 -12  115.49   68.99
   0   5 -12   65.39   92.89
   0   5 -12  314.77   92.59
   0   5 -12  148.49   82.39
   0   5 -12   74.19   64.99
  -1  -5 -12   64.59   69.39
  -1  -5 -12  242.38   73.99
  -1  -5 -12   69.69   83.19
  -1   5 -12  123.59   76.09
  -1   5 -12   45.20   82.59
  -1   5 -12   49.60   91.89
   4  -6 -12  -64.09   89.09
   4  -6 -12   65.59   86.59
   4  -6 -12  220.28   87.99
   4   6 -12  126.49   89.99
   4   6 -12   59.99   88.59
   4   6 -12   42.40   95.89
   3  -6 -12  151.28   76.39
   3  -6 -12  150.18   90.89
   3  -6 -12  199.08   81.79
   3   6 -12  255.17   87.79
   3   6 -12  160.08  100.89
   3   6 -12  105.39   82.99
   2  -6 -12 -123.39   75.29
   2  -6 -12   58.99   81.29
   2   6 -12   40.60   89.69
   2   6 -12   38.50   78.59
   2   6 -12  -22.80   79.59
   1  -6 -12   37.60   76.69
   1  -6 -12   -3.40   72.99
   1   6 -12   75.59   82.89
   1   6 -12   59.49   66.09
   1   6 -12  -79.89   88.59
   1   6 -12  135.09   78.09
   0  -6 -12  127.39   78.69
   0  -6 -12   72.39   72.89
   0   6 -12  -43.00   90.89
   0   6 -12   71.29   76.59
   0   6 -12   -5.30   84.79
   0   6 -12  -66.29   74.79
   3  -7 -12  117.49   88.19
   3  -7 -12  151.98   90.79
   3   7 -12  309.47   94.49
   3   7 -12  -28.10   85.39
   2  -7 -12  152.18   91.79
   2  -7 -12   44.40   80.19
   2   7 -12   54.09  101.09
   2   7 -12  263.77   94.09
   2   7 -12  325.77   92.69
   1  -7 -12  111.29   86.59
   1  -7 -12   70.99   84.29
   1   7 -12   71.99   84.59
   1   7 -12  126.99   89.99
   5   0 -13  -72.79   86.29
   5   0 -13    3.40   91.19
   5   0 -13  -75.19   73.19
   4   0 -13  126.59   70.99
   4   0 -13  147.79   83.09
   4   0 -13  209.08   91.29
   3   0 -13  128.69   81.69
   3   0 -13  198.98   86.09
   3   0 -13  375.56   96.29
   2   0 -13  119.49   75.89
   2   0 -13 -110.19   64.79
   2   0 -13   48.30   77.79
   1   0 -13  813.32   99.69
   1   0 -13  866.11  108.29
   1   0 -13  803.82   80.59
   0   0 -13 -116.29   81.09
   0   0 -13 -147.99   70.99
  -1   0 -13  421.26   94.59
  -1   0 -13  568.34   98.59
   5  -1 -13  611.04  101.29
   5  -1 -13  551.14  104.19
   5  -1 -13  466.15  101.89
   5  -1 -13  458.95   84.29
   5   1 -13  435.96   90.89
   5   1 -13  459.85  113.59
   5   1 -13  253.97  104.79
   4  -1 -13  229.88   92.69
   4  -1 -13  216.08  111.49
   4  -1 -13  239.38   91.99
   4  -1 -13  183.28   89.69
   4   1 -13  294.87   96.79
   4   1 -13  146.39   88.29
   4   1 -13  219.98   77.39
   3  -1 -13   52.49   80.79
   3  -1 -13  179.98   84.29
   3  -1 -13  169.18   85.29
   3   1 -13  224.78   86.09
   3   1 -13  247.38   83.09
   3   1 -13  127.19   92.29
   2  -1 -13   61.79   79.59
   2  -1 -13   95.19   63.69
   2  -1 -13   61.29   74.69
   2   1 -13  107.59   82.29
   2   1 -13  -87.49   76.09
   2   1 -13   52.79   79.59
   1  -1 -13   13.40   76.19
   1  -1 -13   40.10   75.09
   1   1 -13  -16.90   73.39
   1   1 -13  -41.90   64.69
   1   1 -13 -115.99   76.79
   0  -1 -13   69.79   74.09
   0  -1 -13   79.39   77.19
   0   1 -13  152.98   77.29
   0   1 -13  231.08   88.69
  -1  -1 -13  103.99   79.59
  -1  -1 -13   -5.00   75.89
  -1   1 -13  -49.90   87.49
  -1   1 -13   12.50   83.19
   5  -2 -13  217.98   91.09
   5  -2 -13   20.40   88.09
   5  -2 -13  -73.79   76.19
   5  -2 -13 -124.39   85.59
   5   2 -13 -229.68   84.39
   5   2 -13  -25.70  103.09
   5   2 -13  101.29   84.69
   4  -2 -13  576.64  102.99
   4  -2 -13  531.65  102.59
   4  -2 -13  584.84  109.49
   4   2 -13  711.43   92.19
   4   2 -13  707.63  112.39
   4   2 -13  730.63  117.89
   3  -2 -13  -41.50   80.19
   3  -2 -13   -6.10   75.39
   3  -2 -13   69.79   75.69
   3   2 -13   65.69   77.69
   3   2 -13  -21.30   85.49
   3   2 -13   70.39   70.99
   2  -2 -13  686.53  118.39
   2  -2 -13  570.94   96.39
   2  -2 -13  589.84   70.29
   2  -2 -13  357.46   90.29
   2   2 -13  593.74  108.09
   2   2 -13  651.23   91.99
   2   2 -13  544.35   94.89
   1  -2 -13   -1.20   76.09
   1  -2 -13  -68.19   73.99
   1   2 -13  161.58   79.99
   1   2 -13  -12.60   85.49
   1   2 -13  -11.20   71.89
   0  -2 -13  269.77   83.99
   0  -2 -13  554.94   86.79
   0  -2 -13  361.56   85.19
   0   2 -13  247.58   98.59
   0   2 -13  312.77   88.69
   0   2 -13  230.28  108.49
  -1  -2 -13  234.68   81.89
  -1  -2 -13   68.89   84.79
  -1   2 -13 -114.79   81.49
   4  -3 -13  294.97   91.29
   4  -3 -13  227.38  111.19
   4  -3 -13  137.09   97.49
   4  -3 -13  150.08  106.39
   4   3 -13   58.69   82.39
   4   3 -13  189.08  101.89
   4   3 -13  461.65   96.89
   3  -3 -13   85.69   81.49
   3  -3 -13  167.98   80.79
   3  -3 -13  126.69   87.09
   3  -3 -13  287.47   96.89
   3   3 -13   38.90   77.49
   3   3 -13  -45.90   83.89
   3   3 -13  299.37  106.79
   2  -3 -13   16.80   75.79
   2  -3 -13   93.79   94.59
   2  -3 -13  200.18   87.69
   2   3 -13  347.87  101.79
   2   3 -13  229.68   80.29
   2   3 -13  -10.20   83.39
   1  -3 -13  -42.70   84.09
   1  -3 -13  103.99   78.49
   1  -3 -13   40.40   75.09
   1   3 -13  -26.20   74.29
   1   3 -13  167.68   95.19
   0  -3 -13  136.39   83.39
   0  -3 -13   68.69  125.79
   0  -3 -13   78.19   74.89
   0   3 -13  -53.89   96.19
   0   3 -13 -106.29   79.69
   0   3 -13  180.48   81.09
   0   3 -13  -46.40   94.29
   4  -4 -13  165.38   80.09
   4  -4 -13  -10.40   83.69
   4  -4 -13   26.20   94.29
   4   4 -13  141.39   92.69
   4   4 -13  -30.70  101.99
   4   4 -13  -18.70   86.19
   3  -4 -13  275.07   91.09
   3  -4 -13  171.88  134.99
   3  -4 -13  264.27   96.69
   3   4 -13  110.69   88.19
   3   4 -13  286.47  105.19
   3   4 -13  171.68   83.59
   2  -4 -13  195.88   86.09
   2  -4 -13  -11.60   81.59
   2   4 -13  121.49   77.19
   2   4 -13   17.90   93.09
   2   4 -13  115.79   85.59
   1  -4 -13  517.55   96.09
   1  -4 -13  376.16   88.49
   1   4 -13  380.56  101.19
   1   4 -13  323.77   85.59
   1   4 -13  451.95  108.59
   0   0   0    0.00    0.00

_computing_structure_solution     'SHELXT 2014/5 (Sheldrick, 2014)'
;
_shelx_hkl_checksum              50431
loop_
_space_group_symop_operation_xyz
'x, y, z'
'-x+1/2, y+1/2, -z+1/2'
'-x, -y, -z'
'x-1/2, -y-1/2, z-1/2'
loop_
_atom_site_label
_atom_site_type_symbol
_atom_site_fract_x
_atom_site_fract_y
_atom_site_fract_z
_atom_site_U_iso_or_equiv
_atom_site_adp_type
_atom_site_occupancy
_atom_site_site_symmetry_order
_atom_site_calc_flag
_atom_site_refinement_flags_posn
_atom_site_refinement_flags_adp
_atom_site_refinement_flags_occupancy
_atom_site_disorder_assembly
_atom_site_disorder_group
Y Y 0.53708(4) 0.88293(3) 0.34189(3) 0.00515(7) Uani 1 1 d . . . . .
K K 0.57467(9) 0.37586(7) 0.41398(6) 0.01087(12) Uani 1 1 d . . . . .
O1 O 0.7239(3) 0.72693(19) 0.8169(2) 0.0072(4) Uani 1 1 d . . . . .
O2 O 0.6000(3) 0.9640(2) 0.8587(2) 0.0083(4) Uani 1 1 d . . . . .
O3 O 0.6014(3) 0.8945(2) 0.6074(2) 0.0098(4) Uani 1 1 d . . . . .
O4 O 0.6584(3) 0.4983(2) 0.1495(2) 0.0074(4) Uani 1 1 d . . . . .
O5 O 0.5739(3) 0.7481(2) 0.1238(2) 0.0092(4) Uani 1 1 d . . . . .
O6 O 0.6597(3) 0.65126(19) 0.3696(2) 0.0088(4) Uani 1 1 d . . . . .
B1 B 0.6480(4) 0.8591(3) 0.7628(3) 0.0066(5) Uani 1 1 d . . . . .
B2 B 0.6319(4) 0.6296(3) 0.2146(3) 0.0072(5) Uani 1 1 d . . . . .
Li1 Li 0.4171(7) 0.8831(6) 0.9934(5) 0.0125(9) Uani 1 1 d . . . . .
Li2 Li 0.4172(8) 0.3851(6) 0.0502(5) 0.0142(10) Uani 1 1 d . . . . .
loop_
_atom_site_aniso_label
_atom_site_aniso_U_11
_atom_site_aniso_U_22
_atom_site_aniso_U_33
_atom_site_aniso_U_23
_atom_site_aniso_U_13
_atom_site_aniso_U_12
Y 0.00646(12) 0.00412(11) 0.00487(11) 0.00001(10) 0.00127(8) 0.00013(10)
K 0.0136(3) 0.0094(3) 0.0093(3) -0.0002(2) 0.0019(2) -0.0023(2)
O1 0.0068(9) 0.0059(8) 0.0088(9) 0.0018(7) 0.0012(7) 0.0022(7)
O2 0.0106(9) 0.0075(9) 0.0072(9) -0.0012(7) 0.0027(7) 0.0018(7)
O3 0.0143(9) 0.0091(9) 0.0058(8) 0.0006(7) 0.0019(7) 0.0039(8)
O4 0.0084(9) 0.0054(8) 0.0084(9) -0.0022(7) 0.0017(7) -0.0001(7)
O5 0.0144(10) 0.0069(9) 0.0072(9) 0.0009(7) 0.0043(7) 0.0018(7)
O6 0.0127(9) 0.0077(9) 0.0052(8) -0.0003(7) 0.0007(7) 0.0030(7)
B1 0.0058(13) 0.0073(14) 0.0059(12) -0.0014(10) -0.0004(10) -0.0004(10)
B2 0.0053(12) 0.0092(13) 0.0069(12) 0.0004(11) 0.0010(9) -0.0013(11)
Li1 0.016(2) 0.012(2) 0.009(2) -0.0005(19) 0.0021(18) 0.001(2)
Li2 0.019(2) 0.013(2) 0.011(2) 0.003(2) 0.0037(19) -0.005(2)
loop_
_atom_type_symbol
_atom_type_description
_atom_type_scat_dispersion_real
_atom_type_scat_dispersion_imag
_atom_type_scat_source
B B 0.0013 0.0007 'International Tables Vol C Tables 4.2.6.8 and 6.1.1.4'
K K 0.2009 0.2494 'International Tables Vol C Tables 4.2.6.8 and 6.1.1.4'
Li Li -0.0003 0.0001 'International Tables Vol C Tables 4.2.6.8 and 6.1.1.4'
O O 0.0106 0.0060 'International Tables Vol C Tables 4.2.6.8 and 6.1.1.4'
Y Y -2.7962 3.5667 'International Tables Vol C Tables 4.2.6.8 and 6.1.1.4'
loop_
_geom_angle_atom_site_label_1
_geom_angle_atom_site_label_2
_geom_angle_atom_site_label_3
_geom_angle
_geom_angle_site_symmetry_1
_geom_angle_site_symmetry_3
O4 Y O6 98.05(7) 2_655 .
O4 Y O1 176.16(7) 2_655 4_575
O6 Y O1 83.77(7) . 4_575
O4 Y O2 86.32(7) 2_655 3_676
O6 Y O2 136.84(6) . 3_676
O1 Y O2 90.03(7) 4_575 3_676
O4 Y O3 89.01(7) 2_655 .
O6 Y O3 87.25(6) . .
O1 Y O3 94.47(7) 4_575 .
O2 Y O3 135.88(7) 3_676 .
O4 Y O3 88.22(7) 2_655 3_676
O6 Y O3 161.74(6) . 3_676
O1 Y O3 91.04(7) 4_575 3_676
O2 Y O3 60.35(6) 3_676 3_676
O3 Y O3 75.68(7) . 3_676
O4 Y O5 91.14(7) 2_655 .
O6 Y O5 59.76(6) . .
O1 Y O5 86.86(7) 4_575 .
O2 Y O5 77.31(6) 3_676 .
O3 Y O5 146.70(7) . .
O3 Y O5 137.62(6) 3_676 .
O4 Y B2 97.35(8) 2_655 .
O6 Y B2 29.96(7) . .
O1 Y B2 82.53(8) 4_575 .
O2 Y B2 106.90(8) 3_676 .
O3 Y B2 117.21(8) . .
O3 Y B2 165.88(7) 3_676 .
O5 Y B2 29.93(7) . .
O4 Y B1 86.27(8) 2_655 3_676
O6 Y B1 166.24(7) . 3_676
O1 Y B1 91.19(8) 4_575 3_676
O2 Y B1 29.99(7) 3_676 3_676
O3 Y B1 105.94(8) . 3_676
O3 Y B1 30.37(7) 3_676 3_676
O5 Y B1 107.30(7) . 3_676
B2 Y B1 136.70(9) . 3_676
O4 Y Li1 93.70(10) 2_655 1_554
O6 Y Li1 96.78(11) . 1_554
O1 Y Li1 82.71(10) 4_575 1_554
O2 Y Li1 40.08(11) 3_676 1_554
O3 Y Li1 174.77(10) . 1_554
O3 Y Li1 99.91(11) 3_676 1_554
O5 Y Li1 37.83(10) . 1_554
B2 Y Li1 66.90(11) . 1_554
B1 Y Li1 69.82(11) 3_676 1_554
O4 Y Li2 146.75(10) 2_655 2
O6 Y Li2 107.26(10) . 2
O1 Y Li2 34.24(10) 4_575 2
O2 Y Li2 89.53(10) 3_676 2
O3 Y Li2 71.43(9) . 2
O3 Y Li2 61.44(10) 3_676 2
O5 Y Li2 120.05(10) . 2
B2 Y Li2 115.36(11) . 2
B1 Y Li2 74.26(11) 3_676 2
Li1 Y Li2 104.09(12) 1_554 2
O4 Y K 128.52(5) 2_655 3_666
O6 Y K 53.16(5) . 3_666
O1 Y K 55.23(5) 4_575 3_666
O2 Y K 144.81(5) 3_676 3_666
O3 Y K 53.02(5) . 3_666
O3 Y K 109.86(5) 3_676 3_666
O5 Y K 103.41(5) . 3_666
B2 Y K 76.70(6) . 3_666
B1 Y K 132.57(6) 3_676 3_666
Li1 Y K 127.38(10) 1_554 3_666
Li2 Y K 59.15(9) 2 3_666
O6 K O1 111.66(6) . 3_666
O6 K O5 100.36(6) . 2_645
O1 K O5 105.24(6) 3_666 2_645
O6 K O2 70.48(6) . 2_646
O1 K O2 175.22(6) 3_666 2_646
O5 K O2 70.03(6) 2_645 2_646
O6 K O3 164.26(6) . 3_666
O1 K O3 52.85(5) 3_666 3_666
O5 K O3 87.88(6) 2_645 3_666
O2 K O3 125.20(6) 2_646 3_666
O6 K O6 111.41(5) . 3_666
O1 K O6 93.80(6) 3_666 3_666
O5 K O6 133.53(6) 2_645 3_666
O2 K O6 89.25(6) 2_646 3_666
O3 K O6 70.47(6) 3_666 3_666
O6 K O4 52.74(5) . .
O1 K O4 75.44(6) 3_666 .
O5 K O4 74.32(6) 2_645 .
O2 K O4 103.40(6) 2_646 .
O3 K O4 118.26(6) 3_666 .
O6 K O4 152.14(6) 3_666 .
O6 K O1 120.99(6) . 2_646
O1 K O1 127.31(3) 3_666 2_646
O5 K O1 68.54(6) 2_645 2_646
O2 K O1 50.93(5) 2_646 2_646
O3 K O1 74.46(5) 3_666 2_646
O6 K O1 66.24(5) 3_666 2_646
O4 K O1 140.30(6) . 2_646
O6 K B1 137.62(7) . 3_666
O1 K B1 28.06(7) 3_666 3_666
O5 K B1 87.60(7) 2_645 3_666
O2 K B1 148.41(7) 2_646 3_666
O3 K B1 28.41(7) 3_666 3_666
O6 K B1 90.68(7) 3_666 3_666
O4 K B1 91.02(7) . 3_666
O1 K B1 100.77(7) 2_646 3_666
O6 K B2 26.96(7) . .
O1 K B2 89.53(7) 3_666 .
O5 K B2 92.23(7) 2_645 .
O2 K B2 91.29(7) 2_646 .
O3 K B2 140.63(7) 3_666 .
O6 K B2 130.56(7) 3_666 .
O4 K B2 27.00(7) . .
O1 K B2 141.13(7) 2_646 .
B1 K B2 112.23(8) 3_666 .
O6 K K 57.20(4) . 3_666
O1 K K 112.42(5) 3_666 3_666
O5 K K 141.13(5) 2_645 3_666
O2 K K 72.36(4) 2_646 3_666
O3 K K 122.47(5) 3_666 3_666
O6 K K 54.21(4) 3_666 3_666
O4 K K 105.70(5) . 3_666
O1 K K 94.87(4) 2_646 3_666
B1 K K 130.87(7) 3_666 3_666
B2 K K 79.07(6) . 3_666
O6 K B1 94.85(7) . 2_646
O1 K B1 152.74(7) 3_666 2_646
O5 K B1 74.79(7) 2_645 2_646
O2 K B1 26.70(7) 2_646 2_646
O3 K B1 100.28(7) 3_666 2_646
O6 K B1 69.69(7) 3_666 2_646
O4 K B1 128.74(7) . 2_646
O1 K B1 26.45(6) 2_646 2_646
B1 K B1 127.20(5) 3_666 2_646
B2 K B1 117.72(8) . 2_646
K K B1 76.13(6) 3_666 2_646
B1 O1 Li2 119.6(2) . 3_666
B1 O1 Y 133.53(17) . 4_676
Li2 O1 Y 104.84(17) 3_666 4_676
B1 O1 K 83.84(14) . 3_666
Li2 O1 K 84.53(16) 3_666 3_666
Y O1 K 114.87(7) 4_676 3_666
B1 O1 K 86.21(14) . 2_656
Li2 O1 K 86.81(16) 3_666 2_656
Y O1 K 83.25(6) 4_676 2_656
K O1 K 161.42(8) 3_666 2_656
B1 O2 Li1 170.2(2) . 3_677
B1 O2 Li1 111.1(2) . .
Li1 O2 Li1 74.6(2) 3_677 .
B1 O2 Y 93.23(15) . 3_676
Li1 O2 Y 90.49(16) 3_677 3_676
Li1 O2 Y 119.85(16) . 3_676
B1 O2 K 89.77(15) . 2_656
Li1 O2 K 82.55(15) 3_677 2_656
Li1 O2 K 86.16(15) . 2_656
Y O2 K 150.28(8) 3_676 2_656
B1 O3 Y 163.54(17) . .
B1 O3 Y 91.40(15) . 3_676
Y O3 Y 104.32(7) . 3_676
B1 O3 K 81.52(15) . 3_666
Y O3 K 84.70(6) . 3_666
Y O3 K 129.18(8) 3_676 3_666
B2 O4 Li2 119.6(2) . .
B2 O4 Li2 82.7(2) . 3_665
Li2 O4 Li2 82.4(2) . 3_665
B2 O4 Y 126.59(16) . 2_645
Li2 O4 Y 113.66(18) . 2_645
Li2 O4 Y 108.72(16) 3_665 2_645
B2 O4 K 86.08(15) . .
Li2 O4 K 82.38(15) . .
Li2 O4 K 153.51(17) 3_665 .
Y O4 K 97.24(6) 2_645 .
B2 O5 Li1 162.6(2) . 1_554
B2 O5 Li2 85.0(2) . 3_665
Li1 O5 Li2 92.1(2) 1_554 3_665
B2 O5 Y 90.12(15) . .
Li1 O5 Y 90.85(16) 1_554 .
Li2 O5 Y 172.53(17) 3_665 .
B2 O5 K 106.49(16) . 2_655
Li1 O5 K 90.63(17) 1_554 2_655
Li2 O5 K 89.76(16) 3_665 2_655
Y O5 K 97.08(7) . 2_655
B2 O6 Li1 118.5(2) . 4_675
B2 O6 Y 93.58(16) . .
Li1 O6 Y 119.18(18) 4_675 .
B2 O6 K 91.45(16) . .
Li1 O6 K 86.95(17) 4_675 .
Y O6 K 146.17(9) . .
B2 O6 K 136.51(16) . 3_666
Li1 O6 K 99.27(16) 4_675 3_666
Y O6 K 85.19(6) . 3_666
K O6 K 68.59(5) . 3_666
O1 B1 O2 121.9(2) . .
O1 B1 O3 123.0(2) . .
O2 B1 O3 115.0(2) . .
O1 B1 Y 175.1(2) . 3_676
O2 B1 Y 56.79(13) . 3_676
O3 B1 Y 58.23(13) . 3_676
O1 B1 K 68.10(13) . 3_666
O2 B1 K 134.90(19) . 3_666
O3 B1 K 70.07(14) . 3_666
Y B1 K 109.16(9) 3_676 3_666
O1 B1 K 67.33(13) . 2_656
O2 B1 K 63.53(13) . 2_656
O3 B1 K 151.71(19) . 2_656
Y B1 K 114.03(9) 3_676 2_656
K B1 K 132.88(10) 3_666 2_656
O5 B2 O6 116.0(2) . .
O5 B2 O4 120.2(2) . .
O6 B2 O4 123.7(2) . .
O5 B2 Li2 59.01(18) . 3_665
O6 B2 Li2 175.0(3) . 3_665
O4 B2 Li2 61.24(18) . 3_665
O5 B2 Y 59.95(13) . .
O6 B2 Y 56.46(13) . .
O4 B2 Y 173.98(19) . .
Li2 B2 Y 118.73(18) 3_665 .
O5 B2 Li1 127.8(2) . 4_675
O6 B2 Li1 35.82(15) . 4_675
O4 B2 Li1 102.4(2) . 4_675
Li2 B2 Li1 145.6(2) 3_665 4_675
Y B2 Li1 80.77(13) . 4_675
O5 B2 K 156.34(19) . .
O6 B2 K 61.58(13) . .
O4 B2 K 66.92(14) . .
Li2 B2 K 123.22(18) 3_665 .
Y B2 K 110.40(9) . .
Li1 B2 K 65.79(12) 4_675 .
O5 B2 K 50.60(13) . 2_655
O6 B2 K 106.72(17) . 2_655
O4 B2 K 108.32(16) . 2_655
Li2 B2 K 69.71(14) 3_665 2_655
Y B2 K 76.62(7) . 2_655
Li1 B2 K 90.01(13) 4_675 2_655
K B2 K 152.34(10) . 2_655
O6 Li1 O5 125.2(3) 4_576 1_556
O6 Li1 O2 110.0(3) 4_576 3_677
O5 Li1 O2 99.9(2) 1_556 3_677
O6 Li1 O2 108.0(2) 4_576 .
O5 Li1 O2 106.8(2) 1_556 .
O2 Li1 O2 105.4(2) 3_677 .
O6 Li1 Li1 122.4(3) 4_576 3_677
O5 Li1 Li1 112.4(3) 1_556 3_677
O2 Li1 Li1 54.3(2) 3_677 3_677
O2 Li1 Li1 51.16(19) . 3_677
O6 Li1 Li2 96.2(2) 4_576 3_666
O5 Li1 Li2 45.83(16) 1_556 3_666
O2 Li1 Li2 145.6(3) 3_677 3_666
O2 Li1 Li2 86.3(2) . 3_666
Li1 Li1 Li2 127.8(3) 3_677 3_666
O6 Li1 B2 25.67(11) 4_576 4_576
O5 Li1 B2 135.2(3) 1_556 4_576
O2 Li1 B2 120.3(2) 3_677 4_576
O2 Li1 B2 82.37(17) . 4_576
Li1 Li1 B2 107.2(3) 3_677 4_576
Li2 Li1 B2 92.93(19) 3_666 4_576
O6 Li1 Y 127.6(2) 4_576 1_556
O5 Li1 Y 51.32(12) 1_556 1_556
O2 Li1 Y 49.43(12) 3_677 1_556
O2 Li1 Y 123.3(2) . 1_556
Li1 Li1 Y 86.4(2) 3_677 1_556
Li2 Li1 Y 96.92(18) 3_666 1_556
B2 Li1 Y 152.9(2) 4_576 1_556
O6 Li1 K 57.21(14) 4_576 4_576
O5 Li1 K 153.1(2) 1_556 4_576
O2 Li1 K 59.57(14) 3_677 4_576
O2 Li1 K 96.12(19) . 4_576
Li1 Li1 K 71.4(2) 3_677 4_576
Li2 Li1 K 152.8(2) 3_666 4_576
B2 Li1 K 60.78(11) 4_576 4_576
Y Li1 K 104.10(14) 1_556 4_576
O6 Li1 K 155.4(2) 4_576 2_656
O5 Li1 K 55.10(14) 1_556 2_656
O2 Li1 K 93.22(18) 3_677 2_656
O2 Li1 K 55.92(13) . 2_656
Li1 Li1 K 64.8(2) 3_677 2_656
Li2 Li1 K 66.36(15) 3_666 2_656
B2 Li1 K 133.04(17) 4_576 2_656
Y Li1 K 73.82(10) 1_556 2_656
K Li1 K 136.12(17) 4_576 2_656
O6 Li1 K 49.82(13) 4_576 2_556
O5 Li1 K 105.1(2) 1_556 2_556
O2 Li1 K 70.20(15) 3_677 2_556
O2 Li1 K 148.1(2) . 2_556
Li1 Li1 K 116.2(3) 3_677 2_556
Li2 Li1 K 115.59(19) 3_666 2_556
B2 Li1 K 74.02(12) 4_576 2_556
Y Li1 K 78.96(11) 1_556 2_556
K Li1 K 53.64(8) 4_576 2_556
K Li1 K 152.69(15) 2_656 2_556
O6 Li1 Y 33.95(12) 4_576 4_576
O5 Li1 Y 91.59(19) 1_556 4_576
O2 Li1 Y 127.6(2) 3_677 4_576
O2 Li1 Y 119.78(19) . 4_576
Li1 Li1 Y 155.7(3) 3_677 4_576
Li2 Li1 Y 66.64(15) 3_666 4_576
B2 Li1 Y 49.11(10) 4_576 4_576
Y Li1 Y 113.00(15) 1_556 4_576
K Li1 Y 89.08(12) 4_576 4_576
K Li1 Y 132.99(16) 2_656 4_576
K Li1 Y 57.46(8) 2_556 4_576
O4 Li2 O1 117.6(2) . 3_666
O4 Li2 O5 121.3(3) . 3_665
O1 Li2 O5 104.3(2) 3_666 3_665
O4 Li2 O4 97.6(2) . 3_665
O1 Li2 O4 138.1(3) 3_666 3_665
O5 Li2 O4 72.01(17) 3_665 3_665
O4 Li2 B2 114.1(2) . 3_665
O1 Li2 B2 127.4(3) 3_666 3_665
O5 Li2 B2 35.97(12) 3_665 3_665
O4 Li2 B2 36.04(12) 3_665 3_665
O4 Li2 Li2 50.23(17) . 3_665
O1 Li2 Li2 157.1(4) 3_666 3_665
O5 Li2 Li2 98.4(3) 3_665 3_665
O4 Li2 Li2 47.33(16) 3_665 3_665
B2 Li2 Li2 71.1(2) 3_665 3_665
O4 Li2 Li1 103.2(2) . 3_666
O1 Li2 Li1 82.7(2) 3_666 3_666
O5 Li2 Li1 42.06(15) 3_665 3_666
O4 Li2 Li1 112.1(2) 3_665 3_666
B2 Li2 Li1 77.00(19) 3_665 3_666
Li2 Li2 Li1 117.5(3) 3_665 3_666
O4 Li2 K 60.07(13) . .
O1 Li2 K 57.56(13) 3_666 .
O5 Li2 K 135.9(2) 3_665 .
O4 Li2 K 149.7(2) 3_665 .
B2 Li2 K 168.1(2) 3_665 .
Li2 Li2 K 107.4(3) 3_665 .
Li1 Li2 K 93.87(17) 3_666 .
O4 Li2 K 166.4(2) . 4_565
O1 Li2 K 57.44(13) 3_666 4_565
O5 Li2 K 53.84(13) 3_665 4_565
O4 Li2 K 92.69(17) 3_665 4_565
B2 Li2 K 69.99(14) 3_665 4_565
Li2 Li2 K 139.2(3) 3_665 4_565
Li1 Li2 K 64.39(14) 3_666 4_565
K Li2 K 113.17(14) . 4_565
O4 Li2 Y 124.9(2) . 2_545
O1 Li2 Y 40.92(11) 3_666 2_545
O5 Li2 Y 113.7(2) 3_665 2_545
O4 Li2 Y 100.87(19) 3_665 2_545
B2 Li2 Y 110.99(18) 3_665 2_545
Li2 Li2 Y 124.8(3) 3_665 2_545
Li1 Li2 Y 116.41(19) 3_666 2_545
K Li2 Y 79.77(11) . 2_545
K Li2 Y 61.18(9) 4_565 2_545
O4 Li2 Y 109.7(2) . 4_575
O1 Li2 Y 104.8(2) 3_666 4_575
O5 Li2 Y 96.17(17) 3_665 4_575
O4 Li2 Y 37.85(11) 3_665 4_575
B2 Li2 Y 64.85(14) 3_665 4_575
Li2 Li2 Y 68.7(2) 3_665 4_575
Li1 Li2 Y 137.09(19) 3_666 4_575
K Li2 Y 126.21(16) . 4_575
K Li2 Y 83.94(11) 4_565 4_575
Y Li2 Y 64.40(9) 2_545 4_575
O4 Li2 Y 36.01(11) . 2_645
O1 Li2 Y 115.6(2) 3_666 2_645
O5 Li2 Y 90.09(18) 3_665 2_645
O4 Li2 Y 106.17(18) 3_665 2_645
B2 Li2 Y 100.41(17) 3_665 2_645
Li2 Li2 Y 67.4(2) 3_665 2_645
Li1 Li2 Y 67.49(15) 3_666 2_645
K Li2 Y 68.73(9) . 2_645
K Li2 Y 131.87(16) 4_565 2_645
Y Li2 Y 148.50(15) 2_545 2_645
Y Li2 Y 136.15(15) 4_575 2_645
loop_
_geom_bond_atom_site_label_1
_geom_bond_atom_site_label_2
_geom_bond_distance
_geom_bond_site_symmetry_2
Y O4 2.2950(18) 2_655
Y O6 2.3013(18) .
Y O1 2.3035(18) 4_575
Y O2 2.3211(19) 3_676
Y O3 2.3311(18) .
Y O3 2.3555(19) 3_676
Y O5 2.3854(18) .
Y B2 2.756(3) .
Y B1 2.770(3) 3_676
Y Li1 3.055(5) 1_554
Y Li2 3.399(5) 2
Y K 3.4506(6) 3_666
K O6 2.6746(19) .
K O1 2.7182(19) 3_666
K O5 2.730(2) 2_645
K O2 2.763(2) 2_646
K O3 2.768(2) 3_666
K O6 2.771(2) 3_666
K O4 2.8033(19) .
K O1 2.8541(19) 2_646
K B1 2.913(3) 3_666
K B2 3.040(3) .
K K 3.0696(12) 3_666
K B1 3.086(3) 2_646
O1 B1 1.378(3) .
O1 Li2 1.979(5) 3_666
O2 B1 1.387(3) .
O2 Li1 1.967(5) 3_677
O2 Li1 2.050(5) .
O3 B1 1.401(3) .
O4 B2 1.383(4) .
O4 Li2 1.971(5) .
O4 Li2 2.061(5) 3_665
O5 B2 1.375(3) .
O5 Li1 1.874(5) 1_554
O5 Li2 2.007(5) 3_665
O6 B2 1.379(3) .
O6 Li1 1.863(5) 4_675
B2 Li2 2.332(5) 3_665
B2 Li1 2.797(5) 4_675
Li1 Li1 2.435(11) 3_677
Li1 Li2 2.796(7) 3_666
Li2 Li2 2.658(10) 3_665
