#------------------------------------------------------------------------------
#$Date: 2020-12-21 18:25:49 +0200 (Mon, 21 Dec 2020) $
#$Revision: 260045 $
#$URL: file:///home/coder/svn-repositories/cod/cif/4/35/07/4350779.cif $
#------------------------------------------------------------------------------
#
# This file is available in the Crystallography Open Database (COD),
# http://www.crystallography.net/
#
# All data on this site have been placed in the public domain by the
# contributors.
#
data_4350779
loop_
_publ_author_name
'Chen, Pengyun'
'Murshed, M. Mangir'
'Fischer, Michael'
'Frederichs, Thomas'
'Gesing, Thorsten M.'
_publ_section_title
;
 KLi2RE(BO3)2 (RE = Dy, Ho, Er, Tm, Yb, and Y): Structural, Spectroscopic,
 And Thermogravimetric Studies on a Series of Mixed-Alkali Rare-Earth
 Orthoborates
;
_journal_issue                   24
_journal_name_full               'Inorganic Chemistry'
_journal_page_first              18214
_journal_page_last               18224
_journal_paper_doi               10.1021/acs.inorgchem.0c02684
_journal_volume                  59
_journal_year                    2020
_chemical_formula_sum            'B2 K Li2 O6 Tm'
_chemical_formula_weight         339.53
_space_group_crystal_system      monoclinic
_space_group_IT_number           14
_space_group_name_Hall           '-P 2yn'
_space_group_name_H-M_alt        'P 1 21/n 1'
_atom_sites_solution_hydrogens   .
_audit_creation_method           SHELXL-2018/3
_cell_angle_alpha                90
_cell_angle_beta                 102.6660(10)
_cell_angle_gamma                90
_cell_formula_units_Z            4
_cell_length_a                   6.68034(8)
_cell_length_b                   9.25845(1)
_cell_length_c                   8.94919(12)
_cell_measurement_reflns_used    9951
_cell_measurement_temperature    301(2)
_cell_measurement_theta_max      33.22
_cell_measurement_theta_min      3.21
_cell_volume                     540.034(10)
_computing_structure_refinement  'SHELXL-2018/3 (Sheldrick, 2018)'
_diffrn_ambient_temperature      301(2)
_diffrn_measured_fraction_theta_full 1.000
_diffrn_measured_fraction_theta_max 1.000
_diffrn_measurement_device_type  'Bruker D8 venture'
_diffrn_radiation_type           MoK\a
_diffrn_radiation_wavelength     0.71073
_diffrn_reflns_av_R_equivalents  0.0580
_diffrn_reflns_av_unetI/netI     0.0248
_diffrn_reflns_Laue_measured_fraction_full 1.000
_diffrn_reflns_Laue_measured_fraction_max 1.000
_diffrn_reflns_limit_h_max       10
_diffrn_reflns_limit_h_min       -10
_diffrn_reflns_limit_k_max       14
_diffrn_reflns_limit_k_min       -14
_diffrn_reflns_limit_l_max       13
_diffrn_reflns_limit_l_min       -13
_diffrn_reflns_number            31050
_diffrn_reflns_point_group_measured_fraction_full 1.000
_diffrn_reflns_point_group_measured_fraction_max 1.000
_diffrn_reflns_theta_full        25.242
_diffrn_reflns_theta_max         33.197
_diffrn_reflns_theta_min         3.207
_exptl_absorpt_coefficient_mu    17.157
_exptl_absorpt_correction_T_max  0.59785
_exptl_absorpt_correction_T_min  0.47756
_exptl_absorpt_correction_type   numerical
_exptl_absorpt_process_details   'J. Appl. Cryst. 48 (2015) 3-10'
_exptl_crystal_colour            colorless
_exptl_crystal_density_diffrn    4.176
_exptl_crystal_description       Prism
_exptl_crystal_F_000             608
_exptl_crystal_size_max          0.065
_exptl_crystal_size_mid          0.054
_exptl_crystal_size_min          0.043
_refine_diff_density_max         0.988
_refine_diff_density_min         -0.887
_refine_diff_density_rms         0.221
_refine_ls_extinction_coef       0.00197(12)
_refine_ls_extinction_expression Fc^*^=kFc[1+0.001xFc^2^\l^3^/sin(2\q)]^-1/4^
_refine_ls_extinction_method     'SHELXL-2018/3 (Sheldrick 2018)'
_refine_ls_goodness_of_fit_ref   1.042
_refine_ls_hydrogen_treatment    undef
_refine_ls_matrix_type           full
_refine_ls_number_parameters     110
_refine_ls_number_reflns         2068
_refine_ls_number_restraints     0
_refine_ls_restrained_S_all      1.042
_refine_ls_R_factor_all          0.0287
_refine_ls_R_factor_gt           0.0195
_refine_ls_shift/su_max          0.001
_refine_ls_shift/su_mean         0.000
_refine_ls_structure_factor_coef Fsqd
_refine_ls_weighting_details
'w=1/[\s^2^(Fo^2^)+(0.0083P)^2^+1.4099P] where P=(Fo^2^+2Fc^2^)/3'
_refine_ls_weighting_scheme      calc
_refine_ls_wR_factor_gt          0.0295
_refine_ls_wR_factor_ref         0.0310
_reflns_Friedel_coverage         0.000
_reflns_Friedel_fraction_full    .
_reflns_Friedel_fraction_max     .
_reflns_number_gt                1796
_reflns_number_total             2068
_reflns_threshold_expression     'I > 2\s(I)'
_cod_data_source_file            KLi2Tm_BO3_2.cif
_cod_data_source_block           KLi2Tm(BO3)2
_cod_depositor_comments
;
The following automatic conversions were performed:

data item '_exptl_absorpt_correction_type' value 'Numerical' was
changed to 'numerical' in accordance with the built-in table derived
from the CIF Core dictionary named 'cif_core.dic' version 2.4.5 last
updated on 2014-11-21.

Automatic conversion script
Id: cif_fix_values 8369 2020-08-20 11:38:08Z andrius 
;
_cod_original_sg_symbol_H-M      'P 21/n'
_cod_database_code               4350779
_shelx_shelxl_version_number     2018/3
_shelx_space_group_comment
;
The symmetry employed for this shelxl refinement is uniquely defined
by the following loop, which should always be used as a source of
symmetry information in preference to the above space-group names.
They are only intended as comments.
;
_shelx_res_file
;
TITL CPY20200207sample3Tm_0m_a.res in P2(1)/n
    KLi2Tm(BO3)2.res
    created by SHELXL-2018/3 at 00:46:51 on 23-Jul-2020
REM Old TITL CPY20200207sample3Tm_0m in P2(1)/n

REM SHELXT solution in P2(1)/n
REM R1 0.040,  Rweak 0.003,  Alpha 0.025,  Orientation as input
REM Formula found by SHELXT:  B2 K O6 Tm

CELL  0.71073   6.68034   9.25845   8.94919   90.000  102.666   90.000
ZERR    4.000   0.00008   0.00001   0.00012    0.000    0.001    0.000
LATT  1
SYMM 1/2-X, 1/2+Y, 1/2-Z
SFAC B K LI O TM
UNIT 8 4 8 24 4
TEMP 27.950
L.S. 10
BOND
LIST 4
acta
FMAP 2
PLAN 20
WGHT    0.008300    1.409900
EXTI    0.001970
FVAR       0.10973
TM    5    0.537210    0.883336    0.341746    11.00000    0.00596    0.00381 =
         0.00450   -0.00002    0.00124    0.00009
K     2    0.575121    0.375708    0.414413    11.00000    0.01466    0.01050 =
         0.01042   -0.00025    0.00278   -0.00204
O1    4    0.725673    0.726027    0.815925    11.00000    0.00799    0.00672 =
         0.00764    0.00111    0.00209    0.00185
O2    4    0.599206    0.963878    0.857527    11.00000    0.01108    0.00682 =
         0.00493   -0.00019    0.00138    0.00260
O3    4    0.601572    0.895249    0.605443    11.00000    0.01600    0.00776 =
         0.00531   -0.00064    0.00199    0.00372
O4    4    0.659246    0.497526    0.150139    11.00000    0.00712    0.00634 =
         0.00805   -0.00222    0.00186    0.00137
O5    4    0.575603    0.748874    0.124187    11.00000    0.01379    0.00653 =
         0.00702    0.00156    0.00198    0.00208
O6    4    0.658857    0.651710    0.370616    11.00000    0.01348    0.00837 =
         0.00592    0.00027    0.00123    0.00314
B1    1    0.648549    0.859053    0.761176    11.00000    0.00563    0.00569 =
         0.00723   -0.00092    0.00111    0.00082
B2    1    0.632310    0.629993    0.215456    11.00000    0.00436    0.00686 =
         0.01011    0.00040    0.00126   -0.00029
LI1   3    0.417884    0.883526    0.994980    11.00000    0.01223    0.01452 =
         0.01170    0.00095   -0.00306    0.00044
LI2   3    0.414621    0.385662    0.050103    11.00000    0.01679    0.01529 =
         0.00910    0.00045    0.00304   -0.00650
HKLF 4




REM  CPY20200207sample3Tm_0m_a.res in P2(1)/n
REM wR2 = 0.0310, GooF = S = 1.042, Restrained GooF = 1.042 for all data
REM R1 = 0.0195 for 1796 Fo > 4sig(Fo) and 0.0287 for all 2068 data
REM 110 parameters refined using 0 restraints

END

WGHT      0.0072      1.4973

REM Highest difference peak  0.988,  deepest hole -0.887,  1-sigma level  0.221
Q1    1   0.6095  0.8535  0.4132  11.00000  0.05    0.99
Q2    1   0.5193  1.0212  0.5408  11.00000  0.05    0.89
Q3    1   0.6277  0.8443  0.6666  11.00000  0.05    0.84
Q4    1   0.6018  0.8335  0.3004  11.00000  0.05    0.79
Q5    1   0.5734  0.9500  0.4171  11.00000  0.05    0.75
Q6    1   0.5198  0.9047  0.5626  11.00000  0.05    0.74
Q7    1   0.6360  0.7038  0.2031  11.00000  0.05    0.73
Q8    1   0.6427  1.0651  0.8862  11.00000  0.05    0.73
Q9    1   0.6715  0.2629  0.4006  11.00000  0.05    0.72
Q10   1   0.5609  0.4221 -0.0370  11.00000  0.05    0.72
Q11   1   0.4250  0.8586  0.2989  11.00000  0.05    0.71
Q12   1   0.6457  0.8997  0.3641  11.00000  0.05    0.71
Q13   1   0.8019  0.7323  0.7069  11.00000  0.05    0.71
Q14   1   0.6096  0.5554  0.1654  11.00000  0.05    0.70
Q15   1   0.7466  1.0161  0.7483  11.00000  0.05    0.70
Q16   1   0.8346  0.7580  0.8710  11.00000  0.05    0.69
Q17   1   0.5455  0.7548  0.2443  11.00000  0.05    0.69
Q18   1   0.5763  0.7435  0.3833  11.00000  0.05    0.68
Q19   1   0.6787  0.7780  0.8115  11.00000  0.05    0.68
Q20   1   0.6473  0.7585  0.1051  11.00000  0.05    0.67
;
_shelx_res_checksum              8736
_shelx_hkl_file
;
   1   0   0    0.89    0.69
   1   0   0    0.94    0.64
   1   0   0    0.33    0.65
   1   0   0    0.68    0.68
   1   0   0    0.30    0.67
  -1   0   0    1.21    0.70
  -1   0   0    0.70    0.61
  -1   0   0    0.90    0.45
  -1   0   0    1.19    0.72
  -1   0   0    0.40    0.58
  -1   0   0    1.12    0.68
  -1   0   0    0.85    0.70
   1   0   0    1.72    0.62
   2   0   0  648.85   16.57
   2   0   0  625.19   16.51
   2   0   0  648.52   16.66
   2   0   0  609.11   16.62
   2   0   0  632.95   16.62
  -2   0   0  621.82   16.62
   2   0   0  646.53   16.07
  -2   0   0  625.17   16.56
  -2   0   0  620.07   16.52
  -2   0   0  616.90   16.06
  -2   0   0  656.51   16.09
  -2   0   0  649.55   16.78
  -2   0   0  622.10   16.55
   2   0   0  634.06   16.80
  -2   0   0  638.03   16.66
   3   0   0   -1.40    1.06
  -3   0   0   -0.56    1.19
  -3   0   0    0.45    1.29
  -3   0   0    0.29    1.24
   3   0   0   -0.91    1.10
   3   0   0    1.82    1.48
   3   0   0    0.48    1.15
   3   0   0    0.22    0.89
   3   0   0   -0.35    1.53
  -3   0   0   -1.69    1.15
  -3   0   0   -0.07    1.04
   3   0   0   -0.79    1.36
   4   0   0   26.85    3.16
   4   0   0   31.89    2.26
   4   0   0   28.43    3.35
   4   0   0   27.66    2.96
   4   0   0   31.70    2.78
  -4   0   0   27.77    3.03
  -4   0   0   26.60    2.83
  -4   0   0   26.61    2.95
  -4   0   0   31.54    2.56
  -4   0   0   26.45    2.39
  -4   0   0   35.52    3.35
   4   0   0   29.99    2.90
  -4   0   0   30.26    2.91
   4   0   0   24.94    2.92
   5   0   0    0.48    1.79
  -5   0   0   -3.92    1.97
  -5   0   0    0.40    1.64
   5   0   0   -1.35    1.84
   5   0   0    1.10    1.32
  -5   0   0   -2.37    1.75
  -5   0   0    0.11    1.28
  -5   0   0    0.28    2.10
  -5   0   0    1.41    1.72
   5   0   0   -1.25    2.04
   5   0   0   -3.41    1.80
   5   0   0    3.47    2.14
  -5   0   0   -1.61    1.63
  -5   0   0   -1.78    2.04
   5   0   0   -1.47    1.83
   6   0   0    4.17    2.59
   6   0   0    3.38    3.02
   6   0   0    2.76    1.70
   6   0   0    2.10    2.27
  -6   0   0   -2.16    2.10
  -6   0   0    1.75    1.69
  -6   0   0   -0.33    3.81
  -6   0   0    1.89    2.30
   6   0   0   -1.78    3.07
  -6   0   0    7.20    3.25
  -6   0   0   -1.21    2.31
  -6   0   0    5.21    2.42
   6   0   0    0.86    2.50
   6   0   0    1.04    2.75
  -6   0   0    7.04    3.00
  -7   0   0    1.35    2.75
  -7   0   0   -5.01    2.68
  -7   0   0    1.69    2.01
   7   0   0    6.46    3.67
   7   0   0   -3.88    2.68
   7   0   0   -1.64    3.13
   7   0   0   -1.22    1.76
  -7   0   0   -2.20    2.33
   8   0   0   27.06    3.26
  -8   0   0   19.40    4.97
   8   0   0   21.29    5.50
  -8   0   0   16.15    7.93
  -8   0   0   24.07    5.54
  -8   0   0   23.70    3.56
  -8   0   0   19.26    4.61
  -9   0   0    0.11    3.37
   9   0   0    4.64    5.13
   9   0   0    4.86    5.66
  -9   0   0    5.65    4.76
   9   0   0    2.38    3.04
  -9   0   0    3.90    4.86
  -9   0   0   -5.46    3.68
  -9   0   0    3.69    5.55
   9   0   0   -1.43    5.16
 -10   0   0   37.52    7.39
 -10   0   0   59.66    8.65
  10   0   0   68.87    9.14
 -10   0   0   44.02    6.32
  10   0   0   42.05    8.05
 -10   0   0   54.07    8.84
   0  -1   0    0.04    0.36
   0  -1   0   -0.16    0.29
   0  -1   0    0.14    0.29
   0  -1   0    0.12    0.36
   0  -1   0    0.42    0.40
   0   1   0   -0.12    0.26
   0   1   0    0.12    0.22
   0   1   0    0.27    0.36
   0   1   0   -0.01    0.29
   0   1   0   -0.22    0.24
   0   1   0    0.19    0.28
   0   1   0   -0.18    0.34
  -1  -1   0  287.22    7.57
  -1  -1   0  298.49    7.82
   1  -1   0  308.26    7.97
   1  -1   0  290.96    7.88
   1  -1   0  297.29    8.00
   1  -1   0  304.83    7.83
  -1  -1   0  293.89    7.89
   1  -1   0  303.81    7.89
   1  -1   0  294.16    7.86
   1  -1   0  289.49    7.77
  -1  -1   0  317.89    8.01
  -1  -1   0  293.26    7.83
  -1  -1   0  304.34    8.09
  -1  -1   0  285.94    7.85
   1   1   0  293.96    8.07
   1   1   0  295.17    7.90
  -1   1   0  300.79    7.88
   1   1   0  289.85    7.84
   1   1   0  294.96    7.58
   1   1   0  291.81    7.82
   1   1   0  292.12    7.92
  -1   1   0  285.36    7.98
  -1   1   0  308.46    7.95
  -1   1   0  296.89    7.82
  -1   1   0  291.43    7.89
  -1   1   0  290.50    7.79
  -1   1   0  281.18    7.84
   2  -1   0  180.69    6.02
  -2  -1   0  187.37    5.68
  -2  -1   0  192.48    6.02
   2  -1   0  191.79    6.04
  -2  -1   0  186.87    6.01
   2  -1   0  184.72    5.82
  -2  -1   0  196.57    6.00
   2  -1   0  191.39    5.97
  -2  -1   0  187.63    6.18
   2  -1   0  188.80    5.77
  -2  -1   0  187.88    5.68
  -2  -1   0  184.06    5.86
   2  -1   0  201.97    5.94
   2  -1   0  185.21    5.95
   2   1   0  190.28    5.67
  -2   1   0  182.06    5.88
   2   1   0  191.16    5.92
   2   1   0  185.16    6.26
  -2   1   0  179.07    5.70
  -2   1   0  187.22    6.10
   2   1   0  183.55    5.98
  -2   1   0  198.34    5.86
   2   1   0  192.50    6.02
  -2   1   0  189.11    6.04
   2   1   0  179.05    5.14
  -2   1   0  191.73    5.87
  -2   1   0  180.02    5.93
   2   1   0  184.36    6.02
  -2   1   0  196.70    6.01
   3  -1   0  234.09    7.60
  -3  -1   0  232.79    7.90
  -3  -1   0  206.75    8.18
   3  -1   0  228.28    7.08
   3  -1   0  228.04    7.50
   3  -1   0  235.38    7.46
  -3  -1   0  235.06    7.57
  -3  -1   0  233.26    7.58
  -3  -1   0  240.41    7.19
  -3   1   0  230.69    7.57
   3   1   0  208.02    7.90
   3   1   0  232.07    8.31
  -3   1   0  222.49    6.53
  -3   1   0  230.74    7.73
  -3   1   0  224.71    7.77
   3   1   0  236.45    6.39
  -3   1   0  236.63    8.26
   3   1   0  238.84    8.35
  -3   1   0  223.32    8.14
   3   1   0  235.82    7.25
   3   1   0  235.54    7.56
   4  -1   0   70.01    3.56
  -4  -1   0   67.89    3.93
  -4  -1   0   70.13    3.71
  -4  -1   0   70.21    3.91
  -4  -1   0   76.24    4.33
   4  -1   0   71.04    3.99
  -4  -1   0   71.26    4.13
   4  -1   0   78.96    4.24
   4  -1   0   71.40    4.28
  -4  -1   0   72.67    4.38
   4  -1   0   63.90    4.13
   4  -1   0   72.08    3.89
   4  -1   0   66.49    4.14
  -4  -1   0   73.01    4.17
  -4   1   0   71.36    4.20
  -4   1   0   65.56    4.13
   4   1   0   72.13    3.89
  -4   1   0   69.20    3.66
   4   1   0   74.81    4.25
   4   1   0   66.25    4.23
  -4   1   0   69.72    3.28
   4   1   0   68.48    4.09
  -4   1   0   66.86    4.02
   4   1   0   68.22    4.34
  -4   1   0   68.35    4.17
  -4   1   0   67.63    4.08
  -4   1   0   71.69    4.18
   4   1   0   73.78    4.13
   4   1   0   74.03    2.95
   5  -1   0   19.02    2.76
  -5  -1   0   24.28    2.95
   5  -1   0   27.33    3.43
  -5  -1   0   21.87    2.61
   5  -1   0   22.41    3.05
   5  -1   0   18.68    2.86
  -5  -1   0   27.90    3.46
  -5  -1   0   20.53    2.82
  -5  -1   0   24.41    3.19
  -5  -1   0   28.59    3.77
   5  -1   0   21.80    2.57
   5  -1   0   20.44    3.10
  -5  -1   0   23.96    3.01
   5  -1   0   20.65    3.02
  -5   1   0   20.23    3.12
   5   1   0   19.93    3.06
  -5   1   0   25.46    3.30
   5   1   0   15.65    2.83
  -5   1   0   24.46    3.14
   5   1   0   25.03    3.30
   5   1   0   22.67    2.08
  -5   1   0   22.80    3.09
   5   1   0   22.98    3.07
   5   1   0   19.88    2.59
  -5   1   0   25.80    3.35
  -5   1   0   22.37    3.11
   5   1   0   18.64    3.06
  -5   1   0   26.61    2.52
  -5   1   0   22.49    2.58
  -6  -1   0   95.08    6.57
  -6  -1   0   89.26    5.73
   6  -1   0   92.24    6.39
  -6  -1   0   92.85    5.93
  -6  -1   0  101.79    5.46
  -6  -1   0   83.88    6.38
   6  -1   0   86.54    5.64
   6  -1   0   90.91    6.07
  -6  -1   0   92.64    5.66
  -6  -1   0   91.69    6.05
   6  -1   0   90.87    6.21
   6  -1   0   97.59    6.23
  -6  -1   0   98.93    4.71
   6  -1   0   92.70    4.95
   6  -1   0  102.91    5.97
   6   1   0  112.31    6.72
  -6   1   0   89.76    6.43
   6   1   0  103.87    7.52
   6   1   0   83.28    5.86
  -6   1   0   97.91    6.67
  -6   1   0   87.64    6.01
  -6   1   0   86.11    5.75
   6   1   0   96.53    4.11
   6   1   0   90.88    6.16
   6   1   0  105.67    6.83
   6   1   0   99.08    6.20
  -6   1   0  110.76   11.44
  -6   1   0   94.72    6.09
  -6   1   0   89.60    5.12
  -7  -1   0    1.72    2.67
   7  -1   0   -0.82    3.06
   7  -1   0   -1.88    1.84
  -7  -1   0    2.06    2.69
  -7  -1   0    0.18    2.70
   7  -1   0    6.17    3.75
   7  -1   0    3.28    3.12
  -7  -1   0    2.27    1.87
  -7  -1   0    3.34    3.04
   7   1   0   -2.27    2.87
   7   1   0   -2.12    2.88
  -7   1   0   -0.42    2.26
  -7   1   0   -2.13    2.80
   7   1   0    1.25    1.71
  -7   1   0   -1.04    2.77
  -7   1   0    4.06    3.06
   7   1   0    0.05    3.32
  -8  -1   0   76.44    5.34
  -8  -1   0   81.55   11.02
  -8  -1   0   76.40    7.76
   8  -1   0   74.86    7.86
  -8  -1   0   68.17    9.67
   8  -1   0   67.74   11.24
  -8  -1   0   78.66    8.21
  -8   1   0   69.42    7.61
  -8   1   0   70.14    8.07
   8   1   0   75.58    4.57
  -8   1   0   86.97    5.98
   8   1   0   67.88    8.32
   9  -1   0    6.18    3.24
  -9  -1   0    9.82    3.68
  -9  -1   0    7.31    4.92
  -9  -1   0    6.92    4.99
  -9  -1   0   -3.20    3.06
   9  -1   0    5.78    5.24
  -9  -1   0   12.49    5.42
   9  -1   0    3.42    5.30
  -9   1   0    2.04    4.74
  -9   1   0   10.50    5.01
   9   1   0   12.21    5.40
   9   1   0    0.14    4.87
  -9   1   0    9.70    5.15
  -9   1   0   13.83    5.49
   9   1   0    1.39    5.39
  -9   1   0    2.16    3.36
 -10  -1   0   28.12    7.54
 -10  -1   0   32.06    7.36
  10  -1   0   42.87    7.75
  10  -1   0   40.43    8.56
 -10  -1   0   38.93    8.92
  10   1   0   38.75    8.14
 -10   1   0   45.46    8.16
 -10   1   0   33.91    8.19
 -10   1   0   24.38    6.22
  10   1   0   42.83    8.13
 -10   1   0   30.28    7.56
  10   1   0   43.75    8.44
   0  -2   0    6.91    0.84
   0  -2   0    6.46    1.05
   0  -2   0    6.02    0.61
   0  -2   0    5.89    0.77
   0  -2   0    6.29    0.89
   0  -2   0    8.29    1.02
   0  -2   0    6.01    0.76
   0  -2   0    5.70    0.69
   0   2   0    4.58    0.68
   0   2   0    6.15    0.75
   0   2   0    7.10    0.79
   0   2   0    5.80    0.69
   0   2   0    5.17    0.83
   0   2   0    5.54    0.69
   0   2   0    8.20    1.01
   1  -2   0   63.52    2.65
   1  -2   0   61.34    1.82
  -1  -2   0   61.48    2.48
  -1  -2   0   65.84    2.50
  -1  -2   0   59.36    2.04
   1  -2   0   61.83    2.86
   1  -2   0   61.09    2.30
   1  -2   0   57.33    2.21
  -1  -2   0   55.49    2.50
   1  -2   0   61.24    2.41
  -1  -2   0   56.05    1.96
  -1  -2   0   62.47    2.29
  -1  -2   0   60.96    2.32
   1  -2   0   59.19    2.57
  -1  -2   0   61.07    1.74
   1  -2   0   60.80    2.41
  -1  -2   0   63.81    2.79
  -1  -2   0   61.04    2.70
  -1   2   0   61.49    2.44
   1   2   0   61.30    2.06
   1   2   0   60.57    2.45
  -1   2   0   60.09    2.30
  -1   2   0   60.36    2.60
   1   2   0   59.52    2.48
   1   2   0   63.07    2.40
  -1   2   0   63.32    2.79
  -1   2   0   61.48    1.81
  -1   2   0   58.61    2.39
  -1   2   0   56.24    2.62
  -1   2   0   59.96    2.45
   1   2   0   60.12    2.73
   1   2   0   61.19    1.74
   1   2   0   61.11    2.37
  -2  -2   0   14.75    1.36
   2  -2   0   12.05    1.61
   2  -2   0   13.65    1.71
  -2  -2   0   13.02    1.69
  -2  -2   0   13.35    1.65
  -2  -2   0   15.11    1.90
  -2  -2   0   14.31    1.88
   2  -2   0   14.17    1.77
   2  -2   0   12.20    1.50
  -2  -2   0   13.30    1.71
  -2  -2   0   14.98    1.90
   2  -2   0   13.30    0.98
   2  -2   0   12.58    1.66
  -2   2   0   13.18    1.80
   2   2   0   14.45    1.33
   2   2   0   11.91    1.54
  -2   2   0   14.39    1.68
  -2   2   0   16.01    2.01
  -2   2   0   13.61    1.67
   2   2   0   11.57    1.57
   2   2   0   12.73    1.71
  -2   2   0   14.14    1.92
  -2   2   0   16.01    1.77
   2   2   0    9.15    1.50
  -2   2   0   13.85    1.63
  -2   2   0   13.93    1.90
   2   2   0   13.59    1.89
  -3  -2   0  441.93   12.59
  -3  -2   0  447.17   12.99
  -3  -2   0  438.11   11.97
  -3  -2   0  431.37   12.37
  -3  -2   0  434.97   12.23
   3  -2   0  370.51   12.78
   3  -2   0  438.45   12.53
   3  -2   0  419.32   12.32
   3  -2   0  453.45   12.78
  -3  -2   0  434.82   12.64
   3  -2   0  458.13   12.42
   3  -2   0  415.58   12.45
  -3  -2   0  435.01   12.57
  -3   2   0  437.46   12.51
  -3   2   0  408.04   12.69
   3   2   0  430.88   12.65
  -3   2   0  451.98   12.65
   3   2   0  451.35   12.62
   3   2   0  437.85   11.92
   3   2   0  427.05   12.43
   3   2   0  421.57   10.81
   3   2   0  429.00   13.00
  -3   2   0  440.34   12.54
  -3   2   0  434.51   12.76
  -4  -2   0    1.53    1.67
   4  -2   0    3.89    1.83
   4  -2   0    2.66    1.59
  -4  -2   0    0.09    1.55
   4  -2   0    3.65    1.66
  -4  -2   0    3.30    1.81
  -4  -2   0    0.28    1.54
  -4  -2   0    1.61    1.45
   4  -2   0    1.47    1.66
  -4  -2   0    5.61    2.07
  -4  -2   0    1.47    1.42
   4  -2   0   -0.62    1.51
   4  -2   0    0.83    1.33
  -4  -2   0    1.97    1.56
  -4   2   0    4.97    1.78
  -4   2   0    2.37    1.20
   4   2   0    0.98    1.73
  -4   2   0   -0.31    1.49
  -4   2   0    2.46    1.62
   4   2   0    1.78    1.80
  -4   2   0    2.85    1.69
  -4   2   0    2.84    1.49
   4   2   0    2.97    1.72
  -4   2   0    6.06    1.76
   4   2   0    1.58    1.72
   4   2   0    1.81    0.84
   4   2   0    3.42    1.64
  -4   2   0    2.24    1.73
   5  -2   0  374.91   12.37
  -5  -2   0  354.43   11.90
  -5  -2   0  347.93   12.14
   5  -2   0  372.21   12.01
   5  -2   0  363.80   11.60
  -5  -2   0  367.34   12.13
  -5  -2   0  371.37   12.73
  -5  -2   0  372.14   11.72
   5  -2   0  371.51   12.49
   5  -2   0  368.13   12.10
   5  -2   0  359.88   12.30
  -5  -2   0  373.81   10.66
  -5  -2   0  364.05   12.29
  -5  -2   0  372.92   12.46
  -5  -2   0  342.27   11.51
  -5   2   0  378.42   12.39
  -5   2   0  398.81   12.72
   5   2   0  367.79   12.18
   5   2   0  374.99    9.88
  -5   2   0  360.98   12.51
  -5   2   0  377.42   12.68
  -5   2   0  364.06   12.20
   5   2   0  372.64   12.56
   5   2   0  366.62   12.89
  -5   2   0  377.01   10.43
  -5   2   0  350.78   12.26
   5   2   0  358.49   12.35
   5   2   0  384.91   11.76
  -5   2   0  368.35   11.79
   5   2   0  368.86   12.46
  -6  -2   0    3.05    2.28
   6  -2   0    6.17    2.49
   6  -2   0    3.50    2.07
  -6  -2   0    3.50    2.28
  -6  -2   0    4.76    3.06
  -6  -2   0    2.51    2.28
   6  -2   0   -4.88    2.80
   6  -2   0   -0.67    2.24
  -6  -2   0    0.80    1.91
  -6  -2   0    1.21    1.47
  -6  -2   0    4.09    2.10
   6   2   0    5.38    3.42
   6   2   0    0.54    2.83
  -6   2   0    1.82    3.35
   6   2   0    1.06    1.21
   6   2   0    1.65    2.33
   6   2   0    5.85    2.62
  -6   2   0    0.17    2.44
  -6   2   0    0.18    1.84
   6   2   0    1.23    2.34
  -6   2   0    4.14    2.29
  -6   2   0    3.94    2.65
  -7  -2   0  174.40    6.71
   7  -2   0  175.55    9.05
  -7  -2   0  175.50    9.14
  -7  -2   0  165.12    8.60
   7  -2   0  172.50    9.17
  -7  -2   0  165.27    8.18
  -7  -2   0  176.04    8.94
  -7   2   0  179.92    9.44
   7   2   0  182.72   10.08
   7   2   0  178.55    9.64
   7   2   0  157.56    8.97
   7   2   0  177.95    5.67
  -7   2   0  169.40    9.09
  -7   2   0  182.53    8.15
  -7   2   0  166.14    8.75
  -8  -2   0    1.94    4.86
  -8  -2   0   -5.24    3.40
   8  -2   0    4.19    4.30
  -8  -2   0   -5.83    3.93
  -8  -2   0    0.52    2.27
   8  -2   0   -2.55    2.59
   8   2   0    1.30    5.18
   8   2   0   -2.42    4.25
   8   2   0    1.58    5.60
  -8   2   0   -4.01    3.07
  -8   2   0   -0.37    5.04
  -8   2   0    5.21    4.62
  -9  -2   0   51.09    6.99
  -9  -2   0   60.48    6.82
  -9  -2   0   59.44    8.06
   9  -2   0   76.53    8.85
   9  -2   0   64.60    6.59
   9  -2   0   48.23    7.58
  -9  -2   0   60.12    5.84
  -9  -2   0   70.93    8.41
   9  -2   0   57.49    6.04
  -9   2   0   74.31    8.50
  -9   2   0   56.88    6.87
   9   2   0   51.78    7.31
  -9   2   0   78.32    8.52
   9   2   0   53.29    7.16
  -9   2   0   44.79    7.28
   9   2   0   72.22    8.84
   0  -3   0    1.01    1.00
   0  -3   0   -0.58    0.60
   0  -3   0    0.24    0.85
   0  -3   0   -0.05    0.51
   0  -3   0   -1.35    0.92
   0  -3   0    0.35    0.62
   0  -3   0   -0.35    0.50
   0  -3   0    0.09    0.51
   0   3   0    0.76    0.85
   0   3   0   -0.24    0.53
   0   3   0    1.57    0.75
   0   3   0    0.00    0.63
   0   3   0    0.69    0.76
   0   3   0   -0.09    0.64
   0   3   0    1.01    0.70
   1  -3   0   96.62    3.19
   1  -3   0  103.18    3.67
   1  -3   0   97.23    3.78
   1  -3   0  101.83    3.48
  -1  -3   0   99.16    3.18
   1  -3   0  101.71    4.01
   1  -3   0   97.39    3.41
  -1  -3   0  100.81    3.22
   1  -3   0   97.47    3.26
  -1  -3   0   98.56    3.27
  -1  -3   0  105.15    3.54
  -1  -3   0  104.54    3.82
  -1  -3   0   99.96    3.86
  -1  -3   0   99.19    3.47
  -1  -3   0  100.27    3.25
   1   3   0   98.07    3.43
  -1   3   0   97.38    3.47
  -1   3   0   98.46    3.36
  -1   3   0   97.30    3.47
  -1   3   0   97.29    3.44
  -1   3   0   95.63    3.78
   1   3   0  104.93    4.05
  -1   3   0  101.17    2.97
   1   3   0  100.94    3.42
   1   3   0   98.24    3.51
   1   3   0   98.40    3.26
  -1   3   0  101.29    3.74
   1   3   0   95.46    3.51
  -1   3   0   99.85    4.08
   2  -3   0   69.19    3.44
   2  -3   0   68.10    3.33
   2  -3   0   71.57    3.14
  -2  -3   0   63.32    3.12
  -2  -3   0   70.40    3.57
  -2  -3   0   77.03    3.42
  -2  -3   0   67.95    2.34
   2  -3   0   67.76    3.55
   2  -3   0   68.07    2.09
  -2  -3   0   66.14    2.95
   2  -3   0   71.67    3.04
   2  -3   0   68.12    3.11
  -2  -3   0   69.95    2.43
  -2  -3   0   69.29    3.68
  -2  -3   0   66.40    3.15
  -2  -3   0   70.23    2.97
   2  -3   0   64.83    2.87
  -2   3   0   65.72    3.09
   2   3   0   64.58    3.15
   2   3   0   68.17    2.32
  -2   3   0   69.28    3.49
  -2   3   0   67.80    3.19
  -2   3   0   69.12    3.17
  -2   3   0   66.86    3.59
   2   3   0   68.91    3.26
   2   3   0   67.98    3.09
  -2   3   0   70.21    3.04
   2   3   0   69.57    3.20
   2   3   0   65.76    3.55
   3  -3   0  101.06    4.34
  -3  -3   0   92.45    3.21
   3  -3   0   97.82    3.03
  -3  -3   0   96.20    4.15
   3  -3   0   92.19    4.07
   3  -3   0   94.29    4.29
  -3  -3   0   96.40    4.65
  -3  -3   0   93.50    3.56
  -3  -3   0   94.94    4.28
  -3  -3   0  101.59    4.84
   3  -3   0   93.68    4.49
  -3  -3   0   92.01    4.28
   3  -3   0   88.64    4.34
   3  -3   0   93.16    4.10
  -3  -3   0   89.06    4.09
  -3  -3   0  100.05    4.44
  -3   3   0   96.60    4.80
  -3   3   0  102.04    4.55
   3   3   0   85.22    4.94
   3   3   0  100.90    4.47
   3   3   0   98.01    4.56
   3   3   0  101.36    3.61
  -3   3   0   99.14    4.38
  -3   3   0   98.67    4.43
  -3   3   0   94.89    4.56
   3   3   0   95.17    4.29
   3   3   0   98.29    4.92
  -3   3   0   90.97    4.36
  -3   3   0   97.67    4.24
  -4  -3   0  108.21    5.08
   4  -3   0  106.39    5.14
  -4  -3   0  124.02    5.50
  -4  -3   0  108.34    4.52
  -4  -3   0  108.77    5.40
  -4  -3   0  116.81    5.70
   4  -3   0  115.35    5.04
   4  -3   0  105.89    3.77
   4  -3   0  115.72    5.31
  -4  -3   0  105.81    4.92
   4  -3   0  120.31    5.71
  -4  -3   0  106.96    5.51
   4  -3   0  104.79    6.06
   4  -3   0  101.78    4.87
  -4   3   0  118.06    5.69
  -4   3   0  100.86    5.23
  -4   3   0  106.80    5.50
  -4   3   0  110.49    5.29
   4   3   0  107.93    5.32
  -4   3   0  107.30    5.05
   4   3   0  118.27    5.45
   4   3   0   96.37    5.19
   4   3   0  108.20    5.77
   4   3   0  115.48    5.31
   4   3   0  111.53    4.52
  -4   3   0  110.59    5.31
  -4   3   0  112.31    5.40
  -5  -3   0   47.92    4.22
   5  -3   0   31.63    3.43
   5  -3   0   36.01    3.94
  -5  -3   0   30.20    3.16
   5  -3   0   40.59    4.09
   5  -3   0   38.96    4.04
  -5  -3   0   42.57    3.75
  -5  -3   0   37.28    4.07
   5  -3   0   44.72    4.79
  -5  -3   0   48.64    4.68
   5  -3   0   34.35    3.63
  -5  -3   0   33.76    3.73
  -5  -3   0   36.12    4.57
  -5  -3   0   38.34    3.65
  -5   3   0   32.87    3.70
  -5   3   0   31.91    4.09
   5   3   0   31.31    3.96
   5   3   0   29.22    3.90
   5   3   0   43.05    3.48
  -5   3   0   40.48    4.22
   5   3   0   36.04    4.49
  -5   3   0   32.87    4.35
  -5   3   0   33.70    3.79
  -5   3   0   45.44    4.67
   5   3   0   40.07    4.37
   5   3   0   34.70    3.69
  -5   3   0   36.13    4.15
  -6  -3   0   90.00    5.28
   6  -3   0   93.69    6.07
   6  -3   0   92.73    5.52
   6  -3   0   83.39    5.75
  -6  -3   0  100.82    5.09
  -6  -3   0   93.14    5.75
   6  -3   0   94.73    6.14
  -6  -3   0   94.01    6.38
   6  -3   0   91.96    4.34
  -6  -3   0   92.23    6.20
   6   3   0  107.33    6.44
  -6   3   0   93.11    5.84
  -6   3   0  107.17    6.53
  -6   3   0   84.76    5.84
   6   3   0   93.68    6.69
  -6   3   0   87.70    6.78
   6   3   0  102.00    5.65
   6   3   0   91.86    5.97
   6   3   0   94.08    6.52
  -6   3   0   87.54    6.34
  -7  -3   0    4.41    1.92
  -7  -3   0    3.28    2.43
   7  -3   0    0.28    1.77
   7  -3   0    5.28    3.26
  -7  -3   0    2.05    2.80
  -7  -3   0    1.94    3.10
   7  -3   0    5.25    3.33
  -7  -3   0    6.58    3.20
  -7   3   0    6.20    3.78
   7   3   0   -0.07    3.70
  -7   3   0    6.00    3.60
  -7   3   0    2.46    3.44
   7   3   0    1.03    3.55
   7   3   0    0.43    3.36
   7   3   0    2.89    3.30
  -7   3   0    3.88    2.61
  -8  -3   0  120.31    8.88
   8  -3   0  115.00    6.19
  -8  -3   0  118.27    7.63
   8  -3   0  123.62    9.67
   8  -3   0  123.65    7.02
  -8  -3   0  117.87    5.40
  -8  -3   0  116.40    7.99
  -8   3   0  112.70    8.82
  -8   3   0  111.17    8.31
   8   3   0  110.99    9.23
   8   3   0  111.17    9.08
  -8   3   0  103.06   10.46
   8   3   0  115.05    8.91
  -8   3   0  109.63    9.46
  -9  -3   0    8.95    5.13
   9  -3   0    8.43    6.16
  -9  -3   0    4.92    3.68
   9  -3   0   11.84    3.90
   9  -3   0   15.83    5.40
  -9  -3   0   16.17    8.23
   9   3   0   11.74    6.03
  -9   3   0   13.13    5.72
  -9   3   0   15.95    5.16
  -9   3   0   21.70    6.24
   9   3   0    7.33    5.40
  -9   3   0   13.34    5.73
   9   3   0   23.05    5.83
   0  -4   0  791.68   19.53
   0  -4   0  778.99   19.95
   0  -4   0  776.30   20.06
   0  -4   0  757.49   19.18
   0  -4   0  738.23   19.08
   0  -4   0  774.37   19.54
   0  -4   0  772.11   19.12
   0  -4   0  765.00   19.93
   0   4   0  798.39   19.52
   0   4   0  787.16   19.78
   0   4   0  752.46   19.87
   0   4   0  734.73   19.18
   0   4   0  773.77   19.61
   0   4   0  747.62   19.47
   1  -4   0   26.17    2.19
  -1  -4   0   28.14    2.33
  -1  -4   0   27.99    1.58
  -1  -4   0   24.89    1.76
   1  -4   0   30.57    1.82
   1  -4   0   25.39    1.51
  -1  -4   0   26.67    1.77
  -1  -4   0   25.23    1.47
   1  -4   0   25.55    1.96
  -1  -4   0   26.24    1.84
   1  -4   0   27.75    1.83
   1  -4   0   27.24    2.50
  -1  -4   0   28.61    1.83
  -1  -4   0   27.79    2.54
   1  -4   0   26.38    1.56
  -1   4   0   25.47    1.93
  -1   4   0   24.13    2.22
  -1   4   0   26.45    1.76
   1   4   0   22.96    2.70
   1   4   0   25.64    1.80
   1   4   0   26.06    1.99
   1   4   0   27.76    1.81
  -1   4   0   23.58    1.80
  -1   4   0   26.53    1.48
   1   4   0   26.86    1.89
  -1   4   0   26.38    2.05
  -1   4   0   26.65    1.84
   1   4   0   24.03    1.82
  -2  -4   0  572.37   15.15
  -2  -4   0  568.85   15.44
   2  -4   0  563.68   15.41
   2  -4   0  560.12   14.79
  -2  -4   0  554.25   14.35
  -2  -4   0  539.65   15.07
   2  -4   0  544.58   15.65
  -2  -4   0  568.40   14.71
   2  -4   0  574.74   15.13
   2  -4   0  569.69   15.62
  -2  -4   0  556.32   15.57
  -2  -4   0  533.51   15.23
  -2  -4   0  585.47   13.95
   2  -4   0  550.91   15.01
  -2   4   0  560.01   15.06
  -2   4   0  561.05   16.00
  -2   4   0  538.09   15.52
   2   4   0  526.60   15.14
   2   4   0  593.81   15.17
   2   4   0  551.13   15.15
  -2   4   0  562.54   13.88
   2   4   0  492.70   15.61
  -2   4   0  569.53   15.17
  -2   4   0  550.80   15.19
   2   4   0  551.90   15.85
  -3  -4   0   16.05    1.37
   3  -4   0   15.04    0.92
   3  -4   0   12.75    1.89
   3  -4   0   16.15    2.18
  -3  -4   0   13.90    2.29
   3  -4   0   16.23    2.52
  -3  -4   0   14.20    1.40
  -3  -4   0   15.05    1.91
   3  -4   0   16.47    1.89
   3  -4   0   11.43    1.73
  -3  -4   0   15.04    2.38
  -3  -4   0   16.25    2.04
  -3  -4   0   16.37    2.13
  -3  -4   0   16.38    2.40
  -3  -4   0   18.40    2.44
  -3   4   0   14.87    2.01
  -3   4   0   13.64    2.00
  -3   4   0   16.53    2.03
   3   4   0   15.74    1.37
   3   4   0   13.70    2.07
  -3   4   0   15.47    2.13
   3   4   0   13.47    2.32
   3   4   0   16.09    2.07
   3   4   0   10.65    1.80
   3   4   0   13.38    2.04
  -3   4   0   12.22    2.03
  -3   4   0   16.68    2.48
  -4  -4   0   50.90    4.12
  -4  -4   0   67.06    4.76
  -4  -4   0   59.30    4.08
   4  -4   0   60.21    4.35
   4  -4   0   55.89    3.98
  -4  -4   0   56.70    3.64
  -4  -4   0   58.33    4.32
  -4  -4   0   71.20    3.99
   4  -4   0   58.73    2.23
  -4  -4   0   57.68    2.53
   4  -4   0   57.76    3.76
   4  -4   0   57.06    3.64
   4  -4   0   61.78    4.13
  -4  -4   0   60.17    4.30
  -4   4   0   61.02    4.22
  -4   4   0   58.50    4.04
   4   4   0   63.64    4.21
  -4   4   0   64.29    4.29
   4   4   0   57.30    4.13
  -4   4   0   56.92    4.28
   4   4   0   58.06    4.18
   4   4   0   62.13    4.69
  -4   4   0   55.51    3.95
   4   4   0   59.24    3.14
   4   4   0   64.01    4.29
  -4   4   0   61.22    4.07
  -4   4   0   62.38    4.59
  -5  -4   0   11.50    2.66
   5  -4   0   12.16    2.53
  -5  -4   0   11.66    2.06
  -5  -4   0    8.62    3.07
  -5  -4   0   12.40    1.45
  -5  -4   0   10.72    2.28
   5  -4   0    9.90    2.80
  -5  -4   0    7.43    2.96
   5  -4   0   11.00    3.15
  -5  -4   0   10.16    2.84
  -5  -4   0    9.68    2.42
   5  -4   0   11.59    1.50
   5  -4   0    8.45    2.52
   5  -4   0   12.79    2.70
   5  -4   0    9.04    2.27
  -5  -4   0    9.12    2.45
   5   4   0    9.94    2.63
  -5   4   0   14.37    3.13
  -5   4   0    9.06    2.47
  -5   4   0    8.98    2.68
   5   4   0    9.03    2.78
   5   4   0   13.17    2.04
   5   4   0   10.85    2.57
  -5   4   0   10.40    2.74
  -5   4   0   12.91    2.79
  -5   4   0    7.67    2.57
   5   4   0    7.99    2.74
  -5   4   0    8.36    2.81
   5   4   0    9.55    2.74
  -6  -4   0    2.32    1.40
   6  -4   0    0.64    2.46
   6  -4   0    3.43    2.37
  -6  -4   0    1.28    1.84
   6  -4   0    0.85    2.54
  -6  -4   0   -1.40    3.23
  -6  -4   0    1.24    2.50
  -6  -4   0   -1.10    1.74
   6  -4   0   -7.99    3.06
  -6  -4   0   -0.94    2.04
  -6   4   0   -1.35    2.42
   6   4   0    2.66    2.43
  -6   4   0   -1.77    3.55
   6   4   0    3.08    2.50
   6   4   0    2.21    2.65
   6   4   0    2.29    2.57
   6   4   0   -0.26    3.55
  -6   4   0    3.93    2.49
  -6   4   0    2.17    2.38
  -6   4   0   -3.77    2.21
  -7  -4   0    3.76    2.55
  -7  -4   0    4.78    1.80
  -7  -4   0    2.34    2.99
  -7  -4   0    6.38    1.94
   7  -4   0    6.13    3.41
   7  -4   0    3.95    3.29
   7  -4   0   10.37    3.09
  -7  -4   0    4.03    3.13
   7   4   0    5.11    4.34
  -7   4   0   12.22    3.57
  -7   4   0    5.08    3.95
  -7   4   0    9.03    4.43
  -7   4   0    6.74    4.11
   7   4   0   10.13    4.96
   7   4   0    6.31    3.49
   7   4   0    9.94    4.13
  -8  -4   0   23.21    3.99
  -8  -4   0   19.63    4.20
  -8  -4   0   18.05    5.34
   8  -4   0   14.15    5.28
   8  -4   0   21.81    4.20
   8  -4   0   12.28    7.84
   8  -4   0   18.03    2.75
  -8   4   0   21.56    5.53
  -8   4   0   15.73    5.06
   8   4   0   31.39    5.65
  -8   4   0   23.75    5.25
  -8   4   0   27.25    5.23
   8   4   0    9.38    5.26
   8   4   0   22.58    4.96
   9  -4   0  -13.91    6.83
  -9  -4   0   -2.07    4.95
   9  -4   0    4.39    4.13
  -9  -4   0    9.26    4.15
  -9  -4   0    4.77    5.39
   9  -4   0    8.00    4.99
  -9   4   0   -8.85    5.01
   9   4   0    5.03    6.25
  -9   4   0   -0.14    6.12
   9   4   0    8.48    6.00
  -9   4   0    6.84    5.62
  -9   4   0   -3.38    5.08
   9   4   0    5.69    5.64
   0  -5   0   -0.34    0.50
   0  -5   0    2.00    1.18
   0  -5   0    0.25    0.83
   0  -5   0   -0.56    0.53
   0  -5   0    0.47    0.53
   0  -5   0   -0.12    0.72
   0  -5   0   -0.44    1.00
   0  -5   0    0.01    1.22
   0   5   0    1.69    0.94
   0   5   0    1.32    0.85
   0   5   0   -1.95    1.04
   0   5   0    0.12    0.59
   0   5   0   -0.04    0.75
   0   5   0    0.68    0.90
  -1  -5   0  307.74    8.39
  -1  -5   0  320.92    9.03
   1  -5   0  313.04    8.38
  -1  -5   0  313.61    8.89
  -1  -5   0  320.25    9.02
   1  -5   0  317.91    8.97
   1  -5   0  307.59    8.43
   1  -5   0  313.06    9.74
  -1  -5   0  314.51    8.36
   1  -5   0  319.69    9.65
   1  -5   0  306.88    8.99
  -1  -5   0  315.97    9.73
   1  -5   0  300.23    8.98
  -1  -5   0  322.34    9.04
  -1   5   0  299.75    9.00
  -1   5   0  324.89    8.66
  -1   5   0  308.29    9.09
   1   5   0  297.76    9.01
   1   5   0  319.31    9.15
   1   5   0  320.46    9.20
  -1   5   0  299.21    9.58
   1   5   0  312.35    8.98
  -1   5   0  303.69    9.10
  -1   5   0  308.57    9.00
  -1   5   0  323.42    8.98
   1   5   0  325.18    9.04
  -2  -5   0    3.46    1.58
   2  -5   0    6.45    1.42
  -2  -5   0    5.78    1.03
   2  -5   0    5.64    1.82
  -2  -5   0    3.73    1.67
   2  -5   0    6.59    1.32
   2  -5   0    6.34    1.65
   2  -5   0    7.83    1.60
  -2  -5   0    4.70    1.29
  -2  -5   0    6.93    1.46
  -2  -5   0    5.88    1.10
   2  -5   0    7.56    1.69
   2  -5   0    7.23    1.20
  -2  -5   0    8.10    1.17
   2   5   0    6.42    1.39
   2   5   0    5.62    1.66
  -2   5   0    4.54    1.36
   2   5   0    6.79    1.12
  -2   5   0    7.67    1.48
  -2   5   0    7.78    1.37
  -2   5   0    3.91    1.62
  -2   5   0    6.74    0.89
   2   5   0    5.31    1.35
   2   5   0    5.44    1.30
  -2   5   0    5.97    1.58
   2   5   0    4.67    1.42
  -2   5   0    6.15    1.38
   3  -5   0  122.65    4.73
  -3  -5   0  116.05    3.90
   3  -5   0  120.64    5.01
  -3  -5   0  110.02    4.54
  -3  -5   0  114.79    4.58
   3  -5   0  123.38    5.49
  -3  -5   0  106.40    5.37
   3  -5   0  113.03    4.54
   3  -5   0  108.68    5.49
  -3  -5   0  122.00    5.17
  -3  -5   0  107.85    5.44
  -3  -5   0  112.18    4.95
  -3   5   0  116.55    5.50
  -3   5   0  121.05    5.23
   3   5   0  109.56    5.16
   3   5   0  128.73    5.39
  -3   5   0  115.09    5.13
  -3   5   0  119.31    5.03
   3   5   0  117.51    5.08
   3   5   0  114.47    5.88
  -3   5   0  118.90    5.49
   3   5   0  111.81    5.19
  -3   5   0  111.59    5.17
   4  -5   0   10.65    2.63
  -4  -5   0    2.18    2.23
  -4  -5   0   12.41    2.86
   4  -5   0    8.08    1.90
  -4  -5   0    5.00    2.05
  -4  -5   0    9.77    2.79
  -4  -5   0   10.22    2.20
  -4  -5   0    8.31    1.14
   4  -5   0    8.47    2.33
  -4  -5   0    7.53    1.14
  -4  -5   0    9.96    2.08
   4  -5   0    5.22    2.38
   4  -5   0   10.04    2.40
  -4  -5   0    8.05    1.74
   4  -5   0   10.92    1.89
  -4   5   0    7.06    2.31
   4   5   0    5.60    2.32
  -4   5   0    7.39    2.28
   4   5   0    7.41    2.22
  -4   5   0    6.71    1.98
  -4   5   0    5.29    2.17
   4   5   0    6.30    2.06
   4   5   0    8.86    2.60
  -4   5   0   12.17    2.78
   4   5   0    7.30    2.13
  -4   5   0    8.27    2.18
  -4   5   0   11.69    2.70
   5  -5   0   59.92    4.66
  -5  -5   0   59.61    2.61
  -5  -5   0   58.32    4.07
   5  -5   0   64.51    4.80
  -5  -5   0   61.61    5.02
   5  -5   0   55.49    4.86
   5  -5   0   55.46    4.18
  -5  -5   0   61.12    4.70
  -5  -5   0   54.34    4.61
   5  -5   0   56.95    1.83
   5   5   0   56.74    5.44
  -5   5   0   62.03    5.40
  -5   5   0   57.61    5.28
  -5   5   0   53.77    4.86
   5   5   0   58.78    5.54
   5   5   0   53.69    4.78
   5   5   0   54.31    3.54
   5   5   0   49.62    6.64
  -5   5   0   68.86    5.17
   5   5   0   51.20    4.55
  -5   5   0   55.85    4.73
  -6  -5   0   30.83    2.00
   6  -5   0   36.16    4.52
  -6  -5   0   30.45    2.30
  -6  -5   0   29.90    3.34
   6  -5   0   27.19    3.99
   6  -5   0   31.74    3.86
  -6  -5   0   23.22    4.06
   6  -5   0   27.29    1.60
   6  -5   0   32.13    1.84
  -6  -5   0   46.97    5.61
  -6  -5   0   24.64    3.71
   6  -5   0   37.94    4.18
  -6  -5   0   37.39    4.10
   6   5   0   32.58    4.22
  -6   5   0   37.76    5.09
   6   5   0   38.79    5.06
  -6   5   0   41.77    4.86
   6   5   0   32.45    4.50
  -6   5   0   31.52    4.61
   6   5   0   32.03    4.81
  -6   5   0   25.13    3.87
   6   5   0   34.27    4.37
  -6   5   0   25.29    4.21
   7  -5   0   -0.17    3.38
   7  -5   0   -0.30    1.04
  -7  -5   0   -1.89    2.25
  -7  -5   0   -3.64    3.06
  -7  -5   0    0.50    1.33
   7  -5   0   -0.74    3.33
  -7  -5   0   -1.59    2.98
   7  -5   0    1.29    1.22
   7  -5   0    2.68    2.85
  -7  -5   0    1.63    1.11
   7   5   0   -2.44    3.42
  -7   5   0   -2.25    3.95
   7   5   0    4.15    4.48
  -7   5   0   -3.25    3.89
  -7   5   0   -4.92    3.78
   7   5   0   -2.27    4.25
  -7   5   0    3.52    4.55
   7   5   0    2.95    3.90
  -8  -5   0   79.32    6.30
  -8  -5   0   74.18    7.15
   8  -5   0   78.74    8.58
   8  -5   0   75.69    8.27
   8  -5   0   79.07    7.16
  -8  -5   0   77.89    8.56
  -8   5   0   82.62    8.37
  -8   5   0   85.45    9.05
   8   5   0   70.49    8.42
   8   5   0   80.09    8.40
  -8   5   0   64.56    7.54
  -8   5   0   75.55    8.66
   8   5   0   70.69    8.80
  -9  -5   0   24.36    4.86
  -9  -5   0   14.12    5.38
   9  -5   0   16.79    7.99
   9  -5   0   14.41    5.48
   9  -5   0   14.61    4.47
   9   5   0   16.58    6.26
  -9   5   0   24.57    6.08
   9   5   0   12.52    7.12
  -9   5   0   18.17    6.51
  -9   5   0   18.04    6.81
  -9   5   0   17.34    7.30
   9   5   0   19.19    6.74
   0  -6   0   49.23    3.33
   0  -6   0   48.57    2.52
   0  -6   0   49.03    3.23
   0  -6   0   45.70    1.67
   0  -6   0   45.72    2.08
   0  -6   0   47.92    2.52
   0  -6   0   46.73    3.04
   0   6   0   45.62    2.74
   0   6   0   45.36    2.14
   0   6   0   50.15    2.74
   0   6   0   39.82    3.19
   0   6   0   42.81    2.86
   0   6   0   50.30    2.76
   0   6   0   45.54    3.15
   1  -6   0   38.81    2.49
  -1  -6   0   32.49    2.32
  -1  -6   0   34.23    1.62
  -1  -6   0   38.44    2.56
   1  -6   0   38.33    2.39
   1  -6   0   35.49    1.73
  -1  -6   0   40.60    2.72
   1  -6   0   39.83    1.72
   1  -6   0   34.81    3.27
  -1  -6   0   37.23    3.05
   1  -6   0   36.09    2.38
  -1  -6   0   36.18    1.67
  -1  -6   0   40.13    2.40
   1  -6   0   35.22    3.07
   1   6   0   32.88    3.77
   1   6   0   39.92    2.58
   1   6   0   42.12    3.17
  -1   6   0   37.19    3.22
  -1   6   0   35.37    3.02
  -1   6   0   40.43    2.50
   1   6   0   37.60    3.04
  -1   6   0   36.07    2.54
   1   6   0   36.74    2.59
  -1   6   0   37.65    2.53
  -1   6   0   35.26    2.19
  -1   6   0   36.79    2.74
   1   6   0   39.23    2.62
  -2  -6   0   51.34    2.54
   2  -6   0   52.40    2.93
  -2  -6   0   49.95    3.01
  -2  -6   0   47.57    3.60
  -2  -6   0   55.08    2.44
   2  -6   0   51.09    3.39
   2  -6   0   44.32    2.88
   2  -6   0   53.45    3.16
  -2  -6   0   52.17    2.73
   2  -6   0   47.09    3.84
   2  -6   0   51.20    2.58
  -2  -6   0   53.85    3.08
   2  -6   0   51.58    3.84
   2   6   0   47.17    3.22
  -2   6   0   50.52    2.16
  -2   6   0   48.47    3.76
   2   6   0   44.60    3.25
  -2   6   0   51.94    3.58
  -2   6   0   52.08    3.29
   2   6   0   55.00    3.29
   2   6   0   52.19    3.89
   2   6   0   54.93    3.79
  -2   6   0   50.43    3.15
  -2   6   0   49.05    3.21
  -2   6   0   52.03    3.30
   3  -6   0  157.01    5.49
  -3  -6   0  152.48    5.42
  -3  -6   0  156.21    5.50
  -3  -6   0  159.96    7.02
   3  -6   0  163.90    6.13
  -3  -6   0  161.94    6.34
   3  -6   0  164.77    7.30
   3  -6   0  165.22    6.81
  -3  -6   0  158.71    5.14
   3  -6   0  164.53    5.66
  -3  -6   0  156.90    6.17
   3   6   0  152.00    6.31
  -3   6   0  151.86    6.26
  -3   6   0  152.22    6.82
   3   6   0  149.33    7.10
  -3   6   0  162.04    6.43
   3   6   0  148.88    6.36
   3   6   0  154.12    6.38
  -3   6   0  162.20    6.30
  -3   6   0  153.23    6.75
  -3   6   0  147.23    6.24
   3   6   0  156.29    6.35
  -4  -6   0   17.90    1.81
  -4  -6   0   14.81    3.09
   4  -6   0   20.80    3.04
   4  -6   0   20.71    2.60
   4  -6   0   14.55    2.72
  -4  -6   0   21.10    2.95
  -4  -6   0   19.59    2.34
  -4  -6   0   19.30    3.93
   4  -6   0   17.51    2.59
   4  -6   0   19.89    3.27
  -4  -6   0   17.17    3.13
   4  -6   0   19.92    3.27
  -4   6   0   16.80    3.29
   4   6   0   22.13    3.05
   4   6   0   16.70    2.80
  -4   6   0   21.88    3.07
  -4   6   0   23.34    3.34
   4   6   0   15.13    2.64
  -4   6   0   21.99    3.31
  -4   6   0   17.05    3.01
   4   6   0   20.10    3.39
  -4   6   0   19.51    2.98
  -4   6   0   17.54    2.74
   4   6   0   16.99    3.37
   5  -6   0  262.45    9.18
  -5  -6   0  264.20   10.69
   5  -6   0  240.12   10.24
  -5  -6   0  261.44    7.22
  -5  -6   0  260.73    9.10
  -5  -6   0  267.12    9.42
  -5  -6   0  272.40   10.21
   5  -6   0  264.11   10.00
  -5   6   0  254.62   10.21
  -5   6   0  250.49   10.55
   5   6   0  261.79   10.74
  -5   6   0  260.31   10.51
   5   6   0  255.25   10.20
   5   6   0  251.67   10.91
  -5   6   0  277.08   10.40
   5   6   0  270.96   10.43
  -5   6   0  271.27   11.01
   6  -6   0    4.32    3.67
  -6  -6   0   -0.14    3.48
   6  -6   0    4.16    2.57
   6  -6   0    8.26    3.05
  -6  -6   0    6.59    2.49
  -6  -6   0    7.79    3.24
   6  -6   0    7.63    3.30
  -6  -6   0    2.87    2.65
   6   6   0    3.27    3.91
   6   6   0    0.14    2.88
  -6   6   0    6.02    3.30
   6   6   0   16.29    4.53
  -6   6   0    2.73    3.21
  -6   6   0    2.83    3.66
  -6   6   0   12.77    4.71
   6   6   0    6.10    3.28
  -6   6   0    5.88    3.50
  -7  -6   0  145.73    7.95
   7  -6   0  136.96    8.23
   7  -6   0  143.39    8.63
   7  -6   0  141.81    9.08
  -7  -6   0  141.44    8.58
  -7   6   0  145.60    9.79
   7   6   0  146.60    9.47
  -7   6   0  147.93   10.60
  -7   6   0  133.97   10.80
  -7   6   0  142.48    9.37
   7   6   0  141.41   10.50
   7   6   0  148.39   10.10
   8  -6   0    0.06    4.64
  -8  -6   0    7.60    3.72
   8  -6   0   -0.64    5.45
   8  -6   0    8.38    4.09
  -8  -6   0    4.36    5.36
   8   6   0    8.89    5.29
   8   6   0    0.85    4.41
  -8   6   0   10.48    5.12
   8   6   0    7.43    4.92
  -8   6   0    6.38    4.86
  -8   6   0   -1.71    4.80
  -8   6   0   -3.75    4.42
   9  -6   0   41.25    6.78
  -9  -6   0   59.56    7.44
   9  -6   0   48.55    9.48
  -9  -6   0   37.64    6.34
   9  -6   0   55.70    7.27
   9   6   0   50.72    8.35
  -9   6   0   44.57    8.31
  -9   6   0   32.70    7.27
   9   6   0   47.10    7.95
  -9   6   0   46.74    7.82
   9   6   0   54.88    8.39
  -9   6   0   51.43    9.20
   0  -7   0   -2.57    1.32
   0  -7   0    0.65    1.03
   0  -7   0   -0.06    1.65
   0  -7   0   -0.21    1.10
   0  -7   0   -0.09    1.63
   0   7   0    0.01    0.75
   0   7   0    0.93    1.17
   0   7   0   -0.29    1.22
   0   7   0   -0.67    1.24
   0   7   0    0.84    1.17
   0   7   0    1.08    1.16
   0   7   0    1.79    1.48
  -1  -7   0   18.18    2.16
   1  -7   0   20.41    2.26
  -1  -7   0   19.17    2.23
  -1  -7   0   23.75    2.51
   1  -7   0   19.65    2.79
  -1  -7   0   17.55    2.00
   1  -7   0   22.28    2.15
   1  -7   0   13.39    2.29
  -1  -7   0   15.15    2.56
   1  -7   0   20.37    2.22
   1   7   0   18.54    2.41
   1   7   0   16.66    2.09
  -1   7   0   17.62    2.25
   1   7   0   16.71    2.10
   1   7   0   19.69    2.22
  -1   7   0   19.39    2.23
   1   7   0   17.61    2.32
  -1   7   0   19.96    2.69
  -1   7   0   19.38    2.39
  -1   7   0   19.00    2.29
  -1   7   0   19.03    2.58
  -1   7   0   17.73    2.35
  -2  -7   0   49.86    3.19
  -2  -7   0   46.78    4.15
   2  -7   0   49.48    3.33
  -2  -7   0   48.45    2.09
   2  -7   0   45.05    2.99
   2  -7   0   42.82    4.28
  -2  -7   0   51.44    3.15
   2  -7   0   46.95    2.27
   2  -7   0   37.70    3.44
  -2  -7   0   49.34    2.12
  -2  -7   0   44.95    2.74
   2  -7   0   45.69    4.25
  -2   7   0   50.06    3.66
   2   7   0   44.46    3.42
  -2   7   0   45.81    3.41
   2   7   0   51.13    4.42
   2   7   0   45.08    3.48
  -2   7   0   44.58    3.27
   2   7   0   53.02    3.44
  -2   7   0   48.32    2.30
  -2   7   0   50.96    3.49
   2   7   0   51.79    3.52
   2   7   0   49.65    4.24
  -2   7   0   48.87    3.40
  -2   7   0   44.61    4.04
   3  -7   0   43.73    3.29
  -3  -7   0   42.31    3.39
  -3  -7   0   43.48    2.28
   3  -7   0   45.39    6.74
   3  -7   0   45.66    2.87
  -3  -7   0   46.08    2.80
  -3  -7   0   45.70    4.05
  -3  -7   0   50.05    3.69
  -3  -7   0   44.67    2.62
   3  -7   0   46.06    4.31
  -3   7   0   46.43    4.10
   3   7   0   39.34    3.56
  -3   7   0   40.84    3.67
   3   7   0   46.69    4.08
   3   7   0   44.53    3.80
  -3   7   0   50.89    4.57
   3   7   0   43.75    4.31
  -3   7   0   45.45    3.64
  -3   7   0   38.11    3.75
   3   7   0   50.27    4.08
  -3   7   0   44.02    3.98
  -4  -7   0  112.79    4.69
  -4  -7   0  115.28    4.90
   4  -7   0  103.91    4.64
  -4  -7   0  107.97    6.50
   4  -7   0  113.75    5.11
  -4  -7   0  107.61    4.03
  -4  -7   0  111.51    8.67
   4  -7   0  102.91    6.94
   4  -7   0  106.15    6.65
   4  -7   0  115.05    5.89
  -4   7   0  120.15    6.72
   4   7   0  103.89    6.01
  -4   7   0  108.45    6.42
   4   7   0  115.32    6.46
   4   7   0  111.58    5.96
  -4   7   0   98.22    6.29
   4   7   0  113.88    6.48
  -4   7   0   96.84    5.61
  -4   7   0  109.97    5.98
  -4   7   0  119.48    7.30
   4   7   0  107.09    6.78
   5  -7   0   14.95    2.37
  -5  -7   0   17.66    3.20
  -5  -7   0   18.31    3.02
   5  -7   0   16.86    3.57
  -5  -7   0   12.45    3.46
  -5  -7   0   15.92    1.61
  -5  -7   0   16.06    2.38
   5  -7   0   20.04    3.39
   5  -7   0   14.77    2.92
  -5   7   0   18.45    3.93
   5   7   0   15.36    3.41
   5   7   0   19.20    3.60
   5   7   0   14.47    4.34
  -5   7   0   16.05    3.41
  -5   7   0   15.23    4.14
  -5   7   0   16.55    3.23
   5   7   0   16.90    4.22
  -5   7   0   15.52    3.30
   6  -7   0  127.42    6.59
   6  -7   0  129.51    7.77
  -6  -7   0  130.02    6.41
   6  -7   0  138.53    8.22
   6  -7   0  129.74    7.87
  -6  -7   0  127.69    7.68
  -6  -7   0  131.51    8.24
  -6  -7   0  135.70    7.54
  -6   7   0  150.12    8.93
   6   7   0  121.68   10.22
  -6   7   0  129.65    9.19
  -6   7   0  145.17    9.73
  -6   7   0  125.21    8.33
   6   7   0  132.03    9.51
   6   7   0  134.75    8.78
   6   7   0  128.55    8.43
  -6   7   0  112.02    9.74
  -7  -7   0    4.57    3.42
   7  -7   0    0.84    4.19
  -7  -7   0    0.43    3.60
   7  -7   0   -4.66    2.91
   7  -7   0   -3.67    3.42
   7   7   0    1.69    3.87
   7   7   0   -1.26    4.52
  -7   7   0   -4.35    4.25
  -7   7   0   -9.57    4.12
  -7   7   0    0.05    4.50
  -7   7   0   -1.13    3.92
   7   7   0    3.83    5.10
  -8  -7   0  106.84   10.54
   8  -7   0   87.54    8.96
  -8  -7   0   77.04    8.07
   8  -7   0  100.22   11.33
   8  -7   0   93.51    8.55
  -8   7   0  101.12   10.13
  -8   7   0  111.70    9.99
   8   7   0  108.02   10.34
   8   7   0  100.16   11.42
   8   7   0  104.29   10.14
  -8   7   0   78.88    9.98
  -8   7   0  110.66   10.87
   0  -8   0  591.61   16.22
   0  -8   0  601.35   17.27
   0  -8   0  587.95   16.13
   0  -8   0  585.11   17.63
   0  -8   0  566.71   17.09
   0   8   0  590.67   16.58
   0   8   0  597.44   16.64
   0   8   0  613.64   16.68
   0   8   0  578.16   17.06
   0   8   0  589.48   16.64
   0   8   0  589.78   16.75
   1  -8   0    3.87    1.39
  -1  -8   0   -0.11    1.18
  -1  -8   0   -0.04    1.44
   1  -8   0   -0.01    1.47
   1  -8   0    1.08    2.01
  -1  -8   0    1.90    1.55
  -1  -8   0   -0.58    1.86
   1  -8   0    1.00    2.23
  -1  -8   0    5.00    1.92
  -1   8   0    1.62    1.83
   1   8   0    2.54    1.95
  -1   8   0   -1.76    1.28
  -1   8   0    2.48    1.53
  -1   8   0    3.12    1.98
   1   8   0   -0.63    1.34
  -1   8   0    2.46    1.59
   1   8   0    1.21    1.50
   1   8   0    1.62    1.92
   1   8   0    1.19    1.57
   1   8   0   -2.24    2.05
   1   8   0    0.56    1.53
   2  -8   0  238.37    8.66
  -2  -8   0  255.04    7.94
  -2  -8   0  258.69    8.31
  -2  -8   0  251.26    8.30
  -2  -8   0  234.94    8.24
  -2  -8   0  238.09    9.48
   2  -8   0  256.92    8.49
   2  -8   0  247.75    8.19
   2   8   0  248.01    8.75
   2   8   0  250.59    8.89
  -2   8   0  259.14    8.86
   2   8   0  234.66    8.70
  -2   8   0  235.46    8.58
  -2   8   0  241.80    8.72
  -2   8   0  251.46    7.33
   2   8   0  245.49    8.68
   2   8   0  234.47    9.69
  -2   8   0  249.55    8.74
  -2   8   0  233.38    9.33
  -2   8   0  245.66    8.73
   2   8   0  253.01    8.16
   2   8   0  253.24    9.52
  -3  -8   0   25.25    2.52
   3  -8   0   21.49    3.19
   3  -8   0   22.27    2.66
   3  -8   0   20.10    1.99
   3  -8   0   21.22    4.05
  -3  -8   0   18.46    3.54
  -3  -8   0   16.29    2.65
  -3  -8   0   21.62    2.11
  -3  -8   0   20.83    2.63
   3   8   0   21.04    2.97
  -3   8   0   19.25    2.94
   3   8   0   17.28    3.49
  -3   8   0   19.69    3.31
   3   8   0   24.51    3.64
   3   8   0   27.12    3.44
  -3   8   0   22.63    3.00
  -3   8   0   22.21    3.35
   3   8   0   22.75    3.06
  -3   8   0   18.06    3.04
  -3   8   0   20.25    2.92
   4  -8   0   26.24    4.24
   4  -8   0   27.15    4.17
  -4  -8   0   27.83    3.85
   4  -8   0   31.68    3.11
  -4  -8   0   31.74    2.78
  -4  -8   0   29.53    2.64
  -4  -8   0   30.73    2.67
  -4  -8   0   24.27    3.88
   4   8   0   23.86    4.14
  -4   8   0   33.92    4.34
  -4   8   0   23.28    3.46
  -4   8   0   28.08    4.26
  -4   8   0   28.74    3.94
   4   8   0   31.03    4.29
  -4   8   0   33.31    4.29
   4   8   0   31.30    4.14
   4   8   0   22.14    3.46
  -5  -8   0   16.62    4.71
  -5  -8   0   20.51    2.55
   5  -8   0   21.67    3.85
   5  -8   0   24.38    3.68
   5  -8   0   19.00    2.43
  -5  -8   0   13.02    2.69
  -5  -8   0   18.32    3.48
  -5   8   0   16.86    3.83
  -5   8   0   23.44    4.79
   5   8   0   21.39    5.42
   5   8   0   25.01    5.11
   5   8   0   15.06    3.89
  -5   8   0   19.98    3.64
  -5   8   0   15.70    4.68
  -5   8   0   12.03    4.09
   5   8   0   18.40    3.60
  -6  -8   0   -0.56    3.41
   6  -8   0    2.07    2.50
  -6  -8   0   -1.60    2.79
   6  -8   0    2.11    3.44
   6  -8   0    2.38    3.51
  -6  -8   0    3.01    2.44
   6   8   0    7.53    4.77
   6   8   0    2.99    3.73
   6   8   0    4.51    4.48
  -6   8   0   -4.95    4.17
  -6   8   0    2.87    4.17
  -6   8   0    0.50    3.39
  -6   8   0   -5.63    4.47
   7  -8   0   24.72    5.50
  -7  -8   0   26.70    4.04
  -7  -8   0   29.92    5.44
   7  -8   0   25.63    4.94
   7  -8   0   30.76    4.58
  -7   8   0   25.25    5.44
  -7   8   0   28.63    6.30
  -7   8   0   28.93    5.87
   7   8   0   24.29    5.71
   7   8   0   33.45    5.51
   7   8   0   24.32    6.19
  -7   8   0   28.19    6.20
  -8  -8   0   19.94    6.39
   8  -8   0   14.47    9.78
   8  -8   0   10.46    4.79
  -8  -8   0   19.47    5.04
   8   8   0   21.05    6.75
  -8   8   0   17.07    6.53
   8   8   0   17.36    7.05
  -8   8   0   25.81    7.63
  -8   8   0    7.82    6.18
   8   8   0   23.35    6.08
  -8   8   0   32.71    7.50
   0  -9   0    5.21    2.78
   0  -9   0    0.39    1.70
   0  -9   0    0.72    1.91
   0  -9   0    0.02    1.94
   0  -9   0   -0.52    1.34
   0   9   0   -2.70    2.06
   0   9   0    2.21    1.53
   0   9   0    4.61    2.20
   0   9   0    0.14    1.87
   0   9   0    0.79    1.62
   0   9   0    4.60    1.92
  -1  -9   0  160.76    7.62
   1  -9   0  181.35    9.02
   1  -9   0  166.90    6.19
  -1  -9   0  165.63    6.76
   1  -9   0  176.99    8.30
  -1  -9   0  165.64    7.26
   1  -9   0  170.62    6.64
   1  -9   0  154.71    6.39
  -1  -9   0  162.68    6.23
  -1  -9   0  164.68    6.32
   1   9   0  163.33    6.77
   1   9   0  164.40    6.87
  -1   9   0  172.51    6.21
  -1   9   0  170.79    6.86
  -1   9   0  174.95    7.63
  -1   9   0  173.76    6.99
   1   9   0  166.01    8.03
  -1   9   0  160.83    6.67
  -1   9   0  166.77    6.75
  -1   9   0  177.19    6.55
   1   9   0  164.85    6.76
   1   9   0  176.93    7.83
   1   9   0  168.69    6.84
  -2  -9   0   13.10    2.18
   2  -9   0    9.80    1.98
   2  -9   0    9.29    2.41
  -2  -9   0   13.65    2.17
  -2  -9   0    5.71    2.22
   2  -9   0   15.59    2.55
   2  -9   0   11.13    3.13
  -2  -9   0   16.64    2.59
  -2  -9   0   10.59    2.86
   2   9   0   18.03    2.63
  -2   9   0    9.04    2.46
  -2   9   0    8.78    2.80
   2   9   0   13.10    3.55
   2   9   0    9.70    2.93
  -2   9   0    9.76    2.28
   2   9   0   13.46    2.71
  -2   9   0   13.33    2.37
  -2   9   0   15.14    1.80
  -2   9   0   11.30    2.37
   2   9   0   11.99    2.52
  -2   9   0    9.17    2.92
   2   9   0    9.56    2.88
   2   9   0    9.88    2.07
  -3  -9   0  126.08    5.59
   3  -9   0  113.52    7.18
   3  -9   0  131.48    7.28
  -3  -9   0  133.48    4.70
  -3  -9   0  133.04    5.96
   3  -9   0  128.81    5.91
  -3  -9   0  123.09    7.27
   3   9   0  134.48    6.88
  -3   9   0  136.67    6.55
  -3   9   0  124.75    6.62
  -3   9   0  116.67    7.79
  -3   9   0  128.38    7.60
  -3   9   0  134.66    6.86
   3   9   0  125.96    8.03
   3   9   0  128.17    6.66
   3   9   0  116.89    6.36
   4  -9   0    5.43    3.66
  -4  -9   0    4.85    2.55
   4  -9   0    9.32    3.06
  -4  -9   0   10.42    1.98
   4   9   0   -0.82    3.73
   4   9   0    4.24    2.99
   4   9   0    3.88    3.86
  -4   9   0    2.42    2.53
  -4   9   0   12.10    4.18
  -4   9   0    4.83    3.63
   4   9   0    8.55    3.08
  -4   9   0    6.03    3.06
  -4   9   0    9.93    3.06
   5  -9   0   32.07    5.00
   5  -9   0   31.34    3.08
  -5  -9   0   28.95    4.96
   5  -9   0   33.98    4.44
  -5   9   0   30.36    4.69
   5   9   0   36.10    7.21
  -5   9   0   26.89    5.43
  -5   9   0   25.46    9.61
   5   9   0   27.20    4.88
  -6  -9   0    7.62    2.43
   6  -9   0    4.18    3.47
   6  -9   0    9.13    4.21
  -6  -9   0    3.91    3.16
  -6   9   0   13.67    4.84
  -6   9   0   12.70    5.01
  -6   9   0    8.62    3.90
   6   9   0   16.61    5.48
   6   9   0    8.09    7.54
   6   9   0   -4.82    3.63
   7  -9   0    2.12    3.97
  -7  -9   0    3.03    3.66
  -7   9   0    9.79    6.33
   7   9   0    2.75    5.57
   7   9   0  -13.88    5.61
  -7   9   0   11.60    4.95
  -7   9   0    5.43    5.40
  -7   9   0    2.40    5.85
   7   9   0   11.91    4.90
   0 -10   0   45.71    4.43
   0 -10   0   46.19    4.91
   0 -10   0   54.33    6.63
   0 -10   0   49.35    4.10
   0  10   0   44.14    4.01
   0  10   0   36.94    4.52
   0  10   0   48.20    5.24
   0  10   0   46.19    4.32
   0  10   0   46.99    3.88
   0  10   0   55.72    5.93
   1 -10   0   11.04    2.80
   1 -10   0    7.83    2.60
  -1 -10   0   15.76    3.61
  -1 -10   0   15.85    3.40
  -1 -10   0   10.44    2.67
  -1  10   0   12.29    2.54
  -1  10   0   12.57    2.41
   1  10   0   17.23    2.60
  -1  10   0   16.88    2.70
   1  10   0   17.03    2.73
   1  10   0    9.16    2.56
   1  10   0    7.90    3.75
  -1  10   0   12.26    3.09
   1  10   0   15.23    2.67
  -1  10   0   14.80    2.71
   1  10   0   16.72    3.90
  -2 -10   0   42.86    3.87
   2 -10   0   45.89    3.97
   2 -10   0   50.95    4.86
  -2 -10   0   61.37    5.27
  -2 -10   0   44.93    3.83
   2 -10   0   41.19    4.59
  -2 -10   0   45.83    5.08
   2  10   0   37.94    4.31
  -2  10   0   40.19    4.31
   2  10   0   37.44    3.86
   2  10   0   48.29    5.88
  -2  10   0   37.54    4.96
  -2  10   0   44.43    4.45
   2  10   0   49.62    5.09
   2  10   0   44.14    4.35
  -2  10   0   44.29    4.03
  -2  10   0   34.65    4.66
  -2  10   0   38.18    4.04
  -3 -10   0  111.51    5.82
  -3 -10   0  126.19    6.19
   3 -10   0  110.62    7.30
   3 -10   0  125.94    6.03
   3 -10   0  103.89    7.64
  -3 -10   0  117.68    4.82
  -3 -10   0  118.94    7.54
  -3  10   0  116.51    6.63
   3  10   0  117.90    9.01
  -3  10   0  109.64    8.21
   3  10   0  116.47    6.73
   3  10   0  121.56    7.03
  -3  10   0  107.31    7.55
  -3  10   0  110.56    6.90
  -3  10   0  117.89    6.74
   4 -10   0   11.87    3.89
  -4 -10   0   15.11    3.28
  -4 -10   0    9.15    3.95
   4 -10   0   27.45    3.41
   4  10   0   14.45    4.09
  -4  10   0   17.78    4.10
  -4  10   0   28.95    4.71
  -4  10   0   17.66    3.91
   4  10   0   17.11    3.64
   4  10   0   21.72    6.66
  -5 -10   0  117.44    7.97
   5 -10   0  110.22    8.40
  -5  10   0  113.16    9.08
   5  10   0  116.47    9.42
   5  10   0  118.24    8.33
  -5  10   0   94.49    9.21
  -5  10   0  114.41    8.02
  -5  10   0  122.84   10.12
   5  10   0  111.54    9.47
   6 -10   0    1.81    3.91
  -6 -10   0    2.88    3.68
  -6  10   0    7.86    4.38
   6  10   0    1.10    5.07
  -6  10   0    8.63    5.61
  -6  10   0    0.35    4.60
  -6  10   0   -5.27    4.71
   6  10   0    3.15    4.36
   6  10   0   11.54    5.64
  -7 -10   0   62.79    7.63
   7 -10   0   82.70    9.14
   7  10   0   64.66    9.27
   7  10   0   69.04    7.83
  -7  10   0   73.15    8.68
  -7  10   0   83.52    9.68
  -7  10   0   75.64    9.20
   7  10   0   67.57    8.96
  -7  10   0   89.16    9.96
   0 -11   0   -2.80    1.93
   0 -11   0    0.08    2.35
   0 -11   0    1.03    2.92
   0  11   0   -3.88    2.28
   0  11   0    4.88    3.00
   0  11   0   -1.57    2.28
   0  11   0   -3.70    3.67
   0  11   0    3.66    2.74
  -1 -11   0    4.43    2.43
  -1 -11   0    3.61    3.07
   1 -11   0    4.88    2.67
   1 -11   0    0.75    2.43
  -1 -11   0    4.21    2.20
  -1  11   0    3.07    3.23
   1  11   0    3.44    4.42
   1  11   0    3.91    2.46
   1  11   0   -0.03    2.39
  -1  11   0    2.75    3.03
  -1  11   0    3.53    2.44
   1  11   0   -0.59    3.07
   1  11   0    3.59    2.69
  -1  11   0    0.48    2.63
  -1  11   0    5.41    3.16
   2 -11   0   17.32    3.71
  -2 -11   0   28.58    3.34
   2  11   0   21.69    4.10
  -2  11   0   19.46    5.00
  -2  11   0   10.11    2.97
  -2  11   0   13.97    3.51
   2  11   0   14.66    7.90
  -2  11   0   18.79    2.89
   2  11   0   18.65    2.97
   2  11   0   19.50    3.39
  -3 -11   0    3.26    3.15
  -3 -11   0    1.51    2.30
   3 -11   0    8.53    3.27
   3  11   0    1.20    4.78
  -3  11   0    8.29    3.07
  -3  11   0   -0.58    2.84
   3  11   0    1.05    3.74
   3  11   0    9.08    3.30
  -3  11   0    5.99    8.20
   4 -11   0   62.29    6.88
  -4 -11   0   72.82    6.46
  -4  11   0   79.97    8.41
   4  11   0   70.19    8.00
  -4  11   0   72.58    8.17
  -4  11   0   81.03    6.93
   4  11   0   78.67    8.82
  -4  11   0   83.20    8.17
   4  11   0   71.58    6.92
  -5 -11   0    0.16    3.62
   5 -11   0   -2.67    3.76
   5  11   0   -4.33    8.50
   5  11   0   10.66    4.30
  -5  11   0   -3.58    4.89
  -5  11   0   -2.84    4.77
  -5  11   0    8.45    4.20
  -5  11   0    1.08    4.99
   5  11   0   10.29    5.88
   6 -11   0   97.06    9.08
  -6 -11   0   88.88    7.95
  -6  11   0   89.83   11.12
  -6  11   0  100.44    9.65
   6  11   0  116.33   10.83
  -6  11   0   76.95    8.31
  -6  11   0   87.66    9.53
   6  11   0   97.45    9.58
   6  11   0   94.53   11.93
   0 -12   0  165.32    8.29
   0  12   0  157.88    9.19
   0  12   0  158.44    8.00
   0  12   0  163.48    9.09
  -1 -12   0   15.35    3.92
   1 -12   0    8.06    3.15
  -1 -12   0   10.25    3.01
   1  12   0   11.02    4.63
  -1  12   0    9.44    3.17
   1  12   0    7.31    3.18
  -1  12   0   12.62    4.99
   1  12   0    9.99    3.28
  -2 -12   0  111.70    7.76
  -2 -12   0   98.93    7.70
   2 -12   0  115.32    7.68
  -2  12   0   97.60    8.84
  -2  12   0   99.02    7.25
  -2  12   0  109.18    7.03
   2  12   0  112.73    6.62
   2  12   0  110.31    7.42
   2  12   0  109.94    7.41
   2  12   0   93.07    9.12
  -3 -12   0   22.87    4.74
   3 -12   0   20.07    4.37
   3  12   0   26.34    5.85
   3  12   0   38.69    5.48
  -3  12   0   27.98    4.45
  -3  12   0   30.29    4.72
  -3  12   0   21.05    5.11
  -3  12   0   23.97    5.22
   3  12   0   25.60    4.62
   4 -12   0   27.21    5.20
  -4 -12   0   11.50    4.20
   4  12   0   22.31    6.49
  -4  12   0   23.15    5.92
   4  12   0   15.56    4.75
  -4  12   0   23.43    5.81
  -4  12   0   22.23    4.69
   5 -12   0   35.08    6.10
  -5 -12   0   34.18    5.68
  -5  12   0   43.49    6.74
   5  12   0   43.59    6.88
   5  12   0   35.69    6.15
  -5  12   0   32.35    6.25
   5  12   0   48.76    8.50
  -5  12   0   33.07    6.13
  -5  12   0   31.94    6.93
   0 -13   0    1.00    3.37
   0  13   0   -0.89    4.61
   0  13   0   -1.18    3.23
   0  13   0    0.02    4.09
   1 -13   0  125.48    8.29
  -1 -13   0  134.01    8.64
  -1 -13   0  146.42    7.67
  -1  13   0  126.04    7.77
   1  13   0  138.81    8.02
   1  13   0  124.80    9.19
  -1  13   0  127.56    9.23
  -1  13   0  120.31    9.31
   1  13   0  133.69   10.40
   1  13   0  131.61    9.56
  -2 -13   0   -5.65    3.04
   2 -13   0    1.32    3.44
   2  13   0   -3.49    5.02
   2  13   0    4.34    3.72
  -2  13   0   -4.69    3.45
   2  13   0    3.05    4.02
  -2  13   0    6.83    5.17
  -2  13   0   -6.02    4.73
   2  13   0    1.38    5.51
   3 -13   0   58.70    7.42
  -3 -13   0   53.82    6.74
  -3  13   0   60.76    7.25
   3  13   0   65.16    8.20
   3  13   0   64.86    7.79
  -3  13   0   50.51    7.81
  -3  13   0   51.01    8.37
   4 -13   0    1.16    3.81
  -4 -13   0   -0.04    3.83
  -4  13   0    4.96    4.76
   4  13   0   -2.65    4.88
  -4  13   0   -1.55    5.96
   4  13   0    8.41    6.97
  -4  13   0   11.16    6.50
   4  13   0   -0.64    6.43
   0 -14   0   68.53    7.49
   0  14   0   59.25    8.58
   0  14   0   56.12    7.12
   0  14   0   56.46    6.96
  -1 -14   0    3.94    4.09
   1 -14   0    8.76    4.41
  -1  14   0    0.19    6.43
   1  14   0   11.83    7.30
  -1  14   0   -5.05    5.64
   1  14   0   -3.72    4.01
   1  14   0    5.28    6.54
   1  14   0   12.52    5.35
  -1  14   0    2.56    4.13
  10   0  -1    7.02    6.99
 -10   0   1    1.52    3.60
 -10   0   1   -8.94    5.55
 -10   0   1    3.29    7.10
 -10   0   1    1.94    5.69
  10   0  -1   -9.78    6.10
   9   0  -1  141.69   11.43
  -9   0   1  141.71    9.99
  -9   0   1  130.95    8.66
   9   0  -1  123.22   10.20
  -9   0   1  139.09   10.99
   9   0  -1  128.48    9.88
  -9   0   1  126.71    9.92
  -9   0   1  129.04    7.56
   9   0  -1  133.50    7.01
   8   0  -1    4.92    2.27
  -8   0   1   -4.66    3.73
   8   0  -1   -4.11    4.31
   8   0  -1    4.20    4.47
  -8   0   1    3.94    4.13
   8   0  -1   -2.86    4.33
  -8   0   1   -0.60    3.97
  -8   0   1    3.48    2.57
   7   0  -1  223.29   10.02
   7   0  -1  230.14   10.95
   7   0  -1  209.07    9.97
   7   0  -1  231.60    8.12
  -7   0   1  235.85   10.03
  -7   0   1  215.67    8.29
  -7   0   1  248.18   10.57
  -7   0   1  232.00    8.67
  -7   0   1  225.34    9.94
   6   0  -1    2.83    2.56
  -6   0   1   -1.04    2.28
  -6   0   1    3.58    3.17
  -6   0   1    2.91    2.27
   6   0  -1   -0.51    1.42
   6   0  -1    1.43    2.24
   6   0  -1    3.51    2.86
  -6   0   1    1.78    2.02
  -6   0   1   -1.44    2.74
   6   0  -1    1.02    2.26
   6   0  -1   -3.92    2.80
  -6   0   1    2.99    2.31
  -6   0   1   -0.58    1.40
   6   0  -1   -0.35    2.47
  -6   0   1   -1.04    2.95
   5   0  -1  122.30    6.02
  -5   0   1  121.38    5.96
   5   0  -1  110.63    5.77
  -5   0   1  120.24    5.69
  -5   0   1  128.28    4.97
  -5   0   1  114.09    5.93
  -5   0   1  120.32    6.34
   5   0  -1  125.88    5.97
   5   0  -1  123.39    6.46
   5   0  -1  127.41    5.89
   5   0  -1  122.96    4.87
  -5   0   1  119.36    5.18
  -5   0   1  126.14    6.07
   5   0  -1  124.77    6.11
  -5   0   1  114.11    5.78
  -4   0   1    0.67    1.42
   4   0  -1   -2.29    1.37
   4   0  -1   -0.77    0.97
  -4   0   1    2.67    1.62
  -4   0   1    0.26    1.42
   4   0  -1    1.96    1.57
   4   0  -1    0.30    1.42
   4   0  -1    1.94    1.39
  -4   0   1    4.56    1.76
  -4   0   1    1.92    1.43
  -4   0   1    0.59    1.26
   4   0  -1    0.15    1.57
  -4   0   1    0.69    1.17
   4   0  -1    0.92    1.49
  -3   0   1   32.30    2.75
   3   0  -1   36.03    2.65
   3   0  -1   34.68    2.65
   3   0  -1   34.22    2.70
  -3   0   1   41.18    2.74
  -3   0   1   36.15    2.58
  -3   0   1   39.48    2.89
   3   0  -1   43.18    2.71
  -3   0   1   38.30    2.67
  -3   0   1   39.87    2.72
   3   0  -1   32.74    2.42
   3   0  -1   35.77    2.86
  -3   0   1   37.02    2.31
  -3   0   1   36.70    2.04
   3   0  -1   33.41    2.19
   2   0  -1    0.41    1.06
  -2   0   1    1.04    1.05
   2   0  -1    1.00    1.14
  -2   0   1    0.32    0.97
   2   0  -1    0.38    0.92
   2   0  -1    1.12    0.67
  -2   0   1    0.17    0.93
   2   0  -1    0.52    1.00
  -2   0   1    0.04    0.67
   2   0  -1    1.26    1.02
  -2   0   1    0.53    1.05
  -2   0   1    0.35    1.03
  -2   0   1    2.19    0.94
  -2   0   1   -0.02    1.04
  -1   0   1  105.48    3.30
  -1   0   1  107.11    3.34
   1   0  -1  111.60    3.26
   1   0  -1  103.97    3.24
  -1   0   1  110.47    3.25
  -1   0   1  106.34    3.07
   1   0  -1  111.55    3.30
   1   0  -1  106.31    3.34
  -1   0   1  105.67    3.26
   1   0  -1  109.52    3.41
  -1   0   1  106.18    3.30
  -1   0   1  108.09    3.41
   1   0  -1  108.60    3.07
   1   0  -1  109.27    3.30
   0   0  -1    0.36    0.32
   0   0  -1   -0.02    0.48
   0   0  -1    0.04    0.39
   0   0  -1    0.75    0.38
   0   0   1   -0.16    0.40
   0   0  -1    0.34    0.17
   0   0   1    0.25    0.32
   0   0   1    0.02    0.13
   0   0  -1    0.18    0.39
   0   0   1    0.23    0.37
   0   0   1    0.32    0.37
   0   0  -1    0.39    0.39
   0   0   1    0.10    0.35
  -1   0  -1  494.89   12.73
  -1   0  -1  485.81   12.65
  -1   0  -1  505.15   12.64
  -1   0  -1  474.27   12.69
   1   0   1  480.29   12.68
  -1   0  -1  509.84   12.50
  -1   0  -1  496.05   12.76
   1   0   1  481.45   12.74
   1   0   1  492.73   12.68
   1   0   1  496.78   12.70
  -1   0  -1  483.53   12.68
   1   0   1  507.63   12.53
   1   0   1  481.96   12.56
   1   0   1  488.71   12.46
   1   0   1  476.36   12.64
   2   0   1    0.27    0.98
  -2   0  -1    1.03    1.13
   2   0   1    1.00    1.06
   2   0   1    0.72    1.08
  -2   0  -1    1.37    1.06
  -2   0  -1   -0.76    1.01
  -2   0  -1   -0.04    1.08
  -2   0  -1    0.79    1.09
   2   0   1    0.16    1.07
  -2   0  -1    0.22    0.88
   2   0   1    1.23    1.17
   2   0   1    0.08    0.83
  -2   0  -1    1.26    1.13
   2   0   1    0.46    1.17
  -3   0  -1  656.74   17.42
   3   0   1  670.47   18.40
  -3   0  -1  644.97   18.25
   3   0   1  683.20   17.47
   3   0   1  680.77   18.24
   3   0   1  648.00   18.23
  -3   0  -1  652.25   19.06
  -3   0  -1  679.46   19.13
   3   0   1  701.25   18.21
  -3   0  -1  628.13   19.18
  -3   0  -1  705.47   18.42
  -4   0  -1    2.22    1.58
  -4   0  -1   -0.79    1.38
   4   0   1    0.42    1.45
  -4   0  -1    1.04    1.67
   4   0   1    1.82    1.65
  -4   0  -1   -0.60    1.62
  -4   0  -1   -0.37    1.71
   4   0   1   -1.89    1.59
   4   0   1    0.43    1.13
   4   0   1    1.64    1.77
  -4   0  -1    2.17    1.66
   4   0   1    0.30    1.53
   4   0   1   -2.14    1.36
   5   0   1  258.91    9.69
   5   0   1  275.05    9.70
   5   0   1  256.89    9.39
   5   0   1  265.57    8.39
  -5   0  -1  256.28    9.55
   5   0   1  251.27    9.93
   5   0   1  266.64    9.83
   5   0   1  255.83    9.78
  -5   0  -1  264.98    9.97
  -5   0  -1  262.41    9.88
  -5   0  -1  250.24    9.88
  -5   0  -1  265.78    9.65
   6   0   1   -2.41    2.32
   6   0   1    2.83    3.10
   6   0   1    0.38    2.45
  -6   0  -1    1.02    1.74
   6   0   1    6.50    3.07
   6   0   1    0.44    1.53
  -6   0  -1   -0.51    2.15
  -6   0  -1   -2.09    3.26
   6   0   1    2.56    3.83
  -6   0  -1    0.63    2.33
   6   0   1    1.76    2.71
  -6   0  -1    2.68    2.60
  -7   0  -1  139.00    7.82
  -7   0  -1  139.07    6.75
   7   0   1  133.37    8.55
  -7   0  -1  140.11    8.35
  -7   0  -1  141.43    8.08
   7   0   1  137.07    8.34
  -7   0  -1  139.43    8.19
   7   0   1  141.37    6.13
   7   0   1  131.77    7.94
   8   0   1    4.44    4.66
  -8   0  -1   -0.93    4.29
   8   0   1    7.50    2.58
  -8   0  -1    4.01    3.09
  -8   0  -1   -0.47    4.60
  -8   0  -1    1.28    4.10
  -8   0  -1   -0.59    4.04
   8   0   1    0.93    4.86
   8   0   1    1.16    6.25
   9   0   1   18.39    6.08
  -9   0  -1   13.36    3.96
  -9   0  -1    1.34    4.96
  -9   0  -1    9.88    5.12
   9   0   1   15.20    6.19
  -9   0  -1   13.61    5.85
   9   0   1   15.56    5.81
  -9   0  -1   20.38    5.37
 -10  -1   1   69.81    8.50
 -10  -1   1   53.79    8.57
  10  -1  -1   72.53    9.89
  10  -1  -1   62.06    9.12
 -10  -1   1   68.69    8.30
  10  -1  -1   63.92    5.79
 -10  -1   1   63.42    7.13
  10  -1  -1   62.91    8.70
 -10   1   1   68.84    8.89
 -10   1   1   59.76    8.53
  10   1  -1   61.78    9.10
  10   1  -1   56.08    8.70
  10   1  -1   94.19   11.72
 -10   1   1   57.80    8.02
 -10   1   1   53.84    8.87
 -10   1   1   68.92    7.58
  -9  -1   1   -3.16    2.93
  -9  -1   1    0.17    4.42
  -9  -1   1    3.50    4.24
   9  -1  -1    2.15    4.84
   9  -1  -1    2.26    3.12
  -9  -1   1    3.38    3.41
   9  -1  -1    6.42    5.18
  -9   1   1    4.17    4.76
   9   1  -1    4.01    5.13
   9   1  -1   -0.42    4.80
  -9   1   1    0.85    4.73
  -9   1   1    2.86    4.70
   9   1  -1    1.20    4.80
  -9   1   1   -1.94    3.73
   8  -1  -1   55.76    6.68
   8  -1  -1   61.02    7.58
  -8  -1   1   61.63    6.99
  -8  -1   1   57.83    4.61
  -8  -1   1   55.93    7.24
  -8  -1   1   61.13    7.13
  -8  -1   1   56.13    6.97
  -8   1   1   67.75    7.10
  -8   1   1   60.62    5.51
   8   1  -1   61.64    8.19
   8   1  -1   57.09    4.08
  -8   1   1   64.22    7.76
   8   1  -1   62.59    7.87
  -8   1   1   63.95    7.91
   8   1  -1   61.23    7.78
   7  -1  -1   42.57    5.54
   7  -1  -1   47.19    4.05
  -7  -1   1   49.11    5.05
   7  -1  -1   47.72    5.42
  -7  -1   1   41.48    4.85
  -7  -1   1   46.06    3.58
  -7  -1   1   51.25    5.42
  -7  -1   1   49.40    5.28
   7  -1  -1   55.56    5.42
  -7  -1   1   42.25    4.15
  -7   1   1   52.46    5.65
  -7   1   1   41.55    5.32
   7   1  -1   38.53    5.13
  -7   1   1   43.16    4.52
   7   1  -1   49.69    5.80
  -7   1   1   53.37    4.37
   7   1  -1   46.57    5.89
  -7   1   1   49.38    5.69
   7   1  -1   46.67    3.27
   6  -1  -1   66.42    5.59
  -6  -1   1   78.77    3.92
   6  -1  -1   85.37    5.80
  -6  -1   1   72.86    5.66
  -6  -1   1   77.15    5.33
  -6  -1   1   62.96    5.91
   6  -1  -1   78.61    6.03
   6  -1  -1   74.53    5.94
  -6  -1   1   75.83    5.13
  -6  -1   1   72.93    4.92
  -6  -1   1   80.67    5.79
   6  -1  -1   80.74    6.00
  -6  -1   1   75.61    4.94
   6  -1  -1   72.68    5.30
   6  -1  -1   76.93    4.41
  -6   1   1   74.02    5.20
   6   1  -1   71.83    5.84
  -6   1   1   72.43    5.72
  -6   1   1   70.29    5.47
   6   1  -1   74.82    5.62
   6   1  -1   74.49    5.71
  -6   1   1   78.76    5.72
  -6   1   1   72.25    6.06
   6   1  -1   75.91    5.93
  -6   1   1   68.29    4.41
   6   1  -1   69.42    5.32
   6   1  -1   69.23    5.36
  -6   1   1   69.64    6.11
  -6   1   1   71.01    4.36
   6   1  -1   77.33    3.69
  -5  -1   1   55.40    4.53
  -5  -1   1   56.78    4.04
  -5  -1   1   63.83    4.49
   5  -1  -1   59.56    4.38
  -5  -1   1   58.53    4.30
  -5  -1   1   61.78    3.27
   5  -1  -1   56.56    4.29
   5  -1  -1   57.09    4.46
   5  -1  -1   60.73    4.56
  -5  -1   1   56.05    4.62
   5  -1  -1   66.43    4.64
  -5  -1   1   56.36    4.24
  -5  -1   1   54.33    4.07
   5  -1  -1   63.63    3.72
   5  -1  -1   59.17    4.40
   5   1  -1   66.82    4.50
   5   1  -1   61.92    4.63
  -5   1   1   61.81    3.53
   5   1  -1   54.14    4.05
  -5   1   1   61.10    4.48
   5   1  -1   59.86    2.96
  -5   1   1   61.01    4.55
  -5   1   1   64.05    4.49
  -5   1   1   63.78    4.46
  -5   1   1   55.46    3.63
   5   1  -1   63.26    4.90
   5   1  -1   55.58    4.12
   5   1  -1   67.45    4.22
  -5   1   1   58.99    4.22
  -5   1   1   59.10    4.77
  -4  -1   1   20.52    2.55
   4  -1  -1   20.71    2.49
   4  -1  -1   15.33    2.19
   4  -1  -1   17.37    2.25
  -4  -1   1   17.11    1.59
   4  -1  -1   20.29    2.49
  -4  -1   1   17.79    2.23
  -4  -1   1   19.28    2.79
  -4  -1   1   18.22    2.39
   4  -1  -1   15.04    2.37
   4  -1  -1   22.51    2.56
  -4  -1   1   22.05    2.58
   4  -1  -1   16.47    2.41
  -4  -1   1   19.21    2.65
  -4  -1   1   16.74    2.26
   4   1  -1   20.78    2.50
   4   1  -1   19.25    2.51
  -4   1   1   21.74    2.80
  -4   1   1   19.23    2.46
  -4   1   1   20.95    2.06
  -4   1   1   15.65    2.40
  -4   1   1   20.02    2.57
  -4   1   1   17.42    2.42
   4   1  -1   16.91    2.23
  -4   1   1   19.26    2.49
   4   1  -1   20.69    1.80
   4   1  -1   18.69    2.66
   4   1  -1   17.93    2.41
   3  -1  -1  169.86    6.90
  -3  -1   1  175.59    5.71
  -3  -1   1  160.60    5.71
   3  -1  -1  161.07    6.07
  -3  -1   1  172.62    5.97
   3  -1  -1  172.96    6.10
  -3  -1   1  152.26    6.26
   3  -1  -1  166.37    5.66
  -3  -1   1  167.01    4.92
  -3  -1   1  167.43    5.82
  -3  -1   1  175.21    6.32
   3  -1  -1  168.19    5.81
   3  -1  -1  177.99    6.72
  -3  -1   1  169.61    5.95
  -3   1   1  182.88    6.00
  -3   1   1  168.75    5.57
  -3   1   1  175.74    6.16
   3   1  -1  175.08    6.48
  -3   1   1  167.51    6.26
   3   1  -1  171.98    5.94
  -3   1   1  173.12    5.22
  -3   1   1  154.93    6.01
   3   1  -1  170.63    5.75
   3   1  -1  169.03    5.01
   3   1  -1  168.31    6.04
   3   1  -1  170.47    6.82
  -3   1   1  166.43    6.55
  -3   1   1  167.18    5.97
   3   1  -1  172.12    5.84
  -2  -1   1   86.82    2.52
   2  -1  -1   88.04    3.58
  -2  -1   1   86.54    3.21
  -2  -1   1   84.58    3.28
   2  -1  -1   83.13    3.34
   2  -1  -1   90.04    3.69
   2  -1  -1   88.19    3.49
  -2  -1   1   85.78    3.38
  -2  -1   1   85.43    3.31
   2  -1  -1   84.88    3.22
  -2  -1   1   89.95    3.75
   2  -1  -1   84.38    3.56
  -2  -1   1   85.80    3.39
   2  -1  -1   84.92    3.39
  -2  -1   1   83.04    3.22
   2   1  -1   88.73    3.49
  -2   1   1   87.13    3.28
   2   1  -1   87.51    3.27
  -2   1   1   89.12    3.72
   2   1  -1   86.77    3.40
  -2   1   1   82.91    3.46
   2   1  -1   82.88    3.67
   2   1  -1   81.81    3.25
   2   1  -1   85.57    3.41
  -2   1   1   90.45    3.51
  -2   1   1   88.92    3.56
  -2   1   1   86.59    3.47
  -2   1   1   92.07    3.24
  -2   1   1   85.95    3.48
   1  -1  -1  195.07    5.54
   1  -1  -1  200.30    5.65
   1  -1  -1  193.77    5.51
  -1  -1   1  194.56    5.10
  -1  -1   1  193.18    5.31
   1  -1  -1  197.66    5.52
   1  -1  -1  195.67    5.58
  -1  -1   1  185.44    5.23
   1  -1  -1  208.13    5.62
  -1  -1   1  196.53    5.15
  -1  -1   1  191.98    5.57
  -1  -1   1  199.82    5.51
   1  -1  -1  196.29    5.38
   1   1  -1  198.10    5.33
   1   1  -1  192.45    4.85
  -1   1   1  197.07    5.53
  -1   1   1  187.65    5.50
  -1   1   1  192.47    5.62
   1   1  -1  198.46    5.19
  -1   1   1  199.30    5.37
  -1   1   1  191.16    5.55
  -1   1   1  203.75    5.60
  -1   1   1  195.11    5.55
   1   1  -1  192.58    5.57
   1   1  -1  189.02    5.24
   1   1  -1  200.85    5.23
   0  -1  -1   71.12    2.37
   0  -1   1   69.07    1.94
   0  -1  -1   64.90    2.22
   0  -1  -1   68.49    2.17
   0  -1  -1   63.98    2.30
   0  -1  -1   63.22    2.27
   0  -1   1   66.50    2.35
   0  -1  -1   68.91    2.34
   0  -1  -1   69.78    2.32
   0   1   1   67.17    2.34
   0   1  -1   65.37    1.75
   0   1   1   67.42    2.35
   0   1   1   67.61    2.31
   0   1   1   68.02    2.33
   0   1   1   64.13    2.28
   0   1  -1   66.16    2.32
   0   1   1   63.16    2.23
   0   1  -1   66.87    1.77
   1  -1   1  191.10    4.88
  -1  -1  -1  194.23    5.66
   1  -1   1  193.15    5.60
  -1  -1  -1  189.97    5.57
   1  -1   1  192.99    5.40
   1  -1   1  184.21    5.35
  -1  -1  -1  191.55    5.07
   1  -1   1  194.63    5.63
  -1  -1  -1  193.63    5.39
   1  -1   1  182.47    5.16
  -1  -1  -1  192.14    5.62
  -1  -1  -1  183.57    5.49
  -1  -1  -1  184.62    5.26
   1  -1   1  186.14    5.21
  -1  -1  -1  190.38    5.61
  -1   1  -1  187.84    5.29
  -1   1  -1  176.46    5.36
   1   1   1  194.94    5.52
  -1   1  -1  185.21    5.41
   1   1   1  189.87    5.59
   1   1   1  179.63    5.59
  -1   1  -1  183.53    5.27
   1   1   1  176.68    5.54
  -1   1  -1  195.77    5.55
  -1   1  -1  196.49    5.43
   1   1   1  179.79    5.54
  -1   1  -1  176.26    5.55
   1   1   1  185.34    5.51
  -1   1  -1  188.04    4.88
  -2  -1  -1   22.47    2.30
   2  -1   1   18.77    1.88
  -2  -1  -1   23.77    2.15
  -2  -1  -1   22.06    2.25
   2  -1   1   22.04    2.12
  -2  -1  -1   22.15    1.46
  -2  -1  -1   21.60    2.23
   2  -1   1   23.38    1.92
   2  -1   1   18.15    1.97
   2  -1   1   21.85    2.15
  -2  -1  -1   22.10    2.18
  -2  -1  -1   22.55    2.09
  -2  -1  -1   24.17    1.91
   2  -1   1   22.26    1.99
   2  -1   1   20.86    1.98
   2   1   1   23.36    2.39
   2   1   1   21.17    1.94
  -2   1  -1   22.06    2.07
  -2   1  -1   22.24    2.12
   2   1   1   25.50    1.57
   2   1   1   24.32    2.23
  -2   1  -1   21.39    1.97
  -2   1  -1   25.14    2.18
  -2   1  -1   23.97    2.29
   2   1   1   23.09    2.22
   2   1   1   22.80    2.15
  -2   1  -1   21.86    1.88
   2   1   1   20.46    1.79
  -2   1  -1   23.43    2.15
   3  -1   1   59.06    3.34
   3  -1   1   54.90    3.01
   3  -1   1   53.95    5.14
   3  -1   1   55.44    3.13
  -3  -1  -1   54.99    3.14
   3  -1   1   61.14    3.34
  -3  -1  -1   56.87    3.26
   3  -1   1   52.62    3.28
  -3  -1  -1   55.04    3.41
  -3  -1  -1   55.59    3.76
   3  -1   1   52.93    3.97
  -3  -1  -1   55.52    2.50
  -3  -1  -1   55.49    3.46
  -3   1  -1   58.21    3.33
   3   1   1   57.53    3.08
   3   1   1   53.06    3.15
  -3   1  -1   53.59    3.44
   3   1   1   55.66    3.38
   3   1   1   53.94    2.42
  -3   1  -1   58.86    3.30
   3   1   1   54.22    3.65
  -3   1  -1   55.04    3.40
   3   1   1   57.77    3.36
  -4  -1  -1  223.99    8.36
   4  -1   1  228.01    7.54
   4  -1   1  210.75    8.23
  -4  -1  -1  215.56    6.83
  -4  -1  -1  208.26    8.12
   4  -1   1  227.35    8.26
  -4  -1  -1  218.24    8.03
   4  -1   1  232.40    8.20
  -4  -1  -1  227.88    8.00
  -4  -1  -1  217.99    7.81
   4  -1   1  234.14    8.28
   4  -1   1  208.94    7.93
   4  -1   1  233.59    7.88
  -4  -1  -1  237.35    8.38
  -4  -1  -1  239.57    8.31
   4   1   1  212.10    8.29
  -4   1  -1  224.13    8.25
   4   1   1  213.10    8.35
  -4   1  -1  214.36    7.95
  -4   1  -1  233.14    8.22
   4   1   1  236.48    8.15
   4   1   1  230.38    8.27
  -4   1  -1  225.39    8.17
  -4   1  -1  229.50    8.37
   4   1   1  228.02    7.81
   4   1   1  214.55    8.17
   4   1   1  229.37    6.77
  -5  -1  -1   -2.23    2.37
  -5  -1  -1    0.62    1.63
   5  -1   1    0.70    1.94
  -5  -1  -1    1.32    2.05
   5  -1   1    6.69    2.50
  -5  -1  -1   -0.88    1.79
  -5  -1  -1    1.68    1.90
  -5  -1  -1    1.99    2.52
   5  -1   1   -1.71    1.90
   5  -1   1   -1.13    1.92
   5  -1   1    2.84    2.06
   5  -1   1   -1.34    1.46
   5  -1   1    5.18    2.23
  -5  -1  -1   -0.47    2.09
  -5   1  -1    1.64    1.65
   5   1   1    0.49    1.19
   5   1   1    4.16    2.06
   5   1   1    3.44    2.41
  -5   1  -1    1.17    1.85
   5   1   1   -3.80    2.11
  -5   1  -1    3.03    1.96
  -5   1  -1   -1.22    2.35
  -5   1  -1    7.04    2.27
   5   1   1    1.60    2.17
   5   1   1    0.86    1.96
   5   1   1    1.05    2.20
  -5   1  -1   -0.16    2.42
   6  -1   1  201.79    9.08
  -6  -1  -1  188.35    8.53
   6  -1   1  199.79    8.92
  -6  -1  -1  194.64    8.64
   6  -1   1  203.69    8.84
  -6  -1  -1  216.15   10.54
   6  -1   1  188.42    7.50
  -6  -1  -1  189.61    7.46
  -6  -1  -1  194.75    8.46
   6  -1   1  192.51    9.20
   6   1   1  199.92    8.82
  -6   1  -1  183.60    8.55
  -6   1  -1  199.69    7.98
  -6   1  -1  208.64    9.82
   6   1   1  196.68    9.64
   6   1   1  210.47    9.33
  -6   1  -1  202.90    9.16
   6   1   1  205.27    9.00
   6   1   1  196.74    6.77
   6   1   1  186.35    9.18
  -6   1  -1  203.78    9.12
  -7  -1  -1   20.59    4.10
   7  -1   1   23.16    3.13
   7  -1   1   21.16    3.70
  -7  -1  -1   17.51    3.61
  -7  -1  -1   24.87    3.79
   7  -1   1   17.73    3.98
  -7  -1  -1   24.58    3.13
  -7  -1  -1   25.25    4.42
   7  -1   1   22.42    4.59
   7  -1   1   27.52    4.46
   7   1   1   24.69    4.94
   7   1   1   28.88    3.09
  -7   1  -1   20.83    4.32
  -7   1  -1   25.08    4.57
  -7   1  -1   19.33    4.13
   7   1   1   30.11    4.71
   7   1   1   19.94    4.16
  -7   1  -1   22.83    3.42
  -8  -1  -1   48.22    6.33
   8  -1   1   42.79    8.05
  -8  -1  -1   48.18    6.42
   8  -1   1   52.67    5.07
   8  -1   1   41.00    6.46
  -8  -1  -1   49.91    6.58
  -8  -1  -1   40.81    4.43
  -8   1  -1   44.50    7.29
   8   1   1   42.31    7.10
  -8   1  -1   38.58    5.50
   8   1   1   44.38    6.10
   8   1   1   47.24    7.07
  -8   1  -1   42.39    4.93
   8   1   1   39.55    4.16
  -8   1  -1   44.35    9.57
  -9  -1  -1   63.51    7.35
  -9  -1  -1   55.63    7.74
   9  -1   1   70.87    8.55
   9  -1   1   63.02    6.32
  -9  -1  -1   68.31    6.92
  -9  -1  -1   85.24    9.07
  -9  -1  -1   68.91    8.91
   9  -1   1   74.74    9.29
  -9   1  -1   66.82    6.76
   9   1   1   79.11    9.79
   9   1   1   65.02    8.15
  -9   1  -1   66.25    7.23
  -9   1  -1   65.49    7.99
   9   1   1   66.81    8.13
  -9   1  -1   65.98    7.90
  -9   1  -1   65.45    7.50
  10  -2  -1   -2.67    6.83
 -10  -2   1  -11.28    7.01
 -10  -2   1    5.28    3.71
  10  -2  -1   -1.00    4.34
 -10  -2   1   16.94    6.04
 -10  -2   1    6.51    6.20
  10  -2  -1   17.59    6.66
  10   2  -1    7.01    6.56
 -10   2   1   10.16    7.00
 -10   2   1   12.28    6.30
  10   2  -1   14.96    6.65
 -10   2   1   10.88    5.65
  10   2  -1   -4.14    6.84
 -10   2   1   17.47    6.59
   9  -2  -1    8.37    3.47
  -9  -2   1   -0.28    4.53
   9  -2  -1   -1.49    4.96
  -9  -2   1    1.97    6.23
  -9  -2   1    5.35    8.72
   9  -2  -1    3.90    3.49
  -9  -2   1    4.21    3.51
   9  -2  -1    2.36    4.91
   9   2  -1    4.16    4.99
   9   2  -1    0.48    4.61
  -9   2   1    3.14    5.00
  -9   2   1    3.41    5.09
  -9   2   1    3.22    4.90
   9   2  -1   -0.81    4.89
  -9   2   1    3.23    4.97
  -8  -2   1   -2.40    3.71
  -8  -2   1    4.37    1.99
   8  -2  -1   -0.33    2.52
   8  -2  -1   -0.99    4.65
  -8  -2   1    1.79    3.72
  -8  -2   1   -0.65    3.29
   8  -2  -1   -5.14    3.05
   8  -2  -1   -2.09    4.06
  -8   2   1    0.60    4.26
  -8   2   1    4.70    4.67
  -8   2   1   -4.42    2.63
   8   2  -1   -2.93    4.14
   8   2  -1   -4.30    4.57
   8   2  -1   -2.26    1.95
   7  -2  -1   10.41    2.98
  -7  -2   1    9.88    2.88
   7  -2  -1    8.58    3.59
  -7  -2   1    8.55    3.12
  -7  -2   1    8.04    1.95
   7  -2  -1    5.97    3.12
  -7  -2   1    8.75    3.48
  -7  -2   1   11.55    3.15
  -7  -2   1   12.30    2.91
  -7   2   1   11.30    4.18
  -7   2   1    5.29    3.11
  -7   2   1   13.31    2.98
   7   2  -1    9.81    4.01
   7   2  -1   10.84    1.62
   7   2  -1    8.46    3.27
  -7   2   1    5.76    3.15
   7   2  -1   13.37    3.78
   7   2  -1   11.79    4.49
  -7   2   1   12.24    3.76
   6  -2  -1   84.58    5.65
   6  -2  -1   95.40    5.19
   6  -2  -1   96.60    6.12
  -6  -2   1   98.07    5.87
  -6  -2   1   83.76    5.18
  -6  -2   1   90.75    5.49
  -6  -2   1   92.42    4.00
  -6  -2   1   96.05    5.97
   6  -2  -1  108.73    7.66
  -6  -2   1   85.78    6.14
   6  -2  -1   73.93    6.41
   6  -2  -1  101.86    6.08
  -6  -2   1   94.55    5.42
   6   2  -1   91.88    3.51
  -6   2   1   83.17    5.97
  -6   2   1   95.69    6.25
  -6   2   1   92.58    4.51
  -6   2   1   90.39    5.10
  -6   2   1   99.41    6.34
   6   2  -1   85.77    6.03
   6   2  -1   96.60    6.46
   6   2  -1   92.19    5.90
   6   2  -1   94.21    5.77
  -6   2   1   85.08    5.54
   6   2  -1   92.17    6.44
  -6   2   1   95.88    7.59
   5  -2  -1    0.76    1.91
  -5  -2   1    1.24    2.05
   5  -2  -1   -1.41    1.68
  -5  -2   1    1.08    0.89
  -5  -2   1   -3.00    1.80
   5  -2  -1   -4.44    2.11
  -5  -2   1    1.37    1.70
   5  -2  -1    0.86    2.08
   5  -2  -1    1.51    1.66
  -5  -2   1   -0.06    1.74
   5  -2  -1   -1.65    1.49
  -5  -2   1   -3.64    2.02
  -5  -2   1    2.58    2.28
  -5  -2   1    2.59    2.12
  -5  -2   1    0.04    1.45
   5   2  -1   -2.65    2.02
   5   2  -1    0.42    1.96
   5   2  -1    1.50    0.95
  -5   2   1    0.20    1.89
  -5   2   1   -2.19    1.57
  -5   2   1    0.58    2.06
  -5   2   1    0.85    1.85
  -5   2   1   -2.16    2.19
   5   2  -1    2.77    1.77
   5   2  -1   -2.02    1.72
  -5   2   1    0.92    1.56
  -5   2   1    0.76    1.52
   5   2  -1   -2.58    2.00
   5   2  -1   -1.40    1.73
  -5   2   1    1.02    2.08
  -4  -2   1  797.55   20.76
  -4  -2   1  766.12   20.91
   4  -2  -1  740.29   20.63
  -4  -2   1  770.11   21.19
  -4  -2   1  756.86   20.24
   4  -2  -1  735.12   20.30
   4  -2  -1  788.53   20.63
  -4  -2   1  759.28   20.85
  -4  -2   1  726.68   20.17
   4  -2  -1  734.46   20.71
   4  -2  -1  764.58   20.92
  -4  -2   1  734.31   18.83
   4  -2  -1  731.71   20.47
   4   2  -1  702.93   20.58
   4   2  -1  699.40   20.52
  -4   2   1  712.35   20.82
  -4   2   1  756.59   20.90
  -4   2   1  734.96   20.22
   4   2  -1  739.88   20.42
  -4   2   1  755.05   20.55
  -4   2   1  774.30   19.23
   4   2  -1  743.58   18.64
  -4   2   1  723.23   20.68
  -4   2   1  764.46   20.74
   4   2  -1  745.62   20.56
   4   2  -1  744.54   20.87
  -4   2   1  707.65   20.50
   4   2  -1  739.23   21.14
  -3  -2   1   41.74    2.60
  -3  -2   1   38.68    3.15
  -3  -2   1   38.20    1.47
   3  -2  -1   40.33    2.60
   3  -2  -1   38.61    2.10
   3  -2  -1   43.84    2.67
  -3  -2   1   40.75    2.66
  -3  -2   1   40.05    2.57
  -3  -2   1   34.18    3.02
   3  -2  -1   33.30    2.92
   3  -2  -1   36.62    3.37
   3  -2  -1   34.25    2.66
   3  -2  -1   41.09    2.70
  -3  -2   1   36.96    2.35
  -3   2   1   41.91    2.03
   3   2  -1   36.04    2.60
  -3   2   1   34.31    3.04
  -3   2   1   35.87    3.18
   3   2  -1   40.68    2.68
  -3   2   1   36.29    2.66
   3   2  -1   36.30    2.78
  -3   2   1   34.93    3.18
   3   2  -1   39.24    2.88
   3   2  -1   36.05    3.02
   3   2  -1   38.08    1.57
   3   2  -1   41.78    2.39
  -3   2   1   38.20    2.69
  -3   2   1   38.83    3.16
  -3   2   1   38.34    2.96
   2  -2  -1  959.72   24.37
  -2  -2   1  881.85   23.72
   2  -2  -1  921.30   23.67
   2  -2  -1  935.81   24.20
  -2  -2   1 1000.00   24.27
  -2  -2   1  995.47   24.64
   2  -2  -1  911.83   24.14
   2  -2  -1  979.69   24.35
  -2  -2   1  932.03   24.04
  -2  -2   1  932.49   23.83
  -2  -2   1  962.00   24.13
  -2  -2   1  945.40   24.53
   2  -2  -1  962.80   24.51
   2  -2  -1  989.02   24.33
  -2  -2   1  918.61   23.74
   2   2  -1  935.46   23.73
   2   2  -1  956.24   24.63
  -2   2   1  948.17   24.32
  -2   2   1  933.66   24.48
   2   2  -1  955.30   24.13
   2   2  -1  948.69   23.98
   2   2  -1  965.80   23.23
  -2   2   1  919.43   24.32
  -2   2   1  957.84   24.34
  -2   2   1  947.93   24.30
  -2   2   1  983.78   24.26
   2   2  -1  933.03   24.14
   2   2  -1  931.69   24.07
  -1  -2   1    2.17    1.02
   1  -2  -1    1.92    0.68
   1  -2  -1    1.32    0.85
  -1  -2   1    1.94    0.59
   1  -2  -1    1.34    0.90
   1  -2  -1    1.66    1.02
   1  -2  -1    2.36    0.96
  -1  -2   1    1.37    0.88
  -1  -2   1    2.42    0.99
   1  -2  -1    1.68    0.90
   1  -2  -1    1.09    0.89
  -1  -2   1    1.73    0.72
  -1   2   1    0.70    0.84
   1   2  -1    1.13    0.51
   1   2  -1    1.70    0.64
   1   2  -1    1.56    0.95
  -1   2   1    1.38    0.91
  -1   2   1    1.00    0.84
  -1   2   1    1.93    0.70
   1   2  -1    1.45    0.52
  -1   2   1    2.14    1.00
   1   2  -1    0.50    0.62
   1   2  -1    1.79    0.44
   1   2  -1    1.68    0.65
  -1   2   1    0.96    0.89
  -1   2   1    1.93    0.93
   0  -2  -1  364.49    9.69
   0  -2   1  387.87    9.47
   0  -2  -1  382.91    9.68
   0  -2   1  366.93    9.71
   0  -2  -1  364.55    9.71
   0  -2  -1  360.80    9.67
   0  -2  -1  361.10    9.59
   0  -2  -1  363.21    9.60
   0  -2  -1  364.20    9.68
   0   2   1  357.91    9.68
   0   2   1  356.41    9.68
   0   2  -1  371.15    9.69
   0   2  -1  353.99    8.99
   0   2   1  358.30    9.63
   0   2   1  372.73    9.71
   0   2  -1  349.97    8.98
   0   2  -1  342.80    9.52
   0   2  -1  359.22    9.46
   0   2   1  373.42    9.70
   1  -2   1   11.67    1.37
   1  -2   1   11.47    1.18
  -1  -2  -1   14.57    1.52
  -1  -2  -1   10.91    1.37
   1  -2   1   12.18    1.00
   1  -2   1   13.14    1.30
  -1  -2  -1   12.72    1.55
   1  -2   1   12.98    0.96
  -1  -2  -1   13.71    1.63
  -1  -2  -1   11.69    1.45
  -1  -2  -1   13.73    1.75
  -1  -2  -1   11.94    1.07
   1  -2   1   11.13    1.53
  -1  -2  -1   11.72    1.50
  -1   2  -1   12.92    1.72
   1   2   1   12.67    1.47
  -1   2  -1   12.08    1.34
  -1   2  -1   13.75    1.76
  -1   2  -1   11.78    1.29
  -1   2  -1   11.05    1.24
  -1   2  -1   12.51    1.18
   1   2   1   12.79    1.43
   1   2   1    9.88    1.34
   1   2   1   10.09    1.38
   1   2   1   13.01    1.60
   1   2   1   13.53    1.79
   2  -2   1   74.50    3.09
  -2  -2  -1   74.96    4.06
   2  -2   1   83.66    3.62
   2  -2   1   75.69    3.34
  -2  -2  -1   79.19    4.11
  -2  -2  -1   78.10    2.44
   2  -2   1   82.79    3.40
  -2  -2  -1   86.58    3.66
  -2  -2  -1   80.33    3.67
   2  -2   1   79.15    3.57
   2  -2   1   76.73    2.28
   2  -2   1   79.88    3.12
  -2  -2  -1   82.47    3.69
  -2  -2  -1   76.67    3.64
  -2  -2  -1   76.04    2.96
   2   2   1   75.54    3.50
  -2   2  -1   79.09    3.35
   2   2   1   83.18    3.02
  -2   2  -1   71.50    3.43
  -2   2  -1   84.20    3.46
   2   2   1   81.10    3.51
  -2   2  -1   78.98    3.25
  -2   2  -1   75.93    3.74
  -2   2  -1   80.69    3.55
   2   2   1   72.53    4.16
  -3  -2  -1    0.86    1.35
   3  -2   1    0.65    1.10
   3  -2   1   -0.36    1.04
  -3  -2  -1    0.67    1.50
   3  -2   1   -0.47    1.00
  -3  -2  -1   -0.19    1.43
   3  -2   1    1.23    1.37
  -3  -2  -1    0.29    1.28
  -3  -2  -1    0.65    1.19
  -3  -2  -1    0.36    1.32
   3  -2   1   -0.21    1.11
  -3  -2  -1    1.13    0.72
   3  -2   1    3.13    1.30
  -3  -2  -1    0.50    1.28
   3   2   1    0.56    1.27
  -3   2  -1   -0.39    1.26
   3   2   1    0.94    0.77
  -3   2  -1   -2.22    1.12
  -3   2  -1    0.22    1.35
  -3   2  -1    0.32    1.29
   3   2   1   -0.90    1.36
   3   2   1   -0.45    1.34
   3   2   1    0.44    1.18
   3   2   1   -1.30    1.30
  -3   2  -1    0.18    1.18
   3   2   1    0.01    0.95
  -3   2  -1    1.18    1.36
   4  -2   1    1.61    1.70
  -4  -2  -1   -1.49    1.23
   4  -2   1    1.65    1.51
  -4  -2  -1    2.96    1.87
  -4  -2  -1    0.23    1.69
  -4  -2  -1   -1.69    1.29
   4  -2   1    2.03    1.50
  -4  -2  -1   -1.91    1.79
   4  -2   1    1.86    1.50
  -4  -2  -1   -0.69    1.56
  -4  -2  -1    1.01    1.78
   4  -2   1    4.08    1.84
   4  -2   1    2.95    1.99
   4   2   1    0.61    1.33
  -4   2  -1   -1.04    1.53
   4   2   1    1.74    0.98
   4   2   1    1.24    1.75
  -4   2  -1    2.61    1.76
   4   2   1    1.73    1.88
  -4   2  -1    3.61    1.71
   4   2   1    1.03    1.81
  -4   2  -1    2.00    1.74
  -4   2  -1    3.02    1.70
  -4   2  -1   -0.22    1.76
  -4   2  -1    1.41    1.48
   4   2   1    1.98    1.67
   4   2   1    2.49    1.77
  -5  -2  -1    2.09    2.14
  -5  -2  -1    0.74    1.67
  -5  -2  -1    1.15    2.34
  -5  -2  -1    3.26    2.18
   5  -2   1    0.14    2.46
  -5  -2  -1    3.27    2.75
   5  -2   1    1.54    2.08
   5  -2   1   -1.15    1.75
  -5  -2  -1   11.36    2.79
  -5  -2  -1    0.67    1.87
   5  -2   1    0.65    1.69
   5  -2   1    3.02    2.28
   5  -2   1    3.57    2.11
  -5   2  -1   -0.88    1.95
   5   2   1    0.71    1.15
  -5   2  -1    2.77    2.40
  -5   2  -1    2.85    1.70
  -5   2  -1    1.86    2.03
   5   2   1    3.93    2.24
  -5   2  -1    2.58    2.46
   5   2   1    4.01    2.44
   5   2   1    1.58    1.88
  -5   2  -1    2.14    2.13
   5   2   1   -0.86    1.90
   5   2   1    1.44    2.31
   5   2   1    2.13    2.40
  -5   2  -1    3.95    2.48
   6  -2   1   79.16    5.62
   6  -2   1   75.81    5.63
  -6  -2  -1   84.90    5.74
  -6  -2  -1   75.26    5.60
   6  -2   1   78.54    4.96
  -6  -2  -1   74.38    6.03
   6  -2   1   85.35    5.95
  -6  -2  -1   81.44    5.28
  -6  -2  -1   71.62    5.20
  -6   2  -1   82.34    6.66
  -6   2  -1   71.81    5.51
   6   2   1   71.96    5.76
   6   2   1   66.31    5.37
   6   2   1   83.44    6.00
   6   2   1   72.08    5.98
  -6   2  -1   70.67    5.97
  -6   2  -1   69.21    5.72
  -6   2  -1   74.00    5.07
   6   2   1   78.19    6.66
   6   2   1   84.35    3.44
  -7  -2  -1   -2.03    2.61
  -7  -2  -1    3.09    2.00
  -7  -2  -1    1.84    2.61
  -7  -2  -1   -0.13    3.12
   7  -2   1    1.40    2.29
   7  -2   1    0.08    2.71
   7  -2   1    6.26    3.36
  -7  -2  -1    2.77    2.97
   7  -2   1    0.46    3.29
  -7   2  -1    1.03    3.41
  -7   2  -1    1.62    3.28
   7   2   1    2.67    3.32
   7   2   1    1.90    3.64
   7   2   1    4.86    3.76
   7   2   1    1.95    1.63
  -7   2  -1    0.47    3.17
  -7   2  -1    2.06    2.61
  -8  -2  -1   78.27    5.66
  -8  -2  -1   73.04    7.51
   8  -2   1   85.41    8.98
  -8  -2  -1   80.32    9.50
  -8  -2  -1   76.97    7.89
   8  -2   1   68.87    9.15
   8  -2   1   76.15    6.14
  -8  -2  -1   71.72    6.68
  -8   2  -1   78.43    9.94
  -8   2  -1   79.71    8.75
  -8   2  -1   79.08    7.56
   8   2   1   92.40    8.53
   8   2   1   62.87   12.50
   8   2   1   90.02    8.51
  -8   2  -1   81.40    7.86
  -9  -2  -1   15.77    6.13
   9  -2   1    2.77    3.38
  -9  -2  -1    1.93    5.10
  -9  -2  -1   -0.15    3.03
   9  -2   1    6.72    6.24
  -9  -2  -1   10.14    3.68
   9  -2   1   -0.65    4.80
   9   2   1   -1.32    6.23
  -9   2  -1    1.79    4.97
  -9   2  -1   14.12    5.75
   9   2   1    7.63    5.91
  -9   2  -1    3.34    5.52
  -9   2  -1   -5.93    4.97
   9   2   1   -3.08    5.29
   9  -3  -1   -4.95    3.37
   9  -3  -1    5.97    3.78
   9  -3  -1   10.49    5.76
  -9  -3   1    1.97    6.07
   9  -3  -1   -0.79    4.93
  -9  -3   1   14.12    5.77
  -9  -3   1    4.29    3.40
  -9  -3   1    5.13    4.50
   9   3  -1   -5.24    5.08
  -9   3   1   13.20    5.63
  -9   3   1    7.98    5.58
  -9   3   1    6.44    4.95
   9   3  -1    2.72    4.99
   9   3  -1    4.82    5.09
   8  -3  -1   27.11    3.93
  -8  -3   1   28.90    4.50
   8  -3  -1   34.65    5.91
  -8  -3   1   33.69    5.05
  -8  -3   1   26.82    4.68
   8  -3  -1   25.54    3.39
  -8  -3   1   30.62    5.11
  -8   3   1   27.69    7.68
   8   3  -1   22.38    8.91
  -8   3   1   29.80    6.00
  -8   3   1   23.43    4.38
  -8   3   1   20.84    5.45
   8   3  -1   34.63    6.36
  -7  -3   1   40.53    4.78
  -7  -3   1   36.79    4.84
   7  -3  -1   44.49    3.90
  -7  -3   1   42.24    4.69
   7  -3  -1   55.04    5.86
  -7  -3   1   33.39    4.66
  -7  -3   1   45.72    4.65
  -7  -3   1   46.24    6.11
   7  -3  -1   42.07    5.65
  -7   3   1   48.51    6.21
  -7   3   1   44.89    4.87
   7   3  -1   47.25    5.82
  -7   3   1   50.19    5.98
   7   3  -1   46.68    6.04
  -7   3   1   50.35    5.80
   7   3  -1   42.88    5.34
   7   3  -1   45.39    5.92
  -7   3   1   47.12    3.87
   7   3  -1   70.60   11.03
  -6  -3   1   52.59    4.23
  -6  -3   1   59.80    2.66
  -6  -3   1   50.63    4.41
   6  -3  -1   64.06    4.96
  -6  -3   1   60.07    5.29
  -6  -3   1   55.10    4.90
   6  -3  -1   51.77    5.12
  -6  -3   1   46.38    4.63
   6  -3  -1   62.04    3.78
  -6  -3   1   64.37    4.60
   6  -3  -1   55.87    4.53
   6  -3  -1   57.54    5.68
  -6   3   1   61.59    5.02
   6   3  -1   57.08    5.24
   6   3  -1   63.12    5.85
   6   3  -1   64.02    5.55
   6   3  -1   54.77    4.69
  -6   3   1   58.21    4.59
  -6   3   1   65.57    6.30
   6   3  -1   66.53    5.31
  -6   3   1   53.75    3.44
  -6   3   1   55.06    5.23
  -6   3   1   57.67    5.49
  -5  -3   1  215.79    8.26
  -5  -3   1  211.02    7.77
   5  -3  -1  209.15    8.13
  -5  -3   1  209.08    8.78
  -5  -3   1  184.24    8.26
  -5  -3   1  226.28    8.09
  -5  -3   1  213.91    8.16
   5  -3  -1  208.12    8.48
   5  -3  -1  203.20    8.12
   5  -3  -1  218.95    8.36
  -5  -3   1  198.88    7.50
   5  -3  -1  223.40    8.94
  -5  -3   1  209.46    8.36
   5  -3  -1  206.19    8.38
   5  -3  -1  212.68    6.96
  -5  -3   1  209.06    5.95
  -5   3   1  207.22    8.79
   5   3  -1  221.07    7.68
  -5   3   1  204.54    8.30
  -5   3   1  210.17    8.48
   5   3  -1  210.18    8.96
   5   3  -1  206.06    8.51
   5   3  -1  219.01    8.28
  -5   3   1  218.30    6.58
  -5   3   1  205.95    8.71
  -5   3   1  188.05    8.03
   5   3  -1  206.54    8.37
  -5   3   1  205.65    8.03
   5   3  -1  193.76    8.33
  -5   3   1  217.84    8.65
   4  -3  -1    6.57    1.77
   4  -3  -1    8.36    2.07
  -4  -3   1    4.94    1.96
   4  -3  -1    3.39    1.71
   4  -3  -1    3.86    1.81
  -4  -3   1    9.12    1.91
  -4  -3   1    5.20    1.91
  -4  -3   1    4.44    0.63
  -4  -3   1    5.22    2.39
  -4  -3   1    4.14    1.99
  -4  -3   1    3.65    1.38
  -4  -3   1    5.15    1.59
  -4  -3   1    4.32    0.66
   4  -3  -1    2.46    0.93
   4  -3  -1    3.95    1.71
  -4   3   1    5.18    1.82
  -4   3   1    6.00    1.26
  -4   3   1    6.25    1.93
   4   3  -1    1.96    1.79
   4   3  -1    5.04    1.88
  -4   3   1    5.28    1.96
  -4   3   1    7.73    2.02
   4   3  -1    4.15    1.31
  -4   3   1    5.23    1.71
   4   3  -1    5.96    1.91
   4   3  -1    4.25    1.75
  -4   3   1    3.93    1.77
  -4   3   1    3.97    1.94
   4   3  -1    4.00    1.65
   3  -3  -1  246.85    7.83
  -3  -3   1  241.13    8.22
  -3  -3   1  242.39    7.66
   3  -3  -1  237.68    6.83
  -3  -3   1  236.68    7.29
  -3  -3   1  234.17    7.64
   3  -3  -1  251.94    7.94
   3  -3  -1  234.03    7.99
  -3  -3   1  237.51    7.01
  -3  -3   1  246.06    7.35
  -3  -3   1  245.46    8.19
   3  -3  -1  237.69    7.69
   3  -3  -1  241.79    7.88
  -3  -3   1  245.15    7.88
   3  -3  -1  225.09    8.79
   3  -3  -1  236.44    8.05
   3   3  -1  229.24    8.25
  -3   3   1  248.20    8.11
   3   3  -1  236.71    7.70
   3   3  -1  221.21    8.08
  -3   3   1  238.48    7.94
  -3   3   1  229.63    7.82
  -3   3   1  233.21    7.92
  -3   3   1  235.84    8.19
   3   3  -1  241.55    7.82
   3   3  -1  239.84    7.01
  -3   3   1  242.76    7.79
  -3   3   1  242.02    7.88
  -3   3   1  224.98    6.52
   3   3  -1  234.21    7.73
  -2  -3   1    7.90    1.74
  -2  -3   1    8.19    1.22
   2  -3  -1   10.50    1.18
  -2  -3   1    7.28    1.61
  -2  -3   1    7.61    1.14
   2  -3  -1    5.97    1.24
  -2  -3   1    8.17    1.60
   2  -3  -1    6.97    1.29
   2  -3  -1    9.73    1.34
   2  -3  -1    7.70    1.42
   2  -3  -1    8.45    1.51
  -2  -3   1    9.09    1.14
   2  -3  -1    8.87    1.58
  -2  -3   1    9.20    0.62
  -2  -3   1    8.59    1.14
   2  -3  -1    8.31    1.71
  -2   3   1    9.57    1.45
  -2   3   1    6.72    1.46
  -2   3   1    6.92    1.30
   2   3  -1    7.72    1.61
   2   3  -1    7.83    1.16
  -2   3   1    8.98    1.12
  -2   3   1    9.59    1.67
   2   3  -1    9.45    0.93
   2   3  -1    8.90    1.32
   2   3  -1    8.47    1.05
   2   3  -1    6.25    1.21
  -2   3   1    7.34    1.37
   2   3  -1    9.49    1.29
   1  -3  -1  224.79    6.73
   1  -3  -1  227.62    6.93
   1  -3  -1  233.24    6.77
  -1  -3   1  231.53    6.19
   1  -3  -1  224.18    6.64
  -1  -3   1  232.43    6.80
  -1  -3   1  231.58    6.38
   1  -3  -1  220.35    6.58
  -1  -3   1  234.68    6.89
   1  -3  -1  226.52    6.43
  -1  -3   1  229.01    6.10
   1  -3  -1  222.62    6.71
   1   3  -1  225.90    6.27
  -1   3   1  230.50    6.41
  -1   3   1  237.68    6.82
   1   3  -1  221.80    6.09
  -1   3   1  226.16    6.76
   1   3  -1  224.89    6.24
   1   3  -1  225.06    6.05
  -1   3   1  220.19    6.94
  -1   3   1  231.94    6.82
   1   3  -1  224.94    6.16
   1   3  -1  223.15    6.34
   1   3  -1  222.62    6.95
  -1   3   1  230.04    6.69
  -1   3   1  223.41    6.70
   0  -3  -1   15.53    1.69
   0  -3   1   15.99    1.72
   0  -3   1   15.74    0.88
   0  -3   1   15.92    0.87
   0  -3  -1   14.54    1.69
   0  -3  -1   16.94    1.76
   0  -3   1   13.32    1.45
   0  -3  -1   16.62    1.24
   0  -3  -1   15.82    1.53
   0  -3  -1   16.22    1.73
   0  -3   1   12.95    1.45
   0  -3  -1   17.45    1.63
   0  -3  -1   17.21    1.57
   0   3   1   15.12    1.57
   0   3  -1   15.19    1.63
   0   3  -1   14.72    1.86
   0   3  -1   15.57    1.02
   0   3  -1   15.51    0.79
   0   3   1   16.99    1.66
   0   3  -1   15.29    1.01
   0   3   1   15.94    1.66
   0   3   1   17.45    1.75
   0   3  -1   15.58    0.80
   0   3  -1   15.56    1.38
   0   3   1   18.96    1.82
  -1  -3  -1   65.35    2.96
  -1  -3  -1   61.67    2.75
   1  -3   1   58.35    3.04
   1  -3   1   62.96    2.84
  -1  -3  -1   60.69    2.64
   1  -3   1   66.51    2.44
  -1  -3  -1   63.48    2.90
  -1  -3  -1   58.10    2.73
  -1   3  -1   63.15    2.99
  -1   3  -1   59.80    2.28
  -1   3  -1   61.18    2.47
   1   3   1   60.16    2.65
   1   3   1   64.19    2.86
   1   3   1   65.72    3.05
   1   3   1   56.48    3.50
  -1   3  -1   54.67    2.99
  -1   3  -1   62.44    1.80
  -1   3  -1   64.25    2.47
   1   3   1   55.76    2.79
  -1   3  -1   64.14    2.42
   1   3   1   59.32    2.86
  -2  -3  -1   94.97    3.54
  -2  -3  -1   99.93    4.35
  -2  -3  -1   96.73    3.98
   2  -3   1   98.86    4.22
   2  -3   1   98.87    3.78
   2  -3   1   98.32    3.45
  -2  -3  -1   92.24    3.23
  -2  -3  -1   93.44    4.52
  -2  -3  -1  106.07    4.10
   2  -3   1   93.83    4.22
  -2  -3  -1   97.01    4.21
   2  -3   1   98.60    3.50
  -2  -3  -1   96.89    4.37
   2  -3   1  100.08    3.85
  -2  -3  -1   97.18    2.90
  -2   3  -1   94.32    4.32
  -2   3  -1   99.52    4.40
   2   3   1   97.97    4.11
  -2   3  -1   98.19    3.73
   2   3   1  100.20    4.07
   2   3   1   99.70    4.25
  -2   3  -1   99.06    3.87
  -2   3  -1   96.69    3.82
  -3  -3  -1   32.29    3.17
   3  -3   1   31.70    2.68
   3  -3   1   37.75    3.11
   3  -3   1   31.58    2.79
   3  -3   1   35.46    2.75
   3  -3   1   32.99    2.40
  -3  -3  -1   34.34    2.22
   3  -3   1   34.53    1.28
  -3  -3  -1   33.45    3.04
   3  -3   1   32.50    2.62
   3  -3   1   34.53    1.28
  -3  -3  -1   37.19    2.95
  -3  -3  -1   35.55    3.04
  -3  -3  -1   31.99    2.89
  -3  -3  -1   35.90    2.95
   3   3   1   33.41    2.20
   3   3   1   31.00    3.21
  -3   3  -1   30.35    2.98
   3   3   1   36.27    2.94
  -3   3  -1   29.96    2.99
  -3   3  -1   28.48    3.03
   3   3   1   31.85    2.98
  -3   3  -1   31.29    2.74
   3   3   1   34.53    2.83
   3   3   1   32.40    3.08
  -3   3  -1   37.66    3.05
  -3   3  -1   36.52    2.71
  -3   3  -1   31.21    2.68
  -4  -3  -1  141.89    6.33
  -4  -3  -1  130.90    6.09
   4  -3   1  143.46    6.12
   4  -3   1  134.51    4.21
  -4  -3  -1  134.18    6.12
   4  -3   1  141.85    6.05
  -4  -3  -1  136.72    6.42
  -4  -3  -1  131.58    5.88
   4  -3   1  140.11    5.66
   4  -3   1  141.22    6.31
   4  -3   1  135.49    5.95
  -4  -3  -1  137.34    6.06
   4  -3   1  142.65    5.68
  -4   3  -1  133.24    6.41
  -4   3  -1  126.60    5.92
   4   3   1  134.65    6.31
  -4   3  -1  131.23    5.97
   4   3   1  134.49    6.05
  -4   3  -1  132.38    5.91
   4   3   1  129.26    5.77
   4   3   1  139.73    6.29
   4   3   1  126.71    6.32
  -4   3  -1  137.97    6.09
   4   3   1  127.18    6.07
  -4   3  -1  131.26    6.60
  -4   3  -1  138.79    6.17
  -5  -3  -1    2.19    2.76
   5  -3   1    1.69    1.12
  -5  -3  -1    1.71    1.97
   5  -3   1    2.25    2.46
   5  -3   1   -0.05    1.95
  -5  -3  -1    3.87    2.47
  -5  -3  -1    0.92    2.72
   5  -3   1    1.26    2.58
  -5  -3  -1    0.37    2.01
   5  -3   1    4.65    2.17
   5  -3   1   -0.05    2.00
  -5  -3  -1   -2.47    1.95
  -5  -3  -1    2.26    1.51
   5  -3   1    3.31    1.98
   5   3   1    1.69    2.03
   5   3   1    1.89    2.23
   5   3   1   -2.39    2.43
  -5   3  -1    2.52    2.17
  -5   3  -1    1.22    2.11
  -5   3  -1   -0.06    2.15
  -5   3  -1    1.92    1.95
  -5   3  -1   -1.72    2.38
   5   3   1    6.26    1.92
   5   3   1   -2.91    2.46
   5   3   1   -1.01    2.16
  -5   3  -1   -1.21    2.53
  -5   3  -1    3.52    2.76
  -6  -3  -1   74.01    5.69
  -6  -3  -1   81.18    5.68
   6  -3   1   86.78    6.27
  -6  -3  -1   79.04    5.09
  -6  -3  -1   72.13    6.65
   6  -3   1   84.44    5.92
   6  -3   1   83.69    4.10
  -6  -3  -1   74.65    5.82
   6  -3   1   88.21    5.61
   6   3   1   71.28    5.52
  -6   3  -1   74.65    5.66
   6   3   1   74.29    6.37
  -6   3  -1   81.64    6.16
  -6   3  -1   73.78    5.97
  -6   3  -1   80.75    5.57
   6   3   1   87.16    5.58
   6   3   1   73.28    6.06
   6   3   1   67.33    6.81
  -6   3  -1   76.29    7.06
   7  -3   1   22.94    4.19
  -7  -3  -1   24.99    4.09
  -7  -3  -1   19.12    4.23
   7  -3   1   31.53    4.71
  -7  -3  -1   31.10    3.60
  -7  -3  -1   22.99    3.74
   7  -3   1   25.99    3.82
   7  -3   1   31.59    4.01
  -7   3  -1   29.51    4.99
   7   3   1   30.85    5.42
   7   3   1   29.49    5.13
   7   3   1   27.02    5.70
  -7   3  -1   32.41    4.38
  -7   3  -1   26.32    5.31
  -7   3  -1   35.67    5.76
  -8  -3  -1   31.03    4.68
  -8  -3  -1   36.85    6.51
   8  -3   1   26.64    3.17
   8  -3   1   23.46    7.17
  -8  -3  -1   28.14    3.34
   8  -3   1   26.24    4.09
  -8  -3  -1   26.64    4.70
  -8  -3  -1   36.06    5.13
   8  -3   1   23.70    5.61
   8   3   1   23.29    5.41
  -8   3  -1   22.98    5.56
  -8   3  -1   28.96    5.22
   8   3   1   34.25    6.09
  -8   3  -1   27.62    5.32
  -8   3  -1   37.10    6.19
   8   3   1   33.22    5.97
   9  -3   1   72.10    8.80
  -9  -3  -1   55.10    6.96
   9  -3   1   71.07    8.96
  -9  -3  -1   52.47    7.03
  -9  -3  -1   70.89    7.19
  -9  -3  -1   62.95    8.15
   9  -3   1   58.89    6.40
   9   3   1   58.92    8.47
  -9   3  -1   56.22    8.29
  -9   3  -1   79.78   10.63
  -9   3  -1   62.51    7.84
   9   3   1   66.10    8.13
  -9   3  -1   62.59    7.26
   9   3   1   58.35    8.03
  -9  -4   1  121.52   12.35
  -9  -4   1  114.72    8.88
   9  -4  -1  119.03   11.92
   9  -4  -1  111.68    8.42
  -9  -4   1  112.09    9.13
   9  -4  -1  120.66    9.43
  -9   4   1  121.84   10.34
   9   4  -1  117.48   10.69
   9   4  -1  124.87   11.03
   9   4  -1  122.72   11.94
  -9   4   1  124.95   11.12
  -9   4   1  107.47    9.54
  -9   4   1  116.04   11.71
  -8  -4   1    2.66    3.98
   8  -4  -1   -3.66    2.83
  -8  -4   1   -1.54    3.79
   8  -4  -1    0.73    2.33
  -8  -4   1   -0.80    2.91
   8  -4  -1    2.89    5.49
   8  -4  -1   -1.50    4.47
  -8  -4   1   -4.38    2.84
  -8   4   1    1.42    4.48
  -8   4   1   -1.37    3.66
   8   4  -1    1.31    4.06
   8   4  -1    3.15    3.87
  -8   4   1   11.11    4.72
  -8   4   1   -4.12    4.40
   8   4  -1   -0.01    4.39
  -7  -4   1  168.27    9.37
  -7  -4   1  161.11    8.59
   7  -4  -1  172.17    6.49
   7  -4  -1  159.67    9.27
  -7  -4   1  166.85    8.06
  -7  -4   1  164.10    7.80
   7  -4  -1  169.76    8.69
  -7  -4   1  156.08    7.40
   7  -4  -1  161.23    8.21
  -7   4   1  159.39    9.13
   7   4  -1  166.50   12.01
  -7   4   1  163.89    9.98
   7   4  -1  151.81    9.22
  -7   4   1  155.36    9.52
   7   4  -1  161.62   10.39
   7   4  -1  168.46    8.28
   7   4  -1  164.42    9.10
  -7   4   1  151.49    8.31
  -6  -4   1   13.87    2.71
  -6  -4   1    7.48    2.99
  -6  -4   1    8.44    2.88
   6  -4  -1    7.60    3.51
  -6  -4   1    9.49    2.93
  -6  -4   1   10.19    2.22
  -6  -4   1   12.13    1.12
   6  -4  -1   14.92    3.22
   6  -4  -1   12.92    2.93
  -6  -4   1    9.51    2.75
   6  -4  -1   10.97    3.20
   6   4  -1   14.51    3.07
   6   4  -1    7.66    3.07
  -6   4   1   11.56    3.14
  -6   4   1    8.09    1.97
   6   4  -1   15.21    2.75
   6   4  -1   15.40    4.05
  -6   4   1    8.24    2.97
   6   4  -1   14.14    2.93
  -6   4   1   15.09    3.06
  -6   4   1   15.61    3.20
  -6   4   1   14.49    3.75
   5  -4  -1  165.04    7.50
  -5  -4   1  170.81    7.58
   5  -4  -1  175.89    7.63
   5  -4  -1  174.73    7.41
  -5  -4   1  162.79    7.66
   5  -4  -1  166.14    7.90
  -5  -4   1  169.14    7.33
  -5  -4   1  167.03    6.65
  -5  -4   1  169.11    6.88
  -5  -4   1  167.26    6.37
   5  -4  -1  169.61    7.55
   5  -4  -1  166.51    7.14
  -5  -4   1  165.97    8.08
   5   4  -1  163.64    7.94
  -5   4   1  164.28    7.51
  -5   4   1  168.62    5.36
  -5   4   1  169.39    7.84
   5   4  -1  165.82    7.47
   5   4  -1  167.49    7.35
   5   4  -1  177.18    7.88
  -5   4   1  165.18    7.86
  -5   4   1  165.74    7.58
  -5   4   1  178.83    7.95
  -5   4   1  164.48    7.37
  -5   4   1  176.87    7.62
   5   4  -1  178.65    6.38
   5   4  -1  182.37    7.64
  -4  -4   1   12.27    2.54
  -4  -4   1   12.00    2.48
   4  -4  -1    9.58    1.21
  -4  -4   1   11.38    1.69
   4  -4  -1    9.64    2.01
  -4  -4   1   11.78    2.72
  -4  -4   1   11.07    1.78
   4  -4  -1   11.44    2.30
   4  -4  -1   10.29    2.32
   4  -4  -1   11.01    2.40
  -4  -4   1   12.68    2.06
  -4  -4   1   11.12    2.21
   4  -4  -1    6.08    1.82
   4   4  -1   15.48    1.78
  -4   4   1   13.57    2.29
  -4   4   1   14.12    2.61
   4   4  -1   11.86    2.25
  -4   4   1   12.11    2.30
  -4   4   1   12.21    2.42
   4   4  -1    9.06    2.12
   4   4  -1   12.48    2.09
  -4   4   1   12.38    1.33
   4   4  -1    8.97    2.40
  -4   4   1    9.51    2.28
  -4   4   1    6.67    2.14
   4   4  -1    9.94    2.06
  -4   4   1   11.17    2.26
   3  -4  -1   22.11    2.56
  -3  -4   1   11.92    2.28
   3  -4  -1   15.98    2.10
  -3  -4   1   18.35    2.45
  -3  -4   1   13.45    1.72
  -3  -4   1   16.53    0.74
   3  -4  -1   15.24    1.38
   3  -4  -1   12.28    2.13
  -3  -4   1   16.85    1.92
   3  -4  -1   16.99    2.44
  -3  -4   1   14.08    2.19
  -3  -4   1   18.95    1.80
   3  -4  -1   16.36    2.67
  -3  -4   1   21.47    2.22
   3  -4  -1   15.20    1.95
  -3   4   1   18.04    1.51
  -3   4   1   15.31    2.07
  -3   4   1   19.73    2.46
  -3   4   1   18.58    2.53
   3   4  -1   19.03    2.17
  -3   4   1   15.66    2.25
   3   4  -1   20.81    2.41
  -3   4   1   19.56    2.54
   3   4  -1   19.15    2.28
   3   4  -1   19.28    1.48
   3   4  -1   16.57    2.12
  -3   4   1   16.71    2.23
   3   4  -1   17.00    2.46
   2  -4  -1   28.78    1.69
  -2  -4   1   28.32    2.54
   2  -4  -1   28.47    2.29
  -2  -4   1   26.94    1.39
  -2  -4   1   30.62    1.96
  -2  -4   1   28.46    1.68
   2  -4  -1   32.94    2.25
  -2  -4   1   30.63    2.69
   2  -4  -1   28.62    2.49
  -2  -4   1   28.82    1.95
   2  -4  -1   26.33    2.58
   2  -4  -1   31.13    2.33
  -2  -4   1   26.57    1.36
  -2  -4   1   29.97    1.42
   2  -4  -1   28.12    2.20
   2  -4  -1   27.85    2.80
  -2   4   1   30.49    1.67
   2   4  -1   30.50    1.71
   2   4  -1   29.60    1.29
  -2   4   1   29.90    2.37
   2   4  -1   25.85    1.37
  -2   4   1   30.11    2.43
   2   4  -1   25.50    1.95
   2   4  -1   26.04    2.44
  -2   4   1   28.60    2.77
  -2   4   1   29.43    2.49
   2   4  -1   33.43    2.04
  -2   4   1   28.75    2.51
   2   4  -1   29.97    2.82
  -2   4   1   28.43    2.53
   2   4  -1   28.82    2.06
   1  -4  -1  187.80    5.82
   1  -4  -1  186.69    6.50
  -1  -4   1  196.77    6.38
   1  -4  -1  197.90    6.47
   1  -4  -1  198.59    6.07
   1  -4  -1  183.70    6.06
   1  -4  -1  192.49    5.95
  -1  -4   1  196.52    5.71
   1  -4  -1  198.27    6.14
  -1  -4   1  193.16    5.85
  -1  -4   1  197.17    6.27
  -1  -4   1  192.99    5.41
   1   4  -1  187.75    5.43
   1   4  -1  194.82    5.13
   1   4  -1  200.66    5.53
  -1   4   1  200.84    6.11
  -1   4   1  198.16    6.85
  -1   4   1  199.46    6.21
  -1   4   1  190.81    6.14
   1   4  -1  182.28    6.44
   1   4  -1  186.85    5.64
  -1   4   1  193.04    5.80
   1   4  -1  195.72    5.64
   1   4  -1  193.09    5.93
  -1   4   1  186.48    6.43
  -1   4   1  188.91    6.02
   0  -4   1    7.78    1.48
   0  -4  -1    8.13    1.23
   0  -4  -1    7.06    0.86
   0  -4   1    8.86    1.30
   0  -4   1    8.33    0.87
   0  -4  -1    7.65    1.44
   0  -4  -1    7.39    1.54
   0  -4  -1    9.45    1.37
   0  -4  -1    7.80    1.25
   0  -4   1    7.45    0.88
   0  -4  -1    6.23    1.06
   0  -4   1    9.19    1.52
   0  -4  -1    6.12    1.07
   0   4   1    8.13    1.30
   0   4  -1    8.30    1.00
   0   4   1    7.81    1.28
   0   4  -1    6.60    0.98
   0   4  -1    6.36    0.82
   0   4   1    8.15    1.26
   0   4  -1    7.59    0.91
   0   4  -1    8.40    0.93
   0   4  -1    6.31    1.18
   0   4   1    6.56    1.27
  -1  -4  -1  650.06   16.66
  -1  -4  -1  639.05   16.63
  -1  -4  -1  654.39   17.21
   1  -4   1  655.64   16.81
  -1  -4  -1  626.04   16.85
   1  -4   1  620.98   17.20
  -1  -4  -1  594.52   17.34
  -1  -4  -1  620.20   15.60
   1   4   1  626.59   16.62
  -1   4  -1  647.52   16.20
   1   4   1  643.91   17.17
  -1   4  -1  622.80   16.37
   1   4   1  589.55   17.36
   1   4   1  654.39   16.96
  -1   4  -1  622.70   16.25
  -1   4  -1  643.11   16.92
  -1   4  -1  639.95   15.82
  -1   4  -1  602.47   17.16
  -1   4  -1  639.60   16.37
   1   4   1  674.30   16.89
   2  -4   1    1.80    0.82
  -2  -4  -1    3.95    1.10
   2  -4   1    1.93    1.42
   2  -4   1    2.15    1.00
   2  -4   1    1.70    1.08
  -2  -4  -1    3.19    1.19
  -2  -4  -1    2.96    0.59
  -2  -4  -1    2.89    0.86
   2  -4   1    4.20    0.81
   2  -4   1    4.18    1.64
  -2  -4  -1    3.94    1.42
  -2  -4  -1    5.91    1.79
  -2  -4  -1    3.75    1.32
   2   4   1    5.15    1.51
  -2   4  -1    1.78    1.04
  -2   4  -1    3.26    1.02
  -2   4  -1    1.03    1.04
   2   4   1    2.11    1.49
   2   4   1    2.43    1.18
  -2   4  -1    5.21    1.48
  -2   4  -1    5.24    1.23
  -2   4  -1    1.80    1.45
   2   4   1    7.61    1.53
   2   4   1    3.31    1.44
  -3  -4  -1  320.32    9.02
   3  -4   1  311.59    9.65
  -3  -4  -1  314.75   10.08
  -3  -4  -1  303.61    8.72
   3  -4   1  297.02    9.88
   3  -4   1  315.21    9.72
  -3  -4  -1  309.67   10.56
  -3  -4  -1  309.43   10.14
  -3  -4  -1  310.33   10.18
   3  -4   1  310.36   10.26
   3  -4   1  312.89   10.17
   3  -4   1  318.01    9.22
  -3  -4  -1  308.46    9.87
  -3  -4  -1  304.06    9.73
   3   4   1  323.11    9.99
   3   4   1  300.35   10.06
  -3   4  -1  321.43   10.26
  -3   4  -1  301.06    9.77
   3   4   1  328.85   10.24
  -3   4  -1  321.88    9.70
   3   4   1  300.10   10.46
  -3   4  -1  305.97   10.19
  -3   4  -1  308.64    9.76
  -3   4  -1  309.36   10.36
  -3   4  -1  333.81    9.90
   3   4   1  298.97   10.17
  -4  -4  -1    1.44    1.82
  -4  -4  -1    2.28    1.21
  -4  -4  -1   -0.77    2.04
  -4  -4  -1   -0.21    1.80
   4  -4   1    0.21    1.60
  -4  -4  -1    0.21    2.36
   4  -4   1   -1.32    1.53
   4  -4   1    1.47    1.85
   4  -4   1    0.36    2.00
  -4  -4  -1    2.37    1.72
   4  -4   1    0.83    1.29
  -4  -4  -1   -0.30    1.76
   4  -4   1    2.44    1.86
  -4  -4  -1   -0.19    1.18
   4   4   1   -2.11    1.88
   4   4   1    0.19    1.77
   4   4   1    0.10    2.01
  -4   4  -1    0.95    1.59
  -4   4  -1   -2.72    1.92
   4   4   1   -0.97    1.74
   4   4   1   -1.14    2.01
  -4   4  -1   -0.52    1.53
  -4   4  -1    1.69    1.85
  -4   4  -1    0.76    1.92
  -4   4  -1    1.28    1.73
   5  -4   1  253.89    8.93
   5  -4   1  245.95    9.41
   5  -4   1  242.58    8.69
   5  -4   1  231.12   10.04
   5  -4   1  231.52    9.44
   5  -4   1  230.93    9.36
  -5  -4  -1  227.71   10.07
  -5  -4  -1  241.43    9.13
   5  -4   1  239.37    6.51
  -5  -4  -1  238.35    8.26
  -5  -4  -1  247.01    9.59
  -5  -4  -1  244.26    9.51
  -5  -4  -1  236.04    8.14
  -5  -4  -1  226.76    9.94
  -5  -4  -1  243.16    9.62
   5  -4   1  249.36    6.53
  -5   4  -1  239.51    9.55
  -5   4  -1  230.78    9.33
  -5   4  -1  228.20    9.60
   5   4   1  233.36    9.66
   5   4   1  241.22    9.78
  -5   4  -1  239.66   10.01
  -5   4  -1  243.93    9.64
  -5   4  -1  257.07    9.70
   5   4   1  236.64    9.63
  -5   4  -1  237.43    9.49
   5   4   1  234.16   10.09
   5   4   1  239.98    9.79
   5   4   1  245.64    8.34
  -6  -4  -1    3.53    1.96
   6  -4   1    0.75    2.20
   6  -4   1    1.99    2.71
   6  -4   1    1.54    3.25
  -6  -4  -1    0.01    2.31
  -6  -4  -1    4.27    2.81
  -6  -4  -1    1.13    3.68
   6  -4   1   -1.04    0.93
  -6  -4  -1   -2.09    2.44
   6  -4   1    0.48    1.13
  -6  -4  -1   -2.19    1.74
  -6   4  -1    3.48    2.60
   6   4   1    0.50    2.56
  -6   4  -1    0.78    2.68
  -6   4  -1   -0.83    2.79
  -6   4  -1    1.41    2.60
   6   4   1    1.92    2.56
   6   4   1   -1.43    2.91
   6   4   1    4.91    2.92
  -6   4  -1   -0.48    4.05
   6   4   1   -1.80    3.95
  -7  -4  -1   70.09    5.45
  -7  -4  -1   53.33    5.93
   7  -4   1   61.06    3.67
   7  -4   1   61.62    5.40
  -7  -4  -1   64.28    5.03
   7  -4   1   70.86    6.13
  -7  -4  -1   55.86    4.07
  -7  -4  -1   59.31    6.74
   7  -4   1   79.37    7.03
  -7   4  -1   57.50    7.28
   7   4   1   60.39    6.93
  -7   4  -1   72.59    8.14
  -7   4  -1   55.54    6.52
   7   4   1   59.45    6.79
   7   4   1   58.63    7.59
  -7   4  -1   63.67    6.93
  -8  -4  -1   10.17    2.57
   8  -4   1    8.13    5.71
   8  -4   1    4.09    3.41
  -8  -4  -1    1.69    5.51
  -8  -4  -1   11.70    4.16
  -8  -4  -1    8.46    3.62
  -8  -4  -1    5.02    4.04
   8  -4   1   -4.64    4.81
   8   4   1    4.77    4.50
  -8   4  -1    7.16    5.02
  -8   4  -1    8.39    4.94
   8   4   1    4.19    4.78
  -8   4  -1   10.85    5.77
  -8   4  -1    8.56    4.69
   8   4   1    2.96    4.73
   9  -4   1    3.25    5.18
  -9  -4  -1   18.09    6.85
  -9  -4  -1    7.75    5.67
   9  -4   1   15.59    4.83
  -9  -4  -1   11.53    4.27
   9  -4   1   13.54    7.72
   9   4   1    8.06    6.41
   9   4   1    2.20    5.81
  -9   4  -1    7.81    5.81
   9   4   1   11.85    6.66
  -9   4  -1    6.86    6.00
  -9   4  -1    7.07    6.24
  -9   4  -1   23.47    6.02
   9  -5  -1   -2.88    4.02
  -9  -5   1    1.55    4.89
   9  -5  -1    7.37    6.57
  -9  -5   1    2.69    3.48
   9  -5  -1   -1.88    5.24
  -9  -5   1   -7.51    7.43
   9   5  -1    6.79    6.60
  -9   5   1    9.14    6.84
  -9   5   1   14.64    6.56
   9   5  -1    1.95    5.74
   9   5  -1    9.75    6.08
  -9   5   1    2.96    5.21
  -9   5   1    5.39    6.24
  -8  -5   1  101.35    8.51
  -8  -5   1   95.12    8.09
   8  -5  -1   93.71    7.18
  -8  -5   1   89.86    7.17
   8  -5  -1   92.04    8.19
   8  -5  -1   97.25    9.39
  -8   5   1   85.17    9.13
   8   5  -1   97.49    9.36
  -8   5   1   95.00    9.89
  -8   5   1   69.19   12.22
   8   5  -1   92.80    8.71
   8   5  -1   87.52    8.26
  -8   5   1   85.44    8.66
  -7  -5   1   17.44    4.61
  -7  -5   1   11.73    4.06
   7  -5  -1   16.66    2.53
   7  -5  -1   23.12    4.34
   7  -5  -1   16.90    4.10
  -7  -5   1   15.48    3.33
   7  -5  -1   16.73    3.69
  -7  -5   1   20.95    3.33
  -7  -5   1   14.76    3.84
   7   5  -1   30.30    7.00
   7   5  -1   15.69    4.59
  -7   5   1   14.61    4.58
  -7   5   1   19.52    4.95
   7   5  -1   18.86    5.27
  -7   5   1   16.48    4.80
   7   5  -1   21.12    4.81
   7   5  -1   18.18    3.64
  -7   5   1   17.82    4.34
  -6  -5   1   71.72    5.72
   6  -5  -1   50.22    6.21
  -6  -5   1   73.73    4.82
   6  -5  -1   70.36    5.24
   6  -5  -1   68.33    5.17
  -6  -5   1   73.46    5.26
  -6  -5   1   84.09    5.61
   6  -5  -1   84.23    6.00
  -6  -5   1   67.50    5.32
  -6   5   1   77.38    7.42
  -6   5   1   69.73    5.39
   6   5  -1   73.13    5.79
  -6   5   1   74.58    6.07
  -6   5   1   73.67    6.11
   6   5  -1   61.55    6.33
   6   5  -1   72.40    4.85
   6   5  -1   70.18    6.33
   6   5  -1   72.06    5.86
  -6   5   1   69.26    5.75
  -5  -5   1   51.62    4.79
  -5  -5   1   55.64    4.37
   5  -5  -1   47.61    2.50
  -5  -5   1   49.62    4.02
   5  -5  -1   54.67    4.52
   5  -5  -1   44.81    5.13
  -5  -5   1   54.95    3.65
   5  -5  -1   48.64    4.04
  -5  -5   1   45.87    4.88
   5  -5  -1   52.35    4.87
   5  -5  -1   52.87    4.72
  -5   5   1   51.32    4.83
  -5   5   1   52.00    5.01
  -5   5   1   53.11    4.82
  -5   5   1   48.28    4.56
   5   5  -1   53.10    4.42
  -5   5   1   48.93    4.52
   5   5  -1   53.23    4.83
   5   5  -1   57.24    5.24
   5   5  -1   56.44    3.33
   5   5  -1   55.45    4.64
   5   5  -1   53.37    4.85
  -5   5   1   58.70    6.09
  -4  -5   1   21.76    2.75
   4  -5  -1   24.94    3.39
  -4  -5   1   20.82    3.03
  -4  -5   1   20.40    2.32
  -4  -5   1   19.26    3.19
   4  -5  -1   19.61    2.41
   4  -5  -1   19.23    1.57
   4  -5  -1   21.60    3.22
   4  -5  -1   18.52    2.40
  -4  -5   1   19.80    3.32
   4  -5  -1   17.83    2.66
  -4  -5   1   18.38    2.36
   4  -5  -1   21.85    2.83
  -4  -5   1   21.70    2.60
  -4   5   1   18.18    2.84
  -4   5   1   20.67    2.96
  -4   5   1   21.13    3.19
   4   5  -1   16.40    3.01
   4   5  -1   16.63    2.51
   4   5  -1   17.21    2.54
   4   5  -1   26.67    1.91
  -4   5   1   21.12    2.98
  -4   5   1   23.82    3.01
  -4   5   1   20.50    2.81
   4   5  -1   22.33    2.79
  -4   5   1   18.99    2.91
   4   5  -1   29.44    3.17
  -3  -5   1   55.15    3.16
  -3  -5   1   58.30    1.99
   3  -5  -1   53.28    3.25
   3  -5  -1   53.64    2.41
  -3  -5   1   52.89    2.53
   3  -5  -1   59.22    3.92
  -3  -5   1   53.21    3.82
   3  -5  -1   51.97    4.17
   3  -5  -1   63.19    3.78
  -3  -5   1   53.27    3.24
   3  -5  -1   57.90    3.93
   3  -5  -1   46.83    4.39
  -3  -5   1   52.66    4.16
   3   5  -1   66.35    4.43
   3   5  -1   57.41    2.08
   3   5  -1   62.71    3.49
  -3   5   1   54.23    3.58
  -3   5   1   54.24    2.34
  -3   5   1   55.70    3.90
   3   5  -1   58.92    3.51
  -3   5   1   54.23    3.49
  -3   5   1   54.74    3.88
  -3   5   1   49.52    3.53
   3   5  -1   51.72    3.34
  -3   5   1   57.11    3.63
  -2  -5   1    9.63    1.92
   2  -5  -1    6.47    1.49
  -2  -5   1   10.70    1.29
   2  -5  -1    9.76    2.12
  -2  -5   1    8.87    1.19
   2  -5  -1    7.45    1.06
   2  -5  -1    9.09    1.46
   2  -5  -1   11.02    2.74
   2  -5  -1    8.44    1.44
   2  -5  -1    9.62    1.95
   2  -5  -1    6.48    1.36
  -2  -5   1    7.51    1.21
  -2  -5   1    8.88    1.26
  -2  -5   1    6.56    1.78
   2   5  -1    8.57    1.36
  -2   5   1    7.97    1.57
  -2   5   1    6.97    1.60
  -2   5   1    8.89    1.12
  -2   5   1    5.85    1.74
   2   5  -1    6.74    1.76
   2   5  -1    8.93    1.31
  -2   5   1    9.22    1.62
  -2   5   1    6.00    1.47
  -2   5   1    9.96    1.76
   2   5  -1    9.33    1.07
   2   5  -1    6.36    1.24
   2   5  -1    7.20    1.37
   1  -5  -1  124.84    5.12
   1  -5  -1  123.16    5.21
   1  -5  -1  127.23    4.50
  -1  -5   1  128.48    4.89
  -1  -5   1  129.75    4.43
  -1  -5   1  125.91    4.54
   1  -5  -1  127.70    4.71
  -1  -5   1  126.61    5.11
   1  -5  -1  121.97    4.50
  -1  -5   1  125.70    3.95
   1  -5  -1  124.41    4.44
   1  -5  -1  123.59    4.67
  -1   5   1  122.53    4.80
   1   5  -1  123.18    4.07
  -1   5   1  127.37    4.43
   1   5  -1  127.31    4.15
   1   5  -1  131.14    4.27
  -1   5   1  128.62    4.53
  -1   5   1  120.40    4.75
   1   5  -1  126.64    3.52
  -1   5   1  122.20    5.09
  -1   5   1  124.65    4.69
   1   5  -1  127.53    4.37
  -1   5   1  118.47    4.68
   1   5  -1  138.40    5.46
   0  -5  -1   62.45    3.71
   0  -5   1   65.29    2.39
   0  -5  -1   68.26    2.87
   0  -5  -1   66.16    3.13
   0  -5   1   67.38    3.43
   0  -5  -1   67.08    3.12
   0  -5  -1   63.88    3.47
   0  -5   1   71.56    3.30
   0  -5  -1   64.11    2.51
   0  -5   1   65.30    3.01
   0  -5   1   64.31    2.39
   0  -5  -1   61.96    3.32
   0  -5   1   65.58    3.39
   0  -5  -1   57.63    4.10
   0   5   1   60.30    3.64
   0   5   1   61.18    3.15
   0   5   1   63.50    3.15
   0   5  -1   65.73    2.52
   0   5  -1   64.09    2.70
   0   5  -1   61.97    3.23
   0   5  -1   67.54    2.69
   0   5  -1   68.60    2.64
   0   5  -1   65.34    2.51
   0   5   1   66.88    3.29
  -1  -5  -1   30.90    2.27
  -1  -5  -1   29.74    2.07
  -1  -5  -1   27.11    2.77
  -1  -5  -1   26.85    2.06
   1  -5   1   30.83    2.17
   1  -5   1   24.32    2.62
  -1  -5  -1   32.91    2.39
  -1  -5  -1   28.41    2.24
  -1  -5  -1   32.16    2.31
   1  -5   1   29.36    1.79
  -1   5  -1   26.58    1.85
  -1   5  -1   30.97    1.61
   1   5   1   31.03    2.92
  -1   5  -1   29.68    2.02
   1   5   1   34.84    2.48
   1   5   1   25.67    2.31
   1   5   1   26.68    2.39
  -1   5  -1   25.97    2.97
  -1   5  -1   26.47    1.81
   1   5   1   34.72    2.65
  -1   5  -1   31.27    1.98
  -1   5  -1   29.71    2.77
   1   5   1   36.73    2.81
   1   5   1   29.77    2.43
   2  -5   1  202.48    6.45
  -2  -5  -1  203.44    5.80
  -2  -5  -1  200.94    7.32
  -2  -5  -1  196.26    6.96
  -2  -5  -1  203.40    6.57
  -2  -5  -1  205.26    7.01
  -2  -5  -1  194.85    6.58
   2  -5   1  193.93    5.55
   2  -5   1  198.35    6.30
   2  -5   1  202.66    7.02
  -2  -5  -1  203.77    6.35
   2  -5   1  195.02    7.46
  -2   5  -1  199.66    6.47
   2   5   1  197.57    7.05
   2   5   1  205.36    6.98
  -2   5  -1  186.83    7.20
   2   5   1  189.48    6.96
  -2   5  -1  199.83    6.57
   2   5   1  197.94    7.39
   2   5   1  194.17    7.07
  -2   5  -1  190.05    6.57
  -2   5  -1  204.07    7.26
   2   5   1  192.84    7.42
  -3  -5  -1    2.74    1.15
   3  -5   1    4.55    1.21
   3  -5   1    2.13    1.52
   3  -5   1    4.82    1.90
  -3  -5  -1    5.14    1.65
  -3  -5  -1    4.31    0.79
   3  -5   1    1.11    1.81
   3  -5   1    4.21    1.41
  -3  -5  -1    4.59    2.05
  -3  -5  -1    1.60    1.31
  -3  -5  -1    3.10    1.73
  -3  -5  -1    1.20    1.73
  -3   5  -1    1.77    1.77
  -3   5  -1    2.39    1.79
   3   5   1    2.62    1.66
   3   5   1    4.49    1.80
  -3   5  -1    1.35    1.49
   3   5   1    2.14    2.19
  -3   5  -1    0.95    1.47
   3   5   1    3.49    1.82
  -3   5  -1    4.56    1.60
  -3   5  -1    2.62    1.55
   3   5   1    3.64    1.94
   4  -5   1  169.28    8.96
  -4  -5  -1  185.12    7.86
  -4  -5  -1  192.90    6.05
  -4  -5  -1  192.43    7.95
  -4  -5  -1  191.27    7.31
  -4  -5  -1  187.61    6.23
   4  -5   1  187.98    6.81
  -4  -5  -1  191.09    7.75
  -4  -5  -1  192.70    7.46
  -4  -5  -1  191.71    8.58
   4  -5   1  188.81    7.50
   4  -5   1  194.26    8.30
   4  -5   1  180.97    7.85
   4  -5   1  185.75    6.59
  -4   5  -1  184.78    7.89
  -4   5  -1  181.86    7.46
  -4   5  -1  184.38    8.08
  -4   5  -1  183.86    7.46
   4   5   1  186.56    8.47
   4   5   1  192.48    7.98
   4   5   1  201.33    7.99
   4   5   1  196.95    8.04
  -4   5  -1  190.86    8.16
   4   5   1  182.65    7.88
  -4   5  -1  189.46    7.54
   5  -5   1   -1.84    2.09
  -5  -5  -1    1.84    1.53
  -5  -5  -1    3.53    2.83
  -5  -5  -1    3.18    2.10
  -5  -5  -1    0.60    2.18
  -5  -5  -1    0.79    2.27
   5  -5   1   -0.07    1.68
  -5  -5  -1    1.85    1.43
   5  -5   1    1.35    2.48
   5  -5   1    0.20    2.18
   5   5   1    3.73    2.59
   5   5   1    1.80    2.32
   5   5   1    0.04    2.33
  -5   5  -1   -0.12    2.34
  -5   5  -1    0.47    2.96
  -5   5  -1    2.90    2.07
  -5   5  -1    1.23    2.53
   5   5   1    6.52    3.37
  -5   5  -1   -0.30    2.13
  -6  -5  -1  143.78    6.15
   6  -5   1  137.12    7.43
   6  -5   1  130.66    7.52
  -6  -5  -1  126.67    7.50
  -6  -5  -1  137.46    7.76
  -6  -5  -1  137.40    7.03
   6  -5   1  136.29    7.55
   6  -5   1  132.95    6.69
  -6  -5  -1  156.79    8.35
  -6   5  -1  147.02    8.86
   6   5   1  132.71    8.20
   6   5   1  145.97    9.46
  -6   5  -1  127.42    8.36
  -6   5  -1  125.62    8.09
  -6   5  -1  138.10    7.61
   6   5   1  134.79    8.13
   6   5   1  141.53    8.91
  -6   5  -1  138.13    8.08
  -7  -5  -1    3.13    3.83
  -7  -5  -1    3.18    3.89
   7  -5   1    6.62    3.04
  -7  -5  -1    5.53    2.03
   7  -5   1    1.15    4.12
  -7  -5  -1    9.30    2.97
  -7  -5  -1    9.15    6.27
   7  -5   1    7.84    3.32
   7   5   1    1.04    4.16
  -7   5  -1   11.50    4.53
  -7   5  -1    8.62    4.60
  -8  -5  -1   87.34    9.98
  -8  -5  -1   84.61    7.56
   8  -5   1   81.73    7.33
  -8  -5  -1   64.48    6.72
   8  -5   1   74.37    8.79
   8  -5   1   76.66    9.91
  -8  -5  -1   73.36    6.60
  -8   5  -1   62.98    7.75
  -8   5  -1   68.72    8.39
  -8   5  -1   68.70    8.81
  -8   5  -1   74.94    9.01
   8   5   1   76.30    8.87
   8   5   1   81.03    9.46
   8   5   1   69.44    8.87
   9  -5   1   16.91    4.66
  -9  -5  -1    8.38    6.92
   9  -5   1   26.91    6.19
  -9  -5  -1   10.88    7.26
   9  -5   1   29.17   10.92
  -9  -5  -1   19.37    4.99
  -9  -5  -1    9.36    5.97
   9   5   1   19.68    6.87
  -9   5  -1   16.80    6.83
  -9   5  -1    3.25    6.06
  -9   5  -1    8.85    6.99
   9   5   1   10.20    6.65
   9   5   1   20.35    7.17
  -9   5  -1   15.12    7.07
  -9  -6   1   16.94    5.40
   9  -6  -1    4.48    6.16
   9  -6  -1   14.77    7.17
  -9  -6   1    1.36    3.74
  -9   6   1   12.63    6.36
   9   6  -1   15.80    6.11
  -9   6   1   11.26    6.51
  -9   6   1   12.58    6.86
  -9   6   1    6.51    6.18
   9   6  -1   21.76    7.02
   8  -6  -1   -0.80    3.49
   8  -6  -1    5.07    5.42
  -8  -6   1   -1.62    3.23
  -8  -6   1    6.35    4.60
  -8  -6   1    1.08    4.54
   8  -6  -1   -4.09    4.06
   8   6  -1   -1.17    4.66
  -8   6   1    3.59    4.91
   8   6  -1   11.28    5.06
  -8   6   1   -2.29    4.39
  -8   6   1   -6.89    4.47
  -8   6   1   -0.92    4.69
   8   6  -1    2.09    4.35
  -7  -6   1    7.40    3.43
  -7  -6   1   13.08    3.88
   7  -6  -1    1.63    3.26
   7  -6  -1   10.99    4.32
  -7  -6   1    5.77    2.65
   7  -6  -1    8.30    3.94
  -7   6   1    7.24    4.23
   7   6  -1    0.32    4.63
  -7   6   1    7.84    4.50
   7   6  -1   -8.70    6.86
  -6  -6   1   48.41    5.28
   6  -6  -1   44.53    5.00
   6  -6  -1   55.86    2.27
   6  -6  -1   53.99    4.80
   6  -6  -1   53.10    5.48
  -6  -6   1   51.05    4.19
  -6  -6   1   47.51    5.15
  -6  -6   1   52.53    5.60
   6  -6  -1   48.85    4.92
  -6  -6   1   52.10    5.02
   6   6  -1   50.88    5.45
   6   6  -1   49.87    5.59
  -6   6   1   51.00    6.16
  -6   6   1   59.26    5.99
   6   6  -1   61.17    6.58
   6   6  -1   48.67    6.17
  -6   6   1   51.17    6.14
  -6   6   1   45.64    5.96
  -6   6   1   67.17    6.76
   6   6  -1   52.64    4.34
   5  -6  -1   13.82    2.97
   5  -6  -1   14.11    1.43
  -5  -6   1   14.47    2.11
  -5  -6   1   16.12    2.44
   5  -6  -1   15.57    3.02
  -5  -6   1   18.03    2.99
  -5  -6   1   14.37    2.95
   5  -6  -1   19.09    3.47
   5  -6  -1   10.97    2.36
  -5  -6   1   12.58    3.25
  -5   6   1   17.39    3.73
  -5   6   1   19.37    3.31
  -5   6   1   12.97    2.87
  -5   6   1   12.77    3.21
   5   6  -1    6.74    2.92
   5   6  -1   15.15    1.72
   5   6  -1   13.63    2.87
   5   6  -1    8.84    3.07
  -5   6   1   15.64    3.30
   5   6  -1   11.71    3.05
   4  -6  -1  377.78   11.84
   4  -6  -1  383.50   10.23
  -4  -6   1  406.64   12.25
   4  -6  -1  392.47   12.57
  -4  -6   1  373.79   12.65
  -4  -6   1  387.26   10.88
   4  -6  -1  369.30   12.52
  -4  -6   1  391.02   10.90
  -4  -6   1  370.92   11.89
   4  -6  -1  398.33   13.20
  -4  -6   1  375.32   13.06
   4  -6  -1  390.94   12.10
   4  -6  -1  440.36   18.13
  -4   6   1  366.16   12.49
  -4   6   1  390.89   12.69
  -4   6   1  388.09   13.12
  -4   6   1  366.88   12.38
  -4   6   1  380.15   13.06
   4   6  -1  381.83   12.28
   4   6  -1  400.18   12.45
   4   6  -1  367.12   12.27
   4   6  -1  379.18   13.48
  -4   6   1  377.72   13.12
   4   6  -1  377.40   12.35
  -4   6   1  386.56   12.63
  -3  -6   1    5.27    1.35
   3  -6  -1    2.06    1.28
  -3  -6   1    1.73    1.93
  -3  -6   1    3.22    1.47
   3  -6  -1    1.38    1.81
  -3  -6   1    6.48    2.40
  -3  -6   1    3.77    0.80
  -3  -6   1    4.70    0.88
  -3  -6   1    4.19    0.78
   3  -6  -1    8.01    2.50
   3  -6  -1    1.81    1.93
  -3  -6   1    4.57    1.05
   3  -6  -1    3.58    2.24
   3  -6  -1    2.95    0.92
   3  -6  -1    1.11    2.20
   3   6  -1    3.49    1.51
  -3   6   1    6.37    1.88
   3   6  -1    1.12    1.92
  -3   6   1    4.18    1.99
  -3   6   1    3.22    0.89
  -3   6   1    5.38    1.15
  -3   6   1    4.80    2.14
  -3   6   1    4.01    1.80
  -3   6   1    3.62    1.88
  -3   6   1    5.29    1.85
   3   6  -1    4.70    1.72
   3   6  -1    2.69    1.51
   3   6  -1    3.31    1.71
   2  -6  -1  680.72   18.10
  -2  -6   1  691.22   17.76
   2  -6  -1  685.70   18.54
  -2  -6   1  681.84   17.66
  -2  -6   1  690.34   17.65
  -2  -6   1  633.74   19.75
   2  -6  -1  697.26   18.62
  -2  -6   1  660.81   17.80
   2  -6  -1  659.90   19.36
   2  -6  -1  700.24   18.74
   2  -6  -1  685.52   19.24
  -2  -6   1  652.76   19.04
   2   6  -1  663.82   17.52
   2   6  -1  653.90   19.33
  -2   6   1  674.31   18.74
  -2   6   1  682.52   18.71
   2   6  -1  698.36   18.15
  -2   6   1  679.68   18.70
  -2   6   1  690.84   17.63
   2   6  -1  634.45   18.09
  -2   6   1  686.69   18.56
  -2   6   1  666.40   19.19
   2   6  -1  685.46   18.19
  -2   6   1  657.00   18.64
  -1  -6   1   18.55    2.02
   1  -6  -1   12.81    1.60
  -1  -6   1   17.05    2.17
   1  -6  -1   16.52    2.32
   1  -6  -1   16.90    2.03
   1  -6  -1   16.06    2.14
  -1  -6   1   15.48    2.25
  -1  -6   1   15.65    1.48
  -1  -6   1   15.30    2.05
   1  -6  -1   17.06    2.43
   1  -6  -1   16.19    1.88
  -1  -6   1   12.00    1.97
   1  -6  -1   15.53    2.33
   1  -6  -1   16.01    1.94
  -1   6   1   15.40    1.96
  -1   6   1   16.09    1.93
  -1   6   1   19.12    2.16
  -1   6   1   15.82    1.99
   1   6  -1   13.17    1.50
   1   6  -1   16.19    2.02
   1   6  -1   16.49    1.85
  -1   6   1   14.30    2.09
  -1   6   1   13.31    1.88
   1   6  -1   13.92    1.75
   1   6  -1   15.22    1.75
   1   6  -1   15.76    0.90
   0  -6  -1  262.08    7.69
   0  -6   1  256.77    8.45
   0  -6  -1  264.81    8.16
   0  -6  -1  268.11    8.22
   0  -6  -1  261.08    8.71
   0  -6   1  268.38    7.31
   0  -6  -1  256.05    8.47
   0  -6  -1  258.46    7.70
   0  -6   1  270.13    8.47
   0  -6  -1  258.46    7.28
   0  -6  -1  255.69    8.45
   0  -6   1  265.16    8.57
   0   6   1  261.59    8.57
   0   6   1  250.65    8.24
   0   6  -1  264.83    7.66
   0   6  -1  245.75    8.31
   0   6  -1  266.59    7.61
   0   6   1  249.31    8.26
   0   6  -1  260.01    7.55
   0   6   1  268.35    8.24
   0   6  -1  256.46    7.65
   0   6   1  272.92    8.40
  -1  -6  -1    6.12    1.42
  -1  -6  -1    4.98    1.40
  -1  -6  -1    5.80    1.47
   1  -6   1    3.89    1.00
   1  -6   1    3.24    1.68
  -1  -6  -1    4.18    1.73
  -1  -6  -1    2.83    1.11
  -1  -6  -1    4.41    1.37
   1  -6   1    3.90    1.23
   1   6   1    5.27    1.56
  -1   6  -1    3.87    1.12
  -1   6  -1    3.50    0.92
  -1   6  -1    4.87    1.27
   1   6   1    6.00    1.69
   1   6   1    3.80    1.50
   1   6   1    2.92    1.66
  -1   6  -1    4.27    1.50
   1   6   1    4.73    1.52
   1   6   1    5.36    1.49
  -1   6  -1    4.59    1.37
  -1   6  -1    3.87    1.13
  -1   6  -1    5.79    1.24
   1   6   1    6.42    1.53
  -2  -6  -1   57.27    3.63
  -2  -6  -1   58.97    3.62
  -2  -6  -1   56.07    3.27
   2  -6   1   56.51    2.92
   2  -6   1   61.08    3.75
   2  -6   1   62.08    4.27
  -2  -6  -1   56.25    3.89
   2  -6   1   56.86    3.12
  -2  -6  -1   59.09    2.74
  -2  -6  -1   56.76    3.64
  -2  -6  -1   63.87    3.26
  -2   6  -1   59.03    3.89
   2   6   1   55.96    3.76
   2   6   1   61.93    3.84
  -2   6  -1   54.90    3.19
  -2   6  -1   58.09    3.26
   2   6   1   59.48    3.78
   2   6   1   62.70    4.30
   2   6   1   65.26    4.17
   2   6   1   59.85    3.69
  -2   6  -1   52.06    3.29
  -2   6  -1   56.75    3.88
  -2   6  -1   59.49    3.38
  -3  -6  -1   36.84    3.05
   3  -6   1   32.49    2.79
  -3  -6  -1   38.09    3.62
   3  -6   1   33.03    3.21
  -3  -6  -1   35.88    3.86
   3  -6   1   40.07    3.82
   3  -6   1   39.77    2.28
  -3  -6  -1   37.07    3.77
  -3  -6  -1   38.35    2.70
   3  -6   1   40.36    2.28
   3  -6   1   29.47    3.69
  -3   6  -1   35.84    3.28
   3   6   1   32.99    3.58
  -3   6  -1   34.98    3.94
  -3   6  -1   34.51    3.26
   3   6   1   41.48    4.33
   3   6   1   36.31    3.59
   3   6   1   30.92    4.12
  -3   6  -1   37.08    3.25
  -3   6  -1   34.78    3.16
  -3   6  -1   30.75    3.71
   3   6   1   37.89    3.95
   3   6   1   36.48    3.62
   4  -6   1    8.02    2.33
   4  -6   1   10.31    1.70
  -4  -6  -1    9.77    1.13
   4  -6   1    9.57    2.91
  -4  -6  -1   10.59    2.18
  -4  -6  -1   10.44    1.63
   4  -6   1   11.44    1.89
  -4  -6  -1   12.06    3.09
   4  -6   1   12.25    3.20
  -4  -6  -1   10.46    2.47
  -4  -6  -1   13.81    2.96
   4  -6   1   11.59    2.62
  -4  -6  -1   12.56    2.72
   4   6   1   11.41    3.75
   4   6   1    4.73    2.78
  -4   6  -1   10.67    2.34
   4   6   1    5.79    2.27
  -4   6  -1   11.55    2.82
  -4   6  -1   16.54    3.07
   4   6   1    8.10    2.39
   4   6   1    8.46    2.75
  -4   6  -1   15.09    3.13
  -4   6  -1    6.71    2.38
   4   6   1    7.64    2.64
  -4   6  -1    5.95    2.81
  -5  -6  -1   32.26    3.87
  -5  -6  -1   33.09    2.95
  -5  -6  -1   29.10    4.17
  -5  -6  -1   30.18    3.90
   5  -6   1   28.40    3.20
   5  -6   1   26.92    3.88
   5  -6   1   35.69    3.93
  -5  -6  -1   29.06    3.83
   5  -6   1   25.77    3.41
  -5   6  -1   28.89    3.98
  -5   6  -1   35.12    4.25
   5   6   1   30.40    4.59
   5   6   1   45.38    5.37
  -5   6  -1   29.26    4.10
   5   6   1   27.98    3.97
  -5   6  -1   36.81    4.90
  -5   6  -1   31.29    4.22
   5   6   1   32.19    4.17
  -6  -6  -1   45.91    4.97
   6  -6   1   56.05    5.96
  -6  -6  -1   47.72    3.77
  -6  -6  -1   48.51    5.70
  -6  -6  -1   46.50    3.85
   6  -6   1   47.33    5.44
   6  -6   1   39.81    4.48
  -6  -6  -1   54.73    5.72
   6  -6   1   48.82    5.05
   6   6   1   49.06    6.43
  -6   6  -1   63.69    6.96
  -6   6  -1   50.88    6.08
  -6   6  -1   48.33    6.14
  -6   6  -1   49.58    6.49
   6   6   1   54.82    6.68
   6   6   1   40.67    6.15
  -6   6  -1   54.58    6.42
   6   6   1   44.38    5.72
   7  -6   1   10.79    4.48
   7  -6   1   13.96    3.79
  -7  -6  -1    6.64    4.29
  -7  -6  -1    2.78    4.00
  -7  -6  -1   13.90    2.73
  -7  -6  -1    3.13    3.18
   7  -6   1   12.49    3.66
   7   6   1    4.24    5.03
  -7   6  -1   13.11    4.44
   7   6   1   19.76    4.94
  -7   6  -1   15.99    4.49
   7   6   1    5.79    4.03
  -7   6  -1   16.41    5.12
   8  -6   1   47.47    7.28
  -8  -6  -1   54.22    6.29
   8  -6   1   65.97    7.23
  -8  -6  -1   64.57    6.80
  -8  -6  -1   66.46    7.59
  -8  -6  -1   75.22    8.99
   8   6   1   49.82    7.81
   8   6   1   64.98    7.70
  -8   6  -1   66.53    8.15
  -8   6  -1   69.05    8.41
  -8   6  -1   69.21    8.63
   8   6   1   61.30    7.59
  -8   6  -1   57.38    7.55
   8  -7  -1   17.84    6.78
   8  -7  -1    6.09    4.88
   8  -7  -1   10.27    4.54
  -8  -7   1    6.37    3.86
  -8  -7   1   16.51    6.75
  -8  -7   1    5.20    4.17
   8   7  -1   -0.81    5.73
  -8   7   1    7.13    5.07
  -8   7   1    9.99    5.49
   8   7  -1    8.74    4.83
   8   7  -1    6.04    5.61
  -8   7   1    7.89    5.46
  -8   7   1    3.99    5.43
  -7  -7   1   30.21    4.87
  -7  -7   1   35.46    4.70
   7  -7  -1   36.32    5.37
   7  -7  -1   39.24    5.56
  -7  -7   1   35.42    4.73
   7  -7  -1   30.00    4.91
  -7   7   1   31.50    5.53
   7   7  -1   30.84    5.11
   7   7  -1   25.60    6.13
  -7   7   1   27.91    5.48
  -7   7   1   36.33    5.99
  -7   7   1   30.97    5.31
   7   7  -1   24.64    5.90
  -6  -7   1    6.21    2.23
   6  -7  -1    4.88    2.51
   6  -7  -1   10.47    3.35
  -6  -7   1    2.44    3.28
   6  -7  -1    0.84    4.23
   6  -7  -1   11.62    3.57
   6   7  -1    6.00    3.29
   6   7  -1    9.91    3.81
  -6   7   1    7.17    5.59
  -6   7   1    5.22    3.64
  -6   7   1   11.24    4.07
  -6   7   1    7.67    4.48
   6   7  -1    8.87    4.35
  -6   7   1   -0.47    3.92
   6   7  -1   11.06    4.75
   5  -7  -1   93.78    6.18
   5  -7  -1   92.35    6.12
  -5  -7   1   85.38    8.43
  -5  -7   1   88.91    5.96
   5  -7  -1   92.39    5.34
   5  -7  -1   92.60    6.39
  -5  -7   1   98.70    6.68
  -5  -7   1   95.38    4.32
  -5  -7   1   93.18    4.19
  -5   7   1   96.09    6.23
   5   7  -1  104.87    6.96
  -5   7   1   85.16    6.68
  -5   7   1   89.57    6.54
   5   7  -1   86.53    6.92
   5   7  -1   87.86    6.14
  -5   7   1  108.01    7.10
  -5   7   1   91.25    6.15
   5   7  -1   90.95    5.92
  -4  -7   1    9.48    2.53
   4  -7  -1    8.30    2.38
  -4  -7   1    4.98    2.61
   4  -7  -1    3.83    3.00
   4  -7  -1    7.21    3.23
   4  -7  -1    6.03    1.88
  -4  -7   1    9.95    1.23
  -4  -7   1    7.20    2.47
   4  -7  -1   10.27    2.37
  -4  -7   1    5.96    1.77
  -4   7   1    9.67    2.94
   4   7  -1    9.25    2.98
  -4   7   1   10.56    2.74
  -4   7   1   12.99    3.28
   4   7  -1    5.77    2.24
  -4   7   1    7.87    2.47
   4   7  -1    9.68    3.03
  -4   7   1    8.63    2.29
   4   7  -1   10.67    2.42
   4   7  -1    2.67    2.59
   3  -7  -1  212.63    8.42
   3  -7  -1  222.84    8.89
  -3  -7   1  218.98    6.32
  -3  -7   1  216.09    7.38
   3  -7  -1  216.21    8.84
   3  -7  -1  222.75    7.61
  -3  -7   1  211.00    8.42
   3  -7  -1  214.45    8.22
  -3  -7   1  220.65    7.45
  -3  -7   1  213.21    8.66
   3   7  -1  219.67    7.83
   3   7  -1  215.48    7.88
  -3   7   1  217.20    8.20
   3   7  -1  219.28    8.02
   3   7  -1  213.87    8.98
  -3   7   1  218.58    6.45
  -3   7   1  226.10    8.30
   3   7  -1  213.51    7.83
  -3   7   1  217.27    8.43
  -3   7   1  209.11    8.37
  -3   7   1  208.85    8.22
  -3   7   1  207.78    8.76
  -2  -7   1   16.97    2.81
  -2  -7   1   11.01    1.60
  -2  -7   1   17.81    1.98
   2  -7  -1   18.21    2.80
   2  -7  -1   17.24    2.84
   2  -7  -1   16.75    2.17
   2  -7  -1   13.69    2.01
   2  -7  -1   18.05    2.42
   2  -7  -1   15.99    2.12
  -2  -7   1   15.51    1.81
   2  -7  -1   19.02    2.46
  -2  -7   1   16.34    2.88
  -2   7   1   17.24    2.42
   2   7  -1   18.38    2.43
  -2   7   1   16.38    1.98
   2   7  -1   13.83    2.13
   2   7  -1   21.09    3.00
  -2   7   1   12.60    2.16
   2   7  -1   17.98    2.17
  -2   7   1   13.14    2.24
  -2   7   1   18.11    2.73
  -2   7   1   15.12    2.30
   2   7  -1   16.21    2.35
   2   7  -1   17.29    2.10
  -2   7   1   19.90    2.55
  -1  -7   1  228.10    7.56
   1  -7  -1  224.99    7.22
  -1  -7   1  232.56    6.70
   1  -7  -1  222.86    6.94
  -1  -7   1  225.17    7.63
   1  -7  -1  220.10    8.33
  -1  -7   1  224.20    6.75
   1  -7  -1  226.35    7.66
   1  -7  -1  225.39    8.28
  -1  -7   1  233.28    8.34
   1  -7  -1  226.19    7.57
  -1   7   1  218.87    7.75
   1   7  -1  214.67    7.22
   1   7  -1  235.84    7.24
  -1   7   1  229.73    7.33
   1   7  -1  219.83    7.19
   1   7  -1  226.30    7.17
   1   7  -1  227.12    7.45
  -1   7   1  225.58    7.77
  -1   7   1  225.99    7.83
  -1   7   1  210.42    8.09
  -1   7   1  230.32    7.75
  -1   7   1  226.17    8.20
   0  -7   1    2.36    1.56
   0  -7  -1    1.52    1.71
   0  -7  -1    2.18    1.04
   0  -7  -1    4.91    0.92
   0  -7  -1    4.67    1.48
   0  -7   1    2.73    0.95
   0  -7  -1    4.03    1.88
   0  -7  -1    3.26    1.24
   0  -7   1    0.41    1.69
   0  -7  -1    3.14    1.74
   0  -7  -1    4.74    1.38
   0  -7   1    2.20    0.87
   0   7  -1    4.96    1.10
   0   7   1    1.58    1.43
   0   7   1    3.07    1.50
   0   7  -1    2.64    1.13
   0   7   1    4.24    1.83
   0   7  -1    2.30    1.20
   0   7  -1    3.78    1.09
   0   7  -1    4.98    1.64
   0   7   1    2.53    1.44
   0   7  -1    0.85    1.01
   0   7   1    2.97    1.53
   0   7   1    3.38    1.52
  -1  -7  -1  158.92    5.99
  -1  -7  -1  160.23    5.99
   1  -7   1  155.63    6.72
  -1  -7  -1  157.71    6.74
  -1  -7  -1  160.44    6.17
   1  -7   1  159.41    5.25
  -1  -7  -1  136.39    6.51
  -1  -7  -1  159.59    5.88
  -1  -7  -1  151.83    5.25
   1   7   1  160.07    6.20
  -1   7  -1  146.90    7.35
  -1   7  -1  156.72    6.54
   1   7   1  146.21    6.15
   1   7   1  162.53    6.66
  -1   7  -1  139.86    7.86
   1   7   1  157.87    6.05
   1   7   1  154.92    6.93
   1   7   1  153.63    6.16
  -1   7  -1  154.66    5.53
  -1   7  -1  162.03    5.22
  -1   7  -1  161.17    5.62
  -1   7  -1  164.84    5.62
   1   7   1  159.68    6.23
  -2  -7  -1    4.64    2.10
   2  -7   1    2.79    1.82
   2  -7   1    2.67    1.21
  -2  -7  -1    3.18    1.71
   2  -7   1    2.47    2.23
  -2  -7  -1    7.57    1.52
  -2  -7  -1    3.12    1.30
  -2  -7  -1    5.47    1.60
  -2  -7  -1    5.19    1.78
  -2  -7  -1    3.16    1.39
   2   7   1    0.72    2.33
  -2   7  -1    2.48    1.66
  -2   7  -1    3.17    1.68
   2   7   1    3.34    1.55
   2   7   1    1.82    1.61
  -2   7  -1    6.00    1.52
   2   7   1    7.31    2.05
   2   7   1    5.81    2.47
   2   7   1    3.96    1.87
  -2   7  -1    5.15    2.05
   2   7   1    4.66    1.79
  -2   7  -1    4.66    1.62
  -2   7  -1    4.22    0.67
  -2   7  -1    3.00    1.52
   3  -7   1   32.20    3.50
  -3  -7  -1   37.08    3.92
  -3  -7  -1   34.89    2.97
   3  -7   1   32.65    1.50
   3  -7   1   23.83    3.57
  -3  -7  -1   27.00    3.35
  -3  -7  -1   28.01    4.19
  -3  -7  -1   32.89    2.94
  -3  -7  -1   34.17    2.10
   3  -7   1   37.93    2.92
   3  -7   1   38.05    4.30
  -3  -7  -1   31.97    3.79
   3   7   1   31.57    4.02
  -3   7  -1   31.46    3.26
  -3   7  -1   36.56    3.88
   3   7   1   33.91    3.75
  -3   7  -1   32.67    3.77
  -3   7  -1   30.64    3.78
   3   7   1   34.28    4.20
  -3   7  -1   35.11    3.47
  -3   7  -1   35.54    3.36
   3   7   1   45.15    5.09
   3   7   1   26.57    3.50
   3   7   1   34.77    4.02
   4  -7   1   63.97    4.19
   4  -7   1   59.39    5.20
  -4  -7  -1   61.21    4.88
   4  -7   1   67.77    6.77
  -4  -7  -1   60.36    4.11
   4  -7   1   59.11    3.10
   4  -7   1   60.97    3.24
  -4  -7  -1   56.66    5.11
  -4  -7  -1   63.13    4.62
  -4   7  -1   66.48    4.82
  -4   7  -1   58.71    7.62
   4   7   1   51.84    4.88
   4   7   1   58.88    4.97
  -4   7  -1   62.87    6.09
   4   7   1   60.01    6.02
   4   7   1   58.84    5.65
  -4   7  -1   54.59    5.14
  -4   7  -1   64.20    5.50
  -4   7  -1   59.11    4.53
   5  -7   1    2.37    2.74
   5  -7   1    2.82    2.95
  -5  -7  -1    2.35    2.65
  -5  -7  -1    1.34    1.77
   5  -7   1    2.77    1.73
  -5  -7  -1    0.63    2.67
  -5  -7  -1   -3.93    3.17
   5  -7   1    1.58    2.22
  -5  -7  -1    4.67    2.21
  -5   7  -1    0.72    2.96
  -5   7  -1    0.59    2.62
  -5   7  -1   -2.06    2.53
   5   7   1    1.43    2.72
   5   7   1    2.47    3.26
  -5   7  -1    0.06    2.95
   5   7   1   -0.65    2.82
   5   7   1    4.97    4.32
  -5   7  -1    6.02    3.61
  -6  -7  -1   40.92    5.80
  -6  -7  -1   42.27    8.51
   6  -7   1   49.70    5.82
  -6  -7  -1   47.68    3.48
   6  -7   1   46.57    4.35
  -6  -7  -1   48.09    5.01
   6  -7   1   38.38    4.69
  -6  -7  -1   51.47    6.13
  -6   7  -1   50.52    6.26
   6   7   1   43.38    6.49
   6   7   1   47.67    6.31
  -6   7  -1   43.38    6.22
  -6   7  -1   49.24    6.07
  -6   7  -1   42.32    5.53
  -6   7  -1   45.64    6.03
   6   7   1   42.16    6.46
  -7  -7  -1   27.85    4.93
  -7  -7  -1   23.55    5.01
   7  -7   1   24.31    4.03
  -7  -7  -1   33.66    5.35
   7  -7   1   24.70    4.68
   7  -7   1   33.68    5.47
  -7   7  -1   34.64    5.69
  -7   7  -1   32.98    5.41
   7   7   1   28.31    5.31
   7   7   1   28.81    6.38
  -7   7  -1   22.18    5.74
   7   7   1   32.81    6.04
  -7   7  -1   26.73    5.61
  -8  -7  -1   28.13    8.19
  -8  -7  -1    8.55    5.09
  -8  -7  -1   15.28    4.60
   8  -7   1   14.14    4.73
  -8   7  -1    8.85    6.27
  -8   7  -1   14.76    5.79
   8   7   1    9.04    6.47
  -8   7  -1   -0.44    5.64
  -8   7  -1    0.40    5.81
   8   7   1    6.39    5.42
   8   7   1    5.14    6.03
  -8  -8   1   -1.72    3.82
   8  -8  -1   -4.63    4.93
   8  -8  -1    3.50    4.31
   8  -8  -1   -3.69    8.13
   8   8  -1    2.28    6.08
   8   8  -1  -12.51    5.67
  -8   8   1   -6.01    6.31
   8   8  -1    6.13    4.96
  -8   8   1    9.66    5.86
  -8   8   1   -4.21    6.52
  -8   8   1    1.59    5.52
   7  -8  -1  109.45    8.71
  -7  -8   1  110.18    8.94
  -7  -8   1  119.49    5.81
   7  -8  -1  104.11    9.28
   7  -8  -1  122.37    8.62
  -7  -8   1  108.48    7.99
  -7   8   1  112.77    9.31
   7   8  -1  114.73   10.35
   7   8  -1  108.33    9.29
  -7   8   1  106.48    9.89
  -7   8   1  113.05    8.87
  -7   8   1  123.37    9.82
   7   8  -1  110.62    8.64
  -6  -8   1   16.09    2.08
  -6  -8   1   10.38    3.88
   6  -8  -1   15.08    4.18
  -6  -8   1   15.04    3.65
   6  -8  -1   13.47    3.81
   6  -8  -1    9.51    2.94
   6   8  -1   11.81    4.05
  -6   8   1   13.52    4.50
   6   8  -1    5.67    5.61
  -6   8   1   12.45    5.41
  -6   8   1   14.24    4.67
  -6   8   1    9.38    6.40
   5  -8  -1   71.75    5.99
   5  -8  -1   71.80    4.75
   5  -8  -1   67.31    5.71
   5  -8  -1   77.93    6.41
  -5   8   1   77.57    7.72
   5   8  -1   73.75    6.09
   5   8  -1   84.92    7.60
  -5   8   1   86.59    7.05
  -5   8   1   85.27    6.92
   5   8  -1   61.18    6.96
  -5   8   1   85.09    7.97
   5   8  -1   74.43    5.96
  -5   8   1   81.99    6.35
   4  -8  -1   26.04    3.41
   4  -8  -1   35.30    4.45
  -4  -8   1   34.71    3.73
  -4  -8   1   39.31    4.55
   4  -8  -1   33.25    4.03
   4   8  -1   28.07    4.26
  -4   8   1   35.86    4.43
  -4   8   1   29.56    3.96
   4   8  -1   34.97    3.88
  -4   8   1   35.41    4.72
  -4   8   1   33.00    4.47
   4   8  -1   33.53    4.07
  -4   8   1   35.15    4.19
   4   8  -1   37.52    4.15
   3  -8  -1   15.94    3.11
  -3  -8   1   13.93    3.18
   3  -8  -1    8.85    3.49
  -3  -8   1   16.43    1.73
   3  -8  -1   13.14    1.90
   3  -8  -1   13.53    2.14
  -3  -8   1   14.35    2.24
  -3  -8   1   13.67    2.10
   3  -8  -1   10.31    3.48
   3   8  -1   15.96    2.45
  -3   8   1   15.06    2.58
  -3   8   1    8.85    2.40
  -3   8   1    7.22    2.95
   3   8  -1   16.01    3.15
  -3   8   1   15.03    3.11
   3   8  -1   12.18    2.72
   3   8  -1   11.08    2.40
   3   8  -1   10.90    2.35
  -3   8   1   15.44    3.12
  -3   8   1   18.59    2.06
  -3   8   1   16.47    2.97
   2  -8  -1   61.21    4.37
  -2  -8   1   69.32    3.47
   2  -8  -1   66.50    3.38
   2  -8  -1   64.12    3.24
   2  -8  -1   68.31    4.31
   2  -8  -1   66.08    5.43
   2  -8  -1   70.42    4.05
  -2  -8   1   65.48    3.70
  -2  -8   1   75.47    5.07
  -2   8   1   74.81    4.47
   2   8  -1   51.82    4.63
   2   8  -1   67.17    3.93
   2   8  -1   64.37    3.87
  -2   8   1   66.02    4.29
  -2   8   1   66.51    4.78
   2   8  -1   65.13    3.52
   2   8  -1   68.20    4.13
  -2   8   1   64.80    3.71
  -2   8   1   65.89    4.15
  -2   8   1   61.27    4.34
   2   8  -1   57.53    3.76
  -2   8   1   71.62    4.64
   1  -8  -1   31.09    3.22
   1  -8  -1   27.61    3.40
  -1  -8   1   27.73    2.18
  -1  -8   1   28.17    3.44
   1  -8  -1   31.88    2.70
   1  -8  -1   26.08    2.79
  -1  -8   1   30.89    3.01
  -1  -8   1   27.10    2.12
   1  -8  -1   30.90    3.67
   1  -8  -1   23.87    2.10
  -1   8   1   22.61    2.96
   1   8  -1   25.44    2.57
  -1   8   1   29.15    3.23
   1   8  -1   28.45    3.77
  -1   8   1   30.51    3.35
   1   8  -1   30.02    2.88
   1   8  -1   26.02    2.88
   1   8  -1   21.79    3.33
  -1   8   1   26.50    3.09
  -1   8   1   26.51    3.35
   1   8  -1   26.68    3.06
  -1   8   1   26.33    2.99
   1   8  -1   23.60    2.49
   0  -8  -1   71.99    4.12
   0  -8  -1   71.50    4.51
   0  -8  -1   72.97    2.85
   0  -8  -1   70.24    4.87
   0  -8   1   74.79    4.56
   0  -8  -1   74.40    4.02
   0  -8  -1   71.27    3.09
   0  -8   1   74.98    4.55
   0  -8   1   76.39    3.11
   0  -8  -1   73.32    4.87
   0  -8  -1   78.69    3.68
   0  -8   1   74.17    3.19
   0   8   1   76.79    4.39
   0   8  -1   70.28    3.74
   0   8  -1   71.04    3.65
   0   8  -1   74.57    4.41
   0   8  -1   70.93    3.67
   0   8   1   75.74    4.38
   0   8   1   72.78    4.28
   0   8   1   75.60    4.61
   0   8  -1   78.21    3.24
   0   8  -1   69.18    4.07
   0   8  -1   69.49    3.63
   0   8   1   71.44    4.20
   0   8   1   76.77    4.62
   1  -8   1  209.11    6.61
  -1  -8  -1  213.93    7.87
   1  -8   1  199.45    8.27
  -1  -8  -1  197.35    8.23
   1  -8   1  210.53    6.50
  -1  -8  -1  197.77    7.48
  -1  -8  -1  202.55    6.37
  -1  -8  -1  198.13    7.32
  -1  -8  -1  213.98    7.49
  -1   8  -1  208.43    7.13
   1   8   1  213.00    7.70
  -1   8  -1  193.86    6.97
   1   8   1  216.37    8.45
   1   8   1  209.86    8.73
  -1   8  -1  205.74    7.24
   1   8   1  200.23    7.70
   1   8   1  193.06    7.70
  -1   8  -1  202.47    8.37
   1   8   1  220.04    7.89
  -1   8  -1  216.21    6.75
  -1   8  -1  212.41    7.12
  -1   8  -1  202.15    8.16
  -2  -8  -1    1.63    1.28
   2  -8   1    3.98    1.68
  -2  -8  -1   -1.45    1.30
  -2  -8  -1   -1.74    1.87
   2  -8   1   -0.67    2.07
  -2  -8  -1   -1.78    1.98
   2  -8   1    0.94    1.96
  -2  -8  -1    0.40    1.77
  -2  -8  -1    1.36    1.33
   2  -8   1    0.95    1.48
  -2  -8  -1    1.48    2.08
  -2   8  -1   -0.56    1.99
  -2   8  -1    1.67    1.66
  -2   8  -1   -0.85    1.83
   2   8   1    2.11    2.22
  -2   8  -1    0.26    0.76
   2   8   1    1.91    2.82
   2   8   1    1.07    2.13
  -2   8  -1    1.46    1.63
  -2   8  -1    0.47    1.53
   2   8   1    1.15    1.73
   2   8   1    0.06    1.77
   2   8   1   -0.20    1.43
  -2   8  -1    1.01    1.56
   2   8   1    0.92    2.35
  -3  -8  -1  290.35    9.18
  -3  -8  -1  292.31   11.25
   3  -8   1  308.02    9.55
  -3  -8  -1  298.79    9.24
   3  -8   1  299.74   10.82
  -3  -8  -1  305.79    8.25
   3  -8   1  276.31   11.25
  -3  -8  -1  303.29    9.50
   3  -8   1  295.92    9.89
  -3  -8  -1  299.84   10.67
   3   8   1  272.17   10.46
  -3   8  -1  293.63   10.14
  -3   8  -1  291.54   10.83
   3   8   1  295.19   11.64
   3   8   1  286.39   10.62
  -3   8  -1  296.35   10.22
  -3   8  -1  289.42   10.22
   3   8   1  285.51   10.85
  -3   8  -1  276.25   10.99
  -3   8  -1  283.70   10.03
  -4  -8  -1   -2.30    2.37
   4  -8   1    0.80    1.93
  -4  -8  -1   -0.69    2.44
  -4  -8  -1    6.71    2.59
   4  -8   1    5.62    2.66
  -4  -8  -1   -2.08    1.90
  -4  -8  -1    0.94    1.82
   4   8   1    1.45    2.66
   4   8   1   -0.27    2.64
  -4   8  -1   -3.83    2.15
  -4   8  -1    0.58    2.68
  -4   8  -1   -3.95    2.77
   4   8   1    4.48    3.91
  -4   8  -1   -1.09    2.89
   4   8   1   -1.56    3.08
  -4   8  -1    0.15    2.27
  -5  -8  -1  118.59    7.67
  -5  -8  -1  128.15    7.18
  -5  -8  -1  127.10    6.19
  -5  -8  -1  113.09    7.19
   5  -8   1  126.11    4.91
   5  -8   1  137.54    7.30
   5  -8   1  129.54    8.04
   5   8   1  123.42    8.27
  -5   8  -1  122.03    9.22
  -5   8  -1  121.94    7.30
   5   8   1  123.59    8.20
  -5   8  -1  133.06    7.78
   5   8   1  133.76   10.07
  -5   8  -1  125.32    8.45
  -5   8  -1  121.88    8.80
   5   8   1  123.64    9.09
   6  -8   1    5.16    2.27
  -6  -8  -1    6.56    3.42
   6  -8   1    2.23    3.26
  -6  -8  -1    6.60    3.99
  -6  -8  -1    1.25    2.86
   6  -8   1    3.93    4.06
  -6   8  -1   -5.08    4.22
   6   8   1    3.80    4.69
  -6   8  -1    1.50    4.24
   6   8   1   -0.62    3.58
   6   8   1    2.05    4.39
  -6   8  -1    3.64    3.30
  -6   8  -1    4.14    5.74
   7  -8   1   50.61    6.42
   7  -8   1   47.24    5.41
  -7  -8  -1   48.38    5.91
  -7  -8  -1   49.37    6.63
  -7  -8  -1   54.19    6.73
   7   8   1   54.34    7.72
  -7   8  -1   61.38    7.61
   7   8   1   57.19    6.85
  -7   8  -1   40.58    6.42
   7   8   1   41.25    7.47
  -7   8  -1   56.46    7.29
  -7   8  -1   44.74    6.85
   8  -8   1    8.25    4.41
  -8  -8  -1   14.06    5.66
  -8  -8  -1    4.52    4.16
  -8   8  -1    1.76    6.60
  -8   8  -1   -7.01    6.04
   8   8   1    7.79    6.79
   8   8   1    8.98    6.15
   8   8   1   10.59    6.95
  -8   8  -1   -0.40    6.42
  -8   8  -1    4.95    5.63
   7  -9  -1    2.00    3.95
  -7  -9   1    9.75    4.08
   7  -9  -1   12.69    4.83
   7  -9  -1    6.14    6.39
  -7   9   1    8.23    5.47
   7   9  -1    8.96    5.46
  -7   9   1    5.70    5.09
   7   9  -1   13.67    5.68
  -7   9   1   10.81    5.76
   7   9  -1    2.68    4.35
  -7   9   1    5.93    4.86
   6  -9  -1   48.96    6.36
  -6  -9   1   56.97    6.52
   6  -9  -1   53.40    5.22
   6  -9  -1   60.61    7.23
  -6   9   1   52.10    7.07
  -6   9   1   67.07   12.00
   6   9  -1   65.98    7.97
   6   9  -1   56.47    6.79
  -6   9   1   51.01    6.59
   6   9  -1   63.45    7.13
  -6   9   1   66.03    7.28
   5  -9  -1    4.53    3.03
   5  -9  -1    6.47    3.26
   5   9  -1   10.38    6.98
  -5   9   1    9.39    5.69
   5   9  -1    4.40    3.62
  -5   9   1    7.65    3.80
  -5   9   1   -3.28    6.07
  -5   9   1    5.45    4.27
   5   9  -1    5.93    3.22
   4  -9  -1   15.20    2.57
  -4  -9   1   16.11    2.70
   4  -9  -1   21.74    4.18
   4  -9  -1   18.08    2.32
  -4  -9   1   15.49    4.29
   4  -9  -1   11.87    2.98
   4   9  -1   15.06    3.11
   4   9  -1   18.88    3.91
  -4   9   1   15.38    3.61
   4   9  -1   17.05    4.65
  -4   9   1   20.26    4.72
   4   9  -1   14.93    3.14
  -4   9   1   10.94    3.24
  -4   9   1   19.41    4.59
  -4   9   1   19.27    3.70
  -3  -9   1   -2.90    2.17
   3  -9  -1    6.22    1.54
   3  -9  -1    0.49    3.18
   3  -9  -1    5.55    1.74
   3  -9  -1    1.37    2.57
  -3  -9   1    8.69    3.05
  -3  -9   1    3.06    1.60
  -3   9   1    6.08    2.49
  -3   9   1    7.46    3.11
  -3   9   1    4.21    1.48
   3   9  -1    2.71    3.08
   3   9  -1    4.34    2.44
  -3   9   1    1.20    2.47
  -3   9   1   -0.51    2.92
   3   9  -1    7.13    2.14
   3   9  -1    1.82    3.13
   3   9  -1    7.73    2.36
  -3   9   1    4.77    2.41
   2  -9  -1    2.80    2.87
   2  -9  -1    0.75    2.11
   2  -9  -1    1.55    1.24
  -2  -9   1    2.10    1.68
   2  -9  -1    4.43    1.85
  -2  -9   1    2.69    1.72
  -2  -9   1    2.13    2.14
  -2  -9   1    2.68    1.38
  -2   9   1    1.96    1.75
  -2   9   1    1.29    2.22
   2   9  -1    4.87    3.09
   2   9  -1    1.84    1.63
   2   9  -1    1.03    1.54
   2   9  -1    1.97    1.75
  -2   9   1    0.33    1.83
   2   9  -1    4.67    1.91
   2   9  -1    2.49    2.45
   2   9  -1    1.02    2.45
  -2   9   1    4.15    1.70
  -2   9   1    0.76    1.98
  -1  -9   1    8.57    1.56
   1  -9  -1    9.61    1.81
  -1  -9   1   11.44    1.54
  -1  -9   1    7.97    2.15
   1  -9  -1   10.86    3.21
   1  -9  -1    9.50    2.51
   1  -9  -1    6.11    1.93
  -1  -9   1    7.85    2.44
   1   9  -1    7.18    2.03
  -1   9   1    9.47    2.34
   1   9  -1    9.97    2.13
   1   9  -1    7.68    2.00
   1   9  -1    4.74    2.42
  -1   9   1   11.01    2.39
  -1   9   1   10.65    2.45
   1   9  -1    8.86    1.85
  -1   9   1    8.95    2.50
  -1   9   1   10.84    2.87
   1   9  -1    5.52    2.77
  -1   9   1   12.21    2.53
   0  -9   1   77.08    3.34
   0  -9  -1   71.51    3.46
   0  -9   1   82.95    5.26
   0  -9   1   76.68    5.01
   0  -9  -1   88.30    4.52
   0  -9  -1   90.84    5.70
   0  -9  -1   77.89    5.01
   0  -9  -1   83.97    4.84
   0  -9   1   78.95    3.54
   0  -9  -1   81.01    5.30
   0   9   1   77.80    5.28
   0   9   1   82.65    5.07
   0   9  -1   83.69    4.88
   0   9   1   75.96    4.67
   0   9   1   71.91    5.08
   0   9  -1   76.41    4.19
   0   9  -1   83.81    4.53
   0   9  -1   78.68    4.26
   0   9   1   78.12    5.30
   0   9   1   82.10    4.89
   0   9  -1   81.55    3.34
   0   9  -1   77.59    4.15
   0   9  -1   82.02    4.96
   1  -9   1   11.87    2.92
  -1  -9  -1   21.35    3.41
  -1  -9  -1   13.52    2.92
   1  -9   1   16.77    2.18
  -1  -9  -1   14.79    3.06
  -1  -9  -1   15.24    2.25
  -1  -9  -1   13.69    2.52
   1   9   1   17.23    2.74
   1   9   1   16.75    2.64
   1   9   1   17.50    2.84
   1   9   1   15.53    2.72
  -1   9  -1   15.66    2.48
  -1   9  -1   18.54    2.29
   1   9   1   10.69    2.97
   1   9   1    6.19    2.91
  -1   9  -1   19.74    2.41
   1   9   1   20.07    3.40
  -1   9  -1   18.73    3.03
  -1   9  -1   20.28    2.65
  -1   9  -1   18.37    2.28
  -2  -9  -1  100.83    6.16
   2  -9   1  109.12    5.15
   2  -9   1  115.61    5.95
  -2  -9  -1  104.22    3.90
  -2  -9  -1  103.67    5.42
  -2  -9  -1  112.81    5.87
  -2  -9  -1  103.26    4.77
   2  -9   1   95.74    6.08
  -2   9  -1  115.06    5.82
  -2   9  -1  100.09    5.17
  -2   9  -1  110.60    3.64
   2   9   1  101.73    7.23
   2   9   1  107.36    5.90
   2   9   1  102.32    5.19
  -2   9  -1   99.50    5.38
   2   9   1   92.11    5.56
  -2   9  -1  106.76    5.46
  -2   9  -1  108.91    6.56
  -2   9  -1  102.75    5.54
   2   9   1  104.77    6.67
  -3  -9  -1   13.17    2.00
  -3  -9  -1   14.62    1.92
   3  -9   1   11.26    3.23
  -3  -9  -1   16.92    1.86
   3  -9   1   10.91    2.10
  -3  -9  -1   10.30    3.06
  -3  -9  -1    9.76    2.68
   3  -9   1    9.76    3.65
   3   9   1   14.25    3.08
  -3   9  -1   17.57    2.92
  -3   9  -1   15.24    2.96
  -3   9  -1   12.48    3.07
   3   9   1    9.89    3.60
   3   9   1   17.11    3.23
  -3   9  -1   13.50    2.74
   3   9   1   13.71    3.70
  -3   9  -1   13.39    3.35
  -4  -9  -1  145.44    5.74
   4  -9   1  122.76    8.04
   4  -9   1  137.56    6.43
  -4  -9  -1  138.82    7.30
  -4  -9  -1  130.34    5.92
  -4  -9  -1  140.14    6.22
  -4  -9  -1  145.85    8.31
   4   9   1  135.53    7.93
   4   9   1  137.95    8.33
  -4   9  -1  137.73    8.10
  -4   9  -1  136.10    7.37
  -4   9  -1  131.52    7.43
  -4   9  -1  142.03    8.22
  -4   9  -1  141.11    8.96
   4   9   1  138.35    9.07
   4   9   1  133.62    9.57
   5  -9   1    2.46    3.11
  -5  -9  -1    2.33    3.16
  -5  -9  -1    4.89    2.88
  -5  -9  -1   -2.76    2.26
   5   9   1    0.34    4.55
   5   9   1    1.91    3.99
  -5   9  -1    2.29    3.56
  -5   9  -1    4.64    4.74
   5   9   1    7.23    4.88
  -5   9  -1    5.70    4.20
  -6  -9  -1  131.58    8.77
   6  -9   1  139.58    9.53
  -6  -9  -1  141.45    9.35
  -6  -9  -1  141.32    6.97
   6   9   1  127.78   10.56
  -6   9  -1  139.65    8.83
   6   9   1  132.06    9.32
   6   9   1  163.31   10.62
  -6   9  -1  148.93   10.84
  -6   9  -1  139.70   10.79
  -7  -9  -1    3.73    3.74
   7  -9   1    5.07    4.06
  -7  -9  -1   11.51    5.13
   7   9   1    5.49    6.04
   7   9   1    0.49    6.34
  -7   9  -1   -4.78    5.80
  -7   9  -1    8.99    6.88
  -7   9  -1    7.05    5.45
  -7   9  -1    8.98    4.83
   7   9   1   10.05    5.33
   7 -10  -1   29.70    5.92
  -7 -10   1   32.18    5.82
  -7  10   1   31.65    7.37
   7  10  -1   40.46    7.92
  -7  10   1   30.41    6.27
   7  10  -1   40.36    6.21
  -7  10   1   26.08    7.31
   7  10  -1   27.68    6.51
  -7  10   1   38.42    7.94
   6 -10  -1   54.94    6.85
  -6 -10   1   38.06    5.88
   6 -10  -1   42.01    5.08
  -6  10   1   39.33    6.51
  -6  10   1   43.41    6.60
  -6  10   1   37.08    6.37
   6  10  -1   45.78    5.89
   6  10  -1   39.21    6.80
  -6  10   1   42.39    5.80
  -5 -10   1   13.16    3.84
   5 -10  -1   12.41    4.01
   5 -10  -1   13.33    4.00
   5 -10  -1   15.03    2.41
   5  10  -1   16.27    5.40
  -5  10   1   10.55    4.70
  -5  10   1   13.10    4.71
   5  10  -1   12.26    3.67
  -5  10   1   19.04    5.44
   5  10  -1   17.69    4.48
  -5  10   1   11.09    3.93
   4 -10  -1  201.57    6.71
   4 -10  -1  193.63   10.06
   4 -10  -1  195.24    6.21
  -4  10   1  177.33   10.84
   4  10  -1  182.34    9.14
   4  10  -1  181.94    8.81
  -4  10   1  199.17    9.57
  -4  10   1  192.96    9.62
  -3 -10   1   -1.50    1.83
   3 -10  -1    2.22    3.97
   3 -10  -1   -5.66    2.70
   3 -10  -1    2.26    2.81
  -3 -10   1   -0.21    1.94
   3  10  -1    2.39    2.95
   3  10  -1   -2.59    2.32
   3  10  -1    4.82    4.04
  -3  10   1    1.38    1.71
  -3  10   1    0.11    3.72
  -3  10   1    3.57    3.24
   3  10  -1    0.89    2.37
  -3  10   1    1.53    2.53
  -3  10   1   -2.84    3.55
  -3  10   1   -5.39    2.24
  -2 -10   1  198.87    7.13
  -2 -10   1  216.89    7.10
  -2 -10   1  227.93    8.01
   2 -10  -1  216.24    8.36
   2 -10  -1  213.71    8.57
  -2 -10   1  198.35    9.34
   2 -10  -1  215.48    9.46
  -2  10   1  211.53    7.80
  -2  10   1  216.65    8.89
  -2  10   1  206.32    9.75
   2  10  -1  258.13   13.03
   2  10  -1  206.58    7.75
  -2  10   1  218.76    9.01
   2  10  -1  210.57   10.11
   2  10  -1  207.55    8.12
  -2  10   1  239.35    9.67
   2  10  -1  211.52    8.34
   2  10  -1  226.31    8.42
  -1 -10   1    6.17    2.40
  -1 -10   1    6.49    1.58
   1 -10  -1    5.88    2.71
   1 -10  -1   10.05    2.47
  -1 -10   1    7.10    3.00
  -1 -10   1    9.64    1.78
  -1  10   1    6.29    2.72
   1  10  -1    6.66    3.45
   1  10  -1   10.48    2.17
   1  10  -1   11.62    2.59
   1  10  -1    9.27    2.14
  -1  10   1   11.83    2.65
   1  10  -1   11.18    2.26
  -1  10   1    6.59    2.54
   1  10  -1    6.31    2.82
   1  10  -1   10.21    3.59
  -1  10   1   12.23    2.85
   0 -10   1  132.58    4.83
   0 -10  -1  134.67    7.42
   0 -10   1  137.25    7.05
   0 -10   1  130.42    7.22
   0 -10  -1  143.36    6.14
   0 -10   1  133.66    5.04
   0 -10  -1  157.90    8.30
   0  10   1  155.08    7.21
   0  10   1  144.85    6.84
   0  10  -1  138.11    6.08
   0  10  -1  148.79    7.00
   0  10  -1  137.99    5.96
   0  10   1  134.92    6.70
   0  10  -1  132.46    6.77
   0  10  -1  136.64    6.69
   0  10   1  130.91    7.05
   0  10  -1  148.14    6.12
   0  10   1  138.64    7.37
  -1 -10  -1   36.75    4.38
   1 -10   1   37.15    4.29
  -1 -10  -1   33.44    4.53
  -1 -10  -1   31.56    3.82
   1 -10   1   37.23    2.85
  -1 -10  -1   31.39    3.71
  -1  10  -1   37.99    3.75
   1  10   1   35.33    4.17
  -1  10  -1   38.94    4.44
  -1  10  -1   34.96    3.76
  -1  10  -1   33.49    3.36
   1  10   1   39.97    4.23
   1  10   1   42.79    4.46
  -1  10  -1   35.65    3.43
  -1  10  -1   28.96    3.59
  -1  10  -1   38.78    4.76
   1  10   1   32.99    4.90
  -2 -10  -1   16.45    2.90
   2 -10   1   24.18    3.74
  -2 -10  -1   14.25    3.88
   2 -10   1   13.26    4.26
   2 -10   1   18.00    2.24
  -2 -10  -1   19.05    2.56
  -2 -10  -1   22.22    3.78
   2  10   1   19.07    3.16
   2  10   1   19.49    3.62
   2  10   1   12.40    3.83
  -2  10  -1   17.15    2.21
  -2  10  -1   16.55    2.81
   2  10   1   15.49    2.73
  -2  10  -1   14.28    3.85
  -2  10  -1   16.19    2.69
   2  10   1   18.90    4.61
  -2  10  -1   18.44    2.99
  -2  10  -1   15.59    3.06
   3 -10   1   46.03    5.45
  -3 -10  -1   43.48    3.36
  -3 -10  -1   51.71    5.97
  -3 -10  -1   55.38    6.14
  -3 -10  -1   57.61    5.54
  -3  10  -1   45.74    5.21
  -3  10  -1   47.91    5.04
   3  10   1   54.77    5.23
  -3  10  -1   54.96    5.66
   3  10   1   50.39    6.07
  -3  10  -1   45.26    5.09
   3  10   1   52.72    7.05
   3  10   1   43.30    6.14
  -3  10  -1   52.00    6.70
   4 -10   1   -4.41    2.57
   4 -10   1   -0.67    2.88
  -4 -10  -1    3.89    3.05
  -4  10  -1   -1.60    3.47
  -4  10  -1   -2.05    4.40
   4  10   1    0.71    4.53
   4  10   1   -1.55    3.96
  -4  10  -1    0.11    2.87
  -4  10  -1    0.32    3.17
   4  10   1   -1.89    3.55
  -5 -10  -1   21.08    2.64
   5 -10   1   24.49    5.08
  -5 -10  -1   21.99    4.62
  -5 -10  -1   15.63    4.46
  -5  10  -1   22.93    5.62
  -5  10  -1   15.56    5.35
   5  10   1   20.29    4.86
   5  10   1   34.03    6.42
  -5  10  -1   17.88    4.05
  -6 -10  -1   27.55    5.09
   6 -10   1   37.22    5.79
  -6  10  -1   35.37    7.05
  -6  10  -1   34.25    6.17
   6  10   1   37.87    6.18
  -6  10  -1   30.23    5.37
   6  10   1   46.95    7.12
   6  10   1   35.01    7.35
  -6  10  -1   30.89    6.45
   6 -11  -1    5.10    4.08
  -6 -11   1   -0.95    3.62
   6  11  -1    6.14    6.45
  -6  11   1    4.46    5.56
  -6  11   1    6.93    4.94
  -6  11   1    9.57    6.31
  -6  11   1   10.16    5.92
   6  11  -1    1.85    4.93
   6  11  -1   14.66    6.01
   5 -11  -1  116.64    8.74
  -5 -11   1   79.68    7.56
  -5  11   1   99.51    8.45
   5  11  -1   83.43   10.21
  -5  11   1   90.42    8.71
  -5  11   1   93.43   11.92
   5  11  -1  106.81    8.16
  -5  11   1   96.86    8.96
   5  11  -1   82.68    9.59
  -4 -11   1    5.66    3.42
   4 -11  -1   -3.04    3.14
   4  11  -1   -3.65    3.23
   4  11  -1    7.89    4.47
  -4  11   1    5.14    3.95
  -4  11   1    4.70    4.52
  -4  11   1    4.63    3.72
   4  11  -1    0.56    3.43
  -4  11   1    9.71    4.22
  -3 -11   1  131.09    8.00
   3 -11  -1  142.70    8.74
  -3 -11   1  151.41    6.23
   3 -11  -1  152.69    7.48
   3  11  -1  136.47    7.99
  -3  11   1  121.96   15.33
  -3  11   1  152.26    8.55
  -3  11   1  127.00   10.68
   3  11  -1  156.48   10.12
   3  11  -1  160.20    7.81
  -2 -11   1    6.26    2.59
   2 -11  -1    1.47    2.82
  -2 -11   1    2.69    3.17
   2 -11  -1    2.24    2.60
  -2  11   1    3.08    3.89
   2  11  -1   -0.39    2.19
  -2  11   1    1.41    3.25
   2  11  -1   -2.37    2.75
  -2  11   1   -1.01    2.52
   2  11  -1    3.98    2.64
   2  11  -1   -0.62    3.91
   2  11  -1   -1.26    2.60
   1 -11  -1   99.32    5.77
   1 -11  -1  102.88    6.57
  -1 -11   1   92.58    6.25
  -1 -11   1  100.60    4.00
  -1 -11   1   92.21    7.17
   1  11  -1   97.53    5.70
  -1  11   1  100.31    6.81
  -1  11   1  105.62    7.17
   1  11  -1   99.84    5.88
   1  11  -1  103.82    8.54
  -1  11   1   97.58    6.30
   1  11  -1  105.15    5.82
  -1  11   1   99.85    6.93
   1  11  -1  104.52    5.99
  -1  11   1  106.33    7.50
   0 -11   1    5.12    2.61
   0 -11  -1    5.67    3.20
   0 -11  -1   -1.09    2.31
   0 -11  -1   -4.25    2.03
   0  11  -1   -1.06    2.41
   0  11   1    1.67    2.80
   0  11   1   -1.45    2.50
   0  11  -1    0.24    2.22
   0  11  -1   -4.31    3.43
   0  11  -1    1.29    2.30
   0  11   1    0.66    3.02
   0  11   1   -0.03    3.54
   0  11  -1   -4.03    2.45
  -1 -11  -1   62.87    6.50
   1 -11   1   61.92    3.92
   1 -11   1   65.93    5.46
  -1 -11  -1   67.68    4.92
  -1 -11  -1   66.36    5.89
   1 -11   1   62.18    3.39
  -1  11  -1   60.91    4.08
   1  11   1   60.95    5.39
  -1  11  -1   55.65    6.26
   1  11   1   60.73    5.95
  -1  11  -1   51.09    5.04
   1  11   1   60.51    6.36
  -1  11  -1   50.37    5.44
   1  11   1   57.49    7.12
  -1  11  -1   62.08    4.85
   1  11   1   57.85    5.37
  -1  11  -1   67.64    4.85
   2 -11   1   -0.55    2.56
  -2 -11  -1   -0.82    2.66
  -2 -11  -1   -0.71    2.45
  -2 -11  -1   -2.14    3.28
   2  11   1   -1.03    2.78
  -2  11  -1   -3.68    2.73
  -2  11  -1   -2.81    4.02
   2  11   1   -0.61    2.37
   2  11   1   -0.19    5.37
   2  11   1    0.23    3.43
  -2  11  -1    2.06    2.59
  -2  11  -1   -1.82    2.38
   3 -11   1   31.57    4.75
  -3 -11  -1   19.88    4.12
  -3 -11  -1   22.79    3.73
  -3 -11  -1   25.69    3.62
  -3  11  -1   21.96    4.48
   3  11   1   24.17    4.49
   3  11   1   18.05    4.20
  -3  11  -1   20.96    3.88
  -3  11  -1   18.24    3.69
   3  11   1   27.70    5.53
  -3  11  -1   29.39    5.48
   4 -11   1    6.82    3.70
  -4 -11  -1    8.35    3.57
   4  11   1    9.04    4.24
  -4  11  -1    9.16    5.25
   4  11   1    0.29    4.71
  -4  11  -1   -1.06    4.13
   4  11   1   16.89    5.57
  -4  11  -1   11.20    4.78
  -4  11  -1    8.56    3.73
   5 -11   1    0.18    3.85
  -5 -11  -1    3.50    3.66
  -5  11  -1   -8.32    8.38
   5  11   1    4.71    5.62
   5  11   1    6.36    5.31
  -5  11  -1    0.82    5.06
   5  11   1   14.97    4.99
  -5  11  -1   -1.14    5.13
  -5  11  -1   -0.81    4.11
  -6 -11  -1    4.60    4.02
   6 -11   1   10.18    4.66
   6  11   1   13.95    6.70
  -6  11  -1    0.12    6.14
   6  11   1    7.56    6.28
  -6  11  -1   11.80    5.23
   6  11   1   18.67    6.10
  -6  11  -1   14.05    5.82
  -6  11  -1    6.70    6.31
  -5 -12   1   28.43    5.42
   5 -12  -1   43.00    6.50
  -5  12   1   36.20    6.46
   5  12  -1   32.78    6.50
   5  12  -1   27.68    7.67
  -5  12   1   51.55    6.38
   5  12  -1   43.71    6.21
  -5  12   1   25.30    6.58
  -4 -12   1   37.81    5.48
   4 -12  -1   42.25    5.96
   4  12  -1   33.36    4.95
  -4  12   1   33.07    5.44
   4  12  -1   29.44    6.95
  -4  12   1   28.54    6.57
  -4  12   1   38.15    6.12
   4  12  -1   36.33    6.79
  -3 -12   1    0.15    2.88
   3 -12  -1    3.29    3.47
  -3  12   1   -3.31    4.39
  -3  12   1    8.01    4.89
   3  12  -1    3.41    3.06
   3  12  -1    1.17    3.67
  -3  12   1    2.81    3.40
   3  12  -1    8.38    4.89
  -2 -12   1   71.15    6.40
  -2 -12   1   61.07    6.20
   2 -12  -1   64.22    6.46
  -2  12   1   65.20    7.17
  -2  12   1   69.90    7.65
   2  12  -1   66.82    6.14
   2  12  -1   67.68    8.26
  -2  12   1   59.39    6.17
   2  12  -1   63.82    5.47
  -1 -12   1   33.16    3.99
  -1 -12   1   28.87    4.30
   1 -12  -1   34.19    4.78
   1  12  -1   34.34    4.27
  -1  12   1   34.85    4.76
  -1  12   1   28.06    4.51
   1  12  -1   26.92    4.05
  -1  12   1   35.61    5.87
   1  12  -1   24.68    5.15
   1  12  -1   27.92    3.72
   0 -12   1   41.03    5.08
   0 -12  -1   35.98    4.40
   0  12  -1   41.71    5.09
   0  12   1   43.60    5.72
   0  12  -1   47.35    5.01
   0  12   1   37.84    4.97
   0  12   1   45.76    5.88
   0  12  -1   39.40    5.03
  -1 -12  -1   77.16    5.62
   1 -12   1   84.82    6.62
  -1 -12  -1   58.76    6.22
  -1  12  -1   66.81    5.71
  -1  12  -1   65.45    5.72
   1  12   1   78.61    6.63
   1  12   1   70.38    6.41
  -1  12  -1   79.67    8.19
   1  12   1   86.81    8.37
   1  12   1   66.12    6.80
   2 -12   1    1.89    3.48
  -2 -12  -1    8.15    3.16
  -2 -12  -1    7.34    3.36
   2  12   1   10.64    4.43
   2  12   1   15.49    3.87
  -2  12  -1   13.89    4.22
  -2  12  -1   15.94    3.45
  -2  12  -1    9.09    3.25
   2  12   1    4.69    4.58
   2  12   1   13.64    3.21
  -2  12  -1    8.82    4.45
   3 -12   1  100.74    7.91
  -3 -12  -1   93.23    7.30
  -3  12  -1  108.82    8.04
   3  12   1   91.31    9.46
  -3  12  -1   95.88    9.41
   3  12   1  102.98    7.82
   3  12   1   90.36    9.25
  -3  12  -1  118.77    8.30
  -3  12  -1  104.85    7.19
  -4 -12  -1   -1.72    3.45
   4 -12   1    0.83    3.71
   4  12   1    6.04    5.63
   4  12   1    0.32    4.62
  -4  12  -1   -4.37    4.98
  -4  12  -1    9.99    6.15
   4  12   1   -3.41    4.95
  -4  12  -1    3.81    3.88
  -4  12  -1   -5.61    5.83
  -5 -12  -1   67.10    7.20
   5 -12   1   85.35    8.50
  -5  12  -1   64.55    7.07
   5  12   1   62.91    7.39
  -5  12  -1   45.48    7.36
   5  12   1   57.63    7.73
  -5  12  -1   62.21    7.67
   5  12   1   64.77    8.86
  -5  12  -1   72.61    8.90
   4 -13  -1    8.96    4.39
  -4 -13   1    4.76    3.56
   4  13  -1    6.07    6.55
   4  13  -1    2.52    6.16
  -4  13   1    6.25    5.36
  -4  13   1    2.59    6.48
   4  13  -1   -5.18    4.54
  -4  13   1   14.45    5.91
   3 -13  -1    1.28    3.71
  -3 -13   1    4.72    3.50
   3  13  -1    0.63    6.11
   3  13  -1    5.83    3.81
  -3  13   1    8.92    5.09
   3  13  -1   -8.01    5.87
  -3  13   1   -1.47    4.36
  -3  13   1   -5.75    5.38
  -2 -13   1   -1.14    3.32
  -2 -13   1   -0.96    3.20
   2 -13  -1    0.92    3.57
   2  13  -1   -1.14    4.46
   2  13  -1   -0.54    3.52
   2  13  -1  -11.59    5.14
  -2  13   1    6.98    4.87
  -2  13   1   -4.44    3.53
   2  13  -1    0.89    3.29
   1 -13  -1   -3.44    3.28
  -1 -13   1    3.94    2.97
  -1 -13   1    4.03    3.68
   1  13  -1   -0.80    2.95
   1  13  -1    0.44    4.63
  -1  13   1    4.72    4.72
   1  13  -1    3.69    4.34
   1  13  -1   -8.11    3.73
  -1  13   1    1.46    4.98
  -1  13   1    6.57    3.67
   0 -13   1   25.90    4.38
   0 -13  -1   12.21    3.80
   0  13  -1   22.77    4.27
   0  13   1   19.64    5.55
   0  13   1   28.96    5.57
   0  13  -1   29.55    6.74
   0  13   1   22.75    6.62
   0  13  -1   16.54    5.46
   0  13  -1   20.67    3.57
   0  13   1   25.60    4.37
  -1 -13  -1    1.54    3.43
   1 -13   1   -0.11    3.73
  -1 -13  -1   -4.92    3.26
  -1  13  -1    3.24    3.11
   1  13   1   -0.76    3.77
   1  13   1    7.11    5.50
   1  13   1    1.81    5.19
   1  13   1   -2.24    4.80
  -1  13  -1    3.49    4.11
  -1  13  -1   -1.91    4.81
  -2 -13  -1   72.28    7.35
   2 -13   1   75.39    7.30
   2  13   1   82.11    7.94
  -2  13  -1   91.60    9.21
   2  13   1   70.53    8.70
  -2  13  -1   78.04    6.44
  -2  13  -1   64.11    6.90
  -3 -13  -1   -0.30    3.42
   3 -13   1   -6.03    3.89
  -3  13  -1    0.24    9.04
   3  13   1    2.41    6.01
   3  13   1   -4.73    5.25
   3  13   1    4.94    5.16
  -3  13  -1   -5.90    3.66
  -3  13  -1    2.15    5.88
   1 -14  -1    7.77    4.16
  -1 -14   1    7.78    4.22
   1  14  -1   15.41    7.08
   1  14  -1   -3.67    6.35
  -1  14   1    1.62    4.37
  -1  14   1   15.90    5.84
   1  14  -1    2.62    3.79
  -1  14   1   -6.67    5.79
   0 -14  -1   50.47    5.77
   0 -14   1   47.90    5.91
   0  14   1   42.12    5.84
   0  14  -1   48.30    6.39
   0  14   1   41.61    6.42
   0  14  -1   54.36    8.80
   0  14   1   43.14    7.57
   0  14  -1   51.29    6.48
   0  14   1   48.03    7.25
   1 -14   1   20.85    5.18
  -1 -14  -1   23.38    4.77
   1  14   1   12.27    6.55
   1  14   1   19.26    6.61
  -1  14  -1   29.96    4.65
   1  14   1   27.02    6.19
  -1  14  -1   20.56    5.90
   1  14   1   29.78    5.32
 -10   0   2    2.63    4.03
  10   0  -2    6.13    5.89
 -10   0   2    0.13    5.86
  10   0  -2    6.63    6.49
 -10   0   2    6.39    5.73
  10   0  -2   -1.32    6.58
 -10   0   2    8.45    7.05
   9   0  -2    3.25    4.47
   9   0  -2    0.00    2.99
  -9   0   2    3.21    4.57
   9   0  -2    0.48    4.60
  -9   0   2   -2.07    2.95
  -9   0   2   -1.10    2.93
  -9   0   2   -0.84    3.32
  -9   0   2    0.22    5.60
  -9   0   2   -1.78    4.19
   9   0  -2   -3.12    4.74
   8   0  -2   86.31    8.89
  -8   0   2   98.45    8.07
  -8   0   2  104.06    7.74
   8   0  -2  100.96    5.44
  -8   0   2   85.14    7.92
   8   0  -2  111.35    8.69
   8   0  -2   92.78    9.33
  -8   0   2   97.58    5.59
  -8   0   2  105.87    6.12
  -7   0   2   -1.94    2.31
   7   0  -2    1.11    2.75
   7   0  -2    0.11    2.58
   7   0  -2    1.27    3.17
  -7   0   2   -0.53    2.52
  -7   0   2   -0.41    2.39
  -7   0   2   -3.65    2.08
  -7   0   2    2.55    1.78
   7   0  -2   -0.78    1.72
  -6   0   2  395.48   13.38
   6   0  -2  401.48   14.18
  -6   0   2  410.18   12.11
   6   0  -2  400.47   13.90
   6   0  -2  423.33   13.87
  -6   0   2  414.41   13.78
  -6   0   2  427.62   13.75
   6   0  -2  419.33   12.23
  -6   0   2  386.74   13.83
   6   0  -2  392.49   13.62
  -6   0   2  375.36   14.00
   6   0  -2  403.02   13.96
  -6   0   2  412.95   13.80
  -6   0   2  392.28   12.59
   6   0  -2  422.03   13.73
  -5   0   2    1.60    1.67
  -5   0   2    1.70    2.19
   5   0  -2   -0.76    1.67
   5   0  -2   -0.08    1.83
  -5   0   2   -1.51    1.85
   5   0  -2    1.67    1.83
  -5   0   2    0.19    1.57
   5   0  -2    1.26    1.82
  -5   0   2    0.13    1.51
   5   0  -2   -0.05    1.86
  -5   0   2    2.15    1.99
  -5   0   2   -0.66    1.28
   5   0  -2    0.51    1.34
  -5   0   2    1.92    1.75
   5   0  -2    1.28    1.87
  -4   0   2  539.05   15.40
  -4   0   2  511.23   15.07
  -4   0   2  530.03   15.03
   4   0  -2  503.42   15.29
   4   0  -2  515.10   15.10
  -4   0   2  504.63   13.91
  -4   0   2  518.09   14.83
  -4   0   2  497.19   14.72
   4   0  -2  528.80   15.08
   4   0  -2  514.33   15.01
   4   0  -2  521.16   14.82
  -4   0   2  523.70   14.33
   3   0  -2    2.20    1.21
   3   0  -2    0.32    1.07
  -3   0   2    0.76    1.23
  -3   0   2   -0.77    1.04
  -3   0   2    0.74    1.28
  -3   0   2    0.26    0.75
   3   0  -2    0.77    1.32
  -3   0   2   -0.19    1.08
   3   0  -2    1.04    0.74
  -3   0   2    0.64    1.10
  -3   0   2    1.48    1.28
  -3   0   2    0.60    1.15
   3   0  -2    1.44    1.31
   3   0  -2    0.23    0.97
   3   0  -2    0.56    1.21
  -2   0   2  317.64    8.81
  -2   0   2  297.04    8.62
  -2   0   2  321.82    8.63
   2   0  -2  306.80    8.76
  -2   0   2  299.43    8.34
  -2   0   2  317.64    8.72
   2   0  -2  318.85    8.95
  -2   0   2  311.92    8.85
   2   0  -2  306.25    8.32
  -2   0   2  325.44    8.84
   2   0  -2  313.09    8.79
   2   0  -2  300.66    8.84
   2   0  -2  297.57    8.78
   2   0  -2  318.90    8.73
  -1   0   2    0.65    0.71
   1   0  -2    1.93    0.77
   1   0  -2   -0.01    0.63
   1   0  -2    0.17    0.71
  -1   0   2    0.91    0.80
   1   0  -2   -0.29    0.65
  -1   0   2    0.02    0.82
  -1   0   2    0.20    0.73
  -1   0   2    0.13    0.61
  -1   0   2    0.66    0.75
  -1   0   2   -0.12    0.64
   1   0  -2    0.41    0.83
  -1   0   2   -0.19    0.63
   1   0  -2    0.26    0.66
   1   0  -2   -0.25    0.58
   0   0  -2  152.75    4.51
   0   0  -2  158.04    4.78
   0   0   2  152.30    3.94
   0   0  -2  154.56    4.42
   0   0   2  157.41    4.47
   0   0  -2  149.41    4.61
   0   0   2  159.07    4.37
   0   0  -2  157.82    4.51
   0   0   2  154.09    4.60
   0   0   2  153.21    4.53
   0   0  -2  152.58    4.50
   0   0   2  154.20    4.47
   1   0   2   -0.30    0.90
  -1   0  -2    0.50    0.95
  -1   0  -2    0.71    0.68
   1   0   2   -0.26    0.79
  -1   0  -2   -0.19    0.94
  -1   0  -2    1.63    0.80
   1   0   2    1.68    0.97
  -1   0  -2   -0.01    1.02
   1   0   2    0.47    0.78
   1   0   2   -0.54    0.73
  -1   0  -2   -0.23    0.78
   1   0   2   -0.74    0.86
  -1   0  -2    0.48    0.97
  -1   0  -2    1.74    0.97
  -1   0  -2    0.25    0.78
   1   0   2    0.23    1.01
   2   0   2   71.78    3.34
   2   0   2   75.10    3.15
   2   0   2   70.74    3.36
  -2   0  -2   69.24    3.18
  -2   0  -2   76.18    3.40
  -2   0  -2   77.13    3.55
  -2   0  -2   79.57    3.71
   2   0   2   67.06    3.36
   2   0   2   65.84    3.88
   2   0   2   69.50    2.94
   2   0   2   69.89    3.45
   2   0   2   72.85    3.16
  -2   0  -2   74.61    3.52
   3   0   2   -0.13    1.34
   3   0   2    0.84    1.26
   3   0   2    0.49    1.40
   3   0   2    0.34    0.96
   3   0   2    0.55    1.29
   3   0   2   -1.30    1.11
  -3   0  -2   -2.09    1.26
   3   0   2   -0.08    1.08
   3   0   2    0.20    1.43
  -3   0  -2   -2.08    1.25
  -3   0  -2    0.38    1.43
  -3   0  -2   -1.93    1.18
  -3   0  -2    0.27    1.22
  -4   0  -2  130.50    5.98
  -4   0  -2  115.99    5.56
  -4   0  -2  121.95    5.78
   4   0   2  114.52    5.88
   4   0   2  123.93    5.38
   4   0   2  123.18    5.57
  -4   0  -2  122.93    5.72
   4   0   2  128.37    5.08
   4   0   2  114.97    5.92
  -4   0  -2  124.70    6.02
   4   0   2  125.70    4.95
  -4   0  -2  126.58    5.84
   4   0   2  125.04    5.81
   4   0   2  126.90    5.82
  -5   0  -2    1.74    2.24
   5   0   2    1.00    2.23
   5   0   2    5.40    2.63
   5   0   2    0.50    2.11
   5   0   2    1.56    1.57
   5   0   2    2.20    1.81
  -5   0  -2    1.56    1.96
  -5   0  -2    2.73    2.60
  -5   0  -2   -1.74    2.38
  -5   0  -2    3.15    2.61
   5   0   2    0.87    2.09
  -5   0  -2    2.25    2.00
   5   0   2    4.19    2.21
   5   0   2    0.64    2.14
  -6   0  -2  144.77    7.49
  -6   0  -2  131.87    6.91
   6   0   2  151.62    7.82
  -6   0  -2  139.88    7.42
   6   0   2  131.86    6.66
   6   0   2  131.27    7.76
  -6   0  -2  135.98    8.65
   6   0   2  126.57    7.22
   6   0   2  131.10    5.81
   7   0   2    5.62    4.01
  -7   0  -2    1.78    2.75
   7   0   2    2.92    3.75
  -7   0  -2    2.11    3.33
   7   0   2   -0.85    3.62
   7   0   2   -5.59    3.12
  -7   0  -2   -3.67    3.31
  -7   0  -2    1.48    2.42
   7   0   2    1.78    2.15
  -7   0  -2   -0.31    3.67
   8   0   2   76.31    5.34
   8   0   2   70.87    9.45
  -8   0  -2   95.01    7.34
   8   0   2   78.51    8.90
  -8   0  -2   91.63    8.19
   8   0   2   65.48    8.07
  -8   0  -2   75.64    8.49
  -9   0  -2   -7.99    7.44
  -9   0  -2    1.20    5.81
   9   0   2   14.71    6.34
  -9   0  -2    3.38    3.62
   9   0   2   -3.88    5.36
  -9   0  -2    5.81    5.12
   9   0   2    4.17    4.67
  -9   0  -2   -4.31    5.37
 -10  -1   2   38.29    8.20
  10  -1  -2   57.08    8.46
  10  -1  -2   33.70    6.59
  10  -1  -2   37.88    4.84
 -10  -1   2   35.70    5.79
 -10  -1   2   40.39    7.38
  10  -1  -2   47.56    8.01
 -10  -1   2   33.69    6.79
 -10   1   2   37.88    6.17
 -10   1   2   60.56    8.13
  10   1  -2   45.08    8.29
  10   1  -2   48.86    8.18
 -10   1   2   46.22    7.16
  10   1  -2   31.63    7.65
 -10   1   2   47.89    8.28
  -9  -1   2   30.56    5.59
  -9  -1   2   40.52    4.76
  -9  -1   2   37.17    7.22
  -9  -1   2   37.62    4.74
   9  -1  -2   34.71    6.49
  -9  -1   2   32.59    4.92
   9  -1  -2   29.04    5.24
  -9  -1   2   31.67    5.68
   9  -1  -2   26.41    3.92
   9  -1  -2   33.20    6.10
  -9   1   2   34.19    4.49
   9   1  -2   38.07    6.87
   9   1  -2   42.46    4.61
   9   1  -2   35.05    6.48
  -9   1   2   35.27    6.15
  -9   1   2   32.83    5.71
  -9   1   2   40.63    7.55
  -9   1   2   44.33    4.81
   9   1  -2   36.98    6.21
  -8  -1   2   15.76    2.69
   8  -1  -2   20.08    5.32
  -8  -1   2   16.41    5.05
  -8  -1   2   12.90    3.91
  -8  -1   2   19.90    3.57
  -8  -1   2   19.93    4.94
   8  -1  -2   12.40    4.67
  -8  -1   2   15.72    4.04
  -8   1   2   18.23    4.95
  -8   1   2    7.41    4.36
   8   1  -2   20.88    5.71
  -8   1   2   18.55    4.66
   8   1  -2   16.06    2.45
   8   1  -2   19.89    5.05
  -8   1   2   15.44    3.07
  -8   1   2   16.28    3.11
   8   1  -2   12.37    4.74
  -7  -1   2   83.25    5.94
   7  -1  -2   81.70    6.49
  -7  -1   2   91.46    6.61
   7  -1  -2   90.86    5.12
   7  -1  -2   94.56    6.63
  -7  -1   2   81.13    5.33
   7  -1  -2   85.25    7.21
  -7  -1   2   85.75    4.37
  -7  -1   2   85.97    5.87
  -7   1   2   79.97    6.02
   7   1  -2   82.94    6.47
  -7   1   2   88.38    6.61
  -7   1   2   84.51    5.08
  -7   1   2   81.36    6.30
   7   1  -2   82.14    8.95
   7   1  -2   84.89    4.29
  -7   1   2   84.08    5.35
   7   1  -2   88.39    7.16
   7   1  -2   80.75    6.47
  -6  -1   2    0.25    1.87
   6  -1  -2   -0.55    2.03
  -6  -1   2   -2.42    2.94
   6  -1  -2   -3.23    2.25
  -6  -1   2    1.29    2.27
   6  -1  -2   -0.18    2.80
   6  -1  -2    5.16    2.85
   6  -1  -2   -1.80    2.09
   6  -1  -2   -2.00    2.63
  -6  -1   2   -2.25    1.93
  -6  -1   2   -0.04    2.01
  -6  -1   2   -0.45    3.08
  -6  -1   2    4.87    2.23
   6  -1  -2    0.96    1.81
  -6  -1   2   -0.96    2.65
   6   1  -2   -4.23    2.56
  -6   1   2    0.95    1.55
  -6   1   2    2.94    3.32
   6   1  -2    3.60    2.71
  -6   1   2    1.76    2.83
  -6   1   2    3.66    2.18
  -6   1   2    1.12    2.04
  -6   1   2    3.32    2.85
  -6   1   2    3.96    2.19
   6   1  -2    2.40    2.49
   6   1  -2    0.66    1.38
   6   1  -2   -1.52    1.95
  -6   1   2    2.43    2.06
   6   1  -2   -0.83    2.15
   6   1  -2   -0.32    2.80
  -5  -1   2  113.67    5.56
  -5  -1   2  117.74    6.19
  -5  -1   2  120.66    5.60
   5  -1  -2  107.84    5.90
   5  -1  -2  117.59    6.00
  -5  -1   2  115.94    5.65
  -5  -1   2  119.07    4.29
  -5  -1   2  117.18    5.45
   5  -1  -2  122.28    5.77
   5  -1  -2  120.94    5.97
   5  -1  -2  116.15    5.95
   5  -1  -2  115.19    5.81
  -5  -1   2  116.39    5.83
   5  -1  -2  121.57    5.21
  -5  -1   2  119.55    5.88
  -5   1   2  117.02    4.99
   5   1  -2  126.08    5.92
   5   1  -2  111.24    5.62
  -5   1   2  127.61    5.98
   5   1  -2  108.72    5.67
   5   1  -2  124.06    5.78
  -5   1   2  107.62    6.14
  -5   1   2  116.53    5.71
  -5   1   2  113.61    5.76
  -5   1   2  127.02    5.84
  -5   1   2  120.46    6.15
  -5   1   2  127.00    5.17
   5   1  -2  116.30    6.27
   5   1  -2  109.71    5.73
   5   1  -2  122.75    4.57
   4  -1  -2   22.77    2.22
  -4  -1   2   23.51    2.90
  -4  -1   2   23.41    2.95
   4  -1  -2   24.10    2.79
   4  -1  -2   25.54    2.74
  -4  -1   2   23.98    2.59
   4  -1  -2   24.14    2.82
   4  -1  -2   28.00    2.97
  -4  -1   2   24.78    1.69
  -4  -1   2   24.86    2.84
  -4  -1   2   26.27    2.68
   4  -1  -2   20.33    2.76
  -4  -1   2   25.56    2.58
   4   1  -2   25.86    2.75
   4   1  -2   25.17    2.74
  -4   1   2   27.43    2.43
  -4   1   2   25.47    2.78
  -4   1   2   24.66    2.86
   4   1  -2   21.80    2.76
  -4   1   2   27.53    3.01
  -4   1   2   26.99    2.95
  -4   1   2   24.60    2.35
   4   1  -2   21.91    2.59
  -4   1   2   27.25    2.83
   4   1  -2   22.34    2.86
   4   1  -2   28.88    2.60
  -4   1   2   26.50    3.03
   3  -1  -2  203.63    6.76
  -3  -1   2  206.76    6.48
  -3  -1   2  212.73    7.03
   3  -1  -2  190.34    6.84
   3  -1  -2  204.31    6.94
  -3  -1   2  202.71    6.47
   3  -1  -2  198.27    6.25
  -3  -1   2  189.54    6.71
  -3  -1   2  187.11    7.08
  -3  -1   2  211.27    6.46
  -3  -1   2  200.48    5.57
  -3  -1   2  193.43    6.52
   3  -1  -2  190.55    7.48
  -3   1   2  199.51    6.31
   3   1  -2  217.35    6.69
  -3   1   2  210.68    6.71
  -3   1   2  202.14    6.16
  -3   1   2  209.58    6.87
   3   1  -2  203.29    5.54
   3   1  -2  207.27    6.63
   3   1  -2  190.66    6.90
   3   1  -2  198.41    6.46
  -3   1   2  207.48    6.80
   3   1  -2  181.58    7.20
  -3   1   2  175.92    7.39
   2  -1  -2    1.48    0.92
   2  -1  -2    0.18    0.93
  -2  -1   2    1.96    0.80
   2  -1  -2    0.16    0.98
  -2  -1   2    1.41    0.94
   2  -1  -2    0.53    0.90
   2  -1  -2    2.24    1.13
  -2  -1   2    1.84    0.88
   2  -1  -2    0.23    1.05
  -2  -1   2    2.43    1.09
  -2  -1   2    0.72    0.79
   2  -1  -2    2.50    1.06
  -2  -1   2    2.57    1.12
  -2  -1   2    0.87    0.56
   2   1  -2    0.31    0.87
   2   1  -2    2.23    1.18
  -2   1   2    0.33    1.04
  -2   1   2    1.37    1.05
   2   1  -2    1.16    0.91
   2   1  -2    1.74    0.95
  -2   1   2    0.29    0.99
  -2   1   2    1.16    0.97
  -2   1   2    0.94    1.04
  -2   1   2    1.55    1.16
   2   1  -2    1.68    0.53
  -2   1   2    2.49    1.05
  -2   1   2    0.00    0.91
   2   1  -2    1.35    0.84
   2   1  -2    0.58    0.88
   1  -1  -2  165.66    4.97
  -1  -1   2  161.86    4.64
  -1  -1   2  166.79    4.93
  -1  -1   2  166.00    4.50
   1  -1  -2  162.26    5.00
   1  -1  -2  160.11    4.96
   1  -1  -2  163.98    5.00
  -1  -1   2  161.31    4.12
   1  -1  -2  161.24    4.94
   1  -1  -2  163.35    4.91
   1   1  -2  160.51    4.37
   1   1  -2  162.11    4.94
   1   1  -2  161.74    4.53
  -1   1   2  162.43    4.92
   1   1  -2  163.77    4.52
   1   1  -2  159.36    4.43
  -1   1   2  152.21    4.91
  -1   1   2  155.57    4.90
   1   1  -2  156.80    4.67
  -1   1   2  158.93    4.83
  -1   1   2  153.78    4.96
  -1   1   2  160.77    4.94
   0  -1   2  176.64    4.35
   0  -1  -2  170.75    5.21
   0  -1  -2  168.77    5.25
   0  -1   2  170.26    5.32
   0  -1  -2  179.88    5.24
   0  -1   2  177.77    5.02
   0  -1  -2  172.71    5.24
   0  -1  -2  169.08    5.26
   0  -1  -2  178.70    4.80
   0  -1   2  172.53    4.62
   0   1  -2  172.95    4.71
   0   1  -2  172.65    4.52
   0   1  -2  181.50    5.39
   0   1   2  168.62    5.21
   0   1  -2  173.84    4.99
   0   1  -2  172.92    4.70
   0   1  -2  175.79    4.61
   0   1   2  179.38    5.24
   0   1   2  174.57    5.25
   0   1  -2  168.98    4.36
   0   1   2  170.57    5.19
   0   1   2  166.98    5.07
  -1  -1  -2   29.99    2.21
  -1  -1  -2   29.39    2.10
  -1  -1  -2   31.22    2.22
   1  -1   2   31.38    1.78
   1  -1   2   29.93    1.68
   1  -1   2   30.65    1.92
  -1  -1  -2   29.96    2.04
  -1  -1  -2   29.42    1.99
  -1  -1  -2   32.23    1.77
   1  -1   2   30.03    2.11
   1  -1   2   30.29    1.56
  -1  -1  -2   27.06    1.94
  -1  -1  -2   30.64    1.88
   1  -1   2   30.08    1.55
  -1   1  -2   30.12    1.75
   1   1   2   33.63    2.08
  -1   1  -2   30.57    1.96
   1   1   2   29.70    1.98
  -1   1  -2   29.01    1.58
  -1   1  -2   30.93    1.94
   1   1   2   30.99    2.29
  -1   1  -2   30.92    2.16
   1   1   2   27.60    2.01
   1   1   2   28.17    2.26
  -1   1  -2   28.97    2.26
  -1   1  -2   31.25    1.88
   1   1   2   29.33    1.99
  -1   1  -2   31.29    1.80
   2  -1   2  196.12    6.30
   2  -1   2  191.40    5.57
   2  -1   2  202.42    6.31
   2  -1   2  185.83    6.26
   2  -1   2  188.87    5.92
   2  -1   2  183.60    6.14
  -2  -1  -2  192.29    6.22
  -2  -1  -2  196.71    6.41
   2  -1   2  200.41    6.53
  -2  -1  -2  189.87    5.79
  -2  -1  -2  193.12    6.49
  -2  -1  -2  201.58    6.64
  -2  -1  -2  182.62    6.32
  -2  -1  -2  190.85    6.55
  -2  -1  -2  192.86    6.08
   2  -1   2  178.45    6.11
  -2   1  -2  189.73    6.55
  -2   1  -2  191.56    6.15
   2   1   2  190.72    6.22
   2   1   2  186.48    6.56
  -2   1  -2  197.52    6.30
   2   1   2  187.74    5.85
  -2   1  -2  192.72    6.38
   2   1   2  192.86    6.20
   2   1   2  203.85    6.51
  -2   1  -2  184.67    6.23
  -2   1  -2  202.70    6.30
   2   1   2  197.25    6.62
   2   1   2  181.57    6.33
  -3  -1  -2    3.60    1.73
   3  -1   2    1.28    1.24
   3  -1   2    2.89    1.50
  -3  -1  -2    3.33    1.62
   3  -1   2    2.24    1.14
  -3  -1  -2    1.91    1.43
  -3  -1  -2    2.47    1.51
   3  -1   2    2.77    1.50
   3  -1   2    2.74    1.34
  -3  -1  -2    3.82    1.62
  -3  -1  -2    2.68    1.24
   3  -1   2    0.80    1.30
   3  -1   2    3.08    1.82
   3  -1   2    1.94    0.88
  -3  -1  -2    1.69    1.61
  -3  -1  -2    3.02    1.62
   3   1   2    5.06    1.53
   3   1   2    2.70    1.54
   3   1   2    2.90    1.47
   3   1   2    2.73    1.60
   3   1   2    3.58    1.04
  -3   1  -2    2.50    1.35
  -3   1  -2    1.97    1.41
  -3   1  -2    5.62    1.65
   3   1   2    2.81    1.57
  -3   1  -2    1.38    1.43
  -3   1  -2    0.94    1.35
  -3   1  -2    2.50    1.51
   4  -1   2  184.39    6.83
   4  -1   2  165.90    6.87
  -4  -1  -2  173.42    6.79
  -4  -1  -2  171.25    7.24
   4  -1   2  182.68    7.22
  -4  -1  -2  176.57    7.13
   4  -1   2  180.47    6.05
   4  -1   2  169.98    7.16
  -4  -1  -2  193.87    7.55
   4  -1   2  173.35    6.50
  -4  -1  -2  186.15    7.44
   4  -1   2  169.91    7.05
  -4  -1  -2  168.11    7.09
  -4  -1  -2  175.00    6.88
   4  -1   2  176.02    7.17
   4   1   2  183.82    6.69
  -4   1  -2  182.14    7.24
  -4   1  -2  174.61    7.24
   4   1   2  169.05    7.25
  -4   1  -2  178.28    7.30
   4   1   2  185.51    6.93
  -4   1  -2  168.59    7.08
   4   1   2  188.69    7.40
   4   1   2  189.93    7.07
   4   1   2  177.97    6.00
   4   1   2  164.37    7.16
  -4   1  -2  184.43    7.10
  -4   1  -2  174.42    7.03
   4   1   2  168.76    7.21
   5  -1   2   51.90    4.51
   5  -1   2   47.48    4.47
  -5  -1  -2   54.49    4.50
   5  -1   2   59.10    3.63
   5  -1   2   53.47    4.60
  -5  -1  -2   55.66    4.35
  -5  -1  -2   49.76    4.26
  -5  -1  -2   52.87    4.71
  -5  -1  -2   58.40    5.03
   5  -1   2   51.51    4.87
   5  -1   2   52.81    3.79
   5  -1   2   44.36    4.59
   5  -1   2   60.37    4.69
  -5  -1  -2   50.74    4.88
  -5  -1  -2   46.61    5.10
   5   1   2   60.87    3.35
  -5   1  -2   52.69    4.24
  -5   1  -2   53.75    4.81
  -5   1  -2   62.84    4.93
   5   1   2   54.33    4.58
  -5   1  -2   57.81    4.81
   5   1   2   51.75    4.72
   5   1   2   63.32    5.13
  -5   1  -2   58.40    5.00
  -5   1  -2   55.46    4.69
   5   1   2   48.27    4.60
   5   1   2   49.50    4.14
   5   1   2   51.72    4.45
   5   1   2   45.65    4.61
   6  -1   2   66.44    4.49
   6  -1   2   68.25    4.76
  -6  -1  -2   70.67    5.25
   6  -1   2   66.40    5.86
  -6  -1  -2   65.81    5.24
  -6  -1  -2   69.61    5.29
   6  -1   2   74.68    5.77
   6  -1   2   59.37    5.60
  -6  -1  -2   75.41    6.03
   6  -1   2   66.60    5.55
  -6   1  -2   66.46    5.03
  -6   1  -2   79.49    6.01
   6   1   2   69.42    5.85
  -6   1  -2   69.16    5.64
   6   1   2   74.31    6.04
  -6   1  -2   75.07    5.63
  -6   1  -2   61.14    6.61
   6   1   2   69.31    3.94
   6   1   2   67.86    5.70
   6   1   2   63.18    5.96
   6   1   2   76.17    5.69
   7  -1   2  120.64    6.36
  -7  -1  -2  118.54    8.51
   7  -1   2  103.43    7.68
   7  -1   2  108.08    8.61
   7  -1   2  116.68    8.03
  -7  -1  -2  104.61    6.36
  -7  -1  -2  115.24    7.27
  -7  -1  -2  117.85    7.66
   7  -1   2  112.47    6.99
   7   1   2  115.33    5.38
  -7   1  -2  106.17    8.58
   7   1   2  112.89    8.82
   7   1   2  122.23    8.34
  -7   1  -2  109.91    8.27
   7   1   2  123.17    8.42
  -7   1  -2  132.80    6.95
  -7   1  -2  118.83    8.46
  -8  -1  -2    6.44    4.31
   8  -1   2    4.69    5.46
  -8  -1  -2    3.99    3.13
   8  -1   2   10.76    4.52
  -8  -1  -2   -3.26    4.28
  -8  -1  -2   -1.37    3.32
  -8   1  -2    4.70    4.54
   8   1   2    4.16    4.65
   8   1   2    2.64    4.60
  -8   1  -2   -0.62    4.10
  -8   1  -2    6.12    4.68
  -8   1  -2    3.83    4.13
   8   1   2    8.67    2.91
   8   1   2   -3.60    4.98
  -9  -1  -2   87.83    9.92
  -9  -1  -2   84.25    7.36
   9  -1   2   80.92    9.50
  -9  -1  -2   79.48    9.92
   9  -1   2   83.50    6.71
   9  -1   2   74.09    9.93
  -9  -1  -2   88.53   10.55
  -9  -1  -2   92.16   10.42
  -9   1  -2   83.19    7.33
  -9   1  -2   79.33    9.77
   9   1   2   85.36    9.41
  -9   1  -2   83.07   10.30
  -9   1  -2   98.52   10.43
   9   1   2  101.33   10.58
  -9   1  -2   77.01    9.44
   9   1   2   87.92   10.40
 -10  -2   2   -0.39    4.00
 -10  -2   2   -1.27    5.82
  10  -2  -2   -7.02    6.85
 -10  -2   2    1.26    6.86
  10  -2  -2   -0.16    4.03
  10  -2  -2   -7.51    8.45
  10  -2  -2    3.66    6.80
  10   2  -2  -17.13    6.55
  10   2  -2   20.74    6.58
 -10   2   2   -1.71    6.31
 -10   2   2  -14.41    5.82
 -10   2   2   -6.03    5.78
 -10   2   2    0.47    7.28
  10   2  -2   -0.96    6.24
   9  -2  -2   93.43    9.61
  -9  -2   2  108.81    8.10
   9  -2  -2  109.47    7.29
  -9  -2   2  110.61    8.56
  -9  -2   2  116.75   10.85
   9  -2  -2  103.71    7.98
   9  -2  -2  104.08    9.50
  -9  -2   2  101.03    6.99
  -9   2   2   97.18    9.57
   9   2  -2   90.01    9.64
  -9   2   2  110.54    9.34
  -9   2   2  112.16    8.42
   9   2  -2   99.56    9.78
   9   2  -2  114.73    9.46
  -9   2   2   99.42    9.70
  -8  -2   2   -2.74    3.10
  -8  -2   2   -3.53    3.88
   8  -2  -2   -1.54    2.55
  -8  -2   2    1.00    2.75
   8  -2  -2   -1.76    2.80
   8  -2  -2    1.61    4.58
   8  -2  -2    1.85    4.40
  -8  -2   2   -3.81    2.54
  -8  -2   2    1.50    3.49
   8   2  -2    0.95    4.04
  -8   2   2    4.71    4.33
  -8   2   2   -0.42    4.39
   8   2  -2    4.63    4.37
  -8   2   2    1.49    2.59
   8   2  -2   -0.67    1.85
  -8   2   2   -1.19    2.62
  -8   2   2   -5.70    4.06
   8   2  -2    5.17    4.57
  -7  -2   2   85.09    6.29
   7  -2  -2   88.05    5.34
  -7  -2   2   91.48    6.61
  -7  -2   2   75.65    5.57
   7  -2  -2   86.03    6.41
   7  -2  -2   85.30    6.18
  -7  -2   2   87.14    7.19
  -7  -2   2   90.31    5.93
  -7  -2   2   82.75    3.97
   7  -2  -2   81.33    6.50
  -7  -2   2   79.19    5.39
   7   2  -2   82.64    7.22
  -7   2   2   83.27    6.31
  -7   2   2   83.93    5.52
   7   2  -2   78.23    6.66
   7   2  -2   90.93    3.83
  -7   2   2   94.80    7.15
   7   2  -2   95.79    8.37
   7   2  -2   93.70    8.01
  -7   2   2   86.29    6.70
   7   2  -2   77.59    6.33
  -7   2   2   86.82    5.37
   6  -2  -2    2.88    2.98
   6  -2  -2    3.86    2.85
  -6  -2   2    4.03    2.29
   6  -2  -2    2.94    2.09
   6  -2  -2    5.74    1.96
  -6  -2   2    2.87    1.90
   6  -2  -2    1.57    3.60
  -6  -2   2    4.30    2.26
  -6  -2   2    2.95    3.74
  -6  -2   2    5.48    2.66
  -6  -2   2    3.05    1.11
   6  -2  -2    1.79    2.27
   6  -2  -2    5.56    2.56
  -6  -2   2    3.58    2.50
  -6  -2   2    3.80    2.14
  -6   2   2    4.91    1.99
  -6   2   2    4.51    2.55
   6   2  -2    4.04    3.29
   6   2  -2    3.08    2.83
  -6   2   2    8.65    2.07
   6   2  -2    6.41    1.33
  -6   2   2   12.57    3.18
   6   2  -2    4.34    2.56
  -6   2   2    0.76    2.32
  -6   2   2    0.50    2.14
  -6   2   2    8.97    3.97
   6   2  -2    4.06    2.75
   6   2  -2    5.09    2.43
  -6   2   2    3.80    3.04
   6   2  -2    3.16    2.30
  -5  -2   2    2.21    0.80
   5  -2  -2    1.82    1.82
  -5  -2   2    5.00    2.33
   5  -2  -2    4.32    2.27
  -5  -2   2    5.68    1.68
   5  -2  -2    3.70    2.09
   5  -2  -2    1.54    2.04
   5  -2  -2    1.53    1.84
  -5  -2   2    2.51    1.88
  -5  -2   2   -0.98    1.91
  -5  -2   2    3.55    1.88
   5  -2  -2    4.18    1.52
   5  -2  -2    1.47    1.67
  -5  -2   2   -0.20    2.10
  -5  -2   2    4.62    1.76
  -5  -2   2    2.95    2.02
   5   2  -2    1.33    2.04
  -5   2   2    2.85    2.03
   5   2  -2    0.82    1.69
  -5   2   2    3.17    1.58
   5   2  -2    0.21    1.77
  -5   2   2   -0.16    1.96
   5   2  -2    3.56    1.13
  -5   2   2    4.89    2.29
   5   2  -2    0.91    2.01
  -5   2   2    2.30    2.21
  -5   2   2   -0.95    2.21
  -5   2   2    1.14    1.70
   5   2  -2    5.99    2.26
   5   2  -2    2.73    1.90
  -5   2   2    3.10    1.58
  -4  -2   2   29.03    3.01
  -4  -2   2   27.99    2.69
  -4  -2   2   38.18    3.52
   4  -2  -2   30.54    3.20
  -4  -2   2   28.13    2.58
   4  -2  -2   30.91    2.61
   4  -2  -2   29.22    2.83
   4  -2  -2   29.79    2.55
   4  -2  -2   26.19    2.93
  -4  -2   2   29.40    1.40
   4  -2  -2   28.94    2.99
  -4  -2   2   25.13    2.71
  -4  -2   2   26.82    2.80
   4  -2  -2   30.42    2.97
  -4  -2   2   38.27    2.83
   4  -2  -2   24.81    2.97
  -4  -2   2   30.86    2.77
  -4   2   2   27.93    2.84
  -4   2   2   27.54    3.15
  -4   2   2   27.40    3.12
  -4   2   2   32.57    2.90
   4   2  -2   32.55    2.96
  -4   2   2   30.67    2.86
   4   2  -2   27.88    2.97
   4   2  -2   34.28    2.89
  -4   2   2   31.31    2.44
   4   2  -2   31.36    2.98
  -4   2   2   30.91    3.12
  -4   2   2   32.87    3.13
   4   2  -2   28.07    3.05
  -3  -2   2  184.57    7.53
  -3  -2   2  181.32    6.90
  -3  -2   2  206.33    6.15
  -3  -2   2  196.29    6.32
   3  -2  -2  200.99    6.75
   3  -2  -2  195.10    6.85
   3  -2  -2  182.98    6.53
   3  -2  -2  184.61    6.20
  -3  -2   2  195.01    6.46
   3  -2  -2  197.89    6.95
  -3  -2   2  193.93    6.82
   3  -2  -2  202.74    6.47
  -3   2   2  184.11    6.53
  -3   2   2  194.66    6.59
   3   2  -2  189.24    6.21
  -3   2   2  180.92    7.32
   3   2  -2  200.85    6.45
   3   2  -2  188.42    6.42
   3   2  -2  169.72    6.86
  -3   2   2  192.98    6.59
  -3   2   2  189.27    6.75
  -3   2   2  200.43    5.91
  -3   2   2  186.56    6.84
   3   2  -2  200.14    6.26
   2  -2  -2   13.08    1.59
  -2  -2   2   11.58    1.67
   2  -2  -2   11.78    1.93
   2  -2  -2   12.99    1.65
  -2  -2   2   12.09    1.61
  -2  -2   2   13.67    1.48
  -2  -2   2   15.40    1.89
  -2  -2   2   12.05    1.09
   2  -2  -2   12.64    1.68
  -2  -2   2   12.03    1.06
  -2  -2   2   13.80    1.36
   2  -2  -2   12.24    1.60
   2  -2  -2   10.25    1.51
   2  -2  -2   10.99    1.57
  -2   2   2   11.08    1.47
  -2   2   2   13.63    1.53
   2   2  -2   13.45    0.60
   2   2  -2   11.60    1.29
  -2   2   2   10.56    1.88
   2   2  -2   12.89    1.33
   2   2  -2   12.76    1.51
  -2   2   2   15.61    1.56
  -2   2   2    9.85    1.53
   2   2  -2   10.10    1.54
  -2   2   2   10.82    1.85
   2   2  -2   12.27    1.49
   2   2  -2   14.07    1.51
  -2   2   2   12.30    1.62
   2   2  -2   11.84    1.52
   1  -2  -2  561.59   14.79
   1  -2  -2  578.89   14.80
   1  -2  -2  555.85   14.73
  -1  -2   2  570.66   14.57
   1  -2  -2  569.72   14.84
  -1  -2   2  550.09   13.75
   1  -2  -2  549.15   14.68
  -1  -2   2  580.27   14.45
  -1  -2   2  553.89   14.57
   1  -2  -2  594.27   14.86
  -1  -2   2  552.47   13.78
   1  -2  -2  549.50   14.63
   1   2  -2  568.80   14.56
   1   2  -2  540.56   14.51
  -1   2   2  541.95   14.73
  -1   2   2  551.61   14.80
   1   2  -2  530.17   13.93
   1   2  -2  553.59   13.93
  -1   2   2  586.31   14.74
  -1   2   2  557.77   14.78
  -1   2   2  535.81   14.78
  -1   2   2  585.57   14.66
   0  -2  -2    0.03    0.83
   0  -2  -2    0.24    0.99
   0  -2   2   -0.66    1.04
   0  -2  -2   -0.43    0.93
   0  -2  -2   -0.65    0.91
   0  -2  -2    0.26    0.97
   0  -2   2    0.31    0.56
   0  -2   2    0.20    0.80
   0  -2  -2    0.66    0.92
   0  -2  -2   -0.65    0.92
   0   2   2   -0.63    0.88
   0   2  -2    0.39    1.02
   0   2  -2    0.92    0.69
   0   2   2   -0.21    0.90
   0   2   2   -0.15    0.94
   0   2  -2    0.21    0.37
   0   2  -2    0.50    0.36
   0   2   2    0.06    1.02
   0   2   2    1.23    0.99
   0   2   2    0.10    0.97
  -1  -2  -2  645.81   16.53
   1  -2   2  617.57   15.65
  -1  -2  -2  625.74   16.64
   1  -2   2  604.82   15.40
  -1  -2  -2  621.67   16.80
  -1  -2  -2  592.68   16.54
  -1  -2  -2  634.36   16.63
  -1  -2  -2  651.27   16.35
   1  -2   2  612.67   15.92
   1  -2   2  616.60   16.68
  -1  -2  -2  662.46   16.79
   1   2   2  635.08   16.52
  -1   2  -2  614.06   15.87
  -1   2  -2  612.62   16.07
  -1   2  -2  619.30   15.63
  -1   2  -2  635.72   16.71
   1   2   2  644.66   16.76
   1   2   2  645.14   16.66
  -1   2  -2  599.35   16.07
  -1   2  -2  635.83   15.91
   1   2   2  628.34   16.67
   1   2   2  633.22   16.51
   1   2   2  639.83   16.68
  -2  -2  -2    0.51    1.35
  -2  -2  -2    2.10    1.29
  -2  -2  -2    0.69    1.12
  -2  -2  -2    3.25    1.41
   2  -2   2    1.82    0.88
  -2  -2  -2    0.78    0.84
   2  -2   2    1.35    0.50
  -2  -2  -2    0.72    0.93
   2  -2   2    2.13    1.26
   2  -2   2    2.38    1.07
  -2  -2  -2    1.82    1.40
   2  -2   2    2.51    1.31
   2  -2   2    1.88    0.77
   2  -2   2    0.01    0.92
   2   2   2   -0.08    1.37
  -2   2  -2    0.12    0.94
   2   2   2   -0.98    1.24
  -2   2  -2    3.81    1.18
  -2   2  -2    0.84    1.13
  -2   2  -2    0.11    0.92
   2   2   2    2.29    1.18
  -2   2  -2    0.30    0.95
   2   2   2    2.22    1.15
   2   2   2    0.69    1.17
   3  -2   2  441.63   13.10
  -3  -2  -2  435.65   13.55
  -3  -2  -2  462.43   13.78
  -3  -2  -2  457.42   13.91
   3  -2   2  498.70   13.17
  -3  -2  -2  484.17   13.95
   3  -2   2  487.51   13.97
   3  -2   2  494.77   13.62
  -3  -2  -2  480.01   12.44
   3  -2   2  474.03   12.25
   3  -2   2  448.51   13.49
  -3  -2  -2  444.32   13.15
  -3  -2  -2  499.13   14.11
  -3  -2  -2  473.05   13.55
   3  -2   2  463.04   13.57
   3   2   2  491.16   13.98
  -3   2  -2  475.81   13.55
   3   2   2  441.67   13.79
  -3   2  -2  449.11   13.89
  -3   2  -2  449.39   13.47
  -3   2  -2  451.15   13.65
  -3   2  -2  484.23   13.71
   3   2   2  484.31   13.68
   3   2   2  463.85   13.99
  -3   2  -2  488.96   13.74
   3   2   2  467.73   13.64
   3   2   2  455.50   13.98
   4  -2   2   26.00    2.93
  -4  -2  -2   27.86    2.93
  -4  -2  -2   36.67    3.76
   4  -2   2   32.84    3.10
  -4  -2  -2   26.34    3.48
  -4  -2  -2   24.35    3.21
  -4  -2  -2   31.94    3.25
  -4  -2  -2   23.12    2.53
   4  -2   2   27.00    3.53
   4  -2   2   33.24    3.39
  -4  -2  -2   33.94    3.68
   4  -2   2   28.96    2.98
  -4  -2  -2   23.45    3.06
   4  -2   2   33.71    2.11
  -4   2  -2   32.67    3.24
   4   2   2   25.96    3.50
   4   2   2   29.14    3.08
   4   2   2   36.46    3.53
  -4   2  -2   29.84    3.37
   4   2   2   25.67    3.29
  -4   2  -2   29.18    3.43
   4   2   2   31.44    3.62
  -4   2  -2   27.01    3.36
   4   2   2   31.51    3.68
   4   2   2   35.13    2.29
  -4   2  -2   30.70    3.31
   4   2   2   31.70    3.43
  -5  -2  -2   95.20    5.94
   5  -2   2  105.22    5.54
  -5  -2  -2   97.62    6.09
  -5  -2  -2  104.09    6.38
   5  -2   2   90.46    6.23
  -5  -2  -2   90.39    5.17
   5  -2   2   88.43    5.92
  -5  -2  -2   94.44    6.07
   5  -2   2   99.47    5.68
   5  -2   2   98.54    5.39
   5  -2   2   97.25    4.18
  -5  -2  -2   93.16    5.66
   5  -2   2  104.39    5.19
  -5  -2  -2  107.44    5.82
   5   2   2   79.68    5.89
  -5   2  -2   95.55    5.90
   5   2   2   93.53    5.70
   5   2   2   96.47    5.94
  -5   2  -2   92.64    5.86
   5   2   2   90.92    5.95
  -5   2  -2   97.44    5.66
  -5   2  -2   91.48    5.74
  -5   2  -2   95.93    6.13
   5   2   2   97.01    5.98
   5   2   2   91.96    5.93
  -5   2  -2   96.61    6.11
  -5   2  -2   98.58    5.52
   5   2   2   96.86    4.01
   5   2   2  109.98    5.71
  -6  -2  -2    0.08    2.49
   6  -2   2    1.24    2.35
  -6  -2  -2    0.27    2.36
  -6  -2  -2   -4.05    2.05
   6  -2   2    0.13    2.10
   6  -2   2    0.28    1.83
  -6  -2  -2    0.47    2.32
   6  -2   2   -2.11    3.30
   6  -2   2    0.54    2.63
  -6   2  -2    4.02    2.83
  -6   2  -2   -1.80    2.26
   6   2   2    9.77    3.38
   6   2   2   -2.32    2.65
  -6   2  -2    0.44    2.30
   6   2   2    1.21    3.09
   6   2   2   -3.03    2.51
  -6   2  -2   -4.67    2.50
   6   2   2    0.36    1.54
  -6   2  -2    8.34    4.28
   6   2   2   -0.37    2.52
   7  -2   2    9.53    2.88
   7  -2   2   15.86    4.25
  -7  -2  -2    7.84    2.93
  -7  -2  -2    9.46    4.19
  -7  -2  -2    6.56    3.02
   7  -2   2    8.68    3.73
  -7   2  -2    9.76    4.51
  -7   2  -2   10.74    4.82
  -7   2  -2   20.42    4.59
   7   2   2    3.83    3.84
   7   2   2   13.32    4.89
   7   2   2    7.28    4.22
  -7   2  -2    9.23    3.24
  -8  -2  -2    1.94    3.02
  -8  -2  -2   -1.19    4.25
   8  -2   2    3.05    5.08
   8  -2   2   -3.87    3.99
  -8  -2  -2   -0.45    4.30
  -8  -2  -2   -9.14    7.45
  -8  -2  -2    3.98    3.03
   8  -2   2    2.89    3.13
  -8   2  -2   -0.40    4.15
  -8   2  -2   -3.39    4.09
  -8   2  -2   -2.66    4.36
  -8   2  -2    1.43    4.62
   8   2   2    5.48    4.54
   8   2   2    3.36    4.51
   8   2   2    4.32    6.25
  -9  -2  -2   -6.85    6.04
   9  -2   2    4.55    5.62
   9  -2   2   -4.53    6.29
  -9  -2  -2   -3.77    3.33
  -9  -2  -2    4.72    5.43
   9  -2   2   12.13    4.11
  -9  -2  -2   -0.77    5.53
  -9  -2  -2   -2.57    4.73
  -9   2  -2   -9.40    5.49
  -9   2  -2   10.64    5.69
  -9   2  -2    5.43    3.51
  -9   2  -2   11.60    5.79
   9   2   2    5.36    6.49
   9   2   2   10.94    6.04
  -9   2  -2   -5.02    5.79
   9   2   2   17.52    6.68
  10  -3  -2   52.31    9.07
  10  -3  -2   43.60    5.84
  10  -3  -2   67.17    8.54
 -10  -3   2   51.31    7.29
 -10  -3   2   41.29    8.62
 -10  -3   2   38.41    6.24
  10   3  -2   43.25    8.27
 -10   3   2   28.01    7.31
 -10   3   2   39.88    7.99
 -10   3   2   33.46    8.02
  10   3  -2   48.42    8.36
 -10   3   2   44.77    7.13
  10   3  -2   44.59    8.04
   9  -3  -2   17.59    4.18
  -9  -3   2   15.85    4.00
   9  -3  -2   13.09    5.60
  -9  -3   2   13.77    6.26
   9  -3  -2   18.01    3.99
  -9  -3   2   16.52    4.79
   9  -3  -2   13.25    5.38
  -9   3   2   32.34    5.60
  -9   3   2   23.25    5.61
  -9   3   2   21.55    5.86
   9   3  -2   19.69    5.84
   9   3  -2   16.60    5.21
  -9   3   2   14.69    5.57
   9   3  -2   25.87    5.71
  -8  -3   2   41.35    5.50
  -8  -3   2   46.18    5.07
   8  -3  -2   48.12    5.52
   8  -3  -2   53.75    5.09
   8  -3  -2   44.83    6.36
  -8  -3   2   37.77    5.28
  -8  -3   2   50.26    6.13
  -8   3   2   41.76    7.02
   8   3  -2   47.81    6.78
   8   3  -2   48.84   10.06
  -8   3   2   50.40    6.96
  -8   3   2   48.00    5.94
  -8   3   2   53.20    5.73
  -7  -3   2   53.92    4.91
  -7  -3   2   48.05    5.52
  -7  -3   2   55.46    4.88
   7  -3  -2   56.88    5.62
   7  -3  -2   57.03    6.20
  -7  -3   2   53.48    2.26
  -7  -3   2   49.00    4.92
  -7  -3   2   58.78    6.54
   7  -3  -2   55.90    4.33
  -7  -3   2   53.13    5.66
   7   3  -2   58.18    6.60
   7   3  -2   52.43    6.12
   7   3  -2   52.20    6.07
  -7   3   2   50.76    6.07
  -7   3   2   54.54    6.54
  -7   3   2   63.72    5.19
  -7   3   2   46.70    5.71
   7   3  -2   70.34    6.27
   7   3  -2   51.38    6.02
  -7   3   2   52.82    5.95
  -6  -3   2    2.15    0.61
  -6  -3   2   -1.41    2.05
   6  -3  -2    2.25    2.50
   6  -3  -2   -0.29    1.51
  -6  -3   2   -0.74    1.85
  -6  -3   2    3.01    2.50
   6  -3  -2    3.42    2.43
  -6  -3   2    3.03    2.53
  -6  -3   2   -3.72    1.83
   6  -3  -2    3.50    3.19
   6  -3  -2    0.23    2.05
  -6  -3   2    0.43    1.82
   6   3  -2    3.27    3.03
   6   3  -2    0.61    2.32
  -6   3   2    4.03    2.68
  -6   3   2    0.86    2.08
   6   3  -2    2.54    1.05
  -6   3   2    4.74    1.93
  -6   3   2    1.74    2.19
   6   3  -2    4.05    1.12
   6   3  -2    5.45    2.47
  -6   3   2    6.84    3.37
   6   3  -2    1.88    2.44
   6   3  -2    3.68    2.46
  -6   3   2    7.00    2.71
   5  -3  -2  112.94    5.72
  -5  -3   2  106.89    5.93
  -5  -3   2  118.05    6.23
   5  -3  -2  105.43    6.24
  -5  -3   2  101.83    4.88
   5  -3  -2  103.86    5.62
   5  -3  -2  102.39    4.68
  -5  -3   2  105.20    5.58
   5  -3  -2  109.80    5.88
   5  -3  -2  113.54    5.87
  -5  -3   2  103.32    5.78
  -5  -3   2  110.79    5.16
   5   3  -2  106.68    5.65
   5   3  -2  107.43    6.20
  -5   3   2  109.07    6.00
  -5   3   2  110.49    5.95
  -5   3   2  107.31    6.24
  -5   3   2  100.64    6.17
  -5   3   2  110.24    4.46
  -5   3   2  103.89    5.76
   5   3  -2  108.44    3.51
   5   3  -2  118.33    5.85
   5   3  -2  107.40    5.74
  -5   3   2  110.58    5.48
   5   3  -2  110.09    3.43
   5   3  -2  113.13    5.22
   5   3  -2   99.20    5.51
  -5   3   2  111.01    6.04
  -4  -3   2    0.26    1.86
  -4  -3   2    1.36    1.34
   4  -3  -2    0.12    1.54
   4  -3  -2    3.01    1.65
  -4  -3   2    2.60    1.29
  -4  -3   2    1.41    1.86
   4  -3  -2    1.44    1.69
   4  -3  -2    1.99    1.70
   4  -3  -2    2.18    1.17
  -4  -3   2    2.72    1.67
  -4  -3   2    1.06    1.87
   4  -3  -2    3.61    1.99
   4  -3  -2    2.46    1.50
   4  -3  -2    4.31    1.90
  -4  -3   2    4.88    1.39
   4   3  -2    2.10    1.85
  -4   3   2    2.59    1.86
   4   3  -2    2.53    0.98
   4   3  -2    2.66    1.65
  -4   3   2    0.74    1.65
  -4   3   2    3.25    1.71
  -4   3   2    1.24    1.58
  -4   3   2    5.03    1.37
   4   3  -2    2.44    1.52
   4   3  -2    4.19    1.36
   4   3  -2    0.91    1.54
  -4   3   2    1.46    1.82
   4   3  -2   -0.88    1.46
  -4   3   2    3.49    1.57
  -4   3   2    6.78    1.83
  -3  -3   2   50.95    3.55
  -3  -3   2   49.40    3.15
   3  -3  -2   45.72    3.04
   3  -3  -2   48.77    3.14
   3  -3  -2   52.93    3.14
   3  -3  -2   49.91    3.81
   3  -3  -2   42.78    3.02
  -3  -3   2   46.16    3.19
  -3  -3   2   48.03    2.70
  -3  -3   2   46.10    2.34
   3  -3  -2   53.64    3.57
  -3  -3   2   48.78    2.26
  -3  -3   2   48.66    2.76
   3  -3  -2   47.04    2.58
  -3   3   2   44.84    3.08
  -3   3   2   49.04    3.30
  -3   3   2   51.45    2.54
  -3   3   2   47.44    3.51
   3   3  -2   52.03    2.89
  -3   3   2   50.45    3.26
  -3   3   2   53.26    3.39
   3   3  -2   52.68    2.82
   3   3  -2   45.28    2.92
   3   3  -2   49.42    2.59
  -3   3   2   46.24    3.06
   3   3  -2   47.66    3.47
   3   3  -2   53.04    2.23
   3   3  -2   47.18    2.90
  -2  -3   2  120.52    3.88
   2  -3  -2  122.39    4.65
  -2  -3   2  120.99    4.66
  -2  -3   2  123.11    4.73
   2  -3  -2  125.21    4.68
   2  -3  -2  116.34    4.16
   2  -3  -2  115.06    4.61
   2  -3  -2  116.59    4.98
   2  -3  -2  124.64    4.78
   2  -3  -2  120.20    4.55
  -2  -3   2  121.67    4.60
   2   3  -2  110.39    4.47
   2   3  -2  116.71    3.11
   2   3  -2  118.00    3.92
   2   3  -2  115.40    4.01
  -2   3   2  123.12    5.40
   2   3  -2  117.14    3.81
   2   3  -2  110.59    4.74
  -2   3   2  123.33    4.59
   2   3  -2  123.37    3.96
  -2   3   2  117.68    4.10
  -2   3   2  120.59    4.76
  -2   3   2  115.77    4.61
   2   3  -2  119.28    3.96
  -2   3   2  116.30    4.73
  -1  -3   2    7.92    1.43
   1  -3  -2    6.63    1.38
  -1  -3   2    5.38    1.20
   1  -3  -2    4.73    1.16
   1  -3  -2    5.12    1.11
  -1  -3   2    5.87    1.19
   1  -3  -2    4.38    1.08
   1  -3  -2    8.93    1.44
   1  -3  -2    6.24    1.29
   1   3  -2    5.10    1.30
   1   3  -2    5.93    0.64
  -1   3   2    7.11    1.49
   1   3  -2    6.12    0.66
  -1   3   2    6.96    1.14
   1   3  -2    6.41    0.90
  -1   3   2    6.78    1.27
  -1   3   2    5.47    1.60
  -1   3   2    5.31    1.20
   1   3  -2    5.55    1.17
   0  -3   2  259.21    7.73
   0  -3  -2  257.64    7.68
   0  -3   2  260.33    7.09
   0  -3   2  257.61    7.10
   0  -3  -2  255.30    7.55
   0  -3  -2  262.91    7.69
   0  -3  -2  242.74    7.58
   0  -3  -2  247.61    7.75
   0   3   2  260.16    7.64
   0   3  -2  245.82    6.40
   0   3   2  262.11    7.69
   0   3   2  243.68    7.69
   0   3   2  250.86    7.50
   0   3  -2  241.91    7.35
   0   3  -2  254.46    6.42
   0   3   2  245.40    7.76
   0   3  -2  276.56    8.44
  -1  -3  -2  132.71    4.83
  -1  -3  -2  122.83    4.64
  -1  -3  -2  134.12    4.86
   1  -3   2  130.08    4.97
   1  -3   2  125.75    3.86
  -1  -3  -2  121.43    4.64
  -1  -3  -2  127.65    4.68
  -1  -3  -2  130.25    4.59
   1   3   2  125.67    4.78
  -1   3  -2  125.63    4.05
  -1   3  -2  127.98    3.82
  -1   3  -2  129.18    3.89
   1   3   2  125.56    4.77
   1   3   2  131.08    4.67
   1   3   2  120.83    4.84
   1   3   2  126.06    4.82
  -1   3  -2  127.38    3.56
  -2  -3  -2  423.89   12.46
  -2  -3  -2  420.43   12.27
   2  -3   2  419.73   12.51
   2  -3   2  432.25   11.15
   2  -3   2  415.53   11.12
  -2  -3  -2  440.46   11.29
  -2  -3  -2  424.54   12.22
  -2  -3  -2  403.29   12.38
   2  -3   2  429.35   12.43
   2  -3   2  427.98   11.74
  -2  -3  -2  423.74   11.51
  -2  -3  -2  441.97   12.00
  -2   3  -2  430.93   11.73
  -2   3  -2  443.57   11.96
   2   3   2  445.67   12.56
   2   3   2  407.25   12.39
   2   3   2  398.60   13.36
   2   3   2  432.76   12.46
   2   3   2  427.53   12.57
  -2   3  -2  409.52   12.43
  -2   3  -2  425.47   11.81
   2   3   2  427.34   12.26
  -2   3  -2  431.76   12.16
  -3  -3  -2    0.40    1.22
  -3  -3  -2    2.00    1.51
  -3  -3  -2    0.63    1.57
  -3  -3  -2   -0.03    1.48
   3  -3   2    1.16    1.48
   3  -3   2   -1.12    1.29
  -3  -3  -2    0.53    1.63
   3  -3   2    1.48    1.53
   3  -3   2    0.55    0.99
   3  -3   2   -0.40    1.23
   3  -3   2    1.23    0.43
  -3  -3  -2   -0.21    1.48
  -3  -3  -2   -0.77    1.38
  -3  -3  -2    2.21    1.04
   3   3   2    2.64    1.57
  -3   3  -2    0.95    1.36
   3   3   2    1.70    1.51
  -3   3  -2    2.26    1.39
   3   3   2    1.90    1.49
   3   3   2   -2.15    1.39
   3   3   2   -0.22    1.43
   3   3   2    2.47    1.61
  -3   3  -2    2.45    1.69
  -3   3  -2    3.48    1.55
  -3   3  -2   -0.11    1.26
  -3   3  -2    2.23    1.33
   4  -3   2  203.86    7.68
  -4  -3  -2  196.66    7.97
   4  -3   2  204.83    5.74
  -4  -3  -2  199.78    7.86
   4  -3   2  201.94    8.13
  -4  -3  -2  199.26    7.15
   4  -3   2  202.03    7.76
  -4  -3  -2  199.86    8.12
  -4  -3  -2  207.14    8.31
  -4  -3  -2  203.41    8.28
   4  -3   2  199.63    7.72
   4  -3   2  198.92    7.13
  -4  -3  -2  200.20    5.90
  -4  -3  -2  192.38    7.76
   4  -3   2  215.76    7.26
  -4   3  -2  215.32   11.00
   4   3   2  196.28    7.95
   4   3   2  188.58    7.70
   4   3   2  190.07    8.10
  -4   3  -2  213.82    7.86
  -4   3  -2  195.36    7.68
   4   3   2  196.54    7.84
   4   3   2  191.71    7.91
  -4   3  -2  202.78    8.08
  -4   3  -2  205.81    7.92
   4   3   2  198.77    8.32
  -4   3  -2  207.96    8.07
  -4   3  -2  194.03    8.17
  -5  -3  -2   49.98    3.93
   5  -3   2   47.27    4.23
   5  -3   2   48.45    2.61
  -5  -3  -2   54.29    4.64
  -5  -3  -2   44.42    4.90
  -5  -3  -2   45.78    5.44
   5  -3   2   51.31    4.02
  -5  -3  -2   50.55    4.65
   5  -3   2   44.02    5.45
   5  -3   2   49.91    4.46
   5  -3   2   48.44    4.25
   5  -3   2   45.67    4.77
  -5  -3  -2   42.04    5.31
  -5  -3  -2   48.97    4.45
  -5   3  -2   46.21    4.46
  -5   3  -2   44.27    4.81
  -5   3  -2   38.86    4.82
  -5   3  -2   54.49    4.44
   5   3   2   48.79    4.82
  -5   3  -2   51.62    4.59
   5   3   2   52.62    4.75
  -5   3  -2   58.59    4.93
   5   3   2   41.13    4.73
  -5   3  -2   51.20    4.65
   5   3   2   44.69    4.69
   5   3   2   55.47    5.26
   5   3   2   54.78    4.90
   6  -3   2   44.96    5.11
  -6  -3  -2   53.28    5.38
  -6  -3  -2   53.92    5.53
  -6  -3  -2   59.11    4.85
   6  -3   2   51.34    5.77
   6  -3   2   58.61    3.47
   6  -3   2   59.89    4.86
  -6  -3  -2   57.87    5.06
   6  -3   2   52.42    4.87
   6   3   2   57.12    5.68
  -6   3  -2   48.63    5.00
   6   3   2   53.31    5.73
  -6   3  -2   48.59    5.78
   6   3   2   56.88    5.82
  -6   3  -2   47.27    5.08
  -6   3  -2   50.43    5.44
  -6   3  -2   53.04    6.93
  -7  -3  -2   64.10    7.24
   7  -3   2   62.02    6.32
  -7  -3  -2   64.15    7.19
   7  -3   2   63.16    6.64
   7  -3   2   64.94    4.49
  -7  -3  -2   60.07    5.60
   7  -3   2   63.80    5.59
  -7   3  -2   51.20    6.39
   7   3   2   60.21    7.05
  -7   3  -2   55.48    7.31
   7   3   2   60.60    7.10
  -7   3  -2   64.48    7.70
  -7   3  -2   58.14    6.71
   7   3   2   58.50    7.67
  -8  -3  -2   -1.30    4.36
   8  -3   2   -4.95    4.28
  -8  -3  -2    2.72    3.32
   8  -3   2    1.89    3.03
   8  -3   2    2.29    5.05
  -8  -3  -2    2.24    4.48
  -8  -3  -2    0.15    3.08
  -8   3  -2   -2.22    4.41
  -8   3  -2   -0.83    8.59
   8   3   2   12.98    4.81
   8   3   2   -3.57    4.54
  -8   3  -2    8.44    4.50
   8   3   2    0.63    4.82
  -8   3  -2   11.04    5.07
  -9  -3  -2   56.40    7.56
   9  -3   2   58.14    8.52
   9  -3   2   56.89    6.22
  -9  -3  -2   64.53    7.19
   9  -3   2   52.94    7.21
  -9  -3  -2   57.93    7.50
  -9  -3  -2   55.12    7.93
   9   3   2   62.65    8.56
  -9   3  -2   68.98    8.04
   9   3   2   58.47    8.40
  -9   3  -2   74.65    9.23
  -9   3  -2   46.77    8.05
   9   3   2   67.00    8.98
  -9   3  -2   61.08    8.34
  -9  -4   2    9.61    4.28
  -9  -4   2   -1.63    3.23
  -9  -4   2   13.89    5.93
   9  -4  -2   -0.38    4.67
   9  -4  -2   10.35    4.55
   9  -4  -2    4.61    3.55
   9  -4  -2    5.87    5.61
   9   4  -2   10.96    5.55
   9   4  -2   10.36    5.91
  -9   4   2    3.15    4.73
  -9   4   2    5.93    5.48
  -9   4   2   -1.06    5.27
  -9   4   2    7.56    5.14
   9   4  -2   -1.22    5.22
  -8  -4   2  123.31    7.97
  -8  -4   2  145.10    8.96
  -8  -4   2  113.26    7.34
   8  -4  -2  117.63    6.45
   8  -4  -2  125.52    7.73
   8  -4  -2  108.88    8.76
   8  -4  -2  142.67   10.24
  -8  -4   2  113.52    7.82
  -8   4   2  100.47    9.24
   8   4  -2  115.55    8.70
  -8   4   2  120.86    8.32
  -8   4   2  139.47    9.18
   8   4  -2  121.81    9.77
  -7  -4   2    4.79    3.00
  -7  -4   2    1.26    3.22
   7  -4  -2    1.36    2.03
   7  -4  -2    3.89    3.12
  -7  -4   2   -2.67    3.75
   7  -4  -2    0.62    2.61
  -7  -4   2   -1.96    2.22
   7  -4  -2   -1.58    3.18
  -7  -4   2    0.89    2.39
   7   4  -2    2.64    3.62
  -7   4   2    9.74    3.69
   7   4  -2   -0.90    2.93
  -7   4   2    6.52    3.45
  -7   4   2    6.64    2.94
   7   4  -2    1.78    3.51
   7   4  -2    0.89    3.21
  -7   4   2    0.22    2.50
  -7   4   2    3.09    3.79
   7   4  -2    9.51    4.93
   6  -4  -2  323.56   11.90
   6  -4  -2  328.88   12.21
  -6  -4   2  328.09   10.95
  -6  -4   2  320.00   12.30
   6  -4  -2  334.30   12.48
  -6  -4   2  337.16   11.91
  -6  -4   2  336.39   11.43
   6  -4  -2  344.86   10.55
   6  -4  -2  312.85   12.37
  -6  -4   2  343.25   11.92
  -6   4   2  338.75    9.92
   6   4  -2  342.73   12.62
   6   4  -2  347.30   11.31
  -6   4   2  337.08   12.88
  -6   4   2  335.93   12.65
   6   4  -2  333.76   12.20
  -6   4   2  340.68   12.04
  -6   4   2  338.38   12.29
  -6   4   2  345.39   12.68
   6   4  -2  336.19   12.18
   6   4  -2  329.70   12.77
  -5  -4   2    0.34    2.25
  -5  -4   2    0.64    2.01
   5  -4  -2   -4.00    2.35
   5  -4  -2    0.72    2.04
  -5  -4   2    1.36    2.14
   5  -4  -2    1.60    1.48
  -5  -4   2   -1.96    1.88
  -5  -4   2   -2.20    1.34
  -5  -4   2    0.20    2.56
   5  -4  -2    0.29    1.92
   5  -4  -2   -0.01    2.80
   5   4  -2   -0.62    1.68
  -5   4   2   -2.20    1.89
   5   4  -2    0.95    1.54
  -5   4   2   -0.18    2.60
   5   4  -2    1.43    1.93
  -5   4   2    3.36    2.58
   5   4  -2   -0.25    2.08
  -5   4   2   -0.22    1.91
   5   4  -2   -0.77    2.13
   5   4  -2    2.49    2.28
  -5   4   2    1.84    2.54
  -5   4   2    3.32    2.11
  -5   4   2    3.92    1.60
  -5   4   2    0.34    2.09
  -4  -4   2  423.35   12.39
  -4  -4   2  415.42   13.30
   4  -4  -2  417.83   12.69
  -4  -4   2  387.34   12.72
   4  -4  -2  414.49   13.17
   4  -4  -2  402.43   13.01
  -4  -4   2  416.93   12.27
   4  -4  -2  404.01   11.60
   4  -4  -2  407.48   12.91
  -4  -4   2  409.36   11.52
   4  -4  -2  409.69   12.76
   4  -4  -2  391.18   12.73
   4  -4  -2  411.88   12.69
  -4  -4   2  408.40   13.08
  -4   4   2  417.06   12.99
  -4   4   2  412.66   12.73
  -4   4   2  427.09   13.17
   4   4  -2  410.87   13.40
   4   4  -2  407.76   11.64
   4   4  -2  417.64   12.41
   4   4  -2  405.11   12.48
  -4   4   2  420.50   12.99
  -4   4   2  412.39   13.29
   4   4  -2  392.27   12.43
   4   4  -2  401.17   12.46
  -4   4   2  406.37   12.80
  -4   4   2  417.43   11.19
  -4   4   2  408.47   12.90
  -3  -4   2    0.50    0.61
  -3  -4   2    0.91    0.57
   3  -4  -2    2.48    1.38
   3  -4  -2    3.31    1.55
  -3  -4   2   -0.64    1.45
  -3  -4   2    0.62    0.97
   3  -4  -2    1.41    1.40
   3  -4  -2   -0.89    1.40
  -3  -4   2    0.82    1.07
  -3  -4   2    1.58    1.58
   3  -4  -2    3.84    1.57
  -3  -4   2   -0.33    1.78
   3  -4  -2    2.45    0.99
   3  -4  -2    1.68    1.68
  -3   4   2    1.75    0.90
   3   4  -2    1.33    1.41
   3   4  -2    0.89    1.08
  -3   4   2   -2.00    1.47
  -3   4   2    2.92    1.46
   3   4  -2    2.37    1.22
  -3   4   2    1.83    1.51
   3   4  -2   -0.25    1.49
  -3   4   2    2.31    1.43
  -3   4   2    0.39    1.35
   3   4  -2    1.75    0.83
   3   4  -2    1.77    0.88
   3   4  -2    2.56    1.42
  -3   4   2    1.66    1.48
  -3   4   2    0.40    1.10
   2  -4  -2  431.13   12.63
  -2  -4   2  431.73   12.46
  -2  -4   2  447.63   12.60
   2  -4  -2  448.83   12.42
   2  -4  -2  435.71   11.95
   2  -4  -2  438.41   12.55
  -2  -4   2  441.81   11.42
   2  -4  -2  418.84   12.29
   2  -4  -2  430.71   12.62
  -2  -4   2  442.39   11.66
   2   4  -2  433.09   11.02
  -2   4   2  429.51   12.72
   2   4  -2  422.62   11.90
  -2   4   2  445.41   11.91
   2   4  -2  415.99   12.69
   2   4  -2  429.90   11.65
  -2   4   2  432.97   12.39
  -2   4   2  422.70   12.57
   2   4  -2  426.65   11.72
  -2   4   2  446.88   12.64
   2   4  -2  448.41   11.57
   2   4  -2  432.17   11.55
  -2   4   2  449.81   12.62
   1  -4  -2   15.44    2.10
  -1  -4   2   17.83    2.09
  -1  -4   2   18.88    2.17
   1  -4  -2   17.34    1.86
   1  -4  -2   18.59    1.93
   1  -4  -2   18.37    2.00
  -1  -4   2   19.47    1.90
   1   4  -2   19.08    1.55
   1   4  -2   18.23    0.80
  -1   4   2   16.50    2.09
   1   4  -2   17.03    1.97
   1   4  -2   17.85    1.14
   1   4  -2   18.30    1.12
  -1   4   2   21.82    2.08
   1   4  -2   17.39    0.76
  -1   4   2   16.03    2.06
  -1   4   2   19.20    1.82
  -1   4   2   17.29    1.91
   1   4  -2   13.57    1.76
   0  -4   2   25.10    2.28
   0  -4   2   25.72    2.29
   0  -4  -2   27.83    2.46
   0  -4   2   25.78    1.94
   0  -4  -2   28.09    2.32
   0  -4  -2   26.29    2.30
   0  -4  -2   22.95    2.08
   0  -4  -2   26.81    2.10
   0  -4  -2   26.50    2.28
   0  -4  -2   23.07    1.64
   0   4   2   23.94    2.32
   0   4  -2   26.42    1.17
   0   4   2   20.43    2.75
   0   4   2   29.82    2.42
   0   4   2   26.69    2.28
   0   4   2   30.36    2.35
   0   4  -2   25.23    1.17
   0   4   2   22.70    2.18
   0   4  -2   23.62    1.94
  -1  -4  -2   41.08    2.65
   1  -4   2   42.65    1.76
  -1  -4  -2   42.03    2.75
  -1  -4  -2   48.61    3.07
   1  -4   2   46.01    1.87
  -1  -4  -2   47.89    2.81
  -1  -4  -2   45.66    2.83
   1  -4   2   42.23    3.15
  -1  -4  -2   43.33    2.81
   1   4   2   41.67    2.67
   1   4   2   41.68    3.02
  -1   4  -2   45.35    2.16
  -1   4  -2   44.01    2.84
   1   4   2   47.34    2.97
  -1   4  -2   44.54    2.10
  -1   4  -2   45.99    2.03
   1   4   2   43.28    2.79
  -1   4  -2   45.24    1.90
   1   4   2   44.95    3.08
  -1   4  -2   43.50    3.02
   1   4   2   48.10    3.06
  -1   4  -2   46.30    1.71
  -2  -4  -2   49.14    3.33
  -2  -4  -2   51.96    2.89
   2  -4   2   46.00    2.45
  -2  -4  -2   45.98    3.14
   2  -4   2   44.65    1.62
  -2  -4  -2   47.28    2.20
   2  -4   2   47.98    3.16
   2  -4   2   41.45    3.45
   2  -4   2   43.94    2.52
  -2  -4  -2   46.29    3.34
  -2  -4  -2   50.81    3.27
  -2  -4  -2   54.75    3.27
  -2   4  -2   46.91    2.56
   2   4   2   46.23    3.17
   2   4   2   40.11    3.36
  -2   4  -2   40.30    3.28
  -2   4  -2   45.43    2.66
   2   4   2   47.27    3.37
   2   4   2   48.05    3.25
   2   4   2   45.01    3.39
  -2   4  -2   38.65    3.15
  -2   4  -2   43.86    2.74
   2   4   2   49.88    3.41
  -2   4  -2   49.89    2.72
   3  -4   2    6.88    1.90
   3  -4   2    8.97    1.71
  -3  -4  -2    7.12    1.79
  -3  -4  -2    9.15    1.09
   3  -4   2   10.22    1.76
   3  -4   2    4.60    1.15
  -3  -4  -2    6.55    1.94
  -3  -4  -2    6.84    1.25
  -3  -4  -2    9.98    2.29
  -3  -4  -2    7.22    1.97
  -3  -4  -2    6.40    2.04
  -3  -4  -2    5.96    1.93
   3  -4   2    6.09    2.05
   3  -4   2    6.75    1.25
  -3  -4  -2    7.12    2.07
  -3   4  -2   11.21    2.09
  -3   4  -2    7.05    1.69
   3   4   2    6.84    1.88
  -3   4  -2    7.53    2.07
   3   4   2    8.61    2.18
  -3   4  -2    9.32    1.96
   3   4   2    7.55    1.98
  -3   4  -2    8.10    1.79
   3   4   2    7.59    2.21
  -3   4  -2    6.70    2.03
   3   4   2    6.51    2.11
  -3   4  -2    6.48    1.73
   3   4   2    5.06    1.94
  -4  -4  -2  126.76    6.28
  -4  -4  -2  120.52    5.90
   4  -4   2  126.27    5.09
  -4  -4  -2  119.22    5.01
   4  -4   2  114.92    4.89
   4  -4   2  111.54    6.12
  -4  -4  -2  125.04    6.48
  -4  -4  -2  120.15    3.42
  -4  -4  -2  125.48    5.20
  -4  -4  -2  119.54    6.05
   4  -4   2  127.05    6.56
   4  -4   2  115.92    5.76
  -4  -4  -2  111.57    6.25
  -4  -4  -2  119.22    6.21
   4   4   2  129.31    6.29
   4   4   2  125.02    6.59
  -4   4  -2  113.59    6.17
  -4   4  -2  118.45    6.23
   4   4   2  124.76    6.28
  -4   4  -2  117.18    6.57
  -4   4  -2  128.94    5.96
  -4   4  -2  126.61    5.86
   4   4   2  128.70    6.22
   4   4   2  115.09    6.23
   4   4   2  117.50    6.29
  -4   4  -2  116.32    5.85
  -4   4  -2  121.28    6.05
  -5  -4  -2    4.31    3.24
   5  -4   2   10.59    2.21
  -5  -4  -2   10.28    2.82
  -5  -4  -2    9.24    2.70
  -5  -4  -2    9.73    2.00
   5  -4   2   10.35    2.33
  -5  -4  -2   10.72    2.72
   5  -4   2   10.23    2.74
  -5  -4  -2   11.51    2.19
   5  -4   2    8.71    3.00
   5   4   2   12.50    3.29
  -5   4  -2   11.63    2.78
  -5   4  -2   11.00    2.66
  -5   4  -2    6.87    3.24
   5   4   2    5.76    4.53
   5   4   2   10.76    3.62
  -5   4  -2    1.06    2.88
   5   4   2    6.99    2.71
  -5   4  -2    7.42    2.40
  -5   4  -2    7.90    2.76
   5   4   2    6.91    2.98
   6  -4   2  101.05    3.39
   6  -4   2  103.56    3.43
   6  -4   2   85.80    6.53
   6  -4   2  109.84    6.00
   6  -4   2  107.37    6.29
  -6  -4  -2  115.06    7.13
  -6  -4  -2  115.51    7.01
   6  -4   2  110.73    6.85
  -6  -4  -2  118.92    6.01
  -6  -4  -2   97.55    6.72
  -6  -4  -2  112.84    5.92
  -6   4  -2   98.36    7.05
   6   4   2   94.18    7.46
   6   4   2   99.53    7.52
   6   4   2  106.49    7.44
  -6   4  -2  100.44    7.11
  -6   4  -2   98.99    6.72
  -6   4  -2  104.35    8.10
  -6   4  -2  105.85    7.86
  -7  -4  -2    0.26    3.30
  -7  -4  -2   -6.16    3.70
   7  -4   2    1.00    1.16
  -7  -4  -2   -5.44    3.48
   7  -4   2   -1.78    3.60
   7  -4   2    4.33    3.27
   7  -4   2    0.27    2.70
  -7  -4  -2    5.34    2.88
   7  -4   2   -2.50    1.45
  -7   4  -2    1.66    3.88
   7   4   2    7.20    6.12
  -7   4  -2    1.52    7.15
   7   4   2    4.84    4.52
  -7   4  -2   -7.36    4.16
   7   4   2    2.24    4.52
   8  -4   2  116.07    8.05
   8  -4   2   96.26    8.92
  -8  -4  -2  109.06    8.58
  -8  -4  -2   97.67    6.38
  -8  -4  -2  101.48    7.75
   8  -4   2   97.66   10.04
  -8  -4  -2  103.40    8.86
  -8   4  -2  111.18    9.99
   8   4   2   97.06    9.68
   8   4   2  116.33   10.05
  -8   4  -2  115.60    9.38
  -8   4  -2  101.59   10.15
   8   4   2  111.86    9.28
  -8   4  -2  114.43    9.90
  -9  -4  -2   -6.02    6.44
  -9  -4  -2   13.39    5.85
  -9  -4  -2   -6.28    3.42
   9  -4   2   -5.55    4.19
   9  -4   2    2.65    5.75
  -9  -4  -2   -0.96    5.68
   9  -4   2   -4.70    8.18
  -9   4  -2  -10.57    6.18
   9   4   2   -3.85    5.92
  -9   4  -2    1.92    5.90
  -9   4  -2   -5.02    6.44
   9   4   2    1.14    6.42
  -9   4  -2    1.18    6.34
   9   4   2   10.04    6.89
  -9  -5   2   23.10    5.35
   9  -5  -2   30.62    7.43
  -9  -5   2   25.13    5.56
   9  -5  -2   40.49    6.69
  -9  -5   2   27.21    7.17
   9  -5  -2   47.12    6.13
   9   5  -2   43.71    7.39
   9   5  -2   38.26    6.70
  -9   5   2   33.74    6.13
  -9   5   2   30.57    6.77
  -9   5   2   31.01    6.70
  -9   5   2   38.83    7.48
   9   5  -2   49.40    7.97
   8  -5  -2   17.36    3.94
   8  -5  -2   11.71    5.38
  -8  -5   2   14.04    4.63
  -8  -5   2   18.15    4.01
  -8  -5   2   16.01    3.90
   8  -5  -2   13.76    4.67
  -8  -5   2   13.09    4.06
   8  -5  -2   21.77    2.98
  -8   5   2   24.74    5.60
   8   5  -2    5.58    4.76
   8   5  -2   21.05    5.50
  -8   5   2   17.01    5.01
  -8   5   2   16.77    5.25
   8   5  -2   13.46    4.77
  -8   5   2   29.52    7.91
  -7  -5   2  103.56    6.97
  -7  -5   2   88.59    6.37
  -7  -5   2   94.39    5.70
  -7  -5   2   89.54    6.89
   7  -5  -2   93.57    4.96
  -7  -5   2   98.60    6.85
   7  -5  -2   93.11    7.52
   7  -5  -2  102.78    6.77
   7  -5  -2   88.75    7.28
  -7   5   2  105.20    8.51
   7   5  -2  101.24    6.86
   7   5  -2  100.66    8.39
  -7   5   2  100.90    8.13
   7   5  -2   93.63    9.14
   7   5  -2   90.86    7.46
  -7   5   2  100.20    9.04
  -7   5   2   85.41    7.03
   7   5  -2   94.85    7.72
   6  -5  -2   -9.30    3.62
  -6  -5   2   -2.23    2.36
   6  -5  -2    2.02    1.50
   6  -5  -2    0.49    2.81
   6  -5  -2    2.91    2.40
   6  -5  -2    2.90    2.47
  -6  -5   2    2.94    1.76
  -6  -5   2    0.33    2.63
  -6  -5   2    5.71    2.50
  -6  -5   2    2.13    2.42
   6   5  -2    2.93    2.98
  -6   5   2   10.45    4.40
  -6   5   2    1.66    2.80
  -6   5   2   -2.43    2.78
   6   5  -2    4.52    2.15
  -6   5   2    1.76    2.62
   6   5  -2    3.41    3.56
  -6   5   2    2.94    2.18
   6   5  -2    0.51    2.45
   6   5  -2    0.11    2.42
  -6   5   2    1.54    2.59
   5  -5  -2  194.98    8.05
  -5  -5   2  197.55    6.82
  -5  -5   2  189.88    8.03
  -5  -5   2  204.62    8.44
  -5  -5   2  213.24    7.00
  -5  -5   2  203.82    8.49
   5  -5  -2  197.08    8.61
   5  -5  -2  193.90    8.42
  -5  -5   2  211.54    8.74
   5  -5  -2  204.09    8.46
   5  -5  -2  190.13    9.09
  -5  -5   2  194.16    9.04
   5  -5  -2  207.69    7.13
   5   5  -2  198.80    8.18
   5   5  -2  197.39    8.21
  -5   5   2  187.65    8.36
  -5   5   2  214.70    6.42
  -5   5   2  210.21    9.03
  -5   5   2  206.87    9.00
  -5   5   2  199.51    8.46
   5   5  -2  198.18    8.17
   5   5  -2  202.07    9.00
  -5   5   2  204.25    8.57
   4  -5  -2    1.86    1.34
  -4  -5   2   -0.66    2.08
  -4  -5   2    2.59    2.23
  -4  -5   2    3.71    2.40
   4  -5  -2    0.71    2.16
   4  -5  -2    2.76    1.75
   4  -5  -2    1.99    1.93
  -4  -5   2    2.15    1.01
  -4  -5   2    2.77    1.38
   4  -5  -2   -1.32    2.18
   4  -5  -2   -0.39    2.05
   4  -5  -2    2.48    1.79
   4  -5  -2    0.57    2.09
  -4  -5   2    2.48    1.69
  -4   5   2    1.11    1.80
   4   5  -2    4.34    1.86
   4   5  -2    2.17    1.09
  -4   5   2    5.37    2.23
   4   5  -2    3.52    2.22
  -4   5   2   -0.14    1.93
   4   5  -2    2.76    1.57
  -4   5   2    1.05    1.74
  -4   5   2    6.33    2.49
  -4   5   2    3.50    2.20
   4   5  -2    2.75    1.71
  -4   5   2    4.03    1.43
   4   5  -2    2.39    1.60
  -4   5   2    2.60    2.01
  -3  -5   2  110.03    4.17
  -3  -5   2   96.36    5.02
   3  -5  -2   91.63    5.27
   3  -5  -2  101.13    4.75
   3  -5  -2  101.56    5.18
   3  -5  -2  116.28    5.36
  -3  -5   2  105.43    5.23
   3  -5  -2   98.93    5.80
   3  -5  -2   96.77    4.60
   3  -5  -2  107.24    5.04
  -3   5   2  100.07    5.05
   3   5  -2  101.67    3.53
   3   5  -2  107.51    4.40
  -3   5   2  101.51    4.95
  -3   5   2   93.66    5.09
   3   5  -2   99.29    5.31
  -3   5   2   98.85    4.82
  -3   5   2  102.25    3.84
  -3   5   2  101.45    5.07
   3   5  -2  100.99    3.57
   3   5  -2   93.03    4.31
   3   5  -2   98.48    4.40
  -3   5   2  101.32    4.74
  -3   5   2  103.11    4.00
  -2  -5   2   15.50    2.22
   2  -5  -2   15.16    2.11
   2  -5  -2   14.64    2.52
  -2  -5   2   14.42    1.71
   2  -5  -2   14.93    2.66
   2  -5  -2   14.15    2.15
   2  -5  -2   13.80    2.08
   2  -5  -2   10.76    1.73
   2  -5  -2   22.14    2.48
  -2  -5   2   20.76    2.46
  -2  -5   2   14.47    1.27
  -2   5   2   12.54    1.89
  -2   5   2   12.68    1.94
   2   5  -2   14.36    1.73
  -2   5   2   14.07    2.07
   2   5  -2   11.15    1.41
  -2   5   2   16.28    1.87
   2   5  -2   16.42    2.27
   2   5  -2   12.91    1.55
   2   5  -2   17.95    1.65
   2   5  -2   13.92    1.28
  -2   5   2   12.79    2.12
   2   5  -2   16.84    1.69
  -2   5   2   14.38    2.08
  -2   5   2   15.12    2.01
   2   5  -2   14.80    1.25
   1  -5  -2   85.50    3.99
  -1  -5   2   90.83    3.88
   1  -5  -2   92.18    3.78
   1  -5  -2   88.00    4.23
  -1  -5   2   87.94    4.01
   1  -5  -2   83.41    3.86
   1  -5  -2   90.62    3.86
   1  -5  -2   91.38    3.93
  -1  -5   2   91.60    4.15
   1  -5  -2   86.17    4.01
  -1   5   2   90.83    3.82
  -1   5   2   83.75    4.03
   1   5  -2   89.88    3.20
   1   5  -2   87.79    3.45
  -1   5   2   87.43    4.30
   1   5  -2   88.00    2.99
  -1   5   2   90.74    3.99
  -1   5   2   84.59    4.02
   1   5  -2   89.42    3.05
   1   5  -2   88.36    2.85
  -1   5   2   86.84    4.15
   1   5  -2   88.33    2.77
   0  -5  -2   58.75    3.14
   0  -5   2   60.10    3.33
   0  -5  -2   61.40    3.36
   0  -5   2   63.44    3.60
   0  -5  -2   63.32    3.54
   0  -5  -2   62.51    3.23
   0  -5  -2   64.98    3.44
   0  -5   2   69.50    3.07
   0  -5  -2   66.61    2.74
   0  -5  -2   56.24    3.25
   0   5  -2   65.34    3.86
   0   5   2   60.67    3.37
   0   5   2   65.80    3.39
   0   5  -2   64.42    2.11
   0   5  -2   61.39    2.93
   0   5   2   58.28    3.47
   0   5   2   61.36    3.51
   0   5   2   67.64    3.52
   0   5   2   65.79    3.48
   0   5  -2   63.00    2.33
   0   5  -2   63.15    2.28
   0   5  -2   61.86    2.11
  -1  -5  -2   58.49    4.03
   1  -5   2   57.03    2.21
  -1  -5  -2   52.44    3.32
   1  -5   2   56.96    2.11
  -1  -5  -2   57.56    3.40
  -1  -5  -2   57.65    3.31
  -1  -5  -2   58.61    3.27
   1  -5   2   55.10    2.48
   1  -5   2   59.05    3.67
  -1  -5  -2   58.99    3.19
  -1   5  -2   60.33    2.50
   1   5   2   57.89    3.36
   1   5   2   55.83    3.48
  -1   5  -2   56.59    2.51
   1   5   2   63.16    3.54
  -1   5  -2   54.16    2.53
   1   5   2   58.65    3.49
   1   5   2   55.86    3.47
  -1   5  -2   57.61    2.42
   1   5   2   56.29    3.69
  -1   5  -2   57.99    3.53
   1   5   2   58.72    3.34
   2  -5   2  128.88    4.45
  -2  -5  -2  122.74    5.62
  -2  -5  -2  135.97    5.42
  -2  -5  -2  132.22    5.68
  -2  -5  -2  125.54    5.30
  -2  -5  -2  138.00    5.67
   2  -5   2  131.54    4.64
  -2  -5  -2  128.49    4.00
   2  -5   2  122.07    5.89
   2  -5   2  140.92    5.61
  -2  -5  -2  122.72    5.48
  -2   5  -2  118.31    5.14
  -2   5  -2  129.83    5.75
  -2   5  -2  129.38    4.83
   2   5   2  131.40    5.54
   2   5   2  138.78    5.81
   2   5   2  125.48    5.56
   2   5   2  125.47    5.89
  -2   5  -2  125.64    4.78
  -2   5  -2  126.97    5.67
  -2   5  -2  129.39    4.88
   2   5   2  132.90    5.83
  -3  -5  -2    0.81    1.53
  -3  -5  -2    0.57    1.43
  -3  -5  -2   -1.27    1.60
  -3  -5  -2    1.69    1.82
   3  -5   2   -1.93    1.69
  -3  -5  -2    0.08    0.82
  -3  -5  -2    0.09    2.13
   3  -5   2    1.20    0.77
   3  -5   2   -2.16    1.71
  -3  -5  -2    1.47    1.01
  -3  -5  -2   -4.29    1.68
   3  -5   2   -1.33    1.10
   3  -5   2   -0.26    1.40
  -3   5  -2   -0.59    1.78
  -3   5  -2   -0.52    1.61
  -3   5  -2    2.25    1.75
   3   5   2    0.86    1.77
  -3   5  -2    0.22    1.62
   3   5   2   -1.35    1.85
  -3   5  -2    0.24    1.30
   3   5   2    2.24    1.93
   3   5   2    0.20    1.56
  -3   5  -2   -1.33    1.35
   3   5   2    0.28    1.99
  -3   5  -2    1.05    1.47
   4  -5   2   68.85    3.50
   4  -5   2   71.50    4.59
  -4  -5  -2   74.34    5.10
  -4  -5  -2   62.17    3.96
  -4  -5  -2   70.74    4.82
  -4  -5  -2   60.58    4.56
   4  -5   2   71.28    3.52
  -4  -5  -2   69.36    5.46
  -4  -5  -2   62.97    4.80
   4  -5   2   71.19    5.56
  -4  -5  -2   67.85    3.58
  -4  -5  -2   56.24    5.27
   4  -5   2   68.58    4.15
   4   5   2   63.61    4.99
  -4   5  -2   71.17    4.58
   4   5   2   62.44    5.01
   4   5   2   69.90    5.15
   4   5   2   74.74    5.23
  -4   5  -2   73.13    4.92
  -4   5  -2   66.20    4.89
   4   5   2   70.14    5.34
   4   5   2   61.06    5.07
  -4   5  -2   71.60    4.76
  -4   5  -2   71.68    4.60
  -4   5  -2   68.25    5.20
  -4   5  -2   80.19    5.16
  -5  -5  -2   71.77    5.40
  -5  -5  -2   76.41    5.35
   5  -5   2   71.33    4.58
   5  -5   2   77.41    5.30
   5  -5   2   69.50    4.27
  -5  -5  -2   77.57    5.60
  -5  -5  -2   76.53    4.54
  -5  -5  -2   76.04    6.38
  -5  -5  -2   64.41    4.09
   5  -5   2   70.61    6.10
  -5   5  -2   69.16    5.66
   5   5   2   74.52    5.75
   5   5   2   69.07    5.95
  -5   5  -2   82.88    5.67
   5   5   2   71.65    6.85
  -5   5  -2   73.52    5.73
   5   5   2   83.03    5.99
  -5   5  -2   68.25    5.22
  -5   5  -2   82.28    6.31
  -6  -5  -2   25.00    3.01
   6  -5   2   27.75    4.32
   6  -5   2   35.70    4.11
   6  -5   2   30.87    4.01
  -6  -5  -2   38.95    4.54
   6  -5   2   26.22    3.81
  -6  -5  -2   27.24    4.16
  -6  -5  -2   32.65    4.46
  -6  -5  -2   23.00    3.88
  -6   5  -2   25.67    4.80
  -6   5  -2   27.93    4.65
   6   5   2   27.45    4.81
  -6   5  -2   31.15    4.65
   6   5   2   24.19    4.79
  -6   5  -2   27.64    4.80
   6   5   2   25.25    4.64
  -6   5  -2   30.29    5.11
  -7  -5  -2  114.22    9.31
   7  -5   2  127.93    8.77
  -7  -5  -2  122.38    7.05
   7  -5   2  127.34    8.03
   7  -5   2  113.78    7.41
  -7  -5  -2  144.01    9.16
  -7  -5  -2  133.13    9.19
   7   5   2  131.55    9.11
   7   5   2  126.83   10.29
  -7   5  -2  137.79    9.03
  -7   5  -2  138.92    9.75
  -7   5  -2  138.09    9.74
   7   5   2  127.71   10.50
   8  -5   2    5.96    4.07
  -8  -5  -2    4.86    3.35
  -8  -5  -2    1.68    4.67
   8  -5   2   11.21    6.09
  -8  -5  -2    2.88    4.22
   8   5   2   10.87    5.32
  -8   5  -2    4.19    4.88
  -8   5  -2   -5.43    4.84
  -8   5  -2   -1.21    5.31
  -8   5  -2   16.45    5.82
   8   5   2    3.28    5.05
   8   5   2    3.31    5.22
   9  -6  -2   64.33    8.86
  -9  -6   2   84.49    8.14
   9  -6  -2   70.10    8.71
   9  -6  -2   81.09   10.13
  -9   6   2   90.83   10.56
  -9   6   2   84.18   10.94
   9   6  -2   88.12   10.44
   9   6  -2   83.93   11.08
  -9   6   2   86.42   10.97
  -9   6   2  108.49   11.93
   9   6  -2   94.54   11.26
   8  -6  -2   11.01    4.30
   8  -6  -2    7.32    4.54
   8  -6  -2    7.67    6.15
  -8  -6   2    6.66    3.58
  -8  -6   2   10.28    3.97
  -8  -6   2   -2.69    4.56
   8   6  -2   12.18    5.02
   8   6  -2    4.38    4.71
  -8   6   2    9.93    4.68
  -8   6   2    7.65    4.89
  -8   6   2   13.71    5.11
   8   6  -2   14.35    4.51
  -8   6   2   16.81    4.96
   7  -6  -2   61.65    6.93
   7  -6  -2   58.99    7.15
  -7  -6   2   50.03    9.35
  -7  -6   2   52.08    6.17
  -7  -6   2   55.78    4.66
   7  -6  -2   55.42    6.19
  -7  -6   2   70.38    5.96
   7   6  -2   68.46    7.58
  -7   6   2   62.28    7.60
  -7   6   2   65.08    8.20
   7   6  -2   62.97   10.32
   6  -6  -2   12.05    3.42
   6  -6  -2   15.31    3.32
   6  -6  -2   19.04    2.27
  -6  -6   2   21.54    4.08
  -6  -6   2   18.91    2.33
   6  -6  -2   21.96    3.81
  -6  -6   2   18.71    2.76
   6  -6  -2   22.72    4.66
  -6  -6   2   18.86    3.62
   6   6  -2   22.00    3.68
  -6   6   2   21.11    8.83
   6   6  -2   24.69    4.47
  -6   6   2   22.68    4.24
  -6   6   2   18.22    4.07
   6   6  -2   19.96    2.62
  -6   6   2   14.09    3.78
  -6   6   2   23.83    4.59
   6   6  -2   17.60    3.57
   6   6  -2   18.22    4.25
   5  -6  -2    1.38    2.86
   5  -6  -2    0.44    1.91
  -5  -6   2    0.71    2.51
  -5  -6   2    1.13    1.33
   5  -6  -2    0.66    2.19
  -5  -6   2    1.09    1.88
  -5  -6   2   -1.12    1.21
  -5  -6   2   -1.76    2.18
   5  -6  -2    0.00    1.35
   5  -6  -2   -3.86    2.16
  -5   6   2   -0.30    2.49
  -5   6   2   -0.64    2.43
   5   6  -2    1.00    2.07
  -5   6   2    2.52    1.75
   5   6  -2   -2.09    1.26
   5   6  -2    3.39    2.64
  -5   6   2   -8.30    3.22
  -5   6   2   -2.05    1.98
   5   6  -2    2.69    2.22
  -5   6   2   -0.70    2.22
   5   6  -2    0.66    3.02
  -4  -6   2   23.09    3.49
   4  -6  -2   25.57    4.04
   4  -6  -2   30.93    3.84
  -4  -6   2   24.68    3.27
   4  -6  -2   25.22    3.40
  -4  -6   2   27.92    3.21
   4  -6  -2   24.13    2.68
  -4  -6   2   21.48    2.70
   4  -6  -2   26.96    3.59
   4  -6  -2   27.38    3.63
   4  -6  -2   24.56    3.13
   4  -6  -2   29.48    3.59
   4   6  -2   26.09    1.84
   4   6  -2   21.59    2.71
   4   6  -2   24.63    3.52
  -4   6   2   16.50    2.85
   4   6  -2   26.10    3.02
  -4   6   2   32.69    4.05
   4   6  -2   26.46    3.20
   4   6  -2   27.22    3.25
  -4   6   2   20.70    3.22
  -4   6   2   24.12    3.27
  -4   6   2   25.08    2.36
  -4   6   2   20.79    3.18
  -4   6   2   22.03    3.15
  -3  -6   2  113.38    5.78
   3  -6  -2  119.16    5.27
   3  -6  -2  103.49    6.03
   3  -6  -2  108.17    4.45
   3  -6  -2  113.96    5.83
   3  -6  -2  113.29    5.07
   3  -6  -2  111.17    5.51
   3  -6  -2  118.54    5.73
  -3  -6   2  113.24    4.01
   3  -6  -2  110.87    5.55
  -3  -6   2  117.77    4.42
  -3  -6   2  117.52    5.85
   3   6  -2  110.36    5.81
   3   6  -2  116.61    4.89
  -3   6   2  116.81    5.48
   3   6  -2  116.91    4.93
  -3   6   2  107.98    5.49
  -3   6   2  110.48    5.52
  -3   6   2  119.93    5.71
   3   6  -2  116.05    4.20
  -3   6   2  108.11    5.52
   3   6  -2  108.53    4.78
   3   6  -2  113.48    4.77
  -3   6   2  120.84    4.44
   3   6  -2  115.51    3.38
  -3   6   2  110.97    5.80
  -2  -6   2    5.23    1.31
   2  -6  -2    6.16    1.62
   2  -6  -2    4.74    1.75
   2  -6  -2    7.42    2.02
  -2  -6   2    5.86    1.84
   2  -6  -2    4.29    1.73
   2  -6  -2    8.43    1.98
  -2  -6   2    6.78    0.97
   2  -6  -2    6.30    2.18
  -2  -6   2    3.84    2.45
   2  -6  -2    6.69    1.91
   2   6  -2    6.81    0.79
  -2   6   2    5.14    1.96
  -2   6   2    6.45    2.19
  -2   6   2    4.29    1.72
   2   6  -2    6.85    1.33
   2   6  -2    7.20    1.34
  -2   6   2    8.21    1.78
   2   6  -2    3.70    1.21
   2   6  -2    7.31    1.25
   2   6  -2    7.43    1.12
  -2   6   2    8.72    1.97
  -2   6   2    5.21    1.75
  -2   6   2    8.05    1.47
   2   6  -2    5.82    0.77
   2   6  -2    7.31    1.92
  -1  -6   2  257.79    8.53
   1  -6  -2  252.69    8.29
   1  -6  -2  268.07    8.26
   1  -6  -2  263.55    9.15
  -1  -6   2  271.68    8.53
   1  -6  -2  276.27    8.73
   1  -6  -2  271.77    9.24
  -1  -6   2  261.19    8.67
   1  -6  -2  273.44    9.11
   1  -6  -2  264.83    8.40
   1   6  -2  272.50    7.51
  -1   6   2  265.72    8.66
  -1   6   2  261.25    9.09
   1   6  -2  261.62    7.42
   1   6  -2  271.43    8.16
   1   6  -2  263.08    7.52
  -1   6   2  274.80    8.82
  -1   6   2  253.15    8.68
  -1   6   2  277.92    8.50
  -1   6   2  264.10    8.80
   1   6  -2  265.98    7.36
   1   6  -2  262.10    7.51
   0  -6  -2    1.26    1.23
   0  -6  -2    1.95    1.56
   0  -6   2    1.20    1.41
   0  -6   2    2.66    1.45
   0  -6  -2    2.61    1.53
   0  -6  -2    2.72    0.94
   0  -6  -2    2.40    1.45
   0  -6  -2    1.41    1.34
   0  -6   2    5.21    1.75
   0  -6  -2    4.57    1.59
   0  -6  -2    1.90    1.30
   0   6  -2    3.22    0.78
   0   6  -2    1.22    1.34
   0   6  -2    1.24    0.71
   0   6   2    3.60    1.55
   0   6   2    3.71    1.54
   0   6  -2    1.92    0.77
   0   6   2    0.69    1.38
   0   6   2    0.45    1.28
   0   6   2    2.21    1.47
   0   6  -2    1.60    1.38
   0   6   2   -0.58    1.38
  -1  -6  -2  395.22   11.92
   1  -6   2  367.15   11.99
  -1  -6  -2  382.43   11.57
  -1  -6  -2  374.71   11.79
   1  -6   2  378.61    9.81
  -1  -6  -2  376.21    9.82
  -1  -6  -2  368.72   11.03
  -1  -6  -2  379.84   11.19
  -1  -6  -2  398.65   11.53
  -1   6  -2  374.65   10.47
  -1   6  -2  386.80   10.13
  -1   6  -2  362.11   11.66
   1   6   2  364.57   11.33
   1   6   2  364.82   11.67
  -1   6  -2  380.19   10.42
  -1   6  -2  363.72   10.39
  -1   6  -2  392.80   10.36
   1   6   2  359.18   11.50
   1   6   2  393.86   11.60
   1   6   2  364.61   11.97
  -1   6  -2  378.10   11.39
   1   6   2  371.41   11.64
   1   6   2  381.97   11.81
   2  -6   2    3.55    2.02
  -2  -6  -2    1.51    0.48
   2  -6   2   -0.82    1.09
  -2  -6  -2   -1.05    1.06
  -2  -6  -2    0.08    1.49
  -2  -6  -2    2.29    1.48
  -2  -6  -2   -0.57    1.45
  -2  -6  -2    1.64    1.48
   2  -6   2    0.52    1.53
  -2  -6  -2    0.29    1.68
  -2  -6  -2    0.00    1.70
  -2   6  -2    1.83    1.64
   2   6   2    1.20    2.02
  -2   6  -2    0.55    1.13
  -2   6  -2    0.11    1.18
  -2   6  -2    0.39    1.65
   2   6   2   -0.46    1.79
   2   6   2    1.29    1.71
   2   6   2   -0.41    1.83
   2   6   2   -0.70    1.54
  -2   6  -2   -1.12    1.67
  -2   6  -2    1.41    1.36
   2   6   2   -0.25    1.83
  -3  -6  -2  233.45    8.41
  -3  -6  -2  229.67    6.52
   3  -6   2  227.76    9.30
  -3  -6  -2  227.85    8.92
   3  -6   2  227.18    8.90
  -3  -6  -2  232.33    6.59
   3  -6   2  231.43    7.86
  -3  -6  -2  230.53    6.42
  -3  -6  -2  237.09    8.88
   3  -6   2  233.37    7.62
  -3  -6  -2  221.93    8.27
  -3  -6  -2  238.33    7.91
  -3  -6  -2  221.97    8.80
  -3   6  -2  219.06    8.98
  -3   6  -2  236.57    8.20
  -3   6  -2  216.44    7.99
   3   6   2  215.25    8.72
   3   6   2  250.81    9.17
  -3   6  -2  232.39    8.10
   3   6   2  237.61    9.06
   3   6   2  238.21    9.45
  -3   6  -2  230.91    8.17
   3   6   2  226.95    9.44
  -3   6  -2  222.75    9.05
   3   6   2  218.01    8.78
   4  -6   2    1.14    1.13
  -4  -6  -2    1.68    1.81
  -4  -6  -2    1.70    2.66
  -4  -6  -2   -1.54    2.20
  -4  -6  -2    0.51    1.02
   4  -6   2   -0.45    1.68
  -4  -6  -2    0.86    2.00
   4  -6   2    5.40    2.39
   4  -6   2   -0.56    1.58
   4  -6   2    0.51    2.72
  -4  -6  -2    3.27    2.22
  -4   6  -2   -0.30    2.38
  -4   6  -2    3.06    2.47
  -4   6  -2    0.87    1.77
   4   6   2    1.00    2.28
   4   6   2    2.49    2.32
  -4   6  -2    4.52    2.98
  -4   6  -2    1.09    2.03
  -4   6  -2   -2.48    2.25
  -4   6  -2    4.55    2.68
   4   6   2   -1.74    2.90
   4   6   2    1.33    2.52
  -5  -6  -2   93.33    5.87
   5  -6   2   97.93    4.78
   5  -6   2  112.33    8.97
   5  -6   2   91.03    4.44
   5  -6   2   95.30    6.25
  -5  -6  -2   97.40    7.22
  -5  -6  -2   91.23    6.37
  -5  -6  -2   98.70    6.49
  -5  -6  -2   91.26    5.12
  -5   6  -2   84.13    5.96
  -5   6  -2   88.89    6.91
   5   6   2   94.16    6.88
  -5   6  -2   97.51    7.03
   5   6   2   95.88    6.78
   5   6   2   97.29    6.85
   5   6   2  101.70    8.01
  -5   6  -2   95.59    6.92
  -5   6  -2   89.27    6.22
   6  -6   2   18.68    3.83
  -6  -6  -2   16.48    3.04
  -6  -6  -2   16.68    4.18
  -6  -6  -2   17.21    3.94
  -6  -6  -2   19.51    2.71
   6  -6   2   18.07    3.38
  -6  -6  -2   15.52    3.69
   6  -6   2   26.17    4.26
   6  -6   2   14.55    2.74
  -6   6  -2   14.43    4.70
   6   6   2   19.49    4.79
   6   6   2   13.22    5.01
  -6   6  -2   15.26    4.49
  -6   6  -2   22.97    5.29
  -6   6  -2   11.89    3.90
  -6   6  -2   20.40    4.38
   6   6   2   12.36    5.03
   7  -6   2    6.66    3.47
  -7  -6  -2    5.05    3.65
   7  -6   2    3.50    3.44
  -7  -6  -2    7.35    8.72
   7  -6   2    9.18    4.73
  -7  -6  -2    6.45    2.87
  -7   6  -2    1.43    3.98
   7   6   2    1.80    4.60
   7   6   2    7.09    4.55
  -7   6  -2    9.50    4.68
   7   6   2    5.44    4.52
  -7   6  -2   -2.93    8.28
  -7   6  -2    9.95    4.34
   8  -6   2   14.82    4.66
  -8  -6  -2   20.56    4.98
  -8  -6  -2   11.56    5.02
   8  -6   2   24.51    6.23
   8  -6   2   17.51    6.47
  -8   6  -2   14.50    5.84
  -8   6  -2   10.95    5.94
  -8   6  -2    2.93    5.66
  -8   6  -2   26.12    6.49
   8   6   2   18.37    5.97
   8   6   2   17.86    6.56
   8   6   2   12.95    5.94
  -8  -7   2   30.05    5.51
   8  -7  -2   39.91    7.93
   8  -7  -2   22.75    5.22
  -8  -7   2   24.31    3.74
   8  -7  -2   36.35    5.97
  -8   7   2   29.29    6.09
  -8   7   2   30.30    6.08
   8   7  -2   30.33    5.59
   8   7  -2   33.02    6.61
  -8   7   2   32.57    6.80
  -8   7   2   33.78    6.19
   8   7  -2   34.20    5.91
  -7  -7   2   13.67    3.97
   7  -7  -2   12.28    4.39
  -7  -7   2   13.69    3.67
  -7  -7   2   10.52    2.46
   7  -7  -2    8.02    4.19
  -7  -7   2   12.83    4.18
   7  -7  -2   11.07    3.75
   7   7  -2    9.42    3.72
  -7   7   2   17.00    4.89
  -7   7   2   17.73    4.92
   7   7  -2   12.64    5.36
  -7   7   2   16.90    4.58
   7   7  -2    8.04    4.29
  -7   7   2   22.75    4.92
   6  -7  -2    0.26    3.11
  -6  -7   2    3.98    3.16
   6  -7  -2    1.01    3.03
  -6  -7   2    1.63    1.95
   6  -7  -2    2.15    1.27
  -6  -7   2   -1.26    2.63
   6  -7  -2    8.43    4.94
   6  -7  -2    7.07    3.12
  -6  -7   2    2.81    3.10
  -6  -7   2    1.10    1.56
  -6   7   2    4.18    3.72
  -6   7   2   -2.71    3.25
  -6   7   2   -0.34    4.02
  -6   7   2    2.42    4.14
   6   7  -2    5.77    4.48
   6   7  -2    3.11    3.59
   6   7  -2    3.88    4.40
   6   7  -2    1.42    2.72
   6   7  -2    1.47    1.70
  -5  -7   2   22.59    3.75
   5  -7  -2   20.54    3.68
   5  -7  -2   23.29    3.70
  -5  -7   2   20.43    2.82
   5  -7  -2   18.97    3.07
  -5  -7   2   21.50    3.99
   5  -7  -2   20.50    3.92
  -5   7   2   18.69    3.93
  -5   7   2   22.77    4.38
   5   7  -2   23.30    4.16
   5   7  -2   22.80    3.39
  -5   7   2   18.19    3.47
  -5   7   2   17.98    3.84
   5   7  -2   17.68    3.89
   5   7  -2   23.87    3.46
  -5   7   2   20.31    3.49
   4  -7  -2   27.99    4.06
  -4  -7   2   29.40    2.93
   4  -7  -2   26.06    3.29
   4  -7  -2   26.43    3.83
  -4  -7   2   30.57    3.96
   4  -7  -2   29.93    3.45
   4  -7  -2   26.05    2.73
  -4  -7   2   27.35    3.95
  -4  -7   2   26.19    2.94
   4  -7  -2   33.25    3.99
  -4   7   2   36.60    4.59
   4   7  -2   27.22    3.39
  -4   7   2   32.97    2.82
   4   7  -2   26.98    3.16
   4   7  -2   26.68    3.42
  -4   7   2   32.72    4.12
  -4   7   2   32.42    4.09
  -4   7   2   23.97    3.40
  -4   7   2   27.28    3.57
   4   7  -2   33.04    4.02
   4   7  -2   23.41    3.66
   3  -7  -2   15.54    2.72
   3  -7  -2   16.29    2.66
   3  -7  -2   13.20    2.80
   3  -7  -2   11.97    2.09
   3  -7  -2   19.50    3.12
  -3  -7   2   16.81    3.05
  -3  -7   2   15.65    1.71
  -3  -7   2   16.41    2.95
   3  -7  -2   17.30    2.96
   3  -7  -2   13.89    2.52
  -3  -7   2   19.43    2.21
   3   7  -2   16.34    2.06
   3   7  -2   15.90    2.53
  -3   7   2   16.97    2.88
   3   7  -2   17.08    1.42
  -3   7   2   15.98    2.72
  -3   7   2    9.89    2.65
  -3   7   2   18.27    2.97
   3   7  -2   22.48    2.90
   3   7  -2   17.57    3.05
  -3   7   2   14.36    2.59
  -3   7   2   16.75    1.96
   3   7  -2   15.74    2.13
  -3   7   2   13.56    2.54
   2  -7  -2   54.50    3.84
  -2  -7   2   49.86    3.99
  -2  -7   2   47.56    2.12
  -2  -7   2   50.58    3.14
  -2  -7   2   47.86    4.37
   2  -7  -2   60.04    4.60
   2  -7  -2   52.97    3.75
   2  -7  -2   40.33    3.64
   2  -7  -2   50.73    3.51
   2  -7  -2   39.74    4.35
   2  -7  -2   47.99    3.25
   2   7  -2   43.18    2.77
  -2   7   2   46.85    3.73
   2   7  -2   47.30    2.77
  -2   7   2   42.86    3.78
   2   7  -2   45.53    2.80
  -2   7   2   48.02    3.12
  -2   7   2   52.28    4.28
   2   7  -2   47.25    3.10
  -2   7   2   46.34    3.68
   2   7  -2   50.51    3.02
   2   7  -2   44.13    3.84
  -2   7   2   57.02    4.03
   1  -7  -2   35.80    3.73
   1  -7  -2   37.00    2.85
  -1  -7   2   31.31    3.17
  -1  -7   2   27.14    3.32
   1  -7  -2   29.25    3.15
   1  -7  -2   32.28    2.67
   1  -7  -2   27.43    3.43
   1  -7  -2   31.42    2.64
  -1  -7   2   38.63    3.03
  -1   7   2   35.29    3.18
   1   7  -2   32.79    2.12
  -1   7   2   34.14    3.25
  -1   7   2   28.30    3.45
  -1   7   2   31.48    3.16
  -1   7   2   28.44    3.18
   1   7  -2   30.11    2.02
   1   7  -2   30.20    2.76
   1   7  -2   30.49    2.18
  -1   7   2   33.47    3.15
   1   7  -2   30.02    2.08
   1   7  -2   32.41    1.92
   0  -7   2   94.46    4.35
   0  -7  -2  101.58    4.88
   0  -7   2  101.89    5.11
   0  -7  -2  106.23    3.75
   0  -7  -2  100.12    5.15
   0  -7  -2   98.57    4.92
   0  -7   2   98.39    4.74
   0  -7  -2  105.43    4.46
   0  -7  -2   94.09    4.36
   0  -7  -2   89.66    5.05
   0   7  -2   98.79    4.75
   0   7   2  101.17    5.12
   0   7   2   96.98    4.93
   0   7   2  107.61    5.19
   0   7   2   98.84    4.94
   0   7  -2   97.92    3.65
   0   7  -2   90.37    5.24
   0   7  -2  103.64    3.73
   0   7   2  101.49    4.96
   0   7  -2  101.44    3.73
   0   7  -2   99.82    3.73
   0   7   2  112.20    5.19
  -1  -7  -2    5.83    1.53
  -1  -7  -2    3.18    1.97
   1  -7   2    4.95    0.86
  -1  -7  -2    9.18    2.13
  -1  -7  -2    5.01    0.60
  -1  -7  -2    2.84    1.88
   1  -7   2    3.76    0.81
  -1  -7  -2    5.02    2.03
  -1  -7  -2    5.80    1.74
   1  -7   2    4.77    2.06
   1   7   2    6.55    1.96
  -1   7  -2    4.87    1.21
   1   7   2    4.06    2.07
  -1   7  -2    6.91    1.39
   1   7   2    7.39    2.26
   1   7   2    2.04    1.69
  -1   7  -2    5.34    1.68
  -1   7  -2    4.92    1.93
  -1   7  -2    6.99    1.24
  -1   7  -2    4.80    1.21
   1   7   2    3.59    1.88
  -1   7  -2    4.98    1.06
   2  -7   2  214.20    6.59
  -2  -7  -2  217.54    8.25
   2  -7   2  207.56    8.90
  -2  -7  -2  205.23    7.57
  -2  -7  -2  212.23    6.94
  -2  -7  -2  214.84    8.60
   2  -7   2  225.97    6.83
  -2  -7  -2  210.82    7.71
   2  -7   2  223.70    8.15
  -2  -7  -2  210.12    7.53
  -2   7  -2  213.02    8.45
  -2   7  -2  219.26    7.26
  -2   7  -2  223.21    8.35
  -2   7  -2  216.19    7.34
   2   7   2  229.52    8.43
   2   7   2  214.52    8.32
   2   7   2  213.84    8.84
   2   7   2  204.31    8.27
  -2   7  -2  221.03    7.27
   2   7   2  199.50    8.11
  -2   7  -2  209.82    8.17
   2   7   2  205.21    8.63
   3  -7   2    6.90    2.63
  -3  -7  -2    3.79    2.14
   3  -7   2   -0.76    1.84
  -3  -7  -2    3.05    1.48
  -3  -7  -2   -4.89    1.67
  -3  -7  -2    0.28    1.63
   3  -7   2   -0.56    1.19
  -3  -7  -2    1.67    2.00
   3  -7   2    1.50    3.21
  -3  -7  -2   -0.50    1.85
  -3   7  -2   -0.08    2.07
   3   7   2   -1.70    3.07
  -3   7  -2   -0.20    1.88
   3   7   2    1.44    2.68
  -3   7  -2    0.71    2.10
  -3   7  -2    0.08    1.55
   3   7   2   -0.57    2.12
  -3   7  -2    3.13    1.68
  -3   7  -2    5.63    2.35
   3   7   2    0.58    2.28
   3   7   2    2.68    2.07
  -4  -7  -2  247.12    9.74
   4  -7   2  241.18    8.49
  -4  -7  -2  238.28    8.35
  -4  -7  -2  234.67    8.97
  -4  -7  -2  225.54    9.74
  -4  -7  -2  246.34    9.54
   4  -7   2  223.55   10.11
  -4   7  -2  243.32    9.30
  -4   7  -2  229.35    9.03
   4   7   2  226.04    9.90
  -4   7  -2  235.54    9.35
   4   7   2  237.26   10.50
  -4   7  -2  236.38   10.09
  -4   7  -2  254.18   13.24
   4   7   2  244.67   10.60
  -4   7  -2  229.90   10.21
   4   7   2  240.68   10.02
  -5  -7  -2    8.41    3.28
   5  -7   2    6.91    2.84
   5  -7   2    8.63    1.70
  -5  -7  -2    7.36    2.69
  -5  -7  -2   10.57    1.49
  -5  -7  -2    4.83    3.31
  -5  -7  -2    1.15    3.83
   5  -7   2    8.02    1.65
  -5  -7  -2    9.02    2.64
   5  -7   2    8.92    3.40
   5   7   2    8.24    3.82
   5   7   2   14.30    4.36
  -5   7  -2    3.28    3.83
   5   7   2   -1.56    5.11
  -5   7  -2    4.88    4.04
  -5   7  -2    9.36    2.95
  -5   7  -2    6.79    3.69
  -5   7  -2   10.62    3.19
   5   7   2   13.54    3.98
   6  -7   2   80.53    4.60
  -6  -7  -2   64.67    7.61
  -6  -7  -2   85.10    7.06
   6  -7   2   93.15    7.02
   6  -7   2   71.89    6.92
  -6  -7  -2   78.79    7.26
  -6   7  -2   85.31    8.85
  -6   7  -2   84.10    7.98
   6   7   2   72.37    8.72
  -6   7  -2   57.40    8.28
   6   7   2   74.11    8.09
   7  -7   2   23.24    5.40
  -7  -7  -2   21.07    4.99
   7  -7   2   34.34    5.33
   7  -7   2   31.01    3.67
  -7  -7  -2   24.77    4.55
  -7  -7  -2   28.39    6.44
  -7   7  -2   23.22    5.50
   7   7   2   36.47    6.86
  -7   7  -2   43.81    6.30
   7   7   2   30.80    6.13
  -7   7  -2   19.78    5.59
  -7   7  -2   27.27    5.44
   7   7   2   31.10    5.75
  -8  -7  -2   10.80    5.07
  -8  -7  -2    3.59    3.81
   8  -7   2    5.00    4.32
  -8   7  -2    3.02    6.65
  -8   7  -2    5.47    6.34
  -8   7  -2    5.01    5.92
  -8   7  -2   13.80    6.80
   8   7   2   13.91    6.36
   8   7   2   -1.98    6.29
   8   7   2   -3.04    5.79
   8  -8  -2   62.67    7.77
   8  -8  -2   54.12    6.83
  -8  -8   2   47.60    6.41
   8  -8  -2   53.33    9.08
   8   8  -2   50.28    8.34
  -8   8   2   63.83    8.29
  -8   8   2   52.71    7.61
   8   8  -2   52.87    6.77
  -8   8   2   53.13    8.38
  -8   8   2   55.96    8.24
   8   8  -2   54.97    7.15
   7  -8  -2    0.75    3.90
   7  -8  -2    8.55    4.66
   7  -8  -2    0.52    4.37
  -7  -8   2    0.51    3.23
   7   8  -2    1.74    3.78
  -7   8   2   -2.19    4.09
   7   8  -2    0.52    5.95
   7   8  -2    4.04    4.72
  -7   8   2    2.22    4.53
  -7   8   2    4.37    4.81
  -7   8   2    6.77    4.85
  -6  -8   2  179.78   10.65
  -6  -8   2  206.27    9.87
   6  -8  -2  204.45   10.01
   6  -8  -2  197.94    9.13
   6  -8  -2  187.29   10.16
  -6   8   2  196.60   10.78
   6   8  -2  194.83    9.69
  -6   8   2  193.79   11.31
  -6   8   2  178.95   11.63
   6   8  -2  182.80   11.76
   5  -8  -2    1.55    2.72
   5  -8  -2    0.60    2.76
  -5  -8   2    0.54    2.60
  -5  -8   2    8.07    3.32
   5  -8  -2   -0.48    2.26
   5  -8  -2   -2.45    3.74
  -5  -8   2    4.96    2.35
  -5   8   2   -4.73    3.22
   5   8  -2    1.80    2.72
   5   8  -2    1.01    2.47
  -5   8   2   -0.11    3.10
   5   8  -2   -0.29    3.69
  -5   8   2    9.40    4.78
  -5   8   2    3.11    3.25
   5   8  -2    4.68    3.98
  -5   8   2   -0.52    3.58
  -4  -8   2  226.36    9.97
   4  -8  -2  227.96    8.39
  -4  -8   2  214.80    7.90
   4  -8  -2  221.93    9.10
  -4  -8   2  229.13    9.58
   4  -8  -2  211.54    9.78
   4  -8  -2  233.83    8.97
  -4   8   2  229.08    9.67
   4   8  -2  221.08    8.55
   4   8  -2  230.57    8.72
   4   8  -2  206.52    8.87
  -4   8   2  228.57    9.58
   4   8  -2  232.72    8.78
  -4   8   2  233.29   10.22
   4   8  -2  227.41   10.30
  -4   8   2  223.91    9.57
  -4   8   2  226.99    7.07
  -4   8   2  226.03    9.95
   3  -8  -2   12.09    3.05
   3  -8  -2    6.54    2.27
  -3  -8   2    7.24    1.66
  -3  -8   2    6.52    2.59
   3  -8  -2   12.57    3.79
   3  -8  -2    8.10    1.88
  -3  -8   2    6.10    1.51
   3  -8  -2    6.70    2.13
  -3  -8   2    7.64    2.54
   3   8  -2    5.71    1.16
  -3   8   2    4.67    2.20
   3   8  -2    6.44    1.97
  -3   8   2    8.23    2.33
  -3   8   2    6.74    2.60
  -3   8   2    8.56    2.15
   3   8  -2    5.33    2.28
   3   8  -2    5.30    2.60
  -3   8   2   11.25    3.20
   3   8  -2    3.99    1.68
   3   8  -2    6.19    2.01
  -3   8   2    8.18    2.56
   2  -8  -2  103.58    5.36
   2  -8  -2  103.72    5.68
  -2  -8   2   97.91    5.70
  -2  -8   2  109.70    3.40
   2  -8  -2  103.15    7.30
   2  -8  -2  110.57    6.64
  -2  -8   2   95.48    5.54
   2  -8  -2   99.88    4.67
  -2  -8   2  111.06    4.82
   2  -8  -2  103.38    5.45
   2   8  -2  106.95    4.48
   2   8  -2  105.13    4.66
   2   8  -2  108.73    6.25
  -2   8   2  114.73    4.89
  -2   8   2  102.87    6.06
   2   8  -2  105.46    4.50
  -2   8   2   98.81    5.78
  -2   8   2  111.12    5.70
  -2   8   2  105.07    5.72
   2   8  -2  110.94    4.91
  -2   8   2  101.16    5.54
   2   8  -2  108.20    4.55
  -1  -8   2   31.60    3.28
   1  -8  -2   29.22    3.64
   1  -8  -2   30.04    2.71
   1  -8  -2   32.26    3.77
   1  -8  -2   28.42    3.61
   1  -8  -2   30.31    3.04
  -1  -8   2   31.22    3.51
   1  -8  -2   31.68    3.91
  -1  -8   2   31.23    3.30
  -1   8   2   35.82    3.84
   1   8  -2   28.06    3.02
   1   8  -2   35.57    2.79
   1   8  -2   31.20    2.32
  -1   8   2   32.85    3.84
  -1   8   2   38.07    3.52
   1   8  -2   30.97    3.96
  -1   8   2   37.04    3.53
   1   8  -2   31.13    1.82
   1   8  -2   33.41    2.36
  -1   8   2   30.08    3.81
   1   8  -2   34.31    2.42
  -1   8   2   26.79    3.31
   0  -8  -2   35.61    3.66
   0  -8  -2   34.37    2.16
   0  -8  -2   27.94    3.64
   0  -8  -2   28.92    3.45
   0  -8  -2   32.24    3.53
   0  -8   2   36.34    3.54
   0  -8  -2   30.57    2.99
   0  -8   2   35.34    3.62
   0  -8  -2   35.34    2.76
   0   8   2   38.35    3.67
   0   8  -2   33.15    2.60
   0   8   2   32.44    3.50
   0   8  -2   39.94    3.39
   0   8  -2   31.18    3.39
   0   8   2   32.21    3.49
   0   8  -2   29.92    2.32
   0   8  -2   35.00    2.84
   0   8  -2   33.10    2.33
   0   8  -2   31.16    2.32
   0   8   2   43.38    3.89
   0   8   2   37.76    3.96
   0   8   2   30.59    3.93
  -1  -8  -2   25.42    3.04
  -1  -8  -2   23.28    3.38
   1  -8   2   22.85    1.52
  -1  -8  -2   31.20    3.42
  -1  -8  -2   23.25    2.72
   1  -8   2   25.92    1.42
  -1  -8  -2   21.57    2.91
   1  -8   2   23.30    3.33
  -1  -8  -2   25.13    3.09
  -1  -8  -2   16.44    2.71
  -1   8  -2   24.65    3.02
  -1   8  -2   21.86    2.99
   1   8   2   20.73    3.29
  -1   8  -2   25.58    2.40
   1   8   2   22.62    3.14
  -1   8  -2   26.03    2.33
   1   8   2   26.75    3.54
  -1   8  -2   24.21    2.27
   1   8   2   27.16    3.22
  -1   8  -2   29.65    2.83
   1   8   2   27.02    3.33
   1   8   2   24.36    2.96
   1   8   2   28.92    3.85
  -1   8  -2   25.28    3.11
  -2  -8  -2    5.77    2.03
  -2  -8  -2    7.01    2.39
  -2  -8  -2    6.64    2.62
  -2  -8  -2    6.21    1.74
   2  -8   2    7.21    1.55
   2  -8   2    8.50    1.38
  -2  -8  -2    4.75    1.80
   2  -8   2    6.54    3.34
  -2   8  -2    9.03    2.24
   2   8   2   14.11    3.79
  -2   8  -2    8.11    2.32
  -2   8  -2    8.94    1.98
   2   8   2    2.45    2.61
   2   8   2    9.25    2.78
   2   8   2    3.90    2.11
   2   8   2    8.11    3.52
  -2   8  -2    5.41    2.31
  -2   8  -2    5.67    1.64
   2   8   2    6.69    2.41
  -2   8  -2    8.31    1.86
  -3  -8  -2   42.13    3.76
  -3  -8  -2   43.20    2.59
  -3  -8  -2   44.42    4.52
  -3  -8  -2   43.79    4.20
  -3  -8  -2   35.57    4.39
   3  -8   2   39.90    4.79
  -3  -8  -2   48.02    4.91
   3  -8   2   38.61    4.47
   3  -8   2   54.71    4.02
   3   8   2   41.46    4.53
   3   8   2   47.77    5.06
   3   8   2   48.61    5.01
  -3   8  -2   40.44    4.12
   3   8   2   47.18    4.71
  -3   8  -2   44.64    4.87
  -3   8  -2   38.06    4.77
  -3   8  -2   37.57    3.78
  -3   8  -2   42.94    3.69
  -3   8  -2   43.53    4.69
  -4  -8  -2   66.88    5.47
   4  -8   2   72.29    4.34
  -4  -8  -2   62.31    4.71
   4  -8   2   54.91    5.34
  -4  -8  -2   71.47    5.82
  -4  -8  -2   60.55    4.97
  -4  -8  -2   60.25    5.52
  -4   8  -2   60.86    6.42
   4   8   2   71.64    6.09
  -4   8  -2   62.94    5.20
   4   8   2   63.12    6.51
  -4   8  -2   72.70    5.84
   4   8   2   75.99    6.46
  -4   8  -2   62.78    5.93
   4   8   2   60.43    7.12
  -4   8  -2   57.57    5.02
  -5  -8  -2   26.40    3.82
  -5  -8  -2   24.40    3.55
  -5  -8  -2   23.24    4.23
   5  -8   2   29.42    3.79
  -5  -8  -2   20.87    4.73
   5  -8   2   26.61    4.48
  -5  -8  -2   30.26    4.83
   5   8   2   32.90    5.55
  -5   8  -2   29.70    4.45
  -5   8  -2   20.93    5.12
   5   8   2   32.17    5.37
  -5   8  -2   28.61    5.28
  -5   8  -2   31.21    4.48
  -5   8  -2   29.85    5.40
   5   8   2   30.00    5.81
   5   8   2   36.38   11.94
  -6  -8  -2   70.18    7.47
  -6  -8  -2   72.44    7.93
  -6  -8  -2   70.91    6.49
   6  -8   2   67.72    7.50
   6  -8   2   71.06    6.90
  -6   8  -2   85.60    8.60
   6   8   2   71.18    8.42
  -6   8  -2   73.15    8.27
   6   8   2   71.66    8.09
  -6   8  -2   72.53    8.77
   6   8   2   78.30    8.10
  -6   8  -2   77.33    7.24
  -7  -8  -2    6.98    6.09
   7  -8   2   13.07    4.15
  -7  -8  -2    4.57    3.69
  -7  -8  -2    7.05    4.44
  -7   8  -2   15.47    6.07
  -7   8  -2    2.81    4.70
   7   8   2   -0.15    5.22
   7   8   2    7.89    5.24
  -7   8  -2    8.43    5.86
   7   8   2    9.83    6.23
  -7   8  -2   10.72    5.51
  -7  -9   2  116.04    8.40
   7  -9  -2  102.32    9.79
   7  -9  -2   96.16   11.23
   7  -9  -2  103.52    9.01
   7   9  -2  109.19   10.98
  -7   9   2  106.65   10.53
  -7   9   2  106.26   10.93
   7   9  -2  115.21    9.68
  -7   9   2   96.54   10.41
   7   9  -2   91.38    8.56
  -7   9   2   97.14    9.39
  -6  -9   2    0.69    3.02
   6  -9  -2   -2.63    3.96
   6  -9  -2    1.31    3.32
   6  -9  -2   -1.27    3.39
   6   9  -2   -7.46    4.30
  -6   9   2   12.34    5.73
  -6   9   2    8.48    4.04
  -6   9   2    4.05    4.41
   6   9  -2   -3.71    3.95
  -6   9   2   -2.89    4.39
   6   9  -2    6.17    3.42
   5  -9  -2   96.31    6.85
  -5  -9   2   91.15    5.73
   5  -9  -2   84.18    7.25
  -5  -9   2   90.15   11.68
  -5   9   2  114.62    8.44
  -5   9   2   96.46    8.46
  -5   9   2   83.12    8.98
   5   9  -2   94.60    6.93
   5   9  -2   94.11    8.42
   5   9  -2   88.61    6.52
   4  -9  -2    0.10    2.03
   4  -9  -2   -2.51    2.76
   4  -9  -2   -1.65    2.75
  -4  -9   2   -1.43    2.63
   4  -9  -2   -0.91    3.01
  -4  -9   2    2.66    1.93
   4   9  -2   -2.24    2.85
  -4   9   2    5.54    3.76
   4   9  -2   -1.26    2.17
  -4   9   2   -1.39    2.59
   4   9  -2   -2.30    3.17
  -4   9   2    2.38    4.38
  -4   9   2   -1.89    2.96
  -4   9   2    0.80    2.76
   4   9  -2   -5.20    1.99
  -3  -9   2  133.55    4.87
  -3  -9   2  132.72    7.41
   3  -9  -2  132.53    5.66
   3  -9  -2  132.41    6.85
   3  -9  -2  134.15    7.62
   3  -9  -2  140.66    6.25
  -3  -9   2  135.90    5.39
  -3  -9   2  139.16    4.82
   3  -9  -2  126.08    7.48
   3   9  -2  131.18    5.98
  -3   9   2  127.65    7.08
  -3   9   2  137.42    7.75
  -3   9   2  133.78    7.21
   3   9  -2  130.77    7.93
   3   9  -2  143.50    6.11
  -3   9   2  141.02    5.70
   3   9  -2  123.86    6.63
  -3   9   2  145.34    8.05
   3   9  -2  142.52    6.16
   3   9  -2  137.22    5.56
   2  -9  -2   -3.97    2.21
   2  -9  -2   -1.78    2.04
   2  -9  -2    0.98    2.04
  -2  -9   2    2.82    1.73
   2  -9  -2    3.44    2.60
   2  -9  -2    1.78    1.43
  -2  -9   2    1.29    2.26
  -2   9   2   -1.28    1.75
  -2   9   2    3.08    2.87
   2   9  -2    6.42    2.63
   2   9  -2   -0.76    1.51
  -2   9   2    3.06    2.03
  -2   9   2    0.13    2.06
   2   9  -2   -1.63    1.41
  -2   9   2    2.26    2.46
   2   9  -2    4.15    2.27
   2   9  -2   -0.66    1.59
   2   9  -2   -0.10    1.45
   1  -9  -2   75.48    5.11
   1  -9  -2   72.24    5.35
   1  -9  -2   78.37    5.13
  -1  -9   2   68.53    4.58
   1  -9  -2   76.62    4.03
  -1  -9   2   66.42    4.79
   1  -9  -2   61.45    3.66
   1   9  -2   71.67    3.66
   1   9  -2   72.88    5.35
   1   9  -2   70.01    3.71
  -1   9   2   63.77    4.66
  -1   9   2   70.72    5.23
  -1   9   2   73.55    4.97
   1   9  -2   80.10    3.99
  -1   9   2   67.80    5.39
   1   9  -2   73.78    4.32
  -1   9   2   71.01    5.01
   1   9  -2   64.48    5.51
   0  -9  -2   13.54    1.77
   0  -9  -2   18.64    3.22
   0  -9   2   15.76    2.95
   0  -9  -2   17.35    3.31
   0  -9  -2   15.15    3.35
   0  -9  -2   17.66    3.04
   0  -9   2   18.44    3.03
   0  -9  -2   17.34    2.12
   0  -9  -2   14.43    1.98
   0   9  -2   13.40    2.63
   0   9   2   13.00    3.05
   0   9   2   12.15    2.56
   0   9  -2   15.58    2.33
   0   9  -2   17.00    2.61
   0   9  -2   18.86    2.31
   0   9   2   16.70    2.81
   0   9   2    9.90    2.57
   0   9  -2   12.92    1.84
   0   9  -2   13.48    1.95
   0   9  -2   13.85    1.88
   0   9   2   10.79    3.15
   1  -9   2   14.76    4.18
  -1  -9  -2   13.80    2.00
  -1  -9  -2   15.81    3.17
  -1  -9  -2    9.23    2.45
  -1  -9  -2   15.72    2.25
  -1  -9  -2   19.73    3.45
  -1  -9  -2   14.32    2.52
   1   9   2   18.79    3.16
  -1   9  -2   16.86    2.29
  -1   9  -2   12.56    2.57
   1   9   2   14.10    2.84
  -1   9  -2   13.46    2.75
  -1   9  -2   15.34    2.04
   1   9   2   17.13    3.27
   1   9   2   17.89    3.58
  -1   9  -2   15.98    2.33
   1   9   2   16.45    2.88
  -1   9  -2   13.41    1.87
   1   9   2   16.10    2.96
  -1   9  -2   15.33    2.01
  -2  -9  -2   32.48    4.27
  -2  -9  -2   23.95    3.00
  -2  -9  -2   25.69    3.10
   2  -9   2   30.47    4.05
   2  -9   2   37.39    2.71
   2  -9   2   27.71    2.33
  -2  -9  -2   32.42    3.72
  -2   9  -2   31.08    3.24
   2   9   2   28.34    3.75
   2   9   2   25.02    3.18
   2   9   2   26.29    4.04
  -2   9  -2   31.81    3.52
  -2   9  -2   29.81    3.55
  -2   9  -2   25.42    3.38
   2   9   2   18.91    3.29
   2   9   2   28.40    4.30
  -2   9  -2   28.17    3.38
  -2   9  -2   22.41    3.67
  -3  -9  -2    0.99    2.52
   3  -9   2    0.92    2.67
   3  -9   2    2.23    2.56
  -3  -9  -2    3.74    2.03
  -3  -9  -2   -1.10    3.02
   3  -9   2    0.25    1.65
  -3  -9  -2   -1.89    2.59
  -3  -9  -2    1.51    1.59
  -3  -9  -2   -0.54    2.57
   3   9   2    3.33    4.02
  -3   9  -2    0.60    2.62
   3   9   2    3.78    3.53
  -3   9  -2    0.76    2.22
  -3   9  -2    0.29    2.65
   3   9   2   -1.14    2.63
  -3   9  -2   -1.57    2.92
   3   9   2   -1.58    2.59
  -3   9  -2    0.25    2.05
  -4  -9  -2   17.81    3.88
   4  -9   2   17.87    3.94
  -4  -9  -2   15.72    3.54
  -4  -9  -2   17.27    3.76
  -4  -9  -2   17.30    3.06
   4  -9   2   15.61    2.66
  -4  -9  -2   18.87    4.19
  -4   9  -2   12.15    3.37
  -4   9  -2   18.24    4.16
   4   9   2   15.66    4.31
  -4   9  -2    6.85    4.42
  -4   9  -2   19.47    3.49
   4   9   2   11.22    5.62
   4   9   2    8.35    4.88
   4   9   2   16.39    4.28
  -4   9  -2   15.86    3.82
   5  -9   2   31.13    5.16
   5  -9   2   46.00    6.13
  -5  -9  -2   44.76    5.39
  -5  -9  -2   30.65    5.01
  -5  -9  -2   42.56    5.00
  -5   9  -2   30.70    6.17
  -5   9  -2   40.42    6.13
  -5   9  -2   35.57    4.77
   5   9   2   43.23    5.51
   5   9   2   36.39    6.22
  -5   9  -2   31.93    5.11
   5   9   2   33.39    6.71
  -6  -9  -2    9.79    4.58
  -6  -9  -2    9.47    3.94
  -6  -9  -2    9.94    4.94
   6  -9   2   11.41    4.33
  -6   9  -2   13.46    5.56
   6   9   2    6.05    5.18
  -6   9  -2   -1.31    3.65
   6   9   2    4.61    5.17
   6   9   2    5.46    4.77
  -6   9  -2   10.53    5.51
   7  -9   2  126.68    9.80
  -7  -9  -2  122.47    9.00
  -7  -9  -2  109.91    8.67
  -7   9  -2  121.11   12.77
   7   9   2  125.97   11.48
  -7   9  -2  102.42   12.53
   7   9   2  117.80   12.32
  -7   9  -2  115.31   10.14
  -7   9  -2  107.06   10.74
   7   9   2  113.34   12.48
  -7 -10   2   23.67    5.03
   7 -10  -2   34.56    6.24
  -7  10   2   35.91    7.61
   7  10  -2   26.53    7.51
   7  10  -2   36.36    6.05
  -7  10   2   39.13    6.65
  -7  10   2    9.69    6.69
   7  10  -2   34.93    6.84
  -7  10   2   37.47    7.74
   6 -10  -2   55.03    6.31
   6 -10  -2   48.40    6.37
  -6 -10   2   30.93    5.07
   6 -10  -2   35.16    5.76
  -6  10   2   45.75    6.08
  -6  10   2   45.06    6.86
  -6  10   2   33.96    6.23
   6  10  -2   56.22    6.91
   6  10  -2   47.62    7.05
   6  10  -2   48.83    6.91
  -6  10   2   47.02    6.84
   5 -10  -2    1.21    2.68
  -5 -10   2    3.54    3.28
   5 -10  -2    1.10    3.54
   5 -10  -2    5.85    3.91
   5  10  -2    1.90    3.56
   5  10  -2   -0.03    4.27
  -5  10   2    5.93    4.43
  -5  10   2   13.20    4.12
  -5  10   2    1.99    6.73
   5  10  -2   -0.50    3.43
  -5  10   2    3.93    4.73
  -4 -10   2   74.32   11.04
   4 -10  -2   54.45    4.47
   4 -10  -2   69.95    6.38
   4 -10  -2   68.84    6.07
   4  10  -2   75.75    5.68
   4  10  -2   63.86    6.14
   4  10  -2   73.56    9.66
  -4  10   2   73.01    7.16
   3 -10  -2   35.76    4.24
   3 -10  -2   33.50    4.54
   3 -10  -2   34.41    3.42
  -3 -10   2   31.33    2.33
   3 -10  -2   42.51    5.16
  -3 -10   2   35.99    3.59
   3 -10  -2   26.19    3.74
   3  10  -2   39.58    6.04
   3  10  -2   34.31    4.18
   3  10  -2   45.83    4.21
  -3  10   2   43.38    5.76
   3  10  -2   38.88    3.55
  -3  10   2   29.66    4.78
  -3  10   2   36.31    3.41
   3  10  -2   35.65    4.36
  -3  10   2   28.09    4.20
  -3  10   2   33.57    5.18
   2 -10  -2   16.06    2.31
   2 -10  -2   11.41    3.19
  -2 -10   2   15.36    3.61
   2 -10  -2   11.69    3.12
   2 -10  -2   16.64    3.34
   2 -10  -2   14.89    2.12
  -2 -10   2   15.66    2.69
   2  10  -2   12.63    2.25
  -2  10   2   13.88    3.33
  -2  10   2    5.96    3.85
   2  10  -2   15.36    2.52
  -2  10   2   18.21    3.30
   2  10  -2   15.18    2.42
   2  10  -2    9.83    3.22
   2  10  -2   15.71    4.07
  -2  10   2    7.90    3.58
  -2  10   2   20.45    3.15
   2  10  -2   16.56    2.42
   1 -10  -2  178.67    8.03
   1 -10  -2  170.49    8.23
   1 -10  -2  173.67    6.08
  -1 -10   2  170.63    8.26
   1 -10  -2  169.47    6.15
   1 -10  -2  181.57    7.48
  -1 -10   2  165.66    8.40
   1  10  -2  173.95    6.56
  -1  10   2  172.19    8.25
  -1  10   2  176.50    8.36
   1  10  -2  172.96    8.55
  -1  10   2  181.29    8.58
  -1  10   2  183.87    8.18
   1  10  -2  177.82    6.53
  -1  10   2  186.38    8.27
   1  10  -2  189.67    7.48
   1  10  -2  187.54    7.53
   1  10  -2  179.93    6.81
   1  10  -2  167.54    8.86
   0 -10  -2   -0.87    2.24
   0 -10   2    4.36    2.39
   0 -10  -2    4.81    2.73
   0 -10  -2    6.81    1.79
   0 -10  -2    2.83    1.55
   0 -10  -2    1.39    3.24
   0  10   2    4.15    2.54
   0  10   2    1.37    3.16
   0  10   2    4.45    2.60
   0  10  -2    1.83    2.33
   0  10   2    3.10    2.63
   0  10  -2    4.43    1.70
   0  10  -2    2.62    2.57
   0  10  -2    2.48    2.51
   0  10  -2    3.49    1.63
   0  10  -2    5.13    1.85
   0  10   2   12.79    3.71
  -1 -10  -2  180.10    9.25
  -1 -10  -2  188.65    6.47
  -1 -10  -2  180.07    8.16
  -1 -10  -2  183.79    6.57
  -1 -10  -2  186.90    7.85
   1 -10   2  188.23    8.62
   1  10   2  188.12   10.01
  -1  10  -2  192.00    6.94
  -1  10  -2  195.62    7.38
   1  10   2  193.12    8.30
  -1  10  -2  192.03    7.22
  -1  10  -2  206.36    8.82
   1  10   2  191.03    9.26
  -1  10  -2  195.19    7.99
  -1  10  -2  190.01    7.07
   1  10   2  188.36    8.49
   1  10   2  185.89    8.64
  -2 -10  -2    1.35    3.86
  -2 -10  -2   -1.76    1.99
  -2 -10  -2    2.18    1.80
   2 -10   2    0.85    1.37
   2 -10   2    1.80    2.67
  -2 -10  -2    0.98    2.05
  -2 -10  -2   -3.22    2.71
   2  10   2    1.26    3.98
  -2  10  -2    1.86    2.43
  -2  10  -2    5.67    3.21
  -2  10  -2   -0.06    1.81
   2  10   2   -1.10    2.53
   2  10   2    4.70    3.41
  -2  10  -2    0.10    2.10
   2  10   2   -0.23    4.24
  -2  10  -2   -2.41    2.38
  -3 -10  -2  118.92    5.06
  -3 -10  -2  117.38    6.86
   3 -10   2  137.35    7.92
  -3 -10  -2  119.18    5.61
  -3 -10  -2  119.28    7.71
  -3 -10  -2  122.24    7.46
   3 -10   2  129.60    5.22
   3  10   2  103.09    8.67
  -3  10  -2  126.28    6.89
  -3  10  -2  124.15    7.47
   3  10   2  127.43    8.05
  -3  10  -2  124.21    9.05
  -3  10  -2  115.84    6.63
   3  10   2  141.11    9.18
  -3  10  -2  127.22    6.71
   3  10   2  115.36    7.85
  -4 -10  -2   16.70    2.85
   4 -10   2   14.27    4.10
  -4 -10  -2   10.99    3.72
  -4 -10  -2   14.06    3.92
   4  10   2   22.19    4.48
  -4  10  -2   16.97    5.84
  -4  10  -2   10.94    3.38
  -4  10  -2   14.14    4.62
  -4  10  -2   11.43    4.67
   4  10   2   12.58    4.77
   4  10   2    9.56    4.58
   5 -10   2   24.44    4.95
  -5 -10  -2   23.96    4.60
  -5 -10  -2   28.31    5.16
  -5 -10  -2   26.68    3.59
  -5  10  -2   24.98    5.35
  -5  10  -2   29.36    6.03
   5  10   2   37.68    6.92
   5  10   2   24.31    5.17
   5  10   2   26.30    5.65
  -5  10  -2   21.77    5.72
  -5  10  -2   25.45    4.44
  -6 -10  -2   31.28    5.51
  -6 -10  -2   29.24    5.05
   6 -10   2   25.00    5.27
   6  10   2   28.87    6.41
  -6  10  -2   21.98    5.99
  -6  10  -2   23.47    6.69
   6  10   2   30.21    7.44
   6  10   2   28.28    6.60
  -6  10  -2   29.50    5.59
  -6  10  -2   36.64    6.11
   6 -11  -2    3.83    4.20
  -6 -11   2    4.16    3.94
   6  11  -2   12.22    6.92
  -6  11   2    4.55    5.09
   6  11  -2    2.15    4.44
  -6  11   2    3.62    6.10
  -6  11   2   -6.05    5.58
   6  11  -2   12.58    5.53
  -5 -11   2    4.25    3.58
   5 -11  -2    1.82    3.88
  -5  11   2   -2.10    4.72
   5  11  -2    4.46    4.96
  -5  11   2   13.98    4.91
   5  11  -2    2.64    5.11
  -5  11   2    3.64    4.12
   5  11  -2    7.08    3.59
   4 -11  -2    6.35    3.39
   4 -11  -2    5.26    2.18
  -4 -11   2   11.62    3.54
   4 -11  -2    4.90    3.88
  -4  11   2   10.25    5.21
  -4  11   2   -2.31    3.53
  -4  11   2    4.70    4.23
   4  11  -2    6.58    5.10
   4  11  -2    0.02    3.25
   3 -11  -2    8.28    3.49
  -3 -11   2    6.03    2.49
   3 -11  -2    1.08    2.11
  -3 -11   2    4.99    3.08
   3 -11  -2    4.56    3.44
   3  11  -2    6.95    2.85
   3  11  -2    5.90    3.15
  -3  11   2   10.46    3.91
   3  11  -2    0.07    4.23
   3  11  -2    9.15    2.15
  -3  11   2    0.40    4.51
  -3  11   2    6.29    3.40
  -2 -11   2   59.42    6.02
   2 -11  -2   49.99    5.68
  -2 -11   2   51.89    4.91
   2 -11  -2   53.95    5.48
   2  11  -2   60.05    4.42
  -2  11   2   60.31    6.11
   2  11  -2   46.95    4.62
   2  11  -2   57.30    4.42
  -2  11   2   53.24    6.77
   2  11  -2   74.65    7.97
  -2  11   2   47.41    6.08
   2  11  -2   61.77    4.54
   1 -11  -2    0.81    2.67
   1  11  -2    7.51    2.21
  -1  11   2    0.54    3.22
  -1  11   2    1.50    2.76
  -1  11   2    0.40    4.24
   1  11  -2    6.31    4.22
  -1  11   2    8.77    4.23
   1  11  -2    2.04    2.13
   1  11  -2    4.60    1.92
   1  11  -2    2.41    2.51
  -1  11   2    1.38    3.60
   1  11  -2   -0.33    5.05
   0 -11   2  120.68    6.92
   0 -11  -2  106.39    8.68
   0 -11  -2  118.27    6.60
   0  11   2  120.76    7.06
   0  11   2  129.65    8.20
   0  11   2  102.64    7.32
   0  11  -2  118.47    5.75
   0  11   2  113.34    7.49
   0  11  -2  134.36   10.61
   0  11  -2  115.96    6.70
   0  11  -2  125.93    6.94
   0  11  -2  116.13    5.32
   0  11  -2  117.95    5.64
  -1 -11  -2    9.35    4.30
  -1 -11  -2    6.05    2.66
   1 -11   2    8.15    3.03
   1  11   2   13.30    3.80
   1  11   2    7.14    3.21
  -1  11  -2    3.82    2.29
  -1  11  -2    7.07    2.52
  -1  11  -2    6.58    2.07
   1  11   2    7.00    3.00
  -1  11  -2    8.15    3.54
  -1  11  -2    5.83    2.18
  -2 -11  -2  196.90   12.76
  -2 -11  -2  172.53    7.23
  -2 -11  -2  171.19    9.12
   2 -11   2  165.00    9.05
  -2  11  -2  163.26    7.41
  -2  11  -2  156.10    7.71
  -2  11  -2  168.71   10.15
  -2  11  -2  171.19    7.73
   2  11   2  161.33    9.07
   2  11   2  166.80   10.43
   2  11   2  133.71   11.56
  -3 -11  -2    5.38    3.21
   3 -11   2    1.72    3.17
  -3 -11  -2   -4.88    3.72
  -3  11  -2    3.37    4.15
   3  11   2    4.02    3.40
  -3  11  -2    5.97    3.19
  -3  11  -2   -8.09    3.01
  -3  11  -2   -3.10    3.38
   3  11   2   -2.35    4.49
   3  11   2   -0.87    4.27
  -4 -11  -2  134.92    8.86
   4 -11   2  120.42    8.77
   4  11   2  111.45    9.73
  -4  11  -2  130.37    8.52
   4  11   2  114.82    9.92
  -4  11  -2  116.53   10.14
  -4  11  -2  117.18    7.73
   4  11   2  144.24    9.34
  -4  11  -2  126.79   10.51
  -5 -11  -2   -1.95    3.36
   5 -11   2    4.84    4.25
   5  11   2   -1.14    6.02
  -5  11  -2    1.61    5.64
   5  11   2    3.53    5.79
   5  11   2   -0.45    5.06
  -5  11  -2    1.85    5.40
  -5  11  -2   -4.85    4.10
   5 -12  -2   -1.70    4.03
  -5 -12   2    6.79    3.61
  -5  12   2    0.78    5.16
  -5  12   2   -1.82    6.08
   5  12  -2    4.96    4.15
   5  12  -2  -14.22    6.41
  -5  12   2   -5.79    5.39
   4 -12  -2  107.90    8.82
  -4 -12   2  119.53    8.47
   4  12  -2  117.74    7.64
  -4  12   2  120.13    9.76
   4  12  -2  135.75    9.53
  -4  12   2  118.25    9.20
   4  12  -2  147.12   11.34
  -4  12   2  114.55   10.44
   3 -12  -2    2.25    3.64
  -3 -12   2    5.99    3.68
  -3 -12   2   12.58    3.22
  -3  12   2    6.59    3.98
  -3  12   2    4.98    4.74
   3  12  -2   19.07    5.58
   3  12  -2    5.12    3.86
   3  12  -2    8.16    4.44
  -2 -12   2   82.15    6.63
   2 -12  -2   84.71    7.23
  -2 -12   2   78.72    8.87
   2  12  -2   97.25    6.23
  -2  12   2   87.57    7.38
   2  12  -2   87.88    6.27
  -2  12   2   98.44    8.71
  -2  12   2  115.03    8.61
   2  12  -2   98.20    6.81
   2  12  -2   96.27    9.30
  -1 -12   2   33.62    4.61
   1 -12  -2   42.49    5.43
  -1 -12   2   28.26    3.72
   1  12  -2   21.55    3.50
   1  12  -2   37.89    6.04
   1  12  -2   28.82    3.67
   1  12  -2   35.40    4.06
  -1  12   2   26.20    5.16
  -1  12   2   28.44    4.69
   0 -12  -2   15.63    3.51
   0 -12   2    9.72    3.26
   0  12   2   10.10    3.72
   0  12   2    7.02    4.33
   0  12  -2   12.59    3.31
   0  12   2   13.86    4.58
   0  12  -2   10.90    2.94
   0  12   2   14.81    5.00
   0  12  -2   15.32    3.93
  -1 -12  -2   64.66    5.36
  -1 -12  -2   52.10    6.06
   1 -12   2   48.42    5.89
  -1  12  -2   65.45    4.78
   1  12   2   50.14    5.65
  -1  12  -2   51.41    5.06
  -1  12  -2   72.98    8.05
   1  12   2   55.41    6.49
   1  12   2   51.93    6.36
  -1  12  -2   47.48    5.65
   1  12   2   62.35    8.01
   2 -12   2   19.92    4.35
  -2 -12  -2   17.29    5.38
  -2 -12  -2    9.14    3.76
   2  12   2   14.70    5.16
   2  12   2   18.43    4.36
  -2  12  -2   14.80    4.62
  -2  12  -2   13.15    3.63
   2  12   2   19.85    5.72
  -2  12  -2   16.70    4.03
   3 -12   2   32.02    5.15
  -3 -12  -2   46.34    5.86
  -3  12  -2   36.20    4.53
   3  12   2   39.46    6.04
  -3  12  -2   39.97    6.50
  -3  12  -2   43.07    5.71
   3  12   2   46.75    6.43
   3  12   2   33.28    6.48
  -3  12  -2   39.09    5.50
  -4 -12  -2   43.67    6.14
   4 -12   2   27.01    5.10
  -4  12  -2   47.80    7.21
  -4  12  -2   54.36    6.71
   4  12   2   44.41    7.00
  -4  12  -2   38.96    6.81
  -4  12  -2   29.79    7.05
   4  12   2   47.49    6.92
   4  12   2   38.57    7.77
  -4 -13   2   -3.95    3.38
   4 -13  -2    2.63    4.25
  -4  13   2   -8.59    5.81
  -4  13   2   -3.51    5.15
   4  13  -2    3.32    4.11
  -4  13   2    3.46    6.57
   4  13  -2   12.86    7.11
   3 -13  -2   75.22    7.92
  -3 -13   2   64.38    7.06
  -3  13   2   91.12    9.30
   3  13  -2   90.82   10.74
   3  13  -2   85.35   10.38
  -3  13   2   73.02    8.43
   3  13  -2   70.75    6.67
  -3  13   2   86.83   10.28
  -2 -13   2   -2.22    3.13
   2 -13  -2    0.23    3.71
  -2 -13   2    4.72    3.60
  -2  13   2    5.27    4.88
   2  13  -2    6.23    3.73
   2  13  -2   -2.67    4.03
  -2  13   2    0.56    5.13
   2  13  -2    2.38    2.98
   2  13  -2   -4.68    5.21
  -2  13   2    6.33    4.43
  -1 -13   2   47.92    6.11
   1 -13  -2   59.61    6.52
  -1 -13   2   53.47    5.93
   1  13  -2   63.36    7.88
   1  13  -2   58.52    5.59
  -1  13   2   48.57    6.68
   1  13  -2   55.34    7.71
  -1  13   2   53.02    6.66
  -1  13   2   53.95    6.98
   1  13  -2   51.76    6.50
   0 -13   2    2.36    3.56
   0 -13  -2    5.06    3.37
   0  13   2    3.57    5.57
   0  13   2   -6.55    4.09
   0  13  -2   -2.56    3.73
   0  13   2   -1.36    3.69
   0  13   2   -2.35    4.88
   0  13  -2    0.85    4.90
   0  13  -2   -4.66    6.11
   0  13  -2    1.22    3.72
   1 -13   2    8.83    4.08
  -1 -13  -2    7.12    3.56
  -1 -13  -2    7.09    3.50
  -1  13  -2    7.02    4.15
  -1  13  -2    8.24    3.02
  -1  13  -2   14.02    4.92
   1  13   2    8.05    5.09
   1  13   2    2.29    4.16
   1  13   2    2.73    5.79
  -2 -13  -2    0.71    3.48
   2 -13   2    5.49    3.86
  -2  13  -2   17.16    5.28
   2  13   2    8.80    4.76
  -2  13  -2    6.89    3.20
   2  13   2    2.63    5.68
   2  13   2    0.21    5.17
  -2  13  -2    9.97    4.91
  -3 -13  -2    1.28    3.69
   3 -13   2    0.41    3.79
  -3  13  -2    1.30    3.49
   3  13   2    5.39    5.07
   3  13   2   -4.23    5.25
   3  13   2    3.90    6.13
  -3  13  -2   -0.67    8.85
  -3  13  -2    7.51    6.30
   1 -14  -2   68.43    7.77
  -1 -14   2   65.56    7.73
  -1  14   2   67.38    8.83
  -1  14   2   57.45    7.50
  -1  14   2   70.60    7.64
  -1  14   2   62.19    7.29
   1  14  -2   73.04    6.45
   1  14  -2   97.34   11.16
   0 -14   2   10.76    4.31
   0 -14  -2    2.30    4.09
   0  14  -2   23.95    7.15
   0  14  -2    8.81    3.57
   0  14   2   -5.04    4.73
   0  14   2    5.60    5.50
   0  14   2   10.50    6.84
   0  14  -2    3.95    5.51
   0  14   2   -4.14    5.26
 -10   0   3    2.87    5.91
  10   0  -3    4.87    6.16
  10   0  -3   14.68    5.65
 -10   0   3   -6.11    6.54
 -10   0   3    0.17    3.54
  10   0  -3    4.78    6.57
 -10   0   3   -1.88    3.65
   9   0  -3   40.33    6.27
  -9   0   3   28.27    5.77
  -9   0   3   39.58    4.69
  -9   0   3   32.16    6.73
  -9   0   3   29.00    5.56
   9   0  -3   37.52    6.54
  -9   0   3   34.02    3.98
   9   0  -3   21.78    5.80
  -8   0   3   -1.19    2.10
   8   0  -3   -5.56    4.13
  -8   0   3    1.51    4.10
  -8   0   3   -0.99    3.94
   8   0  -3   -1.25    4.21
  -8   0   3    1.06    2.56
   8   0  -3    6.92    2.44
  -8   0   3    3.32    3.31
   8   0  -3   -2.14    3.94
   7   0  -3   24.04    8.10
   7   0  -3   10.32    3.32
   7   0  -3   12.30    2.50
  -7   0   3   10.92    3.01
  -7   0   3    9.50    3.11
  -7   0   3    7.31    1.93
   7   0  -3   11.94    3.49
  -7   0   3    8.60    2.86
  -7   0   3    6.72    2.32
   7   0  -3   12.44    3.35
  -6   0   3   -2.36    1.86
   6   0  -3    0.49    2.89
   6   0  -3   -2.81    2.79
  -6   0   3   -1.22    2.65
  -6   0   3   -0.26    2.79
  -6   0   3    0.22    2.07
   6   0  -3    3.48    2.24
   6   0  -3    1.47    2.24
  -6   0   3   -0.11    2.96
   6   0  -3   -0.45    2.14
  -6   0   3   -2.72    1.98
   6   0  -3    4.65    2.87
  -6   0   3   -0.53    1.37
   6   0  -3    0.15    1.59
  -6   0   3   -3.38    1.92
   5   0  -3  129.96    6.18
  -5   0   3  144.10    6.36
  -5   0   3  133.35    5.13
  -5   0   3  132.44    6.40
   5   0  -3  131.64    6.10
  -5   0   3  130.85    5.87
   5   0  -3  137.36    6.41
   5   0  -3  137.99    6.32
   5   0  -3  133.84    6.45
  -5   0   3  137.95    6.64
  -5   0   3  138.04    6.18
  -5   0   3  137.33    6.64
   5   0  -3  140.51    6.55
  -5   0   3  131.11    6.05
   4   0  -3    2.06    1.45
  -4   0   3   -0.69    1.32
   4   0  -3   -0.09    1.38
  -4   0   3    1.27    1.36
   4   0  -3    1.22    1.49
   4   0  -3    0.21    1.51
  -4   0   3    1.02    1.52
   4   0  -3   -0.16    1.58
  -4   0   3    3.27    1.40
  -4   0   3    0.28    0.91
  -4   0   3    1.85    1.45
   4   0  -3    0.91    0.91
   4   0  -3   -2.22    1.29
  -4   0   3    1.97    1.63
   3   0  -3  604.86   15.45
  -3   0   3  612.52   16.20
  -3   0   3  630.87   16.81
   3   0  -3  588.49   16.09
   3   0  -3  545.04   16.98
  -3   0   3  581.41   15.46
   3   0  -3  566.72   16.14
  -3   0   3  598.41   15.86
   3   0  -3  554.28   16.11
  -3   0   3  606.67   16.18
   3   0  -3  579.18   16.10
  -3   0   3  603.35   16.24
  -3   0   3  587.03   15.92
  -2   0   3    0.05    1.10
  -2   0   3    0.10    0.83
  -2   0   3    0.37    0.85
   2   0  -3    0.28    0.79
   2   0  -3    0.58    0.93
   2   0  -3   -0.19    0.88
  -2   0   3    1.23    0.98
   2   0  -3    0.67    0.87
  -2   0   3    0.34    0.84
   2   0  -3   -0.14    0.81
  -2   0   3    0.60    0.87
   2   0  -3   -1.08    1.25
   2   0  -3   -1.30    0.93
  -2   0   3    1.55    0.89
   1   0  -3  699.74   18.06
  -1   0   3  696.25   17.88
  -1   0   3  692.36   17.92
  -1   0   3  691.24   17.78
   1   0  -3  695.27   17.96
   1   0  -3  685.90   17.88
  -1   0   3  677.04   17.40
   1   0  -3  709.36   17.90
  -1   0   3  694.21   17.74
  -1   0   3  723.34   18.30
   1   0  -3  706.57   17.96
   1   0  -3  698.61   18.28
  -1   0   3  734.90   18.08
   0   0   3    0.58    0.76
   0   0   3   -0.17    0.21
   0   0  -3   -0.13    0.72
   0   0   3   -0.41    0.80
   0   0  -3   -0.08    0.90
   0   0   3    0.09    0.67
   0   0  -3   -0.04    0.83
   0   0  -3    1.23    0.85
   0   0   3   -0.36    0.82
   0   0  -3    0.65    0.85
   0   0   3    1.06    0.96
   0   0  -3    0.29    1.22
  -1   0  -3  254.04    7.78
   1   0   3  246.79    7.19
   1   0   3  273.01    7.67
  -1   0  -3  265.63    7.28
  -1   0  -3  255.13    7.90
   1   0   3  258.99    7.67
   1   0   3  259.66    7.91
  -1   0  -3  256.99    7.65
   1   0   3  262.26    7.46
  -1   0  -3  256.99    7.62
  -1   0  -3  275.16    6.96
   1   0   3  266.77    7.76
  -1   0  -3  268.67    7.83
   1   0   3  254.43    7.80
  -2   0  -3   -0.08    1.22
  -2   0  -3   -1.00    1.19
   2   0   3    0.06    0.96
  -2   0  -3   -1.08    1.33
   2   0   3    2.05    1.00
   2   0   3   -0.43    1.10
   2   0   3    1.13    1.12
  -2   0  -3    1.52    1.02
  -2   0  -3   -0.59    1.17
   2   0   3    0.26    1.39
   2   0   3   -0.28    1.17
  -2   0  -3    0.15    1.04
  -2   0  -3    0.46    1.01
   2   0   3   -0.32    0.85
  -3   0  -3  159.39    6.34
  -3   0  -3  171.94    6.57
   3   0   3  163.23    6.04
  -3   0  -3  152.10    6.40
   3   0   3  158.43    6.39
  -3   0  -3  165.89    5.98
   3   0   3  160.13    5.82
  -3   0  -3  177.34    6.45
   3   0   3  167.66    6.42
   3   0   3  158.94    6.27
   3   0   3  181.50    6.18
   3   0   3  160.74    6.70
  -3   0  -3  158.21    6.43
  -4   0  -3   -1.84    1.52
  -4   0  -3    0.16    2.04
  -4   0  -3   -2.01    1.91
   4   0   3   -1.59    1.65
   4   0   3    1.06    1.42
  -4   0  -3   -1.13    1.53
   4   0   3   -0.47    1.66
   4   0   3    1.85    1.92
   4   0   3    4.60    2.01
  -4   0  -3   -0.74    1.73
  -4   0  -3   -2.65    1.59
   4   0   3    0.90    1.50
  -4   0  -3    0.18    1.76
   4   0   3   -1.35    1.71
   5   0   3    6.08    2.76
   5   0   3    6.40    2.56
   5   0   3    6.97    2.87
   5   0   3    9.13    2.72
   5   0   3    3.73    1.84
  -5   0  -3    3.01    2.70
   5   0   3    5.35    2.53
  -5   0  -3    4.60    2.04
  -5   0  -3   10.09    3.29
   5   0   3    1.22    1.89
   5   0   3    4.33    2.31
  -5   0  -3    3.91    3.04
  -5   0  -3    5.67    2.18
  -5   0  -3    5.13    2.44
  -5   0  -3    7.79    2.62
  -6   0  -3   -1.66    2.13
  -6   0  -3   -0.02    2.50
   6   0   3    3.92    2.81
   6   0   3   -0.23    2.50
   6   0   3   -3.55    1.72
  -6   0  -3    0.23    2.58
   6   0   3    0.53    2.98
  -6   0  -3    5.07    2.65
   6   0   3    0.62    2.51
  -7   0  -3   11.20    3.37
   7   0   3   10.55    4.35
   7   0   3   11.92    4.60
  -7   0  -3   11.96    4.72
   7   0   3   12.14    2.91
  -7   0  -3   19.02    4.59
   7   0   3   10.47    4.79
  -7   0  -3   18.09    3.91
  -8   0  -3   -9.34    4.68
   8   0   3   -7.02    3.01
  -8   0  -3    0.68    4.56
  -8   0  -3   -0.57    4.58
  -8   0  -3    3.16    3.83
   8   0   3    0.31    4.72
   8   0   3   -3.13    5.50
  -8   0  -3    6.95    4.45
   8   0   3    0.29    4.35
   9   0   3   23.14    7.51
  -9   0  -3   32.24    7.62
   9   0   3   47.85    7.50
  -9   0  -3   42.66    6.76
  -9   0  -3   35.19    5.74
  -9   0  -3   29.56    7.06
  -9   0  -3   19.17    6.60
 -10  -1   3   10.93    3.93
  10  -1  -3   21.72    4.37
 -10  -1   3    4.56    7.17
  10  -1  -3    6.66    6.40
 -10  -1   3   15.31    4.31
  10  -1  -3   12.88    7.05
 -10  -1   3    9.35    6.12
  10  -1  -3   20.33    5.89
  10   1  -3    8.99    6.42
 -10   1   3   16.22    6.36
 -10   1   3   16.72    6.70
 -10   1   3    6.37    3.57
  10   1  -3    1.77    6.53
  10   1  -3    3.01    5.76
  10   1  -3    8.23    6.85
  -9  -1   3   60.87    7.90
  -9  -1   3   61.06    7.50
   9  -1  -3   53.08    6.88
   9  -1  -3   49.13    6.72
   9  -1  -3   55.83    5.41
  -9  -1   3   51.15    4.89
   9  -1  -3   56.41    7.11
  -9  -1   3   57.38    5.55
  -9  -1   3   46.57    6.06
   9   1  -3   65.23    8.65
  -9   1   3   68.95    8.22
  -9   1   3   48.14    5.36
   9   1  -3   47.83    6.59
   9   1  -3   41.85    6.72
  -9   1   3   51.42    6.44
  -9   1   3   46.69    5.94
   9   1  -3   61.61    4.95
  -8  -1   3   -0.12    1.94
  -8  -1   3   -5.78    3.24
   8  -1  -3    2.29    2.60
   8  -1  -3   -1.58    4.00
  -8  -1   3    1.13    4.02
  -8  -1   3    2.22    3.86
  -8  -1   3   -1.75    2.66
   8  -1  -3    4.95    2.58
  -8  -1   3    3.44    3.33
   8  -1  -3    0.87    4.35
   8   1  -3    1.68    4.12
   8   1  -3    2.21    4.07
  -8   1   3    2.39    2.57
  -8   1   3   -0.37    3.88
  -8   1   3    1.63    3.84
   8   1  -3    0.43    2.07
   8   1  -3   -1.56    4.44
  -8   1   3   -4.74    2.38
  -8   1   3    0.70    3.99
  -7  -1   3   78.12    6.06
   7  -1  -3   70.50    5.36
  -7  -1   3   89.18    5.68
   7  -1  -3   88.58    5.28
  -7  -1   3   84.76    4.16
  -7  -1   3   78.49    6.01
   7  -1  -3   82.29    6.51
  -7  -1   3   86.38    7.09
  -7  -1   3   84.57    5.41
   7  -1  -3   86.52    6.42
   7   1  -3   80.10    4.38
   7   1  -3   78.47    6.42
  -7   1   3   83.93    6.35
   7   1  -3   87.95    7.36
   7   1  -3   80.96    5.96
  -7   1   3   77.52    6.12
   7   1  -3   79.31    6.49
  -7   1   3   75.59    6.01
  -7   1   3   82.88    5.14
  -7   1   3   76.93    4.81
   6  -1  -3   21.60    3.90
  -6  -1   3   15.34    3.07
  -6  -1   3   16.12    2.68
  -6  -1   3   16.42    3.47
  -6  -1   3   19.51    2.06
   6  -1  -3   17.29    2.70
   6  -1  -3   19.30    2.83
   6  -1  -3   15.82    3.15
  -6  -1   3   16.26    3.00
   6  -1  -3   15.78    3.42
   6  -1  -3   17.07    3.21
  -6  -1   3   15.69    2.86
  -6  -1   3   16.57    3.76
   6  -1  -3   19.34    3.76
  -6  -1   3   18.16    2.85
   6  -1  -3   20.19    3.35
   6   1  -3   20.22    2.34
  -6   1   3   19.23    3.15
  -6   1   3   18.59    3.70
   6   1  -3   15.01    3.19
  -6   1   3   20.81    3.52
   6   1  -3   16.67    3.17
   6   1  -3   14.37    3.46
  -6   1   3   20.99    3.56
  -6   1   3   22.07    3.29
  -6   1   3   18.10    2.42
   6   1  -3   19.30    3.55
  -6   1   3   27.05    3.35
  -6   1   3   18.40    3.35
   6   1  -3   21.37    3.44
   6   1  -3   12.24    2.80
   5  -1  -3   35.00    3.71
   5  -1  -3   38.17    4.17
   5  -1  -3   37.47    3.81
   5  -1  -3   38.79    3.45
  -5  -1   3   37.00    3.46
  -5  -1   3   35.13    2.23
   5  -1  -3   39.12    3.76
   5  -1  -3   36.13    3.96
  -5  -1   3   34.12    3.17
  -5  -1   3   37.83    4.24
  -5  -1   3   36.91    3.61
   5  -1  -3   39.80    3.12
  -5  -1   3   34.90    3.53
  -5  -1   3   39.41    3.67
   5   1  -3   39.28    3.78
  -5   1   3   37.24    2.98
  -5   1   3   38.03    4.01
  -5   1   3   35.18    3.81
  -5   1   3   36.13    3.82
  -5   1   3   36.11    4.13
  -5   1   3   37.05    3.62
   5   1  -3   38.02    3.70
  -5   1   3   35.91    3.49
   5   1  -3   35.12    3.98
   5   1  -3   34.97    3.60
   5   1  -3   34.47    3.54
  -5   1   3   34.35    3.23
   5   1  -3   30.01    3.55
   4  -1  -3   61.10    3.88
  -4  -1   3   58.58    4.11
  -4  -1   3   63.70    2.68
   4  -1  -3   65.38    3.92
   4  -1  -3   70.47    4.12
  -4  -1   3   64.22    4.15
   4  -1  -3   66.34    3.34
  -4  -1   3   67.28    3.82
   4  -1  -3   67.27    3.84
  -4  -1   3   61.05    3.57
   4  -1  -3   58.79    3.84
   4  -1  -3   69.79    3.96
   4  -1  -3   72.57    3.99
  -4  -1   3   60.54    3.54
  -4  -1   3   65.65    3.59
  -4   1   3   61.09    3.77
   4   1  -3   63.06    3.79
  -4   1   3   63.97    3.50
   4   1  -3   68.12    3.82
   4   1  -3   66.15    3.86
  -4   1   3   64.38    4.08
  -4   1   3   70.34    4.00
   4   1  -3   63.22    4.00
   4   1  -3   65.05    3.72
  -4   1   3   69.62    4.04
   4   1  -3   61.58    3.79
  -4   1   3   72.85    4.14
  -4   1   3   67.75    3.93
   4   1  -3   67.24    2.65
  -3  -1   3   80.07    3.62
   3  -1  -3   86.56    3.59
   3  -1  -3   90.02    4.02
  -3  -1   3   85.93    3.55
  -3  -1   3   89.28    3.90
   3  -1  -3   82.04    3.96
   3  -1  -3   84.45    4.14
  -3  -1   3   89.42    3.75
  -3  -1   3   88.19    3.80
   3  -1  -3   90.87    3.98
  -3  -1   3   92.40    4.14
   3  -1  -3   86.85    4.15
  -3  -1   3   85.42    3.04
   3   1  -3   86.73    2.99
  -3   1   3   84.85    3.94
   3   1  -3   88.96    4.04
   3   1  -3   83.47    4.04
   3   1  -3   90.31    4.01
  -3   1   3   79.37    4.30
   3   1  -3   80.66    3.80
  -3   1   3   93.38    4.00
  -3   1   3   83.80    3.66
   3   1  -3   90.99    3.83
  -3   1   3   88.40    4.02
   3   1  -3   88.94    5.45
  -3   1   3   91.40    4.01
   2  -1  -3  107.32    4.82
   2  -1  -3  114.99    4.42
  -2  -1   3  112.61    3.81
  -2  -1   3  112.49    4.15
   2  -1  -3  106.40    4.07
  -2  -1   3  109.34    3.99
   2  -1  -3  108.10    4.21
  -2  -1   3  104.16    3.48
   2  -1  -3  102.80    4.23
  -2  -1   3  112.39    3.62
  -2  -1   3  110.20    3.86
   2  -1  -3  110.91    4.00
   2   1  -3  111.12    3.53
  -2   1   3   99.88    4.63
  -2   1   3  110.03    4.15
   2   1  -3  108.38    4.38
  -2   1   3  110.44    3.98
  -2   1   3  116.24    4.24
  -2   1   3  110.15    4.06
   2   1  -3  110.93    3.75
   2   1  -3  109.01    3.85
   2   1  -3   95.89    4.60
   2   1  -3  106.28    4.00
   2   1  -3  109.41    3.86
  -2   1   3  112.34    4.26
  -2   1   3  113.40    4.03
  -2   1   3  107.50    4.07
  -1  -1   3    4.46    1.14
   1  -1  -3    2.80    1.06
  -1  -1   3    1.59    0.55
  -1  -1   3    3.16    0.72
   1  -1  -3    2.47    1.02
  -1  -1   3    2.05    0.59
  -1  -1   3    2.49    0.74
   1  -1  -3    4.30    1.20
   1  -1  -3    1.74    1.03
   1  -1  -3    3.34    1.20
   1  -1  -3    3.92    1.08
  -1  -1   3    2.61    0.51
   1   1  -3    2.54    0.69
  -1   1   3    2.37    0.96
  -1   1   3    2.87    1.04
   1   1  -3    2.20    1.19
   1   1  -3    1.88    1.02
  -1   1   3    3.82    1.13
  -1   1   3    1.63    1.12
  -1   1   3    2.19    1.08
   1   1  -3    3.15    0.72
  -1   1   3    2.29    1.05
   1   1  -3    2.20    0.71
   1   1  -3    2.30    0.71
   1   1  -3    2.97    0.74
   0  -1  -3  371.64   10.36
   0  -1  -3  392.12    9.60
   0  -1   3  369.14    9.27
   0  -1  -3  372.33   10.22
   0  -1   3  381.73   10.10
   0  -1  -3  369.79   10.41
   0  -1   3  352.07    9.24
   0  -1   3  374.41    9.95
   0  -1   3  368.47    9.62
   0  -1   3  364.46   10.47
   0  -1  -3  343.70   10.17
   0  -1  -3  378.38   10.29
   0   1  -3  359.21    9.68
   0   1   3  381.45   10.35
   0   1  -3  354.24    9.73
   0   1   3  372.50    9.54
   0   1  -3  358.30    9.74
   0   1   3  371.21   10.29
   0   1  -3  355.74   10.50
   0   1   3  357.33   10.16
   0   1   3  373.52   10.22
   0   1  -3  354.57   10.00
   0   1  -3  378.90    9.62
   0   1  -3  363.12    9.16
   0   1   3  385.05   10.11
   1  -1   3    1.12    0.82
   1  -1   3    2.04    0.83
   1  -1   3    2.15    0.85
   1  -1   3    0.93    1.25
   1  -1   3    1.99    0.96
  -1  -1  -3    3.05    1.35
  -1  -1  -3    2.49    1.17
  -1  -1  -3    0.77    0.74
   1  -1   3    1.83    0.68
  -1  -1  -3   -0.10    1.06
  -1  -1  -3    1.10    0.81
  -1  -1  -3    1.17    1.31
   1   1   3    1.57    1.19
   1   1   3    0.63    0.96
  -1   1  -3    2.99    0.99
   1   1   3    1.67    1.03
   1   1   3    1.29    0.78
  -1   1  -3    1.41    0.84
   1   1   3    2.75    1.34
   1   1   3    2.76    1.15
  -1   1  -3    1.77    1.22
  -1   1  -3    2.15    0.99
  -1   1  -3    0.22    0.69
  -1   1  -3    2.06    0.85
  -2  -1  -3  312.75    9.49
   2  -1   3  297.89    9.18
  -2  -1  -3  307.83    9.80
   2  -1   3  296.02    8.83
   2  -1   3  291.87    8.90
   2  -1   3  307.04    8.54
   2  -1   3  307.85    9.03
  -2  -1  -3  312.71    9.57
  -2  -1  -3  311.47    8.77
   2  -1   3  304.73    8.65
  -2  -1  -3  301.27    9.44
  -2  -1  -3  293.71    9.22
   2  -1   3  306.01    9.33
  -2  -1  -3  314.86    9.12
   2   1   3  275.65   10.30
  -2   1  -3  286.03    9.15
   2   1   3  295.38    9.46
  -2   1  -3  308.08    8.60
  -2   1  -3  326.18    9.02
   2   1   3  307.60    9.33
   2   1   3  310.75    9.03
   2   1   3  312.26    9.13
  -2   1  -3  292.27    9.46
  -2   1  -3  287.13    9.14
  -2   1  -3  302.41    9.18
   2   1   3  317.58    9.16
  -2   1  -3  295.03    9.76
   2   1   3  260.96    9.59
   3  -1   3   87.37    3.59
   3  -1   3   92.45    4.39
   3  -1   3   90.19    4.35
  -3  -1  -3   81.44    4.40
  -3  -1  -3   88.81    4.69
   3  -1   3   90.86    4.33
  -3  -1  -3   93.22    4.27
  -3  -1  -3   92.87    4.82
   3  -1   3   89.91    4.02
  -3  -1  -3   90.27    4.49
   3  -1   3   80.95    4.17
  -3  -1  -3   84.58    4.31
  -3  -1  -3   91.66    4.76
   3   1   3   80.83    4.04
   3   1   3   85.11    4.81
  -3   1  -3   94.31    4.61
  -3   1  -3   86.63    4.41
   3   1   3   76.96    4.38
  -3   1  -3   78.75    4.39
  -3   1  -3   94.22    4.41
   3   1   3   89.82    4.36
   3   1   3   81.50    4.44
   3   1   3   90.68    3.96
   3   1   3   87.22    4.52
  -3   1  -3   92.18    4.49
  -3   1  -3   84.85    4.53
  -4  -1  -3   96.60    5.42
  -4  -1  -3   72.50    4.27
  -4  -1  -3   79.18    4.92
  -4  -1  -3   81.27    4.88
   4  -1   3   79.31    4.60
   4  -1   3   67.91    4.61
  -4  -1  -3   87.16    5.24
   4  -1   3   81.62    4.97
   4  -1   3   75.08    4.86
  -4  -1  -3   76.66    5.05
   4  -1   3   75.76    4.37
   4  -1   3   81.49    4.59
  -4  -1  -3   74.42    4.63
   4  -1   3   75.52    4.35
   4   1   3   80.51    4.81
   4   1   3   77.75    4.75
   4   1   3   77.77    4.97
   4   1   3   83.85    4.09
  -4   1  -3   74.72    5.00
   4   1   3   84.74    5.11
  -4   1  -3   71.80    4.95
  -4   1  -3   80.11    4.62
  -4   1  -3   83.00    5.05
   4   1   3   78.50    4.92
  -4   1  -3   83.66    4.93
   4   1   3   88.18    4.43
  -4   1  -3   85.74    5.13
   5  -1   3  130.32    7.02
   5  -1   3  135.68    7.00
   5  -1   3  133.18    6.76
  -5  -1  -3  120.03    6.54
  -5  -1  -3  123.58    7.50
   5  -1   3  145.89    6.67
  -5  -1  -3  142.17    6.58
  -5  -1  -3  157.31    7.70
  -5  -1  -3  134.80    7.18
  -5  -1  -3  128.80    7.55
   5  -1   3  134.15    6.97
   5  -1   3  134.16    6.14
   5  -1   3  140.89    5.80
   5  -1   3  142.91    7.44
  -5  -1  -3  127.07    6.86
  -5   1  -3  134.46    6.89
   5   1   3  132.59    7.12
  -5   1  -3  136.85    7.02
   5   1   3  132.60    6.98
   5   1   3  136.27    6.41
  -5   1  -3  139.73    7.37
  -5   1  -3  122.57    7.32
  -5   1  -3  144.90    7.46
   5   1   3  132.03    6.99
   5   1   3  134.15    6.84
  -5   1  -3  143.36    7.27
   5   1   3  140.14    5.66
   5   1   3  128.60    6.99
   6  -1   3    2.17    2.22
  -6  -1  -3    5.34    2.96
  -6  -1  -3   -0.67    2.24
   6  -1   3   -1.37    3.65
   6  -1   3    2.32    2.51
   6  -1   3   -0.05    2.70
   6  -1   3    1.71    2.66
   6  -1   3    0.24    2.97
  -6  -1  -3    4.76    2.51
  -6  -1  -3    5.21    2.87
  -6   1  -3    0.63    2.50
   6   1   3    5.06    3.03
   6   1   3    2.73    1.90
  -6   1  -3    3.24    2.97
  -6   1  -3    3.35    4.24
   6   1   3   -0.72    2.78
   6   1   3   -0.78    3.14
   6   1   3    2.67    2.99
   7  -1   3  117.29    8.82
  -7  -1  -3  111.03    7.30
  -7  -1  -3   95.93    7.76
   7  -1   3  113.08    8.14
  -7  -1  -3  105.50    9.19
   7  -1   3  104.33    7.36
   7  -1   3  107.32    6.61
  -7  -1  -3  117.30    8.72
  -7   1  -3  112.67    9.27
   7   1   3  113.92    8.94
  -7   1  -3  104.11    7.65
  -7   1  -3  101.72    8.50
   7   1   3  116.74    9.10
   7   1   3  112.69    9.20
  -7   1  -3  108.95    9.04
   7   1   3  109.36    5.64
  -7   1  -3  118.92    7.21
   8  -1   3   19.99    3.81
   8  -1   3   22.40    5.55
  -8  -1  -3   14.05    5.16
  -8  -1  -3   24.37    4.01
  -8  -1  -3   17.88    5.57
   8  -1   3   27.35    6.98
  -8  -1  -3   28.39    5.32
  -8  -1  -3   27.46    6.05
   8   1   3   21.21    5.81
  -8   1  -3   24.99    5.34
  -8   1  -3   22.00    5.63
  -8   1  -3   18.85    5.09
   8   1   3   30.24    5.74
   8   1   3   22.46    3.67
  -8   1  -3   21.47    5.29
  -8   1  -3   26.06    5.46
   9  -1   3   25.00    7.88
  -9  -1  -3   31.07    5.21
  -9  -1  -3   12.09    6.91
  -9  -1  -3   17.57    6.70
   9  -1   3   23.40    6.82
   9  -1   3   26.40    4.99
  -9  -1  -3   17.53    6.40
  -9  -1  -3   26.60    5.91
  -9   1  -3   31.36    7.04
  -9   1  -3   28.35    6.33
  -9   1  -3   36.04    7.06
  -9   1  -3   38.02    7.47
   9   1   3   25.19    6.43
   9   1   3   29.24    7.36
   9   1   3   33.44    7.46
  -9   1  -3   27.79    5.37
  10  -2  -3   86.20    8.03
  10  -2  -3   89.77   10.31
  10  -2  -3  105.01   11.90
 -10  -2   3  101.69   12.50
 -10  -2   3   72.44    7.61
  10  -2  -3   82.69   10.37
 -10  -2   3   99.66   10.32
 -10   2   3   90.37   12.58
 -10   2   3   81.80   10.97
  10   2  -3  121.69   11.76
 -10   2   3   86.38   11.59
  10   2  -3   95.38   11.01
  10   2  -3   80.93    9.14
 -10   2   3   84.63   10.01
  -9  -2   3    6.12    4.16
   9  -2  -3   -1.81    4.94
  -9  -2   3   -1.36    2.87
   9  -2  -3    2.54    4.12
  -9  -2   3    0.12    5.25
  -9  -2   3    1.73    3.14
   9  -2  -3   -0.36    3.14
   9  -2  -3   11.71    4.69
  -9   2   3    2.49    4.56
  -9   2   3    2.85    4.74
   9   2  -3    0.43    4.68
   9   2  -3   -2.17    4.53
  -9   2   3    5.41    5.06
   9   2  -3    1.15    4.74
  -9   2   3   -5.27    3.74
  -9   2   3   -2.47    2.87
  -8  -2   3  185.63    8.81
   8  -2  -3  165.59   12.68
  -8  -2   3  181.45    9.35
   8  -2  -3  177.64   10.98
   8  -2  -3  181.28    8.78
   8  -2  -3  189.68    8.59
  -8  -2   3  189.72    9.94
  -8   2   3  188.74    8.45
   8   2  -3  174.97   11.01
   8   2  -3  176.42   10.89
   8   2  -3  195.25    6.71
   8   2  -3  186.45   11.36
  -8   2   3  192.24   10.64
  -8   2   3  181.57   10.60
  -8   2   3  195.25    7.81
  -8   2   3  188.54   11.03
  -7  -2   3    1.83    1.14
  -7  -2   3    0.51    2.77
   7  -2  -3   -1.38    2.07
  -7  -2   3   -2.55    2.59
  -7  -2   3    5.27    3.69
  -7  -2   3    1.02    2.28
   7  -2  -3   -1.86    2.59
   7  -2  -3    4.10    3.16
   7  -2  -3    2.68    3.84
  -7  -2   3    0.73    2.35
  -7   2   3    1.37    2.30
  -7   2   3   -3.27    2.74
   7   2  -3    1.46    3.33
   7   2  -3   -1.16    2.57
  -7   2   3    2.09    2.42
   7   2  -3    3.90    4.31
  -7   2   3   -0.67    2.87
   7   2  -3    2.83    1.60
  -7   2   3    5.28    3.08
   7   2  -3   -0.39    2.83
   6  -2  -3  312.07   10.65
  -6  -2   3  312.18    8.57
  -6  -2   3  307.10   10.77
  -6  -2   3  313.36   11.17
  -6  -2   3  300.61   12.05
   6  -2  -3  311.73   11.81
  -6  -2   3  292.64   11.38
  -6  -2   3  310.80   10.54
   6  -2  -3  355.25   13.38
   6  -2  -3  292.77   11.45
   6  -2  -3  317.74   10.92
   6  -2  -3  297.02   11.25
  -6  -2   3  313.84   10.88
  -6   2   3  302.71   11.45
  -6   2   3  329.41   13.50
   6   2  -3  309.49   11.46
   6   2  -3  324.89   11.66
   6   2  -3  326.77   11.26
   6   2  -3  306.42   11.42
   6   2  -3  351.46   15.78
  -6   2   3  300.75   10.07
  -6   2   3  300.55   11.80
   6   2  -3  310.95   11.88
   6   2  -3  310.30    9.24
  -6   2   3  333.37   11.54
  -6   2   3  287.56   11.23
  -6   2   3  297.52   10.47
  -6   2   3  309.02   11.81
  -5  -2   3   -2.55    1.87
   5  -2  -3    1.23    2.11
   5  -2  -3   -1.55    1.88
   5  -2  -3    0.71    1.69
  -5  -2   3   -1.18    1.60
   5  -2  -3   -2.51    1.66
  -5  -2   3   -0.04    1.97
  -5  -2   3    0.84    1.67
   5  -2  -3    3.31    2.31
  -5  -2   3    1.06    0.66
  -5  -2   3    3.01    2.07
  -5  -2   3    0.77    2.35
   5  -2  -3    0.88    2.10
   5  -2  -3    3.57    2.01
   5  -2  -3    1.15    1.34
  -5  -2   3   -0.55    1.44
   5   2  -3    2.29    2.10
   5   2  -3    3.66    1.95
   5   2  -3    3.31    2.04
   5   2  -3   -0.53    2.04
  -5   2   3   -2.15    1.69
  -5   2   3    2.57    2.22
  -5   2   3    2.61    1.92
   5   2  -3   -0.10    1.72
  -5   2   3    5.47    2.29
  -5   2   3    3.36    2.09
  -5   2   3    1.45    1.54
   5   2  -3   -0.17    1.60
  -5   2   3    2.32    1.83
  -5   2   3   -2.05    1.60
   4  -2  -3  229.43    8.44
   4  -2  -3  232.54    8.19
  -4  -2   3  222.06    7.67
  -4  -2   3  235.86    7.53
   4  -2  -3  233.90    8.41
   4  -2  -3  227.06    8.14
   4  -2  -3  230.74    8.24
  -4  -2   3  232.90    7.37
   4  -2  -3  216.48    7.72
  -4  -2   3  244.93    8.01
   4  -2  -3  231.33    7.71
  -4  -2   3  235.51    8.45
  -4   2   3  229.08    8.54
   4   2  -3  207.32    7.81
   4   2  -3  242.71    8.01
  -4   2   3  226.10    7.77
  -4   2   3  222.12    8.27
  -4   2   3  240.93    7.41
  -4   2   3  220.98    8.03
  -4   2   3  236.27    8.14
   4   2  -3  231.10    8.51
   4   2  -3  230.36    7.99
  -4   2   3  235.95    8.32
   4   2  -3  233.52    7.88
  -4   2   3  240.85    8.35
   4   2  -3  238.62    7.81
   3  -2  -3    4.91    1.65
  -3  -2   3    4.87    1.53
  -3  -2   3    3.70    1.00
  -3  -2   3    2.22    0.97
   3  -2  -3    4.50    1.46
  -3  -2   3    6.69    1.91
   3  -2  -3    4.76    1.37
   3  -2  -3    3.49    1.48
   3  -2  -3    2.44    1.53
  -3  -2   3    4.23    1.15
  -3  -2   3    4.07    1.58
  -3  -2   3    6.47    1.03
   3   2  -3    5.61    1.33
   3   2  -3    5.91    1.29
   3   2  -3    6.30    1.86
   3   2  -3    3.93    0.58
  -3   2   3    4.16    1.54
  -3   2   3    2.07    1.58
  -3   2   3    5.19    1.35
   3   2  -3    4.72    1.16
   3   2  -3    5.14    1.44
  -3   2   3    5.02    1.60
  -3   2   3    5.96    1.45
   3   2  -3    6.30    1.31
  -2  -2   3   10.03    1.57
   2  -2  -3    8.33    1.58
   2  -2  -3    5.62    1.42
  -2  -2   3   11.02    1.65
  -2  -2   3    6.39    1.19
   2  -2  -3    6.95    1.51
   2  -2  -3    8.60    1.52
   2  -2  -3    8.10    1.45
  -2  -2   3    7.39    1.00
   2  -2  -3    8.86    1.53
   2  -2  -3    5.69    1.45
   2   2  -3    4.96    0.95
  -2   2   3    6.59    1.59
   2   2  -3    8.74    1.41
   2   2  -3    6.21    0.91
  -2   2   3    7.64    1.74
  -2   2   3    7.53    1.45
   2   2  -3    8.35    1.07
  -2   2   3    9.43    1.46
  -2   2   3    7.22    1.25
   2   2  -3    7.95    1.44
   2   2  -3    8.55    1.02
   2   2  -3    7.35    1.31
  -2   2   3    6.04    1.30
   1  -2  -3    1.13    0.98
  -1  -2   3    2.43    0.86
   1  -2  -3    2.25    1.10
  -1  -2   3    1.40    1.19
  -1  -2   3    1.00    1.14
  -1  -2   3    0.84    0.41
  -1  -2   3    1.10    0.43
   1  -2  -3    0.92    1.30
   1  -2  -3    0.17    1.04
   1   2  -3    2.51    1.30
  -1   2   3    1.98    1.15
  -1   2   3    1.78    1.24
   1   2  -3    2.12    0.46
   1   2  -3    2.27    1.03
  -1   2   3    2.74    1.08
   1   2  -3    0.62    0.70
  -1   2   3    0.44    0.94
   1   2  -3    0.50    0.48
  -1   2   3    0.47    0.95
   1   2  -3    1.59    0.44
   1   2  -3    1.10    0.53
  -1   2   3    0.92    1.53
   0  -2  -3   57.31    2.92
   0  -2  -3   53.83    3.43
   0  -2   3   57.89    1.87
   0  -2  -3   56.74    2.84
   0  -2   3   56.81    3.17
   0  -2  -3   56.00    3.14
   0  -2  -3   60.87    3.08
   0  -2   3   57.78    1.78
   0  -2  -3   56.70    2.49
   0  -2   3   58.31    1.88
   0  -2   3   55.09    2.53
   0   2  -3   58.16    2.06
   0   2  -3   55.57    1.85
   0   2   3   52.67    3.02
   0   2  -3   54.54    2.50
   0   2   3   56.02    2.73
   0   2   3   56.57    2.90
   0   2  -3   55.16    1.77
   0   2  -3   54.75    2.05
   0   2   3   55.67    2.97
   0   2   3   61.67    2.97
   1  -2   3   14.65    0.68
   1  -2   3   13.90    1.28
   1  -2   3   12.17    1.27
   1  -2   3   15.54    1.33
  -1  -2  -3   11.45    1.68
  -1  -2  -3   10.60    1.63
  -1  -2  -3   14.81    1.88
  -1  -2  -3   12.83    1.62
  -1  -2  -3   14.18    1.77
  -1  -2  -3   14.39    1.85
  -1  -2  -3   14.36    1.88
   1  -2   3   13.29    1.89
   1  -2   3   12.26    1.47
  -1  -2  -3   10.33    1.64
   1   2   3   15.50    1.94
   1   2   3   13.61    2.09
  -1   2  -3   13.92    1.43
   1   2   3   12.82    1.67
  -1   2  -3   14.08    1.35
  -1   2  -3   12.97    1.84
   1   2   3   13.44    1.74
  -1   2  -3   14.25    1.44
   1   2   3   16.45    2.08
  -1   2  -3   12.37    1.59
  -1   2  -3   13.67    1.49
  -1   2  -3   13.46    1.34
   2  -2   3  197.35    6.98
  -2  -2  -3  191.24    6.39
  -2  -2  -3  197.28    7.18
   2  -2   3  202.73    5.81
  -2  -2  -3  204.41    6.99
  -2  -2  -3  197.29    6.63
  -2  -2  -3  208.70    6.66
  -2  -2  -3  203.28    7.14
   2  -2   3  205.16    6.44
   2  -2   3  197.14    6.03
  -2  -2  -3  209.38    6.81
   2  -2   3  204.39    5.95
  -2  -2  -3  180.85    7.70
   2  -2   3  194.35    6.53
  -2   2  -3  203.46    5.84
   2   2   3  202.70    6.88
  -2   2  -3  207.49    6.60
   2   2   3  199.89    6.92
  -2   2  -3  202.17    6.74
   2   2   3  192.10    7.96
   2   2   3  194.69    7.11
  -2   2  -3  197.59    6.52
  -2   2  -3  184.91    6.49
  -2   2  -3  206.19    6.70
   2   2   3  199.65    6.86
   2   2   3  210.31    7.07
  -2   2  -3  212.35    7.31
  -3  -2  -3   19.81    2.57
   3  -2   3   21.26    2.61
  -3  -2  -3   19.52    2.59
   3  -2   3   26.94    3.06
   3  -2   3   22.13    1.72
   3  -2   3   17.25    2.08
   3  -2   3   22.98    2.18
  -3  -2  -3   22.47    2.58
  -3  -2  -3   17.55    2.49
  -3  -2  -3   18.13    2.50
  -3  -2  -3   19.77    2.62
   3  -2   3   18.60    2.43
  -3  -2  -3   21.18    2.60
   3  -2   3   23.70    2.64
  -3   2  -3   23.74    3.05
  -3   2  -3   18.26    2.34
  -3   2  -3   18.97    2.40
   3   2   3   18.18    2.32
   3   2   3   18.38    2.60
  -3   2  -3   15.69    2.28
   3   2   3   24.74    2.59
  -3   2  -3   19.31    2.47
   3   2   3   18.81    2.74
   3   2   3   20.36    2.80
   3   2   3   22.19    2.70
  -3   2  -3   17.83    2.26
   4  -2   3  243.95    7.20
  -4  -2  -3  226.06    8.31
  -4  -2  -3  219.09    8.72
  -4  -2  -3  233.06    8.81
   4  -2   3  236.74    8.58
  -4  -2  -3  232.71    9.06
  -4  -2  -3  224.23    8.34
   4  -2   3  237.82    8.03
  -4  -2  -3  238.54    9.22
   4  -2   3  235.90    8.64
   4  -2   3  219.09    8.10
   4  -2   3  237.03    9.02
  -4  -2  -3  245.70    9.32
   4   2   3  236.05    8.90
   4   2   3  237.90    9.19
  -4   2  -3  232.37    8.94
   4   2   3  231.81    8.54
  -4   2  -3  225.61    8.64
   4   2   3  226.18    8.95
  -4   2  -3  223.77    8.79
  -4   2  -3  225.56    8.99
  -4   2  -3  230.65    8.59
  -4   2  -3  234.84    8.85
   4   2   3  224.30    8.92
   4   2   3  243.77    8.81
   5  -2   3    5.25    2.25
  -5  -2  -3    5.23    2.48
  -5  -2  -3   -2.81    3.19
  -5  -2  -3    4.30    3.00
  -5  -2  -3    4.60    2.38
   5  -2   3    1.64    1.95
  -5  -2  -3    0.71    2.11
  -5  -2  -3    1.15    3.27
  -5  -2  -3    1.96    2.15
   5  -2   3    1.78    2.38
   5  -2   3    3.59    2.26
   5   2   3   -2.76    2.94
   5   2   3    0.36    2.91
   5   2   3    2.17    2.29
   5   2   3    7.04    2.77
  -5   2  -3    3.10    2.43
   5   2   3    1.03    2.54
  -5   2  -3   -2.69    2.79
  -5   2  -3    2.37    2.38
   5   2   3   -0.14    2.52
  -5   2  -3   -0.21    3.07
   6  -2   3  176.06    8.44
  -6  -2  -3  157.83    7.86
   6  -2   3  163.77    6.64
  -6  -2  -3  179.19    9.06
   6  -2   3  171.22    8.02
  -6  -2  -3  171.27    7.93
  -6  -2  -3  158.29    8.70
   6  -2   3  168.85    8.55
   6  -2   3  156.58    7.71
   6   2   3  169.82    9.08
   6   2   3  161.74    8.74
  -6   2  -3  162.31    9.75
  -6   2  -3  159.27    8.76
  -6   2  -3  158.74    8.74
  -6   2  -3  169.75    8.53
   6   2   3  145.79    8.35
  -6   2  -3  167.65    8.23
   7  -2   3    2.08    4.75
  -7  -2  -3    4.01    4.83
   7  -2   3    4.55    4.21
  -7  -2  -3   -0.40    2.48
   7  -2   3    6.32    3.78
  -7  -2  -3    2.43    4.29
   7  -2   3    3.21    2.58
  -7  -2  -3    7.58    3.78
  -7   2  -3    8.09    4.46
  -7   2  -3    5.34    3.54
   7   2   3    1.02    4.09
  -7   2  -3    4.63    4.66
   7   2   3    9.23    4.72
   7   2   3    3.15    4.74
  -7   2  -3    8.32    4.60
   8  -2   3   79.71    8.22
  -8  -2  -3   75.42    8.40
   8  -2   3   83.00    9.14
  -8  -2  -3   72.65    6.80
  -8  -2  -3   76.52    7.51
   8  -2   3   83.07    6.55
  -8   2  -3   77.30    8.94
  -8   2  -3   67.30    8.47
  -8   2  -3   67.57    7.65
   8   2   3   99.05    9.78
  -8   2  -3   75.27    8.24
   8   2   3   80.52    8.86
  -8   2  -3   69.38    9.11
   8   2   3   72.60    9.20
  -9  -2  -3   14.43    6.42
  -9  -2  -3    0.06    5.85
   9  -2   3    5.42    6.06
  -9  -2  -3    0.91    3.77
   9  -2   3   -1.40    4.20
  -9  -2  -3   22.21    7.20
   9  -2   3   -1.10    7.14
  -9   2  -3    9.82    6.19
   9   2   3    0.78    7.22
  -9   2  -3   10.79    6.19
  -9   2  -3    0.33    3.53
   9   2   3    3.79    6.60
  -9   2  -3  -13.19    5.34
   9   2   3   -1.70    5.95
  -9   2  -3   -9.98    6.23
  10  -3  -3    2.88    6.38
  10  -3  -3   -4.35    4.36
  10  -3  -3   -4.50    7.20
 -10  -3   3   -0.66    7.87
 -10  -3   3  -10.83    5.70
 -10  -3   3    1.74    3.73
  10   3  -3   15.08    7.35
 -10   3   3   11.29    6.01
 -10   3   3    9.63    6.45
  10   3  -3   11.76    6.75
  10   3  -3   -5.68    5.80
 -10   3   3    6.02    7.34
   9  -3  -3   75.15    9.58
  -9  -3   3   69.44    6.49
   9  -3  -3   76.68    7.30
   9  -3  -3   82.30    8.54
  -9  -3   3   81.65    8.16
  -9  -3   3   67.16    6.80
  -9  -3   3   73.21    9.35
   9  -3  -3   79.31    7.27
  -9   3   3   68.04    9.08
  -9   3   3   74.11    9.08
   9   3  -3   67.01    7.82
   9   3  -3   65.36    8.60
  -9   3   3   86.12    9.34
   9   3  -3   83.20    9.25
  -9   3   3   75.75    8.86
  -9   3   3   69.31    6.02
  -8  -3   3    0.86    2.55
   8  -3  -3    6.66    5.02
   8  -3  -3   -1.29    2.62
  -8  -3   3   -0.09    3.04
  -8  -3   3    0.71    3.51
  -8  -3   3    0.92    3.05
   8  -3  -3   -2.49    2.80
  -8   3   3    3.02    3.18
  -8   3   3   -3.61    5.51
   8   3  -3   -0.89    4.61
   8   3  -3   -3.03    5.05
  -8   3   3   -1.36    4.45
  -8   3   3    3.81    2.80
  -7  -3   3   76.20    5.72
  -7  -3   3   78.19    5.93
  -7  -3   3   67.58    5.09
   7  -3  -3   79.07    6.72
  -7  -3   3   69.87    5.89
   7  -3  -3   78.54    5.10
   7  -3  -3   78.43    6.40
  -7  -3   3   81.16    6.58
   7  -3  -3   63.81    6.95
   7   3  -3   69.44    7.65
  -7   3   3   61.95    6.21
  -7   3   3   72.86    6.43
  -7   3   3   77.05    5.22
   7   3  -3   74.92    3.30
  -7   3   3   77.11    5.60
  -7   3   3   73.26    7.12
   7   3  -3   73.41    6.13
   7   3  -3   68.05    6.59
   7   3  -3   85.42    6.82
   7   3  -3   80.24    7.28
  -6  -3   3   -0.11    2.20
  -6  -3   3   -0.93    2.12
   6  -3  -3    0.02    2.32
  -6  -3   3    1.47    1.75
   6  -3  -3    3.88    1.70
   6  -3  -3    1.86    2.31
  -6  -3   3   -1.73    2.10
   6  -3  -3    0.49    2.11
  -6  -3   3   -1.80    2.16
   6   3  -3   -0.96    2.90
  -6   3   3   -3.81    2.18
   6   3  -3    0.75    2.37
   6   3  -3   -0.11    2.34
  -6   3   3    1.18    2.41
  -6   3   3    1.46    2.22
   6   3  -3    0.96    1.19
   6   3  -3   -0.05    1.94
  -6   3   3   -0.19    3.52
   6   3  -3    0.66    2.03
   6   3  -3   -1.28    2.26
  -6   3   3    2.49    2.55
  -6   3   3    1.08    2.13
  -5  -3   3   87.01    5.37
   5  -3  -3   96.53    5.28
  -5  -3   3   90.10    5.10
   5  -3  -3   89.76    5.56
   5  -3  -3  101.78    5.15
   5  -3  -3   88.75    5.41
  -5  -3   3   99.57    5.94
  -5  -3   3   95.98    4.65
  -5  -3   3   89.14    4.32
   5  -3  -3   87.76    5.36
   5  -3  -3   95.17    5.79
   5  -3  -3   92.09    5.37
  -5  -3   3   87.71    5.06
   5  -3  -3   92.77    4.66
  -5   3   3   99.29    5.69
  -5   3   3   96.15    5.35
   5   3  -3  102.47    5.16
   5   3  -3   91.42    5.08
  -5   3   3  102.85    4.42
  -5   3   3   92.62    5.46
  -5   3   3   90.36    5.88
   5   3  -3   90.46    5.16
   5   3  -3   93.85    4.05
   5   3  -3   94.18    5.18
  -5   3   3   88.39    5.42
  -5   3   3   94.78    5.21
  -5   3   3  100.93    5.89
   5   3  -3   89.73    5.71
   4  -3  -3   48.91    3.81
  -4  -3   3   48.09    3.25
   4  -3  -3   52.37    3.78
   4  -3  -3   43.13    3.15
  -4  -3   3   45.27    3.01
  -4  -3   3   44.79    2.67
  -4  -3   3   44.73    2.78
  -4  -3   3   44.11    3.80
   4  -3  -3   44.81    3.86
   4  -3  -3   44.31    3.72
  -4  -3   3   40.93    3.84
  -4  -3   3   48.40    3.90
   4  -3  -3   50.08    3.39
   4  -3  -3   44.47    3.61
  -4   3   3   49.18    3.66
  -4   3   3   48.31    3.43
  -4   3   3   47.08    3.93
   4   3  -3   43.70    3.11
   4   3  -3   45.11    3.33
  -4   3   3   39.48    3.38
   4   3  -3   49.55    3.80
  -4   3   3   49.66    3.56
   4   3  -3   57.77    3.40
  -4   3   3   46.01    2.96
  -4   3   3   46.18    3.64
   4   3  -3   42.25    3.21
   4   3  -3   42.99    2.88
  -4   3   3   44.45    3.56
   4   3  -3   43.25    3.26
   3  -3  -3   64.46    4.03
  -3  -3   3   68.98    2.35
   3  -3  -3   59.39    3.68
   3  -3  -3   77.96    3.87
  -3  -3   3   71.63    3.83
  -3  -3   3   66.63    3.16
   3  -3  -3   74.24    3.78
  -3  -3   3   68.99    3.98
   3  -3  -3   63.28    3.83
   3  -3  -3   69.56    3.79
  -3  -3   3   67.54    2.22
  -3  -3   3   72.15    3.78
  -3  -3   3   70.49    3.02
  -3   3   3   65.80    3.93
   3   3  -3   68.61    3.26
   3   3  -3   66.91    3.27
  -3   3   3   65.91    3.71
  -3   3   3   60.95    3.80
  -3   3   3   74.44    3.27
   3   3  -3   65.94    3.22
  -3   3   3   71.63    3.78
   3   3  -3   67.59    3.36
  -3   3   3   64.75    3.74
   3   3  -3   66.81    3.09
  -3   3   3   76.02    3.92
   3   3  -3   68.00    3.81
   3   3  -3   64.11    3.17
  -3   3   3   70.64    3.38
   2  -3  -3  147.77    5.54
   2  -3  -3  149.26    5.55
   2  -3  -3  160.82    5.71
  -2  -3   3  151.82    4.37
   2  -3  -3  148.50    5.79
   2  -3  -3  174.83    7.92
  -2  -3   3  149.90    5.31
   2  -3  -3  151.35    5.44
  -2  -3   3  153.42    4.46
  -2  -3   3  156.71    5.47
  -2  -3   3  148.48    5.45
   2   3  -3  146.47    4.70
  -2   3   3  144.71    5.59
  -2   3   3  153.23    5.50
   2   3  -3  147.23    4.67
  -2   3   3  154.76    5.80
   2   3  -3  156.31    4.49
  -2   3   3  143.96    6.36
   2   3  -3  145.82    5.23
  -2   3   3  159.33    5.34
  -2   3   3  150.35    5.62
   2   3  -3  150.46    4.59
  -1  -3   3  124.47    4.63
  -1  -3   3  123.12    4.10
   1  -3  -3  124.10    5.32
   1  -3  -3  119.94    4.60
   1  -3  -3  122.87    4.90
  -1  -3   3  120.47    4.44
   1  -3  -3  118.22    4.62
   1  -3  -3  126.90    4.77
  -1   3   3  119.63    4.63
   1   3  -3  120.24    3.33
  -1   3   3  124.84    4.60
  -1   3   3  118.44    4.78
   1   3  -3  121.87    4.26
   1   3  -3  117.06    3.31
  -1   3   3  117.02    4.55
   0  -3  -3  164.89    5.90
   0  -3  -3  185.80    6.16
   0  -3  -3  166.32    6.17
   0  -3   3  182.38    5.06
   0  -3   3  181.57    5.45
   0  -3  -3  189.41    6.90
   0  -3   3  165.77    6.05
   0  -3  -3  166.15    5.60
   0  -3  -3  176.85    6.08
   0   3   3  174.56    6.00
   0   3   3  169.56    6.70
   0   3  -3  172.93    4.68
   0   3   3  165.63    6.03
   0   3   3  178.93    5.96
   0   3  -3  175.98    5.42
   0   3   3  179.19    6.04
   0   3  -3  171.72    4.66
  -1  -3  -3    7.79    1.85
   1  -3   3    8.17    1.03
  -1  -3  -3    7.33    1.86
  -1  -3  -3    6.79    1.59
  -1  -3  -3    8.05    1.58
  -1  -3  -3    5.87    1.47
   1  -3   3    5.84    1.09
   1  -3   3    5.43    1.59
   1  -3   3    7.67    0.84
  -1  -3  -3    8.21    2.01
  -1  -3  -3    9.41    1.76
   1   3   3    5.97    1.51
  -1   3  -3    6.27    1.08
   1   3   3    7.42    1.58
   1   3   3    5.86    1.39
   1   3   3    5.74    1.91
  -1   3  -3    7.25    0.94
   1   3   3    9.00    1.59
  -1   3  -3    6.04    0.82
  -1   3  -3    7.21    0.93
   1   3   3    5.60    1.41
  -1   3  -3    6.33    1.00
   2  -3   3  170.70    5.60
  -2  -3  -3  176.59    6.29
   2  -3   3  167.95    4.78
  -2  -3  -3  169.88    6.49
  -2  -3  -3  157.06    6.21
  -2  -3  -3  170.59    6.56
  -2  -3  -3  172.30    6.21
   2  -3   3  169.21    4.74
  -2  -3  -3  179.84    6.48
   2  -3   3  164.07    4.74
   2  -3   3  169.45    5.56
  -2  -3  -3  154.07    5.56
  -2  -3  -3  164.45    6.06
  -2  -3  -3  164.56    6.28
   2  -3   3  163.48    6.53
   2   3   3  161.07    6.51
  -2   3  -3  169.31    5.91
  -2   3  -3  164.32    4.75
   2   3   3  175.44    6.49
   2   3   3  169.35    6.26
  -2   3  -3  165.91    5.79
   2   3   3  169.91    6.52
   2   3   3  159.98    6.22
  -2   3  -3  171.88    5.95
  -2   3  -3  161.77    6.54
  -2   3  -3  177.55    5.82
  -2   3  -3  169.77    5.67
   2   3   3  169.19    6.42
   3  -3   3  113.87    5.56
  -3  -3  -3  120.15    5.78
   3  -3   3  131.92    5.24
   3  -3   3  117.48    5.10
  -3  -3  -3  134.25    6.09
  -3  -3  -3  120.68    5.54
  -3  -3  -3  123.31    5.41
  -3  -3  -3  125.63    5.82
  -3  -3  -3  120.96    4.60
  -3  -3  -3  121.06    5.05
   3  -3   3  125.73    3.80
  -3  -3  -3  124.03    5.78
   3  -3   3  126.32    6.01
   3  -3   3  125.30    4.45
  -3   3  -3  124.96    5.85
   3   3   3  124.28    5.60
  -3   3  -3  122.92    5.28
   3   3   3  117.86    5.69
   3   3   3  126.81    5.94
   3   3   3  134.70    5.96
  -3   3  -3  126.59    5.54
   3   3   3  125.69    5.98
  -3   3  -3  126.88    5.47
   3   3   3  128.75    5.65
  -3   3  -3  121.96    5.39
  -3   3  -3  117.15    5.26
   4  -3   3   53.94    4.15
  -4  -3  -3   59.82    4.62
  -4  -3  -3   55.05    3.79
   4  -3   3   50.68    4.82
  -4  -3  -3   58.18    4.47
  -4  -3  -3   55.85    4.21
  -4  -3  -3   60.53    4.95
  -4  -3  -3   54.65    4.41
   4  -3   3   54.84    4.21
   4  -3   3   56.70    3.56
   4  -3   3   58.59    2.52
   4  -3   3   55.89    4.36
  -4  -3  -3   65.75    4.91
   4   3   3   60.83    4.84
  -4   3  -3   48.67    4.25
   4   3   3   58.14    4.60
  -4   3  -3   54.42    4.11
  -4   3  -3   50.14    4.79
   4   3   3   56.10    4.67
  -4   3  -3   62.08    4.63
  -4   3  -3   51.79    4.52
   4   3   3   56.43    4.63
   4   3   3   64.17    4.70
   4   3   3   60.83    4.88
   5  -3   3  252.15   10.03
   5  -3   3  259.65    9.36
   5  -3   3  268.47    7.82
  -5  -3  -3  261.62    9.57
  -5  -3  -3  267.99   13.25
  -5  -3  -3  274.16   10.37
  -5  -3  -3  263.27   10.69
   5  -3   3  262.48    9.27
  -5  -3  -3  258.68   10.72
  -5  -3  -3  255.51    9.93
  -5   3  -3  280.11   10.73
   5   3   3  256.62   10.80
   5   3   3  274.02   10.79
  -5   3  -3  255.98   10.34
   5   3   3  259.32   10.23
   5   3   3  266.96   10.55
  -5   3  -3  266.17   10.18
  -5   3  -3  265.46   10.82
  -5   3  -3  281.08   10.96
   5   3   3  257.82   10.62
  -5   3  -3  262.83   10.41
   6  -3   3    5.88    2.77
  -6  -3  -3    1.97    2.53
   6  -3   3    6.18    3.41
   6  -3   3    0.50    1.68
  -6  -3  -3   -0.60    2.79
  -6  -3  -3    3.51    2.51
   6  -3   3   -1.97    2.20
   6  -3   3   -0.93    2.83
  -6  -3  -3   -0.82    2.82
  -6   3  -3    0.29    3.14
   6   3   3    1.04    3.28
  -6   3  -3   -1.34    2.92
   6   3   3   -0.75    3.33
  -6   3  -3    0.25    3.03
  -6   3  -3    0.36    4.61
  -6   3  -3   -5.24    2.59
   6   3   3    5.20    3.16
  -7  -3  -3  160.83    8.69
  -7  -3  -3  140.31    9.42
   7  -3   3  156.72    8.92
   7  -3   3  162.71    8.41
  -7  -3  -3  157.10   10.81
   7  -3   3  155.81    9.49
  -7   3  -3  162.07    9.62
  -7   3  -3  155.14   10.20
   7   3   3  136.84   13.22
  -7   3  -3  133.81   14.84
   7   3   3  150.04   10.29
   7   3   3  151.76   10.65
   8  -3   3   10.19    4.54
  -8  -3  -3   13.14    5.74
  -8  -3  -3   16.92    4.23
   8  -3   3   11.99    5.92
  -8  -3  -3   10.53    4.05
   8  -3   3   11.27    3.92
  -8  -3  -3   13.06    5.12
  -8   3  -3   18.03    5.81
  -8   3  -3    4.17    4.87
  -8   3  -3    8.62    4.85
   8   3   3   10.77    5.85
   8   3   3   15.62    5.28
  -8   3  -3   21.29    5.27
   8   3   3   14.47    5.38
   9  -3   3   24.47    8.25
  -9  -3  -3   32.40    5.23
   9  -3   3   45.24    6.93
  -9  -3  -3   41.63    7.31
  -9  -3  -3   37.15    7.64
   9  -3   3   38.62    5.80
  -9  -3  -3   30.54    8.36
  -9   3  -3   41.99    8.14
   9   3   3   38.12    7.78
  -9   3  -3   31.42    5.10
   9   3   3   41.39    8.13
  -9   3  -3   43.67    7.82
   9   3   3   40.58    8.04
  -9   3  -3   37.72    8.29
  -9   3  -3   38.19    7.39
   9  -4  -3   22.47    6.05
   9  -4  -3   21.37    4.49
  -9  -4   3   23.82    4.47
  -9  -4   3   20.64    5.51
   9  -4  -3   19.38    6.44
  -9  -4   3   15.90    4.28
   9  -4  -3   20.92    4.22
   9   4  -3   14.54    5.64
  -9   4   3   24.18    5.77
   9   4  -3   24.45    6.15
  -9   4   3   20.49    5.91
  -9   4   3   31.30    6.58
   9   4  -3   24.43    6.54
  -9   4   3   28.39    6.12
  -8  -4   3   11.52    3.36
   8  -4  -3   11.15    3.12
   8  -4  -3   26.60    5.20
  -8  -4   3   13.74    4.35
   8  -4  -3   16.54    5.86
  -8  -4   3   12.42    3.53
   8  -4  -3   11.95    3.91
  -8  -4   3   11.49    3.59
  -8   4   3   17.13    4.99
  -8   4   3    9.83    4.22
   8   4  -3   10.63    4.19
  -8   4   3   12.82    3.96
   8   4  -3   21.63    5.51
   8   4  -3   17.87    5.83
  -8   4   3   21.27    4.78
  -7  -4   3   -6.71    3.30
  -7  -4   3    0.33    2.17
   7  -4  -3    1.44    3.44
  -7  -4   3    2.39    3.14
  -7  -4   3    1.42    2.48
   7  -4  -3   -1.50    2.33
  -7  -4   3    2.03    2.81
   7  -4  -3    5.64    2.28
   7  -4  -3   -0.66    2.94
  -7   4   3    2.94    3.39
  -7   4   3    0.19    2.79
  -7   4   3   -3.48    3.85
  -7   4   3    2.68    3.97
  -7   4   3    5.23    3.74
   7   4  -3    0.12    3.23
   7   4  -3   -6.39    3.21
   7   4  -3    2.12    4.48
   7   4  -3    1.78    3.02
   7   4  -3    2.31    3.66
  -6  -4   3    4.09    2.48
   6  -4  -3    8.62    2.10
  -6  -4   3    4.20    2.29
  -6  -4   3    6.82    2.56
   6  -4  -3    8.48    2.73
   6  -4  -3    4.18    3.45
   6  -4  -3    2.69    2.32
  -6  -4   3    2.58    1.84
  -6  -4   3    6.85    2.74
  -6   4   3    9.42    3.00
  -6   4   3    7.81    2.68
   6   4  -3    8.48    2.72
  -6   4   3    3.39    2.33
   6   4  -3    7.34    3.06
   6   4  -3   12.59    2.79
  -6   4   3    4.82    2.00
   6   4  -3    6.80    2.51
   6   4  -3    7.21    3.24
  -6   4   3    7.50    2.85
   5  -4  -3   86.06    5.32
   5  -4  -3   94.00    6.24
  -5  -4   3   87.56    3.89
   5  -4  -3   82.20    5.54
  -5  -4   3   82.08    3.95
   5  -4  -3   76.08    5.08
  -5  -4   3   77.00    4.44
  -5  -4   3   79.07    5.24
  -5  -4   3   93.65    5.97
  -5  -4   3   82.67    4.91
   5  -4  -3   84.15    4.34
   5  -4  -3   78.04    5.41
   5  -4  -3   66.95    5.27
  -5  -4   3   76.21    4.89
   5  -4  -3   79.41    5.77
  -5   4   3   82.37    5.23
  -5   4   3   82.33    5.87
  -5   4   3   85.11    5.68
   5   4  -3   81.90    5.14
   5   4  -3   81.62    5.15
  -5   4   3   83.94    5.39
   5   4  -3   84.96    4.55
  -5   4   3   77.73    5.31
   5   4  -3   84.66    4.97
  -5   4   3   83.54    4.04
   5   4  -3   83.37    3.20
   5   4  -3   82.80    5.02
  -5   4   3   73.72    5.34
   5   4  -3   90.12    5.91
  -5   4   3   79.28    5.64
  -4  -4   3    1.85    2.03
  -4  -4   3    2.76    2.23
   4  -4  -3    1.46    1.28
  -4  -4   3   -0.80    1.81
  -4  -4   3    1.39    1.14
  -4  -4   3    1.25    0.75
  -4  -4   3    1.84    0.82
   4  -4  -3    2.17    1.95
  -4  -4   3    2.88    1.46
   4  -4  -3    0.51    1.75
   4  -4  -3    0.94    1.98
   4  -4  -3   -1.41    1.83
   4  -4  -3    3.92    1.86
   4  -4  -3    4.81    1.85
   4   4  -3    3.43    1.57
   4   4  -3    1.40    1.34
  -4   4   3    3.72    2.07
  -4   4   3    3.74    1.83
   4   4  -3    2.50    1.54
  -4   4   3    3.60    1.39
   4   4  -3   -0.23    1.60
   4   4  -3    2.02    1.39
  -4   4   3   -0.01    1.90
  -4   4   3    1.18    1.70
  -4   4   3    2.87    1.93
  -4   4   3    1.36    1.76
   4   4  -3    2.30    1.90
   4   4  -3    3.28    1.51
  -4   4   3    2.42    1.90
  -3  -4   3  278.55    9.20
  -3  -4   3  295.61    8.22
  -3  -4   3  288.81   11.82
   3  -4  -3  280.06    9.20
   3  -4  -3  288.99    9.21
   3  -4  -3  292.14    9.55
   3  -4  -3  279.22    9.23
  -3  -4   3  283.55    9.31
   3  -4  -3  285.53    9.33
   3  -4  -3  266.03    9.29
   3  -4  -3  255.34    9.25
   3   4  -3  274.43    8.46
  -3   4   3  286.10    9.48
  -3   4   3  284.49    8.30
  -3   4   3  287.80    9.39
   3   4  -3  268.93    9.40
   3   4  -3  269.48    8.44
   3   4  -3  269.31    8.40
  -3   4   3  278.78    9.50
   3   4  -3  281.35    8.41
   3   4  -3  265.57    8.10
  -3   4   3  266.70    9.33
  -3   4   3  258.80    9.16
  -3   4   3  281.82    9.21
   3   4  -3  291.07    8.35
   2  -4  -3    3.62    1.54
  -2  -4   3    1.31    1.44
  -2  -4   3    3.21    0.49
   2  -4  -3    3.68    1.52
   2  -4  -3    4.57    1.41
  -2  -4   3    1.55    1.12
   2  -4  -3    1.39    1.38
  -2  -4   3    2.85    0.49
  -2  -4   3    3.46    1.69
   2  -4  -3    1.31    1.24
  -2   4   3    1.30    1.11
   2   4  -3    1.57    0.69
   2   4  -3    2.38    0.77
  -2   4   3    2.10    1.47
  -2   4   3    0.84    1.35
  -2   4   3    1.58    1.35
   2   4  -3    2.30    1.51
   2   4  -3    2.59    0.70
  -2   4   3    1.56    1.43
   2   4  -3    1.37    0.66
  -2   4   3    0.47    1.28
   2   4  -3    3.59    0.90
   1  -4  -3  696.15   20.28
  -1  -4   3  716.44   19.55
   1  -4  -3  782.37   19.76
   1  -4  -3  656.18   20.17
   1  -4  -3  743.28   19.30
  -1  -4   3  731.57   19.19
  -1  -4   3  725.93   19.37
   1  -4  -3  728.77   19.68
   1  -4  -3  750.58   19.75
  -1   4   3  742.20   19.51
  -1   4   3  752.62   19.67
   1   4  -3  714.43   19.24
  -1   4   3  726.60   19.61
   1   4  -3  692.39   17.73
   1   4  -3  713.71   17.74
  -1   4   3  740.34   19.71
  -1   4   3  706.75   19.69
   0  -4  -3   -0.72    1.18
   0  -4  -3    0.78    1.25
   0  -4  -3    1.71    1.33
   0  -4  -3    1.04    1.20
   0  -4  -3    2.28    1.27
   0  -4  -3   -0.30    1.28
   0  -4   3    0.95    1.18
   0  -4  -3   -0.57    1.19
   0  -4   3    0.59    0.97
   0  -4   3    0.55    1.27
   0   4  -3    0.85    0.78
   0   4  -3    0.68    1.19
   0   4   3    0.22    1.28
   0   4   3    0.11    1.16
   0   4   3   -0.63    1.23
   0   4  -3   -0.01    0.34
   0   4  -3    0.55    0.36
   0   4   3   -0.63    1.18
   0   4   3    0.23    1.14
   0   4   3    0.74    1.20
   1  -4   3  552.67   15.87
   1  -4   3  543.21   13.83
  -1  -4  -3  572.69   15.61
   1  -4   3  553.24   13.84
  -1  -4  -3  573.64   15.46
  -1  -4  -3  562.56   15.77
  -1  -4  -3  550.04   15.48
   1  -4   3  544.74   14.27
  -1  -4  -3  533.92   15.80
  -1  -4  -3  557.04   15.51
   1   4   3  530.11   15.60
   1   4   3  553.97   15.81
   1   4   3  528.50   15.49
   1   4   3  581.62   15.62
  -1   4  -3  571.76   14.93
  -1   4  -3  547.64   14.15
  -1   4  -3  533.68   14.19
   1   4   3  571.89   15.78
  -1   4  -3  545.08   15.59
  -1   4  -3  552.81   14.14
  -1   4  -3  546.05   14.43
  -2  -4  -3    3.85    1.61
   2  -4   3    1.06    1.65
  -2  -4  -3    2.13    1.23
  -2  -4  -3    4.54    1.70
   2  -4   3    1.17    0.90
  -2  -4  -3    0.79    1.77
   2  -4   3    0.91    0.85
  -2  -4  -3    1.92    1.50
  -2  -4  -3    0.28    1.47
  -2  -4  -3    1.15    1.57
  -2  -4  -3    0.46    1.91
  -2   4  -3    1.61    1.48
   2   4   3    4.35    1.67
  -2   4  -3    3.21    1.24
   2   4   3    1.63    1.52
   2   4   3    1.11    1.61
  -2   4  -3    3.10    1.13
   2   4   3    1.30    1.64
  -2   4  -3    1.76    1.08
   2   4   3    1.67    1.71
   2   4   3    2.95    1.80
  -3  -4  -3   80.24    4.72
  -3  -4  -3   60.50    4.10
   3  -4   3   63.83    2.66
  -3  -4  -3   61.78    4.24
   3  -4   3   69.92    4.57
  -3  -4  -3   68.05    4.63
   3  -4   3   65.77    4.67
  -3  -4  -3   58.99    4.57
   3  -4   3   69.45    3.81
   3  -4   3   60.38    3.49
  -3  -4  -3   67.69    4.08
  -3  -4  -3   65.23    3.35
  -3  -4  -3   67.14    4.59
  -3   4  -3   64.06    3.94
  -3   4  -3   77.47    4.11
   3   4   3   62.22    4.62
  -3   4  -3   65.08    3.98
  -3   4  -3   64.67    3.82
   3   4   3   64.27    4.33
   3   4   3   74.38    4.51
   3   4   3   67.43    4.53
  -3   4  -3   72.22    4.29
  -3   4  -3   62.34    4.39
   3   4   3   66.91    4.58
   3   4   3   63.16    4.42
  -4  -4  -3   14.32    2.45
  -4  -4  -3   14.82    3.25
  -4  -4  -3   11.77    2.08
   4  -4   3   14.72    1.81
   4  -4   3   12.80    1.79
   4  -4   3   10.87    2.60
  -4  -4  -3    9.76    2.51
  -4  -4  -3   12.29    3.02
  -4  -4  -3   14.41    1.86
   4  -4   3   16.94    3.03
   4  -4   3   15.77    2.46
  -4  -4  -3   12.37    2.74
  -4  -4  -3    6.61    2.93
   4  -4   3   14.44    3.24
  -4  -4  -3   15.41    2.74
  -4   4  -3   10.50    2.34
  -4   4  -3   14.57    2.72
  -4   4  -3    9.30    2.25
   4   4   3    7.12    2.74
  -4   4  -3   10.38    2.82
  -4   4  -3   10.24    2.58
   4   4   3    7.61    2.73
  -4   4  -3   13.39    2.72
   4   4   3   13.77    2.99
   4   4   3   11.07    3.19
   4   4   3   12.59    2.85
   4   4   3   13.66    2.92
  -4   4  -3    8.05    2.52
   5  -4   3    4.50    1.89
   5  -4   3    3.21    2.02
  -5  -4  -3    7.86    2.64
   5  -4   3    4.14    2.43
  -5  -4  -3    0.89    2.20
  -5  -4  -3    4.70    2.67
  -5  -4  -3    1.64    2.42
  -5  -4  -3    3.05    1.82
  -5  -4  -3    5.09    1.69
  -5   4  -3    2.11    3.26
   5   4   3    3.82    3.05
  -5   4  -3    3.47    2.59
   5   4   3    3.08    3.99
  -5   4  -3    6.82    2.75
  -5   4  -3    4.98    3.78
  -5   4  -3    4.70    2.55
   5   4   3    2.36    2.65
   5   4   3   -0.39    2.66
  -5   4  -3    4.08    2.55
   6  -4   3   15.66    3.59
  -6  -4  -3   10.33    3.59
   6  -4   3    8.40    3.14
   6  -4   3   11.62    2.79
   6  -4   3    8.63    2.99
  -6  -4  -3   10.34    3.29
  -6  -4  -3   13.40    2.89
  -6  -4  -3   10.33    3.68
  -6  -4  -3   11.36    3.49
  -6   4  -3   11.70    4.03
  -6   4  -3    9.23    3.47
   6   4   3   16.25    4.32
   6   4   3    8.74    3.97
  -6   4  -3    9.32    4.78
   6   4   3   10.95    4.09
  -6   4  -3   10.42    3.79
  -6   4  -3    7.78    4.38
   7  -4   3   14.68    3.87
  -7  -4  -3   18.60    5.04
   7  -4   3   14.65    4.32
  -7  -4  -3   18.62    3.61
   7  -4   3   23.06    4.27
  -7  -4  -3   10.02    4.28
  -7  -4  -3   11.76    5.33
  -7   4  -3   22.67    5.01
   7   4   3   11.83    4.48
  -7   4  -3   21.00    5.11
  -7   4  -3   15.63    7.47
  -8  -4  -3    9.85    4.73
  -8  -4  -3    1.41    4.97
   8  -4   3    4.48    3.66
   8  -4   3    3.63    6.25
  -8  -4  -3    2.66    3.56
  -8  -4  -3   13.24    3.84
   8  -4   3   18.55    5.20
   8   4   3   11.86    5.77
   8   4   3    4.82    5.25
  -8   4  -3   14.53    5.73
  -8   4  -3   11.01    5.52
  -8   4  -3    2.36    5.17
   8   4   3   -6.55    5.37
  -8   4  -3    2.41    4.80
   9  -5  -3   20.18    4.94
   9  -5  -3   14.73    5.45
  -9  -5   3   13.19    4.42
   9  -5  -3   29.54    7.15
  -9  -5   3   26.83    5.46
  -9  -5   3   22.04    5.00
  -9   5   3    9.42    6.13
  -9   5   3   23.89    6.75
   9   5  -3   23.53    5.71
  -9   5   3   21.55    5.75
   9   5  -3    9.61    5.94
   9   5  -3   19.17    6.83
  -9   5   3   11.45    5.95
   8  -5  -3   -0.60    4.02
   8  -5  -3    2.62    5.30
  -8  -5   3   -3.05    2.81
  -8  -5   3   -2.60    3.10
   8  -5  -3   -2.88    2.62
   8  -5  -3    0.31    3.19
  -8  -5   3    2.25    2.83
  -8  -5   3   -3.19    3.73
   8   5  -3   -0.28    4.43
   8   5  -3   -4.23    3.58
  -8   5   3    1.29    4.83
  -8   5   3   -4.63    4.26
  -8   5   3   -5.96    4.06
  -8   5   3   -2.06    4.59
   8   5  -3    0.13    7.76
  -7  -5   3   11.43    2.57
   7  -5  -3   17.15    4.63
  -7  -5   3   12.29    3.77
   7  -5  -3   14.37    3.81
  -7  -5   3    7.92    3.22
   7  -5  -3   13.50    2.44
  -7  -5   3   13.91    3.81
  -7  -5   3    9.73    3.26
   7  -5  -3   20.63    3.98
   7   5  -3   12.55    3.77
   7   5  -3   18.23    4.22
   7   5  -3   11.97    3.95
   7   5  -3   17.26    5.20
  -7   5   3   14.46    4.72
  -7   5   3   14.43    2.85
  -7   5   3   13.83    4.55
  -7   5   3   16.04    3.98
  -7   5   3   11.16    4.53
   7   5  -3   21.14    5.42
  -6  -5   3    7.16    2.74
  -6  -5   3   10.08    2.14
   6  -5  -3    3.77    2.90
  -6  -5   3    6.17    2.60
   6  -5  -3    1.88    1.81
   6  -5  -3    6.99    2.76
   6  -5  -3   12.16    3.10
  -6  -5   3    5.43    1.74
  -6  -5   3    7.96    3.18
   6   5  -3    7.08    2.71
   6   5  -3    7.18    2.79
   6   5  -3    6.49    2.64
  -6   5   3    9.09    2.93
  -6   5   3   10.98    3.36
   6   5  -3    9.83    3.38
  -6   5   3    8.21    2.83
  -6   5   3    5.47    2.08
  -6   5   3    5.71    2.96
   6   5  -3   16.55    3.80
  -5  -5   3   33.24    3.27
  -5  -5   3   31.17    4.07
   5  -5  -3   24.29    4.43
   5  -5  -3   33.70    3.99
  -5  -5   3   32.93    3.42
   5  -5  -3   31.71    3.92
   5  -5  -3   37.85    4.27
  -5  -5   3   28.15    4.04
   5  -5  -3   22.54    3.51
   5  -5  -3   35.05    4.50
  -5  -5   3   28.75    3.84
   5  -5  -3   28.92    2.97
  -5  -5   3   39.41    3.95
  -5  -5   3   33.33    2.24
  -5   5   3   35.84    4.39
  -5   5   3   33.04    3.03
   5   5  -3   37.92    4.19
   5   5  -3   35.42    3.87
  -5   5   3   36.43    4.32
  -5   5   3   31.62    3.98
  -5   5   3   32.71    4.10
  -5   5   3   27.59    3.85
   5   5  -3   33.74    3.28
   5   5  -3   35.26    3.66
   5   5  -3   34.63    4.67
   5   5  -3   42.62    4.42
   4  -5  -3   62.97    5.00
   4  -5  -3   49.69    4.16
  -4  -5   3   55.62    4.70
  -4  -5   3   49.67    3.46
   4  -5  -3   50.37    4.33
   4  -5  -3   59.13    3.47
  -4  -5   3   52.01    4.48
   4  -5  -3   60.17    4.52
   4  -5  -3   61.33    4.56
  -4  -5   3   55.94    3.19
   4  -5  -3   56.01    4.10
   4  -5  -3   57.02    4.61
  -4  -5   3   51.61    4.43
  -4   5   3   52.84    4.38
  -4   5   3   58.73    3.23
  -4   5   3   44.42    4.09
   4   5  -3   54.27    3.74
  -4   5   3   56.09    4.54
   4   5  -3   58.11    2.82
   4   5  -3   57.39    3.14
   4   5  -3   51.39    4.35
  -4   5   3   57.90    4.49
  -4   5   3   56.28    4.59
   4   5  -3   57.44    3.75
   4   5  -3   55.46    3.83
  -4   5   3   60.25    4.49
   4   5  -3   51.37    3.65
  -4   5   3   50.74    4.45
   3  -5  -3   56.00    4.19
  -3  -5   3   54.43    2.49
  -3  -5   3   57.55    4.40
   3  -5  -3   53.29    3.92
   3  -5  -3   50.67    3.24
   3  -5  -3   59.39    4.05
  -3  -5   3   56.20    2.64
   3  -5  -3   52.45    3.69
   3  -5  -3   51.47    3.57
   3  -5  -3   59.14    4.05
  -3  -5   3   54.74    3.92
   3   5  -3   56.37    2.81
   3   5  -3   51.96    3.40
   3   5  -3   56.79    3.23
   3   5  -3   54.28    3.90
   3   5  -3   56.60    3.13
  -3   5   3   54.47    3.95
  -3   5   3   54.82    4.18
   3   5  -3   54.87    3.09
   3   5  -3   53.45    3.00
  -3   5   3   54.25    3.93
  -3   5   3   53.99    3.96
  -3   5   3   59.86    3.32
  -3   5   3   58.64    4.02
   2  -5  -3  274.16    9.06
   2  -5  -3  292.36    9.15
  -2  -5   3  276.74    8.60
  -2  -5   3  288.33    9.25
   2  -5  -3  279.55    9.53
   2  -5  -3  291.61    9.39
   2  -5  -3  265.88    9.27
  -2  -5   3  285.33    9.11
   2  -5  -3  284.01    8.92
   2  -5  -3  289.36    9.26
   2   5  -3  282.53    7.75
   2   5  -3  282.81    7.74
   2   5  -3  281.96    9.36
  -2   5   3  270.58    9.49
   2   5  -3  274.62    7.79
  -2   5   3  294.59    9.42
   2   5  -3  280.23    7.95
  -2   5   3  286.96    9.31
  -2   5   3  303.28    8.92
   2   5  -3  281.87    7.92
  -2   5   3  278.20    9.44
  -2   5   3  281.11    9.37
   1  -5  -3   37.63    2.99
  -1  -5   3   41.79    2.97
   1  -5  -3   43.64    3.18
  -1  -5   3   47.32    3.07
  -1  -5   3   41.31    3.01
   1  -5  -3   39.81    2.80
   1  -5  -3   39.78    3.52
   1  -5  -3   43.80    3.04
   1  -5  -3   48.99    3.43
   1  -5  -3   41.92    3.09
  -1   5   3   41.00    3.13
  -1   5   3   40.61    3.18
   1   5  -3   43.27    1.49
   1   5  -3   42.33    2.96
   1   5  -3   42.05    1.63
   1   5  -3   35.90    3.69
  -1   5   3   40.86    3.33
  -1   5   3   46.15    3.06
  -1   5   3   45.89    2.96
   0  -5   3  295.85    8.71
   0  -5  -3  275.83    9.32
   0  -5  -3  281.87    9.09
   0  -5  -3  296.55    8.59
   0  -5  -3  295.37   10.28
   0  -5  -3  294.24    9.38
   0  -5   3  295.23    9.48
   0  -5  -3  300.02    9.45
   0  -5  -3  291.51    9.13
   0  -5  -3  294.28    9.27
   0  -5   3  282.09    8.55
   0   5  -3  283.51    9.04
   0   5  -3  292.70    9.00
   0   5   3  280.61    9.32
   0   5   3  307.04    9.47
   0   5  -3  285.62    7.49
   0   5   3  285.50    9.40
   0   5   3  308.38    9.31
   0   5   3  267.77    9.31
  -1  -5  -3   15.39    2.18
   1  -5   3   14.89    2.43
  -1  -5  -3   15.81    2.14
  -1  -5  -3   11.80    1.86
  -1  -5  -3   15.12    2.28
  -1  -5  -3   16.33    2.32
  -1  -5  -3   16.39    2.18
   1  -5   3   16.74    1.95
   1   5   3   14.55    2.24
  -1   5  -3   14.31    1.49
  -1   5  -3   15.13    1.53
  -1   5  -3   15.17    2.17
   1   5   3   12.15    2.21
   1   5   3   15.76    2.41
   1   5   3   12.64    2.03
  -1   5  -3   13.37    2.10
  -1   5  -3   15.82    1.37
  -1   5  -3   14.69    1.23
   1   5   3   12.89    2.09
  -1   5  -3   12.87    1.43
   1   5   3   15.11    2.32
  -2  -5  -3  298.36    9.62
  -2  -5  -3  282.02    8.15
  -2  -5  -3  271.20    9.68
  -2  -5  -3  275.15    9.38
  -2  -5  -3  279.48    9.69
   2  -5   3  278.98    9.30
   2  -5   3  282.50    8.10
   2  -5   3  272.77    9.89
  -2  -5  -3  283.91    9.51
  -2  -5  -3  288.44    9.29
   2   5   3  271.54    9.71
  -2   5  -3  285.58    9.75
  -2   5  -3  262.21    9.62
   2   5   3  282.69    9.75
   2   5   3  271.41    9.59
   2   5   3  289.17    9.86
   2   5   3  278.13    9.59
   2   5   3  273.43    9.84
  -2   5  -3  285.50    8.47
  -2   5  -3  282.74    8.62
  -2   5  -3  278.36    8.54
  -2   5  -3  284.92    8.59
   3  -5   3   38.73    4.19
  -3  -5  -3   32.47    3.47
  -3  -5  -3   38.39    4.18
  -3  -5  -3   38.15    2.80
   3  -5   3   35.97    2.80
  -3  -5  -3   37.79    3.57
  -3  -5  -3   38.32    4.01
   3  -5   3   36.43    3.14
  -3  -5  -3   35.04    4.05
  -3  -5  -3   34.19    2.90
  -3  -5  -3   34.38    3.53
   3  -5   3   33.91    3.90
  -3   5  -3   31.64    3.76
   3   5   3   36.14    3.74
  -3   5  -3   47.31    3.40
  -3   5  -3   44.08    3.40
   3   5   3   46.08    4.55
  -3   5  -3   39.12    3.27
   3   5   3   31.21    3.73
  -3   5  -3   42.39    3.81
  -3   5  -3   36.48    4.05
   3   5   3   33.88    3.75
   3   5   3   35.77    4.18
  -3   5  -3   41.23    3.45
   3   5   3   41.30    4.21
  -4  -5  -3   70.65    5.14
  -4  -5  -3   70.86    4.93
   4  -5   3   72.66    4.34
   4  -5   3   72.78    3.35
   4  -5   3   70.83    5.24
   4  -5   3   74.46    6.67
  -4  -5  -3   84.03    4.90
  -4  -5  -3   67.66    5.22
  -4  -5  -3   67.53    5.44
  -4  -5  -3   73.62    3.96
   4  -5   3   67.09    4.86
  -4  -5  -3   64.77    3.14
   4  -5   3   71.53    3.19
   4   5   3   64.58    5.37
   4   5   3   55.69    5.78
  -4   5  -3   76.91    5.71
  -4   5  -3   68.24    5.23
   4   5   3   69.60    5.40
  -4   5  -3   71.95    4.76
  -4   5  -3   63.06    4.94
  -4   5  -3   79.59    5.35
  -4   5  -3   65.05    4.71
   4   5   3   77.97    5.67
  -4   5  -3   70.93    5.31
   5  -5   3   79.58    6.04
   5  -5   3   95.72    4.48
  -5  -5  -3   87.13    5.99
  -5  -5  -3   89.87    5.71
  -5  -5  -3  101.05    6.64
   5  -5   3   75.18    5.34
  -5  -5  -3   93.20    4.95
  -5  -5  -3   89.62    6.05
  -5   5  -3   86.70    6.79
  -5   5  -3   87.47    6.73
   5   5   3   87.39    6.40
   5   5   3   85.10    6.70
  -5   5  -3   96.27    6.29
  -5   5  -3   92.44    6.10
   5   5   3   87.84    6.53
  -5   5  -3   90.87    6.78
  -6  -5  -3   -0.33    3.19
   6  -5   3   -1.32    3.11
  -6  -5  -3   -3.47    2.30
  -6  -5  -3    0.81    2.83
   6  -5   3    0.74    2.28
   6  -5   3   -2.07    2.98
   6  -5   3   -0.25    2.54
  -6  -5  -3    4.87    3.85
  -6   5  -3    3.33    4.12
  -6   5  -3   -1.70    3.86
  -6   5  -3    7.92    5.17
   6   5   3   -0.38    4.40
   6   5   3   -4.22    4.00
   6   5   3    1.98    4.00
  -6   5  -3    0.77    3.42
  -6   5  -3   -2.08    3.16
  -7  -5  -3   53.51    5.63
   7  -5   3   56.56    6.56
  -7  -5  -3   54.01    7.53
  -7  -5  -3   70.27    6.21
  -7  -5  -3   56.07    6.36
   7  -5   3   48.58    6.14
   7  -5   3   59.92    7.71
  -7   5  -3   52.30    6.42
  -7   5  -3   62.82    7.00
  -7   5  -3   47.25    9.46
  -7   5  -3   57.50    7.32
   7   5   3   64.78    7.23
   7   5   3   51.27    6.55
   7   5   3   59.12    7.48
  -8  -5  -3   27.59    4.74
  -8  -5  -3   19.19    5.86
  -8  -5  -3   14.78    5.71
   8  -5   3   26.04    5.45
  -8  -5  -3   19.25    6.86
   8  -5   3   21.31    6.47
  -8   5  -3   26.67    6.49
  -8   5  -3   28.10    6.37
   8   5   3   14.48    5.82
  -8   5  -3   38.19    7.67
  -8   5  -3   25.19    6.17
   8   5   3   18.63    6.47
   8   5   3   32.54    7.20
   9  -6  -3   -0.65    4.27
   9  -6  -3    7.88    6.91
  -9  -6   3    2.94    3.90
   9  -6  -3    7.09    6.10
  -9   6   3   15.73    6.18
   9   6  -3   17.15    6.22
  -9   6   3    4.76    6.24
  -9   6   3    1.21    5.78
   9   6  -3   21.12    6.95
  -9   6   3   13.37    6.42
   9   6  -3   15.77    5.79
   8  -6  -3  133.63    8.98
  -8  -6   3  121.75    9.28
  -8  -6   3  132.25    6.61
   8  -6  -3  134.66    6.87
  -8  -6   3  137.24    8.70
  -8  -6   3  130.27    8.93
   8  -6  -3  143.79   11.71
   8  -6  -3  147.88    9.70
  -8   6   3  146.10   10.12
  -8   6   3  128.58    9.64
   8   6  -3  139.88   10.85
  -8   6   3  131.36    9.88
   8   6  -3  145.69   10.09
   8   6  -3  135.54    9.32
  -8   6   3  147.98   10.69
   7  -6  -3   -2.19    3.60
  -7  -6   3    2.32    1.97
   7  -6  -3    3.25    3.01
  -7  -6   3   -1.35    2.68
  -7  -6   3   -1.74    3.23
   7  -6  -3    2.08    3.94
   7  -6  -3    0.41    2.07
   7   6  -3    2.76    3.84
  -7   6   3    1.13    4.55
   7   6  -3   -3.76    4.77
  -7   6   3    6.14    4.24
  -6  -6   3  187.15    8.84
  -6  -6   3  180.09    6.26
  -6  -6   3  194.20    9.59
   6  -6  -3  201.98    9.52
   6  -6  -3  189.66    9.00
   6  -6  -3  193.02    7.19
  -6  -6   3  197.47    8.15
   6  -6  -3  195.03    9.37
   6   6  -3  208.91    9.03
  -6   6   3  194.81    9.65
  -6   6   3  203.72    9.49
  -6   6   3  175.19    9.83
   6   6  -3  193.03    8.88
   6   6  -3  184.46    9.85
  -6   6   3  199.25    9.45
  -6   6   3  207.38    6.96
   6   6  -3  198.16    7.60
   6   6  -3  219.66    9.61
  -5  -6   3   15.08    2.36
  -5  -6   3   11.20    2.75
   5  -6  -3   10.71    2.71
  -5  -6   3   13.30    3.03
   5  -6  -3   16.36    2.18
   5  -6  -3   19.88    3.56
  -5  -6   3   13.14    3.16
   5  -6  -3   16.10    3.24
   5  -6  -3   15.83    3.28
  -5   6   3   13.62    3.17
   5   6  -3   12.47    3.28
   5   6  -3   15.43    2.73
   5   6  -3   14.43    2.74
  -5   6   3   10.94    3.84
  -5   6   3   11.95    3.16
   5   6  -3   11.89    1.93
  -5   6   3   16.06    3.15
   5   6  -3    9.76    2.65
  -5   6   3   15.45    3.17
   5   6  -3   16.63    3.13
  -5   6   3   20.86    2.27
   4  -6  -3  184.41    8.50
   4  -6  -3  191.40    8.01
   4  -6  -3  187.18    6.71
  -4  -6   3  187.93    6.52
  -4  -6   3  176.74    7.86
   4  -6  -3  188.75    7.80
   4  -6  -3  174.06    8.12
  -4  -6   3  164.04    7.52
   4  -6  -3  183.65    7.56
   4  -6  -3  185.28    8.37
   4  -6  -3  183.74    7.98
  -4   6   3  185.25    8.26
   4   6  -3  184.36    5.79
   4   6  -3  176.31    8.16
   4   6  -3  191.23    7.10
   4   6  -3  186.58    6.05
   4   6  -3  191.50    7.14
  -4   6   3  184.10    8.11
  -4   6   3  193.70    8.33
   4   6  -3  195.93    7.16
  -4   6   3  197.07    6.37
  -4   6   3  185.37    8.00
   4   6  -3  189.08    7.10
  -4   6   3  191.01    8.15
  -4   6   3  176.41    7.86
   3  -6  -3   21.06    3.07
   3  -6  -3   17.89    2.66
   3  -6  -3   17.05    2.59
  -3  -6   3   16.46    1.54
  -3  -6   3   15.26    2.74
  -3  -6   3   18.14    1.61
   3  -6  -3   13.04    1.98
   3  -6  -3   15.37    2.65
   3  -6  -3   16.62    2.43
   3  -6  -3   14.92    2.52
   3  -6  -3   14.49    2.91
  -3  -6   3   15.93    2.88
   3   6  -3   16.99    2.12
  -3   6   3   14.50    2.75
   3   6  -3   18.52    0.88
   3   6  -3   18.90    2.85
   3   6  -3   15.38    1.91
  -3   6   3   19.19    2.49
  -3   6   3   19.86    2.98
   3   6  -3   16.51    2.04
   3   6  -3   16.07    1.74
  -3   6   3   17.65    2.64
   3   6  -3   16.31    1.99
  -3   6   3   13.90    2.57
  -3   6   3   16.45    2.60
   2  -6  -3   19.72    2.53
  -2  -6   3   16.02    2.06
  -2  -6   3   17.33    2.47
   2  -6  -3   19.54    2.79
   2  -6  -3   18.66    2.61
   2  -6  -3   17.62    2.43
   2  -6  -3   14.08    2.29
  -2  -6   3   21.34    3.05
   2  -6  -3   16.28    2.24
   2   6  -3   13.55    1.71
   2   6  -3   19.07    1.63
  -2   6   3   22.59    2.61
  -2   6   3   17.36    2.43
  -2   6   3   17.94    2.84
  -2   6   3   17.63    2.59
   2   6  -3   17.22    1.72
  -2   6   3   19.11    2.67
  -2   6   3   18.73    2.46
   2   6  -3   21.38    1.64
   2   6  -3   17.54    2.59
   2   6  -3   19.71    1.79
   1  -6  -3   26.35    2.88
   1  -6  -3   23.62    2.83
   1  -6  -3   25.10    2.94
   1  -6  -3   23.66    2.87
  -1  -6   3   29.61    2.76
  -1  -6   3   24.82    2.72
  -1  -6   3   25.43    2.96
   1  -6  -3   33.94    3.17
   1  -6  -3   27.31    2.89
   1  -6  -3   24.64    2.70
  -1   6   3   24.92    2.97
   1   6  -3   28.11    2.56
  -1   6   3   30.15    3.10
  -1   6   3   25.63    3.03
   1   6  -3   26.32    1.25
  -1   6   3   33.83    3.15
   1   6  -3   28.24    1.34
   1   6  -3   26.73    1.37
  -1   6   3   26.93    2.91
  -1   6   3   29.00    2.89
   1   6  -3   23.52    2.88
   0  -6   3   65.90    3.46
   0  -6  -3   58.41    3.80
   0  -6  -3   59.28    4.00
   0  -6  -3   61.41    3.77
   0  -6  -3   65.04    3.14
   0  -6  -3   53.98    4.46
   0  -6  -3   65.85    4.05
   0  -6  -3   63.84    3.72
   0  -6   3   63.73    3.51
   0  -6   3   60.83    4.03
   0   6  -3   62.54    2.14
   0   6   3   60.19    3.96
   0   6  -3   64.19    2.28
   0   6   3   59.25    3.95
   0   6   3   59.05    3.87
   0   6  -3   62.17    3.67
   0   6   3   57.91    3.81
   0   6   3   60.36    3.82
   0   6   3   67.57    4.11
  -1  -6  -3   45.27    3.75
  -1  -6  -3   43.58    3.32
  -1  -6  -3   45.94    2.42
   1  -6   3   42.94    2.80
  -1  -6  -3   42.31    3.54
   1  -6   3   43.32    3.89
  -1  -6  -3   38.42    3.33
  -1  -6  -3   42.54    3.52
  -1  -6  -3   46.66    3.47
   1   6   3   45.75    3.74
  -1   6  -3   44.20    2.26
  -1   6  -3   40.95    3.41
  -1   6  -3   42.91    2.24
   1   6   3   42.86    3.79
  -1   6  -3   44.70    2.32
   1   6   3   40.23    3.49
   1   6   3   48.12    3.95
  -1   6  -3   42.79    2.33
  -1   6  -3   43.43    3.52
  -1   6  -3   41.24    2.08
   1   6   3   49.83    3.56
   1   6   3   41.74    3.61
  -2  -6  -3  150.73    6.72
   2  -6   3  152.01    7.18
  -2  -6  -3  150.03    6.64
  -2  -6  -3  165.66    6.52
  -2  -6  -3  151.70    6.49
   2  -6   3  156.03    4.82
  -2  -6  -3  152.85    4.91
  -2  -6  -3  154.34    6.98
   2  -6   3  155.85    4.94
  -2  -6  -3  142.99    6.33
   2   6   3  153.59    7.23
   2   6   3  155.94    6.83
  -2   6  -3  145.77    6.77
  -2   6  -3  148.76    5.51
   2   6   3  146.23    6.92
  -2   6  -3  159.96    5.62
  -2   6  -3  157.68    5.57
   2   6   3  148.34    6.94
  -2   6  -3  148.08    6.68
   2   6   3  149.24    6.79
   2   6   3  157.94    7.03
   3  -6   3   12.48    2.11
  -3  -6  -3    9.23    2.40
  -3  -6  -3    9.45    1.36
   3  -6   3   10.15    2.82
   3  -6   3    9.32    1.66
  -3  -6  -3    7.19    2.21
  -3  -6  -3    9.01    2.01
  -3  -6  -3   12.54    2.46
  -3  -6  -3    6.45    2.24
  -3  -6  -3   17.70    2.97
  -3  -6  -3   14.29    3.03
   3   6   3    6.04    2.88
  -3   6  -3   12.48    2.88
  -3   6  -3    9.76    2.16
   3   6   3   11.24    2.98
  -3   6  -3   11.56    2.24
   3   6   3   15.56    3.08
   3   6   3   11.52    2.69
   3   6   3    8.00    3.09
  -3   6  -3   11.23    2.12
  -3   6  -3    8.54    2.77
   3   6   3    9.02    2.55
  -3   6  -3    9.86    2.00
  -3   6  -3    8.50    2.72
   4  -6   3  160.78    6.56
  -4  -6  -3  162.26    4.67
  -4  -6  -3  167.66    7.58
  -4  -6  -3  154.91    7.62
  -4  -6  -3  174.05    8.32
  -4  -6  -3  172.32    7.19
  -4  -6  -3  161.67    5.00
   4  -6   3  155.61    7.91
  -4  -6  -3  156.10    6.30
   4  -6   3  158.11    7.95
  -4  -6  -3  156.47    7.84
  -4   6  -3  165.62    7.49
   4   6   3  162.01    8.06
   4   6   3  165.48    8.23
  -4   6  -3  165.40    8.54
   4   6   3  170.01    8.99
  -4   6  -3  163.81    7.18
  -4   6  -3  154.79    7.57
   4   6   3  173.16    8.31
  -4   6  -3  162.92    8.22
  -4   6  -3  153.45    7.87
  -4   6  -3  167.58    7.38
   5  -6   3   -2.36    2.47
  -5  -6  -3    0.87    1.82
  -5  -6  -3    1.21    2.73
   5  -6   3    1.75    1.47
  -5  -6  -3    2.40    2.83
  -5  -6  -3   -0.31    2.59
   5  -6   3    2.75    1.50
  -5  -6  -3    3.85    3.01
   5  -6   3    1.55    4.74
  -5   6  -3    0.98    3.12
   5   6   3    3.40    3.34
  -5   6  -3    1.53    3.42
  -5   6  -3    4.68    3.58
  -5   6  -3    1.87    2.74
  -5   6  -3    0.14    2.63
   5   6   3   -0.87    3.37
   5   6   3    5.40    3.45
  -6  -6  -3   85.98    7.84
  -6  -6  -3   86.97    7.38
   6  -6   3   86.42    6.73
   6  -6   3   92.34    7.18
  -6  -6  -3   93.86    7.42
   6  -6   3   85.08    4.80
  -6  -6  -3   85.25    5.33
  -6   6  -3   68.51    7.49
   6   6   3   98.17   12.04
   6   6   3  108.44   13.17
   6   6   3   87.23    8.55
  -6   6  -3   72.43   11.07
   7  -6   3    6.26    3.06
  -7  -6  -3    1.52    3.23
  -7  -6  -3    1.27    4.30
  -7  -6  -3    6.09    6.43
   7  -6   3    9.95    3.64
   7  -6   3    1.09    4.63
  -7  -6  -3   -1.58    3.12
   7   6   3   -3.24    4.80
  -7   6  -3   -1.24    4.87
  -7   6  -3    3.38    3.98
   7   6   3   -0.30    4.50
  -7   6  -3    7.14    5.24
  -7   6  -3    7.03    4.61
   7   6   3   -4.11    4.62
   8  -6   3   73.94    8.21
  -8  -6  -3   43.48    7.03
  -8  -6  -3   64.44    7.08
   8  -6   3   64.47    7.65
  -8  -6  -3   55.74    8.85
  -8   6  -3   87.30   11.25
  -8   6  -3   61.43    8.14
  -8   6  -3   63.40    8.73
  -8   6  -3   84.03   10.03
   8   6   3   61.17    8.11
   8   6   3   56.55    8.41
   8   6   3   52.98    7.94
   8  -7  -3    0.54    3.94
  -8  -7   3   -0.18    3.53
   8  -7  -3    0.99    4.87
  -8  -7   3   -4.34    3.12
   8  -7  -3   -6.55    6.58
   8   7  -3   -8.90    4.92
  -8   7   3   -2.94    5.41
  -8   7   3    0.89    4.93
  -8   7   3   15.68    5.36
   8   7  -3    6.09    4.38
   8   7  -3    2.81    4.65
  -8   7   3    4.62    5.09
   7  -7  -3   90.31    5.03
   7  -7  -3   98.82    7.92
  -7  -7   3   88.84    7.23
   7  -7  -3   80.32   10.51
  -7  -7   3  102.02    8.90
   7  -7  -3  100.64    8.86
  -7  -7   3  103.11    7.37
  -7   7   3   95.94    9.04
  -7   7   3   81.73    7.94
   7   7  -3  101.34    8.66
   7   7  -3  111.50    9.23
   7   7  -3   98.78    7.44
  -7   7   3   66.68    7.91
  -7   7   3  101.50    8.61
  -6  -7   3    0.37    2.51
  -6  -7   3   -0.92    3.18
   6  -7  -3    3.97    3.21
   6  -7  -3    1.54    1.94
  -6  -7   3    0.63    2.65
   6  -7  -3   -0.16    3.03
   6  -7  -3    1.80    3.04
  -6   7   3    2.18    4.05
  -6   7   3   -5.75    3.96
   6   7  -3    1.40    3.40
   6   7  -3    1.15    2.16
   6   7  -3    4.05    3.90
  -6   7   3    8.54    4.46
  -6   7   3   -1.69    3.66
   6   7  -3    4.99    3.11
   6   7  -3   -6.50    3.82
   5  -7  -3   97.63    5.80
  -5  -7   3   90.20    6.47
   5  -7  -3   90.45    6.39
  -5  -7   3   96.38    6.14
  -5  -7   3   93.01    4.85
   5  -7  -3   84.67    6.65
   5  -7  -3   92.71    4.63
   5  -7  -3   95.41    6.29
  -5   7   3   82.12    7.90
   5   7  -3   87.79    5.38
  -5   7   3   94.06    6.42
  -5   7   3   99.59    6.81
  -5   7   3   95.33    4.47
  -5   7   3   99.00    7.06
   5   7  -3   94.58    3.87
   5   7  -3   98.17    7.09
   5   7  -3   93.52    5.88
  -5   7   3   93.96    6.77
   5   7  -3   91.35    5.70
   4  -7  -3   -3.21    2.61
   4  -7  -3    6.97    3.19
   4  -7  -3    6.31    1.73
  -4  -7   3    5.80    2.69
  -4  -7   3    4.18    1.72
   4  -7  -3    1.94    2.46
   4  -7  -3    4.62    2.17
   4  -7  -3    6.05    2.46
  -4  -7   3    7.54    2.77
  -4  -7   3    4.57    1.42
  -4   7   3    5.65    2.51
   4   7  -3    5.93    2.11
   4   7  -3    2.81    1.81
  -4   7   3    2.73    2.43
  -4   7   3    4.00    3.15
  -4   7   3    8.44    1.90
   4   7  -3    2.82    2.62
  -4   7   3    5.01    2.40
  -4   7   3    4.68    2.43
   4   7  -3    6.42    2.42
   4   7  -3    7.24    1.99
   4   7  -3    6.00    1.13
   3  -7  -3   76.54    5.20
   3  -7  -3   74.17    4.77
   3  -7  -3   70.63    5.45
  -3  -7   3   68.07    3.57
   3  -7  -3   78.59    5.15
  -3  -7   3   70.99    2.52
   3  -7  -3   70.80    4.46
   3  -7  -3   64.64    5.85
  -3  -7   3   74.65    4.90
   3  -7  -3   66.02    4.73
  -3  -7   3   75.15    4.92
   3  -7  -3   72.04    4.02
  -3  -7   3   75.12    2.53
  -3   7   3   69.30    4.87
   3   7  -3   73.28    3.66
  -3   7   3   69.42    4.86
   3   7  -3   68.10    3.62
   3   7  -3   71.97    4.29
  -3   7   3   75.11    5.21
   3   7  -3   68.96    5.15
   3   7  -3   70.95    2.54
   3   7  -3   70.29    4.00
   3   7  -3   70.97    2.72
  -3   7   3   69.57    4.10
  -3   7   3   71.99    5.26
  -3   7   3   73.93    5.22
   3   7  -3   72.64    2.75
   2  -7  -3   39.20    3.24
  -2  -7   3   43.27    3.76
   2  -7  -3   39.90    3.71
  -2  -7   3   41.50    3.16
   2  -7  -3   43.54    3.50
   2  -7  -3   39.47    3.67
   2  -7  -3   34.61    3.90
   2  -7  -3   42.13    4.18
   2  -7  -3   41.13    3.66
   2  -7  -3   35.63    4.03
  -2  -7   3   43.61    4.28
   2   7  -3   40.42    2.44
  -2   7   3   42.59    3.35
   2   7  -3   44.54    2.76
  -2   7   3   37.96    3.74
  -2   7   3   36.15    3.80
   2   7  -3   38.21    2.26
  -2   7   3   31.48    4.02
   2   7  -3   38.31    2.67
  -2   7   3   39.63    3.77
   2   7  -3   43.15    2.36
   2   7  -3   40.61    3.82
  -2   7   3   37.86    3.75
   2   7  -3   40.28    2.21
   1  -7  -3   10.97    2.64
   1  -7  -3   13.34    2.88
   1  -7  -3   10.21    2.00
  -1  -7   3    8.78    1.96
   1  -7  -3   12.47    1.92
   1  -7  -3   12.50    2.35
  -1  -7   3    8.02    1.86
   1  -7  -3   10.31    2.09
   1  -7  -3    8.25    2.02
   1   7  -3   10.27    1.20
  -1   7   3   10.37    2.34
   1   7  -3   10.32    1.19
  -1   7   3   11.11    2.24
  -1   7   3    7.17    2.20
   1   7  -3    9.09    1.10
  -1   7   3   10.55    2.17
   1   7  -3    9.50    1.14
   1   7  -3    8.18    2.32
  -1   7   3   12.29    2.45
   1   7  -3   10.87    1.90
  -1   7   3   13.69    2.65
   0  -7   3   54.89    3.51
   0  -7   3   51.14    3.50
   0  -7   3   48.60    3.84
   0  -7  -3   49.61    3.78
   0  -7  -3   48.02    3.96
   0  -7  -3   47.81    2.82
   0  -7  -3   44.37    4.07
   0  -7  -3   51.45    4.08
   0  -7  -3   47.02    3.64
   0  -7  -3   46.58    3.44
   0   7  -3   46.74    2.14
   0   7  -3   49.13    3.60
   0   7  -3   47.32    3.34
   0   7   3   42.00    3.91
   0   7  -3   48.10    2.17
   0   7  -3   46.80    2.13
   0   7   3   53.02    3.98
   0   7   3   37.81    4.03
   0   7   3   48.51    3.88
   0   7  -3   47.50    2.15
   0   7   3   47.95    4.08
   0   7   3   47.01    4.07
  -1  -7  -3   12.61    1.67
  -1  -7  -3    9.39    2.63
  -1  -7  -3    9.48    2.33
  -1  -7  -3    9.43    2.05
   1  -7   3    9.20    2.53
   1  -7   3   11.01    1.83
  -1  -7  -3    8.00    2.18
  -1  -7  -3   10.09    2.31
  -1  -7  -3   10.25    2.37
  -1   7  -3    9.23    2.35
  -1   7  -3   11.35    1.41
  -1   7  -3   12.82    2.23
  -1   7  -3    9.54    1.38
   1   7   3    8.69    2.47
  -1   7  -3    9.64    1.43
   1   7   3   11.03    2.46
   1   7   3   10.54    2.48
   1   7   3   13.97    2.39
   1   7   3   11.58    2.51
  -1   7  -3   11.98    1.49
   1   7   3   12.19    2.64
   1   7   3   13.55    2.68
  -2  -7  -3   58.88    4.41
  -2  -7  -3   55.32    2.27
  -2  -7  -3   66.79    4.55
   2  -7   3   57.35    2.51
   2  -7   3   49.46    4.58
  -2  -7  -3   61.02    2.44
  -2  -7  -3   58.83    4.19
  -2  -7  -3   61.85    4.59
  -2  -7  -3   53.29    4.85
  -2  -7  -3   51.84    4.38
   2  -7   3   61.13    2.42
   2   7   3   59.81    4.78
   2   7   3   49.32    4.99
  -2   7  -3   54.74    3.48
  -2   7  -3   60.43    4.62
   2   7   3   61.51    5.13
  -2   7  -3   55.20    3.40
   2   7   3   52.55    4.52
  -2   7  -3   54.69    3.21
  -2   7  -3   56.26    4.51
   2   7   3   57.16    4.58
   2   7   3   40.49    4.82
  -2   7  -3   54.15    3.51
  -3  -7  -3  146.18    5.05
  -3  -7  -3  144.07    7.19
  -3  -7  -3  131.85    7.00
  -3  -7  -3  147.93    6.71
   3  -7   3  141.24    5.66
  -3  -7  -3  139.41    6.57
   3  -7   3  135.04    7.42
  -3  -7  -3  149.43    7.22
  -3  -7  -3  137.90    4.36
   3   7   3  143.35    7.36
  -3   7  -3  143.73    7.35
   3   7   3  135.02    7.21
  -3   7  -3  134.65    5.96
  -3   7  -3  134.08    6.04
   3   7   3  135.31    7.57
   3   7   3  155.37    7.88
  -3   7  -3  143.95    6.28
  -3   7  -3  135.84    7.30
  -3   7  -3  129.50    6.43
  -4  -7  -3   14.39    3.02
  -4  -7  -3   17.38    3.50
   4  -7   3   11.79    3.19
  -4  -7  -3   12.72    3.11
  -4  -7  -3    8.58    3.93
   4  -7   3   12.55    2.31
  -4  -7  -3   11.53    1.50
  -4  -7  -3   11.43    2.97
   4   7   3   12.62    3.68
   4   7   3   12.20    3.33
  -4   7  -3   16.58    3.69
  -4   7  -3   10.43    2.45
   4   7   3   20.29    4.78
  -4   7  -3   14.86    3.21
   4   7   3    7.92    3.59
  -4   7  -3   18.20    3.97
  -4   7  -3   12.33    2.92
  -5  -7  -3  180.83    8.30
  -5  -7  -3  178.06    9.15
   5  -7   3  172.93    9.29
  -5  -7  -3  187.62    7.42
   5  -7   3  174.39    7.66
  -5  -7  -3  149.93    8.43
   5   7   3  162.28    9.83
   5   7   3  161.26    9.74
  -5   7  -3  165.57   10.63
  -5   7  -3  175.86    8.54
   5   7   3  173.42   10.72
  -5   7  -3  180.99    9.01
  -5   7  -3  164.74    9.99
  -5   7  -3  173.33    9.34
  -6  -7  -3    1.33    4.08
   6  -7   3    6.90    3.83
  -6  -7  -3    0.52    4.03
  -6  -7  -3    1.62    2.24
   6  -7   3    5.62    3.56
  -6  -7  -3    0.69    2.97
   6   7   3    5.77    4.49
  -6   7  -3    5.91    4.68
   6   7   3    0.87    4.20
  -6   7  -3   -3.15    4.27
  -6   7  -3    8.37    4.93
   6   7   3   -1.54    4.24
  -6   7  -3   -5.06    3.27
  -7  -7  -3  105.24    8.75
  -7  -7  -3  117.89   12.30
  -7  -7  -3  109.36    7.80
   7  -7   3  120.22    8.76
  -7   7  -3  104.49    9.01
   7   7   3  112.13    9.57
   7   7   3  101.04   10.06
  -7   7  -3  105.58   10.32
  -7   7  -3  134.36   11.28
   7   7   3   84.67   10.06
  -7   7  -3  116.48   10.37
   8  -8  -3   12.76    5.60
  -8  -8   3   11.75    4.11
   8  -8  -3   15.47    4.62
   8   8  -3   24.30    7.10
  -8   8   3   18.04    6.41
  -8   8   3    1.00    5.96
  -8   8   3   11.01    6.67
   8   8  -3   17.59    5.55
  -8   8   3   12.19    6.89
   8   8  -3   16.68    5.66
   7  -8  -3    2.78    4.54
   7  -8  -3   -5.55    3.42
  -7  -8   3    2.64    3.13
  -7  -8   3    0.30    3.29
   7  -8  -3    7.71    5.07
  -7   8   3   -0.34    4.46
  -7   8   3   -0.08    4.60
   7   8  -3   -7.18    4.80
  -7   8   3   -3.75    4.42
   7   8  -3    1.16    5.13
   7   8  -3    7.06    3.88
  -7   8   3    2.59    4.67
   6  -8  -3   22.13    3.81
   6  -8  -3   28.88    4.98
  -6  -8   3   14.13    3.57
   6  -8  -3   23.27    4.64
   6  -8  -3   20.69    4.53
  -6  -8   3   20.75    3.22
  -6  -8   3   25.67    5.20
  -6   8   3   21.73    5.55
  -6   8   3   23.30    6.28
  -6   8   3   24.11    5.11
  -6   8   3   23.04    6.24
   6   8  -3   20.47    4.27
   6   8  -3   20.15    3.75
  -5  -8   3   72.27    5.98
  -5  -8   3   66.77    5.75
   5  -8  -3   65.53    6.14
   5  -8  -3   65.72    5.22
   5  -8  -3   66.07    4.08
   5  -8  -3   57.31    5.96
   5  -8  -3   57.17    7.11
  -5   8   3   57.39    8.08
   5   8  -3   51.08    5.63
   5   8  -3   62.16    5.07
  -5   8   3   58.50    6.64
  -5   8   3   62.47    6.94
  -5   8   3   59.40    6.73
  -5   8   3   61.76    6.62
   5   8  -3   54.73    6.51
   5   8  -3   68.89    5.34
  -4  -8   3   13.61    3.09
   4  -8  -3   13.04    2.12
   4  -8  -3   14.71    2.75
  -4  -8   3   14.49    1.72
   4  -8  -3   13.59    3.53
  -4  -8   3   10.33    3.17
   4  -8  -3   14.89    3.30
   4  -8  -3    7.15    2.60
  -4  -8   3   12.77    1.92
  -4   8   3   11.92    3.49
   4   8  -3    6.99    3.10
  -4   8   3   14.31    2.49
  -4   8   3   12.61    2.28
   4   8  -3   10.68    2.32
   4   8  -3    9.84    3.14
   4   8  -3   16.22    2.56
  -4   8   3    8.17    3.13
  -4   8   3   13.04    3.33
   4   8  -3   15.82    2.51
  -4   8   3   12.04    3.94
   3  -8  -3  259.74    8.92
  -3  -8   3  251.55    9.84
   3  -8  -3  263.28   10.74
   3  -8  -3  262.61   10.12
   3  -8  -3  257.29    9.84
  -3  -8   3  266.55   10.13
  -3  -8   3  259.22    8.41
   3  -8  -3  255.29    9.21
  -3   8   3  261.16   10.54
   3   8  -3  270.55    8.87
   3   8  -3  251.98    8.44
  -3   8   3  257.19    8.86
   3   8  -3  259.99    7.36
  -3   8   3  265.12   10.19
   3   8  -3  263.54    8.44
  -3   8   3  257.82   10.15
  -3   8   3  265.14   10.50
   3   8  -3  261.00   10.58
   2  -8  -3   15.08    2.75
   2  -8  -3    9.49    2.41
  -2  -8   3   15.90    2.38
  -2  -8   3   18.64    2.95
   2  -8  -3   11.01    2.96
   2  -8  -3   17.06    2.65
  -2  -8   3   11.86    2.65
   2  -8  -3    8.11    2.03
   2   8  -3   11.37    2.82
   2   8  -3   13.56    1.83
  -2   8   3   11.89    2.89
   2   8  -3   12.12    1.66
   2   8  -3   15.50    1.99
  -2   8   3   14.08    2.47
  -2   8   3   16.39    2.79
  -2   8   3   15.20    3.05
  -2   8   3   15.64    2.86
   2   8  -3   13.38    1.75
   2   8  -3   15.32    1.47
   2   8  -3   13.13    1.66
  -1  -8   3  277.81    9.78
   1  -8  -3  335.75   13.82
   1  -8  -3  268.61   10.46
   1  -8  -3  287.33    9.48
   1  -8  -3  294.23    9.72
  -1  -8   3  290.13    9.94
   1  -8  -3  293.75    9.26
   1  -8  -3  273.55   10.37
   1  -8  -3  286.22   10.11
  -1  -8   3  287.15    9.85
   1   8  -3  279.44    8.13
   1   8  -3  272.32    7.98
  -1   8   3  269.33   10.08
  -1   8   3  293.06    9.91
  -1   8   3  273.84   10.16
   1   8  -3  289.08    7.99
  -1   8   3  287.38   10.59
   1   8  -3  274.04   10.42
  -1   8   3  279.00   10.31
  -1   8   3  278.03   10.23
   1   8  -3  289.64    9.36
   0  -8  -3   -0.05    1.99
   0  -8  -3   -1.11    1.18
   0  -8  -3   -0.19    1.90
   0  -8  -3    0.93    3.94
   0  -8   3   -0.14    1.84
   0  -8   3    0.76    1.93
   0  -8  -3    1.86    1.92
   0  -8  -3    1.72    1.59
   0  -8   3   -0.24    1.85
   0  -8  -3   -5.25    2.65
   0  -8  -3    2.08    2.08
   0   8   3    2.74    2.48
   0   8   3    0.69    1.92
   0   8  -3    0.99    0.89
   0   8   3    4.69    2.55
   0   8  -3    1.32    0.90
   0   8  -3   -0.65    1.45
   0   8   3    8.35    2.70
   0   8   3   -1.67    1.78
   0   8  -3    0.43    1.02
   0   8   3    1.56    1.96
   0   8  -3   -0.19    1.60
  -1  -8  -3  139.97    6.12
   1  -8   3  139.63    7.13
  -1  -8  -3  141.63    6.63
  -1  -8  -3  140.23    6.90
  -1  -8  -3  129.08    6.61
  -1  -8  -3  148.28    6.43
  -1  -8  -3  143.16    6.15
  -1  -8  -3  141.25    4.34
  -1   8  -3  151.35    4.95
   1   8   3  135.23    6.45
  -1   8  -3  142.11    4.95
  -1   8  -3  139.41    4.74
   1   8   3  154.16    7.24
  -1   8  -3  142.17    5.09
  -1   8  -3  147.40    5.29
   1   8   3  121.59    7.14
   1   8   3  149.12    7.06
  -1   8  -3  145.60    5.19
   1   8   3  140.89    6.85
  -1   8  -3  134.73    6.65
  -1   8  -3  145.42    6.36
   1   8   3  134.47    7.27
  -2  -8  -3   34.38    3.84
  -2  -8  -3   34.84    4.32
  -2  -8  -3   37.84    4.09
  -2  -8  -3   32.85    3.15
   2  -8   3   32.55    1.90
  -2  -8  -3   34.57    3.84
   2  -8   3   34.70    4.41
  -2  -8  -3   30.48    3.70
   2  -8   3   33.88    1.44
  -2   8  -3   31.61    3.42
  -2   8  -3   33.79    4.18
   2   8   3   36.60    4.50
  -2   8  -3   33.94    4.23
  -2   8  -3   37.72    3.65
  -2   8  -3   33.65    3.05
   2   8   3   26.67    3.56
   2   8   3   36.38    4.27
  -2   8  -3   32.26    2.87
   2   8   3   32.86    4.19
  -3  -8  -3   56.59    5.42
  -3  -8  -3   51.16    4.51
  -3  -8  -3   50.45    3.29
   3  -8   3   49.63    3.77
  -3  -8  -3   56.09    5.08
   3  -8   3   55.04    5.05
   3  -8   3   53.48    3.11
  -3  -8  -3   53.94    5.11
  -3  -8  -3   48.58    5.57
   3   8   3   56.42    5.79
   3   8   3   58.07    6.33
   3   8   3   44.24    5.16
  -3   8  -3   56.37    3.98
   3   8   3   51.10    5.42
  -3   8  -3   47.92    5.07
  -3   8  -3   50.38    4.16
  -3   8  -3   55.02    4.50
  -3   8  -3   58.60    5.82
  -3   8  -3   58.51    5.48
  -4  -8  -3   24.25    4.58
  -4  -8  -3   23.49    3.92
   4  -8   3   27.49    4.50
  -4  -8  -3   23.07    5.12
  -4  -8  -3   14.43    3.70
  -4  -8  -3   28.33    3.81
  -4   8  -3   20.66    4.75
  -4   8  -3   23.09    3.54
  -4   8  -3   23.87    3.35
   4   8   3   19.59    4.25
   4   8   3   22.69    4.79
  -4   8  -3   22.40    4.42
   4   8   3   19.83    4.88
   4   8   3    5.87    5.32
  -4   8  -3   20.75    3.63
  -5  -8  -3    1.96    3.45
   5  -8   3    5.57    3.38
   5  -8   3    1.61    2.83
  -5  -8  -3    6.06    3.79
   5   8   3   -5.01    4.24
  -5   8  -3   -0.19    4.86
   5   8   3   -3.62    3.92
  -5   8  -3    3.30    4.18
  -5   8  -3   -0.90    3.08
  -5   8  -3    0.15    3.18
  -6  -8  -3   28.00    5.95
  -6  -8  -3   27.97    4.91
   6  -8   3   30.96    5.34
   6   8   3   20.31    5.79
   6   8   3   25.76    6.16
  -6   8  -3   33.37    5.98
   6   8   3   20.17    5.53
  -6   8  -3   18.89    4.57
  -6   8  -3   21.85    6.06
  -6   8  -3   18.50    5.16
  -7  -8  -3    4.44    3.70
  -7  -8  -3   -3.09    7.46
  -7  -8  -3    6.33    4.94
   7  -8   3   19.91    4.91
  -7   8  -3   10.45    6.44
  -7   8  -3   14.79    6.14
  -7   8  -3    2.93    5.32
  -7   8  -3   -2.01    5.64
   7   8   3    2.41    5.56
   7   8   3   13.35    6.88
   7   8   3   -1.23    5.95
  -7  -9   3    0.18    3.63
   7  -9  -3    5.81    4.47
   7  -9  -3    6.50    4.38
   7  -9  -3   -2.59    5.94
  -7   9   3   12.73    5.41
  -7   9   3   11.24    5.36
  -7   9   3    4.80    5.56
   7   9  -3    3.87    5.91
   7   9  -3    9.64    8.37
   7   9  -3    9.77    4.46
   6  -9  -3    9.56    3.75
   6  -9  -3   11.20    4.47
  -6  -9   3   12.03    3.80
   6  -9  -3    6.00    4.13
  -6  -9   3    9.66    3.79
   6   9  -3    2.51    4.69
  -6   9   3   11.50    4.42
  -6   9   3    7.07    4.85
   6   9  -3   11.87    3.55
  -6   9   3   10.83    4.78
   6   9  -3    7.85    4.22
   5  -9  -3   -3.46    3.39
  -5  -9   3    7.34    4.52
  -5  -9   3    4.15    3.23
   5  -9  -3    1.29    3.31
  -5   9   3   -5.28    4.72
  -5   9   3    3.17    7.04
   5   9  -3    1.13    2.91
   5   9  -3   -1.59    4.25
  -5   9   3    7.07    4.24
   5   9  -3    5.59    3.50
  -4  -9   3   38.17    4.80
  -4  -9   3   46.00    2.62
   4  -9  -3   51.12    4.60
   4  -9  -3   60.74    5.85
   4  -9  -3   44.73    5.95
   4  -9  -3   51.49    5.83
  -4  -9   3   46.12    5.12
   4   9  -3   51.32    6.34
  -4   9   3   55.04    4.14
  -4   9   3   63.35    4.65
  -4   9   3   53.48    5.86
   4   9  -3   52.87    4.28
   4   9  -3   59.47    4.83
  -4   9   3   46.03    6.22
  -4   9   3   50.30    6.28
   4   9  -3   45.66    4.37
  -4   9   3   47.78    6.31
   3  -9  -3    1.40    2.50
  -3  -9   3    3.95    2.75
  -3  -9   3    2.90    1.87
  -3  -9   3    2.69    2.56
   3  -9  -3    2.31    2.08
   3  -9  -3    3.56    2.83
   3  -9  -3    3.78    2.98
   3  -9  -3    2.60    3.40
   3   9  -3    3.11    1.68
   3   9  -3    5.41    1.88
  -3   9   3    8.33    4.00
  -3   9   3   -0.35    2.58
  -3   9   3    3.64    2.56
  -3   9   3    2.87    3.21
   3   9  -3    7.87    3.23
  -3   9   3    5.14    2.51
   3   9  -3    4.91    1.92
   3   9  -3    3.03    2.83
   2  -9  -3  132.87    6.34
   2  -9  -3  123.82    7.07
  -2  -9   3  134.24    6.50
   2  -9  -3  126.41    6.53
   2  -9  -3  127.74    5.78
  -2  -9   3  118.70    6.46
   2  -9  -3  113.64    6.32
  -2  -9   3  135.28    5.94
  -2   9   3  125.05    6.24
   2   9  -3  133.16    4.80
  -2   9   3  126.13    7.49
   2   9  -3  117.49    5.77
   2   9  -3  118.31    6.93
   2   9  -3  129.75    4.89
  -2   9   3  116.57    6.60
  -2   9   3  121.03    6.89
   2   9  -3  124.24    5.23
   2   9  -3  124.12    5.39
  -2   9   3  127.01    7.13
   1  -9  -3    1.09    1.73
   1  -9  -3   -0.65    2.33
  -1  -9   3    1.69    2.11
   1  -9  -3   -3.02    2.29
  -1  -9   3   -0.25    2.26
   1  -9  -3   -3.37    2.25
   1  -9  -3   -0.37    1.82
  -1  -9   3    1.47    2.11
   1   9  -3    1.13    1.35
   1   9  -3    0.72    1.04
  -1   9   3    3.18    2.45
   1   9  -3    1.02    1.25
   1   9  -3    2.62    2.56
  -1   9   3    3.86    2.31
   1   9  -3    1.25    1.04
  -1   9   3   -1.58    2.38
  -1   9   3    1.74    2.93
  -1   9   3    6.68    3.16
   1   9  -3    5.39    1.84
   0  -9  -3  312.57    9.05
   0  -9  -3  309.55   11.73
   0  -9  -3  301.14   10.16
   0  -9   3  308.60   10.93
   0  -9  -3  316.81   11.15
   0  -9   3  313.60   11.42
   0  -9  -3  327.42   10.50
   0  -9  -3  306.09   11.12
   0   9  -3  321.23    9.02
   0   9   3  327.64   11.75
   0   9  -3  311.14    9.92
   0   9  -3  317.43   10.22
   0   9  -3  308.51   10.96
   0   9  -3  324.67    9.39
   0   9  -3  303.17    8.90
   0   9  -3  314.45    9.26
   0   9   3  313.49   11.49
   0   9   3  305.39   11.28
   0   9   3  291.89   11.53
   0   9   3  304.43   11.30
  -1  -9  -3    0.31    2.23
   1  -9   3    2.76    2.07
  -1  -9  -3   -1.46    3.51
  -1  -9  -3    2.09    2.06
  -1  -9  -3    6.93    2.08
  -1  -9  -3   -3.32    2.39
  -1  -9  -3    4.98    2.45
   1   9   3   -0.27    2.22
   1   9   3    1.40    2.22
  -1   9  -3    1.19    1.60
  -1   9  -3    2.12    1.41
  -1   9  -3   -0.02    1.44
  -1   9  -3    1.44    1.25
   1   9   3    8.07    3.28
   1   9   3   -0.43    2.47
  -1   9  -3    2.31    1.93
   1   9   3    2.52    2.43
  -1   9  -3    3.00    1.98
  -1   9  -3    0.68    2.26
  -2  -9  -3  160.61    6.78
  -2  -9  -3  145.89    7.75
  -2  -9  -3  132.22    7.78
   2  -9   3  140.67    7.67
  -2  -9  -3  142.84    6.07
  -2  -9  -3  144.47    7.29
  -2   9  -3  152.39    6.17
   2   9   3  146.69    7.66
  -2   9  -3  139.83    5.97
   2   9   3  147.54    8.26
  -2   9  -3  158.27    6.84
   2   9   3  140.02    8.56
  -2   9  -3  149.31    7.87
  -2   9  -3  145.51    5.79
   2   9   3  137.17    7.77
  -2   9  -3  139.54    7.27
  -3  -9  -3    3.94    2.41
  -3  -9  -3    0.78    3.82
  -3  -9  -3    3.22    2.75
   3  -9   3   -0.52    1.76
  -3  -9  -3   -3.01    3.48
   3  -9   3    3.33    2.89
  -3  -9  -3    4.54    1.86
   3  -9   3    2.66    1.48
  -3   9  -3    0.02    2.93
   3   9   3   10.28    5.05
   3   9   3    4.61    4.04
  -3   9  -3   -3.62    3.28
  -3   9  -3    7.31    2.51
   3   9   3   -3.21    3.30
  -3   9  -3    1.99    2.56
   3   9   3    5.18    3.52
  -3   9  -3    1.30    2.05
  -4  -9  -3   53.72    5.38
  -4  -9  -3   54.26    6.21
   4  -9   3   44.85    5.12
   4  -9   3   51.02    5.66
  -4   9  -3   46.30    5.53
  -4   9  -3   52.09    5.31
   4   9   3   36.22    6.49
   4   9   3   44.04    6.22
  -4   9  -3   38.23    5.56
   5  -9   3   18.78    4.47
  -5  -9  -3   15.98    4.71
  -5  -9  -3   17.53    4.88
  -5  -9  -3   12.43    3.55
   5   9   3   28.60    5.30
   5   9   3   17.23    5.21
  -5   9  -3   21.53    4.68
   5   9   3   12.77    4.87
  -5   9  -3   16.96    3.68
  -5   9  -3   29.72    5.45
  -5   9  -3   10.22    5.34
   6  -9   3    9.35    4.08
  -6  -9  -3   -0.02    5.92
  -6  -9  -3    0.13    3.04
  -6  -9  -3   -1.47    4.53
  -6   9  -3    8.50    5.40
  -6   9  -3   -5.68    3.92
  -6   9  -3    7.54    5.95
   6   9   3    5.79    5.86
   6   9   3    8.68    5.53
   6   9   3   -3.93    4.87
  -6   9  -3   -3.92    5.16
  -7 -10   3   -4.53    3.49
   7 -10  -3   -2.86    4.34
   7  10  -3    1.54    6.82
  -7  10   3   -2.74    6.33
  -7  10   3   -0.35    6.05
   7  10  -3    1.95    5.90
   7  10  -3   -5.00    4.57
  -7  10   3   -7.78    5.30
  -6 -10   3  112.25    8.46
   6 -10  -3  125.21    9.35
   6 -10  -3  116.26   10.01
   6  10  -3  120.82   10.14
   6  10  -3   97.04    7.77
   6  10  -3  116.16   10.05
  -6  10   3  134.60   10.58
  -6  10   3  108.46    9.54
  -6  10   3  123.39    9.95
  -5 -10   3    3.45    3.18
   5 -10  -3    3.83    3.72
   5 -10  -3    4.29    3.88
   5 -10  -3    7.40    4.09
  -5  10   3    8.87    4.28
  -5  10   3    5.31    4.64
   5  10  -3    8.33    4.57
   5  10  -3    6.30    3.42
  -5  10   3    6.71    4.60
   4 -10  -3   79.17    5.33
  -4 -10   3   65.58    6.10
   4 -10  -3   63.72    6.53
  -4 -10   3   66.73    6.57
   4 -10  -3   66.66    6.43
   4  10  -3   70.61    5.46
  -4  10   3   84.26    8.02
  -4  10   3   71.10    7.12
   4  10  -3   69.14    8.46
   4  10  -3   74.09    5.31
  -4  10   3   60.82    7.60
   3 -10  -3   36.17    3.99
  -3 -10   3   37.70    4.91
   3 -10  -3   23.27    3.64
  -3 -10   3   34.52    3.68
   3 -10  -3   30.33    4.40
   3 -10  -3   31.93    4.89
  -3 -10   3   28.93    4.01
   3 -10  -3   31.94    4.18
  -3  10   3   32.71    3.87
  -3  10   3   36.01    5.44
   3  10  -3   29.46    5.65
   3  10  -3   31.12    3.16
  -3  10   3   31.92    4.89
   3  10  -3   32.70    3.40
  -3  10   3   45.27    6.07
   3  10  -3   34.45    3.84
   3  10  -3   23.18    4.05
  -3  10   3   34.08    4.66
  -2 -10   3    6.30    2.57
   2 -10  -3    2.08    2.02
   2 -10  -3    1.69    2.62
  -2 -10   3    7.35    2.88
   2 -10  -3    2.61    2.89
   2 -10  -3    0.75    3.06
   2 -10  -3    9.56    3.07
  -2  10   3   -2.98    3.28
  -2  10   3    2.74    3.15
  -2  10   3    3.32    4.26
   2  10  -3    6.61    2.86
   2  10  -3    7.09    1.70
   2  10  -3    0.48    1.84
  -2  10   3    2.74    2.91
   2  10  -3    2.20    1.83
  -2  10   3    7.09    3.79
   2  10  -3    5.22    3.44
   2  10  -3    5.27    1.64
  -1 -10   3   51.19    4.76
   1 -10  -3   45.98    4.12
   1 -10  -3   46.87    4.94
   1 -10  -3   39.48    4.74
   1 -10  -3   52.74    5.24
  -1 -10   3   53.22    4.88
   1 -10  -3   43.56    3.88
   1  10  -3   39.35    4.14
  -1  10   3   46.75    5.23
   1  10  -3   39.57    3.35
  -1  10   3   40.39    5.03
  -1  10   3   43.71    5.38
   1  10  -3   51.06    3.00
   1  10  -3   54.81    5.90
   1  10  -3   49.51    4.29
  -1  10   3   49.14    5.45
  -1  10   3   37.36    4.78
   1  10  -3   51.76    2.98
   1  10  -3   46.93    2.50
   1  10  -3   49.18    5.52
   0 -10  -3   22.25    4.63
   0 -10  -3   24.90    3.32
   0 -10  -3   23.66    4.03
   0 -10  -3   27.59    3.77
   0 -10  -3   19.12    2.19
   0 -10  -3   20.68    2.74
   0 -10   3   23.57    3.47
   0  10  -3   18.08    2.40
   0  10  -3   20.89    2.75
   0  10  -3   25.92    2.92
   0  10  -3   29.99    3.42
   0  10   3   23.19    3.66
   0  10  -3   19.58    2.41
   0  10   3   20.09    3.67
   0  10   3   20.94    3.68
   0  10  -3   17.75    3.06
   0  10  -3   26.53    2.43
   0  10   3   26.99    4.75
  -1 -10  -3   64.74    5.61
   1 -10   3   71.35    5.62
  -1 -10  -3   74.62    5.35
  -1 -10  -3   65.03    4.54
  -1 -10  -3   56.17    4.88
   1  10   3   72.46    6.58
  -1  10  -3   65.62    3.55
  -1  10  -3   61.55    3.86
   1  10   3   70.36    5.52
   1  10   3   60.57    5.77
  -1  10  -3   65.15    5.86
   1  10   3   75.57    7.82
  -1  10  -3   67.12    4.19
  -1  10  -3   70.13    4.83
  -1  10  -3   63.73    4.77
  -1  10  -3   67.89    3.79
   1  10   3   73.46    6.99
  -1  10  -3   72.88    5.22
  -2 -10  -3   66.00    5.97
  -2 -10  -3   76.68    4.71
  -2 -10  -3   69.76    4.86
   2 -10   3   53.27    5.89
  -2 -10  -3   68.74    6.14
  -2 -10  -3   69.51    5.99
  -2  10  -3   62.48    5.57
   2  10   3   66.90    6.68
  -2  10  -3   64.46    4.62
  -2  10  -3   78.82    6.26
   2  10   3   64.81    6.73
  -2  10  -3   65.85    7.13
   2  10   3   67.55    8.53
   2  10   3   65.94    7.72
  -2  10  -3   63.82    4.00
  -2  10  -3   70.01    4.67
  -3 -10  -3   44.03    3.58
   3 -10   3   37.50    5.14
  -3 -10  -3   33.66    5.13
  -3 -10  -3   28.70    4.51
  -3 -10  -3   35.87    4.69
  -3  10  -3   38.59    4.63
  -3  10  -3   39.39    5.75
   3  10   3   30.79    6.08
  -3  10  -3   39.72    5.00
  -3  10  -3   35.72    3.89
   3  10   3   43.43    5.78
  -4 -10  -3   50.31    6.18
   4 -10   3   57.04    6.33
  -4 -10  -3   85.01    7.36
  -4 -10  -3   54.32    6.05
   4  10   3   62.97    7.46
  -4  10  -3   61.79    6.13
  -4  10  -3   55.51    6.89
   4  10   3   47.67    6.23
  -4  10  -3   58.30    7.07
   4  10   3   62.58    7.56
  -5 -10  -3    9.41    5.15
  -5 -10  -3   -0.93    4.63
   5 -10   3    4.98    3.50
  -5 -10  -3    2.66    3.35
  -5  10  -3   -0.40    4.81
   5  10   3   11.03    5.56
  -5  10  -3    1.97    3.81
  -5  10  -3   -0.44    5.12
   5  10   3    1.52    4.59
   5  10   3    1.54    4.89
  -5  10  -3   -7.20    4.96
  -6 -10  -3   76.16    8.68
  -6 -10  -3   71.71    7.38
   6 -10   3   93.04    8.82
   6  10   3   72.48    8.65
  -6  10  -3   70.55    7.92
  -6  10  -3   91.89   11.76
  -6  10  -3   74.69    9.17
   6  10   3   88.54    9.50
  -6  10  -3   82.67    8.73
   6  10   3   65.81    9.16
  -6 -11   3    5.80    4.00
   6 -11  -3   -1.41    5.64
   6 -11  -3   -2.69    4.43
  -6  11   3    2.56    5.86
   6  11  -3    0.80    4.16
   6  11  -3    4.24    6.25
  -6  11   3    0.19    6.36
  -6  11   3    8.06    5.57
   5 -11  -3   58.40    6.46
  -5 -11   3   59.46    6.78
   5 -11  -3   63.45   10.82
   5 -11  -3   74.05    7.85
   5  11  -3   62.87    7.96
   5  11  -3   83.90    8.29
   5  11  -3   52.94    6.18
  -5  11   3   63.70    7.68
  -5  11   3   89.62    8.65
  -5  11   3   68.71    7.62
   4 -11  -3    5.46    2.84
  -4 -11   3   -3.17    2.89
   4 -11  -3    6.27    4.28
   4 -11  -3    2.83    3.74
   4  11  -3    1.01    3.02
   4  11  -3    9.27    4.84
  -4  11   3    1.25    4.20
  -4  11   3    9.24    4.72
  -4  11   3   -2.03    3.75
   4  11  -3    5.03    3.51
   3 -11  -3   32.20    4.19
  -3 -11   3   33.65    4.34
   3 -11  -3   41.86    5.13
   3 -11  -3   37.84    5.22
   3  11  -3   25.86    6.05
   3  11  -3   44.94    3.61
   3  11  -3   44.64    4.31
  -3  11   3   42.69    6.08
  -3  11   3   37.47    5.85
   3  11  -3   38.44    4.99
  -3  11   3   41.15    5.12
  -2 -11   3   10.03    2.99
   2 -11  -3    3.03    2.31
  -2 -11   3    9.80    3.20
   2 -11  -3   -0.12    2.87
   2 -11  -3    3.10    3.22
   2  11  -3    1.58    1.78
  -2  11   3    8.11    4.00
  -2  11   3    0.47    3.52
   2  11  -3    1.73    2.30
   2  11  -3    2.14    2.01
   2  11  -3    2.56    2.15
   2  11  -3    5.19    4.24
  -2  11   3   10.01    4.81
   1 -11  -3   11.45    2.43
  -1 -11   3   13.36    3.10
   1 -11  -3   11.62    3.64
   1 -11  -3   15.83    3.60
   1  11  -3   16.40    2.02
   1  11  -3    9.98    5.72
   1  11  -3   11.63    4.71
  -1  11   3   12.58    4.06
   1  11  -3   13.34    2.61
   1  11  -3   13.78    2.10
  -1  11   3   11.23    4.58
   1  11  -3   15.77    2.94
   0 -11  -3    2.55    2.74
   0 -11  -3    2.00    3.01
   0 -11  -3    4.96    2.15
   0 -11   3    1.31    2.43
   0 -11  -3    2.92    3.13
   0  11   3    7.28    3.85
   0  11  -3    1.63    1.87
   0  11  -3    6.88    2.26
   0  11  -3    7.72    2.24
   0  11  -3    5.37    1.63
   0  11  -3    3.21    2.81
   0  11   3    4.80    3.58
  -1 -11  -3    8.00    3.26
  -1 -11  -3    4.77    2.33
  -1 -11  -3   -2.37    2.51
   1 -11   3    6.93    3.20
  -1 -11  -3   -0.93    3.10
   1  11   3    5.17    5.56
  -1  11  -3    4.56    3.64
   1  11   3    4.39    3.98
  -1  11  -3   -0.38    2.13
  -1  11  -3    1.45    1.74
   1  11   3    5.02    4.09
   1  11   3    0.85    3.08
  -1  11  -3    2.70    2.32
  -1  11  -3    6.73    2.55
   2 -11   3   -0.35    2.91
  -2 -11  -3    9.80    2.94
  -2 -11  -3    4.68    2.94
  -2 -11  -3    7.54    3.78
  -2 -11  -3    9.42    2.67
  -2  11  -3   -0.43    4.26
   2  11   3    7.38    3.76
  -2  11  -3    5.60    3.16
   2  11   3    2.36    4.09
   2  11   3    5.17    4.43
  -2  11  -3    8.62    2.50
  -2  11  -3    3.60    2.90
  -3 -11  -3   80.59    7.88
  -3 -11  -3   88.83    5.78
   3 -11   3  103.02    7.61
  -3 -11  -3   81.59    6.79
  -3  11  -3   96.64    8.19
   3  11   3   87.74    9.55
  -3  11  -3   98.81    6.36
   3  11   3   75.96    8.64
  -3  11  -3   86.95    8.94
   3  11   3   98.96    8.07
  -3  11  -3  101.75    6.88
   4 -11   3   19.62    5.08
  -4 -11  -3   15.49    4.34
  -4 -11  -3   14.33    3.63
  -4  11  -3   17.75    5.18
   4  11   3   15.05    5.02
  -4  11  -3   15.04    7.15
   4  11   3   21.74    5.70
   4  11   3    6.47    5.53
  -4  11  -3   25.81    5.82
  -4  11  -3   12.08    3.83
  -5 -11  -3  155.78    9.85
   5 -11   3  150.47   10.57
  -5  11  -3  148.40   11.97
   5  11   3  170.65   13.28
  -5  11  -3  180.25   15.31
   5  11   3  162.12   11.90
   5  11   3  134.83   12.21
  -5  11  -3  152.70    9.35
  -5  11  -3  163.84   12.34
  -5 -12   3   25.42    5.13
   5 -12  -3   38.60    6.18
  -5  12   3   32.79    6.28
  -5  12   3   34.70    7.44
   5  12  -3   40.54    8.14
   5  12  -3   30.19    4.53
  -5  12   3   42.51    7.36
   4 -12  -3   13.23    4.60
  -4 -12   3   16.41    4.25
   4  12  -3   16.85    6.69
   4  12  -3   14.82    3.36
  -4  12   3    5.98    5.19
  -4  12   3   12.93    5.89
  -4  12   3    9.60    5.35
   4  12  -3   18.36    4.63
   3 -12  -3   89.66    7.82
  -3 -12   3   82.42    6.72
  -3 -12   3   82.27    5.99
   3  12  -3   80.45    9.61
   3  12  -3   87.06    6.05
   3  12  -3   93.92    7.20
  -3  12   3  103.68    8.74
  -3  12   3   94.95    9.08
  -3  12   3   91.14    7.92
   2 -12  -3    2.97    3.49
  -2 -12   3    3.76    3.17
  -2 -12   3    8.52    3.01
   2  12  -3   10.76    3.12
   2  12  -3   12.09    5.22
  -2  12   3    3.66    4.50
  -2  12   3    6.45    3.59
   2  12  -3    4.43    2.48
  -2  12   3    2.51    8.23
   2  12  -3    1.44    3.21
  -1 -12   3  115.67    7.11
  -1 -12   3  116.53    7.32
   1 -12  -3  128.20    7.79
   1 -12  -3  117.19    8.55
   1  12  -3  106.13    6.32
  -1  12   3  107.64    9.91
   1  12  -3  119.95    9.49
   1  12  -3  105.62    5.09
  -1  12   3   98.43    8.80
   1  12  -3  107.70    6.80
  -1  12   3  106.92    8.05
   0 -12   3   -1.19    3.04
   0 -12  -3    6.19    4.34
   0 -12  -3   -1.87    2.92
   0  12  -3    2.10    2.89
   0  12  -3   -3.38    4.42
   0  12   3    4.65    5.12
   0  12   3   -3.49    3.99
   0  12  -3   -4.35    3.67
   0  12   3   -6.63    3.34
   0  12  -3   -0.08    2.01
  -1 -12  -3   83.05    7.20
   1 -12   3   76.68    7.01
  -1 -12  -3   96.14    6.34
  -1  12  -3   67.61    8.23
  -1  12  -3   82.83    5.05
  -1  12  -3   83.15    6.09
   1  12   3   85.89    7.55
   1  12   3   70.73    8.19
   1  12   3   87.03    8.22
  -1  12  -3   81.02    5.96
  -2 -12  -3   15.11    4.05
   2 -12   3   22.53    4.70
   2  12   3   10.14    4.49
   2  12   3   15.73    4.96
  -2  12  -3   13.40    3.14
  -2  12  -3   13.44    4.81
  -2  12  -3   14.15    4.08
   2  12   3   12.64    5.29
  -2  12  -3   25.04    4.09
  -3 -12  -3   30.91    5.23
   3 -12   3   24.41    4.91
   3  12   3   31.90    6.30
  -3  12  -3   28.34    5.17
  -3  12  -3   25.49    3.71
   3  12   3   28.12    6.80
   3  12   3   30.94    6.22
  -3  12  -3   22.60    5.67
  -3  12  -3   34.86    6.81
   4 -12   3   41.69    6.10
  -4 -12  -3   53.47    6.55
   4  12   3   23.05    6.88
  -4  12  -3   42.83    7.31
   4  12   3   27.23    8.06
  -4  12  -3   43.65    7.59
  -4  12  -3   48.23    7.12
   4  12   3   50.32    7.08
  -4  12  -3   58.19    6.53
   4  13  -3   28.90    7.92
  -3 -13   3    2.54    3.62
   3 -13  -3   -4.75    4.19
  -3  13   3    3.70    6.22
  -3  13   3    5.94    5.22
  -3  13   3    3.74    5.03
   3  13  -3   -1.79    6.66
   3  13  -3    4.22    3.08
  -2 -13   3   96.70    7.09
  -2 -13   3  100.90    7.43
   2 -13  -3  100.08    8.15
  -2  13   3  125.15   10.49
  -2  13   3   97.57    9.58
  -2  13   3   90.84    9.11
   2  13  -3   86.95    9.97
   2  13  -3  103.77    7.04
   1 -13  -3    2.66    3.67
  -1 -13   3   -4.61    3.48
  -1  13   3   -5.96    4.74
  -1  13   3    1.07    4.33
   1  13  -3    2.19    5.60
   1  13  -3    1.02    4.72
  -1  13   3   -0.40    4.55
   1  13  -3    3.60    2.91
   0 -13  -3  107.58    7.76
   0 -13   3  114.26    8.29
   0  13   3  104.99    9.31
   0  13   3  100.26   10.82
   0  13  -3  116.58   10.74
   0  13   3  106.31    9.51
   0  13   3  110.63    8.98
   0  13  -3  104.64    5.96
  -1 -13  -3   -2.14    3.49
  -1 -13  -3    5.14    3.58
   1 -13   3    4.68    3.74
   1  13   3    8.65    5.78
   1  13   3   11.38    5.47
   1  13   3    1.01    4.90
  -1  13  -3   -5.55    4.59
   1  13   3    2.34    4.52
  -2 -13  -3  104.85    8.40
   2 -13   3   93.58    8.65
   2  13   3  105.20   10.20
  -2  13  -3   84.65   10.08
  -2  13  -3   96.95    6.05
   2  13   3  117.81    9.92
   2  13   3  117.70   11.79
  -3 -13  -3    1.64    3.73
   3  13   3   -7.95    6.51
 -10   0   4  131.60    8.06
  10   0  -4  135.77   12.40
 -10   0   4  125.94   11.27
 -10   0   4  126.30    9.28
 -10   0   4  155.55   13.40
  10   0  -4  109.95   11.09
  10   0  -4  117.10   12.14
   9   0  -4    1.75    4.98
   9   0  -4    1.92    3.62
   9   0  -4   -1.79    4.61
  -9   0   4   -0.46    2.84
  -9   0   4    4.02    4.35
  -9   0   4   14.19    6.33
  -9   0   4   -2.96    2.89
  -8   0   4  170.37    9.79
   8   0  -4  160.60    9.79
   8   0  -4  166.31    7.42
   8   0  -4  169.10   10.48
  -8   0   4  176.57    9.42
  -8   0   4  181.73    8.16
   8   0  -4  160.70   10.32
  -8   0   4  178.46    7.09
   8   0  -4  176.92    9.43
  -7   0   4    1.84    2.47
   7   0  -4   -0.48    2.98
  -7   0   4   -2.34    3.71
  -7   0   4   -1.91    1.57
  -7   0   4    0.74    2.05
   7   0  -4   -2.45    2.13
   7   0  -4    4.37    3.02
   7   0  -4   -3.41    2.73
   7   0  -4    4.42    4.31
   7   0  -4   -0.28    1.93
  -7   0   4    6.06    3.01
  -6   0   4  157.29    7.39
   6   0  -4  158.38    7.61
   6   0  -4  158.94    7.52
  -6   0   4  156.22    7.31
   6   0  -4  149.93    7.26
   6   0  -4  159.77    7.68
  -6   0   4  156.25    5.95
   6   0  -4  151.92    8.00
   6   0  -4  164.34    7.92
  -6   0   4  142.09    6.91
  -6   0   4  151.41    6.72
  -6   0   4  149.33    8.18
   5   0  -4   -1.61    1.64
  -5   0   4   -2.54    2.03
   5   0  -4   -0.43    2.04
  -5   0   4   -0.94    1.64
  -5   0   4    5.34    2.20
  -5   0   4   -0.32    1.91
   5   0  -4   -1.43    1.65
   5   0  -4   -0.38    1.70
  -5   0   4    2.41    1.72
  -5   0   4    2.29    2.02
   5   0  -4    0.41    1.40
   5   0  -4    4.84    2.14
   5   0  -4    0.92    1.75
  -4   0   4   22.88    2.59
   4   0  -4   19.90    1.97
  -4   0   4   15.52    2.46
   4   0  -4   19.86    2.62
  -4   0   4   17.76    2.23
   4   0  -4   22.95    2.70
   4   0  -4   19.00    2.45
  -4   0   4   22.27    2.71
  -4   0   4   21.03    2.48
  -4   0   4   20.43    2.51
   4   0  -4   20.81    2.68
   4   0  -4   21.94    2.83
   4   0  -4   17.76    2.36
   4   0  -4   21.77    2.76
  -4   0   4   18.11    2.31
   3   0  -4    0.64    1.34
   3   0  -4    0.13    1.19
   3   0  -4    1.36    1.12
   3   0  -4    0.58    1.15
  -3   0   4    0.78    1.10
  -3   0   4    0.03    1.13
   3   0  -4    1.16    0.94
   3   0  -4   -0.01    1.06
  -3   0   4   -0.89    1.23
  -3   0   4    0.66    1.19
   3   0  -4    0.37    1.33
  -3   0   4    0.34    1.02
  -3   0   4   -0.24    1.15
  -2   0   4  128.31    4.38
   2   0  -4  128.41    4.61
   2   0  -4  138.64    4.61
  -2   0   4  122.30    4.66
  -2   0   4  122.82    4.52
  -2   0   4  126.37    4.24
   2   0  -4  122.41    4.62
   2   0  -4  125.70    5.11
   2   0  -4  128.67    4.54
   2   0  -4  117.30    5.15
  -1   0   4    0.41    0.43
   1   0  -4    0.08    0.86
   1   0  -4    1.12    1.10
  -1   0   4   -0.04    0.66
   1   0  -4   -1.09    0.94
   1   0  -4   -0.08    0.86
   1   0  -4    0.75    0.94
  -1   0   4    1.67    0.83
  -1   0   4    0.17    1.22
   1   0  -4    0.95    0.86
  -1   0   4   -1.38    0.70
  -1   0   4    0.10    0.87
  -1   0   4    0.78    1.01
   0   0  -4  690.16   18.44
   0   0  -4  719.78   18.33
   0   0   4  698.36   18.02
   0   0   4  688.65   18.22
   0   0   4  706.32   18.62
   0   0  -4  722.57   18.44
   0   0   4  689.97   18.40
   0   0  -4  706.39   18.41
   0   0   4  715.53   18.32
   0   0  -4  692.60   18.63
   1   0   4    1.81    1.28
   1   0   4   -3.11    1.24
   1   0   4    0.23    0.81
  -1   0  -4   -0.12    0.63
  -1   0  -4   -0.32    1.07
   1   0   4   -0.04    0.63
   1   0   4   -0.09    0.95
  -1   0  -4   -1.65    0.95
  -1   0  -4   -0.23    1.01
  -1   0  -4   -0.47    1.01
  -1   0  -4   -0.67    1.24
   1   0   4    0.21    0.99
  -1   0  -4   -0.35    0.66
   1   0   4   -0.19    1.04
  -2   0  -4  357.12   11.00
  -2   0  -4  385.38   11.30
   2   0   4  365.47   11.25
  -2   0  -4  369.90   11.25
  -2   0  -4  353.67   11.25
   2   0   4  361.70   11.05
   2   0   4  379.00   10.73
   2   0   4  373.15   11.24
  -2   0  -4  363.48   10.10
   2   0   4  381.44   11.07
   2   0   4  364.16   10.60
  -2   0  -4  380.97   10.69
  -2   0  -4  364.19   11.40
   3   0   4   -0.65    1.36
   3   0   4    2.26    1.38
  -3   0  -4   -1.63    1.64
  -3   0  -4    4.04    1.89
  -3   0  -4    0.01    1.39
  -3   0  -4    0.76    1.50
   3   0   4    2.87    1.65
  -3   0  -4    1.91    1.69
   3   0   4   -0.03    1.59
   3   0   4   -3.15    1.28
   3   0   4   -0.55    1.59
  -3   0  -4    3.56    1.98
  -3   0  -4   -0.02    1.58
   4   0   4  167.14    6.87
   4   0   4  160.15    6.65
  -4   0  -4  171.86    7.32
  -4   0  -4  157.55    7.53
   4   0   4  153.07    6.91
   4   0   4  163.73    7.40
   4   0   4  163.51    7.42
  -4   0  -4  150.55    7.04
  -4   0  -4  171.76    7.74
  -4   0  -4  165.19    6.48
   4   0   4  163.27    6.45
  -4   0  -4  163.44    7.43
  -4   0  -4  162.35    7.20
   4   0   4  160.28    7.19
  -5   0  -4    1.54    2.25
  -5   0  -4   -0.90    2.21
   5   0   4    3.77    2.29
  -5   0  -4   -0.53    2.15
  -5   0  -4    0.48    2.98
   5   0   4   -4.65    2.76
   5   0   4    2.88    2.41
   5   0   4    1.87    2.28
   5   0   4    1.64    1.94
  -5   0  -4    0.98    3.34
  -5   0  -4    3.79    2.50
   5   0   4    1.34    2.62
  -6   0  -4   97.16    7.24
  -6   0  -4  103.92    7.68
  -6   0  -4  104.38    6.11
   6   0   4   95.65    7.22
   6   0   4  103.13    6.81
  -6   0  -4   97.20    6.97
   6   0   4   99.57    5.85
   6   0   4   91.58    6.62
   6   0   4  121.66    7.58
   7   0   4   -4.34    2.59
   7   0   4   -1.15    4.40
   7   0   4    3.46    4.21
  -7   0  -4   -2.70    4.06
  -7   0  -4   -0.75    2.91
  -7   0  -4   -3.79    4.70
   7   0   4    7.40    4.54
  -8   0  -4   25.49    5.96
  -8   0  -4   15.23    5.56
  -8   0  -4   27.18    5.66
   8   0   4   15.24    5.22
  -8   0  -4   17.87    3.79
  -8   0  -4   24.84    5.59
   8   0   4   18.57    3.90
  10  -1  -4   -3.22    5.44
 -10  -1   4    0.78    3.32
 -10  -1   4   -4.20    3.18
 -10  -1   4    3.56    7.22
 -10  -1   4    8.81    5.79
  10  -1  -4   -6.78    6.17
  10  -1  -4    1.97    4.19
  10  -1  -4    6.77    6.60
  10   1  -4    5.82    6.09
 -10   1   4  -16.77    6.77
  10   1  -4   -1.28    6.16
  10   1  -4    4.15    6.46
 -10   1   4   -4.06    3.33
 -10   1   4   -6.94    5.46
  -9  -1   4   36.56    6.64
   9  -1  -4   49.70    6.81
  -9  -1   4   28.95    5.32
  -9  -1   4   32.08    5.45
   9  -1  -4   41.34    4.76
   9  -1  -4   32.18    6.13
   9  -1  -4   24.64    5.88
  -9  -1   4   32.30    4.38
  -9   1   4   24.02    5.38
   9   1  -4   37.71    4.00
  -9   1   4   36.93    4.30
   9   1  -4   33.43    6.19
  -9   1   4   25.21    6.84
  -9   1   4   34.01    4.36
   9   1  -4   33.93    6.13
   9   1  -4   32.20    5.72
   9   1  -4   35.23    6.81
   8  -1  -4    8.34    3.64
   8  -1  -4   -0.02    3.83
  -8  -1   4   10.05    3.74
  -8  -1   4    1.79    2.00
  -8  -1   4    7.29    3.12
   8  -1  -4   13.92    5.01
   8  -1  -4   10.14    3.73
  -8  -1   4   -0.68    3.34
   8   1  -4    8.04    4.37
  -8   1   4    6.39    2.65
  -8   1   4    9.87    4.28
   8   1  -4    6.98    4.61
   8   1  -4   -0.27    2.20
  -8   1   4    6.45    3.92
  -8   1   4    6.15    2.59
   8   1  -4   14.02    4.95
   7  -1  -4   59.07    6.06
  -7  -1   4   59.60    4.89
  -7  -1   4   57.84    5.07
  -7  -1   4   75.02    5.97
   7  -1  -4   62.73    5.42
   7  -1  -4   57.57    5.87
  -7  -1   4   63.18    6.57
   7  -1  -4   58.56    4.82
   7   1  -4   66.43    4.19
   7   1  -4   60.38    6.06
   7   1  -4   62.22    5.78
  -7   1   4   66.63    5.87
  -7   1   4   60.64    4.58
   7   1  -4   58.13    5.86
  -7   1   4   71.33    5.87
   7   1  -4   73.74    7.49
  -7   1   4   66.03    4.56
   6  -1  -4   47.26    6.15
   6  -1  -4   34.29    4.43
   6  -1  -4   46.92    4.55
  -6  -1   4   38.09    3.87
   6  -1  -4   55.14    5.57
   6  -1  -4   49.12    4.44
  -6  -1   4   44.49    4.20
  -6  -1   4   38.34    2.90
  -6  -1   4   44.13    3.89
  -6  -1   4   42.53    5.06
  -6  -1   4   44.71    4.59
  -6   1   4   44.82    4.93
   6   1  -4   42.45    4.98
   6   1  -4   46.24    4.66
  -6   1   4   46.37    4.03
  -6   1   4   42.06    4.84
   6   1  -4   53.16    5.36
  -6   1   4   48.33    3.64
   6   1  -4   38.21    4.79
  -6   1   4   40.08    4.11
  -6   1   4   41.55    4.42
   6   1  -4   41.38    4.55
   5  -1  -4   56.46    3.65
   5  -1  -4   49.46    3.93
  -5  -1   4   48.77    4.38
   5  -1  -4   49.13    4.49
   5  -1  -4   64.08    4.63
  -5  -1   4   53.70    4.14
  -5  -1   4   52.51    3.63
  -5  -1   4   48.85    2.71
   5  -1  -4   51.87    4.22
  -5  -1   4   57.21    3.93
   5  -1  -4   52.32    3.87
   5  -1  -4   57.42    4.48
  -5  -1   4   50.97    4.55
  -5  -1   4   45.59    4.07
  -5   1   4   53.22    4.21
   5   1  -4   49.55    4.03
   5   1  -4   55.74    4.53
   5   1  -4   50.03    4.12
  -5   1   4   58.18    4.00
  -5   1   4   52.07    3.58
  -5   1   4   56.20    4.26
   5   1  -4   53.65    4.07
  -5   1   4   52.09    3.97
  -5   1   4   59.05    4.42
   5   1  -4   61.73    4.41
  -5   1   4   53.30    4.26
   5   1  -4   53.65    2.75
   5   1  -4   51.10    4.09
  -4  -1   4  186.37    6.78
   4  -1  -4  173.79    6.99
   4  -1  -4  191.34    6.58
   4  -1  -4  185.59    7.15
  -4  -1   4  190.17    6.53
   4  -1  -4  200.57    7.60
   4  -1  -4  189.35    7.20
  -4  -1   4  188.03    7.92
   4  -1  -4  177.78    7.18
   4  -1  -4  189.12    7.13
  -4  -1   4  190.00    5.91
  -4  -1   4  196.05    7.02
  -4  -1   4  187.91    7.15
  -4  -1   4  192.19    6.58
   4   1  -4  193.17    6.86
  -4   1   4  193.27    6.68
  -4   1   4  190.37    6.99
   4   1  -4  191.05    7.28
   4   1  -4  201.09    7.10
  -4   1   4  188.15    6.66
  -4   1   4  196.78    7.22
   4   1  -4  195.29    5.83
   4   1  -4  182.44    6.95
   4   1  -4  184.74    7.00
  -4   1   4  189.28    7.06
  -4   1   4  199.55    7.18
  -4   1   4  183.91    7.12
   4   1  -4  191.21    7.10
  -3  -1   4    9.77    1.42
   3  -1  -4    8.76    1.82
  -3  -1   4    7.26    1.80
  -3  -1   4   11.29    1.58
  -3  -1   4    7.91    1.33
   3  -1  -4    9.45    1.67
   3  -1  -4    9.52    1.88
  -3  -1   4    9.69    1.59
   3  -1  -4    8.85    1.70
  -3  -1   4   10.89    1.60
   3  -1  -4   11.79    1.97
   3  -1  -4    9.02    1.72
   3  -1  -4    9.03    1.54
  -3   1   4   12.37    1.99
  -3   1   4   10.64    1.63
   3   1  -4    9.66    1.48
   3   1  -4    7.74    1.58
   3   1  -4    8.09    1.75
  -3   1   4    7.72    1.63
   3   1  -4   10.47    1.22
   3   1  -4    8.48    1.77
   3   1  -4   12.44    1.65
   3   1  -4    9.26    1.69
  -3   1   4   12.65    1.84
  -3   1   4   10.28    2.74
   3   1  -4   10.77    1.66
  -3   1   4    6.07    1.62
  -3   1   4   12.63    2.11
   2  -1  -4  294.05    9.01
  -2  -1   4  288.42    8.12
  -2  -1   4  294.08    8.20
   2  -1  -4  287.91    8.60
  -2  -1   4  281.90    7.75
   2  -1  -4  277.95    8.65
   2  -1  -4  274.32    8.71
  -2  -1   4  281.57    8.21
  -2  -1   4  286.53    8.65
   2  -1  -4  291.50    8.69
  -2  -1   4  289.91    7.83
   2   1  -4  283.61    8.28
   2   1  -4  295.72    8.20
   2   1  -4  287.82    8.17
  -2   1   4  285.82    8.19
  -2   1   4  298.28    8.58
   2   1  -4  280.24    8.08
  -2   1   4  286.60    8.76
   2   1  -4  280.94    8.97
  -2   1   4  285.43    8.70
  -2   1   4  261.91    9.36
   2   1  -4  277.37    8.21
  -2   1   4  296.81    8.53
  -2   1   4  294.34    9.30
  -2   1   4  276.89    8.67
  -1  -1   4   13.39    1.30
  -1  -1   4   11.23    1.68
   1  -1  -4   11.04    1.94
   1  -1  -4   16.10    1.89
   1  -1  -4    9.89    1.76
  -1  -1   4   12.15    1.60
  -1  -1   4   12.40    0.92
   1  -1  -4   10.54    1.63
  -1  -1   4   13.08    1.33
   1  -1  -4   10.51    1.50
  -1  -1   4   13.03    1.03
   1  -1  -4   13.52    1.98
   1   1  -4   10.46    1.33
   1   1  -4   13.21    1.53
  -1   1   4   12.68    1.69
   1   1  -4   11.63    1.62
  -1   1   4   14.08    1.76
  -1   1   4   10.94    1.39
   1   1  -4   12.48    1.39
  -1   1   4   14.39    1.89
   1   1  -4   14.16    0.88
  -1   1   4   13.02    1.69
   1   1  -4   11.70    1.38
   0  -1  -4  318.40    9.97
   0  -1   4  300.18    7.81
   0  -1   4  287.30    9.29
   0  -1  -4  315.97    9.03
   0  -1   4  306.49    8.32
   0  -1   4  313.06    8.86
   0  -1   4  294.21    7.91
   0  -1   4  295.29    8.45
   0  -1  -4  302.39    8.92
   0  -1   4  308.23    8.71
   0  -1  -4  298.25    9.29
   0   1  -4  278.19    8.25
   0   1   4  301.67    9.00
   0   1   4  308.57    8.71
   0   1   4  288.64    8.86
   0   1   4  304.72    7.95
   0   1   4  305.75    9.05
   0   1  -4  291.90    8.42
   0   1  -4  282.84    8.43
   0   1  -4  304.87    8.45
   0   1   4  294.16    8.91
   1  -1   4  267.24    8.23
  -1  -1  -4  284.02    7.60
  -1  -1  -4  252.08    8.50
   1  -1   4  281.26    7.84
  -1  -1  -4  271.98    8.58
  -1  -1  -4  259.33    8.58
   1  -1   4  278.12    8.14
   1  -1   4  272.61    7.61
   1  -1   4  268.63    8.81
  -1  -1  -4  278.07    8.67
  -1  -1  -4  278.19    7.74
   1   1   4  277.74    8.51
  -1   1  -4  267.62    8.25
   1   1   4  273.54    8.29
  -1   1  -4  273.18    8.23
  -1   1  -4  289.03    6.95
   1   1   4  271.05    7.86
  -1   1  -4  285.65    7.64
   1   1   4  254.45    8.60
  -1   1  -4  286.86    8.30
  -1   1  -4  270.49    8.02
   1   1   4  285.76    8.79
  -2  -1  -4   14.59    1.95
  -2  -1  -4    9.34    1.89
   2  -1   4    9.11    1.67
  -2  -1  -4   15.74    2.18
  -2  -1  -4    9.55    1.64
   2  -1   4   10.40    1.61
  -2  -1  -4    8.64    1.78
  -2  -1  -4   13.15    2.19
   2  -1   4   11.06    2.10
  -2  -1  -4    9.48    1.86
  -2  -1  -4    9.38    1.68
   2  -1   4    7.72    1.36
   2  -1   4   10.48    1.40
  -2   1  -4   13.18    1.42
  -2   1  -4    8.02    1.94
  -2   1  -4    8.99    1.80
  -2   1  -4   10.18    1.56
  -2   1  -4   12.55    1.89
   2   1   4    8.39    1.61
  -2   1  -4    9.27    1.72
  -2   1  -4   11.36    1.66
   2   1   4   10.89    2.00
   2   1   4   12.73    2.14
   2   1   4   11.14    1.94
   2   1   4   12.21    1.73
   3  -1   4  383.42   11.99
  -3  -1  -4  373.87   12.25
   3  -1   4  388.11   11.80
  -3  -1  -4  398.25   12.34
   3  -1   4  372.80   11.67
  -3  -1  -4  365.34   11.88
  -3  -1  -4  390.32   11.29
   3  -1   4  373.93   11.52
   3  -1   4  365.75   11.47
   3  -1   4  353.14   12.06
  -3  -1  -4  374.33   12.27
  -3  -1  -4  398.32   11.86
  -3  -1  -4  369.14   12.01
  -3   1  -4  368.30   12.23
  -3   1  -4  384.44   12.13
   3   1   4  369.90   11.82
   3   1   4  377.66   11.57
   3   1   4  386.39   11.74
  -3   1  -4  399.13   12.15
  -3   1  -4  377.76   11.86
  -3   1  -4  389.37   11.09
   3   1   4  387.72   11.64
   3   1   4  387.58   12.11
   3   1   4  381.09   12.16
   3   1   4  372.91   12.32
  -3   1  -4  383.14   12.02
  -3   1  -4  404.68   11.77
  -4  -1  -4    3.62    1.76
   4  -1   4    2.04    1.72
  -4  -1  -4   -0.73    2.12
   4  -1   4    1.71    1.44
   4  -1   4   -0.68    1.72
  -4  -1  -4    1.51    1.80
   4  -1   4    0.55    1.81
  -4  -1  -4    5.99    2.44
   4  -1   4   -0.53    2.00
  -4  -1  -4   -0.26    2.57
   4  -1   4    0.42    1.72
   4  -1   4    2.43    2.23
  -4  -1  -4   -2.82    2.44
  -4  -1  -4    1.52    1.98
  -4   1  -4    1.48    1.89
  -4   1  -4    0.21    2.23
   4   1   4    1.10    2.43
   4   1   4    3.69    2.02
  -4   1  -4    0.44    2.05
   4   1   4    3.31    1.78
   4   1   4    1.02    1.95
  -4   1  -4    0.90    2.28
   4   1   4    3.19    2.01
  -4   1  -4    0.29    1.68
  -4   1  -4   -1.01    2.42
   4   1   4   -2.41    2.15
  -4   1  -4   -1.70    1.89
   4   1   4   -0.97    2.00
   5  -1   4  112.89    6.34
   5  -1   4  111.04    6.63
   5  -1   4  112.27    5.41
  -5  -1  -4  110.87    7.16
  -5  -1  -4  119.52    5.93
  -5  -1  -4  112.75    6.38
  -5  -1  -4  110.16    6.91
   5  -1   4  115.44    6.36
  -5  -1  -4  107.47    6.49
   5  -1   4  117.00    6.03
   5  -1   4  112.52    6.47
  -5  -1  -4  117.62    7.47
   5   1   4  112.24    6.33
  -5   1  -4  111.73    7.38
  -5   1  -4  115.34    6.88
   5   1   4  103.41    6.49
  -5   1  -4  111.48    6.88
  -5   1  -4  110.51    6.62
   5   1   4  111.16    5.45
  -5   1  -4  106.44    5.61
   5   1   4   99.32    6.49
   5   1   4  106.21    6.53
   5   1   4  106.27    6.72
  -5   1  -4  102.92    6.19
   6  -1   4   30.80    5.46
   6  -1   4   46.18    4.65
  -6  -1  -4   56.91    6.51
  -6  -1  -4   46.26    5.28
   6  -1   4   43.39    5.43
  -6  -1  -4   45.18    4.71
   6  -1   4   45.23    5.12
  -6  -1  -4   49.76    6.13
   6  -1   4   47.00    6.01
   6   1   4   40.51    4.11
   6   1   4   56.57    6.14
  -6   1  -4   54.10    4.72
  -6   1  -4   46.89    6.12
  -6   1  -4   54.59    6.24
   6   1   4   46.09    5.39
  -6   1  -4   48.30    5.57
   6   1   4   46.60    5.67
  -7  -1  -4   34.10    4.76
   7  -1   4   38.80    5.53
   7  -1   4   32.00    4.08
   7  -1   4   37.31    5.89
  -7  -1  -4   33.82    5.69
  -7  -1  -4   37.08    5.56
   7   1   4   44.98    4.72
   7   1   4   27.25    5.73
  -7   1  -4   41.91    4.92
  -7   1  -4   40.83    6.25
   7   1   4   30.34    5.74
  -7   1  -4   38.51    6.84
   8  -1   4   54.44    6.10
  -8  -1  -4   52.47    7.25
   8  -1   4   55.01    8.21
  -8  -1  -4   52.50    6.93
  -8  -1  -4   51.27    6.24
   8  -1   4   43.96    6.22
   8   1   4   37.36    6.38
  -8   1  -4   41.05    6.78
  -8   1  -4   48.55    6.45
   8   1   4   44.62    6.85
  -8   1  -4   36.00    6.51
  -8   1  -4   40.69    5.32
  -8   1  -4   48.32    6.69
   8   1   4   45.84    7.51
 -10  -2   4   15.57    8.04
 -10  -2   4    5.80    5.65
  10  -2  -4   22.88    7.03
  10  -2  -4   -3.73    5.58
  10  -2  -4   -2.87    6.37
 -10  -2   4    7.36    4.20
 -10  -2   4    2.67    3.83
  10  -2  -4   -0.49    4.15
 -10   2   4   -2.00    6.99
 -10   2   4   -1.62    3.67
 -10   2   4   -0.52    6.28
  10   2  -4    2.70    6.67
  10   2  -4    8.72    6.89
  10   2  -4   -2.44    6.18
  10   2  -4   -2.04    5.90
   9  -2  -4    3.43    4.97
   9  -2  -4   -4.30    4.78
   9  -2  -4    5.54    5.03
   9  -2  -4   -3.04    3.37
  -9  -2   4    1.46    5.09
  -9  -2   4    2.27    3.04
  -9  -2   4   -5.94    4.45
  -9  -2   4   -3.24    3.17
  -9   2   4   10.41    3.15
  -9   2   4    4.94    5.65
  -9   2   4    3.07    3.85
   9   2  -4    3.73    4.65
   9   2  -4   11.50    5.30
   9   2  -4    1.73    5.16
  -9   2   4    5.86    4.68
  -8  -2   4   -0.04    2.72
   8  -2  -4    2.18    2.89
  -8  -2   4   -6.04    3.42
   8  -2  -4    3.27    4.52
   8  -2  -4    0.20    2.62
  -8  -2   4    0.16    3.09
  -8   2   4   -0.39    2.69
  -8   2   4   -0.37    4.09
   8   2  -4   -8.75    4.35
  -8   2   4   -0.95    2.47
  -8   2   4   -5.46    3.99
   8   2  -4    0.69    2.10
   8   2  -4    3.00    4.18
  -7  -2   4   87.91    6.62
   7  -2  -4   87.08    6.06
   7  -2  -4   82.25    6.84
  -7  -2   4   89.92    5.83
  -7  -2   4   88.44    3.25
  -7  -2   4   88.84    6.13
  -7  -2   4   88.44    6.90
  -7  -2   4   77.24    5.38
   7  -2  -4   89.07    5.78
   7  -2  -4   82.40    7.01
   7   2  -4   87.51    4.44
   7   2  -4   81.07    7.72
   7   2  -4   90.45    7.18
  -7   2   4   72.29    6.47
  -7   2   4   85.68    6.78
   7   2  -4   88.46    6.35
  -7   2   4   89.04    5.14
  -7   2   4   94.21    5.57
   7   2  -4   90.55    6.80
  -6  -2   4   -0.87    1.68
   6  -2  -4    1.26    2.18
  -6  -2   4   -0.70    2.01
  -6  -2   4   -1.36    3.37
   6  -2  -4   -0.69    2.04
   6  -2  -4   -3.34    2.19
  -6  -2   4   -0.81    1.92
  -6  -2   4    1.06    2.31
  -6  -2   4    0.69    2.34
   6  -2  -4    1.50    2.43
   6  -2  -4   -1.06    1.86
  -6   2   4    0.88    3.16
  -6   2   4   -4.73    3.11
   6   2  -4    5.21    2.93
   6   2  -4   -2.01    2.04
  -6   2   4   -0.69    1.67
  -6   2   4   -1.82    2.30
   6   2  -4    2.37    2.40
   6   2  -4    1.38    2.38
  -6   2   4    2.50    2.37
  -6   2   4   -3.58    1.97
   6   2  -4   -1.37    2.72
   5  -2  -4  359.54   11.74
  -5  -2   4  349.05   11.74
  -5  -2   4  371.24   12.41
   5  -2  -4  366.72   12.52
   5  -2  -4  365.11   12.36
   5  -2  -4  363.33   12.12
   5  -2  -4  366.95   12.36
   5  -2  -4  350.71   12.00
  -5  -2   4  364.20   11.84
  -5  -2   4  364.44   11.03
  -5  -2   4  371.35   11.87
   5  -2  -4  377.72   11.47
   5   2  -4  369.09   11.85
   5   2  -4  364.82   11.71
  -5   2   4  387.98   12.51
  -5   2   4  351.22   11.97
   5   2  -4  356.17   11.91
   5   2  -4  343.68   12.26
  -5   2   4  369.53   12.11
  -5   2   4  355.29   12.14
  -5   2   4  359.21   11.51
   5   2  -4  355.90   11.85
  -5   2   4  364.88   12.28
  -5   2   4  368.56   11.41
  -4  -2   4   10.16    1.67
  -4  -2   4   13.56    1.69
   4  -2  -4   15.20    2.44
  -4  -2   4   13.75    2.44
  -4  -2   4   17.73    2.49
   4  -2  -4   16.98    2.19
  -4  -2   4   11.95    1.88
   4  -2  -4    8.84    1.88
   4  -2  -4   12.59    2.20
   4  -2  -4   15.51    2.62
   4  -2  -4   11.07    2.38
   4  -2  -4   12.09    2.14
  -4   2   4   14.54    2.38
   4   2  -4   10.52    1.98
  -4   2   4   14.22    2.19
  -4   2   4   12.31    2.05
  -4   2   4   12.49    2.39
   4   2  -4   11.32    2.05
  -4   2   4   14.72    2.08
  -4   2   4   12.57    2.20
   4   2  -4   11.43    2.26
   4   2  -4   10.44    1.87
  -4   2   4    9.50    2.22
   4   2  -4   13.65    1.98
   4   2  -4   11.98    1.30
   3  -2  -4  634.58   17.19
   3  -2  -4  623.31   17.26
   3  -2  -4  616.81   16.97
  -3  -2   4  610.05   16.93
   3  -2  -4  606.89   16.75
   3  -2  -4  609.15   17.32
   3  -2  -4  583.01   17.03
  -3  -2   4  606.36   16.88
  -3  -2   4  595.05   15.48
  -3  -2   4  623.30   16.36
  -3  -2   4  632.74   16.83
  -3  -2   4  598.29   16.18
  -3  -2   4  616.66   15.62
   3  -2  -4  617.48   17.09
  -3   2   4  619.82   16.54
   3   2  -4  601.31   16.40
   3   2  -4  592.63   16.44
  -3   2   4  583.93   16.85
   3   2  -4  589.48   16.59
   3   2  -4  629.40   16.93
  -3   2   4  596.11   16.96
   3   2  -4  584.04   16.76
  -3   2   4  623.98   17.14
   3   2  -4  610.31   15.57
  -3   2   4  642.45   16.97
  -3   2   4  574.22   17.16
  -2  -2   4    1.45    1.15
  -2  -2   4    0.45    1.28
   2  -2  -4   -0.36    1.11
   2  -2  -4    0.27    1.24
  -2  -2   4    1.00    0.85
   2  -2  -4    1.87    1.36
  -2  -2   4    0.05    0.68
   2  -2  -4    0.74    1.19
   2  -2  -4   -0.26    1.15
   2  -2  -4    2.69    1.24
   2  -2  -4    1.00    1.12
  -2   2   4    0.33    1.07
  -2   2   4    2.14    1.19
  -2   2   4    0.13    1.21
  -2   2   4   -0.57    1.11
   2   2  -4   -0.30    0.73
   2   2  -4    1.09    0.76
  -2   2   4    0.63    1.36
   2   2  -4    0.46    0.77
   2   2  -4    1.55    0.72
   2   2  -4   -0.08    0.85
   2   2  -4   -0.23    1.12
   2   2  -4    2.11    0.95
   1  -2  -4  381.89   11.09
   1  -2  -4  369.07   11.28
  -1  -2   4  398.65    9.98
  -1  -2   4  380.00   11.24
   1  -2  -4  383.14   11.24
  -1  -2   4  386.87    9.86
   1  -2  -4  366.45   11.64
  -1  -2   4  391.72    9.84
  -1  -2   4  403.44   10.90
  -1   2   4  384.39   10.88
  -1   2   4  383.01   11.15
   1   2  -4  379.95   11.00
   1   2  -4  384.55   10.06
  -1   2   4  363.26   11.78
   1   2  -4  377.06   10.05
   1   2  -4  405.08    9.97
  -1   2   4  352.44   11.19
   1   2  -4  385.24    9.91
  -1   2   4  355.06   11.55
   0  -2  -4    7.55    1.50
   0  -2  -4    9.43    1.25
   0  -2   4    7.36    0.91
   0  -2   4    8.43    1.51
   0  -2   4    6.30    1.69
   0  -2  -4    5.68    1.79
   0  -2   4    9.47    1.06
   0  -2  -4    8.16    1.67
   0  -2  -4    7.40    1.67
   0  -2  -4    5.86    1.47
   0  -2  -4    5.99    1.49
   0  -2   4    7.24    1.27
   0   2   4    6.65    1.55
   0   2  -4    6.87    0.86
   0   2   4    6.33    1.40
   0   2  -4    8.02    1.01
   0   2  -4    6.42    0.94
   0   2  -4    7.18    1.04
   0   2   4    6.46    1.40
   0   2   4    6.54    1.02
   0   2   4    6.17    1.34
   1  -2   4   94.74    3.66
  -1  -2  -4   96.01    4.46
   1  -2   4   96.14    4.62
  -1  -2  -4   87.63    4.33
  -1  -2  -4   96.55    3.73
   1  -2   4  101.87    3.68
  -1  -2  -4   95.73    4.39
   1  -2   4   94.68    2.51
  -1  -2  -4   95.59    4.54
   1  -2   4   97.01    3.66
  -1  -2  -4   92.69    4.40
  -1  -2  -4   90.08    4.23
   1  -2   4   88.20    3.83
   1   2   4  100.50    4.35
   1   2   4   91.46    4.45
   1   2   4   92.14    4.41
  -1   2  -4   88.27    3.74
  -1   2  -4   98.17    3.76
  -1   2  -4   94.83    3.53
  -1   2  -4   93.79    3.62
  -1   2  -4   94.99    3.72
   1   2   4   97.81    4.33
  -1   2  -4   97.16    3.45
   1   2   4   97.15    4.20
  -1   2  -4   89.43    4.51
   1   2   4   91.05    3.75
  -2  -2  -4   -2.30    1.30
  -2  -2  -4    0.50    1.47
  -2  -2  -4   -0.77    1.24
   2  -2   4    1.15    1.05
  -2  -2  -4   -0.37    1.30
  -2  -2  -4    1.04    1.26
   2  -2   4    1.78    0.92
  -2  -2  -4    4.23    1.72
   2  -2   4    0.71    1.15
  -2  -2  -4    0.21    1.60
   2  -2   4    1.38    1.57
  -2  -2  -4    1.67    1.35
   2   2   4    3.31    1.74
   2   2   4   -1.76    1.36
   2   2   4   -0.17    1.22
  -2   2  -4   -0.40    1.07
  -2   2  -4   -0.72    1.38
  -2   2  -4    0.10    1.13
   2   2   4    1.91    1.62
   2   2   4   -0.18    1.42
  -2   2  -4    0.40    0.76
  -2   2  -4   -1.44    1.12
  -2   2  -4    0.34    1.20
   2   2   4    4.07    1.54
  -2   2  -4    0.17    1.08
   3  -2   4    9.51    2.01
  -3  -2  -4   12.19    2.47
   3  -2   4    7.83    1.65
   3  -2   4    5.60    1.25
   3  -2   4    9.95    2.23
  -3  -2  -4    9.56    1.93
  -3  -2  -4    5.39    2.06
  -3  -2  -4    6.08    1.99
   3  -2   4    9.27    1.84
  -3  -2  -4    4.10    1.93
  -3  -2  -4    9.22    2.36
   3  -2   4    7.39    1.48
  -3  -2  -4    6.00    1.93
   3   2   4    4.89    2.09
   3   2   4    6.16    1.95
  -3   2  -4    8.24    2.06
  -3   2  -4    5.68    1.84
   3   2   4    7.53    1.99
   3   2   4    8.60    2.16
  -3   2  -4    6.75    2.27
  -3   2  -4    8.21    2.12
   3   2   4    5.56    1.81
   3   2   4    5.84    2.05
  -3   2  -4    5.14    1.76
  -3   2  -4    6.72    1.81
  -4  -2  -4    2.13    2.28
  -4  -2  -4    3.67    2.94
  -4  -2  -4    4.72    2.91
  -4  -2  -4    4.20    2.45
  -4  -2  -4    4.43    2.00
   4  -2   4    3.75    2.28
   4  -2   4    2.93    2.13
   4  -2   4    3.05    1.37
   4  -2   4    4.63    1.76
  -4  -2  -4    9.06    2.39
  -4  -2  -4    4.12    2.02
   4  -2   4    4.15    1.70
   4   2   4    6.40    2.75
   4   2   4    4.38    2.36
  -4   2  -4    4.31    2.08
  -4   2  -4    5.69    2.50
  -4   2  -4    4.54    2.48
  -4   2  -4    3.64    2.00
   4   2   4    3.56    2.24
   4   2   4    8.04    2.64
   4   2   4    3.60    2.31
   4   2   4    2.11    2.01
  -4   2  -4    2.15    2.35
  -4   2  -4    6.17    2.72
  -5  -2  -4   53.46    5.16
   5  -2   4   45.13    4.28
  -5  -2  -4   40.72    4.89
   5  -2   4   39.48    3.53
  -5  -2  -4   55.80    4.77
   5  -2   4   52.32    4.56
   5  -2   4   45.47    4.74
  -5  -2  -4   66.31    7.91
  -5  -2  -4   49.38    4.30
  -5  -2  -4   50.60    4.93
  -5   2  -4   43.32    4.77
  -5   2  -4   42.53    5.57
   5   2   4   40.10    5.10
  -5   2  -4   52.76    5.42
   5   2   4   37.26    4.74
  -5   2  -4   46.65    4.75
   5   2   4   45.64    5.09
  -5   2  -4   49.73    5.06
   5   2   4   45.25    5.13
  -6  -2  -4    1.94    3.61
   6  -2   4    0.97    3.23
   6  -2   4   -5.47    3.72
  -6  -2  -4    4.13    3.50
  -6  -2  -4    0.34    2.63
   6  -2   4    0.16    2.45
   6  -2   4    5.45    2.59
   6  -2   4    2.31    3.15
  -6  -2  -4   -0.99    2.37
   6   2   4    1.61    3.35
  -6   2  -4    2.01    3.76
   6   2   4   -0.56    3.57
   6   2   4   -2.19    3.24
  -6   2  -4    3.17    5.14
  -6   2  -4   -2.40    3.23
  -7  -2  -4   37.49    6.01
   7  -2   4   35.14    5.52
   7  -2   4   35.68    5.75
  -7  -2  -4   33.18    5.70
   7  -2   4   26.85    3.93
  -7   2  -4   22.93    5.41
   7   2   4   25.88    6.09
  -7   2  -4   27.46    4.26
  -7   2  -4   26.90    5.86
   7   2   4   29.43    5.46
  -7   2  -4   29.80    5.71
  -7   2  -4   28.67    6.79
   7   2   4   33.91    6.90
   8  -2   4   -2.58    3.52
  -8  -2  -4    5.23    4.89
  -8  -2  -4    1.20    3.38
   8  -2   4   -6.04    7.01
   8  -2   4   -1.46    4.72
  -8  -2  -4    7.54    4.92
  -8   2  -4    5.41    5.07
   8   2   4    8.45    5.93
  -8   2  -4    3.29    5.02
  -8   2  -4    4.95    4.92
  -8   2  -4    4.00    3.56
   8   2   4   -1.81    5.24
  -8   2  -4    9.42    5.18
   8   2   4    3.39    5.45
 -10  -3   4    3.12    4.00
 -10  -3   4   -0.18    5.53
  10  -3  -4   -9.02    4.14
  10  -3  -4    6.81    9.29
  10  -3  -4   -5.33    6.11
  10  -3  -4   -7.91    6.55
  10   3  -4    2.13    6.87
 -10   3   4   -1.84    7.24
 -10   3   4   13.10    6.01
 -10   3   4    1.55    6.56
  10   3  -4   -6.82    6.14
  10   3  -4    7.70    7.13
  -9  -3   4   23.02    5.69
   9  -3  -4   20.69    4.53
   9  -3  -4   13.56    5.86
  -9  -3   4   24.55    4.55
   9  -3  -4   27.22    5.47
  -9  -3   4   21.83    5.47
  -9  -3   4   24.79    4.45
   9  -3  -4   36.20    6.38
  -9   3   4   32.70    6.00
  -9   3   4   38.77    4.41
   9   3  -4   30.08    6.42
  -9   3   4   21.06    6.01
   9   3  -4   35.57    6.62
  -9   3   4   31.80    6.00
   9   3  -4   32.16    5.76
   8  -3  -4   10.24    4.71
   8  -3  -4    7.53    3.30
  -8  -3   4    6.35    3.12
  -8  -3   4    4.57    3.25
  -8  -3   4   12.94    4.13
   8  -3  -4    5.05    4.91
  -8  -3   4   11.72    3.48
   8  -3  -4    5.44    3.30
  -8   3   4    5.04    3.30
  -8   3   4   13.53    3.01
  -8   3   4    6.32    4.80
   8   3  -4   10.28    4.65
   8   3  -4    8.29    4.82
  -8   3   4    3.07    4.88
   8   3  -4    7.56    7.03
  -7  -3   4   24.37    3.94
   7  -3  -4   28.61    4.81
   7  -3  -4   22.18    3.34
   7  -3  -4   21.60    3.68
  -7  -3   4   24.73    3.16
  -7  -3   4   37.42    4.28
  -7  -3   4   20.71    3.72
  -7  -3   4   23.52    4.31
   7  -3  -4   30.24    4.77
  -7   3   4   22.59    3.11
   7   3  -4   31.11    4.93
   7   3  -4   23.80    2.77
   7   3  -4   27.88    4.54
   7   3  -4   23.97    4.90
   7   3  -4   31.77    4.49
  -7   3   4   23.91    3.63
  -7   3   4   25.98    4.39
  -7   3   4   25.25    4.30
  -7   3   4   22.96    4.69
   6  -3  -4   62.51    5.10
  -6  -3   4   59.08    4.42
  -6  -3   4   61.40    4.02
   6  -3  -4   54.64    4.49
  -6  -3   4   65.59    4.90
   6  -3  -4   66.64    5.19
  -6  -3   4   68.03    5.39
  -6  -3   4   66.52    5.18
   6  -3  -4   67.87    5.31
   6  -3  -4   59.95    5.33
   6   3  -4   66.38    5.56
   6   3  -4   56.22    5.41
  -6   3   4   66.31    5.67
  -6   3   4   65.81    5.35
  -6   3   4   51.03    4.73
   6   3  -4   60.01    5.57
  -6   3   4   53.20    5.06
   6   3  -4   62.56    4.94
  -6   3   4   62.29    4.65
   6   3  -4   62.00    4.92
  -5  -3   4   17.29    2.28
  -5  -3   4   21.37    2.70
   5  -3  -4   16.98    2.98
  -5  -3   4   19.10    3.33
  -5  -3   4   21.05    2.99
  -5  -3   4   23.68    2.59
   5  -3  -4   21.15    3.40
   5  -3  -4   19.78    2.82
   5  -3  -4   15.43    3.38
   5  -3  -4   20.40    3.17
  -5  -3   4   20.39    2.71
  -5  -3   4   15.53    3.06
   5  -3  -4   16.71    2.47
   5  -3  -4   17.01    2.91
  -5   3   4   24.54    3.34
  -5   3   4   15.23    2.84
   5   3  -4   25.33    3.12
  -5   3   4   16.33    2.57
   5   3  -4   19.31    2.85
   5   3  -4   21.80    3.33
   5   3  -4   16.71    2.68
  -5   3   4   16.66    2.86
   5   3  -4   18.19    2.73
  -5   3   4   20.68    3.34
   5   3  -4   29.16    3.47
  -5   3   4   24.84    3.38
  -5   3   4   17.37    4.54
   4  -3  -4  144.96    6.47
  -4  -3   4  140.56    6.23
  -4  -3   4  152.46    6.52
   4  -3  -4  146.58    6.38
   4  -3  -4  153.13    6.20
  -4  -3   4  146.64    6.41
  -4  -3   4  149.08    4.69
   4  -3  -4  155.48    6.89
  -4  -3   4  144.30    5.50
   4  -3  -4  148.57    6.51
   4  -3  -4  167.84    6.76
  -4  -3   4  144.90    4.67
  -4  -3   4  150.06    5.72
   4  -3  -4  147.99    6.05
  -4   3   4  140.32    6.42
   4   3  -4  146.81    5.79
  -4   3   4  162.36    6.49
  -4   3   4  150.20    6.47
   4   3  -4  149.27    5.77
  -4   3   4  153.56    5.70
  -4   3   4  141.62    6.28
   4   3  -4  134.21    6.36
   4   3  -4  145.62    5.88
  -4   3   4  147.12    6.33
   4   3  -4  146.85    5.84
  -4   3   4  152.47    6.60
   4   3  -4  144.01    5.87
   3  -3  -4    7.99    1.89
   3  -3  -4    4.98    1.74
   3  -3  -4    4.05    1.69
   3  -3  -4    4.68    1.67
  -3  -3   4    7.03    1.27
   3  -3  -4    6.37    1.71
   3  -3  -4    5.51    1.86
  -3  -3   4    6.22    1.74
  -3  -3   4    4.13    1.00
   3  -3  -4   10.47    1.88
  -3  -3   4    5.95    1.91
  -3   3   4    4.06    1.44
   3   3  -4    6.15    1.23
  -3   3   4    8.06    1.71
   3   3  -4    4.99    1.64
  -3   3   4    4.64    1.72
  -3   3   4    7.34    1.81
   3   3  -4    6.31    1.33
   3   3  -4    5.96    1.30
  -3   3   4    4.98    1.67
  -3   3   4    4.26    1.71
  -3   3   4    5.43    1.80
   3   3  -4    6.25    0.81
  -3   3   4    7.32    1.64
   2  -3  -4  383.72   11.46
   2  -3  -4  384.52   11.57
  -2  -3   4  385.55    9.80
   2  -3  -4  355.05   11.44
   2  -3  -4  389.29   11.52
   2  -3  -4  394.66   11.56
  -2  -3   4  386.60    9.87
  -2  -3   4  384.54   11.27
  -2  -3   4  369.71   10.89
   2  -3  -4  377.25   11.42
   2  -3  -4  395.88   11.44
  -2   3   4  379.06   11.56
  -2   3   4  410.03   11.45
  -2   3   4  384.73   11.51
  -2   3   4  384.60   11.50
   2   3  -4  389.77   10.72
  -2   3   4  387.74   11.29
   2   3  -4  381.15   10.05
   2   3  -4  364.80   10.12
   2   3  -4  358.10   11.58
   2   3  -4  375.74   10.25
  -2   3   4  375.83   11.62
   1  -3  -4   12.05    1.95
   1  -3  -4   13.52    2.03
  -1  -3   4   14.91    2.05
  -1  -3   4   14.01    1.49
   1  -3  -4   13.18    1.80
   1  -3  -4   16.04    2.16
  -1  -3   4   15.42    1.90
   1  -3  -4   11.88    1.85
   1  -3  -4   10.94    1.79
  -1   3   4   12.60    1.96
  -1   3   4   17.02    2.03
  -1   3   4   12.38    1.91
   1   3  -4   12.09    0.97
   1   3  -4   13.59    1.50
   1   3  -4   15.34    0.78
  -1   3   4   13.06    1.91
   1   3  -4   13.21    0.99
   1   3  -4   14.29    2.14
   1   3  -4   13.63    0.76
  -1   3   4   12.24    2.04
  -1   3   4   13.03    1.80
   0  -3  -4  221.76    7.62
   0  -3  -4  224.74    7.59
   0  -3   4  223.88    7.84
   0  -3  -4  228.29    7.76
   0  -3  -4  241.15    7.72
   0  -3   4  230.25    7.03
   0  -3  -4  228.51    7.80
   0  -3  -4  234.73    7.81
   0  -3  -4  225.69    7.12
   0   3  -4  219.41    5.98
   0   3   4  233.42    7.63
   0   3   4  237.14    7.76
   0   3   4  222.37    7.74
   0   3  -4  229.74    6.08
   0   3   4  226.07    7.49
   0   3  -4  227.06    6.25
   0   3   4  220.27    7.56
  -1  -3  -4   64.95    3.41
  -1  -3  -4   63.16    3.66
   1  -3   4   65.51    2.57
  -1  -3  -4   67.24    3.86
   1  -3   4   58.24    3.79
   1  -3   4   62.76    2.44
  -1  -3  -4   63.55    3.70
  -1  -3  -4   64.51    3.75
  -1  -3  -4   61.49    3.75
  -1  -3  -4   63.54    3.87
   1  -3   4   62.19    2.95
  -1   3  -4   65.66    2.69
   1   3   4   62.59    3.93
  -1   3  -4   67.36    2.82
  -1   3  -4   60.46    2.88
   1   3   4   65.75    3.55
   1   3   4   68.40    3.82
  -1   3  -4   65.53    2.78
   1   3   4   63.05    3.71
   1   3   4   67.57    3.76
  -1   3  -4   57.67    2.73
  -1   3  -4   59.17    3.74
   1   3   4   63.51    3.39
  -2  -3  -4   82.08    4.67
   2  -3   4   79.64    3.65
   2  -3   4   86.44    3.62
  -2  -3  -4   78.81    4.01
  -2  -3  -4   88.96    4.81
   2  -3   4   86.66    3.35
  -2  -3  -4   86.85    4.43
  -2  -3  -4   84.40    4.63
   2  -3   4   84.73    4.69
  -2  -3  -4   83.85    4.42
  -2  -3  -4   81.09    4.05
   2  -3   4   85.21    3.21
   2  -3   4   83.12    2.41
  -2   3  -4   86.95    3.18
  -2   3  -4   80.06    3.93
  -2   3  -4   83.11    4.77
   2   3   4   87.66    4.69
  -2   3  -4   87.78    3.95
   2   3   4   80.89    4.68
  -2   3  -4   77.96    5.02
   2   3   4   88.44    4.81
   2   3   4   76.68    4.22
   2   3   4   80.69    4.27
   2   3   4   87.27    4.56
  -2   3  -4   78.84    3.86
  -2   3  -4   84.92    3.97
   3  -3   4  195.84    6.10
   3  -3   4  201.47    7.19
  -3  -3  -4  208.69    7.75
   3  -3   4  197.50    5.91
   3  -3   4  201.07    8.04
  -3  -3  -4  193.45    8.00
  -3  -3  -4  178.43    7.60
  -3  -3  -4  208.94    8.19
  -3  -3  -4  194.68    7.18
  -3  -3  -4  197.07    7.25
  -3  -3  -4  197.87    8.17
   3  -3   4  190.61    6.97
   3   3   4  196.38    7.83
   3   3   4  184.88    7.94
  -3   3  -4  191.79    7.95
   3   3   4  179.27    7.93
  -3   3  -4  193.41    7.34
   3   3   4  203.14    7.75
   3   3   4  206.85    8.09
  -3   3  -4  206.38    7.49
  -3   3  -4  214.51    7.52
   3   3   4  186.08    7.60
  -3   3  -4  197.10    7.44
  -3   3  -4  190.12    7.32
  -4  -3  -4    3.59    1.74
  -4  -3  -4    5.08    2.07
   4  -3   4    4.40    1.68
   4  -3   4    2.09    2.20
   4  -3   4    4.79    1.49
  -4  -3  -4    2.62    2.38
  -4  -3  -4   -1.77    2.07
  -4  -3  -4    8.49    3.09
  -4  -3  -4    4.84    2.76
   4  -3   4    2.26    1.09
  -4  -3  -4    0.77    3.06
   4  -3   4    3.30    2.18
   4  -3   4    2.99    2.49
   4   3   4    2.79    2.27
   4   3   4    2.89    2.49
  -4   3  -4   -1.76    2.43
   4   3   4    3.69    2.58
   4   3   4    5.03    2.25
   4   3   4    1.93    2.22
  -4   3  -4   -0.34    1.74
  -4   3  -4    7.56    2.65
   4   3   4    7.33    2.91
  -4   3  -4    0.83    1.83
  -4   3  -4    8.21    2.74
  -4   3  -4    0.34    2.33
   5  -3   4  115.87    6.64
  -5  -3  -4   99.13    5.99
  -5  -3  -4  104.12    6.62
   5  -3   4  111.41    4.37
  -5  -3  -4  108.89    6.93
   5  -3   4  104.58    5.48
   5  -3   4  115.34    5.75
  -5  -3  -4  113.18    6.21
   5  -3   4  104.06    7.21
  -5   3  -4   96.07    6.35
  -5   3  -4  101.01    7.48
  -5   3  -4  106.26    7.13
   5   3   4  114.97    7.24
   5   3   4   96.85    6.68
   5   3   4  107.74    6.71
  -5   3  -4  122.40    7.46
  -6  -3  -4   53.83    6.90
   6  -3   4   24.60    4.22
   6  -3   4   42.90    5.29
   6  -3   4   40.72    4.92
  -6  -3  -4   42.59    5.08
  -6  -3  -4   34.57    5.17
   6  -3   4   40.04    4.64
  -6  -3  -4   32.45    4.46
  -6   3  -4   46.92    6.07
   6   3   4   38.30    5.87
  -6   3  -4   38.40    5.16
  -6   3  -4   40.87    5.77
  -6   3  -4   45.45    6.20
   6   3   4   38.41    5.29
   6   3   4   37.15    5.17
  -6   3  -4   39.55    6.12
  -7  -3  -4   28.88    4.83
   7  -3   4   23.49    5.18
  -7  -3  -4   23.67    5.01
   7  -3   4   31.73    5.23
  -7  -3  -4   33.76    5.22
   7  -3   4   31.19    4.90
  -7   3  -4   32.67    5.84
   7   3   4   26.28    5.28
   7   3   4   23.22    6.45
  -7   3  -4   25.13    5.61
  -7   3  -4   22.91    6.26
  -7   3  -4   21.11    5.43
   8  -3   4   63.20    8.28
   8  -3   4   64.22    7.50
  -8  -3  -4   81.29    9.61
   8  -3   4   53.74    8.11
  -8  -3  -4   63.40    6.67
  -8  -3  -4   83.88   10.06
  -8  -3  -4   67.50    9.01
   8   3   4   62.95    8.38
  -8   3  -4   78.34    8.07
   8   3   4   57.47    7.69
  -8   3  -4   75.85    9.07
   8   3   4   64.71    7.91
  -8   3  -4   75.83    6.88
  -8   3  -4   68.35    8.28
  -8   3  -4   60.83    8.00
   9  -4  -4   -7.47    5.24
   9  -4  -4   -1.38    4.46
   9  -4  -4   -3.05    3.66
   9  -4  -4   10.31    6.00
  -9  -4   4   -0.51    3.02
  -9  -4   4    9.81    3.72
  -9  -4   4    5.01    4.81
  -9  -4   4    5.00    5.24
   9   4  -4    6.71    5.53
  -9   4   4    7.96    3.80
  -9   4   4    6.09    5.65
  -9   4   4   -0.80    5.48
   9   4  -4    2.69    5.59
   9   4  -4    7.09    4.81
  -9   4   4    4.66    5.12
   8  -4  -4  171.91   11.45
  -8  -4   4  189.59   10.00
   8  -4  -4  182.95    9.45
   8  -4  -4  176.94    8.72
  -8  -4   4  171.72    9.44
  -8  -4   4  193.26    9.34
  -8  -4   4  187.80    8.10
   8  -4  -4  187.85   10.42
  -8   4   4  174.70    7.74
  -8   4   4  194.50   12.34
   8   4  -4  182.91   11.70
  -8   4   4  182.04   10.60
   8   4  -4  177.22    9.92
   8   4  -4  192.69   11.31
  -8   4   4  170.34   10.02
  -7  -4   4    3.18    2.15
  -7  -4   4    5.05    2.88
   7  -4  -4    3.50    3.49
  -7  -4   4   -2.07    2.82
   7  -4  -4   -3.00    2.31
  -7  -4   4    2.10    2.56
   7  -4  -4    2.31    3.94
   7  -4  -4    1.65    2.54
  -7  -4   4   -0.71    4.19
   7   4  -4   -1.51    2.99
   7   4  -4    8.20    3.84
  -7   4   4   -1.18    2.49
   7   4  -4    0.95    3.43
  -7   4   4   -2.25    2.63
  -7   4   4    2.23    3.38
   7   4  -4    2.40    1.56
  -7   4   4   -0.01    4.47
   7   4  -4   -1.10    3.73
  -7   4   4    0.08    3.90
   7   4  -4   -1.85    4.55
  -6  -4   4   77.24    3.99
   6  -4  -4   82.59    5.02
  -6  -4   4   83.76    5.97
   6  -4  -4   83.68    5.84
   6  -4  -4   87.68    6.12
   6  -4  -4   70.41    6.40
  -6  -4   4   81.49    4.34
  -6  -4   4   78.73    5.40
  -6  -4   4   76.47    5.33
  -6   4   4   85.96    6.06
   6   4  -4   81.26    5.84
   6   4  -4   91.39    6.12
  -6   4   4   77.71    5.62
   6   4  -4   77.18    5.39
   6   4  -4   72.77    5.92
  -6   4   4   86.24    5.94
   6   4  -4   77.32    5.54
  -6   4   4   87.53    5.07
  -6   4   4   71.08    6.06
   5  -4  -4    5.48    2.84
  -5  -4   4    6.40    2.55
  -5  -4   4    6.66    1.55
   5  -4  -4    4.92    1.91
  -5  -4   4    5.61    1.16
   5  -4  -4    5.37    2.42
  -5  -4   4    7.52    2.26
   5  -4  -4    3.10    2.11
  -5  -4   4    5.48    2.83
   5  -4  -4    1.47    3.18
   5  -4  -4    8.54    2.69
  -5  -4   4    7.02    1.86
   5  -4  -4    7.81    2.66
  -5  -4   4    4.22    2.22
  -5   4   4    3.73    2.81
   5   4  -4    4.65    2.04
  -5   4   4    4.94    2.79
   5   4  -4   10.45    2.33
   5   4  -4    2.72    2.39
  -5   4   4    3.56    2.42
   5   4  -4    6.91    2.20
  -5   4   4    4.35    2.14
   5   4  -4    4.76    2.68
  -5   4   4    5.21    2.38
  -5   4   4    1.84    2.86
   5   4  -4    6.84    2.13
  -5   4   4    7.61    2.55
   4  -4  -4    2.56    1.79
  -4  -4   4    2.33    1.47
  -4  -4   4    1.08    1.91
   4  -4  -4    1.99    2.08
   4  -4  -4    1.55    2.03
   4  -4  -4    2.12    2.39
   4  -4  -4    1.48    2.20
   4  -4  -4    0.08    1.74
  -4  -4   4   -1.55    0.96
   4  -4  -4   -1.07    1.25
  -4  -4   4   -1.07    1.97
  -4  -4   4    0.00    1.91
  -4   4   4   -1.68    1.71
   4   4  -4   -0.05    1.57
  -4   4   4   -0.88    1.87
  -4   4   4    1.31    2.12
  -4   4   4    2.01    1.91
  -4   4   4    1.80    2.17
   4   4  -4    1.26    1.35
  -4   4   4    0.66    1.86
   4   4  -4    0.06    1.49
  -4   4   4    0.61    1.60
   4   4  -4   -0.94    1.27
   4   4  -4    0.63    1.78
   4   4  -4    0.52    1.49
   3  -4  -4   20.08    2.71
  -3  -4   4   28.68    1.76
   3  -4  -4   25.69    2.98
   3  -4  -4   27.34    2.94
  -3  -4   4   29.45    2.93
   3  -4  -4   35.33    3.53
  -3  -4   4   27.22    1.89
  -3  -4   4   31.96    3.55
   3  -4  -4   30.11    2.95
   3  -4  -4   30.83    2.83
   3  -4  -4   38.81    3.56
  -3   4   4   25.11    3.08
  -3   4   4   29.15    3.15
   3   4  -4   27.81    2.26
  -3   4   4   27.05    2.75
  -3   4   4   24.52    3.01
   3   4  -4   28.36    1.34
   3   4  -4   29.54    2.25
   3   4  -4   29.78    3.13
  -3   4   4   23.99    3.03
   3   4  -4   28.58    2.14
  -3   4   4   22.49    2.77
   3   4  -4   28.43    1.34
   3   4  -4   28.93    2.25
  -3   4   4   34.71    2.76
  -2  -4   4   76.94    3.89
   2  -4  -4   84.36    4.52
   2  -4  -4   78.26    4.10
   2  -4  -4   76.68    4.26
  -2  -4   4   79.26    3.93
  -2  -4   4   78.64    4.17
   2  -4  -4   80.35    4.18
   2  -4  -4   81.87    4.28
   2  -4  -4   75.05    4.00
   2  -4  -4   70.16    4.07
   2   4  -4   74.85    2.82
  -2   4   4   70.69    4.22
   2   4  -4   81.54    2.64
  -2   4   4   82.33    4.03
  -2   4   4   79.14    4.18
  -2   4   4   78.39    4.27
  -2   4   4   85.12    4.11
  -2   4   4   78.27    4.38
   2   4  -4   78.03    2.72
   1  -4  -4   53.28    3.66
   1  -4  -4   54.69    3.48
  -1  -4   4   50.14    3.25
   1  -4  -4   49.80    3.38
  -1  -4   4   55.23    3.20
   1  -4  -4   53.26    3.49
  -1  -4   4   48.60    2.73
   1  -4  -4   53.87    3.27
  -1   4   4   55.85    3.52
   1   4  -4   52.72    3.14
  -1   4   4   57.68    3.40
  -1   4   4   58.59    3.39
  -1   4   4   53.77    3.46
  -1   4   4   51.32    3.63
   1   4  -4   49.87    1.57
  -1   4   4   49.10    3.46
   0  -4   4  165.70    5.64
   0  -4  -4  166.34    5.97
   0  -4   4  167.25    5.14
   0  -4   4  161.60    6.54
   0  -4  -4  177.22    6.44
   0  -4  -4  171.79    6.46
   0  -4  -4  158.57    6.49
   0  -4  -4  162.13    6.19
   0  -4  -4  168.54    6.56
   0  -4  -4  160.23    6.36
   0   4   4  164.23    6.39
   0   4  -4  168.06    4.57
   0   4   4  169.93    6.47
   0   4   4  174.40    6.35
   0   4   4  166.78    6.58
   0   4   4  158.48    6.31
   0   4   4  173.35    6.49
  -1  -4  -4   -0.57    1.48
  -1  -4  -4    1.12    1.53
   1  -4   4    3.11    1.29
  -1  -4  -4    3.15    1.77
   1  -4   4   -0.72    1.54
   1  -4   4    0.73    0.48
  -1  -4  -4   -0.01    1.49
  -1  -4  -4    1.74    1.48
  -1  -4  -4    1.97    1.44
  -1  -4  -4    1.35    1.56
   1  -4   4    1.46    0.48
  -1   4  -4    0.67    0.83
   1   4   4   -0.79    1.45
   1   4   4   -2.50    1.52
  -1   4  -4    0.86    1.44
  -1   4  -4   -0.08    0.85
  -1   4  -4    1.34    0.79
   1   4   4    2.63    1.57
   1   4   4    0.44    1.58
  -1   4  -4    1.72    0.82
   1   4   4    1.25    1.40
  -1   4  -4    2.02    0.75
   1   4   4    2.20    1.59
  -2  -4  -4  240.46    8.63
   2  -4   4  245.12    7.31
   2  -4   4  230.92    8.97
  -2  -4  -4  238.67    8.67
  -2  -4  -4  232.88    8.80
  -2  -4  -4  241.23    8.87
  -2  -4  -4  238.06    7.87
  -2  -4  -4  249.10    8.30
  -2  -4  -4  235.81    8.86
   2  -4   4  248.34    7.02
  -2   4  -4  256.49    7.85
   2   4   4  265.84    8.97
   2   4   4  247.72    8.85
   2   4   4  240.86    9.02
  -2   4  -4  241.30    9.02
  -2   4  -4  242.21    7.90
  -2   4  -4  260.47    8.22
  -2   4  -4  250.25    7.92
   2   4   4  240.79    8.93
   2   4   4  249.34    8.97
   2   4   4  235.16    8.55
  -2   4  -4  237.18    6.75
  -3  -4  -4    2.30    2.39
   3  -4   4    2.18    1.42
  -3  -4  -4    6.24    2.72
  -3  -4  -4    2.21    2.00
  -3  -4  -4    6.32    1.70
  -3  -4  -4    1.39    1.76
  -3  -4  -4    2.30    2.11
  -3  -4  -4    2.29    2.06
   3  -4   4    2.22    0.65
   3  -4   4    0.12    2.01
   3  -4   4    3.49    1.59
  -3   4  -4    3.23    1.89
   3   4   4    1.14    2.33
  -3   4  -4   -2.85    1.59
   3   4   4   -1.05    2.34
   3   4   4    3.84    2.01
  -3   4  -4    0.32    2.09
   3   4   4    3.02    2.24
   3   4   4    2.68    2.19
  -3   4  -4    4.85    2.17
   3   4   4    3.73    2.23
  -3   4  -4    1.52    1.68
  -4  -4  -4  197.58    7.57
   4  -4   4  197.46    7.74
  -4  -4  -4  209.44    9.14
   4  -4   4  195.98    6.42
  -4  -4  -4  213.22    8.27
  -4  -4  -4  197.86    8.23
  -4  -4  -4  193.51    8.41
   4  -4   4  194.39    6.42
  -4  -4  -4  195.56    9.14
  -4  -4  -4  199.37    8.83
   4  -4   4  197.13    8.69
   4  -4   4  175.07    7.65
  -4  -4  -4  215.52   10.38
   4   4   4  196.21    8.85
   4   4   4  191.26    9.12
  -4   4  -4  184.36    8.69
   4   4   4  198.45    8.98
  -4   4  -4  194.68    8.34
  -4   4  -4  192.89    8.35
  -4   4  -4  184.23    9.14
  -4   4  -4  194.78    8.11
   4   4   4  229.12   10.20
   4   4   4  195.65    8.52
  -5  -4  -4    0.91    3.36
   5  -4   4   -0.02    2.26
  -5  -4  -4    2.64    2.28
   5  -4   4    0.73    1.71
   5  -4   4   -2.66    2.48
  -5  -4  -4    1.19    2.75
  -5  -4  -4    1.19    2.06
   5  -4   4    0.79    3.02
  -5  -4  -4   -0.58    2.57
  -5   4  -4    2.30    2.75
  -5   4  -4    1.13    3.09
   5   4   4    0.88    3.12
  -5   4  -4    0.35    2.57
  -5   4  -4    0.92    2.92
  -5   4  -4    5.27    3.97
   5   4   4    0.49    2.78
   5   4   4    1.17    2.68
   6  -4   4   88.14    5.48
  -6  -4  -4   90.79    7.96
   6  -4   4   77.42    6.07
  -6  -4  -4   86.15    6.45
  -6  -4  -4   89.41    6.20
  -6  -4  -4   91.80    8.12
   6  -4   4   84.09    6.69
   6  -4   4   76.03    6.13
  -6   4  -4   82.12    9.30
  -6   4  -4   72.95    7.98
  -6   4  -4   75.93    8.31
   6   4   4   87.37    8.01
  -6   4  -4   85.09    7.80
   6   4   4  106.31    8.87
   6   4   4   96.99    8.62
  -6   4  -4   91.53    7.49
  -7  -4  -4    1.16    4.43
   7  -4   4    8.80    4.74
  -7  -4  -4    3.42    3.56
   7  -4   4    3.96    3.51
   7  -4   4    2.33    3.63
  -7  -4  -4    3.55    3.96
  -7   4  -4    7.79    4.65
  -7   4  -4    5.42    4.80
   7   4   4    4.11    4.68
  -7   4  -4    7.51    4.22
   7   4   4    2.14    4.68
  -7   4  -4    7.92    4.28
   7   4   4    0.96    4.45
  -8  -4  -4   39.17    7.29
  -8  -4  -4   44.74    5.96
  -8  -4  -4   35.96    7.59
   8  -4   4   47.44    8.74
   8  -4   4   49.19    5.85
   8  -4   4   37.76    5.91
  -8  -4  -4   49.07    7.60
  -8   4  -4   42.85    7.19
   8   4   4   46.46    7.75
  -8   4  -4   41.59    7.44
  -8   4  -4   33.51    7.11
   8   4   4   41.04    7.21
   8   4   4   31.57    7.21
  -8   4  -4   34.04    7.86
   9  -5  -4   66.33    7.75
  -9  -5   4   61.63    6.85
   9  -5  -4   54.52    6.72
  -9  -5   4   52.96    6.99
   9  -5  -4   70.18    8.91
  -9  -5   4   64.31    6.87
  -9   5   4   62.75    7.99
  -9   5   4   74.70   10.00
   9   5  -4   68.44    8.30
  -9   5   4   96.06    9.49
   9   5  -4   63.65    7.63
   9   5  -4   59.56    8.31
   8  -5  -4    4.36    3.13
   8  -5  -4   16.05    4.76
   8  -5  -4   12.75    5.71
  -8  -5   4    4.16    3.89
  -8  -5   4    7.79    3.55
  -8  -5   4    7.74    3.71
   8  -5  -4   -2.50    3.61
  -8  -5   4    5.83    2.76
  -8   5   4    8.03    4.77
   8   5  -4    5.99    4.62
   8   5  -4    5.55    3.97
  -8   5   4   11.94    3.62
  -8   5   4   10.54    5.20
  -8   5   4   -2.71    4.07
   7  -5  -4   34.28    3.86
   7  -5  -4   59.48    7.04
  -7  -5   4   47.34    5.82
   7  -5  -4   44.99    5.96
   7  -5  -4   40.03    5.13
  -7  -5   4   36.72    4.58
  -7  -5   4   42.38    4.12
  -7  -5   4   50.06    5.42
  -7  -5   4   40.94    3.41
  -7   5   4   34.45    5.02
  -7   5   4   47.06    6.25
   7   5  -4   50.72    6.46
  -7   5   4   43.68    6.34
  -7   5   4   47.66    6.30
   7   5  -4   45.87    5.87
   7   5  -4   54.35    6.62
   7   5  -4   46.55    5.31
   7   5  -4   42.44    6.67
  -7   5   4   42.92    5.07
   6  -5  -4   23.61    2.92
   6  -5  -4   29.00    4.24
  -6  -5   4   23.10    3.92
   6  -5  -4   30.53    4.33
  -6  -5   4   29.87    4.07
  -6  -5   4   30.32    3.65
  -6  -5   4   24.27    2.61
   6   5  -4   27.66    3.64
  -6   5   4   26.06    3.87
   6   5  -4   29.05    4.34
   6   5  -4   23.72    3.92
   6   5  -4   24.67    3.56
  -6   5   4   31.97    4.47
   6   5  -4   24.38    3.44
  -6   5   4   29.35    3.35
  -6   5   4   34.94    4.53
   5  -5  -4   50.88    5.32
  -5  -5   4   49.57    4.53
   5  -5  -4   44.79    4.69
  -5  -5   4   54.42    4.81
  -5  -5   4   51.59    5.69
   5  -5  -4   48.31    3.80
   5  -5  -4   59.79    7.46
  -5  -5   4   56.89    4.40
   5  -5  -4   53.64    4.75
  -5  -5   4   51.89    3.58
   5   5  -4   55.74    5.32
   5   5  -4   47.85    4.58
   5   5  -4   52.24    4.08
  -5   5   4   57.96    4.94
  -5   5   4   55.20    5.02
   5   5  -4   48.17    3.64
   5   5  -4   54.71    4.19
  -5   5   4   55.69    4.00
  -5   5   4   50.29    4.83
   5   5  -4   57.13    4.23
   5   5  -4   55.12    4.48
  -5   5   4   61.17    5.99
   4  -5  -4   21.48    3.06
   4  -5  -4   24.76    3.19
   4  -5  -4   23.64    2.95
  -4  -5   4   28.86    3.61
  -4  -5   4   24.72    2.60
   4  -5  -4   24.31    3.63
   4  -5  -4   34.75    3.95
  -4  -5   4   28.70    3.62
   4  -5  -4   25.00    3.51
   4  -5  -4   25.00    3.40
  -4   5   4   29.22    3.68
   4   5  -4   24.51    3.11
   4   5  -4   29.28    3.83
   4   5  -4   21.73    2.71
   4   5  -4   28.76    2.90
  -4   5   4   30.48    2.93
  -4   5   4   26.56    3.52
   4   5  -4   30.49    3.12
  -4   5   4   23.12    3.26
   4   5  -4   26.47    2.92
  -4   5   4   28.79    3.49
  -4   5   4   25.17    3.45
  -4   5   4   32.26    3.76
   3  -5  -4    9.98    2.45
   3  -5  -4   13.28    2.51
  -3  -5   4   13.58    2.37
  -3  -5   4   11.82    1.06
   3  -5  -4    7.79    2.30
   3  -5  -4    6.58    1.79
   3  -5  -4   10.58    2.24
   3  -5  -4   14.47    2.58
  -3  -5   4   14.70    2.77
   3  -5  -4   10.14    2.26
   3   5  -4   10.00    1.47
   3   5  -4   10.47    1.54
  -3   5   4   13.34    2.42
  -3   5   4    4.87    2.19
  -3   5   4   13.74    2.58
  -3   5   4    7.65    2.38
   3   5  -4    9.56    2.28
   3   5  -4   10.74    1.52
  -3   5   4    7.63    2.14
  -3   5   4   10.69    1.96
   3   5  -4   10.32    0.94
   2  -5  -4   72.15    4.21
   2  -5  -4   72.60    4.12
   2  -5  -4   73.16    4.30
  -2  -5   4   70.62    3.89
   2  -5  -4   70.95    4.33
   2  -5  -4   70.33    4.38
  -2  -5   4   68.94    3.81
   2  -5  -4   78.10    4.30
  -2  -5   4   70.93    4.93
   2  -5  -4   71.35    4.24
   2   5  -4   75.31    4.14
  -2   5   4   69.83    4.32
  -2   5   4   75.22    4.10
   2   5  -4   75.83    3.07
  -2   5   4   70.10    4.43
  -2   5   4   80.11    4.49
   2   5  -4   74.95    2.57
  -2   5   4   68.13    4.32
   2   5  -4   77.86    2.53
   2   5  -4   71.31    2.67
  -2   5   4   69.36    4.21
   2   5  -4   74.54    2.71
  -1  -5   4   37.36    2.84
   1  -5  -4   35.86    3.32
   1  -5  -4   33.04    3.32
   1  -5  -4   36.49    3.34
  -1  -5   4   36.23    2.99
   1  -5  -4   37.27    3.15
   1  -5  -4   36.52    2.96
   1  -5  -4   34.18    3.15
   1  -5  -4   33.12    2.96
  -1  -5   4   34.69    3.18
  -1   5   4   35.22    3.26
  -1   5   4   39.73    3.27
  -1   5   4   37.37    3.43
   1   5  -4   32.34    2.76
  -1   5   4   32.21    2.89
  -1   5   4   37.40    3.23
  -1   5   4   41.00    3.34
   0  -5  -4   51.53    3.81
   0  -5   4   59.12    3.29
   0  -5   4   57.44    3.87
   0  -5  -4   61.45    3.92
   0  -5   4   59.57    3.15
   0  -5  -4   61.45    4.13
   0  -5  -4   70.09    4.04
   0  -5  -4   62.57    4.09
   0  -5  -4   67.10    3.86
   0  -5  -4   59.17    3.67
   0   5   4   63.78    4.20
   0   5   4   53.91    4.01
   0   5  -4   63.42    3.24
   0   5   4   69.38    4.16
   0   5   4   61.12    4.04
   0   5  -4   59.84    3.68
   0   5  -4   59.08    1.85
   0   5   4   60.68    3.91
   0   5   4   58.06    3.91
  -1  -5  -4  238.35    8.44
  -1  -5  -4  239.10    8.60
  -1  -5  -4  246.45    8.31
  -1  -5  -4  235.08    8.75
   1  -5   4  242.32    7.25
   1  -5   4  221.46    8.65
  -1  -5  -4  235.98    8.89
  -1  -5  -4  241.58    8.50
  -1  -5  -4  237.55    8.67
   1   5   4  249.10    8.83
   1   5   4  231.14    8.61
   1   5   4  233.03    8.40
   1   5   4  244.94    8.57
  -1   5  -4  242.57    6.92
   1   5   4  237.33    8.76
  -1   5  -4  238.76    6.87
  -1   5  -4  241.59    6.85
  -1   5  -4  239.06    6.94
  -1   5  -4  237.60    6.99
   1   5   4  229.66    8.70
  -1   5  -4  234.54    8.52
   2  -5   4   56.60    2.61
  -2  -5  -4   52.09    4.61
  -2  -5  -4   53.71    4.30
  -2  -5  -4   60.70    4.31
  -2  -5  -4   54.71    4.18
  -2  -5  -4   58.35    4.08
   2  -5   4   49.99    2.69
   2  -5   4   52.97    4.59
  -2  -5  -4   54.48    4.14
   2  -5   4   59.31    2.59
  -2   5  -4   48.55    4.75
   2   5   4   54.16    4.42
  -2   5  -4   57.48    1.94
  -2   5  -4   55.20    4.24
   2   5   4   64.63    4.87
   2   5   4   54.70    4.15
  -2   5  -4   57.56    3.31
   2   5   4   65.20    4.58
   2   5   4   53.55    4.24
  -2   5  -4   56.89    3.16
  -2   5  -4   53.50    3.18
   2   5   4   54.17    4.32
  -3  -5  -4  239.04    7.97
  -3  -5  -4  231.75    9.15
  -3  -5  -4  252.15    9.52
   3  -5   4  230.91    7.71
  -3  -5  -4  231.39    8.84
  -3  -5  -4  237.42    8.96
   3  -5   4  225.65    9.63
   3  -5   4  234.99    7.70
  -3  -5  -4  237.36    9.46
  -3  -5  -4  238.01    9.73
  -3   5  -4  246.97    8.94
   3   5   4  225.26    9.31
   3   5   4  231.31    9.27
   3   5   4  242.50    9.71
  -3   5  -4  232.83    8.40
  -3   5  -4  244.96    8.52
   3   5   4  230.84    9.45
  -3   5  -4  235.82    8.35
   3   5   4  217.07    9.60
  -3   5  -4  233.94    9.64
  -3   5  -4  230.50    9.52
   3   5   4  244.84    9.65
  -3   5  -4  237.80    8.43
  -4  -5  -4   -0.42    2.33
   4  -5   4    0.52    2.93
  -4  -5  -4    3.25    1.64
  -4  -5  -4    0.60    2.70
  -4  -5  -4    0.86    2.09
   4  -5   4    2.18    1.82
  -4  -5  -4    3.82    2.38
   4  -5   4    0.13    2.23
   4   5   4   -1.05    2.54
  -4   5  -4   -0.90    2.25
   4   5   4    0.85    2.74
   4   5   4    1.93    3.96
  -4   5  -4   -7.95    2.88
  -4   5  -4    1.78    2.16
   4   5   4    2.04    2.46
  -4   5  -4    2.15    1.98
  -4   5  -4    2.43    3.07
  -4   5  -4    2.26    2.30
  -4   5  -4    2.49    2.51
  -5  -5  -4  193.96    9.58
  -5  -5  -4  183.11    9.13
   5  -5   4  191.76    6.49
   5  -5   4  191.88    6.59
  -5  -5  -4  200.51    7.89
   5  -5   4  204.32    8.65
   5  -5   4  188.77    9.25
  -5  -5  -4  199.00    9.46
  -5  -5  -4  196.38    8.94
  -5   5  -4  201.05   10.23
  -5   5  -4  178.30    9.54
  -5   5  -4  191.34    8.97
  -5   5  -4  204.63    9.65
   5   5   4  187.73    9.87
   5   5   4  187.33    9.55
   5   5   4  191.51    9.70
  -5   5  -4  189.53    9.01
   6  -5   4   20.24    4.07
  -6  -5  -4   21.08    3.59
  -6  -5  -4   23.57    5.26
   6  -5   4   21.18    2.83
  -6  -5  -4   12.22    5.45
   6  -5   4   15.35    4.15
  -6   5  -4   16.00    4.61
   6   5   4   20.06    5.26
   6   5   4   24.02    5.61
  -7  -5  -4   52.98    6.20
  -7  -5  -4   51.00    5.60
   7  -5   4   53.67    6.26
   7  -5   4   47.43    6.17
  -7  -5  -4   66.45    8.10
   7  -5   4   49.33    5.58
   7   5   4   42.17    6.48
   7   5   4   53.37    7.07
  -7   5  -4   62.85    8.39
  -7   5  -4   42.81    6.77
   7   5   4   49.23    6.85
  -7   5  -4   54.66    6.63
  -7   5  -4   54.96    7.07
  -8  -5  -4   31.33    6.75
  -8  -5  -4   39.13    5.48
  -8  -5  -4   33.13    7.67
  -8  -5  -4   51.46    8.28
   8  -5   4   49.01    6.98
   8  -5   4   44.98    6.24
   8   5   4   48.31    8.19
   8   5   4   47.69    7.93
  -8   5  -4   37.45    7.53
  -8   5  -4   50.01    8.35
  -8   5  -4   49.51    7.96
   8   5   4   34.14    7.61
  -8   5  -4   38.85    7.00
  -9  -6   4    3.79    4.06
   9  -6  -4   17.28    6.42
   9  -6  -4   -7.56    6.82
  -9  -6   4    8.63    4.49
   9  -6  -4    9.42    4.67
  -9   6   4   14.35    6.58
   9   6  -4    6.62    5.13
   9   6  -4    0.35    6.62
  -9   6   4   14.65    6.10
  -9   6   4   -1.93    5.90
   9   6  -4    7.12    6.02
   8  -6  -4   14.10    4.89
   8  -6  -4    3.89    3.17
   8  -6  -4    8.14    3.92
  -8  -6   4    9.07    3.69
  -8  -6   4    7.72    3.57
  -8   6   4   13.36    5.19
   8   6  -4   13.62    4.32
  -8   6   4    9.28    5.34
   8   6  -4    0.00    5.31
   8   6  -4    9.35    5.01
  -8   6   4    8.40    4.74
  -7  -6   4   59.09    5.67
   7  -6  -4   65.44    7.63
  -7  -6   4   79.02   11.05
   7  -6  -4   77.64    5.36
   7  -6  -4   66.63    6.58
  -7   6   4   72.20    5.88
  -7   6   4   67.73    8.34
  -7   6   4   74.83    9.31
  -7   6   4   62.81    8.08
   7   6  -4   80.73    8.23
   7   6  -4   60.26    6.83
   6  -6  -4   20.49    4.12
  -6  -6   4   27.42    4.37
  -6  -6   4   16.25    3.49
   6  -6  -4   20.56    4.15
   6  -6  -4   24.25    2.98
  -6  -6   4   19.53    2.81
   6  -6  -4   19.28    3.81
   6   6  -4   20.40    3.45
   6   6  -4   19.14    3.49
  -6   6   4   21.85    4.59
  -6   6   4   14.09    4.08
   6   6  -4   21.50    4.77
  -6   6   4   24.51    4.51
   6   6  -4   23.86    3.28
   6   6  -4   23.93    4.50
  -5  -6   4  291.36   11.02
   5  -6  -4  281.08   11.37
   5  -6  -4  289.14   10.73
   5  -6  -4  281.23    9.55
  -5  -6   4  266.72    9.25
   5  -6  -4  275.37   11.02
  -5  -6   4  285.83    9.23
  -5  -6   4  274.00   10.83
  -5   6   4  248.22    9.86
  -5   6   4  280.83   10.97
  -5   6   4  279.62   11.10
   5   6  -4  280.61   10.05
   5   6  -4  271.21    9.81
  -5   6   4  290.47   11.82
   5   6  -4  271.73   10.21
  -5   6   4  266.27   10.85
   5   6  -4  280.99   11.38
   5   6  -4  295.40    9.29
   5   6  -4  275.80    9.93
   4  -6  -4   -0.61    2.90
   4  -6  -4    1.28    1.98
   4  -6  -4    3.95    1.69
  -4  -6   4    0.89    1.37
   4  -6  -4    1.89    2.06
  -4  -6   4    1.16    2.37
  -4  -6   4    1.83    1.07
   4  -6  -4    2.42    2.59
   4  -6  -4   -0.59    3.53
  -4  -6   4    0.60    2.02
  -4   6   4    1.40    2.08
  -4   6   4    1.56    2.44
   4   6  -4   -0.20    1.59
   4   6  -4    0.46    1.49
  -4   6   4   -0.72    2.82
  -4   6   4    1.76    1.99
  -4   6   4    0.42    1.95
   4   6  -4   -2.24    1.37
   4   6  -4    0.24    1.72
   4   6  -4   -0.02    1.87
  -4   6   4   -0.82    2.10
   4   6  -4    2.89    2.32
   3  -6  -4  299.12   10.85
   3  -6  -4  291.03    9.93
   3  -6  -4  311.74   10.74
   3  -6  -4  307.84   10.81
   3  -6  -4  299.80   10.78
  -3  -6   4  293.06   10.19
   3  -6  -4  304.16   10.50
   3  -6  -4  290.92   10.36
  -3  -6   4  293.78   10.56
  -3   6   4  314.76    9.99
  -3   6   4  300.91   10.59
  -3   6   4  296.76   10.81
   3   6  -4  307.44    8.97
  -3   6   4  302.71   10.92
  -3   6   4  301.66   10.94
  -3   6   4  305.50   10.66
   3   6  -4  316.20    9.01
   3   6  -4  296.44   10.70
   3   6  -4  318.38    9.17
   3   6  -4  304.75    7.95
   3   6  -4  296.83    8.94
   3   6  -4  304.62    8.97
   2  -6  -4    3.25    1.89
   2  -6  -4    3.61    2.25
   2  -6  -4    1.45    2.29
  -2  -6   4    5.51    1.73
  -2  -6   4    2.75    1.62
   2  -6  -4    4.46    2.16
   2  -6  -4    4.62    1.74
   2  -6  -4    2.50    1.75
  -2  -6   4    3.85    2.26
  -2   6   4    4.30    2.13
   2   6  -4    6.23    0.87
   2   6  -4    4.59    1.73
  -2   6   4    2.66    1.94
  -2   6   4    4.43    2.06
  -2   6   4    4.20    1.88
   2   6  -4    5.09    0.78
   2   6  -4    5.00    0.85
  -2   6   4    2.33    2.05
  -2   6   4    4.27    2.22
   2   6  -4    3.67    0.86
   1  -6  -4  203.60    8.07
   1  -6  -4  202.53    7.78
   1  -6  -4  190.60    7.70
   1  -6  -4  204.96    7.60
  -1  -6   4  204.65    7.62
   1  -6  -4  184.87    7.55
   1  -6  -4  216.28    7.38
  -1  -6   4  200.04    6.96
   1  -6  -4  205.07    7.62
  -1  -6   4  200.73    7.24
   1   6  -4  206.48    7.03
  -1   6   4  192.55    7.67
   1   6  -4  201.01    7.05
  -1   6   4  203.36    8.06
  -1   6   4  203.41    7.89
  -1   6   4  207.46    7.72
   1   6  -4  201.57    7.36
  -1   6   4  196.20    7.87
  -1   6   4  215.47    7.75
   0  -6  -4   20.64    2.82
   0  -6  -4   15.33    2.51
   0  -6   4   16.19    2.09
   0  -6   4   15.77    2.12
   0  -6  -4   18.90    2.84
   0  -6  -4   16.10    2.45
   0  -6  -4   16.53    2.67
   0  -6   4   11.52    2.58
   0  -6  -4   21.20    2.70
   0  -6  -4   18.93    2.81
   0   6   4   15.86    2.63
   0   6  -4   17.12    2.34
   0   6   4   15.02    2.61
   0   6   4   18.50    2.88
   0   6  -4   13.84    2.02
   0   6   4   19.25    2.84
   0   6   4   14.52    2.48
   0   6  -4   17.26    2.32
   0   6   4   16.03    2.62
  -1  -6  -4   52.20    4.16
  -1  -6  -4   59.69    4.53
  -1  -6  -4   58.53    4.05
  -1  -6  -4   61.86    4.45
  -1  -6  -4   57.13    4.26
   1  -6   4   59.31    3.38
  -1  -6  -4   55.50    4.02
   1  -6   4   58.41    4.70
  -1   6  -4   59.11    2.66
  -1   6  -4   61.96    2.65
   1   6   4   53.50    4.21
   1   6   4   63.15    4.82
   1   6   4   58.44    4.51
  -1   6  -4   52.21    4.16
  -1   6  -4   59.21    2.67
   1   6   4   55.47    4.36
  -1   6  -4   61.74    2.65
   1   6   4   62.35    4.71
  -1   6  -4   62.29    4.19
  -1   6  -4   61.14    2.71
   1   6   4   56.30    4.66
  -2  -6  -4   53.87    4.94
  -2  -6  -4   49.64    4.58
  -2  -6  -4   50.75    4.11
   2  -6   4   52.13    2.13
   2  -6   4   49.22    2.03
  -2  -6  -4   48.27    4.50
  -2  -6  -4   47.71    4.07
  -2  -6  -4   48.97    4.24
   2  -6   4   43.82    5.09
  -2  -6  -4   47.72    2.93
   2   6   4   43.00    4.43
  -2   6  -4   43.70    4.31
  -2   6  -4   50.02    3.04
  -2   6  -4   49.05    3.17
   2   6   4   51.33    4.88
   2   6   4   52.00    4.94
   2   6   4   45.84    4.68
  -2   6  -4   46.96    3.08
  -2   6  -4   42.26    4.11
   2   6   4   50.85    4.21
   2   6   4   46.88    4.32
  -3  -6  -4    0.70    2.56
   3  -6   4    2.97    2.72
  -3  -6  -4    2.93    2.28
  -3  -6  -4    0.50    2.13
  -3  -6  -4    4.36    2.29
   3  -6   4    1.32    1.61
  -3  -6  -4    0.36    1.47
  -3  -6  -4    2.69    3.25
  -3   6  -4   -3.70    2.48
   3   6   4    2.96    3.14
  -3   6  -4   -2.08    1.80
  -3   6  -4    4.72    2.34
   3   6   4   -0.07    2.20
  -3   6  -4   -0.25    2.23
  -3   6  -4    1.09    1.70
  -3   6  -4    1.79    1.68
   3   6   4    1.36    2.23
   3   6   4   -1.07    2.17
  -3   6  -4    1.61    2.43
  -4  -6  -4   16.21    3.48
  -4  -6  -4   18.95    3.38
   4  -6   4   18.66    2.57
  -4  -6  -4   16.90    3.11
   4  -6   4   11.86    3.22
  -4  -6  -4   16.58    3.45
  -4  -6  -4   19.79    2.43
   4   6   4   20.58    3.72
  -4   6  -4   17.07    2.99
  -4   6  -4   17.88    3.69
  -4   6  -4   12.52    3.10
   4   6   4   19.58    3.86
  -4   6  -4   15.17    2.78
  -4   6  -4   15.57    3.48
  -4   6  -4   30.14    4.94
   4   6   4   18.93    3.84
  -5  -6  -4   25.03    4.58
  -5  -6  -4   15.93    3.57
  -5  -6  -4   21.88    4.34
   5  -6   4   18.95    3.95
   5  -6   4   13.93    3.00
  -5  -6  -4   16.41    2.59
  -5  -6  -4    9.18    4.06
   5   6   4   11.56    4.77
  -5   6  -4   19.99    4.11
   5   6   4   12.97    4.58
  -5   6  -4   18.37    3.43
  -5   6  -4   14.54    4.76
  -5   6  -4   20.52    4.61
  -5   6  -4   17.68    4.66
   5   6   4   20.77    4.58
  -6  -6  -4    3.79    2.86
  -6  -6  -4    4.93    4.21
   6  -6   4    6.55    1.87
  -6  -6  -4    6.05    4.68
   6  -6   4    3.17    3.14
   6  -6   4    5.22    3.94
   6   6   4   -5.63    3.87
  -6   6  -4    0.40    4.73
  -6   6  -4    4.56    4.38
  -6   6  -4    5.60    4.33
   6   6   4    3.98    4.69
  -6   6  -4   -0.09    3.42
  -7  -6  -4   36.11    5.83
  -7  -6  -4   30.20    4.91
  -7  -6  -4   25.06    7.32
   7  -6   4   31.63    5.71
  -7  -6  -4   35.87    4.63
  -7   6  -4   33.59    6.59
  -7   6  -4   31.36    7.00
  -7   6  -4   36.89    6.90
   7   6   4   39.50    6.89
   7   6   4   23.05    6.08
   7   6   4   46.71    6.86
  -7   6  -4   39.02    5.82
   8  -7  -4   17.10    4.96
  -8  -7   4    8.68    3.72
   8  -7  -4   -0.02    7.93
  -8  -7   4   10.22    3.63
   8  -7  -4    9.96    4.23
  -8   7   4   17.43    5.70
  -8   7   4    3.60    4.94
   8   7  -4    8.43    5.17
  -8   7   4    6.12    5.38
   8   7  -4   -7.12    5.48
   8   7  -4    9.65    4.79
  -7  -7   4   15.62    4.03
   7  -7  -4   22.67    4.96
   7  -7  -4   14.33    4.00
  -7  -7   4   12.21    3.52
   7  -7  -4   18.59    3.15
   7  -7  -4   18.38    5.32
  -7   7   4   12.18    4.75
   7   7  -4   -0.61    4.22
   7   7  -4   13.30    4.40
   7   7  -4   12.22    3.76
  -7   7   4   16.46    4.83
  -7   7   4   16.65    5.01
  -6  -7   4   67.57    7.29
  -6  -7   4   62.50    4.77
   6  -7  -4   65.60    4.78
   6  -7  -4   69.91    6.96
   6  -7  -4   62.57    6.16
  -6  -7   4   62.46    5.64
   6  -7  -4   84.56    7.45
   6   7  -4   70.21    5.77
   6   7  -4   61.39    7.34
  -6   7   4   67.84    7.81
   6   7  -4   72.66    4.86
  -6   7   4   73.73    6.40
  -6   7   4   72.20    7.12
   6   7  -4   79.82    6.69
   6   7  -4   63.57    6.25
  -6   7   4   74.17    7.39
   5  -7  -4    8.63    2.83
   5  -7  -4    8.70    2.14
  -5  -7   4   12.60    2.49
   5  -7  -4    9.14    3.10
  -5  -7   4   10.47    3.34
  -5  -7   4    5.24    1.75
  -5  -7   4    8.71    3.01
   5  -7  -4    5.57    3.17
   5   7  -4    8.18    3.33
   5   7  -4   12.68    2.34
  -5   7   4    4.97    3.26
   5   7  -4   11.34    2.60
   5   7  -4    7.45    2.56
  -5   7   4    2.02    3.17
   5   7  -4    7.62    3.70
   5   7  -4    2.58    2.10
  -5   7   4    9.59    3.36
   4  -7  -4  217.77    9.25
   4  -7  -4  200.31    7.74
  -4  -7   4  209.15    5.87
  -4  -7   4  203.43    8.68
   4  -7  -4  208.43   10.85
   4  -7  -4  200.03    9.46
  -4  -7   4  211.69    8.98
  -4  -7   4  208.39    5.88
   4  -7  -4  209.99    8.95
   4  -7  -4  202.22    8.52
  -4   7   4  204.92    8.30
   4   7  -4  204.89    9.18
   4   7  -4  207.15    7.83
  -4   7   4  201.35    8.88
  -4   7   4  207.48    9.61
   4   7  -4  200.49    7.35
  -4   7   4  205.77    9.12
  -4   7   4  218.11    8.01
   4   7  -4  210.11    7.51
   4   7  -4  203.92    7.53
  -4   7   4  194.57    9.01
   4   7  -4  212.01    6.78
   3  -7  -4    3.81    2.13
   3  -7  -4    2.42    2.78
  -3  -7   4    3.89    2.34
   3  -7  -4    0.22    1.93
  -3  -7   4    7.96    2.22
   3  -7  -4    2.15    3.19
   3  -7  -4    1.21    2.72
  -3  -7   4    1.62    1.64
   3  -7  -4   -2.06    1.47
   3   7  -4    0.60    0.75
  -3   7   4    1.26    2.61
  -3   7   4    3.51    2.15
   3   7  -4    0.07    1.31
  -3   7   4    1.41    2.18
  -3   7   4    2.43    2.05
   3   7  -4   -0.15    1.17
   3   7  -4   -2.26    1.51
   3   7  -4    2.45    2.19
   3   7  -4   -1.09    1.12
  -3   7   4    2.74    2.32
   2  -7  -4  230.07    9.34
   2  -7  -4  228.58    8.73
   2  -7  -4  235.87    8.61
  -2  -7   4  228.10    8.63
   2  -7  -4  232.65    8.65
   2  -7  -4  221.43    8.59
  -2  -7   4  225.24    8.20
  -2  -7   4  232.62    8.47
   2  -7  -4  219.97    8.87
   2  -7  -4  235.57    9.18
  -2   7   4  222.38    9.03
  -2   7   4  224.10    9.27
   2   7  -4  241.79    8.70
  -2   7   4  229.84    8.98
   2   7  -4  243.03    6.76
   2   7  -4  233.21    6.62
   2   7  -4  236.35    7.50
   2   7  -4  237.02    6.42
  -2   7   4  240.79    9.26
  -2   7   4  229.94    8.44
  -2   7   4  221.23    9.02
   2   7  -4  229.88    6.47
   2   7  -4  226.59    8.76
   1  -7  -4    3.73    2.45
  -1  -7   4    1.88    1.89
   1  -7  -4    1.39    1.89
   1  -7  -4   -1.80    1.98
   1  -7  -4    0.47    2.67
  -1  -7   4    5.56    2.38
   1  -7  -4    1.54    1.79
  -1  -7   4    0.32    1.61
   1  -7  -4    2.31    1.78
   1  -7  -4    4.02    1.93
   1   7  -4    2.71    0.59
  -1   7   4    0.31    1.90
  -1   7   4    3.19    2.39
   1   7  -4    1.88    1.52
  -1   7   4    2.78    2.18
  -1   7   4    4.00    2.14
   1   7  -4    3.50    1.79
  -1   7   4    0.87    2.29
   1   7  -4    4.83    1.68
   1   7  -4    3.38    0.65
  -1   7   4    2.17    1.98
   0  -7  -4  182.69    7.62
   0  -7   4  177.92    6.69
   0  -7  -4  192.69    8.10
   0  -7  -4  191.75    8.04
   0  -7   4  188.13    7.89
   0  -7  -4  173.54    7.53
   0  -7  -4  195.83    7.48
   0  -7  -4  194.79    7.65
   0  -7   4  187.01    6.82
   0   7  -4  179.11    7.23
   0   7   4  187.81    7.86
   0   7   4  176.61    7.77
   0   7  -4  188.93    5.16
   0   7  -4  184.12    5.21
   0   7  -4  189.76    4.91
   0   7   4  191.09    8.04
   0   7  -4  179.25    4.92
   0   7  -4  178.63    6.40
   0   7  -4  187.52    7.16
   0   7   4  185.62    7.85
   0   7   4  198.98    8.18
   0   7   4  172.06    7.76
  -1  -7  -4   31.90    4.06
   1  -7   4   45.46    6.77
  -1  -7  -4   36.96    4.36
  -1  -7  -4   34.85    3.67
  -1  -7  -4   37.61    2.83
  -1  -7  -4   31.92    3.74
   1  -7   4   41.96    3.28
  -1  -7  -4   33.88    4.02
  -1  -7  -4   38.67    3.71
   1   7   4   34.69    3.86
  -1   7  -4   38.98    2.43
   1   7   4   32.07    3.70
   1   7   4   34.08    3.99
   1   7   4   38.99    4.15
  -1   7  -4   33.79    3.78
   1   7   4   36.72    4.81
   1   7   4   35.55    4.68
  -1   7  -4   32.57    2.16
  -1   7  -4   31.74    3.90
  -1   7  -4   35.66    2.10
  -1   7  -4   34.89    2.21
  -2  -7  -4   41.27    3.92
  -2  -7  -4   41.58    4.85
  -2  -7  -4   38.61    4.42
   2  -7   4   47.87    7.40
  -2  -7  -4   46.49    4.47
  -2  -7  -4   43.16    4.14
   2   7   4   54.11    5.28
   2   7   4   38.32    4.58
   2   7   4   46.15    4.65
  -2   7  -4   38.00    3.09
  -2   7  -4   44.21    3.49
  -2   7  -4   44.46    3.40
  -2   7  -4   39.95    2.93
  -2   7  -4   38.91    4.54
   2   7   4   36.49    4.70
  -2   7  -4   45.50    4.35
  -3  -7  -4   84.91    6.75
   3  -7   4   83.19    3.58
  -3  -7  -4   73.55    5.10
  -3  -7  -4   80.83    5.57
  -3  -7  -4   83.27    5.70
   3  -7   4   86.07    6.24
   3  -7   4   76.11    3.83
  -3  -7  -4   78.08    6.11
  -3  -7  -4   79.91    6.05
   3   7   4   82.89    6.16
   3   7   4   89.96    6.30
   3   7   4   78.41    5.93
   3   7   4   86.41    7.32
  -3   7  -4   69.08    6.54
  -3   7  -4   87.89    4.86
  -3   7  -4   85.55    5.04
  -3   7  -4   80.68    6.16
  -3   7  -4   83.48    5.38
  -3   7  -4   88.76    6.23
  -3   7  -4   79.12    4.54
  -4  -7  -4    5.33    3.84
  -4  -7  -4   -1.52    2.37
   4  -7   4    3.11    2.75
  -4  -7  -4   -5.98    2.62
  -4  -7  -4    3.00    3.02
   4   7   4    1.67    3.47
   4   7   4    0.62    3.08
  -4   7  -4   -3.13    3.28
  -4   7  -4    6.35    3.42
  -4   7  -4    2.93    2.27
  -4   7  -4   -2.46    2.96
   4   7   4   -0.89    3.16
  -4   7  -4    0.70    2.51
   5  -7   4   28.76    3.54
  -5  -7  -4   31.79    6.13
  -5  -7  -4   36.12    5.22
  -5  -7  -4   30.33    3.69
   5  -7   4   35.79    5.40
  -5  -7  -4   41.63    5.51
  -5  -7  -4   34.42    5.01
  -5   7  -4   44.39    6.36
   5   7   4   33.90    5.70
  -5   7  -4   35.65    4.45
   5   7   4   34.87    8.49
  -5   7  -4   30.57    4.67
   5   7   4   23.24    7.42
  -6  -7  -4   45.80    5.00
  -6  -7  -4   54.00    7.11
  -6  -7  -4   50.47    7.52
   6  -7   4   48.37    6.30
  -6  -7  -4   47.78    5.98
   6   7   4   52.34    7.09
  -6   7  -4   52.23    6.73
   6   7   4   46.20    6.60
   6   7   4   59.24    7.23
  -6   7  -4   43.11    6.67
  -6   7  -4   39.66    5.52
  -6   7  -4   46.80    6.61
   7  -7   4    5.35    4.37
  -7  -7  -4   10.83    6.49
  -7  -7  -4    4.82    3.90
  -7  -7  -4    8.50    5.51
  -7   7  -4    0.75    5.79
   7   7   4    1.55    5.48
   7   7   4    7.47    5.95
   7   7   4    7.54    6.01
  -7   7  -4    5.30    5.19
  -7   7  -4   -3.09    5.93
  -7   7  -4   11.22    6.76
  -8  -8   4  134.38    9.12
  -8  -8   4   83.81    8.08
   8  -8  -4  110.82    9.92
   8  -8  -4  105.23   11.21
   8  -8  -4   88.45    8.86
   8   8  -4  101.64    9.45
   8   8  -4  106.43   12.04
  -8   8   4   97.55   11.01
  -8   8   4   98.73   10.53
  -8   8   4  115.02   11.39
   8   8  -4  103.49   10.04
   7  -8  -4   20.15    4.75
   7  -8  -4   11.99    4.34
  -7  -8   4   19.81    4.81
  -7  -8   4    7.67    4.00
   7  -8  -4   15.39    6.51
  -7   8   4   11.27    4.90
  -7   8   4    9.71    5.23
   7   8  -4   15.14    4.25
  -7   8   4   18.81    5.44
   7   8  -4   23.42    5.97
   7   8  -4   11.63    5.37
  -6  -8   4   67.07   10.04
   6  -8  -4   68.66    7.58
   6  -8  -4   68.63    7.33
  -6  -8   4   66.49    6.23
   6  -8  -4   70.81    6.97
   6  -8  -4   69.40    4.89
   6   8  -4   60.07    6.47
   6   8  -4   57.21    8.94
  -6   8   4   66.79    7.23
   6   8  -4   71.18    6.16
  -6   8   4   61.90    7.37
  -6   8   4   65.97    7.78
  -5  -8   4   14.08    1.98
  -5  -8   4   12.26    2.27
   5  -8  -4   13.98    4.02
   5  -8  -4   12.65    2.46
  -5  -8   4   10.71    3.34
  -5  -8   4   14.72    3.63
   5  -8  -4   18.72    3.74
   5  -8  -4   19.32    3.72
   5   8  -4   11.44    2.87
   5   8  -4   16.91    4.26
   5   8  -4   18.41    3.25
   5   8  -4   15.02    1.71
   5   8  -4   11.62    2.98
  -5   8   4   13.44    4.18
  -5   8   4   14.88    4.47
  -5   8   4   14.49    4.37
   4  -8  -4   -0.36    1.94
   4  -8  -4   -0.79    3.65
   4  -8  -4    7.77    2.90
   4  -8  -4   -1.03    2.59
  -4  -8   4    4.31    2.46
  -4  -8   4    5.02    2.84
  -4   8   4    7.25    3.07
   4   8  -4    3.07    1.88
  -4   8   4    5.17    2.71
  -4   8   4    3.85    4.13
   4   8  -4    0.42    2.66
   4   8  -4    2.59    1.80
  -4   8   4   -0.75    2.69
   4   8  -4    2.97    1.27
   4   8  -4    5.31    2.06
  -4   8   4   -1.37    2.35
   4   8  -4    6.76    2.84
   4   8  -4    2.79    1.10
  -4   8   4    2.08    3.08
   3  -8  -4   41.26    5.01
  -3  -8   4   47.72    4.53
   3  -8  -4   42.25    3.96
   3  -8  -4   57.90    4.97
   3  -8  -4   42.98    5.42
  -3  -8   4   50.11    3.61
  -3  -8   4   44.60    4.33
   3  -8  -4   44.05    4.31
   3  -8  -4   39.72    4.36
   3   8  -4   45.06    2.84
  -3   8   4   45.15    5.28
  -3   8   4   45.06    4.77
   3   8  -4   45.12    2.73
   3   8  -4   55.27    3.68
   3   8  -4   48.56    4.85
   3   8  -4   37.88    4.96
   3   8  -4   45.66    2.90
   3   8  -4   47.55    2.41
   3   8  -4   48.44    2.75
  -3   8   4   49.05    5.02
  -3   8   4   44.35    4.67
  -3   8   4   36.43    4.68
   2  -8  -4   59.89    5.06
   2  -8  -4   51.54    4.28
  -2  -8   4   58.80    4.10
  -2  -8   4   56.60    4.62
   2  -8  -4   58.57    4.69
   2  -8  -4   51.34    4.73
  -2  -8   4   58.39    4.32
   2  -8  -4   54.89    4.41
  -2   8   4   52.65    4.85
  -2   8   4   64.22    4.88
   2   8  -4   56.57    3.95
   2   8  -4   60.25    4.95
   2   8  -4   58.75    2.47
  -2   8   4   61.58    5.37
   2   8  -4   54.06    3.40
  -2   8   4   49.18    4.70
   2   8  -4   57.41    2.79
   2   8  -4   57.32    2.35
  -2   8   4   60.60    4.97
   1  -8  -4   47.25    3.95
  -1  -8   4   48.26    4.67
  -1  -8   4   48.87    3.75
  -1  -8   4   37.97    3.97
   1  -8  -4   46.40    3.95
   1  -8  -4   45.03    4.27
   1  -8  -4   41.80    4.37
  -1   8   4   37.86    4.31
  -1   8   4   56.00    5.19
   1   8  -4   44.80    3.60
  -1   8   4   35.05    4.30
  -1   8   4   53.59    4.77
  -1   8   4   39.74    4.13
   1   8  -4   47.59    3.45
   1   8  -4   47.27    2.13
   1   8  -4   41.39    4.31
   1   8  -4   45.24    2.27
   0  -8  -4  145.48    7.22
   0  -8  -4  149.42    7.14
   0  -8   4  161.63    6.54
   0  -8  -4  159.61    7.15
   0  -8   4  158.90    6.60
   0  -8  -4  150.46    6.80
   0  -8  -4  148.49    7.74
   0  -8   4  162.40    8.61
   0   8   4  156.34    7.57
   0   8  -4  158.49    4.88
   0   8   4  160.97    7.70
   0   8   4  148.84    7.49
   0   8   4  150.15    7.36
   0   8  -4  161.64    4.90
   0   8  -4  151.69    6.89
   0   8   4  162.86    7.50
   0   8  -4  154.84    4.29
   0   8  -4  153.56    6.45
   1  -8   4    5.68    2.14
  -1  -8  -4    6.98    1.55
  -1  -8  -4    5.43    2.46
  -1  -8  -4    9.17    2.42
   1  -8   4    3.04    3.68
  -1  -8  -4    4.53    2.15
  -1  -8  -4    1.65    3.14
  -1  -8  -4    2.51    2.84
  -1   8  -4    8.03    1.64
  -1   8  -4    6.78    1.37
  -1   8  -4    8.16    1.50
   1   8   4    7.08    2.68
  -1   8  -4    4.57    2.31
   1   8   4    9.21    2.44
   1   8   4    7.22    3.29
   1   8   4    3.20    2.37
  -1   8  -4    9.34    2.55
  -1   8  -4    6.77    1.21
  -1   8  -4    7.59    1.25
   1   8   4    5.36    2.44
  -2  -8  -4  132.02    7.29
  -2  -8  -4  138.62    6.73
  -2  -8  -4  128.67    4.58
  -2  -8  -4  128.62    6.96
  -2  -8  -4  132.67    4.40
  -2  -8  -4  132.37    7.62
  -2  -8  -4  143.44    7.53
   2  -8   4  127.23    7.17
   2   8   4  122.01    7.22
   2   8   4  129.96    7.36
  -2   8  -4  141.38    7.36
  -2   8  -4  131.77    5.18
   2   8   4  137.53    8.56
  -2   8  -4  130.27    7.23
  -2   8  -4  125.13    5.37
   2   8   4  144.67    7.83
  -2   8  -4  131.84    5.80
  -3  -8  -4    5.61    4.23
   3  -8   4    4.47    2.87
  -3  -8  -4    0.86    2.36
  -3  -8  -4   -1.35    1.84
   3  -8   4    1.05    1.38
  -3  -8  -4    2.82    3.63
  -3  -8  -4    0.20    1.22
  -3  -8  -4    0.57    2.78
  -3  -8  -4    2.15    2.68
  -3  -8  -4   -0.08    1.01
   3  -8   4    2.46    1.24
  -3   8  -4   -1.96    2.06
  -3   8  -4    1.89    2.27
   3   8   4    3.44    3.37
  -3   8  -4   -4.70    3.12
  -3   8  -4    6.02    1.98
   3   8   4    3.38    3.25
  -3   8  -4   -1.27    3.19
   3   8   4    0.06    3.23
  -3   8  -4    1.30    2.62
   3   8   4    0.53    5.00
   4  -8   4  103.49    7.69
  -4  -8  -4   93.97    6.88
  -4  -8  -4   85.32    7.32
   4  -8   4  107.12    4.91
  -4  -8  -4  103.59    7.21
  -4  -8  -4   98.69    3.74
  -4   8  -4   98.84    6.50
   4   8   4  115.20    9.17
  -4   8  -4   96.67    6.59
  -4   8  -4  113.98    8.86
   4   8   4  104.75    8.71
  -4   8  -4  101.48    8.85
   4   8   4  111.21    8.85
  -4   8  -4   94.21    6.28
  -5  -8  -4   -3.71    2.67
   5  -8   4   -2.30    3.33
  -5  -8  -4   -2.68    3.90
  -5  -8  -4   -1.48    4.02
  -5   8  -4    0.77    4.76
   5   8   4    8.23    4.36
  -5   8  -4   -4.41    4.06
   5   8   4   -0.44    4.08
  -5   8  -4   -0.28    3.62
   5   8   4    3.86    4.96
  -5   8  -4    3.40    3.67
  -6  -8  -4   56.02    6.40
  -6  -8  -4   47.48    8.10
  -6  -8  -4   44.50    6.25
   6  -8   4   69.89    7.42
  -6   8  -4   57.81    7.72
  -6   8  -4   54.25    7.09
   6   8   4   49.64    7.10
  -6   8  -4   49.80    7.34
   6   8   4   48.43    7.06
   6   8   4   77.81    9.84
   7  -8   4   10.82    4.92
  -7  -8  -4   10.28    7.62
  -7  -8  -4    7.65    4.12
  -7  -8  -4   11.04    5.99
   7   8   4   10.10    6.70
  -7   8  -4    4.75    6.54
  -7   8  -4   -5.14    6.46
  -7   8  -4    4.76    5.35
   7   8   4   12.48    6.71
   7   8   4   10.68    6.95
  -7   8  -4   18.45    7.23
   7  -9  -4   85.48    8.50
  -7  -9   4   54.41    6.73
   7  -9  -4   51.59    8.67
  -7  -9   4   60.24    7.33
   7  -9  -4   67.45    7.83
  -7   9   4   45.13    7.08
  -7   9   4   58.90    7.64
  -7   9   4   59.72    7.65
   7   9  -4   78.48    9.56
   7   9  -4   61.49    7.34
   7   9  -4   54.41   10.90
   6  -9  -4    2.15    2.71
   6  -9  -4   -1.90    4.59
   6  -9  -4    3.05    3.83
  -6  -9   4    6.77    3.97
  -6  -9   4    2.27    3.32
  -6   9   4   11.00    5.34
   6   9  -4    6.95    5.15
   6   9  -4    5.58    3.41
   6   9  -4   -1.04    3.33
  -6   9   4   10.65    4.70
  -6   9   4   10.14    4.70
  -5  -9   4   22.35    4.26
   5  -9  -4   22.57    4.42
   5  -9  -4   33.40    4.31
   5  -9  -4   25.97    5.03
  -5  -9   4   23.04    4.36
   5   9  -4   23.49    5.80
  -5   9   4   25.14    4.98
  -5   9   4   17.18    5.26
  -5   9   4   33.44    8.95
   5   9  -4   19.65    3.71
   5   9  -4   24.17    3.68
  -5   9   4   20.68    4.37
   4  -9  -4   16.16    3.28
  -4  -9   4   12.48    3.44
   4  -9  -4   16.55    3.95
   4  -9  -4   14.00    3.76
  -4  -9   4   15.16    3.46
   4  -9  -4   11.32    4.54
   4  -9  -4   15.36    2.85
   4   9  -4   16.06    2.62
   4   9  -4   12.36    2.57
  -4   9   4    7.14    3.93
  -4   9   4   22.23    5.02
   4   9  -4   15.23    4.55
  -4   9   4   18.45    3.19
   4   9  -4   20.40    3.79
   4   9  -4   17.88    2.53
  -4   9   4   13.46    3.49
  -4   9   4   21.21    4.62
  -3  -9   4    8.42    2.25
  -3  -9   4    2.44    2.53
   3  -9  -4    5.28    2.69
   3  -9  -4    9.10    3.12
   3  -9  -4    8.61    2.59
   3  -9  -4    7.91    3.89
   3  -9  -4    0.58    3.71
  -3  -9   4    2.44    2.54
   3   9  -4    9.20    1.71
   3   9  -4    6.03    2.55
  -3   9   4    7.92    3.60
  -3   9   4    8.99    4.67
   3   9  -4    4.50    3.21
  -3   9   4    2.74    3.52
   3   9  -4    6.72    1.92
   3   9  -4    6.56    1.61
  -3   9   4    5.85    3.26
  -3   9   4    5.56    3.17
   2  -9  -4   27.81    3.37
  -2  -9   4   20.55    3.07
   2  -9  -4   27.63    3.58
   2  -9  -4   16.54    3.34
  -2  -9   4   31.28    3.91
   2  -9  -4   22.28    3.67
   2  -9  -4   15.84    3.60
  -2  -9   4   21.79    3.22
   2   9  -4   24.96    2.44
  -2   9   4   21.19    4.33
   2   9  -4   22.07    3.85
   2   9  -4   26.78    1.91
  -2   9   4   29.30    4.12
   2   9  -4   26.76    2.93
  -2   9   4   24.57    4.11
   2   9  -4   26.55    3.08
   2   9  -4   20.84    2.09
  -2   9   4   27.12    3.86
  -2   9   4   18.18    3.65
   2   9  -4   23.30    2.42
  -1  -9   4   22.81    3.38
   1  -9  -4   27.42    3.23
  -1  -9   4   35.18    3.84
   1  -9  -4   31.51    3.73
   1  -9  -4   26.57    3.59
   1  -9  -4   24.92    3.62
  -1  -9   4   27.17    3.46
   1   9  -4   27.39    3.02
   1   9  -4   28.28    2.17
  -1   9   4   21.41    3.82
  -1   9   4   38.49    4.51
   1   9  -4   20.54    2.77
  -1   9   4   31.01    4.17
  -1   9   4   23.99    4.01
  -1   9   4   35.63    4.43
   1   9  -4   25.74    3.84
   0  -9  -4   26.05    3.35
   0  -9  -4   23.55    4.02
   0  -9   4   19.37    4.02
   0  -9  -4   27.62    3.34
   0  -9  -4   25.37    3.85
   0  -9  -4   21.52    3.34
   0  -9  -4   22.83    3.58
   0  -9   4   32.27    3.81
   0   9  -4   27.96    1.52
   0   9  -4   29.90    2.65
   0   9   4   29.89    3.84
   0   9  -4   23.15    2.97
   0   9  -4   26.63    3.53
   0   9  -4   28.67    2.26
   0   9   4   28.39    4.36
   0   9   4   24.77    4.06
   0   9   4   25.39    3.66
  -1  -9  -4  134.11    6.61
  -1  -9  -4  119.87    7.04
  -1  -9  -4  131.08    7.32
   1  -9   4  131.19    7.28
  -1  -9  -4  128.74    7.15
  -1  -9  -4  131.01    6.58
  -1  -9  -4  131.55    4.51
  -1   9  -4  123.30    6.58
   1   9   4  134.44    7.56
   1   9   4  128.20    8.69
  -1   9  -4  119.89    6.87
  -1   9  -4  146.86    5.53
  -1   9  -4  128.55    5.14
   1   9   4  128.31    7.55
  -1   9  -4  124.09    4.97
  -1   9  -4  128.86    4.74
   1   9   4  129.85    7.92
  -1   9  -4  132.12    4.50
  -1   9  -4  133.43    4.70
   1   9   4  134.22    7.17
  -2  -9  -4    2.27    2.24
  -2  -9  -4   -0.28    2.71
   2  -9   4    2.16    2.69
  -2  -9  -4    4.94    3.92
  -2  -9  -4    0.41    2.74
  -2  -9  -4    8.08    2.65
   2   9   4    6.56    3.25
  -2   9  -4    3.71    2.07
   2   9   4    8.68    3.92
   2   9   4   -0.15    3.56
  -2   9  -4    5.88    2.76
  -2   9  -4    7.53    2.82
  -2   9  -4    5.88    3.06
  -2   9  -4    6.58    1.64
   2   9   4   -4.80    4.65
  -2   9  -4    4.30    1.90
  -3  -9  -4  226.01   10.53
  -3  -9  -4  224.51   10.32
   3  -9   4  230.73   10.93
  -3  -9  -4  227.54    7.77
  -3  -9  -4  227.01    9.74
  -3   9  -4  226.43   10.73
  -3   9  -4  222.63   11.62
   3   9   4  224.74   11.40
  -3   9  -4  227.14    8.81
   3   9   4  226.59   11.56
  -3   9  -4  219.99    8.81
   3   9   4  211.91   10.99
  -3   9  -4  222.03    8.33
   4  -9   4   -0.22    3.24
  -4  -9  -4   -3.57    3.85
  -4  -9  -4   -0.33    2.55
  -4  -9  -4    3.21    4.18
   4   9   4    8.90    5.61
  -4   9  -4    0.96    3.20
  -4   9  -4    5.91    5.04
   4   9   4    4.69    3.84
   4   9   4    0.37    5.52
  -4   9  -4   -2.03    3.01
  -4   9  -4   -6.26    3.77
   5  -9   4  106.39    8.78
  -5  -9  -4  124.12    8.99
  -5  -9  -4  124.56   10.13
  -5  -9  -4  104.22    7.91
  -5   9  -4  112.47    9.17
   5   9   4  107.69    9.81
  -5   9  -4  121.81    8.04
  -5   9  -4  115.11    9.41
   5   9   4  109.64    9.39
  -5   9  -4  114.43   10.74
   5   9   4  122.00    9.49
  -6  -9  -4   10.78    5.27
  -6  -9  -4    8.11    4.01
   6  -9   4    3.70    4.45
  -6  -9  -4   18.82    8.08
  -6   9  -4   13.66    4.97
  -6   9  -4   14.47    6.39
   6   9   4    8.52    6.41
  -6   9  -4    2.15    5.44
   6   9   4   10.36    6.20
  -6   9  -4   -4.79    6.10
   6   9   4   14.59    6.76
  -7 -10   4   45.63    6.44
   7 -10  -4   49.09    6.89
   7  10  -4   55.72    8.68
  -7  10   4   48.54    7.77
   7  10  -4   45.41    6.26
   7  10  -4   45.52    7.54
  -7  10   4   29.35    6.98
  -7  10   4   61.90    8.70
   6 -10  -4    3.76    6.21
   6 -10  -4   11.73    4.56
  -6 -10   4   11.29    3.96
  -6 -10   4    5.35    3.51
   6  10  -4   14.10    5.80
   6  10  -4   10.00    5.27
  -6  10   4    9.46    5.35
  -6  10   4   -0.06    5.00
   6  10  -4    6.99    3.75
  -6  10   4   12.11    5.20
  -5 -10   4  109.49    7.95
   5 -10  -4  101.43    8.75
   5 -10  -4  101.96    8.44
   5 -10  -4  110.80    8.50
  -5 -10   4  112.17    7.47
   5  10  -4  107.93    7.36
  -5  10   4  111.11    9.00
  -5  10   4  101.88    8.63
   5  10  -4  103.44    6.90
  -5  10   4  123.99    9.76
   5  10  -4  118.85    9.85
   4 -10  -4    8.39    3.23
   4 -10  -4    6.41    3.62
  -4 -10   4    1.80    3.03
   4 -10  -4   -1.24    3.45
  -4 -10   4    4.85    3.40
  -4  10   4   -1.21    2.89
  -4  10   4    4.95    4.25
   4  10  -4   -3.13    2.70
   4  10  -4    6.09    4.76
  -4  10   4    5.20    3.72
   4  10  -4    7.04    2.36
   4  10  -4    2.12    3.30
   3 -10  -4  190.41   12.76
  -3 -10   4  186.97    7.60
   3 -10  -4  176.19    9.13
   3 -10  -4  186.98    8.11
   3 -10  -4  165.55    9.50
  -3 -10   4  175.09    8.66
  -3 -10   4  177.74    8.66
  -3  10   4  190.31   10.37
   3  10  -4  181.49    6.27
   3  10  -4  196.36    8.13
   3  10  -4  183.14    7.91
  -3  10   4  179.25   10.75
   3  10  -4  171.37   10.36
   3  10  -4  184.67    7.20
  -3  10   4  172.69    8.69
   3  10  -4  178.76    6.28
   2 -10  -4   -2.11    3.44
   2 -10  -4    3.40    3.86
  -2 -10   4    2.07    2.68
   2 -10  -4    1.35    3.31
   2 -10  -4    5.46    3.01
  -2 -10   4    9.46    3.08
   2 -10  -4    6.00    2.56
  -2 -10   4    3.57    2.53
   2  10  -4    3.39    2.50
   2  10  -4    0.49    3.29
   2  10  -4    7.22    1.85
  -2  10   4    2.20    3.45
  -2  10   4    1.98    4.15
  -2  10   4   -4.32    4.91
   2  10  -4    2.23    1.14
  -2  10   4   -2.25    3.07
   1 -10  -4  110.77    5.93
   1 -10  -4  111.89    7.19
  -1 -10   4  112.57    6.12
   1 -10  -4  112.82    6.95
  -1 -10   4  118.45    6.62
   1 -10  -4  107.28    5.97
   1 -10  -4  124.80    7.19
  -1 -10   4  107.59    6.27
  -1  10   4  126.66    7.79
   1  10  -4  120.15    5.20
  -1  10   4  110.82    7.75
   1  10  -4  115.18    4.68
  -1  10   4  109.41    9.21
  -1  10   4  118.29    7.77
   1  10  -4  119.20    7.84
   1  10  -4  115.71    6.12
   0 -10  -4   17.52    2.20
   0 -10  -4   15.04    3.65
   0 -10   4   18.10    3.56
   0 -10  -4   17.93    3.10
   0 -10  -4   19.32    3.99
   0 -10  -4   23.37    3.68
   0 -10  -4   21.54    4.09
   0  10   4   18.98    4.56
   0  10  -4   17.97    2.81
   0  10   4   27.23    4.40
   0  10  -4   21.30    1.54
   0  10   4   16.24    3.92
   0  10  -4   18.09    3.26
   0  10  -4   21.94    2.58
   0  10   4   22.83    5.32
   0  10  -4   20.86    2.15
   0  10  -4   17.18    3.31
   0  10   4   26.71    4.67
  -1 -10  -4   15.67    2.98
  -1 -10  -4   21.08    4.25
  -1 -10  -4   11.39    4.16
  -1 -10  -4   18.84    3.70
   1 -10   4   19.09    3.68
  -1 -10  -4   18.05    3.93
  -1  10  -4   20.15    2.15
  -1  10  -4   16.13    4.04
   1  10   4   18.47    4.52
  -1  10  -4   20.15    2.05
  -1  10  -4   23.85    3.19
   1  10   4   15.36    4.87
  -1  10  -4   16.65    2.31
  -1  10  -4   23.81    3.08
  -1  10  -4   19.26    3.30
   1  10   4   19.59    4.44
   1  10   4   15.22    3.96
  -1  10  -4   17.85    1.95
   1  10   4   12.80    5.49
  -2 -10  -4   31.13    3.59
   2 -10   4   29.66    4.70
  -2 -10  -4   24.76    3.60
  -2 -10  -4   31.36    4.69
  -2  10  -4   28.00    3.62
  -2  10  -4   31.43    2.91
   2  10   4   32.32    5.79
   2  10   4   32.95    9.34
  -2  10  -4   28.82    4.11
   2  10   4   34.54    5.63
  -2  10  -4   23.03    6.15
  -2  10  -4   36.12    4.00
  -2  10  -4   29.03    5.29
  -3 -10  -4    1.15    3.94
   3 -10   4    0.40    3.34
  -3 -10  -4   -2.15    2.50
  -3 -10  -4    0.66    3.37
  -3 -10  -4    1.96    2.87
   3  10   4    3.06    8.29
   3  10   4    2.87    4.41
   3  10   4    2.90    4.02
  -3  10  -4    2.36    2.82
  -3  10  -4    1.40    4.17
  -3  10  -4    5.88    4.35
  -3  10  -4    1.10    2.74
  -4 -10  -4   37.24    5.57
  -4 -10  -4   27.40    4.84
  -4 -10  -4   28.34    5.52
   4 -10   4   37.64    5.87
  -4  10  -4   29.94    7.72
  -4  10  -4   32.77    4.64
   4  10   4   40.91    6.37
   4  10   4   23.84    5.67
   4  10   4   48.44    6.94
  -4  10  -4   40.51    6.31
  -4  10  -4   33.54    4.31
  -5 -10  -4    4.78    4.78
  -5 -10  -4    2.54    6.42
  -5 -10  -4   14.03    4.44
   5 -10   4   18.56    5.03
   5  10   4    9.30    5.97
  -5  10  -4    6.97    3.88
  -5  10  -4   22.95    6.54
   5  10   4   13.19    5.58
   5  10   4   12.27    5.94
  -5  10  -4   10.74    5.77
  -5  10  -4   23.27    6.12
   6 -11  -4   39.07    5.97
  -6 -11   4   28.42    5.30
   6 -11  -4   43.80    7.14
  -6  11   4   44.63    7.31
   6  11  -4   52.23    8.22
  -6  11   4   37.28    7.31
   6  11  -4   43.57    8.31
   6  11  -4   31.71    4.92
  -6  11   4   46.68    7.59
   5 -11  -4    2.95    4.79
  -5 -11   4    1.89    3.26
   5 -11  -4    3.02    5.02
   5 -11  -4   -8.32    4.00
   5  11  -4    9.87    5.46
  -5  11   4   -1.81    5.18
   5  11  -4    0.67    3.07
  -5  11   4    6.32    5.33
   5  11  -4    3.50    4.37
  -5  11   4   -5.14    4.69
  -4 -11   4  105.52    7.64
   4 -11  -4  108.08    7.55
   4 -11  -4   99.83    9.05
   4 -11  -4  120.26    8.71
  -4  11   4  117.11    9.13
  -4  11   4  109.93    9.28
  -4  11   4  126.14    8.96
   4  11  -4  114.28   10.27
  -4  11   4  115.09    6.69
   4  11  -4  102.96    7.30
   4  11  -4  110.35    6.33
  -3 -11   4    2.22    3.20
   3 -11  -4    3.82    3.88
   3 -11  -4    2.80    3.19
   3 -11  -4    1.37    3.47
   3  11  -4    7.05    1.81
   3  11  -4    5.09    5.26
  -3  11   4    1.64    4.04
  -3  11   4    2.78    5.49
  -3  11   4    8.84    4.05
   3  11  -4   -4.08    2.69
   2 -11  -4  135.98    8.66
  -2 -11   4  160.60    8.15
   2 -11  -4  147.50    7.03
  -2 -11   4  156.07    7.48
   2 -11  -4  139.54    8.54
   2  11  -4  139.78    4.58
   2  11  -4  137.34    6.92
  -2  11   4  146.52    9.82
   2  11  -4  143.52    6.61
   2  11  -4  131.47    9.89
   2  11  -4  142.57    4.61
  -2  11   4  134.36    9.38
  -2  11   4  159.45    9.09
   1 -11  -4    2.28    3.10
   1 -11  -4   -1.28    3.43
  -1 -11   4   -0.45    2.68
   1 -11  -4   -0.87    2.55
  -1 -11   4   -1.74    2.74
  -1  11   4    1.62    3.26
   1  11  -4   -7.15    3.99
   1  11  -4   -2.46    2.57
  -1  11   4    9.05    4.40
  -1  11   4    3.82    4.17
   1  11  -4    0.48    2.11
   0 -11  -4  117.91    6.51
   0 -11  -4  118.03    7.84
   0 -11   4  106.08    7.20
   0 -11  -4  130.01    7.21
   0  11  -4  126.03    5.85
   0  11  -4  113.53    3.54
   0  11   4  119.19    8.08
   0  11   4  116.16    8.96
   0  11  -4  123.85    7.60
   0  11   4  116.23    8.87
   0  11  -4  119.25    6.27
   0  11   4  115.21    8.70
   0  11  -4  117.54    6.09
   1 -11   4   -0.35    3.06
  -1 -11  -4   -0.46    2.64
  -1 -11  -4    5.19    2.82
  -1 -11  -4    5.04    3.72
  -1 -11  -4   -1.09    2.88
   1  11   4    7.78    4.26
  -1  11  -4    2.73    2.48
  -1  11  -4    5.70    4.51
  -1  11  -4    2.80    2.22
  -1  11  -4    3.25    1.42
  -1  11  -4    4.72    2.95
   1  11   4   -1.60    3.44
   1  11   4    2.83    4.88
  -2 -11  -4   36.19    5.22
  -2 -11  -4   35.86    5.35
  -2 -11  -4   41.93    5.61
  -2 -11  -4   43.68    6.24
   2 -11   4   30.26    4.81
  -2  11  -4   32.49    5.90
  -2  11  -4   37.31    4.99
   2  11   4   34.93    5.82
   2  11   4   30.28    5.70
  -2  11  -4   31.45    4.48
  -2  11  -4   37.38    3.57
   2  11   4   33.45    5.64
  -3 -11  -4   25.24    4.85
   3 -11   4   17.51    4.49
  -3 -11  -4   21.75    5.17
  -3 -11  -4   20.82    4.26
  -3  11  -4   18.68    4.11
  -3  11  -4   21.04    5.51
  -3  11  -4   23.93    5.86
  -3  11  -4   18.93    3.89
   3  11   4   19.51    5.45
   3  11   4   20.46    5.84
   3  11   4   25.10    5.25
  -4 -11  -4   -0.75    3.52
  -4 -11  -4   -4.08    5.03
   4 -11   4    2.45    3.93
  -4  11  -4   -7.82    5.41
  -4  11  -4   -0.33    3.24
  -4  11  -4    4.27    5.03
   4  11   4   -5.30    5.59
   4  11   4    2.29    5.52
   4  11   4   -5.00    5.67
  -4  11  -4    5.11    5.74
   5 -11   4    9.86    4.92
  -5 -11  -4   12.03    5.56
  -5 -11  -4    2.17    4.14
  -5  11  -4   11.42    4.66
  -5  11  -4  -12.29    6.36
  -5  11  -4    1.19    6.24
   5  11   4   -5.73    6.64
  -5  11  -4   17.46    6.62
   5  11   4   15.90    7.12
  -5 -12   4   18.38    4.70
   5 -12  -4   28.73    5.55
  -5  12   4   19.25    6.59
   5  12  -4   27.99    4.23
  -5  12   4   39.16    7.23
  -5  12   4   18.65    6.75
   5  12  -4   41.92    7.99
  -4 -12   4    4.88    3.48
   4 -12  -4    0.71    4.02
   4 -12  -4   -1.14    4.17
  -4  12   4    1.99    5.24
  -4  12   4    1.77    5.75
  -4  12   4    5.62    5.03
   4  12  -4    2.41    5.81
   3 -12  -4   57.75    5.88
  -3 -12   4   57.10    6.15
   3 -12  -4   62.99    7.29
  -3  12   4   59.15    7.88
  -3  12   4   48.06    6.44
  -3  12   4   56.32    7.21
   3  12  -4   51.30    4.02
   3  12  -4   51.61    7.15
  -2 -12   4   18.27    3.73
   2 -12  -4   25.22    3.67
   2 -12  -4   26.32    4.92
  -2 -12   4   18.66    3.62
   2 -12  -4   14.53    5.19
  -2  12   4   23.17    4.76
  -2  12   4   19.12    5.55
  -2  12   4   20.74    5.45
   2  12  -4   25.84    5.83
   2  12  -4   16.55    3.47
   1 -12  -4   52.93    6.48
  -1 -12   4   66.98    6.22
   1 -12  -4   54.89    5.38
   1 -12  -4   71.91    8.54
  -1 -12   4   77.28    6.34
  -1  12   4   59.73    7.73
  -1  12   4   70.78    8.15
   1  12  -4   51.00    6.04
   1  12  -4   52.96    6.60
  -1  12   4   65.80    7.25
   0 -12  -4   31.23    4.50
   0 -12   4   26.23    4.55
   0 -12  -4   36.40    5.50
   0 -12  -4   44.73    4.98
   0  12  -4   37.57    6.04
   0  12   4   31.39    5.47
   0  12   4   34.28    5.32
   0  12  -4   39.73    6.15
   0  12  -4   39.36    4.80
   0  12   4   41.16    5.80
   0  12   4   39.79    6.08
  -1 -12  -4   13.97    3.44
   1 -12   4   11.83    4.04
  -1 -12  -4    4.38    6.97
  -1 -12  -4   12.13    3.42
  -1 -12  -4    7.30    3.38
   1  12   4    1.08    4.42
  -1  12  -4    4.70    3.53
  -1  12  -4   14.85    5.17
   1  12   4   15.40    4.90
   1  12   4    4.34    4.40
  -1  12  -4    8.37    1.83
  -2 -12  -4   66.91    7.01
   2 -12   4   68.58    7.27
  -2 -12  -4   72.36    6.20
   2  12   4   72.27    8.98
   2  12   4   70.56    7.54
  -2  12  -4   85.60    9.01
   2  12   4   62.81    7.23
  -2  12  -4   75.09    5.00
  -2  12  -4   63.47    8.24
  -3 -12  -4   -2.46    3.35
   3 -12   4   -0.93    4.00
  -3  12  -4   -7.07    5.78
   3  12   4   -7.58    6.22
   3  12   4    0.88    5.85
  -3  12  -4    1.17    2.78
   3  12   4   -1.52    4.82
  -3 -13   4    0.40    3.54
   3 -13  -4    7.49    4.53
  -3  13   4    3.48    6.38
  -3  13   4   12.55    6.04
   3  13  -4   14.05    6.42
  -3  13   4   10.04    5.70
  -2 -13   4   -1.03    3.96
   2 -13  -4   -5.54    3.82
  -2 -13   4   -3.28    3.51
  -2  13   4    3.97    5.63
   2  13  -4   -2.44    6.07
  -2  13   4    0.95    4.93
  -2  13   4    2.05    5.57
  -1 -13   4   21.47    4.82
   1 -13  -4   25.79    5.04
  -1  13   4   16.65    6.50
  -1  13   4   28.24    5.95
  -1  13   4   32.55    5.92
   1  13  -4   17.49    6.09
   1  13  -4   17.62    5.84
  -1  13   4   21.00    5.68
   0 -13  -4   -4.10    3.90
   0 -13   4   -3.27    3.92
   0  13   4   -3.68    4.94
   0  13  -4    7.04    4.96
   0  13   4    1.32    5.17
   0  13   4    0.47    5.40
   0  13   4    9.66    4.92
   0  13  -4    7.35    5.67
   1 -13   4  114.81    8.81
  -1 -13  -4  111.67    7.80
   1  13   4  103.88    9.93
   1  13   4  129.15   10.79
  -1  13  -4  119.99    9.96
   1  13   4  112.73   11.41
  -2 -13  -4    2.73    4.06
   2 -13   4    4.80    4.50
   2  13   4   18.17    5.97
   2  13   4   11.58    7.01
   2  13   4   19.38    6.72
  -2  13  -4   -5.81    5.55
 -10   0   5    9.30    7.53
 -10   0   5    4.26    5.98
  10   0  -5    2.94    5.75
  10   0  -5    5.66    6.41
  10   0  -5    1.78    6.11
  10   0  -5   -5.82    3.83
 -10   0   5    7.80    3.70
 -10   0   5    1.24    3.78
   9   0  -5   93.96    9.14
  -9   0   5   64.72    8.31
  -9   0   5   80.80    6.31
   9   0  -5   88.76    6.49
   9   0  -5   92.32    9.38
  -9   0   5   90.04    5.87
   9   0  -5   85.21    8.61
  -9   0   5   77.36    8.20
  -8   0   5   -0.37    3.69
  -8   0   5   -1.91    2.12
  -8   0   5    6.15    2.78
   8   0  -5    2.24    4.28
   8   0  -5    0.21    3.85
  -8   0   5    0.08    4.27
   8   0  -5    5.39    2.73
  -7   0   5  292.37   11.00
  -7   0   5  294.86    9.60
   7   0  -5  291.39   12.00
  -7   0   5  290.35   11.58
   7   0  -5  288.14   11.91
   7   0  -5  273.84   12.56
   7   0  -5  277.22   11.33
  -7   0   5  305.68   11.72
  -7   0   5  297.99   10.81
   7   0  -5  295.61   12.00
  -6   0   5    0.16    2.21
   6   0  -5    1.76    1.89
   6   0  -5   -1.09    2.36
  -6   0   5   -1.64    2.61
  -6   0   5    1.24    1.50
  -6   0   5    0.64    2.01
   6   0  -5   -0.34    2.02
  -6   0   5   -0.09    1.86
  -6   0   5   -5.10    3.06
   6   0  -5    2.15    2.44
   6   0  -5    0.39    2.27
   5   0  -5  269.00    9.80
  -5   0   5  286.98    9.61
   5   0  -5  282.21    8.64
  -5   0   5  260.76    9.72
   5   0  -5  288.77   10.13
   5   0  -5  279.17   10.26
   5   0  -5  256.15    9.63
  -5   0   5  270.46    9.67
  -5   0   5  263.77    9.85
   5   0  -5  271.93    9.86
  -5   0   5  272.22    9.30
   5   0  -5  266.14    9.96
   5   0  -5  268.03    9.80
  -5   0   5  280.31    9.58
  -5   0   5  275.03    8.74
  -4   0   5    0.42    1.57
  -4   0   5    1.32    1.67
   4   0  -5   -0.70    1.44
  -4   0   5   -0.10    1.54
   4   0  -5    2.05    1.88
   4   0  -5    1.58    1.79
  -4   0   5   -2.15    1.77
   4   0  -5    1.33    1.57
   4   0  -5    0.34    1.47
  -4   0   5    0.15    1.50
   4   0  -5    1.40    1.62
   4   0  -5   -0.39    1.47
  -4   0   5    1.44    1.29
  -4   0   5    0.04    1.44
  -3   0   5  337.46   11.26
  -3   0   5  342.39   10.39
  -3   0   5  353.52   10.45
   3   0  -5  345.96   10.48
   3   0  -5  348.78   10.17
   3   0  -5  344.92   10.36
  -3   0   5  341.91   10.05
   3   0  -5  324.00   10.37
   3   0  -5  324.60   10.42
   3   0  -5  347.95   11.00
  -3   0   5  349.77   10.08
  -3   0   5  343.95   10.12
   3   0  -5  341.67   11.00
  -2   0   5    1.37    1.05
   2   0  -5   -1.20    1.00
  -2   0   5    1.06    0.93
  -2   0   5    0.19    0.96
  -2   0   5    0.82    0.98
  -2   0   5    1.94    1.31
   2   0  -5    0.55    1.07
  -2   0   5    1.58    0.77
  -2   0   5    0.28    1.40
   2   0  -5    0.50    1.09
   2   0  -5    0.80    1.38
   2   0  -5   -0.26    1.93
   2   0  -5    1.13    1.11
   1   0  -5   31.79    2.77
   1   0  -5   32.00    2.44
  -1   0   5   35.78    2.68
  -1   0   5   36.34    2.37
   1   0  -5   37.12    2.46
   1   0  -5   36.27    2.75
  -1   0   5   28.89    2.52
   1   0  -5   34.50    2.85
  -1   0   5   35.50    2.05
  -1   0   5   37.24    2.34
   0   0  -5    1.36    1.10
   0   0  -5   -2.03    1.02
   0   0   5    0.00    0.97
   0   0   5   -0.81    1.08
   0   0  -5    0.71    1.10
   0   0   5    0.88    1.15
   0   0   5    0.30    0.80
   0   0  -5    0.22    1.12
   0   0   5   -0.10    0.98
  -1   0  -5   32.51    1.70
  -1   0  -5   31.25    2.63
  -1   0  -5   34.13    1.48
   1   0   5   30.74    2.60
  -1   0  -5   32.97    2.71
   1   0   5   29.63    2.21
   1   0   5   35.00    2.78
  -1   0  -5   30.94    2.60
   1   0   5   34.26    2.68
   1   0   5   29.88    2.51
   1   0   5   30.23    1.67
  -1   0  -5   32.56    2.74
  -1   0  -5   34.62    2.77
  -2   0  -5    0.32    1.48
  -2   0  -5    0.84    1.02
   2   0   5   -0.59    1.43
   2   0   5    0.81    1.67
  -2   0  -5    0.86    1.59
  -2   0  -5   -0.35    1.34
   2   0   5   -1.98    1.27
  -2   0  -5   -0.03    1.66
  -2   0  -5    0.14    1.36
  -2   0  -5   -0.09    1.18
   2   0   5   -0.81    0.96
  -2   0  -5    1.25    1.10
   2   0   5    0.28    1.38
   3   0   5   28.05    2.96
   3   0   5   31.98    3.74
  -3   0  -5   28.12    2.79
   3   0   5   34.14    3.15
   3   0   5   31.16    3.13
   3   0   5   27.40    3.27
  -3   0  -5   31.72    3.88
  -3   0  -5   25.91    3.15
  -3   0  -5   27.18    3.56
  -3   0  -5   27.77    3.43
  -3   0  -5   29.27    3.57
   3   0   5   22.95    2.86
   3   0   5   28.52    3.35
  -3   0  -5   29.73    3.22
   4   0   5   -2.45    1.97
  -4   0  -5   -0.71    2.21
  -4   0  -5    3.14    2.16
   4   0   5    3.27    2.21
   4   0   5   -1.08    1.97
  -4   0  -5   -0.53    2.10
   4   0   5    3.53    2.02
   4   0   5    4.28    2.25
  -4   0  -5    4.06    2.23
   4   0   5    1.14    1.72
  -4   0  -5   -9.87    4.82
  -4   0  -5   -3.74    2.63
  -4   0  -5    2.08    1.66
   5   0   5   55.10    5.29
  -5   0  -5   63.13    7.51
  -5   0  -5   55.88    6.38
  -5   0  -5   70.56    4.50
  -5   0  -5   57.85    5.43
   5   0   5   60.46    5.98
   5   0   5   61.43    5.17
   5   0   5   65.33    5.05
   5   0   5   61.06    5.26
  -5   0  -5   60.46    5.54
   5   0   5   63.43    5.71
  -5   0  -5   60.00    5.99
   6   0   5    2.27    2.78
  -6   0  -5    4.25    4.00
   6   0   5    6.55    4.17
  -6   0  -5    1.71    3.96
  -6   0  -5    1.09    3.92
   6   0   5    0.95    3.08
   6   0   5    1.94    3.54
  -6   0  -5    1.09    2.38
   6   0   5   -6.00    3.38
  -7   0  -5  142.72    7.83
  -7   0  -5  135.85   10.08
   7   0   5  146.60    9.74
  -7   0  -5  124.86    9.52
   7   0   5  155.82   10.85
   7   0   5  150.16   10.45
   7   0   5  147.62    7.92
  -7   0  -5  157.15    9.78
  -8   0  -5  -10.49    5.46
  -8   0  -5    6.32    3.64
  -8   0  -5    1.53    5.67
   8   0   5   -4.45    5.22
   8   0   5   -0.20    6.65
  -8   0  -5    0.02    5.46
  10  -1  -5    8.94    6.53
  10  -1  -5    2.55    6.04
 -10  -1   5   17.06    6.11
  10  -1  -5   12.52    4.57
  10  -1  -5    7.45    6.54
 -10  -1   5   11.89    4.39
 -10  -1   5   11.45    7.78
  10   1  -5   21.57    6.82
 -10   1   5   14.07    4.20
 -10   1   5    7.50    5.94
  10   1  -5   15.70    7.08
 -10   1   5   20.67    7.45
  10   1  -5    4.82    6.17
   9  -1  -5   32.88    6.09
   9  -1  -5   22.34    5.45
  -9  -1   5   26.52    5.17
  -9  -1   5   25.21    4.63
  -9  -1   5   10.10    3.52
  -9  -1   5   12.36    5.52
   9  -1  -5   25.06    4.44
  -9   1   5   25.48    5.42
   9   1  -5   22.22    5.61
   9   1  -5   16.73    5.93
  -9   1   5   24.83    4.00
  -9   1   5   21.69    4.12
   9   1  -5   21.90    5.35
   9   1  -5   32.95    6.04
  -9   1   5   18.15    6.67
   8  -1  -5   41.72    5.41
   8  -1  -5   47.73    5.14
  -8  -1   5   48.76    6.26
  -8  -1   5   49.21    5.77
  -8  -1   5   47.27    3.77
   8  -1  -5   43.16    7.88
  -8  -1   5   45.55    5.14
  -8   1   5   59.59    6.76
  -8   1   5   45.63    4.99
  -8   1   5   43.88    5.95
  -8   1   5   51.15    5.04
   8   1  -5   51.64    5.95
   8   1  -5   47.00    4.71
   8   1  -5   41.45    6.16
   8   1  -5   51.05    6.75
   8   1  -5   43.60    9.42
   7  -1  -5   12.08    3.48
   7  -1  -5   12.36    3.01
  -7  -1   5   13.72    2.96
   7  -1  -5   18.01    4.25
  -7  -1   5   12.91    3.44
   7  -1  -5   13.04    3.07
  -7  -1   5   17.70    4.14
  -7  -1   5   17.08    3.13
   7   1  -5   15.83    3.82
  -7   1   5    7.16    2.30
   7   1  -5   16.50    4.80
   7   1  -5   13.08    3.58
  -7   1   5   16.49    3.19
   7   1  -5   10.97    3.49
  -7   1   5    7.84    3.15
   7   1  -5   15.59    3.63
  -7   1   5   14.59    3.63
   6  -1  -5  123.94    6.70
  -6  -1   5  125.62    6.45
  -6  -1   5  128.54    6.16
   6  -1  -5  140.15    7.24
   6  -1  -5  148.65    7.67
  -6  -1   5  141.51    5.49
   6  -1  -5  127.49    7.04
  -6  -1   5  145.40    7.77
   6  -1  -5  132.82    6.05
  -6  -1   5  131.52    6.61
  -6  -1   5  138.95    6.81
   6   1  -5  137.89    7.01
  -6   1   5  132.71    7.23
  -6   1   5  137.45    6.40
   6   1  -5  133.09    7.22
   6   1  -5  127.14    7.69
  -6   1   5  135.41    6.77
   6   1  -5  143.20    7.03
  -6   1   5  139.88    7.89
   6   1  -5  130.42    7.37
   6   1  -5  142.65    7.34
  -6   1   5  128.87    6.81
  -6   1   5  132.52    5.93
   5  -1  -5    2.09    1.89
   5  -1  -5    3.42    2.31
   5  -1  -5   10.52    2.74
  -5  -1   5    5.94    2.16
  -5  -1   5    2.36    2.29
  -5  -1   5    2.07    2.09
   5  -1  -5    2.15    2.07
   5  -1  -5    4.86    2.50
   5  -1  -5    3.69    1.69
  -5  -1   5    3.42    1.82
  -5  -1   5    4.56    2.08
  -5  -1   5    6.21    1.69
   5  -1  -5    4.09    2.11
   5   1  -5    2.32    2.22
   5   1  -5    5.57    2.19
  -5   1   5    4.47    2.10
   5   1  -5    4.80    1.31
  -5   1   5    4.78    2.04
   5   1  -5    1.95    1.83
  -5   1   5    6.23    1.77
  -5   1   5    6.92    2.43
   5   1  -5    3.73    1.93
   5   1  -5    2.70    2.39
   5   1  -5    4.09    2.13
   5   1  -5    1.88    2.05
  -5   1   5    3.69    2.18
  -5   1   5    2.52    2.27
  -5   1   5   -0.70    2.26
  -4  -1   5  194.76    6.58
   4  -1  -5  184.06    7.25
  -4  -1   5  201.00    7.25
   4  -1  -5  188.35    7.36
   4  -1  -5  194.69    6.79
  -4  -1   5  190.21    6.47
   4  -1  -5  178.28    7.37
   4  -1  -5  189.75    7.31
  -4  -1   5  185.65    6.93
  -4  -1   5  186.10    6.83
   4  -1  -5  194.82    7.84
  -4  -1   5  185.06    7.26
   4  -1  -5  186.40    7.30
  -4   1   5  197.79    7.10
   4   1  -5  199.35    7.49
  -4   1   5  186.77    7.29
  -4   1   5  195.29    7.17
  -4   1   5  196.36    7.44
  -4   1   5  183.28    7.12
   4   1  -5  201.02    7.02
   4   1  -5  204.69    6.22
   4   1  -5  185.01    7.13
   4   1  -5  192.39    7.17
   4   1  -5  185.87    7.69
  -4   1   5  187.35    6.88
   4   1  -5  176.14    6.99
  -4   1   5  185.44    7.05
   4   1  -5  183.71    7.08
   3  -1  -5   13.21    2.23
  -3  -1   5   13.41    1.75
   3  -1  -5   14.87    2.13
   3  -1  -5   15.68    1.98
   3  -1  -5   13.30    2.15
  -3  -1   5   13.67    1.73
   3  -1  -5   15.48    2.20
  -3  -1   5   12.64    1.74
   3  -1  -5   15.47    2.14
  -3  -1   5   11.83    1.53
  -3  -1   5   11.57    1.58
   3  -1  -5    9.77    1.98
   3   1  -5   11.93    1.72
  -3   1   5   16.25    1.96
   3   1  -5   11.23    2.11
  -3   1   5   13.13    2.08
   3   1  -5   13.22    1.61
   3   1  -5   11.96    1.69
  -3   1   5   12.75    1.97
   3   1  -5   15.58    1.93
  -3   1   5    9.82    2.00
  -3   1   5   13.56    2.06
  -3   1   5   12.37    2.00
  -3   1   5   12.42    2.21
  -2  -1   5   77.35    3.83
   2  -1  -5   72.22    3.99
   2  -1  -5   77.76    3.72
   2  -1  -5   77.88    3.87
  -2  -1   5   77.81    2.89
  -2  -1   5   76.01    3.25
   2  -1  -5   76.69    3.76
   2  -1  -5   80.36    3.85
   2  -1  -5   74.24    3.81
  -2  -1   5   74.33    3.25
  -2  -1   5   76.20    2.77
  -2  -1   5   77.89    2.82
  -2   1   5   80.62    4.08
  -2   1   5   73.92    3.68
  -2   1   5   74.09    3.71
   2   1  -5   71.76    4.03
   2   1  -5   72.96    3.61
  -2   1   5   75.84    3.09
   2   1  -5   75.83    3.33
  -2   1   5   82.02    3.84
  -2   1   5   76.50    3.71
   2   1  -5   79.30    3.57
   2   1  -5   75.66    3.35
  -2   1   5   76.72    3.52
   2   1  -5   77.76    3.46
   2   1  -5   76.32    2.88
   1  -1  -5  284.34    9.24
   1  -1  -5  312.36    9.66
   1  -1  -5  315.60    9.34
  -1  -1   5  312.78    8.72
  -1  -1   5  304.95    9.20
   1  -1  -5  302.60    9.52
  -1  -1   5  308.02    9.40
   1  -1  -5  313.92    9.29
  -1  -1   5  309.13    7.96
  -1  -1   5  299.87    8.69
   1  -1  -5  282.46    9.86
  -1  -1   5  297.13    8.01
   1   1  -5  303.14    9.49
  -1   1   5  290.73    9.14
   1   1  -5  292.32    8.63
   1   1  -5  288.82    8.77
  -1   1   5  313.99    8.97
  -1   1   5  291.43    9.19
  -1   1   5  296.58    9.12
  -1   1   5  304.03    8.00
  -1   1   5  315.05    9.57
   1   1  -5  305.85    8.77
   1   1  -5  309.86    8.76
   0  -1   5   45.28    2.61
   0  -1  -5   45.64    3.34
   0  -1  -5   40.70    3.14
   0  -1  -5   46.26    2.92
   0  -1   5   47.13    2.08
   0  -1   5   53.31    2.50
   0  -1   5   46.16    1.93
   0  -1  -5   49.41    3.03
   0  -1   5   51.14    2.97
   0  -1  -5   48.43    3.06
   0  -1  -5   44.49    3.10
   0  -1   5   46.84    2.98
   0   1  -5   46.73    3.00
   0   1  -5   47.82    2.63
   0   1   5   47.35    1.92
   0   1   5   48.52    3.02
   0   1  -5   47.37    2.63
   0   1   5   44.95    2.94
   0   1   5   43.50    2.67
   0   1  -5   43.39    2.66
   0   1   5   47.62    2.97
   0   1   5   47.56    3.17
  -1  -1  -5  264.48    8.37
   1  -1   5  242.46    6.99
  -1  -1  -5  232.54    8.12
  -1  -1  -5  250.69    8.31
   1  -1   5  236.08    8.49
   1  -1   5  248.63    7.56
  -1  -1  -5  241.93    6.83
  -1  -1  -5  240.57    7.99
   1  -1   5  248.05    7.85
  -1  -1  -5  242.84    8.22
   1  -1   5  226.04    8.31
  -1   1  -5  239.60    7.64
   1   1   5  238.15    7.11
   1   1   5  223.77    9.18
  -1   1  -5  247.23    7.86
  -1   1  -5  239.76    7.83
   1   1   5  242.38    8.02
  -1   1  -5  243.51    7.82
   1   1   5  253.93    8.22
   1   1   5  227.26    8.00
  -1   1  -5  246.91    6.77
  -1   1  -5  247.82    7.82
  -2  -1  -5   -1.01    1.26
  -2  -1  -5    0.19    1.62
   2  -1   5    0.05    0.99
   2  -1   5    2.59    1.27
   2  -1   5   -1.80    1.35
  -2  -1  -5    1.69    1.84
   2  -1   5    0.12    1.67
  -2  -1  -5    1.66    1.53
  -2  -1  -5    0.01    1.27
  -2  -1  -5   -1.76    1.47
   2  -1   5    0.78    1.31
   2  -1   5    3.08    1.44
  -2  -1  -5   -1.01    1.34
  -2  -1  -5    2.26    1.18
   2   1   5    0.41    1.65
  -2   1  -5   -0.96    1.52
  -2   1  -5    1.32    1.20
  -2   1  -5    1.16    1.21
   2   1   5   -0.87    1.43
  -2   1  -5    0.18    0.93
  -2   1  -5   -0.20    1.63
  -2   1  -5    0.03    1.41
   2   1   5    0.83    1.59
   2   1   5    0.57    1.78
   2   1   5    1.56    1.42
  -2   1  -5   -0.84    1.34
  -2   1  -5    2.50    1.61
   3  -1   5  187.38    7.20
  -3  -1  -5  190.43    7.95
  -3  -1  -5  184.60    8.00
  -3  -1  -5  187.90    7.93
  -3  -1  -5  193.39    7.13
   3  -1   5  178.72    6.89
   3  -1   5  181.74    6.81
  -3  -1  -5  188.90    7.58
  -3  -1  -5  186.92    6.58
   3  -1   5  192.82    6.74
  -3  -1  -5  186.11    7.71
   3  -1   5  183.57    7.57
   3  -1   5  178.16    7.55
  -3   1  -5  186.25    7.85
  -3   1  -5  180.84    7.49
  -3   1  -5  182.02    7.94
   3   1   5  195.99    7.38
   3   1   5  178.29    7.05
   3   1   5  194.09    7.95
  -3   1  -5  185.69    7.38
  -3   1  -5  188.49    7.06
  -3   1  -5  186.99    7.63
   3   1   5  175.89    7.64
   3   1   5  181.09    7.17
   3   1   5  184.60    7.61
  -3   1  -5  186.49    6.35
  -4  -1  -5   74.19    4.30
  -4  -1  -5   79.12    5.82
  -4  -1  -5   81.44    5.24
  -4  -1  -5   79.09    5.24
   4  -1   5   85.53    4.85
   4  -1   5   80.97    4.47
   4  -1   5   75.58    5.40
  -4  -1  -5   85.16    5.68
  -4  -1  -5   72.44    5.22
   4  -1   5   76.99    5.11
   4  -1   5   71.80    4.79
   4   1   5   76.46    4.96
   4   1   5   76.21    5.01
  -4   1  -5   75.67    5.18
   4   1   5   67.40    5.30
  -4   1  -5   76.78    5.44
  -4   1  -5   74.17    5.95
  -4   1  -5   73.86    5.27
   4   1   5   74.75    5.49
  -4   1  -5   83.53    5.72
  -4   1  -5   72.88    4.30
  -4   1  -5   76.11    5.79
   5  -1   5   40.36    4.72
  -5  -1  -5   59.26    7.51
   5  -1   5   54.51    5.51
  -5  -1  -5   47.38    4.20
  -5  -1  -5   52.88    5.11
   5  -1   5   43.59    4.51
  -5  -1  -5   56.80    5.84
  -5  -1  -5   47.49    5.13
  -5  -1  -5   56.49    6.25
   5  -1   5   58.53    5.52
   5  -1   5   47.38    4.63
  -5   1  -5   48.05    5.65
  -5   1  -5   43.02    5.08
  -5   1  -5   48.07    5.61
   5   1   5   58.50    5.16
   5   1   5   48.68    5.34
  -5   1  -5   49.80    6.33
   5   1   5   49.93    5.35
  -5   1  -5   47.87    4.18
   5   1   5   50.97    5.57
  -5   1  -5   53.78    5.86
   6  -1   5   84.03    6.87
  -6  -1  -5  112.49    8.46
   6  -1   5  105.90    7.43
  -6  -1  -5   92.63    7.68
   6  -1   5   94.31    7.97
   6  -1   5  107.57    6.66
  -6  -1  -5  111.73    6.17
  -6  -1  -5  100.34    8.73
  -6   1  -5  107.38    8.45
  -6   1  -5   93.88    6.03
   6   1   5  114.21    8.52
   6   1   5   96.35    7.65
   6   1   5   89.40    7.27
  -6   1  -5  104.00    8.56
  -6   1  -5  107.80    8.92
   7  -1   5   -5.59    7.80
   7  -1   5   -0.35    3.05
  -7  -1  -5    3.99    4.40
  -7  -1  -5   11.85    6.07
  -7  -1  -5    3.22    3.55
   7  -1   5    2.62    4.85
  -7  -1  -5    2.57    4.75
   7   1   5    1.46    4.13
  -7   1  -5    1.21    3.12
  -7   1  -5    1.51    4.71
   7   1   5    2.84    5.81
  -7   1  -5    4.18    4.40
   7   1   5    5.69    4.82
  -8  -1  -5   62.63    7.75
   8  -1   5   61.16    7.34
   8  -1   5   81.33    7.21
  -8  -1  -5   74.80    6.98
  -8  -1  -5   72.25    7.84
   8   1   5   70.36    9.32
  -8   1  -5   58.93    6.54
   8   1   5   92.54   10.32
   8   1   5   75.30    9.86
  -8   1  -5   65.90    8.58
  -8   1  -5   62.54    8.45
  -8   1  -5   66.78    8.24
  -8   1  -5   76.38    9.74
  10  -2  -5  119.59    8.92
  10  -2  -5  135.34   11.51
  10  -2  -5  137.14   11.60
 -10  -2   5  108.29    9.05
  10  -2  -5  104.82   11.95
 -10  -2   5   87.33    9.63
 -10  -2   5  107.64    9.09
  10   2  -5  107.50   13.29
 -10   2   5  116.17    7.79
  10   2  -5  126.34   11.78
 -10   2   5  133.18   12.45
  10   2  -5  119.96   12.00
 -10   2   5  121.42   11.31
  10   2  -5   98.51   11.28
  -9  -2   5    3.76    3.47
   9  -2  -5    0.24    4.97
   9  -2  -5   10.29    3.84
   9  -2  -5    9.26    5.74
   9  -2  -5    3.09    4.88
  -9  -2   5   -1.44    4.70
  -9  -2   5    7.62    3.24
  -9   2   5    5.73    4.34
   9   2  -5    6.88    4.89
   9   2  -5    6.55    4.87
  -9   2   5   14.36    5.03
  -9   2   5    2.37    3.08
   9   2  -5    7.58    5.60
   9   2  -5    2.27    4.54
  -9   2   5   11.73    7.21
   8  -2  -5   45.06    8.97
  -8  -2   5   47.75    5.17
  -8  -2   5   42.34    6.23
  -8  -2   5   50.38    5.79
   8  -2  -5   50.45    5.53
   8  -2  -5   44.98    5.40
  -8  -2   5   43.95    5.48
   8  -2  -5   51.01    6.85
  -8   2   5   40.89    4.78
   8   2  -5   52.31    6.74
  -8   2   5   54.97    5.67
  -8   2   5   53.57    7.12
   8   2  -5   51.83    4.31
   8   2  -5   43.95    6.06
   8   2  -5   44.75    6.79
   8   2  -5   46.02    6.53
   7  -2  -5    9.39    2.92
   7  -2  -5    4.61    3.55
  -7  -2   5    5.08    2.56
  -7  -2   5    2.57    3.32
  -7  -2   5    4.39    2.39
  -7  -2   5    2.00    2.83
   7  -2  -5    7.81    3.51
   7  -2  -5    4.27    3.33
  -7  -2   5    4.32    3.03
  -7   2   5   11.18    3.30
   7   2  -5    7.51    4.29
   7   2  -5    7.78    3.38
  -7   2   5    4.11    3.42
   7   2  -5    5.32    3.55
  -7   2   5    6.41    2.56
   7   2  -5    4.18    2.95
  -7   2   5    8.40    2.54
  -6  -2   5   -2.00    2.02
  -6  -2   5    2.45    3.29
   6  -2  -5    0.52    3.36
  -6  -2   5    0.91    1.73
  -6  -2   5    2.97    2.13
   6  -2  -5    1.67    2.46
  -6  -2   5    1.75    2.24
  -6  -2   5    3.98    2.67
   6  -2  -5    2.25    2.47
   6  -2  -5    1.83    2.46
   6  -2  -5    1.17    2.11
   6   2  -5    0.74    2.19
   6   2  -5    5.52    2.46
  -6   2   5    6.33    3.49
  -6   2   5    4.43    2.57
   6   2  -5    2.66    3.06
  -6   2   5   -3.05    2.19
   6   2  -5   -0.40    2.21
   6   2  -5   -1.26    3.02
  -6   2   5   -2.02    1.93
  -6   2   5    2.38    2.29
  -6   2   5    0.51    3.41
   5  -2  -5    6.56    2.23
  -5  -2   5    5.40    2.21
  -5  -2   5    7.63    2.55
   5  -2  -5    4.13    2.14
  -5  -2   5    7.73    1.79
   5  -2  -5    8.09    2.65
   5  -2  -5    6.83    2.81
   5  -2  -5    8.04    2.19
   5  -2  -5    8.17    2.79
  -5  -2   5    3.44    1.37
  -5  -2   5    4.49    1.80
  -5  -2   5    7.31    2.27
   5  -2  -5    4.29    2.26
   5   2  -5    5.38    2.08
  -5   2   5    5.34    2.47
  -5   2   5   15.40    3.00
  -5   2   5    6.02    2.31
  -5   2   5    9.48    2.64
   5   2  -5    4.33    2.49
   5   2  -5    5.76    1.99
   5   2  -5    6.37    2.28
   5   2  -5   -0.03    2.16
  -5   2   5    4.71    2.16
  -5   2   5    5.79    2.15
   5   2  -5    5.16    2.35
   5   2  -5    5.69    1.05
  -5   2   5    5.43    1.87
   4  -2  -5  141.70    6.35
  -4  -2   5  138.06    6.26
  -4  -2   5  144.43    4.90
   4  -2  -5  156.93    6.18
  -4  -2   5  146.89    6.07
   4  -2  -5  133.36    6.45
  -4  -2   5  131.41    5.37
  -4  -2   5  141.11    5.62
  -4  -2   5  140.26    4.76
   4  -2  -5  141.93    6.32
   4  -2  -5  142.48    6.43
   4  -2  -5  138.21    6.19
   4  -2  -5  144.38    6.38
   4   2  -5  134.63    6.50
  -4   2   5  143.44    6.08
  -4   2   5  149.44    6.44
   4   2  -5  141.65    5.80
   4   2  -5  143.99    4.60
  -4   2   5  148.32    6.26
  -4   2   5  150.32    6.15
   4   2  -5  141.27    5.73
  -4   2   5  138.74    5.82
   4   2  -5  135.76    6.00
   4   2  -5  137.36    5.64
   4   2  -5  137.20    6.04
  -4   2   5  136.50    6.04
   4   2  -5  137.69    5.79
  -4   2   5  138.48    6.30
   3  -2  -5    3.20    1.58
   3  -2  -5    5.43    1.87
  -3  -2   5    2.98    1.20
  -3  -2   5    4.61    2.01
   3  -2  -5    2.19    1.60
   3  -2  -5    0.21    1.82
  -3  -2   5    4.30    0.60
  -3  -2   5    3.07    1.71
   3  -2  -5    1.98    1.55
   3  -2  -5    6.24    1.74
  -3  -2   5    4.54    1.34
   3  -2  -5    3.84    1.66
  -3  -2   5    4.01    1.10
  -3   2   5    2.79    1.58
  -3   2   5    1.39    1.51
   3   2  -5    4.96    1.30
   3   2  -5    4.06    1.30
  -3   2   5    6.10    2.00
   3   2  -5    4.45    1.68
  -3   2   5    3.86    1.75
  -3   2   5    6.93    1.76
   3   2  -5    4.15    1.05
  -3   2   5    2.94    1.61
  -3   2   5    4.55    1.87
   3   2  -5    5.59    1.82
   3   2  -5    2.80    1.46
   3   2  -5    4.15    1.21
  -2  -2   5  285.60    8.21
   2  -2  -5  297.17    9.14
  -2  -2   5  278.52    8.94
   2  -2  -5  261.70    9.02
  -2  -2   5  273.93    8.05
   2  -2  -5  276.77    9.00
   2  -2  -5  263.78    8.89
   2  -2  -5  269.02    9.18
  -2   2   5  293.06    8.33
  -2   2   5  278.99    8.79
   2   2  -5  280.24    8.10
   2   2  -5  276.49    8.15
   2   2  -5  282.36    9.24
  -2   2   5  287.84    9.22
  -2   2   5  265.97    9.11
   2   2  -5  273.74    8.02
  -2   2   5  296.94   10.15
   2   2  -5  276.36    8.16
  -2   2   5  272.23    8.93
  -2   2   5  284.17    9.00
   2   2  -5  294.23    8.47
   2   2  -5  286.46    8.07
   1  -2  -5    0.81    1.40
  -1  -2   5   -0.48    0.61
   1  -2  -5   -0.81    1.19
   1  -2  -5    0.37    1.18
  -1  -2   5    0.61    0.62
   1  -2  -5    0.57    1.29
   1  -2  -5   -0.23    1.10
   1  -2  -5   -0.30    1.36
  -1  -2   5    0.60    0.71
  -1  -2   5    2.53    1.58
  -1   2   5   -1.57    1.20
   1   2  -5    0.69    0.79
  -1   2   5    0.56    1.30
  -1   2   5    0.09    1.32
  -1   2   5   -0.46    1.10
  -1   2   5    2.47    1.44
   1   2  -5    0.35    0.70
   1   2  -5    0.54    0.73
   1   2  -5    1.04    0.57
   1   2  -5   -0.56    0.76
   1   2  -5    0.93    1.21
   0  -2  -5  289.29    9.50
   0  -2  -5  304.75    9.74
   0  -2   5  291.45    9.79
   0  -2   5  304.38    8.98
   0  -2  -5  306.62    9.50
   0  -2  -5  295.67    9.37
   0  -2  -5  291.15    9.61
   0  -2  -5  294.49   10.23
   0   2  -5  290.80    8.45
   0   2   5  312.80    9.66
   0   2  -5  298.69    7.63
   0   2   5  306.38    9.48
   0   2  -5  295.76    8.36
   0   2  -5  307.92    8.54
   0   2  -5  279.13    8.49
   0   2   5  315.34    9.25
   0   2  -5  267.22    9.57
   0   2   5  298.37    9.51
   0   2   5  294.40    8.33
   0   2   5  284.94    9.33
   1  -2   5    1.28    1.00
  -1  -2  -5    0.87    1.40
   1  -2   5   -0.08    1.01
  -1  -2  -5   -0.08    1.23
   1  -2   5    0.40    0.87
  -1  -2  -5    1.98    1.57
  -1  -2  -5    1.50    1.48
   1  -2   5    0.55    1.60
  -1  -2  -5    0.19    1.61
   1  -2   5    0.88    1.26
  -1  -2  -5   -0.55    1.63
  -1   2  -5   -0.79    0.81
   1   2   5    2.34    1.71
  -1   2  -5    1.68    1.08
   1   2   5    0.59    1.50
   1   2   5    0.56    1.54
  -1   2  -5    1.23    1.01
  -1   2  -5   -0.26    1.04
   1   2   5    0.71    1.36
  -1   2  -5    0.61    1.19
   1   2   5    2.08    1.49
  -1   2  -5    0.24    1.22
   1   2   5   -0.55    0.94
   2  -2   5  241.43    8.76
  -2  -2  -5  236.79    7.55
   2  -2   5  229.45    7.82
  -2  -2  -5  240.52    8.44
  -2  -2  -5  229.94    8.34
  -2  -2  -5  219.04    8.27
  -2  -2  -5  236.53    8.77
   2  -2   5  238.97    7.53
   2  -2   5  241.58    6.82
   2  -2   5  244.99    7.71
  -2  -2  -5  223.84    8.56
  -2  -2  -5  238.98    8.72
  -2   2  -5  238.52    7.55
   2   2   5  232.93    8.72
  -2   2  -5  235.46    7.84
  -2   2  -5  234.31    8.01
  -2   2  -5  233.75    8.78
  -2   2  -5  243.78    6.60
  -2   2  -5  231.28    8.54
   2   2   5  221.07    8.46
   2   2   5  237.94    8.40
  -2   2  -5  227.41    8.02
  -2   2  -5  230.05    7.99
   2   2   5  229.91    8.41
  -3  -2  -5   -0.09    1.59
  -3  -2  -5   -2.12    2.23
   3  -2   5   -0.83    1.91
   3  -2   5   -0.52    1.46
   3  -2   5    0.38    1.36
  -3  -2  -5    1.33    1.82
  -3  -2  -5    2.18    2.19
  -3  -2  -5    2.77    1.64
  -3  -2  -5    7.19    2.50
   3  -2   5   -0.65    1.72
  -3  -2  -5   -3.40    1.81
   3  -2   5   -1.11    1.46
  -3   2  -5   -0.15    1.91
   3   2   5    0.90    1.95
   3   2   5    1.95    1.68
   3   2   5   -0.61    1.84
   3   2   5    4.62    2.39
  -3   2  -5   -1.45    1.67
   3   2   5   -2.69    2.07
  -3   2  -5    0.25    2.11
  -3   2  -5    2.30    1.68
   3   2   5    2.86    2.17
  -3   2  -5    0.70    1.59
  -3   2  -5   -1.36    1.72
  -3   2  -5    5.36    2.07
  -4  -2  -5  111.46    7.50
  -4  -2  -5  107.86    6.22
   4  -2   5  109.58    4.78
  -4  -2  -5  104.25    5.30
   4  -2   5  107.28    5.06
  -4  -2  -5  107.20    6.10
   4  -2   5  113.85    6.63
  -4  -2  -5  105.91    5.97
   4  -2   5  107.60    5.18
  -4  -2  -5  100.97    6.31
  -4   2  -5   97.53    6.46
   4   2   5  104.99    6.47
   4   2   5  104.12    6.32
   4   2   5  112.25    6.48
  -4   2  -5  116.95    6.28
  -4   2  -5  107.54    5.03
  -4   2  -5  103.17    5.99
   4   2   5  105.76    5.94
  -4   2  -5  105.20    6.59
  -4   2  -5  104.99    6.06
  -4   2  -5  104.81    6.44
   4   2   5   98.87    5.86
  -5  -2  -5    2.53    3.06
  -5  -2  -5    1.90    4.12
  -5  -2  -5    0.60    2.77
   5  -2   5   -0.93    2.11
   5  -2   5   -1.13    2.16
  -5  -2  -5    1.87    2.28
   5  -2   5    1.21    2.77
  -5  -2  -5    3.27    2.21
   5  -2   5    1.02    2.70
  -5   2  -5    0.37    4.08
   5   2   5   -0.69    2.53
   5   2   5    0.31    2.91
  -5   2  -5   -5.11    3.70
  -5   2  -5    2.91    2.06
  -5   2  -5    3.93    3.34
   5   2   5    1.64    2.99
  -5   2  -5    0.61    2.53
  -5   2  -5   -3.08    2.34
  -6  -2  -5   41.86    5.85
   6  -2   5   36.51    3.84
  -6  -2  -5   32.89    4.74
   6  -2   5   39.82    5.29
  -6  -2  -5   38.94    4.45
   6  -2   5   39.24    5.12
   6  -2   5   42.08    5.19
  -6  -2  -5   32.22    5.89
   6  -2   5   32.36    4.97
  -6   2  -5   32.08    5.78
  -6   2  -5   40.21    4.49
  -6   2  -5   42.38    6.12
   6   2   5   36.03    5.65
   6   2   5   36.41    5.43
   6   2   5   43.07    6.13
  -6   2  -5   35.88    5.68
  -7  -2  -5   -1.03    2.99
   7  -2   5   10.78    4.84
   7  -2   5    2.11    4.72
  -7  -2  -5    8.51    4.57
   7  -2   5   -2.59    3.12
  -7  -2  -5    3.28    4.79
  -7   2  -5    7.42    4.85
   7   2   5   -2.59    4.32
  -7   2  -5   -2.81    4.15
   7   2   5    0.67    5.97
  -7   2  -5   -2.07    4.42
  -7   2  -5    8.86    4.71
  -7   2  -5    1.12    3.05
  -8  -2  -5   -4.99    5.40
  -8  -2  -5    4.69    6.30
   8  -2   5    6.91    4.31
  -8  -2  -5   10.80    6.32
   8  -2   5    2.37    5.36
   8  -2   5   -1.99    8.25
  -8  -2  -5    2.51    3.55
   8   2   5    2.62    5.83
  -8   2  -5   -0.02    3.78
  -8   2  -5   12.59    6.10
  -8   2  -5    1.99    6.33
  -8   2  -5   11.29    6.50
   8   2   5   15.29    5.74
  -8   2  -5   -0.44    6.31
   8   2   5   -1.16    6.55
   9  -3  -5   27.53    6.01
   9  -3  -5   55.07    6.90
  -9  -3   5   18.76    4.98
  -9  -3   5   31.64    5.38
  -9  -3   5   38.87    5.39
  -9  -3   5   39.29    6.23
   9  -3  -5   38.02    5.52
   9  -3  -5   32.81    6.56
   9   3  -5   47.89    6.82
  -9   3   5   35.17    6.32
  -9   3   5   26.65    6.30
   9   3  -5   29.21    5.94
  -9   3   5   31.20    6.13
  -9   3   5   33.93    4.18
   9   3  -5   30.00    6.57
  -8  -3   5   17.79    3.78
  -8  -3   5   26.14    4.34
   8  -3  -5   24.43    4.51
   8  -3  -5   35.32    5.56
  -8  -3   5   37.89    5.28
  -8  -3   5   22.56    3.39
   8  -3  -5   23.52    4.29
  -8   3   5   25.72    4.22
   8   3  -5   23.06    5.54
  -8   3   5   26.80    6.18
   8   3  -5   23.19    4.54
  -8   3   5   29.99    5.69
  -8   3   5   31.69    3.93
   8   3  -5   28.72    7.11
   8   3  -5   28.10    3.01
  -7  -3   5   18.64    3.92
  -7  -3   5   16.42    3.34
   7  -3  -5   15.95    3.98
  -7  -3   5   19.74    2.78
  -7  -3   5   19.76    3.35
   7  -3  -5   11.86    3.13
   7  -3  -5   13.39    4.12
  -7  -3   5   13.82    3.56
   7  -3  -5   13.66    3.52
  -7   3   5   16.21    4.42
   7   3  -5   16.68    4.01
  -7   3   5   16.66    3.35
  -7   3   5   13.77    3.52
  -7   3   5   11.70    2.84
   7   3  -5   16.87    4.84
   7   3  -5   13.83    4.40
   7   3  -5   14.76    3.87
   6  -3  -5   59.74    4.85
  -6  -3   5   64.20    7.51
   6  -3  -5   57.43    5.49
   6  -3  -5   57.18    5.28
   6  -3  -5   55.25    5.35
  -6  -3   5   59.34    3.53
  -6  -3   5   57.41    4.73
  -6  -3   5   62.94    4.81
  -6  -3   5   55.53    3.94
  -6  -3   5   51.11    5.03
  -6   3   5   69.53    5.34
   6   3  -5   53.61    5.18
   6   3  -5   52.21    5.79
   6   3  -5   56.11    5.18
  -6   3   5   60.75    5.45
   6   3  -5   56.78    4.73
  -6   3   5   51.93    4.42
   6   3  -5   52.52    5.05
  -6   3   5   53.72    4.66
   5  -3  -5    1.68    2.48
  -5  -3   5    1.70    2.12
   5  -3  -5    0.50    2.67
  -5  -3   5   -3.13    2.45
  -5  -3   5   -0.11    1.14
   5  -3  -5    5.20    2.93
   5  -3  -5    3.77    2.26
   5  -3  -5    0.27    3.10
  -5  -3   5    0.13    1.99
  -5  -3   5   -1.25    1.44
   5  -3  -5   -0.56    1.73
   5  -3  -5    0.31    2.07
  -5  -3   5    0.01    2.17
   5   3  -5    0.83    1.61
   5   3  -5   -0.76    2.14
   5   3  -5    1.77    1.88
  -5   3   5    0.08    1.95
  -5   3   5   -2.93    1.89
  -5   3   5   -4.19    2.00
   5   3  -5    1.84    1.91
   5   3  -5    3.14    2.06
   5   3  -5    0.35    2.15
  -5   3   5    4.78    2.74
  -5   3   5    4.03    2.96
  -5   3   5   -1.37    1.91
  -5   3   5    1.39    2.83
  -4  -3   5  112.39    5.23
   4  -3  -5  110.17    5.58
  -4  -3   5   98.27    4.22
  -4  -3   5  102.68    5.23
   4  -3  -5   95.20    5.10
  -4  -3   5   95.82    5.33
   4  -3  -5  101.23    5.67
   4  -3  -5   97.32    5.66
  -4  -3   5  109.36    4.63
   4  -3  -5  112.04    5.39
   4  -3  -5   97.99    5.27
   4  -3  -5   91.42    5.40
  -4   3   5   99.96    5.42
  -4   3   5   96.13    5.42
   4   3  -5   97.65    4.75
  -4   3   5   91.86    5.21
   4   3  -5  105.52    5.26
  -4   3   5  102.22    5.32
   4   3  -5  105.40    4.69
  -4   3   5   99.37    5.53
   4   3  -5   96.20    4.63
  -4   3   5  103.42    5.04
  -4   3   5   97.11    5.14
   4   3  -5   96.43    4.62
   4   3  -5  100.88    3.24
   4   3  -5  100.85    5.13
   3  -3  -5   86.59    4.70
   3  -3  -5   86.70    4.76
  -3  -3   5   79.60    4.60
   3  -3  -5   89.83    5.06
  -3  -3   5   84.67    4.25
   3  -3  -5   83.46    4.63
   3  -3  -5   84.93    4.50
   3  -3  -5   80.96    4.67
  -3  -3   5   89.32    3.54
   3  -3  -5   82.21    4.59
   3   3  -5   92.76    3.83
  -3   3   5   83.56    4.54
   3   3  -5   86.40    4.70
   3   3  -5   86.36    3.65
   3   3  -5   85.38    3.32
   3   3  -5   79.29    3.67
  -3   3   5   90.96    4.83
  -3   3   5   89.34    4.80
  -3   3   5   80.63    4.48
  -3   3   5   84.63    4.67
  -3   3   5   89.15    4.87
  -3   3   5   83.79    4.26
   3   3  -5   85.29    3.68
   2  -3  -5  127.14    5.48
  -2  -3   5  127.37    3.70
   2  -3  -5  128.83    5.64
  -2  -3   5  122.49    5.48
   2  -3  -5  125.58    5.54
   2  -3  -5  113.47    5.44
   2  -3  -5  122.23    5.41
  -2  -3   5  125.56    3.74
   2  -3  -5  124.90    5.59
  -2   3   5  130.07    5.52
   2   3  -5  123.31    4.19
   2   3  -5  124.16    4.13
   2   3  -5  122.58    4.19
   2   3  -5  119.31    5.32
  -2   3   5  125.07    5.66
   2   3  -5  125.38    4.66
   2   3  -5  123.72    4.06
  -2   3   5  128.44    5.34
  -2   3   5  122.66    5.62
  -2   3   5  134.28    5.50
  -2   3   5  122.00    5.41
  -1  -3   5  201.06    5.65
  -1  -3   5  196.82    7.31
   1  -3  -5  204.86    7.33
   1  -3  -5  181.63    6.99
   1  -3  -5  201.25    7.22
   1  -3  -5  193.77    7.26
  -1  -3   5  201.84    6.86
   1  -3  -5  198.45    7.17
   1  -3  -5  199.32    7.33
  -1   3   5  200.75    7.19
  -1   3   5  199.58    6.98
  -1   3   5  204.75    7.25
   1   3  -5  199.64    5.59
   1   3  -5  192.88    5.66
  -1   3   5  198.43    7.32
   1   3  -5  189.72    6.85
   1   3  -5  197.79    5.53
   1   3  -5  195.56    5.88
  -1   3   5  188.29    7.31
  -1   3   5  187.89    7.08
   0  -3   5   38.97    1.55
   0  -3  -5   35.25    3.33
   0  -3   5   40.18    1.47
   0  -3   5   38.40    3.33
   0  -3   5   37.11    2.73
   0  -3  -5   39.12    3.34
   0  -3  -5   34.17    3.29
   0  -3  -5   39.29    3.18
   0  -3  -5   41.99    3.37
   0  -3  -5   39.59    3.30
   0  -3  -5   43.77    2.88
   0   3  -5   39.27    1.88
   0   3  -5   40.16    2.07
   0   3   5   40.41    2.89
   0   3   5   37.21    3.37
   0   3   5   43.09    3.22
   0   3  -5   39.08    2.15
   0   3  -5   40.55    2.04
   0   3   5   38.16    3.30
   0   3   5   37.46    3.05
   1  -3   5  294.81    8.09
   1  -3   5  292.26    8.30
  -1  -3  -5  288.97    9.79
  -1  -3  -5  282.23    9.77
  -1  -3  -5  287.35    9.84
  -1  -3  -5  294.94    8.82
   1  -3   5  303.87    8.70
   1  -3   5  289.66   10.06
  -1  -3  -5  280.66    9.53
  -1  -3  -5  306.39    9.88
  -1  -3  -5  286.42    9.80
   1  -3   5  294.10    8.71
  -1   3  -5  293.23    8.57
   1   3   5  293.82    9.79
  -1   3  -5  296.21    8.40
   1   3   5  297.31    9.81
   1   3   5  288.00    9.49
  -1   3  -5  274.26    9.79
   1   3   5  291.76    9.92
  -1   3  -5  285.73    8.92
   1   3   5  265.36    9.57
  -1   3  -5  284.72    8.66
  -1   3  -5  277.37    8.37
   1   3   5  279.95    8.93
  -1   3  -5  280.77    8.65
   2  -3   5   19.52    2.30
   2  -3   5   22.61    2.12
  -2  -3  -5   24.59    2.71
   2  -3   5   18.46    2.21
  -2  -3  -5   21.75    3.10
  -2  -3  -5   22.27    2.95
   2  -3   5   21.56    3.11
  -2  -3  -5   16.36    2.59
  -2  -3  -5   22.68    3.11
   2  -3   5   23.72    2.42
  -2  -3  -5   20.06    2.94
  -2  -3  -5   21.68    2.81
  -2   3  -5   23.54    2.59
  -2   3  -5   26.39    2.62
   2   3   5   22.94    3.13
   2   3   5   19.28    2.75
  -2   3  -5   16.58    2.67
   2   3   5   20.54    2.83
  -2   3  -5   20.28    2.54
   2   3   5   21.57    2.61
   2   3   5   23.36    3.13
  -2   3  -5   20.44    2.71
  -2   3  -5   21.41    2.47
  -3  -3  -5  159.78    7.61
  -3  -3  -5  140.38    6.44
   3  -3   5  153.09    5.45
   3  -3   5  159.95    6.31
  -3  -3  -5  142.81    6.89
  -3  -3  -5  167.99    7.43
   3  -3   5  151.48    5.31
   3  -3   5  156.72    5.40
  -3  -3  -5  149.04    6.22
   3  -3   5  153.29    4.93
   3  -3   5  149.76    6.11
  -3  -3  -5  152.00    7.37
  -3  -3  -5  168.13    6.93
   3  -3   5  154.20    7.32
  -3  -3  -5  150.63    7.36
  -3   3  -5  165.36    6.61
  -3   3  -5  151.07    6.46
   3   3   5  153.18    7.42
  -3   3  -5  151.12    6.72
   3   3   5  161.09    7.14
  -3   3  -5  164.10    6.79
   3   3   5  151.70    7.21
   3   3   5  158.79    7.43
  -3   3  -5  145.13    7.35
   3   3   5  155.61    6.98
  -3   3  -5  148.28    6.66
   3   3   5  149.25    6.77
  -4  -3  -5   40.42    4.60
   4  -3   5   51.40    4.93
  -4  -3  -5   39.44    4.05
   4  -3   5   42.81    3.19
  -4  -3  -5   40.42    4.69
   4  -3   5   41.10    2.91
   4  -3   5   41.89    3.13
  -4  -3  -5   50.11    5.23
   4  -3   5   48.16    5.52
  -4  -3  -5   42.06    3.92
  -4  -3  -5   38.93    5.08
  -4   3  -5   47.88    4.86
   4   3   5   40.98    4.55
  -4   3  -5   37.79    4.21
  -4   3  -5   40.34    4.99
  -4   3  -5   39.86    4.78
  -4   3  -5   44.83    5.09
   4   3   5   42.36    4.95
   4   3   5   41.83    4.37
  -4   3  -5   42.67    4.24
  -5  -3  -5   85.48    6.64
  -5  -3  -5   91.96    6.10
   5  -3   5   85.25    5.37
  -5  -3  -5   86.16    6.78
   5  -3   5   90.00    5.04
   5  -3   5   94.83    6.29
  -5  -3  -5   87.48    5.57
   5  -3   5  104.60    6.65
  -5   3  -5   91.84    7.46
  -5   3  -5   94.34    7.78
  -5   3  -5   85.05    7.69
   5   3   5   89.59    7.01
  -5   3  -5   84.40    6.41
   5   3   5   95.91    7.23
   5   3   5   94.56    6.41
  -5   3  -5   97.22    6.57
   6  -3   5   60.88    6.63
   6  -3   5   53.94    5.45
  -6  -3  -5   46.68    6.10
  -6  -3  -5   57.61    5.44
  -6  -3  -5   44.65    6.31
   6  -3   5   44.97    5.01
   6   3   5   54.58    6.94
  -6   3  -5   51.28    4.88
   6   3   5   57.76    6.90
   6   3   5   54.55    7.24
  -6   3  -5   77.79    9.96
  -6   3  -5   42.11    6.15
  -7  -3  -5    6.04    5.08
   7  -3   5    3.66    4.66
   7  -3   5   12.76    4.13
  -7  -3  -5   -1.98    4.44
   7  -3   5   -2.71    4.78
  -7  -3  -5    6.99    5.30
  -7   3  -5   -3.99    4.61
  -7   3  -5    2.44    3.18
  -7   3  -5    0.53    4.74
  -7   3  -5   -5.50    4.74
   7   3   5   -3.76    5.47
   7   3   5    2.15    4.88
  -7   3  -5    2.95    5.26
   7   3   5    2.73    5.21
   8  -3   5   32.00    6.19
  -8  -3  -5   33.00    6.75
   8  -3   5   42.09    5.67
  -8  -3  -5   40.71    7.07
  -8  -3  -5   44.21    5.40
  -8  -3  -5   36.61    8.19
  -8   3  -5   43.86    8.00
   8   3   5   44.00    7.96
   8   3   5   27.45    7.10
  -8   3  -5   32.51    7.27
  -8   3  -5   57.73    8.25
   8   3   5   44.34    8.34
  -8   3  -5   48.24    7.57
  -8   3  -5   46.47    5.54
   9  -4  -5   90.24    7.96
  -9  -4   5   73.71    7.33
   9  -4  -5   69.82    7.61
   9  -4  -5   81.96    9.48
  -9  -4   5   86.63    7.04
   9  -4  -5   88.87   10.21
  -9   4   5  103.47   10.17
   9   4  -5   82.19   10.63
  -9   4   5   79.46    9.50
  -9   4   5   84.38    9.18
  -9   4   5   74.18    6.62
   9   4  -5   76.66    8.84
   9   4  -5   98.23   10.02
   8  -4  -5    3.47    3.40
   8  -4  -5    4.22    4.31
  -8  -4   5    3.44    2.86
  -8  -4   5    7.61    3.97
  -8  -4   5    0.47    3.13
  -8  -4   5    2.61    2.60
   8  -4  -5   -0.70    8.09
   8  -4  -5    2.11    3.54
  -8   4   5    1.15    4.53
  -8   4   5    2.38    4.50
  -8   4   5    3.95    2.74
   8   4  -5    6.44    5.19
   8   4  -5    7.34    3.92
  -8   4   5    0.66    4.92
   8   4  -5    5.51    5.51
   7  -4  -5  192.08   10.50
  -7  -4   5  179.50    8.91
   7  -4  -5  182.59    9.19
   7  -4  -5  184.94    8.51
  -7  -4   5  180.70    6.65
  -7  -4   5  179.34    7.05
   7  -4  -5  189.72   10.23
  -7  -4   5  191.82    8.84
  -7   4   5  195.18    9.18
   7   4  -5  177.00    9.19
   7   4  -5  195.36   10.43
  -7   4   5  193.12    7.68
   7   4  -5  194.76    9.72
   7   4  -5  204.36   10.30
  -7   4   5  187.50   10.45
  -7   4   5  186.33    9.97
   7   4  -5  189.96    6.53
   6  -4  -5   -2.48    2.57
  -6  -4   5    0.03    2.09
   6  -4  -5    1.62    3.00
  -6  -4   5    1.88    1.25
  -6  -4   5    2.93    2.01
  -6  -4   5    1.14    2.41
   6  -4  -5    4.32    2.16
  -6   4   5    0.54    2.06
  -6   4   5   -3.91    2.70
   6   4  -5    0.94    2.39
   6   4  -5    0.72    3.27
   6   4  -5   -3.38    2.73
  -6   4   5   -0.62    2.54
   6   4  -5    2.80    3.08
   6   4  -5    2.72    2.35
  -6   4   5    2.12    2.48
  -5  -4   5  368.34   12.68
  -5  -4   5  357.35   12.38
   5  -4  -5  348.12   12.46
  -5  -4   5  347.65   11.38
   5  -4  -5  352.35   12.89
   5  -4  -5  362.57   12.03
   5  -4  -5  370.53   12.59
  -5  -4   5  345.84   12.25
   5  -4  -5  365.74   12.89
  -5  -4   5  361.66   11.06
   5   4  -5  339.18   11.64
   5   4  -5  351.80   12.59
  -5   4   5  364.27   12.80
  -5   4   5  361.51   12.81
  -5   4   5  376.06   11.65
   5   4  -5  378.44   11.99
   5   4  -5  362.36   11.76
  -5   4   5  402.44   14.47
  -5   4   5  340.79   12.44
  -5   4   5  367.23   12.50
  -5   4   5  378.23   14.22
   5   4  -5  359.69   11.84
   5   4  -5  344.66   11.66
   4  -4  -5    3.62    2.04
   4  -4  -5    2.42    1.70
   4  -4  -5    1.74    2.19
  -4  -4   5    3.19    1.47
   4  -4  -5    1.61    2.22
  -4  -4   5    1.77    1.95
   4  -4  -5   -1.12    2.40
  -4  -4   5   -0.67    1.87
   4  -4  -5   -2.18    2.46
  -4  -4   5    5.70    2.02
   4  -4  -5    1.34    1.96
  -4   4   5    0.50    2.24
   4   4  -5    1.31    1.77
   4   4  -5    2.14    1.61
  -4   4   5    0.56    1.84
  -4   4   5    1.82    2.01
  -4   4   5    4.02    2.18
  -4   4   5   -0.29    2.20
   4   4  -5    2.36    1.41
  -4   4   5    0.30    2.36
   4   4  -5    0.11    1.54
   4   4  -5    1.59    1.60
   4   4  -5    1.03    1.91
  -4   4   5   -0.36    1.98
   3  -4  -5  191.93    7.60
  -3  -4   5  191.79    5.36
   3  -4  -5  187.41    7.37
  -3  -4   5  189.82    7.59
   3  -4  -5  183.33    7.65
   3  -4  -5  185.82    7.43
   3  -4  -5  192.26    7.73
   3  -4  -5  183.29    7.29
   3  -4  -5  188.44    7.67
  -3  -4   5  193.18    5.49
  -3  -4   5  184.21    6.89
   3   4  -5  193.76    7.16
   3   4  -5  191.60    5.65
  -3   4   5  185.59    7.60
  -3   4   5  187.82    7.54
  -3   4   5  191.68    7.37
   3   4  -5  178.99    6.08
  -3   4   5  187.63    7.28
   3   4  -5  185.95    6.11
  -3   4   5  187.64    7.01
   3   4  -5  191.95    6.20
  -3   4   5  184.30    7.53
  -3   4   5  179.12    7.48
  -2  -4   5   14.80    2.55
  -2  -4   5   17.49    2.10
   2  -4  -5   12.10    2.26
   2  -4  -5   11.61    2.08
   2  -4  -5   14.15    2.42
   2  -4  -5   13.34    2.38
   2  -4  -5   13.24    2.40
   2  -4  -5   13.33    2.35
   2  -4  -5   10.73    2.21
   2   4  -5   14.88    1.33
  -2   4   5   12.38    2.21
   2   4  -5   12.89    1.36
  -2   4   5    9.90    2.19
  -2   4   5   10.23    2.20
  -2   4   5   12.03    2.32
   2   4  -5   13.61    1.45
  -2   4   5   12.09    2.50
   2   4  -5   13.56    2.17
   2   4  -5   14.42    2.00
   2   4  -5   12.38    1.34
  -2   4   5   18.89    2.49
   1  -4  -5    6.48    2.11
   1  -4  -5    5.40    1.87
  -1  -4   5    6.60    1.26
   1  -4  -5    8.12    1.98
  -1  -4   5    7.44    2.04
   1  -4  -5    6.01    1.81
  -1  -4   5    7.12    1.76
   1  -4  -5    6.92    1.98
   1   4  -5    7.41    0.85
   1   4  -5    9.69    1.79
  -1   4   5    6.93    1.93
   1   4  -5    8.04    0.80
  -1   4   5    7.28    1.90
  -1   4   5    8.11    2.13
  -1   4   5    8.45    1.95
  -1   4   5   10.00    1.83
   1   4  -5    7.01    1.32
   1   4  -5    8.94    0.99
  -1   4   5   12.57    2.24
   1   4  -5    7.73    0.92
   0  -4   5    7.82    2.31
   0  -4  -5    8.23    2.22
   0  -4  -5    6.57    1.85
   0  -4   5    9.29    1.80
   0  -4  -5    9.50    1.81
   0  -4  -5    6.61    2.06
   0  -4  -5    8.78    2.09
   0  -4  -5   11.01    2.20
   0  -4  -5    8.00    2.02
   0   4   5    5.68    1.51
   0   4   5    7.58    2.14
   0   4   5    7.68    2.00
   0   4   5    9.05    2.05
   0   4  -5    8.94    1.09
   0   4  -5    9.98    1.88
   0   4  -5    7.93    1.06
   0   4   5    5.92    1.87
   0   4  -5    7.42    1.00
   0   4   5   10.57    2.24
   0   4  -5    7.77    0.94
  -1  -4  -5   27.18    3.25
   1  -4   5   28.65    1.35
  -1  -4  -5   27.10    3.19
  -1  -4  -5   24.58    2.94
  -1  -4  -5   28.37    3.26
  -1  -4  -5   29.49    3.57
  -1  -4  -5   26.37    3.14
   1  -4   5   32.12    2.67
   1  -4   5   26.22    3.33
  -1  -4  -5   27.87    2.63
   1   4   5   27.04    2.83
  -1   4  -5   25.36    2.24
  -1   4  -5   29.94    2.45
  -1   4  -5   25.56    2.00
   1   4   5   25.53    3.03
  -1   4  -5   24.59    2.95
  -1   4  -5   24.60    2.00
   1   4   5   25.17    3.13
   1   4   5   30.89    3.48
  -1   4  -5   26.64    2.20
   1   4   5   31.18    3.27
   1   4   5   25.13    3.28
   2  -4   5    9.69    1.45
  -2  -4  -5   13.06    2.74
  -2  -4  -5    5.57    2.05
  -2  -4  -5    7.31    1.88
   2  -4   5    6.34    1.76
  -2  -4  -5    5.98    2.50
  -2  -4  -5   13.00    2.70
   2  -4   5    4.83    2.15
  -2  -4  -5    4.42    2.25
  -2   4  -5    5.67    1.89
  -2   4  -5    4.32    1.54
  -2   4  -5    8.68    1.83
  -2   4  -5    6.00    1.14
  -2   4  -5    4.56    1.54
   2   4   5    7.35    2.46
  -2   4  -5    5.96    2.09
   2   4   5   10.57    2.74
  -2   4  -5    7.44    1.73
   2   4   5    7.98    2.60
   2   4   5    6.23    2.01
   2   4   5    6.23    2.28
  -3  -4  -5   22.67    3.81
  -3  -4  -5   24.84    3.40
  -3  -4  -5   26.49    3.60
  -3  -4  -5   23.32    3.60
  -3  -4  -5   30.90    4.27
   3  -4   5   23.41    2.82
   3  -4   5   24.26    2.69
   3  -4   5   27.43    3.02
   3  -4   5   25.00    3.74
  -3  -4  -5   22.19    3.06
  -3  -4  -5   25.43    3.14
   3   4   5   23.47    3.68
  -3   4  -5   25.52    3.04
   3   4   5   24.38    3.62
   3   4   5   22.23    3.58
   3   4   5   23.30    3.25
  -3   4  -5   24.54    3.07
  -3   4  -5   24.37    3.07
   3   4   5   22.93    3.57
  -3   4  -5   26.90    3.45
  -3   4  -5   23.30    2.90
  -3   4  -5   21.67    3.45
   3   4   5   27.42    3.63
  -4  -4  -5    9.36    2.58
  -4  -4  -5    7.28    2.83
   4  -4   5    8.75    2.63
  -4  -4  -5    8.88    2.41
   4  -4   5   10.87    1.30
   4  -4   5   11.95    1.42
  -4  -4  -5   12.06    3.33
  -4  -4  -5   18.52    3.87
   4  -4   5    8.75    2.30
  -4   4  -5   14.68    2.99
   4   4   5   11.27    3.27
  -4   4  -5    8.83    3.41
  -4   4  -5   10.14    3.01
   4   4   5   10.07    3.29
   4   4   5    9.37    2.86
  -5  -4  -5   42.25    5.58
   5  -4   5   38.58    6.89
   5  -4   5   50.90    3.42
   5  -4   5   50.26    2.42
   5  -4   5   46.74    3.71
  -5  -4  -5   57.29    6.50
  -5  -4  -5   36.30    4.66
   5  -4   5   46.59    5.08
  -5  -4  -5   42.88    4.72
   5   4   5   41.08    4.96
  -5   4  -5   39.49    5.44
  -5   4  -5   44.03    5.10
  -5   4  -5   44.25    5.82
   5   4   5   48.05    5.87
  -5   4  -5   45.54    5.76
   5   4   5   47.10    6.06
  -6  -4  -5    0.38    3.99
  -6  -4  -5    6.61    3.17
   6  -4   5    5.23    3.65
  -6  -4  -5    6.77    4.78
   6  -4   5    4.96    2.49
  -6  -4  -5   -0.44    3.00
   6  -4   5    1.96    3.01
  -6   4  -5   -0.22    3.81
  -6   4  -5    5.34    4.34
   6   4   5    4.01    4.75
  -6   4  -5   11.66    4.95
   6   4   5    4.85    4.90
   6   4   5    7.08    4.38
  -6   4  -5   -1.00    4.98
  -7  -4  -5   96.44    7.28
  -7  -4  -5   77.10    8.91
  -7  -4  -5   96.27   10.03
   7  -4   5   92.26    7.87
  -7  -4  -5   84.46    9.63
   7  -4   5   90.01    7.05
   7  -4   5   71.55    9.20
   7   4   5   72.62    8.40
  -7   4  -5  103.73    7.00
  -7   4  -5   79.35    9.76
   7   4   5   88.93    9.25
  -7   4  -5   90.42    8.67
   7   4   5   80.01    8.26
  -7   4  -5  100.53    9.52
  -7   4  -5  117.16    9.84
  -8  -4  -5    5.32    6.13
  -8  -4  -5   -7.18    3.23
  -8  -4  -5    9.70    7.30
   8  -4   5   -5.29    4.14
  -8  -4  -5   -6.81    6.03
  -8   4  -5    8.76    6.98
   8   4   5    4.05    7.51
  -8   4  -5    4.26    6.52
   8   4   5    0.82    6.73
  -8   4  -5    0.74    5.77
  -8   4  -5   -4.68    3.68
  -8   4  -5   -1.48    6.62
   8   4   5   17.59    6.93
  -9  -5   5    5.95    4.49
   9  -5  -5    9.34    4.80
   9  -5  -5   12.05    5.72
   9  -5  -5    6.87    5.95
  -9  -5   5    5.24    3.84
   9  -5  -5    7.65    6.12
   9   5  -5   21.33    6.67
   9   5  -5   11.20    5.75
  -9   5   5    7.39    6.20
   9   5  -5    8.58    5.09
  -9   5   5    5.88    5.76
  -9   5   5    7.82    6.16
  -8  -5   5   69.43    6.72
   8  -5  -5   59.84    8.10
   8  -5  -5   76.76    7.45
   8  -5  -5   63.14    7.98
  -8  -5   5   85.03    8.88
   8  -5  -5   68.29    6.60
  -8  -5   5   60.35    6.43
  -8   5   5   72.59    5.68
   8   5  -5   77.70    8.79
  -8   5   5   82.46    8.51
   8   5  -5   67.55    7.33
  -8   5   5   73.10    8.62
   7  -5  -5    0.36    2.71
   7  -5  -5    8.14    5.27
   7  -5  -5   12.06    3.43
   7  -5  -5   -3.24    4.09
  -7  -5   5    4.51    3.41
  -7  -5   5    9.84    3.33
   7   5  -5    5.36    5.11
  -7   5   5    1.05    2.51
  -7   5   5    6.21    4.57
   7   5  -5   -1.52    3.53
   7   5  -5    1.90    4.32
  -7   5   5    5.26    3.91
   7   5  -5    5.91    3.57
  -6  -5   5  127.57    7.10
  -6  -5   5  127.53    6.05
   6  -5  -5  136.40    7.99
   6  -5  -5  124.80    6.57
   6  -5  -5  123.70    7.42
  -6  -5   5  116.53    7.26
   6  -5  -5  139.04    7.91
  -6   5   5  128.30    7.77
   6   5  -5  124.68    7.21
   6   5  -5  114.24    8.35
   6   5  -5  129.76    6.87
   6   5  -5  136.62    7.84
  -6   5   5  140.67    8.11
   6   5  -5  132.65    7.12
  -6   5   5  144.41    6.34
  -6   5   5  134.21    7.66
  -5  -5   5    3.88    2.64
  -5  -5   5    4.90    2.25
   5  -5  -5    3.48    1.97
   5  -5  -5    1.60    2.20
  -5  -5   5    3.03    3.18
   5  -5  -5    2.19    2.51
  -5  -5   5   -2.14    2.21
  -5  -5   5    2.73    1.82
   5   5  -5    5.16    2.79
   5   5  -5    4.12    2.01
  -5   5   5    1.43    2.19
  -5   5   5    4.20    2.73
   5   5  -5    2.62    1.88
   5   5  -5    3.85    2.04
   5   5  -5    0.47    2.41
  -5   5   5    4.91    2.41
   5   5  -5    2.38    2.64
  -5   5   5   -0.32    2.29
  -4  -5   5  176.35    7.46
   4  -5  -5  183.82    8.06
  -4  -5   5  177.90    5.55
  -4  -5   5  170.26    7.57
   4  -5  -5  164.98    7.60
   4  -5  -5  176.22    8.09
   4  -5  -5  172.18    7.91
   4  -5  -5  165.50    8.31
  -4  -5   5  181.79    5.79
   4  -5  -5  173.10    7.77
   4  -5  -5  171.58    7.25
  -4   5   5  192.23    8.41
  -4   5   5  178.92    8.01
   4   5  -5  179.48    6.52
  -4   5   5  181.49    7.29
  -4   5   5  161.93    7.84
   4   5  -5  180.19    6.96
  -4   5   5  184.48    7.08
   4   5  -5  177.96    7.70
  -4   5   5  169.09    7.76
   4   5  -5  182.39    6.51
  -4   5   5  169.26    7.80
  -4   5   5  174.37    7.92
   4   5  -5  179.61    6.53
   3  -5  -5    9.26    2.63
  -3  -5   5   14.04    2.64
   3  -5  -5   12.96    2.73
   3  -5  -5   12.07    2.58
   3  -5  -5    8.03    2.30
   3  -5  -5   12.00    2.57
   3  -5  -5   13.58    2.50
   3  -5  -5   14.85    2.87
  -3  -5   5   11.61    2.15
   3   5  -5   15.67    1.83
   3   5  -5   12.32    1.27
   3   5  -5   14.86    2.49
  -3   5   5    8.55    2.35
  -3   5   5   15.06    2.87
  -3   5   5   13.45    2.54
   3   5  -5   13.97    1.79
   3   5  -5   11.69    1.49
  -3   5   5    9.68    2.68
  -3   5   5   15.02    2.88
  -3   5   5    8.86    2.48
  -2  -5   5  200.93    7.83
   2  -5  -5  209.98    7.98
   2  -5  -5  207.82    8.09
   2  -5  -5  204.55    8.12
   2  -5  -5  208.91    8.35
   2  -5  -5  205.39    7.93
  -2  -5   5  212.29    7.08
   2  -5  -5  202.88    7.92
   2  -5  -5  216.37    8.17
  -2  -5   5  217.41    7.74
   2   5  -5  201.03    5.73
   2   5  -5  211.56    5.69
  -2   5   5  192.57    8.04
  -2   5   5  201.99    8.26
  -2   5   5  215.34    7.93
   2   5  -5  203.84    7.39
  -2   5   5  205.12    7.88
  -2   5   5  210.08    8.20
   2   5  -5  202.32    5.76
  -2   5   5  204.33    8.03
   2   5  -5  203.94    5.69
   1  -5  -5  113.07    5.31
   1  -5  -5  112.35    5.83
  -1  -5   5  108.37    4.36
   1  -5  -5  102.92    5.50
   1  -5  -5  108.87    5.54
  -1  -5   5  102.15    5.36
   1  -5  -5  103.40    5.59
   1  -5  -5  113.08    5.33
   1  -5  -5  106.77    5.21
  -1  -5   5  109.38    5.10
  -1   5   5  110.12    5.59
  -1   5   5  102.36    5.55
   1   5  -5  112.34    4.96
  -1   5   5  106.22    5.45
  -1   5   5  107.26    5.47
  -1   5   5  111.33    5.48
  -1   5   5  103.72    5.32
   1   5  -5  104.39    4.95
   0  -5   5   22.42    2.38
   0  -5  -5   21.18    2.76
   0  -5  -5   21.49    2.96
   0  -5  -5   14.56    2.62
   0  -5  -5   18.19    2.72
   0  -5  -5   15.63    2.28
   0  -5   5   14.12    2.63
   0  -5  -5   21.03    2.88
   0  -5  -5   17.82    2.60
   0   5   5   17.21    2.62
   0   5  -5   19.91    1.12
   0   5  -5   20.47    1.17
   0   5   5   20.69    2.94
   0   5   5   19.87    2.87
   0   5   5   15.04    2.50
   0   5  -5   14.03    2.32
   0   5   5   20.60    2.89
   0   5  -5   20.15    2.27
  -1  -5  -5  127.09    6.50
   1  -5   5  129.04    4.94
  -1  -5  -5  122.15    6.27
  -1  -5  -5  123.55    6.45
  -1  -5  -5  129.54    5.58
  -1  -5  -5  120.16    5.97
  -1  -5  -5  130.85    6.49
   1  -5   5  126.67    6.53
  -1  -5  -5  127.78    6.30
  -1   5  -5  118.78    6.06
   1   5   5  134.53    6.38
   1   5   5  125.33    6.28
  -1   5  -5  128.62    4.40
   1   5   5  126.70    6.30
   1   5   5  124.94    6.39
   1   5   5  123.88    5.69
  -1   5  -5  132.70    4.51
  -1   5  -5  128.46    4.38
   1   5   5  133.27    6.31
   2  -5   5   12.40    1.59
   2  -5   5   16.37    1.69
  -2  -5  -5   15.46    3.22
  -2  -5  -5   11.95    2.72
   2  -5   5   15.52    1.94
   2  -5   5   14.34    3.29
  -2  -5  -5   17.05    3.10
  -2  -5  -5   13.99    3.05
  -2  -5  -5   18.03    2.59
  -2  -5  -5   12.60    2.54
   2   5   5   13.46    2.96
   2   5   5   15.23    3.20
  -2   5  -5    8.42    2.46
  -2   5  -5   13.44    1.46
   2   5   5   14.84    2.73
  -2   5  -5   13.38    1.92
  -2   5  -5   13.32    2.13
   2   5   5    9.50    2.89
  -2   5  -5   11.59    1.95
  -2   5  -5   13.35    2.29
   2   5   5    9.10    2.68
  -3  -5  -5   33.66    3.72
  -3  -5  -5   37.48    4.38
  -3  -5  -5   31.35    3.84
  -3  -5  -5   39.20    4.31
   3  -5   5   42.37    3.21
  -3  -5  -5   34.42    3.43
   3  -5   5   34.54    4.39
   3   5   5   36.52    4.25
   3   5   5   41.73    4.67
   3   5   5   20.25    4.07
   3   5   5   35.41    4.34
  -3   5  -5   29.78    3.68
  -3   5  -5   38.61    4.23
  -3   5  -5   32.23    3.48
  -3   5  -5   37.16    4.37
  -3   5  -5   36.91    3.58
  -3   5  -5   29.48    3.85
  -4  -5  -5   65.58    4.57
  -4  -5  -5   79.23    6.25
  -4  -5  -5   68.70    7.46
   4  -5   5   66.92    4.64
  -4  -5  -5   71.41    6.10
  -4  -5  -5   66.73    5.13
   4  -5   5   60.59    5.38
   4   5   5   70.43    5.75
  -4   5  -5   77.76    5.39
  -4   5  -5   66.13    5.62
   4   5   5   83.65    6.77
  -4   5  -5   82.56    6.45
  -4   5  -5   61.59    6.30
  -4   5  -5   70.57    6.62
   4   5   5   59.61    6.10
  -4   5  -5   64.55    5.10
   5  -5   5   30.30    4.45
  -5  -5  -5   32.50    4.19
  -5  -5  -5   32.11    5.29
  -5  -5  -5   35.32    5.39
  -5  -5  -5   39.02    4.54
  -5   5  -5   32.06    5.56
  -5   5  -5   26.57    5.15
   5   5   5   29.63    4.74
   5   5   5   32.76    5.57
  -5   5  -5   31.73    4.78
  -5   5  -5   27.80    5.35
   5   5   5   32.12    5.37
  -5   5  -5   29.94    4.18
  -6  -5  -5   92.14    8.18
   6  -5   5   95.73    7.54
  -6  -5  -5   97.18    7.21
  -6  -5  -5   84.07    6.72
  -6  -5  -5   99.44    9.96
   6  -5   5   91.66    4.68
   6  -5   5  109.76    8.07
   6   5   5   89.59    8.77
  -6   5  -5   79.13    8.54
  -6   5  -5   92.91    7.76
  -6   5  -5   89.60    8.97
   6   5   5   90.24    8.95
  -6   5  -5  101.68    8.33
   6   5   5   91.84   11.63
  -7  -5  -5   -6.72    5.15
  -7  -5  -5    5.07    5.04
  -7  -5  -5   -4.69    5.81
  -7  -5  -5   -0.52    3.42
   7  -5   5    4.68    3.94
  -7   5  -5   -1.97    4.68
  -7   5  -5    2.00    5.69
   7   5   5    4.76    5.32
  -7   5  -5    8.67    5.41
  -7   5  -5   -1.36    5.03
   7   5   5   -7.26    5.36
   7   5   5   -3.28    5.49
  -9  -6   5    4.54    4.05
  -9  -6   5    6.08    3.36
   9  -6  -5   -0.34    6.34
   9  -6  -5   -4.22    4.74
   9  -6  -5   -2.74    7.17
   9   6  -5   -2.53    6.60
  -9   6   5   -1.04    6.34
   9   6  -5    4.09    6.16
   9   6  -5    8.95    5.75
  -9   6   5    3.46    6.44
  -9   6   5    5.10    6.26
   8  -6  -5   42.16    4.68
   8  -6  -5   35.98    6.06
  -8  -6   5   51.93    6.08
   8  -6  -5   57.53    7.02
   8  -6  -5   52.12    6.91
   8   6  -5   43.74    5.78
  -8   6   5   44.15    6.89
  -8   6   5   39.41    6.12
  -8   6   5   28.46    5.96
   8   6  -5   42.81    7.98
  -8   6   5   43.43    4.60
   8   6  -5   45.12    7.18
  -7  -6   5   15.83    3.24
   7  -6  -5   10.10    3.09
  -7  -6   5    5.83    4.14
   7  -6  -5    6.78    5.08
   7  -6  -5    8.09    4.34
  -7  -6   5   13.15    3.67
   7  -6  -5    4.71    3.44
   7   6  -5    7.58    3.70
  -7   6   5   10.11    4.13
  -7   6   5   12.32    3.09
  -7   6   5    9.70    4.81
   7   6  -5   17.78    5.47
   7   6  -5    8.04    4.87
  -6  -6   5    2.24    2.86
  -6  -6   5   -3.33    2.47
   6  -6  -5    2.39    3.21
   6  -6  -5    2.86    2.83
   6  -6  -5    0.49    2.32
   6  -6  -5   -6.38    3.58
  -6  -6   5   -0.36    2.09
   6   6  -5   -6.36    3.09
   6   6  -5    0.14    3.50
  -6   6   5    4.60    2.54
   6   6  -5    0.71    2.71
  -6   6   5   -5.30    3.30
   6   6  -5   -2.52    3.33
  -6   6   5    0.40    3.77
  -6   6   5   -0.18    3.57
   6   6  -5   -3.55    2.47
  -5  -6   5   38.64    2.95
   5  -6  -5   37.51    5.03
  -5  -6   5   38.77    4.59
   5  -6  -5   44.27    4.12
   5  -6  -5   33.56    4.61
  -5  -6   5   41.01    3.60
  -5  -6   5   44.89    4.74
   5  -6  -5   38.67    4.54
   5   6  -5   37.82    4.21
   5   6  -5   37.40    3.86
   5   6  -5   33.65    4.35
   5   6  -5   36.55    4.38
   5   6  -5   36.02    3.84
  -5   6   5   41.83    5.21
  -5   6   5   40.87    4.86
   5   6  -5   34.72    4.14
  -5   6   5   38.28    4.70
  -5   6   5   33.04    3.98
   4  -6  -5   54.84    5.40
  -4  -6   5   54.95    4.77
   4  -6  -5   58.86    5.04
   4  -6  -5   66.74    7.24
  -4  -6   5   55.48    1.89
   4  -6  -5   52.69    4.80
  -4  -6   5   56.31    1.92
  -4  -6   5   44.32    4.26
   4  -6  -5   56.59    4.39
   4   6  -5   64.32    4.11
   4   6  -5   53.94    3.60
  -4   6   5   57.03    4.70
  -4   6   5   46.38    5.26
   4   6  -5   56.98    3.55
  -4   6   5   57.54    4.39
   4   6  -5   58.29    4.94
  -4   6   5   60.97    4.82
  -4   6   5   61.16    5.28
   4   6  -5   46.65    3.98
  -4   6   5   53.83    6.00
  -3  -6   5   22.27    3.26
   3  -6  -5   30.94    3.49
   3  -6  -5   30.03    3.86
   3  -6  -5   24.54    3.40
   3  -6  -5   22.36    3.48
   3  -6  -5   18.88    3.37
   3  -6  -5   20.87    3.10
   3  -6  -5   21.97    4.27
  -3  -6   5   25.67    3.17
  -3   6   5   32.72    4.38
   3   6  -5   28.71    2.33
  -3   6   5   27.83    3.71
   3   6  -5   28.65    2.67
  -3   6   5   25.72    3.12
  -3   6   5   23.37    3.40
   3   6  -5   25.57    2.03
  -3   6   5   25.80    3.59
   3   6  -5   24.17    2.06
   3   6  -5   30.99    1.87
  -3   6   5   25.46    3.73
   3   6  -5   21.87    3.03
   2  -6  -5  204.80    8.40
   2  -6  -5  198.48    8.55
   2  -6  -5  221.79    8.75
  -2  -6   5  215.90    8.02
  -2  -6   5  220.79    8.28
  -2  -6   5  206.37    7.36
   2  -6  -5  208.25    8.23
   2  -6  -5  215.93    8.63
   2  -6  -5  218.63    8.34
   2   6  -5  193.03    5.77
  -2   6   5  215.38    8.65
  -2   6   5  202.33    8.41
   2   6  -5  213.26    5.46
   2   6  -5  221.39    5.77
  -2   6   5  212.04    8.63
  -2   6   5  210.68    8.48
  -2   6   5  211.86    8.68
  -2   6   5  223.59    8.36
   2   6  -5  213.99    7.89
   2   6  -5  204.86    5.79
  -1  -6   5    2.25    1.91
   1  -6  -5    6.44    2.58
   1  -6  -5   -4.55    2.19
   1  -6  -5    3.26    2.41
  -1  -6   5    1.64    1.49
   1  -6  -5    4.26    2.08
   1  -6  -5    3.14    1.87
  -1  -6   5   -1.97    1.97
   1  -6  -5    5.06    2.06
   1  -6  -5    2.74    1.81
  -1   6   5   -2.73    1.91
   1   6  -5    2.13    1.58
  -1   6   5    0.58    2.14
  -1   6   5    2.27    2.30
  -1   6   5    1.58    1.90
   1   6  -5    3.45    1.55
  -1   6   5   -1.64    1.81
  -1   6   5    2.31    2.25
   1   6  -5    0.69    1.49
   1   6  -5    0.91    1.55
   0  -6   5  228.84    7.82
   0  -6  -5  232.99    9.00
   0  -6   5  229.77    9.15
   0  -6  -5  227.81    8.94
   0  -6  -5  235.32    8.75
   0  -6  -5  223.29    9.02
   0  -6  -5  232.06    9.11
   0  -6  -5  244.71    8.69
   0  -6  -5  220.60    9.19
   0   6   5  225.75    8.86
   0   6  -5  226.58    8.49
   0   6  -5  243.39    6.03
   0   6   5  242.82    9.13
   0   6  -5  220.22    8.41
   0   6   5  218.72    8.81
   0   6   5  234.16    9.09
   0   6   5  232.86    8.93
   0   6  -5  233.99    6.00
   0   6  -5  231.09    7.60
   0   6   5  222.86    9.03
   1  -6   5    7.90    1.91
  -1  -6  -5    5.44    2.74
  -1  -6  -5    2.65    2.70
  -1  -6  -5    4.39    2.73
  -1  -6  -5    0.48    1.94
   1  -6   5    4.70    2.79
  -1  -6  -5    2.58    2.16
  -1  -6  -5    2.50    1.85
  -1   6  -5    4.28    1.07
   1   6   5    8.52    2.66
  -1   6  -5    5.30    2.08
   1   6   5    5.74    2.69
  -1   6  -5    3.71    1.19
   1   6   5    5.65    2.01
   1   6   5    7.48    2.50
   1   6   5    4.84    2.23
   1   6   5   -0.12    2.73
  -1   6  -5    4.21    1.07
  -2  -6  -5  163.80    6.22
   2  -6   5  154.72    5.50
  -2  -6  -5  172.39    7.92
  -2  -6  -5  156.03    7.04
  -2  -6  -5  159.29    7.46
  -2  -6  -5  168.78    8.01
  -2  -6  -5  157.51    7.89
  -2   6  -5  160.74    5.93
  -2   6  -5  165.12    7.85
   2   6   5  154.94    7.50
  -2   6  -5  152.74    7.63
   2   6   5  168.45    8.08
   2   6   5  166.26    8.51
  -2   6  -5  168.67    6.32
  -2   6  -5  163.18    6.23
  -2   6  -5  174.86    7.21
  -2   6  -5  162.27    4.59
   2   6   5  156.85    7.37
  -2   6  -5  155.90    5.93
  -3  -6  -5   17.05    3.19
  -3  -6  -5    8.02    1.83
   3  -6   5    8.82    2.86
  -3  -6  -5    6.81    2.32
  -3  -6  -5    6.55    2.72
   3  -6   5    7.87    1.85
  -3  -6  -5   11.26    3.59
   3  -6   5    9.82    1.64
  -3   6  -5   10.45    3.19
  -3   6  -5    8.34    3.10
  -3   6  -5   10.90    3.27
  -3   6  -5   11.80    2.97
  -3   6  -5   10.52    2.23
   3   6   5    8.17    2.99
   3   6   5    8.19    2.84
  -3   6  -5    5.47    2.01
  -3   6  -5    7.93    2.35
   3   6   5    8.42    3.05
  -4  -6  -5   65.16    5.29
   4  -6   5   73.18    6.12
  -4  -6  -5   50.89    5.92
   4  -6   5   53.94    4.31
  -4  -6  -5   51.18    5.92
  -4  -6  -5   59.42    4.29
  -4   6  -5   68.53    7.05
   4   6   5   59.64    5.99
  -4   6  -5   66.60    6.91
  -4   6  -5   57.33    5.21
  -4   6  -5   68.15    5.29
  -4   6  -5   73.80    5.97
   4   6   5   66.25    6.98
   4   6   5   56.24    6.63
  -5  -6  -5   19.30    4.59
  -5  -6  -5   21.25    5.35
  -5  -6  -5   20.79    3.15
   5  -6   5   15.21    3.22
   5  -6   5   22.84    4.52
  -5  -6  -5   12.84    3.89
   5   6   5   28.59    5.83
   5   6   5   12.05    5.02
  -5   6  -5   19.51    4.33
  -5   6  -5   23.87    7.39
  -5   6  -5   15.91    3.79
  -6  -6  -5   14.58    3.54
  -6  -6  -5   18.73    3.91
  -6  -6  -5   17.92    4.93
  -6  -6  -5   21.38    6.94
   6  -6   5   19.89    4.51
   6   6   5   28.15    5.91
   6   6   5   22.00    5.43
  -6   6  -5   17.77    5.14
   6   6   5   21.07    5.69
  -6   6  -5   24.98    5.94
  -6   6  -5   17.87    5.75
  -6   6  -5   21.41    4.72
  -7  -6  -5    4.57    5.01
  -7  -6  -5   -0.10    5.33
  -7  -6  -5    4.50    3.57
   7  -6   5   -1.90    4.21
  -7  -6  -5  -12.67    6.06
  -7   6  -5   -3.43    6.27
  -7   6  -5    8.88    5.85
  -7   6  -5   -0.21    5.03
   7   6   5    9.94    5.78
  -7   6  -5    6.65    5.86
   7   6   5   25.35    6.72
   7   6   5    2.65    5.97
  -8  -7   5    4.25    4.04
   8  -7  -5    5.69    4.31
  -8  -7   5    3.14    3.64
   8  -7  -5    6.28    6.20
   8  -7  -5    1.33    5.19
   8   7  -5    6.53    5.62
  -8   7   5    7.59    5.45
   8   7  -5   -0.55    4.36
   8   7  -5    7.25    5.21
  -8   7   5    3.29    5.53
  -8   7   5   11.89    5.83
  -7  -7   5   27.32    4.55
   7  -7  -5   23.50    6.01
   7  -7  -5   32.82    4.13
   7  -7  -5   28.94    5.39
  -7  -7   5   22.94    4.80
   7  -7  -5   32.58    5.42
  -7   7   5   35.32    5.64
   7   7  -5   24.22    5.48
  -7   7   5   22.29    5.34
   7   7  -5   30.84    5.06
  -7   7   5   28.81    4.16
  -7   7   5   27.98    5.52
   7   7  -5   33.31    4.94
   6  -7  -5   18.57    4.43
  -6  -7   5   22.43    4.34
   6  -7  -5   15.60    3.35
  -6  -7   5   16.17    3.98
  -6  -7   5   20.79    2.82
   6  -7  -5   27.17    4.91
   6  -7  -5   19.17    4.74
   6   7  -5   22.48    4.19
  -6   7   5   14.35    4.92
  -6   7   5   17.63    5.29
   6   7  -5   18.52    5.45
   6   7  -5   20.32    3.53
  -6   7   5   23.72    3.21
   5  -7  -5    5.54    3.10
  -5  -7   5    0.61    1.61
  -5  -7   5   -4.11    2.29
   5  -7  -5    4.05    2.41
  -5  -7   5    1.49    1.33
   5  -7  -5    4.01    3.14
  -5  -7   5    4.70    3.05
   5  -7  -5    4.28    2.97
   5   7  -5    2.56    3.57
   5   7  -5    1.73    2.45
   5   7  -5    2.90    2.06
  -5   7   5    7.49    3.70
   5   7  -5    0.76    2.10
  -5   7   5    1.48    2.30
   5   7  -5    4.93    3.11
  -5   7   5    2.30    3.52
  -5   7   5    0.21    3.52
   5   7  -5    4.61    2.55
   4  -7  -5   34.84    4.46
  -4  -7   5   27.83    3.60
   4  -7  -5   41.26    4.08
  -4  -7   5   32.35    4.28
   4  -7  -5   32.50    4.24
   4   7  -5   36.15    3.98
   4   7  -5   31.68    3.12
   4   7  -5   32.30    4.24
  -4   7   5   26.58    3.96
  -4   7   5   26.12    4.26
   4   7  -5   37.69    3.12
  -4   7   5   33.88    3.96
  -4   7   5   38.55    5.01
  -4   7   5   33.97    3.81
   4   7  -5   43.21    4.89
   4   7  -5   29.04    3.59
   3  -7  -5   44.31    5.26
   3  -7  -5   45.56    5.41
  -3  -7   5   43.35    3.93
   3  -7  -5   45.84    4.50
   3  -7  -5   40.37    4.10
  -3  -7   5   45.44    4.45
  -3   7   5   38.66    4.64
   3   7  -5   46.08    2.52
  -3   7   5   50.60    5.58
   3   7  -5   44.76    4.53
   3   7  -5   41.87    2.82
  -3   7   5   45.22    4.57
   3   7  -5   41.79    3.07
  -3   7   5   44.55    5.01
   3   7  -5   47.21    2.39
   3   7  -5   43.89    2.38
  -3   7   5   48.77    4.36
  -2  -7   5   30.47    3.28
   2  -7  -5   37.07    4.48
   2  -7  -5   30.75    3.94
   2  -7  -5   44.32    4.66
   2  -7  -5   31.18    3.91
   2  -7  -5   33.30    3.85
  -2  -7   5   34.87    3.98
  -2  -7   5   33.61    3.62
   2   7  -5   30.40    3.19
   2   7  -5   30.09    2.85
   2   7  -5   31.35    3.76
  -2   7   5   35.71    4.26
  -2   7   5   28.29    3.71
   2   7  -5   33.14    1.86
  -2   7   5   33.32    4.39
  -2   7   5   35.65    4.20
   2   7  -5   36.61    1.79
  -2   7   5   39.72    4.42
  -1  -7   5  249.07    9.32
   1  -7  -5  248.61    8.85
  -1  -7   5  231.36    8.82
   1  -7  -5  243.62    9.39
   1  -7  -5  235.65    9.35
   1  -7  -5  234.72    9.04
  -1  -7   5  241.26    8.07
   1  -7  -5  247.51    9.50
  -1   7   5  219.90    9.17
  -1   7   5  231.03    9.46
  -1   7   5  231.48    9.37
   1   7  -5  230.47    8.37
  -1   7   5  250.03    9.94
   1   7  -5  240.00    8.80
   1   7  -5  240.00    8.50
   1   7  -5  239.59    8.39
  -1   7   5  228.68    9.41
   0  -7  -5   11.51    2.52
   0  -7  -5   11.13    2.86
   0  -7  -5   17.14    3.22
   0  -7  -5   10.59    2.64
   0  -7   5   15.55    2.49
   0  -7  -5   10.33    3.32
   0  -7  -5   12.69    2.84
   0  -7   5   13.29    3.38
   0  -7  -5   17.02    2.51
   0   7   5   14.89    3.47
   0   7  -5   11.13    1.21
   0   7  -5   14.85    1.24
   0   7   5   13.02    3.17
   0   7   5   15.18    3.06
   0   7  -5   12.66    2.59
   0   7   5   13.91    2.81
   0   7   5   14.74    3.16
   0   7  -5   17.24    2.11
   0   7  -5   11.85    2.47
  -1  -7  -5  280.01   10.77
  -1  -7  -5  303.00   11.08
  -1  -7  -5  285.40   10.58
   1  -7   5  302.59    9.11
  -1  -7  -5  272.22   10.92
  -1  -7  -5  277.09   10.33
  -1   7  -5  285.19   10.62
  -1   7  -5  289.77    8.09
  -1   7  -5  293.86    8.01
   1   7   5  286.36   10.71
   1   7   5  303.88   11.53
  -1   7  -5  277.34    9.04
   1   7   5  301.09   11.28
  -1   7  -5  288.04   10.69
  -1   7  -5  292.77    8.52
   1   7   5  290.10   10.97
  -2  -7  -5   -2.22    2.04
  -2  -7  -5   -2.01    3.90
  -2  -7  -5   -1.53    2.05
   2  -7   5    0.64    2.40
  -2  -7  -5   -1.98    3.56
  -2  -7  -5    4.23    2.66
  -2  -7  -5    0.24    1.49
  -2   7  -5    9.23    2.78
   2   7   5   -0.31    2.25
  -2   7  -5    0.07    1.36
   2   7   5    0.89    2.48
  -2   7  -5    0.21    1.63
  -2   7  -5    1.45    2.05
   2   7   5   -3.13    3.95
  -2   7  -5    4.85    2.66
   2   7   5    4.56    2.61
  -2   7  -5    1.09    1.45
  -3  -7  -5  203.20    7.23
   3  -7   5  196.66    5.98
  -3  -7  -5  197.98    9.18
  -3  -7  -5  201.37    9.53
   3  -7   5  195.70    5.88
   3  -7   5  195.71    9.60
  -3  -7  -5  201.24    8.87
   3   7   5  204.54   10.07
  -3   7  -5  191.16    9.58
  -3   7  -5  196.38    7.58
  -3   7  -5  201.40    7.86
  -3   7  -5  200.84    9.64
   3   7   5  208.74    9.45
   3   7   5  197.59    9.80
  -3   7  -5  181.16    9.20
  -3   7  -5  198.79    8.46
  -3   7  -5  194.69    7.87
  -4  -7  -5   30.89    5.12
   4  -7   5   48.19    5.81
  -4  -7  -5   41.87    5.15
   4  -7   5   41.64    3.83
  -4  -7  -5   33.99    3.70
  -4  -7  -5   36.97    4.73
  -4   7  -5   37.42    4.96
  -4   7  -5   43.58    6.19
  -4   7  -5   34.23    5.83
   4   7   5   38.88    5.91
  -4   7  -5   43.29    5.64
  -4   7  -5   38.51    4.94
   4   7   5   35.88    5.74
   4   7   5   35.59    5.27
   5  -7   5   54.16    6.46
  -5  -7  -5   40.68    5.94
  -5  -7  -5   44.20    6.25
  -5  -7  -5   49.39    4.71
  -5   7  -5   38.06    5.10
   5   7   5   58.52    6.95
   5   7   5   49.46    6.29
  -5   7  -5   38.57    6.16
  -5   7  -5   51.22    6.68
   5   7   5   41.50    7.12
  -5   7  -5   49.29    6.29
  -6  -7  -5   21.25    4.22
   6  -7   5   18.91    4.51
  -6  -7  -5   24.08    4.14
  -6  -7  -5   21.19    5.18
  -6  -7  -5   15.55    7.93
  -6   7  -5   30.42    6.52
   6   7   5   19.73    5.99
  -6   7  -5    6.04    5.93
   6   7   5   19.19    5.80
  -6   7  -5   15.66    4.93
   6   7   5   18.74    6.01
  -7  -7  -5    8.67    6.12
  -7  -7  -5    2.86    3.66
   7  -7   5   -2.35    4.57
  -7  -7  -5   -1.38    7.20
   7   7   5    1.00    6.75
  -7   7  -5    4.26    6.45
  -7   7  -5    4.47    5.46
   7   7   5    9.83    6.61
   7   7   5    9.48    6.79
  -7   7  -5   -6.34    6.25
  -7   7  -5    5.38    7.18
  -8  -8   5   -5.29    3.21
   8  -8  -5   20.49    7.11
   8  -8  -5    0.24    4.41
   8  -8  -5   11.52    6.20
  -8  -8   5   -1.14    3.67
  -8   8   5    2.80    6.05
   8   8  -5    6.92    5.04
   8   8  -5    5.35    7.04
  -8   8   5   -3.85    6.27
   8   8  -5   -0.16    5.54
  -8   8   5   -1.64    5.94
   7  -8  -5  133.03   12.06
  -7  -8   5  125.61    8.52
   7  -8  -5  130.17    7.82
   7  -8  -5  129.93    9.01
   7  -8  -5  138.43    9.84
   7   8  -5  127.35   10.00
  -7   8   5  125.08   10.32
  -7   8   5  160.30   10.70
  -7   8   5  157.07   10.62
   7   8  -5  131.25    8.67
   7   8  -5  146.21   11.33
   6  -8  -5    9.39    4.02
  -6  -8   5    0.85    3.88
   6  -8  -5   -0.21    5.09
   6  -8  -5    2.79    4.47
  -6  -8   5   -1.08    3.04
   6  -8  -5    2.77    3.06
  -6   8   5   10.86    3.22
   6   8  -5    2.37    5.80
  -6   8   5    1.91    3.92
   6   8  -5    7.27    3.45
   6   8  -5   -1.71    2.96
  -6   8   5    1.49    4.08
  -6   8   5    3.26    4.75
  -5  -8   5  150.51    8.22
   5  -8  -5  176.38    9.35
   5  -8  -5  169.70    9.37
  -5  -8   5  158.23    8.35
   5  -8  -5  161.08    9.20
   5  -8  -5  149.55    7.49
   5   8  -5  152.92    7.14
  -5   8   5  148.64    9.70
   5   8  -5  161.02    9.63
  -5   8   5  164.16    6.95
  -5   8   5  156.82    9.54
  -5   8   5  170.41    9.83
   5   8  -5  153.19    7.15
   5   8  -5  160.18    7.11
  -4  -8   5    4.16    2.99
   4  -8  -5    6.71    3.20
   4  -8  -5    5.47    2.42
  -4  -8   5    7.68    2.68
   4  -8  -5    3.59    3.38
  -4   8   5    4.23    3.57
   4   8  -5    7.01    3.21
  -4   8   5    3.58    4.09
  -4   8   5    9.38    3.59
   4   8  -5    8.13    2.80
   4   8  -5    5.88    2.05
  -4   8   5    3.45    3.15
   4   8  -5    6.73    1.75
  -4   8   5    8.26    2.49
   4   8  -5    9.68    1.98
   3  -8  -5  146.38    6.92
  -3  -8   5  133.87    7.04
  -3  -8   5  135.64    6.66
   3  -8  -5  129.16    8.12
   3  -8  -5  142.92    7.05
   3  -8  -5  128.91    7.59
   3  -8  -5  140.56    7.54
   3  -8  -5  135.78    7.97
  -3   8   5  134.68    7.45
   3   8  -5  134.88    4.42
   3   8  -5  131.41    7.00
  -3   8   5  137.96    7.82
   3   8  -5  134.01    4.42
  -3   8   5  120.02    7.13
   3   8  -5  131.82    5.24
  -3   8   5  134.58    7.63
   3   8  -5  128.81    7.32
   3   8  -5  126.16    5.04
   3   8  -5  131.87    5.43
  -3   8   5  157.89   10.04
   3   8  -5  141.72    5.43
   2  -8  -5   25.91    3.47
   2  -8  -5   20.80    4.07
  -2  -8   5   25.08    3.09
   2  -8  -5   29.64    3.93
   2  -8  -5   28.88    3.63
   2  -8  -5   24.61    3.94
  -2  -8   5   26.68    3.48
  -2  -8   5   28.82    3.63
  -2   8   5   23.72    3.45
   2   8  -5   28.82    3.01
   2   8  -5   41.17    4.32
  -2   8   5   32.78    4.23
   2   8  -5   23.16    2.26
   2   8  -5   32.49    1.95
  -2   8   5   23.10    4.06
  -2   8   5   30.49    4.07
  -2   8   5   27.32    4.55
   2   8  -5   28.46    3.23
   1  -8  -5   17.27    3.83
  -1  -8   5   22.74    3.38
  -1  -8   5   21.30    2.87
   1  -8  -5   18.69    2.98
   1  -8  -5   21.81    3.57
   1  -8  -5   18.81    3.04
   1  -8  -5   15.96    3.19
  -1  -8   5   25.87    3.68
   1   8  -5   17.33    2.57
   1   8  -5   17.36    3.02
   1   8  -5   27.51    3.33
  -1   8   5   23.32    3.49
  -1   8   5   18.87    3.27
   1   8  -5   21.16    1.33
   1   8  -5   18.81    2.65
  -1   8   5   28.80    4.00
  -1   8   5   17.23    3.42
   1   8  -5   20.19    1.18
   0  -8  -5   41.87    4.80
   0  -8  -5   42.41    4.36
   0  -8  -5   51.46    4.26
   0  -8  -5   43.54    4.77
   0  -8   5   50.68    4.75
   0  -8  -5   50.52    4.49
   0   8   5   50.49    4.89
   0   8   5   45.27    4.72
   0   8  -5   51.85    2.26
   0   8   5   45.34    4.79
   0   8  -5   48.36    2.32
   0   8  -5   46.09    4.46
   0   8   5   47.48    4.84
   0   8   5   52.93    6.25
   0   8  -5   50.86    3.42
   0   8  -5   47.90    4.26
  -1  -8  -5   10.71    2.69
  -1  -8  -5    8.00    2.18
  -1  -8  -5    0.05    3.63
   1  -8   5   14.06    2.55
  -1  -8  -5   14.08    3.26
   1  -8   5   10.05    3.03
  -1  -8  -5    7.24    2.50
  -1   8  -5   12.22    2.00
  -1   8  -5    6.87    2.72
   1   8   5    7.38    2.81
  -1   8  -5   10.49    1.28
   1   8   5   11.92    4.42
  -1   8  -5    9.91    1.14
   1   8   5   14.42    3.24
   1   8   5   12.75    3.30
  -1   8  -5    7.31    2.66
  -1   8  -5    9.14    1.62
  -2  -8  -5   23.92    3.68
  -2  -8  -5   19.87    3.76
  -2  -8  -5   18.80    3.76
   2  -8   5   12.23    3.61
  -2   8  -5   21.57    3.66
   2   8   5   26.11    4.70
  -2   8  -5   19.53    2.11
  -2   8  -5   22.32    2.38
   2   8   5   17.29    3.59
  -2   8  -5   20.17    2.95
  -2   8  -5   20.00    4.12
   2   8   5   23.18    4.23
   3  -8   5   17.82    4.02
  -3  -8  -5   17.57    3.54
  -3  -8  -5   34.74    4.86
  -3  -8  -5   24.03    4.25
  -3   8  -5   22.61    3.25
  -3   8  -5   19.57    2.79
  -3   8  -5   26.14    4.62
   3   8   5   24.45    5.05
  -3   8  -5   21.92    3.24
   3   8   5   24.81    5.31
  -3   8  -5   17.42    4.97
   3   8   5   19.79    4.14
  -4  -8  -5   14.41    4.21
  -4  -8  -5   11.78    4.23
  -4  -8  -5   22.62    5.00
  -4  -8  -5   16.72    2.80
   4  -8   5   13.17    3.81
  -4   8  -5   13.40    3.57
  -4   8  -5   13.68    5.35
  -4   8  -5   15.05    3.45
   4   8   5    9.06    4.90
   4   8   5   16.59    5.35
  -4   8  -5   18.85    5.06
   4   8   5   11.52    4.72
  -5  -8  -5   40.06    5.59
  -5  -8  -5   36.32    7.42
  -5  -8  -5   30.84    4.80
   5  -8   5   34.06    5.42
  -5   8  -5   36.19    5.27
  -5   8  -5   29.43    5.82
   5   8   5   35.70    5.98
   5   8   5   30.94    5.93
  -5   8  -5   40.66    6.64
  -5   8  -5   35.70    4.81
   5   8   5   30.45    5.95
  -6  -8  -5    1.43    3.34
   6  -8   5    7.27    4.46
  -6  -8  -5   -3.84    6.39
  -6  -8  -5   -6.19    4.88
  -6   8  -5    3.32    5.94
  -6   8  -5    0.63    6.67
  -6   8  -5    3.41    5.26
   6   8   5   -3.21    5.88
   6   8   5   -4.50    5.55
  -6   8  -5   10.30    4.80
   6   8   5   13.43    6.25
   7  -9  -5   -2.29    4.72
  -7  -9   5    5.19    3.65
   7  -9  -5   -0.68    4.26
   7  -9  -5    2.83    8.56
  -7   9   5   11.58    6.05
   7   9  -5   23.32    6.58
  -7   9   5    2.35    5.51
  -7   9   5    8.86    5.93
   7   9  -5    2.52    6.16
   7   9  -5    1.42    3.74
   6  -9  -5  102.77    7.07
  -6  -9   5  109.52    7.92
  -6  -9   5  121.21    8.28
   6  -9  -5   90.98   10.24
   6  -9  -5  105.59    9.00
   6  -9  -5   97.30    8.50
   6   9  -5   93.82    7.58
   6   9  -5  114.59   10.16
  -6   9   5  107.01    9.37
  -6   9   5  114.00    9.10
  -6   9   5  112.06   10.03
   6   9  -5  109.79    7.17
   5  -9  -5    4.31    3.96
   5  -9  -5    4.85    2.90
  -5  -9   5    3.51    3.47
  -5  -9   5    3.53    3.39
   5  -9  -5    4.07    3.42
   5   9  -5    2.58    2.59
  -5   9   5   -7.84    3.67
  -5   9   5   -4.48    3.76
  -5   9   5    5.36    2.97
   5   9  -5   -1.28    2.79
   5   9  -5   -1.71    4.91
  -5   9   5    5.30    3.94
   4  -9  -5  177.92    9.01
  -4  -9   5  171.45    8.82
   4  -9  -5  177.23    8.05
  -4  -9   5  161.95    8.39
   4  -9  -5  175.81    9.74
   4  -9  -5  171.42    9.24
   4   9  -5  167.73    6.22
   4   9  -5  172.63    5.57
   4   9  -5  174.08    5.54
  -4   9   5  164.39   10.99
  -4   9   5  165.21   10.03
   4   9  -5  174.61    7.11
  -4   9   5  180.17    7.21
   4   9  -5  165.08    7.76
   4   9  -5  174.19    9.71
   4   9  -5  170.04    6.29
   3  -9  -5    0.07    2.80
   3  -9  -5    3.91    3.25
   3  -9  -5   -2.66    2.32
   3  -9  -5    5.00    2.99
  -3  -9   5    2.16    2.30
  -3  -9   5    0.50    2.87
  -3  -9   5   -2.40    2.39
   3   9  -5   -4.45    1.71
   3   9  -5    0.76    0.93
  -3   9   5    1.96    3.57
   3   9  -5   -4.32    1.92
   3   9  -5   -5.02    2.34
   3   9  -5    0.37    1.63
   3   9  -5    1.03    3.08
  -3   9   5    2.28    3.56
  -3   9   5    0.72    3.90
   2  -9  -5   85.69    5.87
   2  -9  -5   89.74    6.17
   2  -9  -5   97.87    6.69
  -2  -9   5   92.76    5.52
   2  -9  -5   77.01    6.76
  -2  -9   5   94.17    5.84
   2  -9  -5  100.73    6.55
  -2  -9   5   87.25    5.91
  -2   9   5   86.86    7.15
  -2   9   5   82.69    6.93
   2   9  -5   92.89    4.11
  -2   9   5   85.04    6.80
   2   9  -5   95.65    4.71
   2   9  -5   90.11    4.74
   2   9  -5   94.84    6.38
   2   9  -5   99.38    3.75
  -1  -9   5   20.70    3.31
  -1  -9   5   17.93    3.89
   1  -9  -5   17.01    3.30
   1  -9  -5   17.44    3.38
  -1  -9   5   21.21    2.91
   1  -9  -5   27.97    4.13
   1  -9  -5   22.77    4.32
   1  -9  -5   17.58    3.52
   1   9  -5   15.56    2.69
   1   9  -5   15.90    3.30
   1   9  -5   17.96    1.75
   1   9  -5   14.66    2.60
   1   9  -5   17.60    2.86
  -1   9   5   14.50    3.89
  -1   9   5   21.62    4.25
  -1   9   5   15.04    3.97
  -1   9   5   15.54    4.95
   0  -9  -5   23.70    4.47
   0  -9  -5   11.97    2.95
   0  -9   5   33.91    4.08
   0  -9  -5   19.94    3.01
   0  -9  -5   22.44    3.76
   0  -9  -5   28.58    4.03
   0  -9   5   21.26    3.63
   0   9  -5   23.58    3.45
   0   9   5   25.51    4.11
   0   9  -5   24.68    3.40
   0   9  -5   22.61    2.37
   0   9   5   19.03    3.99
   0   9   5   22.96    5.82
   0   9   5   23.93    4.01
   0   9  -5   22.51    2.10
   0   9   5   26.39    4.58
   0   9  -5   23.83    2.53
  -1  -9  -5   41.20    5.18
  -1  -9  -5   34.45    4.38
   1  -9   5   38.95    5.01
  -1  -9  -5   38.65    4.73
  -1  -9  -5   31.32    5.85
   1   9   5   35.13    4.93
   1   9   5   30.53    5.09
  -1   9  -5   29.82    4.52
  -1   9  -5   39.78    4.45
  -1   9  -5   36.06    2.93
  -1   9  -5   36.93    3.08
  -1   9  -5   34.33    3.68
  -1   9  -5   39.70    2.98
  -1   9  -5   33.41    1.73
   1   9   5   31.16    4.72
  -2  -9  -5   10.16    3.46
   2  -9   5   14.97    3.87
  -2  -9  -5    8.36    1.55
  -2  -9  -5    6.64    3.46
  -2  -9  -5    8.96    2.91
  -2  -9  -5    8.19    3.92
  -2  -9  -5   12.46    1.91
  -2   9  -5    8.09    1.67
   2   9   5   10.63    4.38
  -2   9  -5    4.93    4.06
  -2   9  -5    8.68    2.39
  -2   9  -5    6.11    1.95
  -2   9  -5   12.07    3.25
  -2   9  -5    8.64    3.33
   2   9   5    6.30    4.34
   2   9   5    7.31    3.91
  -3  -9  -5   34.18    5.37
  -3  -9  -5   33.34    5.05
   3  -9   5   28.18    4.97
  -3  -9  -5   28.16    3.22
  -3   9  -5   25.74    3.63
  -3   9  -5   16.75    5.11
  -3   9  -5   27.69    4.63
   3   9   5   35.20    5.97
  -3   9  -5   34.23    3.92
   3   9   5   20.37    8.70
   3   9   5   35.76    5.81
  -4  -9  -5   57.20    6.83
   4  -9   5   56.85    6.93
  -4  -9  -5   63.94    7.52
  -4  -9  -5   47.99    5.64
  -4   9  -5   55.12    7.11
  -4   9  -5   55.73    6.38
  -4   9  -5   49.85    6.72
   4   9   5   54.42    6.77
   4   9   5   48.33    6.68
   4   9   5   48.09    6.40
  -5  -9  -5    9.68    3.42
  -5  -9  -5   11.88    5.20
   5  -9   5   13.24    4.35
  -5  -9  -5    4.42    6.72
   5   9   5   19.71    6.38
  -5   9  -5    6.81    5.63
  -5   9  -5   14.73    6.38
  -5   9  -5    7.09    3.79
   5   9   5    6.46    5.75
  -5   9  -5   12.84    6.01
   5   9   5    7.28    5.65
  -6  -9  -5  107.32   11.14
  -6  -9  -5  105.78   12.98
  -6  -9  -5  105.40    8.45
   6  -9   5  109.26    9.83
  -6   9  -5   90.25    9.27
  -6   9  -5  115.43   12.47
  -6   9  -5   98.48   12.14
   6   9   5   90.94   12.19
   6   9   5  117.77   12.64
   6   9   5  107.41   12.19
  -6   9  -5  105.60   12.75
   6 -10  -5    6.44    7.11
   6 -10  -5   -1.00    4.10
  -6 -10   5    4.89    3.64
  -6 -10   5   -4.32    4.00
   6  10  -5   -6.04    4.81
   6  10  -5    8.71    3.58
  -6  10   5   -8.97    4.82
  -6  10   5   -2.43    5.49
  -6  10   5   -6.92    5.71
   6  10  -5    9.52    5.56
   5 -10  -5   44.82    6.57
   5 -10  -5   47.07    6.66
  -5 -10   5   34.56    4.87
   5 -10  -5   41.30    5.94
  -5 -10   5   42.83    5.70
  -5  10   5   47.95    5.30
  -5  10   5   41.99    6.34
  -5  10   5   35.34    5.97
   5  10  -5   42.20    6.38
  -5  10   5   51.80    7.28
   5  10  -5   51.05    6.15
   5  10  -5   50.87    5.39
  -4 -10   5   46.32    5.61
  -4 -10   5   35.59    5.02
   4 -10  -5   52.55    6.43
   4 -10  -5   39.29    5.22
   4 -10  -5   63.26    7.12
   4  10  -5   38.85    4.77
  -4  10   5   45.01    5.87
   4  10  -5   40.93    3.40
  -4  10   5   45.48    6.13
  -4  10   5   61.72    7.61
  -4  10   5   44.50    4.19
   4  10  -5   36.26    6.04
   3 -10  -5   27.59    4.37
  -3 -10   5   24.02    4.03
   3 -10  -5   25.89    4.45
  -3 -10   5   26.25    4.10
   3 -10  -5   19.81    4.43
  -3  10   5   22.06    4.78
  -3  10   5   15.95    7.02
   3  10  -5   29.23    3.87
  -3  10   5   26.07    5.30
   3  10  -5   14.76    4.98
   2 -10  -5   75.77    6.82
  -2 -10   5   77.27    5.60
  -2 -10   5   84.49    5.80
   2 -10  -5   79.37    6.11
   2 -10  -5   67.74    6.12
  -2 -10   5   70.55    5.74
   2  10  -5   72.64    6.85
  -2  10   5   76.93    7.63
   2  10  -5   74.16    3.88
   2  10  -5   66.09    4.63
  -2  10   5   74.72    7.32
  -1 -10   5    6.95    2.81
   1 -10  -5    7.40    2.91
   1 -10  -5    8.14    3.18
  -1 -10   5    7.63    2.61
  -1 -10   5    4.46    2.67
   1 -10  -5    9.98    4.32
   1 -10  -5    9.72    3.69
   1 -10  -5   13.71    5.09
   1  10  -5    4.31    2.52
   1  10  -5    4.15    3.41
  -1  10   5    6.10    4.19
   1  10  -5    4.97    2.23
  -1  10   5   -2.29    3.94
   1  10  -5    2.24    2.43
   1  10  -5    7.36    2.62
  -1  10   5    0.96    3.74
   1  10  -5    6.69    1.66
   0 -10   5  119.81    7.24
   0 -10  -5  107.92    7.87
   0 -10  -5  107.25    7.06
   0 -10   5  119.08    6.44
   0 -10  -5  104.86    6.71
   0 -10  -5   99.59    8.75
   0  10   5  108.30    8.30
   0  10  -5  110.37    4.42
   0  10   5  109.76    8.17
   0  10   5  118.73    8.49
   0  10  -5  107.15    6.33
   0  10   5   92.59   11.33
   0  10  -5  109.49    6.77
   0  10  -5  108.50    5.25
  -1 -10  -5   -2.07    3.12
  -1 -10  -5   -1.10    3.53
  -1 -10  -5    0.45    1.27
   1 -10   5   -1.93    2.79
   1  10   5   -2.15    4.25
   1  10   5    3.93    3.90
  -1  10  -5    2.29    3.52
  -1  10  -5    1.20    2.76
  -1  10  -5    0.59    1.21
   1  10   5    2.46    4.16
   2 -10   5   68.71    6.68
  -2 -10  -5   77.69    7.51
  -2 -10  -5   72.92    7.65
  -2 -10  -5   72.86    6.11
  -2  10  -5   76.20    7.52
  -2  10  -5   82.71    5.32
  -2  10  -5   75.45    8.28
   2  10   5   66.18    7.29
  -2  10  -5   72.25    3.65
   2  10   5   65.24    8.19
  -3 -10  -5    8.40    4.48
  -3 -10  -5   11.53    3.05
  -3 -10  -5   13.11    4.63
   3 -10   5   14.04    4.20
  -3 -10  -5   16.37    3.85
  -3  10  -5   11.94    4.75
  -3  10  -5    9.74    3.48
   3  10   5   11.34    4.90
   3  10   5    4.35    4.85
  -3  10  -5    9.24    3.07
   3  10   5   12.78    4.80
  -3  10  -5    2.50    5.21
  -4 -10  -5   32.23    5.63
  -4 -10  -5   39.61    7.41
  -4 -10  -5   43.41    5.90
   4 -10   5   42.28    6.43
  -4  10  -5   51.70    6.89
  -4  10  -5   45.71    5.50
  -4  10  -5   49.50    5.49
   4  10   5   42.45    7.03
   4  10   5   38.82    6.52
   4  10   5   51.62    7.91
  -4  10  -5   36.06    6.76
  -5 -10  -5   11.69    4.29
   5 -10   5   11.13    5.38
  -5 -10  -5   17.26    5.71
  -5  10  -5    1.79    6.43
   5  10   5    6.89    6.52
  -5  10  -5    3.59    4.06
   5  10   5   21.75    6.66
   5  10   5   17.42    7.03
  -5  10  -5   13.20    6.74
   6 -11  -5   -1.81    5.45
  -6 -11   5    2.12    3.31
   6 -11  -5    2.70    4.77
  -6 -11   5   -0.18    4.09
   6  11  -5   -7.18    6.38
  -6  11   5   -3.96    6.06
  -6  11   5    2.04    6.83
  -6  11   5   10.56    6.12
   6  11  -5    1.92    3.69
   5 -11  -5    5.86    4.02
  -5 -11   5    0.53    3.50
  -5 -11   5    0.71    3.59
   5 -11  -5    6.04    4.65
   5 -11  -5    9.39    6.79
  -5  11   5    1.93    5.54
  -5  11   5    0.72    5.22
  -5  11   5    5.35    5.80
   5  11  -5   -2.95    5.61
   5  11  -5    0.60    3.31
  -4 -11   5    0.36    2.84
  -4 -11   5    3.13    3.79
   4 -11  -5    4.46    5.28
   4 -11  -5   -4.79    6.45
   4 -11  -5    1.57    3.94
  -4  11   5    3.61    4.73
   4  11  -5    0.26    1.98
  -4  11   5    2.72    3.28
  -4  11   5    3.73    4.63
   4  11  -5    2.25    5.06
  -4  11   5    4.37    4.40
   3 -11  -5   55.99    6.75
   3 -11  -5   50.16    5.85
   3 -11  -5   42.37    5.91
  -3 -11   5   51.62    5.70
  -3  11   5   51.64    6.80
  -3  11   5   46.04    6.35
  -3  11   5   47.58    6.23
   3  11  -5   60.96    7.39
   2 -11  -5   12.28    3.75
   2 -11  -5   10.62    4.05
  -2 -11   5   10.71    4.86
   2 -11  -5    9.93    4.46
  -2 -11   5   11.32    3.38
  -2 -11   5   16.47    3.49
   2  11  -5    6.84    4.64
  -2  11   5   14.00    4.54
  -2  11   5   18.62    4.59
   2  11  -5   10.26    2.94
  -2  11   5    3.84    3.92
   1 -11  -5  100.02    7.33
   1 -11  -5  104.24    8.25
  -1 -11   5   97.26    6.83
   1 -11  -5   93.15    7.22
  -1 -11   5   96.06    6.62
  -1  11   5  116.94    8.42
   1  11  -5  105.39    5.62
   1  11  -5  108.12    6.50
   1  11  -5  102.23    9.06
  -1  11   5  113.33    8.60
  -1  11   5  102.72    8.66
   1  11  -5  102.60    6.54
   0 -11  -5   16.42    4.09
   0 -11   5    9.34    3.54
   0 -11  -5   11.72    4.48
   0 -11  -5   12.74    3.57
   0  11   5   17.12    8.97
   0  11   5    4.62    4.10
   0  11  -5   12.60    3.52
   0  11   5   15.62    4.78
   0  11  -5    5.68    3.98
   0  11  -5    9.68    2.57
   0  11   5   10.16    4.67
   0  11  -5   16.07    4.98
  -1 -11  -5  145.51    8.45
  -1 -11  -5  139.18    9.02
  -1 -11  -5  150.57    7.82
  -1 -11  -5  162.22    9.62
   1 -11   5  150.79    9.12
   1  11   5  141.25    9.23
  -1  11  -5  146.31    8.46
  -1  11  -5  147.50   10.07
   1  11   5  125.96    9.56
   1  11   5  131.84    9.69
  -2 -11  -5   -6.50    4.38
  -2 -11  -5    1.36    3.07
  -2 -11  -5    6.19    4.71
  -2 -11  -5   -1.53    4.56
   2 -11   5   -3.01    3.30
  -2  11  -5    3.59    1.70
   2  11   5    3.57    4.46
   2  11   5    5.30    4.86
   2  11   5   -6.05    4.72
  -2  11  -5   -2.23    4.43
  -2  11  -5   -3.45    4.53
  -3 -11  -5  136.25    8.95
  -3 -11  -5  141.42    9.98
   3 -11   5  129.22    9.49
   3  11   5  121.94   10.66
   3  11   5  138.84   11.15
  -3  11  -5  143.08   11.21
   3  11   5  126.04   10.51
  -3  11  -5  135.79   10.57
  -4 -11  -5    5.90    3.58
   4 -11   5    6.22    4.67
  -4 -11  -5   -5.31    5.20
  -4  11  -5   -0.30    3.32
  -4  11  -5   -3.40    5.72
   4  11   5   -1.65    6.60
   4  11   5   -7.17    6.55
   4  11   5   -0.36    5.95
  -4  11  -5    6.37    6.00
  -4 -12   5    6.65    3.73
   4 -12  -5    0.77    6.33
   4 -12  -5    7.07    4.58
  -4  12   5   18.01    5.93
  -4  12   5   -4.25    5.45
  -4  12   5    6.75    4.05
   4  12  -5   -2.79    6.11
  -4  12   5   -1.19    5.76
   3 -12  -5   35.98    5.77
  -3 -12   5   26.19    4.56
   3 -12  -5   38.65    5.79
  -3  12   5   34.27    6.33
  -3  12   5   38.64    6.58
  -3  12   5   19.25    5.80
   3  12  -5   30.71    6.46
   2 -12  -5   23.59    5.69
   2 -12  -5   43.12    5.75
  -2 -12   5   35.28    4.77
   2 -12  -5   28.46    5.50
  -2 -12   5   34.67    4.83
  -2  12   5   42.12    6.62
  -2  12   5   34.21    5.98
   2  12  -5   35.67    6.39
  -2  12   5   22.29    5.79
   2  12  -5   31.91    4.79
   1 -12  -5   -1.34    3.65
   1 -12  -5    3.03    5.06
  -1 -12   5    5.35    3.69
   1 -12  -5    0.94    4.45
  -1  12   5   10.64    4.58
   1  12  -5   -0.33    4.53
  -1  12   5    3.82    5.10
   1  12  -5    2.46    3.45
   1  12  -5   -2.54    3.89
  -1  12   5   -0.31    4.78
   0 -12  -5   34.60    5.58
   0 -12   5   32.93    4.84
   0 -12  -5   36.35    5.91
   0 -12  -5   38.24    5.33
   0  12   5   32.90    6.02
   0  12  -5   26.72    5.76
   0  12  -5   31.09    5.93
   0  12   5   29.44    6.02
   0  12   5   33.39    5.86
   0  12   5   32.80    5.61
  -1 -12  -5   -0.43    3.59
  -1 -12  -5    4.92    7.64
   1 -12   5   -7.62    3.66
  -1 -12  -5   -2.13    3.36
  -1 -12  -5    0.74    4.67
   1  12   5   -3.55    4.98
  -1  12  -5    1.31    4.12
  -1  12  -5   -0.26    4.66
   1  12   5   -0.99    4.79
   1  12   5   -0.49    4.95
  -2 -12  -5   30.66    5.23
  -2 -12  -5   31.90    6.41
  -2 -12  -5   23.69    4.29
   2 -12   5   24.64    5.18
   2  12   5   42.92    7.07
  -2  12  -5   32.29    6.86
   2  12   5   37.18    6.69
   2  12   5   42.20    7.29
  -2  12  -5   40.47    6.57
   3 -12   5    3.97    4.64
  -3 -12  -5    6.23    5.47
  -3 -12  -5   -1.15    3.77
   3  12   5    2.22    6.20
   3  12   5    1.37    6.54
  -3  12  -5    8.74    6.54
  -3  12  -5   -1.29    6.32
   3  12   5    7.63    6.78
  -3  12  -5    3.69    2.85
   2 -13  -5   92.95    8.55
  -2 -13   5   82.88    7.62
  -2 -13   5   86.85    7.22
  -2  13   5   76.70    8.89
  -2  13   5   85.79    9.46
   2  13  -5   75.69    8.89
  -2  13   5   83.08   10.40
  -1 -13   5   12.64    4.16
   1 -13  -5    3.50    4.49
  -1  13   5    8.30    5.74
   1  13  -5    4.75    6.04
  -1  13   5   -5.02    5.95
  -1  13   5    6.22    5.15
  -1  13   5    0.03    5.82
   0 -13  -5    5.72    4.36
   0 -13   5   12.03    4.76
   0  13   5    4.80    6.11
   0  13   5   16.44    6.59
   0  13  -5    4.76    6.17
   0  13  -5   -1.11    5.56
   1 -13   5    3.56    4.45
  -1 -13  -5   -4.26    4.16
  -1  13  -5   -0.66    5.45
   1  13   5   -2.98    6.30
  -1  13  -5    8.35    6.20
   1  13   5    0.70    6.29
   1  13   5   -0.20    5.73
  10   0  -6    8.72    6.83
  10   0  -6    3.87    6.94
  10   0  -6   15.27    7.07
 -10   0   6   24.29    6.25
 -10   0   6   19.62    7.98
  -9   0   6    1.08    4.21
   9   0  -6    1.77    4.67
   9   0  -6   -4.51    4.87
  -9   0   6   -0.05    3.13
   9   0  -6    1.40    4.84
  -9   0   6    1.48    5.61
   9   0  -6    2.66    3.38
   8   0  -6    7.02    4.65
  -8   0   6    3.09    2.78
  -8   0   6    8.42    4.46
  -8   0   6    6.79    3.95
   8   0  -6    6.03    2.86
   8   0  -6    2.21    3.90
  -8   0   6    3.22    2.53
   7   0  -6   -0.51    2.77
  -7   0   6   -1.39    2.38
  -7   0   6   -3.05    2.33
  -7   0   6   -3.18    2.67
   7   0  -6   -0.24    3.24
   7   0  -6   -0.03    4.95
   7   0  -6    1.11    3.48
  -7   0   6    0.45    3.97
  -7   0   6   -1.30    1.94
  -6   0   6   71.92    5.01
  -6   0   6   72.78    5.13
   6   0  -6   65.62    5.36
   6   0  -6   78.97    5.64
   6   0  -6   71.71    4.31
   6   0  -6   79.40    6.22
  -6   0   6   64.03    4.69
  -6   0   6   62.78    5.62
   6   0  -6   58.32    5.36
  -6   0   6   65.08    4.11
  -6   0   6   58.91    6.04
  -5   0   6   -1.56    1.48
  -5   0   6    0.68    1.89
   5   0  -6    3.93    2.40
   5   0  -6    0.10    2.54
  -5   0   6   -5.09    2.46
   5   0  -6    0.07    1.72
  -5   0   6   -3.45    1.75
   5   0  -6    1.60    2.12
  -5   0   6    2.99    2.19
   5   0  -6   -0.53    2.00
  -5   0   6   -1.74    2.17
  -5   0   6    0.36    1.52
   5   0  -6    0.36    1.75
  -4   0   6  240.10    8.08
  -4   0   6  249.60    8.42
  -4   0   6  246.09    8.71
   4   0  -6  239.31    9.19
  -4   0   6  231.35    8.54
   4   0  -6  253.18    8.20
  -4   0   6  247.25    9.35
   4   0  -6  227.80    8.57
   4   0  -6  253.02    9.38
   4   0  -6  240.03    8.76
  -4   0   6  241.98    8.64
   4   0  -6  245.81    8.67
   4   0  -6  239.33    9.71
   3   0  -6    2.03    1.70
  -3   0   6    2.07    1.99
  -3   0   6    1.93    1.34
   3   0  -6   -0.89    1.42
  -3   0   6   -0.40    1.39
  -3   0   6   -1.00    1.15
  -3   0   6    0.26    1.21
   3   0  -6   -0.24    1.29
   3   0  -6   -0.07    1.35
  -3   0   6    1.00    1.17
   3   0  -6    1.15    1.52
   3   0  -6    2.55    1.51
  -2   0   6  245.15    8.06
  -2   0   6  239.88    8.46
   2   0  -6  247.13    8.15
  -2   0   6  238.77    8.82
  -2   0   6  261.18    8.14
  -2   0   6  255.66    6.99
   2   0  -6  242.69    8.23
   2   0  -6  246.99    8.77
  -2   0   6  251.06    7.63
   2   0  -6  268.87    8.27
   2   0  -6  254.71    8.25
   2   0  -6  260.41    8.48
  -2   0   6  251.05    8.70
  -1   0   6   -0.93    1.11
   1   0  -6   -1.14    1.29
   1   0  -6   -0.07    1.12
   1   0  -6    0.18    1.22
  -1   0   6   -1.17    0.91
   1   0  -6    2.86    1.69
   1   0  -6    1.95    1.28
  -1   0   6   -0.86    1.43
   1   0  -6    1.36    1.25
  -1   0   6    1.34    1.59
  -1   0   6    0.16    1.09
   0   0   6  310.85    9.24
   0   0   6  265.49    9.48
   0   0  -6  290.53    9.23
   0   0  -6  298.57    9.38
   0   0   6  301.05    8.72
   0   0  -6  313.80    9.50
   0   0  -6  286.36    9.36
   0   0  -6  293.59    9.72
   0   0   6  298.24    9.38
   0   0   6  308.61    9.72
   1   0   6   -2.73    1.28
  -1   0  -6    1.91    1.62
   1   0   6   -2.36    1.26
   1   0   6   -1.29    1.31
   1   0   6   -0.20    1.53
   1   0   6    0.26    1.14
  -1   0  -6    0.48    1.37
  -1   0  -6    1.81    1.54
  -1   0  -6   -0.17    1.63
  -1   0  -6   -1.61    1.38
   2   0   6   99.73    4.18
  -2   0  -6  107.30    3.67
  -2   0  -6  108.66    4.22
   2   0   6  107.27    5.15
  -2   0  -6   95.14    5.49
  -2   0  -6  112.54    5.65
   2   0   6  114.06    5.37
   2   0   6  108.27    5.57
  -2   0  -6  101.59    5.46
  -2   0  -6  108.36    5.30
   2   0   6  107.49    4.73
  -2   0  -6  112.22    5.27
   2   0   6  114.43    5.17
  -2   0  -6  106.68    5.53
  -3   0  -6    1.85    2.05
   3   0   6    1.87    1.59
  -3   0  -6   -0.61    1.70
  -3   0  -6    2.35    2.63
   3   0   6    1.13    2.17
   3   0   6    3.91    2.12
   3   0   6   -1.56    2.00
  -3   0  -6   -0.71    1.96
  -3   0  -6   -1.33    2.42
  -3   0  -6    0.79    1.81
  -3   0  -6   -0.10    1.89
   3   0   6    0.33    1.77
   3   0   6   -1.37    2.42
  -4   0  -6   55.96    5.05
  -4   0  -6   42.77    4.96
  -4   0  -6   45.36    4.82
   4   0   6   49.38    5.13
  -4   0  -6   42.13    4.96
   4   0   6   42.71    4.05
   4   0   6   45.66    5.22
  -4   0  -6   41.77    4.96
  -4   0  -6   48.55    3.58
   4   0   6   48.13    4.58
   4   0   6   44.76    4.71
  -5   0  -6    2.77    2.16
   5   0   6   -2.35    3.13
  -5   0  -6    0.68    3.48
  -5   0  -6    4.88    5.99
   5   0   6    7.46    3.69
   5   0   6    2.19    3.13
   5   0   6    3.85    3.76
   5   0   6    0.09    2.60
  -5   0  -6   -2.99    2.78
  -5   0  -6   -0.14    3.92
  -5   0  -6   -2.00    3.08
   5   0   6    0.71    2.70
   6   0   6    2.61    4.10
  -6   0  -6    3.57    4.60
  -6   0  -6   -6.26    4.01
   6   0   6    3.05    4.49
   6   0   6    5.94    3.29
  -6   0  -6    2.39    2.60
   7   0   6   -2.23    6.91
  -7   0  -6   -2.47    4.60
  -7   0  -6    0.46    3.12
  -7   0  -6    0.35    4.68
   7   0   6   -6.03    4.55
  -7   0  -6   -5.76    4.57
  -8   0  -6   26.67    4.77
   8   0   6    9.64    8.38
  -8   0  -6   29.09    7.17
  -8   0  -6   18.36    7.27
   8   0   6   30.72    7.15
  -9  -1   6    2.62    3.45
  -9  -1   6    5.33    4.73
   9  -1  -6    3.30    5.01
  -9  -1   6    8.69    3.42
   9  -1  -6    5.14    4.72
   9  -1  -6    4.48    3.83
  -9  -1   6   17.45    5.76
   9  -1  -6    4.96    4.42
  -9   1   6    5.36    4.72
  -9   1   6   -0.27    6.16
  -9   1   6    2.21    2.86
  -9   1   6    6.53    3.57
   9   1  -6   -3.95    4.67
   9   1  -6    1.44    4.71
   9   1  -6    2.92    4.08
   9   1  -6    9.10    5.36
   8  -1  -6   36.16    6.17
  -8  -1   6   40.89    5.10
   8  -1  -6   42.55    5.91
  -8  -1   6   43.19    5.25
   8  -1  -6   32.37    5.21
  -8  -1   6   38.98    4.68
   8  -1  -6   37.37    4.49
   8   1  -6   35.83    6.41
  -8   1   6   43.57    4.96
   8   1  -6   48.10    6.30
   8   1  -6   38.76    4.98
  -8   1   6   38.37    5.46
   8   1  -6   50.04    9.79
  -8   1   6   48.31    5.03
  -8   1   6   45.54    5.90
   7  -1  -6    1.37    3.15
   7  -1  -6    2.40    3.72
  -7  -1   6   -3.58    2.59
   7  -1  -6   -3.82    3.45
  -7  -1   6    2.69    2.31
   7  -1  -6   -0.53    2.85
  -7  -1   6    4.96    2.75
  -7  -1   6    9.71    3.89
  -7   1   6    2.77    2.28
   7   1  -6    3.45    3.52
  -7   1   6    0.68    2.84
   7   1  -6   -2.71    3.17
  -7   1   6    3.16    2.61
   7   1  -6    8.39    4.48
  -7   1   6   -4.72    2.61
   7   1  -6    4.31    3.30
   7   1  -6   -0.70    3.34
   6  -1  -6   64.14    5.20
  -6  -1   6   82.52    5.37
   6  -1  -6   58.37    5.21
  -6  -1   6   70.94    4.47
   6  -1  -6   69.77    5.03
   6  -1  -6   72.91    5.63
  -6  -1   6   80.88    6.53
  -6  -1   6   70.06    5.11
   6  -1  -6   76.81    6.63
  -6  -1   6   72.46    5.13
  -6   1   6   71.14    4.59
  -6   1   6   72.28    6.09
   6   1  -6   64.97    5.29
  -6   1   6   71.17    5.08
  -6   1   6   69.62    5.44
  -6   1   6   78.33    6.63
  -6   1   6   76.18    4.93
   6   1  -6   72.57    4.97
   6   1  -6   67.87    5.63
   6   1  -6   74.25    5.41
   6   1  -6   69.07    5.54
   5  -1  -6   38.27    4.20
   5  -1  -6   47.17    4.25
   5  -1  -6   49.78    5.06
  -5  -1   6   49.90    3.95
   5  -1  -6   39.74    4.36
   5  -1  -6   48.88    3.75
  -5  -1   6   44.06    3.68
  -5  -1   6   43.33    4.42
   5  -1  -6   43.65    4.44
   5  -1  -6   42.75    4.17
  -5  -1   6   46.39    4.46
  -5  -1   6   48.65    3.33
   5   1  -6   43.25    4.35
   5   1  -6   45.62    4.03
  -5   1   6   36.97    4.37
  -5   1   6   43.05    4.28
  -5   1   6   42.54    5.33
  -5   1   6   45.72    3.84
   5   1  -6   44.11    3.98
  -5   1   6   43.84    3.97
   5   1  -6   42.10    4.72
   5   1  -6   38.52    4.22
   5   1  -6   45.52    4.05
  -5   1   6   42.42    3.87
  -5   1   6   37.65    3.57
   5   1  -6   42.82    4.31
  -4  -1   6   83.43    4.22
  -4  -1   6   84.65    4.52
   4  -1  -6   82.17    5.42
  -4  -1   6   83.97    3.77
   4  -1  -6   87.95    4.61
  -4  -1   6   76.24    4.65
   4  -1  -6   85.69    5.11
   4  -1  -6   83.02    4.88
  -4  -1   6   77.07    3.84
  -4  -1   6   78.51    4.39
   4  -1  -6   83.13    4.85
   4  -1  -6   78.63    4.78
   4  -1  -6   81.63    5.03
   4   1  -6   74.22    4.33
   4   1  -6   74.85    4.28
  -4   1   6   75.81    4.66
   4   1  -6   80.08    5.07
   4   1  -6   73.44    4.39
  -4   1   6   85.58    4.54
   4   1  -6   86.20    4.57
  -4   1   6   89.93    4.71
  -4   1   6   78.00    4.53
  -4   1   6   81.52    4.46
   4   1  -6   84.14    4.41
   4   1  -6   81.63    5.16
  -4   1   6   73.01    4.36
   4   1  -6   82.32    4.48
  -4   1   6   80.69    4.91
   3  -1  -6  221.58    8.12
  -3  -1   6  224.65    6.90
   3  -1  -6  221.99    9.23
   3  -1  -6  240.13    8.18
  -3  -1   6  228.85    6.90
   3  -1  -6  236.67    8.02
  -3  -1   6  238.53    7.67
   3  -1  -6  231.08    8.60
   3  -1  -6  225.71    8.23
  -3  -1   6  222.79    8.27
  -3  -1   6  227.86    7.23
  -3  -1   6  222.45    7.50
   3   1  -6  237.57    7.62
  -3   1   6  234.54    8.19
   3   1  -6  223.90    7.20
   3   1  -6  240.07    7.85
  -3   1   6  227.93    7.41
   3   1  -6  226.73    7.75
   3   1  -6  223.92    8.49
  -3   1   6  238.35    8.13
   3   1  -6  232.87    7.68
  -3   1   6  223.94    7.81
  -3   1   6  223.87    8.20
  -3   1   6  234.42    7.82
   3   1  -6  224.98    7.71
  -2  -1   6   17.60    1.97
   2  -1  -6   21.21    2.55
  -2  -1   6   22.74    2.05
   2  -1  -6   21.61    2.59
  -2  -1   6   19.71    2.73
   2  -1  -6   14.84    2.15
   2  -1  -6   16.54    2.24
   2  -1  -6   14.50    2.33
  -2  -1   6   16.83    1.47
  -2  -1   6   16.71    1.50
  -2  -1   6   17.76    1.26
   2  -1  -6   20.80    2.44
   2   1  -6   20.57    2.60
   2   1  -6   17.54    2.14
   2   1  -6   20.36    2.60
   2   1  -6   18.86    2.13
   2   1  -6   18.34    2.18
  -2   1   6   18.68    1.68
  -2   1   6   20.10    2.52
   2   1  -6   19.05    2.14
  -2   1   6   13.80    1.96
  -2   1   6   17.36    2.37
  -2   1   6   17.74    2.62
  -2   1   6   19.83    2.39
  -1  -1   6  310.71    7.61
   1  -1  -6  278.87    9.42
   1  -1  -6  301.94    9.50
   1  -1  -6  286.02    9.72
  -1  -1   6  242.16   10.46
   1  -1  -6  311.54    9.94
  -1  -1   6  288.28    7.91
  -1  -1   6  305.64    8.69
   1  -1  -6  292.25    9.39
  -1  -1   6  297.58    8.80
  -1  -1   6  297.32    9.55
   1  -1  -6  296.19    9.42
  -1  -1   6  288.52    7.81
  -1   1   6  266.50   10.08
  -1   1   6  291.34    7.63
  -1   1   6  304.89    8.97
   1   1  -6  301.76    8.95
  -1   1   6  307.10    9.81
  -1   1   6  303.83    7.63
   1   1  -6  285.32    8.91
   1   1  -6  291.93    8.87
  -1   1   6  299.63    9.30
   1   1  -6  303.66    8.98
   1   1  -6  282.34    9.51
  -1   1   6  283.11    9.12
   0  -1   6    6.11    1.36
   0  -1   6    5.10    0.89
   0  -1  -6    8.40    1.74
   0  -1  -6    5.22    2.10
   0  -1  -6    4.44    1.74
   0  -1   6    5.16    1.02
   0  -1   6    6.44    1.23
   0  -1  -6    5.83    1.66
   0  -1  -6    3.97    1.51
   0  -1   6    2.96    1.71
   0  -1   6    6.49    1.58
   0  -1  -6    4.70    1.67
   0   1   6    3.90    2.08
   0   1  -6    7.09    1.49
   0   1   6    3.79    1.58
   0   1   6    5.53    1.66
   0   1   6    6.19    1.68
   0   1  -6    5.01    1.39
   0   1  -6    5.92    1.65
   0   1  -6    6.07    1.52
   0   1   6    5.11    0.71
   1  -1   6  212.66    6.56
  -1  -1  -6  192.25    7.62
   1  -1   6  206.94    7.02
  -1  -1  -6  202.22    7.52
  -1  -1  -6  213.86    6.05
   1  -1   6  212.86    6.28
   1  -1   6  199.66    8.09
  -1  -1  -6  217.71    7.86
   1  -1   6  217.06    7.43
   1  -1   6  213.03    7.32
  -1  -1  -6  189.04    7.98
  -1  -1  -6  206.50    7.77
   1   1   6  209.80    6.23
  -1   1  -6  228.42    7.53
   1   1   6  200.46    7.46
   1   1   6  205.22    7.50
  -1   1  -6  208.71    5.66
  -1   1  -6  197.68    7.29
  -1   1  -6  207.03    7.41
  -1   1  -6  205.07    7.17
  -1   1  -6  203.98    7.28
   1   1   6  199.92    7.12
   1   1   6  211.62    7.63
   1   1   6  207.11    7.85
  -2  -1  -6   80.30    5.03
   2  -1   6   84.25    4.09
  -2  -1  -6   72.83    4.12
   2  -1   6   80.26    3.66
   2  -1   6   76.34    5.00
  -2  -1  -6   83.22    4.82
  -2  -1  -6   82.65    4.98
   2  -1   6   79.35    4.32
  -2  -1  -6   76.19    4.75
  -2  -1  -6   75.39    5.06
  -2  -1  -6   82.46    4.92
   2  -1   6   88.07    4.66
  -2  -1  -6   85.15    3.77
   2  -1   6   82.02    4.34
   2   1   6   85.89    5.07
  -2   1  -6   91.00    4.77
  -2   1  -6   70.49    5.02
  -2   1  -6   77.45    4.80
  -2   1  -6   82.73    2.70
   2   1   6   73.03    3.96
  -2   1  -6   80.86    3.59
   2   1   6   84.10    4.47
  -2   1  -6   74.24    4.60
   2   1   6   75.86    4.64
   2   1   6   76.16    4.74
  -2   1  -6   75.88    4.35
   2   1   6   77.96    4.86
  -2   1  -6   83.22    4.26
  -3  -1  -6   64.05    4.86
   3  -1   6   74.41    3.95
   3  -1   6   67.46    4.12
  -3  -1  -6   60.82    5.27
  -3  -1  -6   67.86    4.91
  -3  -1  -6   69.03    3.84
   3  -1   6   74.56    5.60
   3  -1   6   56.45    4.56
  -3  -1  -6   73.24    4.31
   3  -1   6   60.83    4.18
  -3  -1  -6   67.20    5.27
   3  -1   6   60.40    4.98
  -3  -1  -6   65.93    5.12
  -3   1  -6   60.26    4.49
   3   1   6   63.68    4.87
   3   1   6   62.93    4.77
   3   1   6   66.18    4.90
  -3   1  -6   62.34    4.13
  -3   1  -6   63.50    5.19
   3   1   6   67.06    5.15
  -3   1  -6   66.98    5.04
  -3   1  -6   65.83    4.75
   3   1   6   65.49    4.20
  -3   1  -6   62.74    4.93
  -3   1  -6   52.85    4.67
   4  -1   6  115.33    6.69
  -4  -1  -6  112.38    6.75
  -4  -1  -6  121.45    6.59
  -4  -1  -6  102.51    6.38
   4  -1   6   98.90    6.29
   4  -1   6  106.82    5.84
   4  -1   6  105.42    5.76
  -4  -1  -6  102.51    6.62
  -4  -1  -6  121.32    5.28
  -4  -1  -6  103.09    7.65
  -4   1  -6   97.33    7.16
   4   1   6  101.27    6.37
  -4   1  -6  118.36    5.05
   4   1   6   98.91    6.44
   4   1   6  108.36    6.86
  -4   1  -6  106.44    6.51
  -4   1  -6  111.05    6.38
   4   1   6  101.40    6.59
  -4   1  -6  113.13    6.46
   4   1   6  111.70    5.95
  -4   1  -6  116.07    6.98
  -5  -1  -6    3.71    3.48
   5  -1   6   -0.02    3.14
   5  -1   6    2.26    2.70
  -5  -1  -6    6.58    3.97
   5  -1   6    2.08    3.20
  -5  -1  -6    2.28    2.36
  -5  -1  -6    2.91    3.00
   5  -1   6    2.03    3.60
   5  -1   6    7.76    2.56
  -5  -1  -6   -1.60    4.28
  -5   1  -6   -1.76    2.01
  -5   1  -6    2.36    3.05
  -5   1  -6    4.15    4.66
   5   1   6    2.22    2.65
  -5   1  -6    5.38    3.54
  -5   1  -6    0.38    3.97
   5   1   6   -0.78    3.20
  -5   1  -6    4.38    3.66
   5   1   6   -0.18    3.24
  -6  -1  -6  116.89    9.22
  -6  -1  -6  113.59    9.27
  -6  -1  -6  114.27    6.62
   6  -1   6  119.29    7.21
   6  -1   6  127.47    8.41
   6  -1   6  139.66    9.26
  -6  -1  -6  122.50    9.31
   6   1   6  126.35    8.38
  -6   1  -6  123.03    8.77
  -6   1  -6   90.84   11.01
   6   1   6  122.49    9.24
   6   1   6  118.56    8.94
  -6   1  -6  130.97   14.13
  -6   1  -6  123.67    6.58
   7  -1   6   34.03    5.57
  -7  -1  -6   28.93    6.05
  -7  -1  -6   26.87    6.23
   7  -1   6   10.87    6.43
  -7  -1  -6   14.15    5.06
   7  -1   6   25.22    4.42
  -7   1  -6   23.00    5.95
   7   1   6   35.28    5.91
  -7   1  -6   30.54    5.94
   7   1   6   42.68    8.21
   7   1   6   23.51    7.36
  -7   1  -6   26.90    4.37
  -7   1  -6   11.85    5.17
  -8  -1  -6   23.50    4.64
   8  -1   6   40.99    9.39
   8  -1   6   25.57    6.69
  -8  -1  -6    5.50    6.28
  -8  -1  -6   26.21    6.94
  -8   1  -6   26.40    7.26
   8   1   6   42.16    7.05
  -8   1  -6    7.28    4.45
  -8   1  -6   46.34    8.14
  -8   1  -6   10.22    6.77
   8   1   6   16.85    7.71
  -8   1  -6   26.68    6.93
   9  -2  -6  134.80   10.42
  -9  -2   6  147.28    9.49
  -9  -2   6  127.04    8.78
   9  -2  -6  148.10   10.92
   9  -2  -6  143.03    8.86
  -9  -2   6  147.71    8.57
   9  -2  -6  133.65   10.56
   9   2  -6  134.47   11.21
  -9   2   6  133.35    7.66
  -9   2   6  153.64   10.21
   9   2  -6  133.62    8.23
   9   2  -6  140.36   11.08
  -9   2   6  138.29    9.13
   9   2  -6  143.45   10.61
   9   2  -6  154.94   11.12
   8  -2  -6    4.15    3.64
   8  -2  -6   -3.62    2.95
  -8  -2   6    6.17    2.89
  -8  -2   6    5.62    3.76
   8  -2  -6   -3.78    4.52
  -8  -2   6    3.51    3.13
  -8  -2   6    2.33    2.91
   8  -2  -6   -1.81    3.97
  -8   2   6   -0.56    7.33
   8   2  -6    4.91    2.79
  -8   2   6    2.86    2.78
  -8   2   6    0.47    3.07
   8   2  -6   -1.49    3.32
   8   2  -6    5.60    4.32
   8   2  -6   -0.15    4.85
   8   2  -6    4.44    5.29
  -8   2   6    1.25    4.28
   7  -2  -6  235.57   10.52
   7  -2  -6  230.33   10.02
   7  -2  -6  244.59   11.55
  -7  -2   6  220.47   10.29
   7  -2  -6  228.32   11.18
  -7  -2   6  236.17    9.33
  -7  -2   6  238.71    9.99
  -7  -2   6  229.04    8.60
  -7  -2   6  229.64    9.76
   7   2  -6  241.65   10.89
   7   2  -6  209.35   11.32
   7   2  -6  231.84   11.53
  -7   2   6  230.16    9.33
   7   2  -6  234.20   10.81
  -7   2   6  224.87   10.25
  -7   2   6  230.08   10.50
   7   2  -6  242.46   10.59
  -7   2   6  227.80    9.29
   6  -2  -6    5.22    2.64
  -6  -2   6    3.26    2.17
   6  -2  -6    4.27    2.91
  -6  -2   6    4.53    1.82
   6  -2  -6    6.00    2.53
  -6  -2   6    5.52    3.66
  -6  -2   6    5.54    2.61
   6  -2  -6   -3.84    3.82
   6  -2  -6    5.65    2.53
  -6   2   6    6.82    2.42
  -6   2   6    3.48    2.36
   6   2  -6   -3.43    3.05
   6   2  -6    4.92    2.83
   6   2  -6    2.43    2.47
   6   2  -6    6.60    2.98
  -6   2   6    3.78    4.51
  -6   2   6    3.73    2.12
  -6   2   6    6.24    2.78
   6   2  -6    2.04    2.37
  -6   2   6    2.83    3.79
   5  -2  -6  103.64    6.06
  -5  -2   6  113.10    5.99
   5  -2  -6  110.36    6.27
   5  -2  -6  106.98    5.70
  -5  -2   6  107.20    5.83
  -5  -2   6  105.00    5.61
  -5  -2   6  106.61    4.38
  -5  -2   6  109.12    4.53
   5  -2  -6  102.68    6.20
  -5  -2   6  115.74    6.10
  -5  -2   6  107.54    5.23
   5  -2  -6  108.17    6.43
   5   2  -6  110.27    5.90
   5   2  -6  111.12    5.76
  -5   2   6  107.58    5.85
   5   2  -6   99.38    6.27
   5   2  -6  107.43    4.18
   5   2  -6   99.20    6.20
  -5   2   6  109.72    5.62
  -5   2   6  116.12    6.11
   5   2  -6  108.88    5.64
  -5   2   6  115.54    6.17
  -5   2   6  105.64    5.53
  -5   2   6  102.62    6.24
   5   2  -6  120.11    5.89
   4  -2  -6    0.78    2.30
  -4  -2   6    3.04    1.95
  -4  -2   6    2.61    2.11
   4  -2  -6    2.88    2.02
  -4  -2   6    2.00    0.92
  -4  -2   6   -1.30    1.64
  -4  -2   6    2.86    1.41
   4  -2  -6    1.72    2.21
   4  -2  -6    0.72    1.85
  -4  -2   6    0.92    1.59
   4  -2  -6    0.88    2.06
   4  -2  -6    4.55    2.13
   4  -2  -6    0.38    1.96
   4   2  -6    0.88    1.64
  -4   2   6    2.35    2.01
   4   2  -6    2.64    1.99
  -4   2   6    4.35    2.04
   4   2  -6    2.96    1.55
  -4   2   6    3.82    2.32
   4   2  -6    5.49    2.19
   4   2  -6    3.00    1.74
  -4   2   6   -0.46    1.80
   4   2  -6    0.90    1.58
  -4   2   6    1.47    1.70
  -4   2   6    1.26    1.81
  -4   2   6    2.32    1.87
   4   2  -6    1.66    1.13
   4   2  -6    3.59    1.64
   3  -2  -6    2.36    2.04
   3  -2  -6   -0.48    1.78
  -3  -2   6    0.53    0.96
  -3  -2   6    0.40    1.24
   3  -2  -6    3.75    1.70
   3  -2  -6    1.09    1.60
  -3  -2   6    1.92    1.96
   3  -2  -6    2.16    1.96
  -3  -2   6   -1.76    1.59
   3  -2  -6    2.12    1.85
  -3  -2   6    2.22    1.16
   3  -2  -6   -0.50    1.86
  -3   2   6    5.66    1.99
  -3   2   6    4.65    1.84
   3   2  -6    0.48    1.21
  -3   2   6    2.56    1.71
  -3   2   6    1.73    1.60
  -3   2   6    2.01    2.02
   3   2  -6    1.51    1.11
   3   2  -6    1.20    1.63
   3   2  -6    1.97    1.61
   3   2  -6    0.98    1.28
  -3   2   6    2.91    1.73
  -3   2   6   -0.89    1.63
   3   2  -6    0.54    1.10
   2  -2  -6   11.36    2.02
   2  -2  -6   12.61    2.06
   2  -2  -6   13.58    2.33
   2  -2  -6   14.69    2.32
   2  -2  -6   11.57    2.22
   2  -2  -6   13.94    2.38
  -2  -2   6   16.49    1.79
  -2  -2   6   14.35    1.63
  -2  -2   6   13.27    2.51
  -2   2   6   10.33    2.21
   2   2  -6   10.77    2.00
   2   2  -6   11.36    1.51
   2   2  -6   11.56    1.80
   2   2  -6   13.11    1.43
   2   2  -6   12.25    1.55
  -2   2   6    8.57    1.99
  -2   2   6   11.02    2.04
  -2   2   6   14.39    2.07
  -2   2   6   11.72    2.09
   2   2  -6   14.82    1.93
  -2   2   6   10.69    1.94
   2   2  -6   10.76    1.55
  -2   2   6   13.21    1.76
   1  -2  -6   13.38    2.22
   1  -2  -6   15.63    2.27
   1  -2  -6   11.83    2.17
  -1  -2   6   13.35    1.56
  -1  -2   6   15.07    0.99
  -1  -2   6    8.83    2.83
   1  -2  -6   13.55    2.08
   1  -2  -6   14.93    2.46
   1  -2  -6   14.28    2.33
  -1   2   6   13.63    2.06
   1   2  -6   14.41    1.86
  -1   2   6   13.12    2.16
   1   2  -6   13.24    2.04
   1   2  -6   13.53    1.80
   1   2  -6   13.05    1.63
  -1   2   6   13.70    2.58
  -1   2   6   13.03    2.14
  -1   2   6   11.85    1.99
   0  -2  -6    7.63    1.97
   0  -2   6    4.18    2.15
   0  -2  -6    5.24    1.87
   0  -2   6    7.45    1.66
   0  -2   6    8.50    1.23
   0  -2  -6    2.80    1.74
   0  -2   6    7.80    1.95
   0  -2  -6    8.63    1.93
   0  -2  -6    6.85    2.00
   0  -2  -6    4.65    2.01
   0   2   6    6.31    1.76
   0   2   6    6.81    1.92
   0   2  -6    7.69    1.45
   0   2   6    7.76    1.09
   0   2   6    8.10    1.93
   0   2   6    7.56    1.93
   0   2   6    5.75    1.67
   0   2  -6    7.05    1.40
   0   2  -6    8.67    1.78
   0   2  -6    5.92    1.31
  -1  -2  -6   41.17    3.89
   1  -2   6   38.71    3.04
  -1  -2  -6   39.45    2.63
   1  -2   6   40.45    2.63
  -1  -2  -6   46.25    3.95
   1  -2   6   38.86    2.77
   1  -2   6   37.58    3.96
  -1  -2  -6   34.22    3.31
   1  -2   6   36.57    3.00
  -1  -2  -6   47.45    3.79
  -1  -2  -6   31.93    3.38
  -1  -2  -6   40.54    3.65
  -1   2  -6   37.05    2.98
   1   2   6   33.81    3.34
   1   2   6   37.02    3.28
  -1   2  -6   39.88    2.81
   1   2   6   34.35    3.58
  -1   2  -6   35.12    2.90
  -1   2  -6   37.32    1.94
   1   2   6   41.37    3.68
   1   2   6   38.92    2.54
  -1   2  -6   38.51    3.02
   1   2   6   35.33    3.45
  -2  -2  -6    0.45    2.38
  -2  -2  -6    3.45    1.93
  -2  -2  -6    2.76    1.65
   2  -2   6   -1.01    1.99
  -2  -2  -6    2.83    2.14
   2  -2   6   -0.56    1.40
  -2  -2  -6    1.97    1.79
   2  -2   6   -1.75    1.49
   2  -2   6    1.51    0.90
   2  -2   6    4.01    1.47
  -2  -2  -6    3.40    2.47
  -2   2  -6    0.28    1.54
   2   2   6    2.56    2.09
  -2   2  -6   -0.12    1.84
  -2   2  -6   -0.04    1.32
   2   2   6    3.64    1.88
   2   2   6    4.24    2.29
  -2   2  -6    3.03    1.68
  -2   2  -6    1.29    1.92
   2   2   6    0.82    1.94
  -2   2  -6    5.37    1.72
  -2   2  -6    2.45    1.34
   2   2   6    1.49    1.76
  -3  -2  -6  162.32    6.58
  -3  -2  -6  149.88    7.58
  -3  -2  -6  155.26    5.90
  -3  -2  -6  157.24    7.61
   3  -2   6  146.37    6.02
   3  -2   6  151.14    5.61
  -3  -2  -6  143.98    6.91
  -3  -2  -6  136.74    6.98
   3  -2   6  154.92    8.64
   3  -2   6  145.70    6.49
   3  -2   6  150.84    5.38
   3  -2   6  145.72    6.59
   3   2   6  146.22    6.43
  -3   2  -6  159.31    7.24
  -3   2  -6  152.27    6.31
  -3   2  -6  150.10    7.50
   3   2   6  147.40    7.43
  -3   2  -6  138.34    6.68
  -3   2  -6  150.92    6.78
   3   2   6  138.87    6.90
  -3   2  -6  154.07    5.07
   3   2   6  136.41    6.98
  -4  -2  -6    4.62    2.48
  -4  -2  -6    4.55    4.20
  -4  -2  -6    3.07    2.58
  -4  -2  -6    6.08    3.29
   4  -2   6    5.23    1.94
  -4  -2  -6    7.83    2.27
   4  -2   6    3.46    2.71
   4  -2   6    9.07    2.28
  -4  -2  -6    7.33    2.69
  -4   2  -6    8.64    3.36
  -4   2  -6    4.45    2.86
  -4   2  -6    3.59    2.56
   4   2   6    0.91    3.78
   4   2   6    7.11    3.13
  -4   2  -6    4.26    2.10
   4   2   6    0.02    2.21
   4   2   6    6.68    2.85
  -4   2  -6    7.51    2.82
  -4   2  -6    2.65    2.54
  -5  -2  -6  165.58    9.15
   5  -2   6  156.14    8.27
   5  -2   6  178.39    7.57
  -5  -2  -6  151.79    9.61
  -5  -2  -6  150.14    8.32
   5  -2   6  152.05    7.10
   5  -2   6  152.68    7.12
   5  -2   6  156.49    8.71
  -5  -2  -6  153.45    7.09
   5   2   6  151.23    8.04
  -5   2  -6  146.82    6.58
  -5   2  -6  159.54   10.08
   5   2   6  150.26    9.00
  -5   2  -6  133.69    8.91
  -5   2  -6  151.36    9.00
   5   2   6  169.54    9.31
  -5   2  -6  158.75   10.19
  -5   2  -6  143.89    8.60
  -6  -2  -6    0.36    4.45
   6  -2   6    2.75    3.36
  -6  -2  -6   -4.49    2.62
  -6  -2  -6    1.95    4.33
   6  -2   6   -5.14    4.19
  -6  -2  -6   -2.02    3.60
   6  -2   6   -3.20    3.10
  -6   2  -6   -0.48    4.74
  -6   2  -6   -2.95    3.47
  -6   2  -6   -2.27    3.96
  -6   2  -6    3.85    2.67
   6   2   6   -3.12    5.37
   6   2   6   -2.44    3.87
   6   2   6   -2.24    4.35
  -7  -2  -6   97.39    9.51
   7  -2   6   79.69    8.92
  -7  -2  -6   81.92    9.02
  -7  -2  -6   87.71    9.21
   7  -2   6   91.25    9.90
   7  -2   6   95.50    7.72
  -7  -2  -6   90.43    7.23
   7   2   6   92.62    9.35
   7   2   6   91.10   11.54
  -7   2  -6  101.69   10.11
  -7   2  -6  101.44    6.73
  -7   2  -6   80.89    9.57
   7   2   6   82.92    9.22
   9  -3  -6   10.53    5.81
   9  -3  -6    8.42    5.74
  -9  -3   6    7.81    4.00
   9  -3  -6    8.36    5.47
  -9  -3   6   11.61    4.08
   9  -3  -6   11.07    4.33
  -9   3   6    1.38    4.94
  -9   3   6    3.08    5.63
   9   3  -6    9.61    5.75
   9   3  -6    2.51    5.30
  -9   3   6    7.81    3.27
   9   3  -6    1.56    5.15
   9   3  -6    1.02    4.76
  -9   3   6   -1.17    5.33
   8  -3  -6   85.37    8.26
  -8  -3   6   84.49    6.71
   8  -3  -6   91.28    8.67
  -8  -3   6   91.90    7.68
  -8  -3   6   78.22    5.45
   8  -3  -6   92.99    7.23
  -8  -3   6   87.60    6.73
   8  -3  -6   81.63    8.75
   8   3  -6   93.82    5.56
  -8   3   6   93.96    9.98
  -8   3   6   95.72    7.94
   8   3  -6   73.72   10.95
  -8   3   6   96.54    6.16
   8   3  -6   74.05    8.80
   8   3  -6   93.60    8.74
   8   3  -6   82.29    7.42
  -8   3   6   88.95    7.49
   7  -3  -6   -2.24    3.03
  -7  -3   6   -0.80    1.93
  -7  -3   6   -3.46    2.40
   7  -3  -6   -0.36    3.69
  -7  -3   6   -0.34    2.70
  -7  -3   6   -3.60    2.63
  -7  -3   6    0.03    2.81
   7  -3  -6    8.23    4.33
   7   3  -6    4.96    4.80
  -7   3   6    1.92    3.96
   7   3  -6   -3.95    3.72
   7   3  -6    1.44    3.12
   7   3  -6   -0.05    3.11
  -7   3   6   -3.85    3.11
  -7   3   6    3.03    2.39
  -7   3   6    1.36    2.74
   7   3  -6   -1.47    3.68
   6  -3  -6  130.27    7.02
  -6  -3   6  124.56    4.71
   6  -3  -6  140.42    7.82
  -6  -3   6  126.52    6.81
  -6  -3   6  121.24    6.67
   6  -3  -6  131.79    7.86
  -6  -3   6  129.88    6.87
  -6  -3   6  130.76    8.39
  -6  -3   6  121.06    4.84
   6  -3  -6  125.24    7.44
  -6   3   6  133.65    6.88
   6   3  -6  138.69   12.03
   6   3  -6  133.44    7.57
   6   3  -6  121.27    7.95
   6   3  -6  132.62    6.90
  -6   3   6  126.16    7.16
   6   3  -6  133.83    7.56
  -6   3   6  115.43    6.14
   6   3  -6  125.58    6.87
  -6   3   6  122.57    7.38
   5  -3  -6   47.61    5.71
   5  -3  -6   52.63    4.98
   5  -3  -6   49.57    4.38
   5  -3  -6   49.93    4.41
  -5  -3   6   47.81    4.27
  -5  -3   6   46.21    4.31
   5  -3  -6   43.09    4.81
  -5  -3   6   51.49    4.47
  -5  -3   6   55.85    4.99
  -5  -3   6   53.27    3.59
  -5   3   6   51.02    4.47
   5   3  -6   52.67    4.41
  -5   3   6   56.16    4.28
   5   3  -6   45.62    5.03
  -5   3   6   45.87    4.58
   5   3  -6   47.79    4.63
  -5   3   6   60.77    5.57
   5   3  -6   52.40    4.12
   5   3  -6   52.38    4.09
  -5   3   6   60.42    5.27
   5   3  -6   56.59    2.36
  -5   3   6   51.33    4.60
   5   3  -6   50.47    4.89
   5   3  -6   51.15    4.57
   4  -3  -6  112.02    5.93
   4  -3  -6  110.69    6.59
   4  -3  -6  101.85    5.85
   4  -3  -6  105.84    5.87
  -4  -3   6  109.81    5.39
  -4  -3   6  111.69    5.28
  -4  -3   6  106.99    4.42
   4  -3  -6  114.35    6.34
   4  -3  -6  101.72    5.83
  -4  -3   6   98.59    4.66
   4  -3  -6  112.84    5.90
  -4  -3   6  100.71    5.45
  -4   3   6  102.31    5.99
  -4   3   6  107.47    5.52
   4   3  -6  100.83    5.32
  -4   3   6  107.99    5.74
   4   3  -6  104.55    4.93
  -4   3   6  101.54    5.26
   4   3  -6  112.62    5.77
   4   3  -6   99.56    4.83
  -4   3   6  116.44    5.88
   4   3  -6  110.56    3.97
   4   3  -6  110.82    5.05
   4   3  -6  114.51    5.12
  -4   3   6  108.07    5.82
   4   3  -6  106.21    5.94
  -4   3   6  102.21    5.64
  -3  -3   6   78.40    3.30
  -3  -3   6   75.92    4.07
   3  -3  -6   69.93    4.47
   3  -3  -6   78.42    4.98
  -3  -3   6   77.49    3.13
   3  -3  -6   73.00    4.67
   3  -3  -6   73.89    4.93
  -3  -3   6   72.47    4.56
   3  -3  -6   71.83    4.60
   3  -3  -6   72.48    4.69
   3  -3  -6   80.27    4.90
   3   3  -6   86.07    3.62
  -3   3   6   75.00    4.57
  -3   3   6   67.42    4.49
   3   3  -6   81.48    3.71
   3   3  -6   68.74    4.52
   3   3  -6   72.33    3.52
  -3   3   6   66.39    4.48
  -3   3   6   71.45    4.48
   3   3  -6   74.97    3.60
  -3   3   6   72.61    4.59
   3   3  -6   76.47    3.98
  -3   3   6   74.06    4.86
  -3   3   6   78.36    4.72
  -3   3   6   71.21    4.00
   2  -3  -6   10.35    2.35
   2  -3  -6   15.36    2.56
  -2  -3   6   11.76    1.54
   2  -3  -6   12.54    2.38
  -2  -3   6   11.60    1.19
  -2  -3   6   10.67    2.50
   2  -3  -6   13.41    2.43
  -2  -3   6   14.94    1.83
   2  -3  -6   11.66    2.54
   2  -3  -6   13.21    2.37
  -2   3   6   13.50    2.60
   2   3  -6   12.86    1.56
   2   3  -6    9.68    1.40
  -2   3   6   16.57    2.37
   2   3  -6   14.62    1.86
  -2   3   6   16.66    2.53
   2   3  -6   10.55    2.14
   2   3  -6   13.51    1.68
   2   3  -6   11.34    1.45
  -2   3   6   10.64    2.12
  -2   3   6   13.61    2.37
  -2   3   6   12.16    2.35
   1  -3  -6  121.01    5.70
   1  -3  -6  122.46    5.66
  -1  -3   6  119.16    3.45
  -1  -3   6  121.59    3.40
   1  -3  -6  110.28    5.59
  -1  -3   6  123.67    3.56
   1  -3  -6  121.60    5.76
   1  -3  -6  120.67    5.91
   1   3  -6  115.78    4.20
  -1   3   6  114.99    5.57
  -1   3   6  115.86    5.59
  -1   3   6  119.46    5.28
   1   3  -6  120.80    3.82
   1   3  -6  116.78    4.12
   1   3  -6  109.78    5.16
  -1   3   6  120.76    5.56
   1   3  -6  118.46    4.18
  -1   3   6  120.02    5.53
   1   3  -6  117.58    4.08
   0  -3  -6   45.77    3.98
   0  -3   6   41.36    3.19
   0  -3   6   43.78    2.02
   0  -3  -6   41.90    3.62
   0  -3   6   43.58    4.15
   0  -3  -6   43.85    3.73
   0  -3  -6   44.92    4.21
   0  -3  -6   40.76    3.56
   0  -3  -6   46.32    3.88
   0  -3   6   43.20    1.90
   0   3   6   43.76    3.69
   0   3  -6   45.30    1.92
   0   3  -6   43.16    2.96
   0   3  -6   40.15    2.53
   0   3  -6   42.84    3.14
   0   3   6   38.95    3.53
   0   3   6   44.62    3.70
   0   3  -6   41.04    2.39
   0   3   6   45.09    3.83
   0   3  -6   44.52    1.90
   0   3   6   40.26    3.39
  -1  -3  -6  181.21    7.76
   1  -3   6  185.91    5.71
   1  -3   6  183.12    7.98
  -1  -3  -6  186.36    6.30
  -1  -3  -6  177.90    7.21
   1  -3   6  181.40    6.44
  -1  -3  -6  186.74    7.76
   1  -3   6  174.57    6.44
  -1  -3  -6  166.81    7.36
  -1  -3  -6  184.22    7.75
   1  -3   6  183.84    6.65
  -1  -3  -6  174.02    7.44
   1   3   6  173.78    7.05
  -1   3  -6  183.10    6.45
  -1   3  -6  186.50    7.67
   1   3   6  183.73    7.47
  -1   3  -6  173.12    6.15
  -1   3  -6  182.37    6.52
   1   3   6  170.53    7.45
   1   3   6  182.00    7.14
  -1   3  -6  186.35    5.69
   1   3   6  178.37    7.43
  -1   3  -6  173.81    6.69
   1   3   6  176.88    7.55
  -1   3  -6  171.18    6.32
  -2  -3  -6  102.75    5.67
   2  -3   6  106.59    4.64
  -2  -3  -6  108.57    6.18
  -2  -3  -6  104.51    4.66
  -2  -3  -6  100.21    5.66
   2  -3   6  106.52    4.65
   2  -3   6  102.61    4.50
   2  -3   6  107.39    4.69
  -2  -3  -6  102.22    5.88
  -2  -3  -6  103.82    6.27
  -2  -3  -6  102.80    6.35
  -2   3  -6  111.99    5.42
  -2   3  -6  104.99    3.12
  -2   3  -6  101.94    5.03
  -2   3  -6  107.93    4.65
   2   3   6  109.05    5.98
  -2   3  -6   97.34    5.80
  -2   3  -6  110.61    5.00
   2   3   6  106.82    6.15
  -2   3  -6  101.49    4.51
   2   3   6   97.43    4.99
   2   3   6  101.97    5.99
  -2   3  -6  101.65    4.96
   2   3   6  101.58    5.81
   2   3   6  111.22    5.82
  -3  -3  -6   42.71    4.12
   3  -3   6   46.47    4.02
   3  -3   6   47.53    2.71
  -3  -3  -6   47.94    4.88
   3  -3   6   47.84    3.59
   3  -3   6   51.11    3.31
   3  -3   6   43.48    5.21
  -3  -3  -6   49.86    3.59
  -3  -3  -6   53.04    4.45
  -3  -3  -6   48.56    5.71
   3  -3   6   45.62    3.80
  -3  -3  -6   45.84    5.45
  -3   3  -6   51.79    2.97
  -3   3  -6   39.74    4.87
   3   3   6   44.48    4.09
   3   3   6   49.98    4.80
  -3   3  -6   59.32    4.71
  -3   3  -6   42.05    3.97
  -3   3  -6   45.29    5.12
  -3   3  -6   52.91    4.25
  -3   3  -6   46.25    4.12
   3   3   6   48.54    4.86
   3   3   6   48.66    6.14
   4  -3   6  172.35    6.14
   4  -3   6  181.18    6.15
  -4  -3  -6  174.63    8.91
   4  -3   6  180.90    6.57
   4  -3   6  176.54    8.60
  -4  -3  -6  184.01    8.94
  -4  -3  -6  178.24    8.16
  -4  -3  -6  180.79    8.68
   4  -3   6  145.46    9.11
  -4  -3  -6  171.44    7.27
   4   3   6  182.58    8.24
  -4   3  -6  179.70    8.90
  -4   3  -6  179.75    6.56
  -4   3  -6  169.10    8.95
  -4   3  -6  170.77    8.23
   4   3   6  185.78    9.07
   4   3   6  179.99    8.86
  -4   3  -6  184.31    8.37
  -4   3  -6  180.89    8.31
   5  -3   6    6.89    2.96
  -5  -3  -6    5.05    2.78
   5  -3   6    3.61    2.35
   5  -3   6    1.84    2.18
  -5  -3  -6    5.12    2.59
   5  -3   6    5.25    3.57
  -5  -3  -6    3.50    4.32
  -5  -3  -6    3.47    3.90
  -5   3  -6   -2.51    7.69
  -5   3  -6   -1.33    3.17
   5   3   6    3.30    3.05
  -5   3  -6    8.34    2.36
  -5   3  -6    5.36    3.96
  -5   3  -6   13.17    5.13
   5   3   6    2.56    3.52
  -5   3  -6    6.32    3.45
   5   3   6    5.15    4.41
  -6  -3  -6   98.11    6.63
   6  -3   6  110.43    7.45
   6  -3   6  108.51    8.38
  -6  -3  -6  102.57    9.19
  -6  -3  -6   95.14    8.80
  -6  -3  -6  101.09    8.65
   6  -3   6   86.51    6.06
   6   3   6   82.88    9.68
  -6   3  -6  101.68    9.37
   6   3   6  105.00    8.50
   6   3   6   93.90    9.09
  -6   3  -6  100.10    6.10
  -6   3  -6   92.87   10.42
  -7  -3  -6   23.00    5.46
   7  -3   6   18.37    4.68
  -7  -3  -6    1.34    5.41
  -7  -3  -6   10.76    3.77
  -7  -3  -6   11.48    5.72
   7  -3   6    2.23    6.84
   7  -3   6   17.26    5.38
   7   3   6   -3.25    5.32
  -7   3  -6   10.64    3.82
  -7   3  -6    0.71    5.37
  -7   3  -6    8.70    5.75
  -7   3  -6   13.29    5.62
   7   3   6   15.66    6.63
   7   3   6   16.07    5.77
  -7   3  -6   15.27    5.73
   9  -4  -6    1.22    4.32
  -9  -4   6    6.10    4.01
  -9  -4   6    8.23    3.51
   9  -4  -6   10.91    6.90
   9  -4  -6    6.69    5.83
   9  -4  -6   19.74    6.12
  -9   4   6    5.84    6.16
   9   4  -6    0.81    5.81
  -9   4   6    1.13    5.70
  -9   4   6    4.99    5.24
   9   4  -6   -9.92    5.43
  -9   4   6    1.41    3.25
   9   4  -6    9.89    6.14
   9   4  -6   13.49    5.28
  -8  -4   6    7.44    3.46
   8  -4  -6    2.51    4.51
  -8  -4   6   -1.29    2.07
   8  -4  -6    1.71    4.45
   8  -4  -6    0.37    4.70
  -8  -4   6    1.44    3.86
   8  -4  -6    5.10    3.67
  -8  -4   6    5.29    3.20
   8   4  -6   -5.36    7.16
   8   4  -6    1.83    5.24
  -8   4   6    1.92    4.49
   8   4  -6   -0.63    3.75
  -8   4   6   -0.10    4.72
   8   4  -6    3.42    4.55
  -8   4   6    6.40    3.09
   7  -4  -6    6.59    3.56
   7  -4  -6    6.30    3.09
   7  -4  -6    4.06    4.25
   7  -4  -6    5.17    4.60
  -7  -4   6    1.14    3.65
  -7  -4   6    3.59    2.74
   7   4  -6    4.39    4.03
   7   4  -6   -1.04    2.96
  -7   4   6    4.99    2.60
   7   4  -6    5.84    3.71
  -7   4   6    3.78    3.82
  -7   4   6    8.04    4.10
  -7   4   6   -2.71    3.54
   6  -4  -6   83.77    6.57
   6  -4  -6   81.35    6.76
  -6  -4   6   75.91    5.58
   6  -4  -6   87.05    5.95
  -6  -4   6   78.61    4.82
  -6  -4   6   80.43    5.74
   6   4  -6   78.06    5.66
  -6   4   6   75.74    6.51
  -6   4   6   72.45    4.93
   6   4  -6   63.87    6.53
   6   4  -6   78.25    6.31
  -6   4   6   93.15    6.33
  -6   4   6   86.00    6.10
   6   4  -6   74.83    5.64
  -5  -4   6    7.83    3.02
  -5  -4   6    4.16    2.49
  -5  -4   6    9.57    2.46
   5  -4  -6    5.04    2.52
  -5  -4   6    5.54    1.70
  -5  -4   6    1.70    2.25
   5  -4  -6    8.49    2.81
   5  -4  -6    9.07    2.35
  -5   4   6    7.77    2.71
   5   4  -6    6.15    2.05
   5   4  -6    8.70    2.04
   5   4  -6    6.47    2.83
  -5   4   6    4.20    3.45
   5   4  -6    9.46    2.79
   5   4  -6   11.27    2.49
  -5   4   6    8.69    2.69
  -5   4   6   10.09    2.81
  -5   4   6    7.45    2.52
   5   4  -6    4.48    2.50
  -4  -4   6  212.51    6.80
  -4  -4   6  201.17    7.88
   4  -4  -6  203.30    8.70
   4  -4  -6  194.37    9.08
  -4  -4   6  217.92    6.57
   4  -4  -6  198.62    9.23
   4  -4  -6  203.31    8.56
  -4  -4   6  200.91    8.46
   4  -4  -6  207.94    8.59
   4  -4  -6  215.27    8.86
   4  -4  -6  211.21    8.57
   4   4  -6  210.36    7.43
   4   4  -6  201.15    7.25
  -4   4   6  192.78    8.64
  -4   4   6  207.68    8.60
  -4   4   6  207.48    8.31
  -4   4   6  205.71    8.80
   4   4  -6  226.27    7.46
   4   4  -6  202.78    7.34
  -4   4   6  225.67    8.56
  -4   4   6  202.44    8.64
  -4   4   6  214.87    7.99
   4   4  -6  216.44    6.07
   4   4  -6  214.90    8.82
  -4   4   6  210.73    8.71
   4   4  -6  200.67    8.04
   4   4  -6  209.05    8.13
   3  -4  -6    2.70    2.40
  -3  -4   6    3.57    1.73
   3  -4  -6    3.83    1.99
   3  -4  -6    2.33    2.57
  -3  -4   6    1.40    1.09
  -3  -4   6    4.16    0.74
   3  -4  -6    7.18    2.38
   3  -4  -6   -0.07    2.43
  -3  -4   6    4.22    2.20
   3  -4  -6    8.90    2.58
   3  -4  -6    3.86    2.03
  -3   4   6   -0.48    1.94
   3   4  -6    3.75    1.77
  -3   4   6    8.94    2.28
   3   4  -6    1.90    1.07
   3   4  -6    3.10    1.32
   3   4  -6    5.85    2.17
  -3   4   6    2.53    2.04
  -3   4   6    0.99    1.86
   3   4  -6    2.53    1.24
  -3   4   6    6.31    2.24
   3   4  -6    4.57    1.26
  -3   4   6    4.95    2.04
  -3   4   6    0.97    2.37
  -3   4   6    2.99    2.31
   3   4  -6    5.73    1.23
   2  -4  -6  345.22   11.64
   2  -4  -6  346.70   11.52
   2  -4  -6  345.47   11.44
  -2  -4   6  339.77    9.93
   2  -4  -6  340.84   11.50
  -2  -4   6  348.32   11.20
   2  -4  -6  328.74   11.44
   2  -4  -6  342.31   11.60
   2  -4  -6  358.66   11.63
  -2   4   6  345.24   11.51
   2   4  -6  340.31    9.39
   2   4  -6  325.01   10.57
   2   4  -6  346.57   11.35
   2   4  -6  325.51    9.36
  -2   4   6  338.24   11.42
  -2   4   6  343.25   11.53
   2   4  -6  347.27    9.45
   2   4  -6  350.24    9.39
  -2   4   6  353.40   11.26
  -2   4   6  333.80   11.28
  -2   4   6  334.02   11.58
  -1  -4   6    0.10    1.99
   1  -4  -6    0.56    2.04
   1  -4  -6    0.87    1.60
   1  -4  -6   -0.97    1.62
   1  -4  -6    0.33    1.94
   1  -4  -6    2.51    2.39
  -1  -4   6    0.89    1.00
  -1  -4   6    1.20    1.86
   1  -4  -6    0.63    1.79
   1   4  -6   -0.53    0.64
   1   4  -6   -0.13    0.63
   1   4  -6    0.00    0.78
  -1   4   6    3.48    2.12
  -1   4   6    0.26    1.77
   1   4  -6    0.90    1.02
  -1   4   6    1.86    1.97
  -1   4   6   -0.73    1.91
   1   4  -6    0.67    0.77
   1   4  -6   -0.55    1.33
  -1   4   6    0.99    1.75
   0  -4  -6  108.21    5.94
   0  -4  -6  127.94    6.23
   0  -4  -6  102.98    5.57
   0  -4  -6  120.00    5.99
   0  -4  -6  118.93    6.19
   0  -4   6  119.68    5.12
   0  -4   6  110.06    6.14
   0  -4  -6  110.77    5.82
   0   4   6  114.93    5.95
   0   4  -6  112.74    4.15
   0   4   6  118.51    6.06
   0   4   6  106.87    5.64
   0   4  -6  116.13    4.11
   0   4  -6  117.08    3.96
   0   4   6  116.76    4.94
   0   4   6  117.68    5.67
   0   4  -6  114.72    4.96
   0   4   6  116.72    5.95
   1  -4   6   12.26    1.30
  -1  -4  -6   15.05    3.04
  -1  -4  -6   14.21    2.22
   1  -4   6   10.90    1.18
  -1  -4  -6    7.93    2.38
  -1  -4  -6    9.49    2.83
   1  -4   6   11.08    2.09
  -1  -4  -6    9.17    2.20
  -1  -4  -6   14.66    2.72
  -1  -4  -6   15.59    3.11
   1  -4   6   10.49    2.85
  -1   4  -6   12.30    1.61
  -1   4  -6   14.68    1.77
   1   4   6   14.17    2.74
   1   4   6   10.64    2.68
  -1   4  -6   11.46    1.86
  -1   4  -6   13.14    1.63
  -1   4  -6   11.30    2.51
   1   4   6    8.79    2.71
  -1   4  -6   11.09    1.63
  -1   4  -6   12.66    1.93
   1   4   6    8.19    2.32
   1   4   6   13.70    2.83
   1   4   6   15.83    2.21
  -2  -4  -6   73.66    6.14
   2  -4   6   84.44    3.78
  -2  -4  -6   83.99    6.18
  -2  -4  -6   86.93    5.54
   2  -4   6   96.46    4.38
   2  -4   6   87.11    3.92
  -2  -4  -6   94.44    5.87
  -2  -4  -6   86.57    5.40
  -2  -4  -6   89.46    6.28
   2  -4   6   87.55    6.07
  -2  -4  -6   78.93    4.47
  -2   4  -6   90.32    4.56
  -2   4  -6   90.42    5.82
   2   4   6   95.85    6.13
  -2   4  -6   87.93    4.51
  -2   4  -6   87.59    4.60
  -2   4  -6   92.66    4.82
   2   4   6   84.66    6.02
   2   4   6   95.75    5.86
   2   4   6   85.67    5.77
   2   4   6   94.12    5.03
  -2   4  -6   88.44    4.42
   2   4   6   87.62    5.66
   3  -4   6    4.62    1.82
   3  -4   6    2.72    1.96
  -3  -4  -6    2.76    2.31
   3  -4   6   -0.33    2.00
   3  -4   6    2.75    2.42
  -3  -4  -6    3.43    2.63
  -3  -4  -6    2.83    2.02
  -3  -4  -6    7.19    2.23
  -3   4  -6    4.70    2.62
  -3   4  -6    0.92    1.92
  -3   4  -6    3.82    2.70
  -3   4  -6    2.76    2.30
   3   4   6    2.69    2.68
  -3   4  -6    5.04    2.83
   3   4   6    5.11    2.76
  -3   4  -6    4.47    2.04
   3   4   6    4.94    2.18
  -4  -4  -6   50.16    5.99
   4  -4   6   51.19    3.12
   4  -4   6   41.77    5.20
  -4  -4  -6   51.07    4.48
  -4  -4  -6   50.47    4.71
   4  -4   6   50.03    5.81
   4  -4   6   50.32    4.66
  -4  -4  -6   52.51    5.82
  -4   4  -6   48.60    5.13
   4   4   6   53.13    5.59
  -4   4  -6   50.58    4.99
  -4   4  -6   40.18    4.85
  -4   4  -6   47.77    6.35
   4   4   6   47.76    6.06
   4   4   6   37.74    4.35
  -4   4  -6   48.23    5.83
  -5  -4  -6    1.55    2.71
   5  -4   6    4.31    1.71
   5  -4   6    5.17    2.98
  -5  -4  -6    8.77    4.85
  -5  -4  -6    5.35    2.74
   5  -4   6    3.91    1.69
   5  -4   6    3.62    1.71
  -5  -4  -6    5.88    4.36
   5   4   6    6.08    3.35
   5   4   6    3.79    4.18
   5   4   6    5.62    4.49
  -5   4  -6   -0.70    5.46
  -5   4  -6    7.01    4.59
  -5   4  -6    4.94    3.65
   6  -4   6   -4.64    4.44
  -6  -4  -6    6.37    4.59
   6  -4   6    1.95    2.41
   6  -4   6   -3.94    3.70
  -6  -4  -6  -11.09    3.92
  -6  -4  -6    3.20    4.52
  -6   4  -6    8.08    4.81
  -6   4  -6   -1.60    2.84
  -6   4  -6  -10.83    4.26
   6   4   6    1.01    4.96
  -6   4  -6    0.95    3.93
   6   4   6    2.99    4.66
  -7  -4  -6    2.00    5.80
  -7  -4  -6   10.36    5.27
  -7  -4  -6    5.46    3.73
  -7  -4  -6    6.81    6.12
   7  -4   6   11.31    4.78
  -7   4  -6    8.23    6.03
   7   4   6    7.40    5.74
  -7   4  -6   11.08    5.60
   7   4   6    7.73    6.05
  -7   4  -6    6.40    5.33
  -7   4  -6    3.02    6.15
  -7   4  -6   -1.89    3.80
   7   4   6   -0.64    5.84
   9  -5  -6    6.64    6.35
  -9  -5   6    6.62    3.87
   9  -5  -6   12.56    5.00
   9  -5  -6   16.65    6.51
  -9  -5   6    9.23    4.48
  -9   5   6    5.44    3.90
  -9   5   6    4.24    5.96
   9   5  -6   12.24    5.28
   9   5  -6    9.99    6.21
  -9   5   6   15.08    6.88
   9   5  -6   10.27    6.37
  -9   5   6    8.71    6.30
   9   5  -6   18.71    6.30
   8  -5  -6   28.36    5.44
  -8  -5   6   40.57    5.52
   8  -5  -6   25.30    5.70
   8  -5  -6   28.69    5.38
  -8  -5   6   26.89    4.50
   8  -5  -6   22.15    5.65
   8   5  -6   26.37    6.01
  -8   5   6   26.60    5.59
   8   5  -6   36.67    5.58
  -8   5   6   29.49    6.37
  -8   5   6   30.44    3.84
  -8   5   6   32.38    6.24
   7  -5  -6    3.55    3.24
   7  -5  -6    4.16    4.63
   7  -5  -6   -0.20    3.88
  -7  -5   6    2.36    3.26
  -7  -5   6    2.02    2.88
   7  -5  -6   -1.84    3.04
  -7  -5   6    6.47    3.08
   7   5  -6    2.41    3.46
  -7   5   6    0.06    4.80
  -7   5   6   10.09    4.43
  -7   5   6    5.18    2.64
  -7   5   6    3.32    4.33
   7   5  -6    7.92    5.29
  -6  -5   6   32.33    4.30
   6  -5  -6   40.04    4.81
  -6  -5   6   47.60    4.81
  -6  -5   6   36.51    3.87
   6  -5  -6   42.52    5.70
   6  -5  -6   39.11    5.21
  -6   5   6   36.76    5.36
  -6   5   6   46.24    5.54
  -6   5   6   34.93    4.11
   6   5  -6   36.48    4.36
   6   5  -6   38.85    4.76
   6   5  -6   38.90    4.70
  -6   5   6   50.55    6.05
   6   5  -6   44.16    4.74
   6   5  -6   58.97    6.31
   5  -5  -6   73.49    5.94
   5  -5  -6   76.55    5.42
  -5  -5   6   75.27    4.44
   5  -5  -6   85.95    6.30
  -5  -5   6   78.72    5.42
  -5  -5   6   76.07    5.68
  -5  -5   6   74.01    3.77
  -5   5   6   78.07    6.03
   5   5  -6   72.94    5.49
   5   5  -6   71.35    5.63
   5   5  -6   70.18    4.91
   5   5  -6   71.53    5.67
  -5   5   6   70.29    5.87
   5   5  -6   76.65    4.59
  -5   5   6   68.05    4.72
  -5   5   6   67.34    5.78
   5   5  -6   75.45    4.81
   4  -5  -6   36.23    4.08
   4  -5  -6   34.86    4.26
  -4  -5   6   43.54    3.90
  -4  -5   6   45.60    4.32
  -4  -5   6   36.06    2.01
   4  -5  -6   41.97    4.23
  -4  -5   6   44.06    1.98
   4   5  -6   40.37    3.08
   4   5  -6   42.98    3.59
   4   5  -6   49.85    4.25
  -4   5   6   43.51    4.87
  -4   5   6   46.64    4.33
  -4   5   6   43.13    4.87
  -4   5   6   41.53    4.58
   4   5  -6   41.30    1.76
  -4   5   6   47.60    3.97
   4   5  -6   44.74    3.36
  -4   5   6   48.76    5.04
   4   5  -6   45.25    1.78
   4   5  -6   39.92    4.18
  -3  -5   6  159.23    6.21
   3  -5  -6  143.53    7.51
   3  -5  -6  150.50    7.68
   3  -5  -6  162.41    7.22
   3  -5  -6  140.43    7.32
   3  -5  -6  157.10    7.46
   3  -5  -6  153.29    7.05
   3  -5  -6  166.41    7.54
  -3  -5   6  160.24    7.10
   3   5  -6  158.88    5.41
  -3   5   6  155.99    7.22
  -3   5   6  148.44    7.32
   3   5  -6  156.58    5.33
  -3   5   6  156.11    7.40
  -3   5   6  160.04    7.65
   3   5  -6  154.86    6.50
   3   5  -6  165.65    5.36
   3   5  -6  154.65    5.20
   3   5  -6  163.01    5.48
   3   5  -6  153.55    7.18
  -3   5   6  152.03    7.08
  -3   5   6  153.65    7.23
   2  -5  -6    5.22    2.28
   2  -5  -6    4.09    2.59
   2  -5  -6    8.73    2.43
  -2  -5   6    7.27    1.81
   2  -5  -6    2.02    2.68
   2  -5  -6    4.52    2.21
   2  -5  -6    9.44    2.73
   2  -5  -6    5.07    2.52
  -2  -5   6    5.64    2.41
   2   5  -6    7.49    1.08
  -2   5   6    8.32    2.52
  -2   5   6    8.09    2.59
   2   5  -6    7.69    0.95
  -2   5   6    6.89    2.67
   2   5  -6    6.96    1.77
   2   5  -6    6.38    2.05
  -2   5   6    3.90    2.14
   2   5  -6    6.00    1.02
  -2   5   6    4.47    2.26
  -2   5   6    3.35    2.37
  -1  -5   6  250.24    8.83
   1  -5  -6  255.45    9.71
   1  -5  -6  258.91    9.70
  -1  -5   6  254.29    9.50
   1  -5  -6  251.73    9.39
   1  -5  -6  240.06    9.49
   1  -5  -6  242.29    9.42
   1  -5  -6  258.95    9.76
   1   5  -6  246.67    6.58
   1   5  -6  256.29    8.73
   1   5  -6  248.96    6.68
   1   5  -6  258.73    6.77
  -1   5   6  253.53    9.64
   1   5  -6  253.67    6.52
  -1   5   6  253.47    9.23
  -1   5   6  245.49    9.53
  -1   5   6  251.20    9.40
   1   5  -6  240.88    8.64
  -1   5   6  249.00    9.66
  -1   5   6  243.21    9.31
   0  -5  -6   16.64    3.33
   0  -5   6   16.78    3.05
   0  -5  -6   19.16    3.15
   0  -5  -6   15.96    2.71
   0  -5  -6   18.36    3.00
   0  -5  -6   14.90    2.68
   0  -5  -6   16.93    2.42
   0  -5   6   18.02    2.73
   0  -5  -6   21.42    3.32
   0   5   6   17.03    2.30
   0   5   6   23.41    3.35
   0   5  -6   18.90    2.95
   0   5   6   16.37    3.03
   0   5  -6   18.94    1.35
   0   5  -6   18.50    1.81
   0   5  -6   18.94    2.27
   0   5   6   17.53    2.87
   0   5  -6   17.17    1.57
   0   5  -6   19.10    1.57
   0   5   6   13.91    2.77
   0   5   6   15.98    2.95
  -1  -5  -6  259.69   10.20
  -1  -5  -6  251.28   10.21
  -1  -5  -6  258.71    9.89
  -1  -5  -6  243.35   10.09
   1  -5   6  265.70   10.53
  -1  -5  -6  269.10   10.29
  -1  -5  -6  275.50    9.25
  -1  -5  -6  260.71   10.26
   1  -5   6  283.15    8.66
   1   5   6  262.51   10.27
  -1   5  -6  264.53    7.90
   1   5   6  253.20   10.19
  -1   5  -6  264.42    8.10
   1   5   6  258.32    9.27
   1   5   6  262.99   10.22
  -1   5  -6  274.20    8.09
   1   5   6  265.85   10.14
  -1   5  -6  277.67    8.45
  -1   5  -6  265.38   10.14
  -1   5  -6  274.64    9.08
   1   5   6  259.47   10.14
  -1   5  -6  273.20    8.28
   2  -5   6   32.02    3.11
   2  -5   6   30.59    2.01
  -2  -5  -6   24.62    4.48
  -2  -5  -6   39.24    4.42
   2  -5   6   27.68    2.02
  -2  -5  -6   26.19    3.76
   2  -5   6   28.90    3.96
  -2  -5  -6   27.42    3.27
  -2   5  -6   28.41    3.02
  -2   5  -6   25.67    2.97
  -2   5  -6   27.93    3.00
  -2   5  -6   34.75    3.76
   2   5   6   39.17    4.64
  -2   5  -6   34.02    3.68
  -2   5  -6   23.28    3.85
   2   5   6   30.19    4.07
   2   5   6   35.34    3.88
  -3  -5  -6   57.10    4.54
  -3  -5  -6   45.91    4.26
   3  -5   6   52.87    5.38
   3  -5   6   52.60    3.59
  -3  -5  -6   51.94    5.10
  -3  -5  -6   48.41    5.34
   3  -5   6   52.47    5.10
   3  -5   6   51.26    3.83
  -3   5  -6   41.19    5.45
  -3   5  -6   49.50    5.06
   3   5   6   48.53    5.31
  -3   5  -6   59.45    4.76
   3   5   6   54.69    4.92
   3   5   6   52.21    5.69
  -3   5  -6   50.11    5.45
  -3   5  -6   52.08    4.33
   4  -5   6   61.24    4.74
  -4  -5  -6   62.04    5.01
   4  -5   6   52.08    5.53
  -4  -5  -6   74.79    7.35
  -4  -5  -6   66.33    5.06
  -4  -5  -6   52.75    6.45
  -4   5  -6   66.02    5.49
  -4   5  -6   60.31    5.57
   4   5   6   64.34    6.82
  -4   5  -6   56.85    6.85
   4   5   6   61.52    7.64
  -4   5  -6   63.43    6.29
  -4   5  -6   60.84    7.00
   4   5   6   68.78    5.98
  -5  -5  -6    2.63    2.79
  -5  -5  -6    8.07    4.58
  -5  -5  -6    4.83    2.89
   5  -5   6    3.71    3.13
  -5  -5  -6   -0.02    4.46
   5  -5   6   -2.46    3.18
   5   5   6   -0.30    4.47
   5   5   6   -1.80    3.68
  -5   5  -6   -2.36    3.42
   5   5   6   -1.38    4.48
  -5   5  -6    2.80    4.28
  -5   5  -6    0.81    4.09
  -6  -5  -6   41.89    5.56
  -6  -5  -6   36.81    6.65
   6  -5   6   42.57    5.72
  -6  -5  -6   41.04    6.06
   6   5   6   46.59    7.02
  -6   5  -6   51.77    6.89
  -6   5  -6   43.75    5.86
   6   5   6   51.78    7.06
   6   5   6   48.37    7.85
  -6   5  -6   40.09    6.85
  -7  -5  -6   25.47    7.19
  -7  -5  -6   17.09    4.27
   7  -5   6   31.76    6.02
  -7  -5  -6   27.22    6.50
  -7  -5  -6   26.98    7.82
  -7   5  -6   35.15    6.78
  -7   5  -6   27.32    5.98
   7   5   6   31.04    7.25
   7   5   6   20.60    6.65
  -7   5  -6   29.17    5.37
  -7   5  -6   25.38    6.91
  -7   5  -6   24.74    7.23
   7   5   6   34.73    7.42
   8  -6  -6    5.21    5.40
  -8  -6   6    4.18    3.31
   8  -6  -6    0.89    5.35
  -8  -6   6    6.37    3.75
   8  -6  -6   -1.44    4.33
   8  -6  -6    1.87    4.15
   8   6  -6    4.88    4.06
  -8   6   6   -3.20    5.40
  -8   6   6   -5.57    3.34
  -8   6   6    3.65    5.13
   8   6  -6    7.72    6.28
   8   6  -6    5.02    5.22
  -8   6   6    1.11    5.18
   7  -6  -6  165.99    9.43
  -7  -6   6  139.58    8.60
   7  -6  -6  132.88   11.87
   7  -6  -6  144.58    8.42
   7  -6  -6  132.86    9.45
  -7  -6   6  152.46    8.92
   7   6  -6  151.58    9.04
  -7   6   6  140.58   11.08
  -7   6   6  135.21   12.06
  -7   6   6  150.97    9.67
  -7   6   6  154.57    7.10
   7   6  -6  145.06   10.69
   7   6  -6  143.72    8.39
  -6  -6   6    0.77    2.74
   6  -6  -6   -2.21    4.11
  -6  -6   6    2.59    2.15
   6  -6  -6    2.85    2.65
  -6  -6   6    4.76    3.03
   6  -6  -6   -3.35    2.84
   6  -6  -6    5.60    3.83
   6   6  -6    2.64    3.14
  -6   6   6    6.52    4.41
   6   6  -6    2.36    3.51
  -6   6   6   -1.21    2.28
   6   6  -6    1.59    2.83
  -6   6   6    1.51    4.11
  -6   6   6    1.28    4.03
   6   6  -6   -6.01    3.76
   6   6  -6   -2.43    2.62
   5  -6  -6   74.79    5.59
  -5  -6   6   73.27    5.43
  -5  -6   6   66.26    5.44
  -5  -6   6   78.81    3.24
   5  -6  -6   77.37    6.65
   5  -6  -6   67.47    6.15
  -5  -6   6   75.88    3.53
   5   6  -6   76.30    4.52
  -5   6   6   78.00    4.69
   5   6  -6   55.74    5.54
  -5   6   6   67.19    6.32
   5   6  -6   82.90    4.94
   5   6  -6   74.64    4.89
   5   6  -6   56.32    5.80
   5   6  -6   75.98    6.11
  -5   6   6   76.06    6.78
  -5   6   6   77.39    6.64
  -4  -6   6   17.02    3.41
   4  -6  -6   12.22    3.09
  -4  -6   6   15.34    2.80
   4  -6  -6   15.40    2.93
   4  -6  -6   12.64    3.31
  -4   6   6   14.93    3.44
  -4   6   6   16.15    3.32
   4   6  -6   17.35    2.49
   4   6  -6   15.15    2.03
   4   6  -6   12.23    2.84
  -4   6   6   18.06    3.65
  -4   6   6   16.44    2.75
  -4   6   6   18.57    3.51
   4   6  -6   13.73    2.79
   4   6  -6   14.89    2.00
   3  -6  -6    2.03    2.11
   3  -6  -6   -0.44    2.16
   3  -6  -6    2.07    2.54
  -3  -6   6   -0.79    1.79
   3  -6  -6    4.55    3.13
  -3  -6   6   -2.36    1.96
  -3   6   6    2.00    3.35
   3   6  -6    0.64    0.89
  -3   6   6   -4.79    1.96
   3   6  -6    6.20    2.13
  -3   6   6    0.76    2.39
  -3   6   6    1.50    2.93
   3   6  -6    0.24    1.41
   3   6  -6    0.44    1.00
  -3   6   6    1.45    2.40
   3   6  -6    0.52    1.39
   3   6  -6    3.07    2.26
   3   6  -6    1.57    1.22
   2  -6  -6   12.05    2.80
  -2  -6   6    9.64    1.95
  -2  -6   6   11.48    2.59
   2  -6  -6    4.87    3.00
   2  -6  -6   10.21    2.73
  -2  -6   6    7.21    2.39
   2  -6  -6    5.27    2.41
   2  -6  -6    7.96    2.42
   2  -6  -6    5.15    3.55
  -2   6   6    5.49    2.43
   2   6  -6    3.39    2.11
   2   6  -6   10.53    1.08
   2   6  -6    8.86    2.07
  -2   6   6    8.82    2.70
  -2   6   6   13.08    2.95
  -2   6   6    6.16    2.90
  -2   6   6    7.91    3.05
   2   6  -6    7.38    1.01
  -1  -6   6    4.90    2.32
   1  -6  -6    6.63    2.36
   1  -6  -6    6.12    2.26
   1  -6  -6    6.88    2.41
  -1  -6   6    4.78    2.57
   1  -6  -6    0.96    2.97
   1  -6  -6    7.97    2.42
   1  -6  -6   11.98    2.82
  -1  -6   6    0.62    1.69
  -1   6   6    1.64    2.94
  -1   6   6    2.51    2.36
   1   6  -6    2.43    1.73
  -1   6   6    1.06    3.67
  -1   6   6   -3.17    2.62
  -1   6   6    3.52    2.19
   1   6  -6   -0.10    1.47
  -1   6   6    6.04    2.64
   0  -6  -6   19.82    4.06
   0  -6  -6   14.20    3.33
   0  -6  -6   12.11    2.91
   0  -6  -6   16.24    2.61
   0  -6   6   19.87    3.53
   0  -6  -6   21.21    3.23
   0  -6  -6   19.01    3.28
   0   6  -6   18.46    2.30
   0   6  -6   18.44    2.90
   0   6  -6   18.01    1.45
   0   6   6   23.52    3.63
   0   6   6   14.46    2.84
   0   6   6   16.67    2.55
   0   6   6   13.05    2.96
   0   6  -6   19.58    1.78
   1  -6   6   22.63    2.78
  -1  -6  -6   21.81    3.54
   1  -6   6   27.54    4.11
  -1  -6  -6   22.92    3.52
  -1  -6  -6   30.56    4.04
  -1  -6  -6   23.66    3.13
  -1   6  -6   21.01    1.96
  -1   6  -6   23.66    2.30
   1   6   6   22.52    4.17
  -1   6  -6   20.39    3.33
   1   6   6   21.86    2.96
  -1   6  -6   23.49    2.06
   1   6   6   28.33    3.86
  -1   6  -6   29.20    2.81
   1   6   6   27.07    3.78
   2  -6   6   31.06    3.39
  -2  -6  -6   26.70    3.26
  -2  -6  -6   21.01    3.11
  -2  -6  -6   22.46    3.63
   2  -6   6   27.75    3.89
  -2  -6  -6   25.27    3.99
   2   6   6   18.15    3.73
  -2   6  -6   25.59    2.06
   2   6   6   21.38    3.82
  -2   6  -6   18.63    2.37
   2   6   6   22.55    3.37
  -2   6  -6   20.83    2.71
  -2   6  -6   23.56    3.71
  -2   6  -6   20.15    2.91
  -2   6  -6   19.75    2.99
  -2   6  -6   25.07    3.99
   3  -6   6   90.31    3.81
   3  -6   6   67.56    3.89
  -3  -6  -6   87.69    5.59
  -3  -6  -6   85.65    5.07
   3  -6   6   74.82    6.26
  -3  -6  -6   77.94    6.70
  -3  -6  -6   88.25    6.53
  -3   6  -6   79.52    4.87
  -3   6  -6   81.67    5.19
  -3   6  -6   83.06    5.18
  -3   6  -6   84.19    6.29
   3   6   6   85.75    7.13
   3   6   6   84.10    6.24
  -3   6  -6   73.95    6.41
  -3   6  -6   83.12    6.69
   3   6   6   74.78    6.64
  -4  -6  -6    8.23    4.16
  -4  -6  -6    7.20    2.70
  -4  -6  -6    5.04    4.04
   4  -6   6    7.95    3.62
  -4  -6  -6    1.84    2.90
  -4   6  -6    8.31    3.30
   4   6   6    5.43    4.58
  -4   6  -6    5.92    4.84
  -4   6  -6   10.41    3.16
  -4   6  -6    7.09    4.35
   4   6   6    3.41    4.46
   4   6   6    8.25    3.61
  -4   6  -6    6.54    3.44
   5  -6   6  120.56    8.31
  -5  -6  -6  124.11    7.22
  -5  -6  -6  117.48    8.85
  -5  -6  -6  136.73   10.06
  -5  -6  -6  109.02    7.44
  -5   6  -6  133.32    8.75
   5   6   6  114.83    9.79
  -5   6  -6  127.22    7.99
  -5   6  -6  112.53    9.59
  -5   6  -6  126.26    9.91
   5   6   6  108.74    9.53
   5   6   6  113.27    9.67
  -6  -6  -6   -4.31    4.63
  -6  -6  -6    5.46    5.28
   6  -6   6    2.04    3.96
  -6  -6  -6    0.58    4.36
  -6  -6  -6   -2.75    3.12
   6   6   6   -4.64    4.98
  -6   6  -6    1.30    5.29
  -6   6  -6   -2.09    5.14
   6   6   6    3.00    5.59
  -6   6  -6    6.93    4.34
  -6   6  -6   -0.66    5.43
   6   6   6   -3.67    5.06
  -7  -6  -6   97.10   11.17
  -7  -6  -6   89.91   10.66
  -7   6  -6   89.25   11.26
   7   6   6   92.42   11.86
  -7   6  -6   89.28   10.40
  -7   6  -6  108.54   12.53
   8  -7  -6   82.09   10.19
  -8  -7   6   81.48    7.36
   8  -7  -6   80.73    9.11
   8  -7  -6   88.61    8.82
   8  -7  -6   82.62    9.65
   8   7  -6   83.06    9.65
   8   7  -6   91.73   10.34
  -8   7   6   95.38   10.85
   8   7  -6   93.51    8.68
  -8   7   6   82.05   10.38
  -8   7   6   76.93    8.85
   7  -7  -6    3.49    7.72
  -7  -7   6    6.77    3.73
  -7  -7   6    2.42    3.17
   7  -7  -6    4.35    4.75
   7  -7  -6    2.60    3.86
   7  -7  -6    3.90    3.81
   7   7  -6    4.04    4.22
  -7   7   6    9.03    4.86
  -7   7   6    3.88    3.21
   7   7  -6   -9.18    4.51
   7   7  -6    9.77    3.73
  -7   7   6    3.90    4.97
  -7   7   6    6.14    4.78
   6  -7  -6  107.52    8.29
   6  -7  -6  100.21    8.57
  -6  -7   6  100.06    7.05
  -6  -7   6   99.51    6.99
   6  -7  -6  101.11    6.92
   6  -7  -6  113.96    9.54
  -6   7   6  106.94    7.91
  -6   7   6   97.08    5.81
   6   7  -6   98.02    6.48
   6   7  -6  109.05    9.26
   6   7  -6   95.41    6.74
   5  -7  -6    3.69    2.65
  -5  -7   6    9.62    3.03
  -5  -7   6   12.60    3.61
   5  -7  -6    4.98    3.94
   5  -7  -6    3.33    3.54
  -5   7   6    8.84    4.17
   5   7  -6    7.23    3.35
   5   7  -6    8.41    2.11
   5   7  -6    9.67    3.15
  -5   7   6   10.08    4.37
   5   7  -6    4.98    2.32
   5   7  -6   12.41    5.04
  -5   7   6   10.41    2.56
  -5   7   6    7.97    4.43
   5   7  -6   11.56    2.57
  -4  -7   6   58.17    5.38
  -4  -7   6   54.48    4.65
   4  -7  -6   57.61    5.12
   4  -7  -6   53.49    5.69
   4  -7  -6   55.57    5.72
  -4   7   6   43.65    5.54
   4   7  -6   55.84    4.47
   4   7  -6   51.87    4.62
   4   7  -6   54.46    4.45
  -4   7   6   63.38    6.20
  -4   7   6   52.45    6.47
   4   7  -6   47.46    5.19
  -4   7   6   57.27    4.25
   4   7  -6   52.97    3.19
   4   7  -6   58.39    3.53
  -3  -7   6   42.11    3.97
   3  -7  -6   44.10    4.51
  -3  -7   6   47.87    4.36
   3  -7  -6   41.57    4.93
   3   7  -6   44.00    2.01
   3   7  -6   47.22    2.96
   3   7  -6   50.15    4.67
  -3   7   6   49.25    5.39
  -3   7   6   38.41    4.86
   3   7  -6   47.91    2.87
  -3   7   6   44.93    5.21
   3   7  -6   45.57    3.12
   2  -7  -6    4.91    2.66
   2  -7  -6   13.39    3.41
  -2  -7   6   13.53    2.26
  -2  -7   6   19.08    3.47
   2  -7  -6    4.86    2.34
   2  -7  -6    7.97    2.76
  -2  -7   6   12.18    2.65
   2   7  -6    8.60    1.88
  -2   7   6   11.41    2.99
  -2   7   6   11.40    6.20
  -2   7   6    8.44    2.97
   2   7  -6   10.06    1.32
   2   7  -6   15.74    2.68
   2   7  -6   10.92    2.67
  -2   7   6   13.11    3.00
   2   7  -6   10.22    1.35
  -1  -7   6   41.57    3.22
   1  -7  -6   53.32    5.01
   1  -7  -6   41.70    4.78
   1  -7  -6   48.54    4.95
   1  -7  -6   42.59    4.38
  -1  -7   6   45.99    4.21
  -1  -7   6   39.90    4.59
  -1   7   6   38.58    4.96
   1   7  -6   45.84    3.98
   1   7  -6   49.32    3.89
  -1   7   6   43.64    4.27
  -1   7   6   40.72    4.45
   1   7  -6   37.87    3.66
  -1   7   6   44.12    4.94
   1   7  -6   42.08    4.13
   0  -7  -6    7.95    2.56
   0  -7  -6    3.31    2.23
   0  -7  -6    0.19    2.53
   0  -7   6    2.31    2.74
   0  -7   6    4.56    2.54
   0  -7  -6    5.79    2.59
   0  -7  -6    1.13    2.41
   0   7  -6    4.73    2.50
   0   7  -6    2.69    0.90
   0   7   6    3.98    2.69
   0   7   6   -0.94    2.02
   0   7  -6    2.81    1.57
   0   7   6    3.18    4.76
   0   7   6    1.74    2.16
   0   7  -6   -2.57    2.17
   0   7  -6    2.01    1.03
  -1  -7  -6   61.10    4.74
   1  -7   6   54.14    4.34
   1  -7   6   58.34    5.23
  -1  -7  -6   55.77    5.16
  -1  -7  -6   59.03    5.58
   1   7   6   70.37    5.69
   1   7   6   52.31    5.46
  -1   7  -6   60.45    2.58
   1   7   6   65.26    5.10
  -1   7  -6   59.17    2.58
  -1   7  -6   61.99    3.71
  -1   7  -6   56.80    5.33
  -1   7  -6   54.52    5.15
  -1   7  -6   62.37    3.34
  -2  -7  -6   84.84    4.66
  -2  -7  -6   82.84    6.54
   2  -7   6   75.59    5.96
  -2  -7  -6   79.80    5.47
  -2  -7  -6   87.16    6.60
  -2   7  -6   80.82    2.60
  -2   7  -6   86.48    6.35
   2   7   6   75.24    5.81
  -2   7  -6   80.19    5.23
  -2   7  -6   78.76    5.73
   2   7   6   76.73    6.98
  -2   7  -6   84.47    4.17
  -2   7  -6   69.28    6.43
  -2   7  -6   80.18    6.09
  -2   7  -6   80.32    3.98
   2   7   6   80.77    6.87
  -3  -7  -6   18.16    4.67
  -3  -7  -6   18.11    3.56
  -3  -7  -6   11.81    3.74
   3  -7   6   19.40    4.07
  -3  -7  -6   19.58    2.82
  -3   7  -6   13.43    2.82
  -3   7  -6   17.01    2.98
  -3   7  -6   18.62    2.85
   3   7   6   18.20    4.02
  -3   7  -6   11.47    4.20
  -3   7  -6   18.42    4.73
  -3   7  -6   23.11    4.89
   3   7   6    8.60    4.36
   3   7   6   23.42    5.13
  -4  -7  -6  157.26   10.36
  -4  -7  -6  143.63   11.06
   4  -7   6  163.15    9.64
  -4  -7  -6  155.31    7.22
  -4   7  -6  171.24    8.35
   4   7   6  160.68   10.19
   4   7   6  159.29   10.07
  -4   7  -6  158.48    8.46
  -4   7  -6  150.83    9.81
   5  -7   6    4.62    3.60
  -5  -7  -6   10.54    4.61
  -5  -7  -6    1.45    3.08
  -5  -7  -6    1.75    3.15
  -5   7  -6   -6.54    4.31
  -5   7  -6    8.88    3.76
  -5   7  -6    4.91    4.88
   5   7   6   -3.03    5.23
   5   7   6   10.15    5.13
   5   7   6    5.53    4.94
  -5   7  -6   -0.99    4.82
  -6  -7  -6  106.68   11.63
   6  -7   6  145.95   10.29
  -6  -7  -6  137.09   11.16
  -6  -7  -6  137.52    8.85
  -6   7  -6  149.47   10.20
  -6   7  -6  109.00   11.94
   6   7   6  138.96   12.47
   6   7   6  129.72   11.08
   6   7   6  139.92   12.08
  -6   7  -6  163.45   12.76
  -6   7  -6  154.02   10.92
  -8  -8   6    0.93    3.89
  -8  -8   6    4.70    3.66
   8  -8  -6   -2.48    4.38
   8  -8  -6    3.46    6.55
   8  -8  -6    3.16    7.05
  -8   8   6    2.23    6.58
   8   8  -6   -1.66    4.64
   8   8  -6   14.47    6.60
  -8   8   6   -5.09    6.87
   8   8  -6    2.04    6.64
  -8   8   6   15.07    6.63
   7  -8  -6   19.53    5.40
  -7  -8   6   19.01    5.08
   7  -8  -6   20.62    6.33
  -7  -8   6   24.99    4.75
   7  -8  -6   17.64    4.96
   7  -8  -6   31.53    5.70
  -7   8   6   32.00    4.29
  -7   8   6   19.70    5.68
   7   8  -6   19.02    5.88
   7   8  -6   25.78    6.29
   7   8  -6   20.11    4.27
  -7   8   6   43.83    6.76
  -7   8   6   25.04    6.01
   6  -8  -6   50.68    6.28
   6  -8  -6   44.39    7.16
   6  -8  -6   58.92    7.01
   6  -8  -6   36.55    5.64
  -6  -8   6   35.75    5.34
  -6  -8   6   54.60    6.50
   6   8  -6   40.76    6.83
   6   8  -6   52.82    6.32
  -6   8   6   60.88    5.11
  -6   8   6   39.63    5.81
  -6   8   6   52.05    6.90
   6   8  -6   58.16    6.14
  -6   8   6   52.19    6.92
   5  -8  -6   -3.16    2.76
  -5  -8   6    3.50    3.23
   5  -8  -6    3.23    4.03
  -5  -8   6   -0.40    2.90
   5  -8  -6    3.55    3.68
   5  -8  -6    2.61    4.27
   5   8  -6    2.46    2.16
  -5   8   6    7.57    4.68
  -5   8   6    5.78    2.59
   5   8  -6    8.88    2.48
   5   8  -6    1.37    3.64
  -5   8   6   13.68    5.05
   5   8  -6    8.10    2.63
  -4  -8   6  110.74    6.49
   4  -8  -6  119.73    6.90
   4  -8  -6  118.58    7.72
  -4  -8   6  115.46    7.08
  -4   8   6  110.12    8.81
   4   8  -6  115.56    6.23
   4   8  -6  118.54    4.68
  -4   8   6  112.78    7.91
   4   8  -6  117.77    7.30
  -4   8   6  113.64    8.55
   4   8  -6  125.95    6.32
   4   8  -6  115.72    4.52
  -4   8   6  118.27    6.15
  -3  -8   6    7.59    2.33
   3  -8  -6    8.31    3.32
   3  -8  -6    8.42    3.45
  -3  -8   6   -0.71    2.51
   3  -8  -6    6.78    2.80
   3   8  -6    9.40    2.13
  -3   8   6    8.65    3.51
   3   8  -6    0.12    2.52
   3   8  -6    4.83    1.56
  -3   8   6    6.82    3.98
   3   8  -6    8.43    2.29
  -3   8   6    5.16    3.45
  -2  -8   6   98.72    5.34
   2  -8  -6  114.06    6.98
   2  -8  -6  107.55    6.81
  -2  -8   6  100.60    6.50
   2  -8  -6   96.31    6.32
   2  -8  -6   97.09    7.27
  -2  -8   6  110.44    6.20
  -2   8   6  109.35    7.22
   2   8  -6  108.26    3.50
  -2   8   6  120.08    7.50
   2   8  -6  111.55    5.22
   2   8  -6  109.94    3.61
   2   8  -6  112.93    5.67
   2   8  -6  104.41    6.14
  -2   8   6  107.62    7.44
   2   8  -6  108.56    6.28
   1  -8  -6   -3.87    2.67
  -1  -8   6    1.14    2.40
  -1  -8   6    3.84    2.58
   1  -8  -6    3.44    2.40
   1  -8  -6   -3.12    2.95
  -1  -8   6    4.10    2.02
   1  -8  -6    4.57    2.79
   1   8  -6    1.86    2.01
  -1   8   6    4.64    3.07
   1   8  -6   -0.04    2.10
  -1   8   6    4.12    3.14
   1   8  -6    3.55    2.03
  -1   8   6    4.56    3.25
   1   8  -6    4.01    2.33
   0  -8  -6   97.43    6.94
   0  -8   6  105.64    6.44
   0  -8  -6  103.18    6.65
   0  -8  -6  112.11    6.56
   0  -8   6  104.73    6.57
   0   8  -6  110.09    6.46
   0   8  -6  103.59    6.33
   0   8   6  116.43    7.22
   0   8  -6  109.45    3.76
   0   8   6  103.05    6.37
   0   8   6   99.90    7.35
   0   8  -6  115.42    5.11
   0   8  -6  107.82    3.67
  -1  -8  -6    2.99    2.74
   1  -8   6    7.47    3.06
  -1  -8  -6    1.92    2.92
  -1  -8  -6    2.15    2.44
  -1  -8  -6    4.77    2.92
   1  -8   6   10.45    2.88
   1   8   6    8.63    3.58
   1   8   6   10.48    3.82
  -1   8  -6    8.07    3.02
  -1   8  -6    2.34    2.11
   1   8   6    3.20    2.58
  -1   8  -6    3.53    1.50
  -1   8  -6    5.71    3.02
  -1   8  -6    4.72    1.69
  -2  -8  -6   77.49    6.78
  -2  -8  -6   68.42    5.41
  -2  -8  -6   61.49    7.02
   2  -8   6   65.99    6.03
  -2  -8  -6   66.74    4.35
  -2   8  -6   68.55    4.46
   2   8   6   74.51    7.86
  -2   8  -6   51.27    6.04
  -2   8  -6   58.14    3.39
   2   8   6   61.47    6.42
  -2   8  -6   67.56    3.69
   2   8   6   75.68    7.45
  -2   8  -6   59.18    6.68
  -2   8  -6   45.69    5.46
  -2   8  -6   65.23    7.17
  -3  -8  -6   13.23    2.53
  -3  -8  -6   12.69    4.57
  -3  -8  -6   12.95    4.21
  -3  -8  -6   12.34    4.58
   3  -8   6   10.27    3.61
  -3   8  -6   16.47    2.69
  -3   8  -6   14.24    2.71
   3   8   6   13.85    4.77
  -3   8  -6   13.34    5.01
   3   8   6   13.16    5.29
  -3   8  -6   15.55    3.08
  -4  -8  -6   22.12    3.04
   4  -8   6   20.78    4.64
  -4  -8  -6   16.46    3.95
  -4  -8  -6   21.13    6.34
  -4  -8  -6   20.24    4.70
   4   8   6   27.58    5.43
  -4   8  -6   20.82    4.06
  -4   8  -6   24.49    5.59
   4   8   6   27.57    5.70
  -4   8  -6   20.07    5.42
  -5  -8  -6   20.93    6.63
   5  -8   6   25.14    5.61
  -5  -8  -6   24.28    4.43
  -5  -8  -6   23.27    5.77
  -5   8  -6   19.79    4.29
  -5   8  -6   19.27    6.12
  -5   8  -6   26.95    6.63
   5   8   6   13.82    5.88
  -5   8  -6   21.61    6.00
   5   8   6   32.21    6.22
   5   8   6   21.50    5.68
   6  -8   6    0.81    4.65
  -6  -8  -6   -1.23    7.20
  -6  -8  -6    1.55    3.68
  -6  -8  -6   -4.32    6.21
  -6   8  -6   12.38    7.31
  -6   8  -6   -1.27    4.73
  -6   8  -6    9.75    6.76
  -6   8  -6    5.41    6.50
   6   8   6   -3.18    6.59
   6   8   6   -9.35    6.41
   6   8   6    4.55    6.92
   7  -9  -6    0.76    5.97
   7  -9  -6    4.01    6.70
  -7  -9   6   -3.49    3.50
   7  -9  -6    2.16    4.40
  -7  -9   6    4.50    3.53
   7   9  -6    3.18    6.12
  -7   9   6   -1.06    5.49
   7   9  -6    6.73    3.95
  -7   9   6    2.30    6.48
   7   9  -6    8.59    6.69
  -7   9   6    7.91    6.15
   6  -9  -6    4.70    4.70
   6  -9  -6   15.51    4.36
  -6  -9   6   14.07    3.77
   6  -9  -6    8.74    4.02
   6  -9  -6   13.69    6.79
   6   9  -6   11.33    3.20
  -6   9   6   10.66    5.27
  -6   9   6   10.50    5.07
   6   9  -6    9.01    4.10
  -6   9   6   10.65    3.59
  -6   9   6   10.80    5.63
   6   9  -6    6.95    5.29
   5  -9  -6   28.50    5.87
   5  -9  -6   31.57    5.30
  -5  -9   6   39.58    5.49
  -5  -9   6   35.49    5.16
   5  -9  -6   33.42    4.60
  -5   9   6   45.28    6.27
  -5   9   6   48.52    6.72
  -5   9   6   39.55    4.72
   5   9  -6   40.96    4.03
   5   9  -6   29.85    4.24
   5   9  -6   41.87    6.64
  -5   9   6   36.22    6.03
   5   9  -6   34.58    4.67
   4  -9  -6   27.63    5.15
   4  -9  -6   22.60    4.76
  -4  -9   6   23.03    3.82
   4  -9  -6   31.14    5.16
  -4  -9   6   25.70    4.26
   4  -9  -6   21.53    3.75
   4   9  -6   30.38    3.32
  -4   9   6   28.24    5.12
   4   9  -6   22.28    2.24
  -4   9   6   25.67    5.34
   4   9  -6   17.61    4.61
   4   9  -6   25.33    2.92
  -4   9   6   28.31    3.47
  -4   9   6   26.53    5.04
  -3  -9   6  149.98    7.86
   3  -9  -6  152.65    8.08
   3  -9  -6  145.92    8.62
   3  -9  -6  146.38    8.95
  -3  -9   6  144.17    7.08
   3  -9  -6  138.17    8.85
   3   9  -6  141.52    6.34
   3   9  -6  146.11    5.53
  -3   9   6  145.84    9.35
  -3   9   6  153.40   13.18
  -3   9   6  134.66    9.06
   3   9  -6  156.36    8.49
  -2  -9   6    8.13    3.25
  -2  -9   6    3.08    2.23
   2  -9  -6    0.51    4.19
   2  -9  -6    1.39    2.90
   2  -9  -6    2.69    3.30
   2  -9  -6   -0.32    3.13
  -2  -9   6    3.73    2.42
   2   9  -6   -0.68    2.84
   2   9  -6    5.19    2.11
   2   9  -6    6.69    1.59
   2   9  -6    2.63    2.25
  -2   9   6    9.13    3.87
   2   9  -6    3.98    2.75
  -2   9   6    7.75    4.30
   2   9  -6    6.58    1.34
  -2   9   6    6.12    3.81
   1  -9  -6  227.01   10.26
  -1  -9   6  224.76    8.58
   1  -9  -6  232.94   10.00
   1  -9  -6  212.77    9.78
  -1  -9   6  219.38    9.64
  -1  -9   6  228.06    9.02
   1   9  -6  228.69    8.85
  -1   9   6  225.77   10.97
  -1   9   6  224.35   10.90
   1   9  -6  214.76    9.38
  -1   9   6  219.43   11.19
   1   9  -6  221.50    8.92
   1   9  -6  216.99    8.90
   0  -9  -6    4.77    3.19
   0  -9  -6    2.40    3.10
   0  -9  -6    3.75    3.39
   0  -9   6    4.54    2.90
   0  -9   6    3.77    3.24
   0   9  -6    0.69    2.51
   0   9   6    6.62    3.34
   0   9  -6    2.24    2.59
   0   9   6    4.58    3.74
   0   9   6    3.43    3.98
   0   9  -6    0.48    1.86
   0   9  -6   -0.14    2.55
   0   9  -6    3.70    1.37
  -1  -9  -6  128.84    8.78
  -1  -9  -6  131.09    8.41
   1  -9   6  132.20    6.74
   1  -9   6  120.20    7.66
  -1  -9  -6  130.81    8.08
  -1   9  -6  119.18    7.52
  -1   9  -6  133.91    7.79
   1   9   6  127.90    9.06
  -1   9  -6  131.07    8.28
   1   9   6  132.24    8.82
   1   9   6  128.62    8.34
  -1   9  -6  133.42    5.37
  -2  -9  -6   15.09    4.08
   2  -9   6    8.17    3.45
  -2  -9  -6   13.12    2.37
  -2  -9  -6   10.28    4.01
  -2  -9  -6   13.45    4.63
   2   9   6   14.73    5.16
  -2   9  -6    6.20    4.51
   2   9   6   11.37    4.82
   2   9   6   15.82    5.11
  -2   9  -6   12.53    1.69
  -2   9  -6    9.79    2.86
  -2   9  -6   13.38    4.11
  -3  -9  -6   49.36    5.54
  -3  -9  -6   49.55    7.02
   3  -9   6   59.16    6.74
  -3  -9  -6   73.41    7.27
   3   9   6   69.41    8.29
   3   9   6   67.77    7.50
  -3   9  -6   60.83    5.94
  -3   9  -6   56.81    6.89
  -3   9  -6   63.17    4.90
  -4  -9  -6   15.29    6.62
  -4  -9  -6   17.99    5.20
  -4  -9  -6   22.29    4.59
   4  -9   6   10.03    4.48
   4   9   6   22.58    5.50
   4   9   6   14.71    5.39
   4   9   6   17.45    5.92
  -4   9  -6   15.94    3.44
  -4   9  -6    3.02    5.49
  -4   9  -6   19.42    4.64
  -4   9  -6   11.74    5.62
  -5  -9  -6   -1.91    3.67
  -5  -9  -6    7.59    6.92
   5  -9   6    2.12    4.30
  -5  -9  -6    3.72    5.34
  -5   9  -6    5.41    6.71
  -5   9  -6    3.04    7.39
  -5   9  -6   -0.76    4.10
   5   9   6   15.17    6.57
   5   9   6   -2.38    5.95
  -5   9  -6    4.39    5.98
   5   9   6   10.95    6.55
  -6 -10   6   16.34    4.11
   6 -10  -6   23.70    7.46
   6 -10  -6   19.44    5.60
   6 -10  -6   14.36    5.37
  -6  10   6   25.08    6.41
   6  10  -6   17.89    3.64
  -6  10   6   15.20    6.34
   6  10  -6   15.02    6.41
  -6  10   6   14.94    6.30
   5 -10  -6   24.63    7.23
   5 -10  -6   27.28    5.65
   5 -10  -6   27.83    5.13
   5 -10  -6   33.96    5.76
  -5 -10   6   27.50    4.43
  -5 -10   6   42.07    5.96
  -5  10   6   43.87    4.65
   5  10  -6   36.88    4.39
  -5  10   6   30.77    5.89
   5  10  -6   31.64    6.02
  -5  10   6   31.93    6.46
  -5  10   6   32.55    6.20
   4 -10  -6   24.70    4.95
   4 -10  -6   29.72    5.23
   4 -10  -6   26.09    5.62
  -4 -10   6   28.67    4.75
   4 -10  -6   23.34    4.79
  -4 -10   6   25.60    4.50
  -4  10   6   35.71    5.72
  -4  10   6   20.96    5.41
  -4  10   6   26.84    3.77
   4  10  -6   24.18    5.81
  -4  10   6   34.85    5.90
   3 -10  -6    4.85    3.77
   3 -10  -6    3.60    3.94
  -3 -10   6    7.37    3.16
  -3 -10   6    3.45    3.32
   3 -10  -6    6.03    4.17
  -3  10   6   -0.41    4.05
   3  10  -6    0.65    2.40
  -3  10   6    7.71    4.25
   3  10  -6   -2.60    4.46
   3  10  -6    5.92    2.50
  -3  10   6    6.92    4.19
   2 -10  -6   16.95    4.33
   2 -10  -6   30.56    4.96
  -2 -10   6   23.45    3.61
  -2 -10   6   22.97    3.88
   2 -10  -6   22.82    4.42
  -2 -10   6   29.54    4.21
  -2  10   6   28.92    5.49
  -2  10   6   26.78    4.89
   2  10  -6   21.34    3.75
   2  10  -6   27.99    3.30
   2  10  -6   26.39    3.30
  -2  10   6   25.82    5.38
   2  10  -6   20.99    4.41
  -1 -10   6   10.68    3.41
   1 -10  -6    0.61    3.62
   1 -10  -6   14.04    3.57
   1 -10  -6   13.44    4.00
  -1 -10   6    8.27    3.05
  -1  10   6    6.33    4.10
   1  10  -6    5.05    2.94
  -1  10   6   12.22    5.75
   1  10  -6    1.70    2.70
   1  10  -6    6.14    3.34
   1  10  -6    3.60    2.62
   0 -10   6   40.18    5.27
   0 -10  -6   38.14    5.28
   0 -10  -6   41.94    5.30
   0 -10  -6   31.71    5.15
   0 -10   6   49.46    5.55
   0  10  -6   49.30    6.10
   0  10   6   31.32    5.52
   0  10  -6   47.85    6.40
   0  10   6   33.28    5.70
   0  10  -6   41.27    3.51
   0  10   6   50.49    6.31
   0  10  -6   41.38    4.55
   0  10  -6   38.43    4.15
  -1 -10  -6   14.20    4.57
  -1 -10  -6   19.36    3.69
  -1 -10  -6   16.38    2.54
  -1 -10  -6   28.65    5.14
   1 -10   6   19.73    3.98
  -1 -10  -6   15.75    3.61
   1  10   6   18.97    4.80
  -1  10  -6   28.09    4.55
   1  10   6   23.47    5.15
  -1  10  -6   18.95    5.06
  -1  10  -6   23.62    2.62
  -2 -10  -6   20.36    4.01
  -2 -10  -6   14.03    5.31
  -2 -10  -6   28.48    5.53
   2 -10   6   30.37    4.76
   2  10   6   31.23    5.91
   2  10   6   31.02    5.45
  -2  10  -6   26.09    2.17
  -2  10  -6   19.65    2.20
  -2  10  -6   21.58    5.44
  -2  10  -6   26.30    5.59
  -2  10  -6   23.50    3.49
   2  10   6   19.49    5.34
  -3 -10  -6   49.83    5.58
  -3 -10  -6   46.87    5.76
  -3 -10  -6   57.07    7.60
   3 -10   6   44.99    6.45
  -3 -10  -6   60.68    8.73
  -3  10  -6   61.29    7.40
   3  10   6   72.54    9.20
  -3  10  -6   55.06    4.84
   3  10   6   51.11    7.14
   3  10   6   54.43    7.05
  -3  10  -6   48.13    6.81
  -3  10  -6   42.46    7.13
  -4 -10  -6    1.33    5.21
  -4 -10  -6   -1.34    3.40
  -4 -10  -6   -2.61   11.75
   4 -10   6   -1.72    4.14
   4  10   6   -2.60    5.70
   4  10   6   -2.19    5.66
  -4  10  -6   -3.88    3.00
  -4  10  -6   -5.87    5.61
  -4  10  -6   -1.04    5.98
   4  10   6    7.56    6.10
   5 -11  -6   10.44   11.16
   5 -11  -6    1.72    5.27
  -5 -11   6    9.57    3.70
  -5 -11   6    1.54    4.40
   5 -11  -6   -1.72    4.29
  -5  11   6    3.99    5.84
   5  11  -6    2.47    5.51
  -5  11   6   12.96    6.36
  -5  11   6    8.48    6.00
  -5  11   6    9.47    4.13
   4 -11  -6   72.13    8.82
   4 -11  -6   50.21    6.09
   4 -11  -6   66.09    7.56
  -4 -11   6   50.42    6.04
  -4 -11   6   63.15    6.19
   4  11  -6   68.22    9.17
  -4  11   6   58.65    7.60
  -4  11   6   58.38    7.53
  -4  11   6   51.16    5.48
  -4  11   6   64.53    7.94
   3 -11  -6    5.55    3.81
   3 -11  -6   -0.80    4.22
  -3 -11   6    0.49    3.37
   3 -11  -6    9.55    5.34
  -3  11   6   15.87    4.98
  -3  11   6   -2.13    4.51
   3  11  -6    0.37    5.01
  -3  11   6   -4.40    4.42
   2 -11  -6    3.21    4.94
  -2 -11   6   10.66    3.65
  -2 -11   6   13.83    3.58
   2 -11  -6    8.37    3.78
   2  11  -6    0.58    4.76
  -2  11   6    4.90    4.79
   2  11  -6   12.75    4.02
  -2  11   6   -2.12    4.74
   2  11  -6    4.45    3.01
  -2  11   6    3.13    4.40
   1 -11  -6   10.81    8.22
  -1 -11   6   13.94    3.97
  -1 -11   6   11.67    3.78
   1 -11  -6   13.86    4.15
   1 -11  -6    3.37    4.91
  -1  11   6   15.24    4.93
   1  11  -6   16.15    5.37
  -1  11   6   16.66    4.72
   1  11  -6   15.70    3.71
   1  11  -6   16.84    3.75
  -1  11   6   23.61    5.40
   1  11  -6   14.05    3.51
  -1  11   6   17.48    4.87
   0 -11  -6    5.66    4.92
   0 -11   6   19.60    4.14
   0 -11  -6   11.87    4.07
   0  11  -6   14.18    5.44
   0  11  -6   15.32    5.40
   0  11   6   13.67    4.92
   0  11   6    4.33    4.53
   0  11  -6    8.48    3.18
   0  11   6   11.64    5.05
   0  11  -6   15.72    4.04
  -1 -11  -6    7.19    3.65
   1 -11   6   12.13    4.17
  -1 -11  -6    9.71    5.13
  -1 -11  -6   21.03    4.88
  -1 -11  -6   21.85    5.74
  -1  11  -6   24.16    5.29
   1  11   6   12.80    4.89
  -1  11  -6   23.32    5.03
   1  11   6   17.83    5.47
   1  11   6   14.23    4.99
  -2 -11  -6   81.21    6.51
  -2 -11  -6   74.97    8.68
  -2 -11  -6   90.94    8.38
  -2 -11  -6   80.70    7.10
   2 -11   6   75.10    7.85
   2  11   6   75.79    8.43
   2  11   6   77.70    9.74
  -2  11  -6   89.42    8.84
  -2  11  -6   69.85   12.09
   2  11   6   74.79    9.47
  -3 -11  -6    3.93    3.74
   3 -11   6   14.45    4.71
  -3 -11  -6    2.05    5.29
  -3 -11  -6    4.09    8.41
   3  11   6    8.27    5.89
   3  11   6   15.77    6.39
  -3  11  -6    4.74    5.82
  -3  11  -6   -2.91    5.99
   3  11   6   -2.04    5.81
   4 -12  -6   78.80    8.22
   4 -12  -6   86.85    9.12
  -4 -12   6   77.23    8.27
  -4 -12   6   72.21    7.00
  -4  12   6   73.30    6.84
  -4  12   6   86.20   10.94
  -4  12   6   78.48    8.89
  -4  12   6   73.46    8.78
   4  12  -6   54.93    7.96
   3 -12  -6   11.24    4.63
   3 -12  -6   10.25   10.66
   3 -12  -6    8.78    5.10
  -3 -12   6    5.29    3.90
  -3 -12   6    3.67    3.42
  -3  12   6    3.21    5.98
   3  12  -6   -1.86    5.12
  -3  12   6    8.13    5.99
   3  12  -6   -1.85    5.93
  -3  12   6    2.70    5.88
   2 -12  -6   79.52    8.49
  -2 -12   6   98.82    7.70
  -2 -12   6  101.65    7.11
   2 -12  -6   97.30    8.32
   2 -12  -6   89.49    8.27
   2  12  -6   83.49    9.64
  -2  12   6   87.46   10.02
   2  12  -6   77.37    9.77
  -2  12   6   87.97   10.08
  -2  12   6   98.36   10.36
  -1 -12   6   -1.68    4.00
   1 -12  -6   -3.01    3.76
   1 -12  -6   -0.20    4.36
   1 -12  -6   -5.54    6.32
  -1  12   6   -1.23    5.41
  -1  12   6    0.81    5.23
  -1  12   6   -2.06    5.07
   1  12  -6   -1.55    5.14
  -1  12   6  -10.20    5.22
   1  12  -6   -0.61    4.92
   0 -12  -6   40.51    7.09
   0 -12  -6   39.41    5.64
   0 -12  -6   49.66    5.90
   0 -12   6   42.41    5.70
   0  12   6   59.62    7.60
   0  12  -6   37.41    6.16
   0  12   6   53.83    7.12
   0  12   6   45.76    7.64
   0  12  -6   52.83    6.95
   1 -12   6   11.71    4.50
  -1 -12  -6   10.71    4.37
  -1 -12  -6   18.22    5.52
   1  12   6   22.68    7.32
   1  12   6   18.96    6.75
  -1  12  -6   19.48    5.52
  -1  12  -6   19.21    5.78
  -1  12  -6   24.59    7.47
   1  12   6   18.97    6.15
   2 -12   6    9.98    4.83
  -2 -12  -6   27.71    5.99
  -2 -12  -6    8.67    4.13
   2  12   6   25.39    7.13
   2  12   6   35.90    7.35
  -2  12  -6   20.68    6.54
   2  12   6   16.77    6.57
  -2  12  -6   21.42    6.31
  -9   0   7  106.28    7.72
  -9   0   7  107.77    8.88
   9   0  -7  125.72   10.37
   9   0  -7  121.51   10.33
  -9   0   7  110.55   11.16
   9   0  -7   88.34   10.25
   9   0  -7  129.95    7.81
  -8   0   7    2.10    4.21
  -8   0   7    4.80    2.93
   8   0  -7   -1.81    4.03
   8   0  -7    4.93    4.11
   8   0  -7    3.69    4.47
  -8   0   7    2.00    4.30
  -7   0   7   35.20    4.33
   7   0  -7   34.44    5.06
  -7   0   7   37.60    4.68
   7   0  -7   39.71    5.48
  -7   0   7   30.71    4.92
   7   0  -7   39.53    5.71
  -7   0   7   46.04    5.25
   7   0  -7   37.31    4.10
   6   0  -7    0.10    2.56
  -6   0   7   -4.18    2.90
   6   0  -7    1.74    3.75
   6   0  -7    2.85    2.82
   6   0  -7    1.52    2.26
  -6   0   7    2.74    2.42
  -6   0   7    4.77    3.71
  -6   0   7    1.39    2.06
  -6   0   7   -2.20    2.18
   6   0  -7   -0.87    2.62
   5   0  -7   -2.83    1.87
   5   0  -7    3.17    2.20
  -5   0   7    1.70    2.20
  -5   0   7    4.41    2.27
  -5   0   7   -0.67    2.40
   5   0  -7    0.67    2.47
   5   0  -7   -1.72    2.72
  -5   0   7    5.82    1.95
  -5   0   7    9.29    2.50
   5   0  -7    0.17    2.04
   4   0  -7   -0.05    1.73
   4   0  -7   -0.16    1.73
  -4   0   7   -1.05    1.69
  -4   0   7    1.64    1.45
   4   0  -7    1.92    2.74
  -4   0   7   -0.12    1.73
   4   0  -7   -3.67    2.15
   4   0  -7    1.53    1.75
   4   0  -7    2.66    2.25
  -4   0   7   -1.13    1.67
   4   0  -7   -0.04    1.92
  -4   0   7   -1.43    2.24
   3   0  -7   11.07    2.60
  -3   0   7   11.12    1.80
   3   0  -7   13.33    2.41
   3   0  -7   11.52    2.25
  -3   0   7   12.93    2.55
  -3   0   7   11.06    1.55
   3   0  -7   10.03    1.99
  -3   0   7   14.42    2.34
   3   0  -7   15.76    2.51
  -3   0   7   12.50    1.97
  -3   0   7   10.68    1.78
   3   0  -7   11.03    2.11
   2   0  -7   -0.70    1.35
  -2   0   7   -1.13    1.17
   2   0  -7   -1.66    1.52
  -2   0   7   -1.22    1.76
  -2   0   7   -3.32    1.92
  -2   0   7    0.23    1.15
   2   0  -7    1.76    1.54
  -2   0   7   -0.75    1.32
   2   0  -7    0.38    2.01
   2   0  -7   -0.87    1.54
   2   0  -7    0.00    1.29
  -2   0   7   -1.44    1.61
   1   0  -7   94.76    5.14
   1   0  -7   83.00    4.78
  -1   0   7   82.92    4.71
  -1   0   7   84.31    4.28
  -1   0   7   93.72    4.37
   1   0  -7   89.94    4.52
   1   0  -7   90.14    4.62
  -1   0   7   87.19    3.70
  -1   0   7   79.68    4.91
  -1   0   7   88.16    4.02
   1   0  -7   83.98    4.35
   1   0  -7   99.26    4.55
   0   0   7    0.63    1.14
   0   0  -7    1.77    1.66
   0   0   7    0.02    1.54
   0   0   7   -2.62    1.64
   0   0  -7   -1.19    1.53
   0   0  -7   -0.89    1.29
   0   0   7    0.45    1.37
   0   0  -7    0.64    1.40
   0   0   7   -1.39    1.29
   0   0  -7   -0.92    1.69
   1   0   7  110.16    5.51
  -1   0  -7  125.72    5.63
   1   0   7  120.58    5.18
  -1   0  -7  130.64    6.01
  -1   0  -7  112.49    5.70
   1   0   7  128.92    4.94
  -1   0  -7  127.16    6.03
   1   0   7  120.69    5.74
  -2   0  -7    3.36    1.85
  -2   0  -7    0.38    1.71
  -2   0  -7   -0.65    2.27
   2   0   7    1.31    2.26
   2   0   7    0.52    2.14
   2   0   7   -0.80    1.63
  -2   0  -7   -0.33    2.69
  -2   0  -7    2.05    1.03
   2   0   7   -0.55    1.66
  -2   0  -7    3.21    2.25
  -2   0  -7    3.16    1.91
  -3   0  -7  186.87    7.98
   3   0   7  184.81    7.87
  -3   0  -7  197.16    7.12
  -3   0  -7  184.21    8.46
  -3   0  -7  196.90    8.82
   3   0   7  190.42    8.24
  -3   0  -7  191.13    8.92
  -3   0  -7  198.42    8.43
   3   0   7  194.07    8.54
  -4   0  -7    4.75    4.74
  -4   0  -7   -3.13    3.03
   4   0   7    2.68    3.52
  -4   0  -7    1.19    2.00
  -4   0  -7   -2.40    2.57
   4   0   7   -1.53    2.60
   4   0   7    0.27    3.04
   4   0   7    2.13    2.96
  -4   0  -7    2.74    3.14
  -4   0  -7   -3.60    2.75
   5   0   7  130.69    8.56
  -5   0  -7  139.88    9.38
  -5   0  -7  128.67    9.34
   5   0   7  128.04    8.11
  -5   0  -7  134.12    6.25
  -5   0  -7  110.06    8.68
  -6   0  -7   -0.83    4.23
  -6   0  -7    2.17    4.31
   6   0   7   10.29    5.19
  -6   0  -7    7.17    4.80
  -6   0  -7    3.41    2.89
   6   0   7    8.66    4.92
   7   0   7   87.64    9.64
  -7   0  -7   62.81    6.48
  -7   0  -7   51.61    8.11
  -7   0  -7   67.30    8.01
  -7   0  -7   67.23    8.44
   7   0   7   82.12   10.82
   9  -1  -7    2.15    3.81
   9  -1  -7   -5.81    5.06
  -9  -1   7    4.88    3.51
   9  -1  -7   10.48    5.33
  -9  -1   7    2.82    5.56
   9  -1  -7    7.54    5.48
  -9  -1   7    1.64    3.52
   9   1  -7   -6.66    5.46
  -9   1   7    9.27    4.55
  -9   1   7   -2.70    4.39
  -9   1   7   11.15    3.50
  -9   1   7    4.86    6.68
   9   1  -7    6.81    4.91
   9   1  -7    7.20    3.40
   9   1  -7    8.42    5.07
  -8  -1   7   57.95    7.20
   8  -1  -7   63.55    7.73
  -8  -1   7   57.18    5.55
   8  -1  -7   60.65    7.84
  -8  -1   7   57.46    6.26
  -8   1   7   52.78    6.27
   8   1  -7   64.16    7.24
   8   1  -7   55.16    7.26
  -8   1   7   58.99    5.73
  -8   1   7   58.13    5.73
  -8   1   7   60.17    7.46
   8   1  -7   57.37    7.21
   7  -1  -7   53.67    6.91
   7  -1  -7   49.01    5.89
  -7  -1   7   60.50    6.32
  -7  -1   7   50.61    5.07
   7  -1  -7   48.93    4.82
  -7  -1   7   47.79    4.62
   7  -1  -7   40.94    5.66
  -7  -1   7   35.39    4.46
   7   1  -7   42.94    5.30
  -7   1   7   40.46    5.11
   7   1  -7   52.67    6.91
   7   1  -7   35.89    6.26
   7   1  -7   44.89    5.60
  -7   1   7   50.03    4.88
  -7   1   7   40.46    4.70
  -7   1   7   44.60    5.46
   6  -1  -7   24.55    4.66
  -6  -1   7   27.10    3.71
  -6  -1   7   29.32    3.59
  -6  -1   7   33.00    4.04
  -6  -1   7   22.86    2.73
   6  -1  -7   26.78    3.86
   6  -1  -7   23.78    4.15
   6  -1  -7   29.27    3.78
   6  -1  -7   30.25    4.32
  -6  -1   7   36.94    4.61
  -6   1   7   22.00    3.50
  -6   1   7   22.98    3.44
  -6   1   7   25.57    3.18
   6   1  -7   21.51    2.83
   6   1  -7   18.57    3.50
   6   1  -7   26.12    3.78
   6   1  -7   23.67    4.14
   6   1  -7   35.12    4.63
  -6   1   7   19.88    4.13
   6   1  -7   26.18    3.86
  -6   1   7   27.09    3.68
  -6   1   7   27.68    4.21
   5  -1  -7   82.15    5.43
   5  -1  -7   76.81    5.39
  -5  -1   7   80.86    5.07
  -5  -1   7   81.00    5.29
   5  -1  -7   81.88    5.99
   5  -1  -7   84.30    5.25
  -5  -1   7   78.19    5.11
  -5  -1   7   73.23    4.00
  -5  -1   7   84.34    4.35
   5  -1  -7   71.07    5.44
  -5   1   7   77.32    5.07
   5   1  -7   75.97    5.63
  -5   1   7   81.00    5.10
   5   1  -7   71.33    5.48
   5   1  -7   80.72    5.06
   5   1  -7   79.71    4.48
   5   1  -7   71.41    5.13
  -5   1   7   74.11    5.35
  -5   1   7   69.55    4.68
  -5   1   7   72.54    5.29
  -4  -1   7    2.70    1.41
  -4  -1   7    2.72    2.03
   4  -1  -7    1.10    1.80
   4  -1  -7    4.59    2.16
  -4  -1   7    3.05    1.35
   4  -1  -7    2.03    2.28
  -4  -1   7    3.43    1.65
  -4  -1   7    3.93    1.76
   4  -1  -7    2.01    2.48
   4  -1  -7    0.98    2.05
   4  -1  -7    3.47    2.79
   4  -1  -7    2.98    2.18
  -4  -1   7   -0.19    1.92
  -4   1   7    7.97    2.36
   4   1  -7    3.41    1.78
   4   1  -7    0.76    1.53
   4   1  -7    5.92    2.78
  -4   1   7    4.01    1.84
  -4   1   7    6.44    2.18
  -4   1   7    2.81    2.42
   4   1  -7   -0.37    2.01
   4   1  -7    3.78    1.91
   4   1  -7   -0.32    1.75
  -4   1   7    6.06    1.98
  -4   1   7    2.35    1.81
   4   1  -7    4.25    2.17
   3  -1  -7  188.04    7.53
   3  -1  -7  196.35    7.65
  -3  -1   7  180.54    7.50
  -3  -1   7  201.84    7.05
  -3  -1   7  191.96    5.93
  -3  -1   7  194.90    6.10
   3  -1  -7  201.81    7.68
   3  -1  -7  189.46    7.57
   3  -1  -7  188.55    8.15
  -3  -1   7  184.54    6.76
   3  -1  -7  208.79    7.66
  -3  -1   7  194.15    7.14
  -3   1   7  185.37    7.04
   3   1  -7  182.19    8.03
  -3   1   7  199.84    6.49
   3   1  -7  188.94    7.18
  -3   1   7  187.31    7.65
  -3   1   7  201.11    7.60
   3   1  -7  186.38    7.10
   3   1  -7  200.75    7.23
   3   1  -7  193.92    7.13
  -3   1   7  193.62    7.95
  -3   1   7  199.59    7.10
   3   1  -7  198.49    7.22
   2  -1  -7    9.04    2.35
   2  -1  -7    5.90    2.12
  -2  -1   7    7.20    1.63
  -2  -1   7   11.31    1.79
  -2  -1   7   11.69    1.34
   2  -1  -7   10.53    2.27
  -2  -1   7    9.57    1.27
   2  -1  -7    8.12    2.76
   2  -1  -7    8.26    2.09
   2  -1  -7   11.65    2.18
  -2  -1   7   10.79    2.46
  -2   1   7    8.73    2.16
  -2   1   7    9.29    1.82
   2   1  -7   13.67    1.94
   2   1  -7   10.24    2.21
  -2   1   7   12.67    2.69
  -2   1   7   11.30    1.43
   2   1  -7   10.25    1.96
   2   1  -7   11.72    2.03
   2   1  -7   10.36    2.10
  -2   1   7    9.67    2.10
  -2   1   7   11.89    1.95
  -2   1   7   12.47    2.41
   2   1  -7    8.92    1.80
  -1  -1   7  162.57    6.75
   1  -1  -7  149.15    6.33
  -1  -1   7  158.30    5.70
  -1  -1   7  165.82    4.76
  -1  -1   7  163.05    6.63
  -1  -1   7  164.04    4.71
   1  -1  -7  159.81    7.10
   1  -1  -7  159.67    6.60
   1  -1  -7  164.40    6.57
  -1  -1   7  164.33    5.83
   1  -1  -7  160.68    6.86
   1   1  -7  157.39    6.06
  -1   1   7  167.29    6.47
  -1   1   7  162.18    6.18
  -1   1   7  165.26    6.92
   1   1  -7  157.07    6.65
   1   1  -7  154.89    5.99
  -1   1   7  145.50    7.50
  -1   1   7  157.69    6.57
   1   1  -7  159.35    6.09
   1   1  -7  162.88    6.03
   0  -1   7  121.02    4.46
   0  -1   7  117.82    4.88
   0  -1   7  124.56    5.82
   0  -1  -7  123.61    6.28
   0  -1  -7  118.45    5.55
   0  -1   7  131.31    5.89
   0  -1  -7  120.74    5.72
   0  -1  -7  125.28    5.81
   0  -1  -7  122.01    5.87
   0  -1   7  121.53    3.93
   0  -1  -7  122.12    6.00
   0  -1   7  130.63    5.18
   0   1  -7  124.25    5.20
   0   1   7  124.75    6.12
   0   1  -7  118.37    5.59
   0   1  -7  127.34    5.49
   0   1   7  128.29    5.11
   0   1   7  124.99    5.62
   0   1  -7  126.23    5.34
   0   1  -7  114.24    5.19
   0   1   7  126.06    5.75
   0   1   7  115.53    5.38
  -1  -1  -7   11.39    2.41
   1  -1   7   15.62    2.25
  -1  -1  -7   12.78    2.43
   1  -1   7   12.67    2.04
   1  -1   7   13.99    2.42
  -1  -1  -7   10.62    2.30
  -1  -1  -7   21.11    4.24
   1  -1   7   14.09    1.58
  -1  -1  -7    8.44    2.69
   1   1   7   15.61    2.69
   1   1   7   12.42    1.38
  -1   1  -7   15.81    2.65
   1   1   7   19.36    2.34
  -1   1  -7   12.35    2.19
   1   1   7   11.62    2.25
   1   1   7   12.45    2.48
  -1   1  -7   14.01    2.37
  -1   1  -7   10.84    2.02
  -1   1  -7   12.74    2.20
   1   1   7   14.14    2.62
  -2  -1  -7  219.65    9.00
  -2  -1  -7  202.93    8.82
   2  -1   7  219.52    7.10
  -2  -1  -7  227.44    8.85
   2  -1   7  221.21    7.42
  -2  -1  -7  215.24    8.67
  -2  -1  -7  228.91    6.67
   2  -1   7  230.57    8.37
   2  -1   7  215.36    8.08
  -2  -1  -7  221.92    9.02
   2  -1   7  222.72    8.64
  -2  -1  -7  202.02    8.85
  -2   1  -7  221.05    8.39
   2   1   7  216.69    8.06
  -2   1  -7  213.84    8.12
  -2   1  -7  219.27    9.30
   2   1   7  221.84    8.92
   2   1   7  231.18    8.60
   2   1   7  208.48    8.48
  -2   1  -7  225.10    8.71
  -2   1  -7  218.81    8.76
  -2   1  -7  220.99    6.75
  -3  -1  -7    3.04    1.93
  -3  -1  -7   -2.79    2.16
  -3  -1  -7    0.05    3.40
  -3  -1  -7   -1.11    2.12
  -3  -1  -7    2.30    2.01
   3  -1   7    3.10    2.02
   3  -1   7    5.25    2.62
   3  -1   7    3.30    1.91
  -3  -1  -7    0.58    2.21
   3  -1   7    5.67    2.91
  -3   1  -7   -0.45    2.37
   3   1   7    0.55    2.19
  -3   1  -7    4.21    1.96
   3   1   7   -0.26    2.58
  -3   1  -7    3.00    2.29
   3   1   7    2.07    2.43
   3   1   7    4.22    1.83
  -3   1  -7   -0.60    2.81
  -3   1  -7   -0.84    1.45
  -3   1  -7    3.33    2.15
  -3   1  -7    3.16    1.92
   3   1   7   -6.05    2.79
   4  -1   7  137.54    7.62
  -4  -1  -7  135.39    9.69
   4  -1   7  136.29    7.67
  -4  -1  -7  134.10    8.13
   4  -1   7  127.74    7.36
  -4  -1  -7  145.51    5.95
  -4  -1  -7  134.62    7.79
   4  -1   7  145.60    6.83
   4  -1   7  131.90    6.65
  -4  -1  -7  154.31    7.38
  -4  -1  -7  135.95    8.51
   4   1   7  144.16    7.48
  -4   1  -7  161.18    8.93
  -4   1  -7  145.23    8.45
   4   1   7  142.55    8.22
  -4   1  -7  135.85    8.08
  -4   1  -7  148.26    5.91
   4   1   7  147.51    7.95
  -4   1  -7  141.71    7.69
  -4   1  -7  141.19    7.22
   4   1   7  134.03    6.70
  -5  -1  -7   22.60    5.45
  -5  -1  -7   24.10    8.38
   5  -1   7   29.50    4.51
   5  -1   7   25.16    3.84
   5  -1   7   23.94    5.13
   5  -1   7   28.18    4.74
  -5  -1  -7   25.90    4.99
  -5  -1  -7   29.93    3.56
   5   1   7   26.45    4.85
   5   1   7   30.46    4.21
  -5   1  -7   26.90    5.63
  -5   1  -7   24.87    4.95
  -5   1  -7   22.03    3.12
  -5   1  -7   26.94    5.51
   5   1   7   24.88    4.86
  -6  -1  -7   40.80    6.01
   6  -1   7   46.91    6.58
  -6  -1  -7   34.61    5.49
  -6  -1  -7   26.03    5.77
   6  -1   7   49.83    6.21
  -6  -1  -7   41.34    4.36
   6  -1   7   38.65    5.96
   6   1   7   41.34    5.98
   6   1   7   34.97    5.60
  -6   1  -7   46.14    6.56
  -6   1  -7   41.70    4.41
  -6   1  -7   34.56    5.92
   6   1   7   45.35    6.95
  -6   1  -7   40.98    6.18
  -7  -1  -7   34.33    5.47
   7  -1   7   14.08    5.59
   7  -1   7   21.25    8.04
  -7  -1  -7   39.61    7.47
  -7  -1  -7   29.63    6.70
  -7  -1  -7   40.66    6.90
  -7   1  -7   35.28    6.93
  -7   1  -7   31.41    4.55
  -7   1  -7   24.87    6.57
   7   1   7   34.47    6.21
   7   1   7   32.65    8.93
  -7   1  -7   33.17    7.17
   9  -2  -7    4.33    3.97
   9  -2  -7   -9.79    4.83
   9  -2  -7   -2.35    5.24
  -9  -2   7   -1.77    3.11
   9  -2  -7    7.92    5.71
  -9  -2   7   -1.70    4.73
  -9   2   7    3.07    4.74
   9   2  -7    3.42    3.71
  -9   2   7   -1.44    3.31
   9   2  -7   -1.51    4.90
  -9   2   7  -15.50    7.60
   9   2  -7   12.74    5.51
   9   2  -7   -3.22    5.24
  -9   2   7   -0.03    4.93
  -8  -2   7   57.92    7.49
  -8  -2   7   79.63    6.65
   8  -2  -7   74.23    8.21
   8  -2  -7   78.22    7.90
   8  -2  -7   71.17    6.92
  -8  -2   7   73.92    5.62
  -8  -2   7   65.88    5.95
   8   2  -7   65.18    7.48
  -8   2   7   74.93    8.59
  -8   2   7   68.19    6.42
  -8   2   7   77.51    6.00
   8   2  -7   77.24    7.57
   8   2  -7   64.76   11.39
  -8   2   7   67.50    7.66
   8   2  -7   73.59    8.50
  -7  -2   7    1.20    2.21
   7  -2  -7    2.47    3.82
   7  -2  -7    2.90    4.32
  -7  -2   7    1.96    3.25
  -7  -2   7    3.29    2.83
   7  -2  -7    1.27    4.08
  -7  -2   7    3.16    2.43
  -7   2   7    2.22    3.23
  -7   2   7    4.60    2.90
   7   2  -7   -2.29    3.26
   7   2  -7    4.37    3.39
   7   2  -7   10.40    4.64
  -7   2   7    0.31    3.55
  -7   2   7   -0.43    2.75
   7   2  -7   -1.34    4.76
   7   2  -7   -0.49    3.28
  -6  -2   7  194.62    6.72
   6  -2  -7  190.85    8.65
  -6  -2   7  192.22    8.70
   6  -2  -7  198.77    9.66
  -6  -2   7  190.81    8.67
  -6  -2   7  199.05    7.02
  -6  -2   7  185.10    9.23
  -6  -2   7  200.67    8.32
   6  -2  -7  192.14    9.35
   6  -2  -7  194.25   11.13
   6  -2  -7  212.11    9.34
   6   2  -7  201.49    6.58
  -6   2   7  202.40    8.37
  -6   2   7  194.40    8.38
   6   2  -7  195.45    8.66
   6   2  -7  204.14    8.90
  -6   2   7  201.36   11.35
  -6   2   7  188.88    8.59
  -6   2   7  200.98    9.58
   6   2  -7  182.24    9.45
  -6   2   7  198.66    9.21
   6   2  -7  181.09    8.60
  -5  -2   7   -0.81    2.48
   5  -2  -7    3.05    3.11
  -5  -2   7    1.97    1.73
   5  -2  -7   -1.82    2.82
  -5  -2   7    2.06    1.24
   5  -2  -7    4.25    2.33
   5  -2  -7   -0.52    2.29
  -5  -2   7    2.68    2.31
  -5  -2   7    2.34    2.24
   5  -2  -7    5.52    2.33
   5   2  -7    2.30    1.85
  -5   2   7    0.56    2.12
   5   2  -7    2.93    2.37
   5   2  -7    2.44    2.87
  -5   2   7    5.38    2.36
  -5   2   7   -3.18    2.64
  -5   2   7    2.34    2.29
   5   2  -7    2.60    1.92
   5   2  -7    1.01    2.03
   5   2  -7   -4.13    2.94
  -5   2   7    5.74    2.20
  -5   2   7    2.84    2.94
   4  -2  -7  189.89    8.37
  -4  -2   7  196.56    6.92
  -4  -2   7  190.54    7.34
   4  -2  -7  185.66    8.04
   4  -2  -7  177.39    8.05
   4  -2  -7  199.74    8.08
  -4  -2   7  196.09    7.15
   4  -2  -7  171.15    7.81
  -4  -2   7  194.16    7.01
  -4  -2   7  192.27    7.96
   4  -2  -7  205.29    8.91
   4   2  -7  191.91    7.38
  -4   2   7  182.34    7.36
  -4   2   7  184.13    7.60
   4   2  -7  192.61    6.69
  -4   2   7  191.76    7.71
  -4   2   7  195.15    7.97
  -4   2   7  188.31    7.99
   4   2  -7  187.32    7.29
   4   2  -7  187.91    8.61
   4   2  -7  184.91    7.30
  -4   2   7  187.62    7.53
   4   2  -7  180.28    8.22
   4   2  -7  199.35    7.40
   4   2  -7  199.49    7.03
  -3  -2   7    4.88    1.99
  -3  -2   7    5.52    1.60
  -3  -2   7    4.89    1.37
   3  -2  -7    2.97    1.99
   3  -2  -7    5.83    2.39
   3  -2  -7    3.84    2.02
   3  -2  -7    9.36    2.37
  -3  -2   7    3.70    2.05
   3  -2  -7    4.99    2.26
   3  -2  -7    3.36    2.05
  -3   2   7    5.16    2.06
   3   2  -7    5.22    1.71
   3   2  -7    3.60    1.66
  -3   2   7    7.00    2.07
  -3   2   7    6.68    1.61
   3   2  -7    4.23    1.14
   3   2  -7    4.66    1.56
  -3   2   7    2.18    2.02
  -3   2   7    5.02    2.27
   3   2  -7    3.22    1.81
   3   2  -7    6.12    2.13
  -3   2   7    4.02    2.01
  -3   2   7    5.14    2.35
   3   2  -7    6.41    1.70
   2  -2  -7  133.85    5.92
   2  -2  -7  124.15    6.02
   2  -2  -7  121.25    5.76
  -2  -2   7  129.12    4.36
   2  -2  -7  121.62    6.16
   2  -2  -7  127.22    6.08
   2  -2  -7  123.13    6.18
  -2  -2   7  125.00    5.92
  -2  -2   7  129.29    4.72
  -2   2   7  130.51    6.02
   2   2  -7  132.87    5.17
   2   2  -7  123.78    6.09
   2   2  -7  128.85    5.85
  -2   2   7  120.72    6.11
  -2   2   7  122.52    5.92
  -2   2   7  134.74    5.65
  -2   2   7  129.71    4.51
   2   2  -7  118.93    5.06
   2   2  -7  125.22    4.94
  -2   2   7  129.84    5.71
  -2   2   7  119.71    5.85
   2   2  -7  130.74    5.80
   1  -2  -7    5.91    2.26
   1  -2  -7    3.45    1.96
  -1  -2   7    4.10    2.38
   1  -2  -7    9.10    2.24
  -1  -2   7    3.31    1.24
   1  -2  -7    2.39    1.90
   1  -2  -7    6.23    2.48
  -1   2   7    6.21    2.00
   1   2  -7    5.68    1.89
  -1   2   7    3.59    0.87
   1   2  -7    4.29    1.29
  -1   2   7    2.00    1.61
  -1   2   7    4.87    2.32
   1   2  -7    2.65    1.40
  -1   2   7    5.36    1.76
   1   2  -7    5.91    1.52
   1   2  -7    2.77    1.56
  -1   2   7    1.78    1.89
   0  -2  -7  151.85    6.72
   0  -2  -7  146.50    6.65
   0  -2   7  136.50    6.12
   0  -2   7  152.23    5.23
   0  -2   7  151.68    5.50
   0  -2  -7  149.50    6.53
   0  -2   7  149.13    6.29
   0  -2  -7  150.31    7.16
   0  -2  -7  144.57    6.66
   0  -2  -7  154.33    6.63
   0   2  -7  129.70    7.24
   0   2   7  143.43    6.40
   0   2   7  154.91    6.20
   0   2  -7  147.74    5.75
   0   2   7  147.12    4.72
   0   2  -7  155.14    5.92
   0   2  -7  147.90    5.59
   0   2  -7  146.27    6.19
   0   2   7  142.78    6.63
   0   2   7  142.37    6.34
   0   2   7  145.90    6.55
  -1  -2  -7    8.74    3.13
   1  -2   7    4.16    1.65
   1  -2   7    4.80    2.02
  -1  -2  -7    7.97    1.69
  -1  -2  -7   12.27    2.84
  -1  -2  -7    9.00    2.72
  -1  -2  -7    8.04    2.25
  -1  -2  -7    5.71    2.03
   1  -2   7    6.35    1.78
  -1  -2  -7    6.54    2.27
   1  -2   7    7.28    2.21
  -1   2  -7    6.40    1.72
   1   2   7    3.19    2.17
  -1   2  -7    5.65    1.75
   1   2   7   10.03    2.73
   1   2   7    8.69    2.52
  -1   2  -7    7.06    1.92
  -1   2  -7    7.94    1.93
   1   2   7    8.63    2.15
  -1   2  -7    7.24    2.18
   1   2   7    7.62    1.33
   1   2   7    6.48    2.13
  -2  -2  -7   32.20    3.09
   2  -2   7   28.70    3.44
  -2  -2  -7   29.40    3.65
   2  -2   7   29.75    3.48
  -2  -2  -7   26.11    3.64
   2  -2   7   27.56    1.78
  -2  -2  -7   29.45    3.95
  -2  -2  -7   28.78    3.82
   2  -2   7   28.74    4.03
   2  -2   7   28.31    3.35
  -2   2  -7   31.45    3.21
   2   2   7   32.20    4.01
  -2   2  -7   34.45    4.57
  -2   2  -7   33.06    3.58
  -2   2  -7   32.21    4.01
  -2   2  -7   28.17    3.54
   2   2   7   32.96    4.00
   2   2   7   31.15    3.96
  -2   2  -7   33.46    2.56
  -2   2  -7   26.96    3.37
   2   2   7   27.86    3.57
   3  -2   7   11.84    2.49
   3  -2   7    9.28    2.82
   3  -2   7    7.15    2.77
  -3  -2  -7    6.36    3.03
  -3  -2  -7    8.84    2.05
  -3  -2  -7    8.47    3.84
  -3  -2  -7   11.16    2.73
   3  -2   7   11.55    1.83
  -3  -2  -7    9.64    2.75
   3  -2   7   11.14    1.71
  -3   2  -7    7.16    1.94
  -3   2  -7   10.49    2.33
  -3   2  -7   10.96    1.49
   3   2   7   11.73    2.96
  -3   2  -7   12.93    3.28
   3   2   7    8.17    3.10
  -3   2  -7    7.44    2.70
   3   2   7   11.13    2.29
  -3   2  -7   10.50    2.58
  -3   2  -7   14.77    3.25
   3   2   7   14.49    3.34
  -4  -2  -7    6.26    3.48
  -4  -2  -7    6.45    3.39
  -4  -2  -7    9.87    3.16
   4  -2   7    6.86    3.25
   4  -2   7    7.05    2.86
  -4  -2  -7    8.76    3.82
  -4  -2  -7    8.26    2.31
   4  -2   7    8.49    2.99
   4  -2   7    9.01    2.25
   4   2   7   15.32    3.79
  -4   2  -7   10.93    3.43
  -4   2  -7    9.97    2.58
  -4   2  -7    3.54    3.83
  -4   2  -7   -1.00    4.06
  -4   2  -7    6.90    3.02
   4   2   7    8.08    3.33
  -4   2  -7    3.78    2.96
   4   2   7    4.49    2.54
   5  -2   7    2.09    2.65
  -5  -2  -7    1.03    4.05
  -5  -2  -7   -0.15    2.48
   5  -2   7    6.43    3.84
   5  -2   7    5.04    3.32
  -5   2  -7   10.63    6.65
  -5   2  -7    0.29    2.54
   5   2   7    1.75    4.12
   5   2   7    5.71    4.13
   5   2   7   -2.83    3.05
  -5   2  -7   -0.41    4.26
  -6  -2  -7   44.66    6.35
  -6  -2  -7   33.16    4.46
  -6  -2  -7   52.28    7.08
   6  -2   7   43.55    6.27
  -6  -2  -7   35.88    6.07
   6  -2   7   40.96    4.97
   6  -2   7   53.19    6.21
  -6   2  -7   44.48    6.49
   6   2   7   49.11    6.72
  -6   2  -7   39.44    6.11
   6   2   7   35.04    6.14
  -6   2  -7   56.21    5.26
   6   2   7   59.00    8.27
  -6   2  -7   57.93    7.72
   7  -2   7   -3.21    4.24
  -7  -2  -7    0.45    5.20
  -7  -2  -7    3.15    5.70
  -7  -2  -7   -0.85    5.95
   7   2   7   -5.97    5.79
   7   2   7    1.10    7.24
  -7   2  -7   -0.67    3.87
  -7   2  -7   -5.91    5.46
  -7   2  -7   -2.79    5.95
   7   2   7   -8.46    5.64
   9  -3  -7   13.22    5.94
   9  -3  -7   10.79    6.50
  -9  -3   7    4.96    3.89
  -9  -3   7   13.60    4.19
   9  -3  -7    7.87    5.95
   9  -3  -7    6.39    4.03
  -9   3   7    3.44    5.46
   9   3  -7   13.38    6.00
  -9   3   7    5.34    6.17
   9   3  -7    9.20    6.23
  -9   3   7    2.79    3.48
   9   3  -7    7.80    5.24
   9   3  -7   11.20    5.89
  -8  -3   7   51.12    5.72
   8  -3  -7   46.56    6.56
  -8  -3   7   46.59    5.80
   8  -3  -7   37.21    6.42
  -8  -3   7   41.24    4.14
  -8  -3   7   43.05    5.46
   8  -3  -7   32.95    8.59
   8  -3  -7   36.92    5.53
   8   3  -7   36.65    6.13
  -8   3   7   43.83    6.95
  -8   3   7   40.92    4.78
  -8   3   7   37.42    5.55
  -8   3   7   38.72    5.49
   8   3  -7   38.24    5.45
  -7  -3   7   32.26    4.59
  -7  -3   7   38.05    4.47
   7  -3  -7   39.83    5.83
   7  -3  -7   31.45    5.00
  -7   3   7   49.70    5.69
  -7   3   7   31.91    4.98
  -7   3   7   36.37    4.23
   7   3  -7   38.48    5.13
   7   3  -7   33.65    5.36
  -7   3   7   32.49    5.21
   7   3  -7   33.87    4.89
  -6  -3   7   51.47    4.98
   6  -3  -7   34.02    4.86
  -6  -3   7   38.38    4.18
  -6  -3   7   37.14    5.15
   6  -3  -7   42.80    5.34
  -6  -3   7   46.37    4.80
   6  -3  -7   36.91    4.88
  -6   3   7   35.15    4.48
   6   3  -7   42.36    4.88
  -6   3   7   42.81    4.91
  -6   3   7   42.39    5.26
   6   3  -7   55.41    6.03
   6   3  -7   50.23    5.19
   6   3  -7   44.19    5.00
  -6   3   7   39.25    4.39
   6   3  -7   44.33    5.54
  -5  -3   7  147.51    7.00
   5  -3  -7  134.01    7.31
  -5  -3   7  131.23    6.60
   5  -3  -7  120.44    8.24
  -5  -3   7  128.64    5.70
  -5  -3   7  141.99    7.12
  -5  -3   7  140.59    7.24
   5  -3  -7  127.82    7.12
   5  -3  -7  131.06    7.20
   5  -3  -7  122.16    7.24
   5   3  -7  141.08    6.37
   5   3  -7  139.54    7.71
  -5   3   7  138.15    7.04
   5   3  -7  133.56    6.94
   5   3  -7  133.68    7.65
   5   3  -7  133.54    6.40
  -5   3   7  141.46    7.13
   5   3  -7  148.16    4.94
  -5   3   7  139.34    6.57
   5   3  -7  137.68    6.64
  -5   3   7  147.87    7.51
  -5   3   7  130.87    7.32
  -5   3   7  126.06    7.67
  -4  -3   7    0.43    1.91
  -4  -3   7    4.53    1.80
   4  -3  -7    0.84    2.18
   4  -3  -7   -0.25    2.67
  -4  -3   7   -0.16    1.95
   4  -3  -7    4.19    2.94
   4  -3  -7   -0.60    1.94
  -4  -3   7    0.15    1.68
   4  -3  -7    0.63    2.12
  -4   3   7   -0.08    2.52
  -4   3   7    1.57    2.26
   4   3  -7    2.59    1.77
  -4   3   7   -2.86    1.96
  -4   3   7   -1.17    2.19
   4   3  -7   -2.52    1.89
   4   3  -7    2.13    2.16
   4   3  -7   -1.52    1.46
   4   3  -7   -0.01    1.61
   4   3  -7   -1.06    1.72
  -4   3   7    2.14    1.79
  -4   3   7   -3.51    1.84
   3  -3  -7  257.62    9.76
   3  -3  -7  263.85    9.91
   3  -3  -7  262.36   10.02
  -3  -3   7  247.38    9.34
   3  -3  -7  253.42    9.72
   3  -3  -7  256.62    9.88
  -3  -3   7  265.77    7.79
   3  -3  -7  263.90    9.74
  -3  -3   7  263.76    7.68
   3  -3  -7  263.99   10.25
  -3  -3   7  271.27    8.51
  -3   3   7  244.39    9.72
   3   3  -7  260.89    8.37
  -3   3   7  251.21    9.32
  -3   3   7  258.16    9.91
  -3   3   7  267.37    8.71
  -3   3   7  253.81    9.21
  -3   3   7  257.91    9.53
   3   3  -7  252.69    9.73
   3   3  -7  260.95    8.32
   3   3  -7  267.14    8.41
  -3   3   7  257.26    9.71
  -3   3   7  262.99    9.85
   3   3  -7  271.45    8.59
   2  -3  -7   13.07    2.89
  -2  -3   7   11.27    1.23
   2  -3  -7    9.97    2.48
  -2  -3   7   10.04    1.19
   2  -3  -7   13.61    2.53
   2  -3  -7   11.21    2.96
  -2  -3   7    7.30    2.30
  -2  -3   7   11.95    1.53
   2  -3  -7    8.31    2.38
   2  -3  -7    4.41    2.20
   2   3  -7   10.85    1.37
   2   3  -7   10.09    1.55
  -2   3   7    9.89    2.39
  -2   3   7   11.05    1.68
  -2   3   7    7.10    2.16
   2   3  -7   10.54    1.62
  -2   3   7    9.27    2.49
   2   3  -7    9.74    2.39
  -2   3   7    9.33    2.33
   2   3  -7    7.66    2.23
  -2   3   7   10.56    2.54
   2   3  -7   10.78    2.69
   1  -3  -7  231.87    9.36
   1  -3  -7  234.51    8.85
  -1  -3   7  249.33    6.73
   1  -3  -7  254.11    9.23
   1  -3  -7  256.86    9.45
   1  -3  -7  244.38    9.27
  -1  -3   7  241.80    8.77
  -1  -3   7  249.40    6.82
   1  -3  -7  233.65    9.24
   1   3  -7  239.61    7.58
  -1   3   7  245.20    8.77
   1   3  -7  241.91    7.49
  -1   3   7  239.40    8.89
   1   3  -7  242.24    7.51
  -1   3   7  244.14    9.33
   1   3  -7  230.92    7.53
  -1   3   7  236.71    9.01
  -1   3   7  244.52    9.18
   1   3  -7  245.43    8.80
   0  -3   7   72.15    4.51
   0  -3   7   63.90    2.90
   0  -3   7   70.53    2.82
   0  -3  -7   69.77    5.60
   0  -3  -7   64.21    4.78
   0  -3  -7   65.07    4.54
   0  -3   7   54.22    6.34
   0  -3  -7   73.17    5.06
   0  -3  -7   65.56    5.15
   0  -3  -7   69.15    4.99
   0   3   7   70.94    4.82
   0   3   7   70.90    4.73
   0   3  -7   63.52    4.07
   0   3  -7   69.61    3.61
   0   3  -7   61.03    3.84
   0   3   7   70.16    4.52
   0   3  -7   67.69    3.42
   0   3  -7   62.99    3.52
   0   3   7   61.21    4.62
   0   3   7   61.39    5.17
   1  -3   7   41.43    4.27
  -1  -3  -7   51.23    5.34
   1  -3   7   48.28    3.92
   1  -3   7   49.57    3.80
  -1  -3  -7   46.83    3.24
  -1  -3  -7   47.61    4.41
   1  -3   7   46.26    2.85
  -1  -3  -7   49.07    5.45
  -1  -3  -7   46.33    4.28
   1  -3   7   45.02    4.79
  -1  -3  -7   50.38    5.29
  -1  -3  -7   45.35    4.50
   1   3   7   55.67    4.91
  -1   3  -7   48.03    3.36
  -1   3  -7   46.68    3.53
  -1   3  -7   49.91    3.73
   1   3   7   33.42    4.34
  -1   3  -7   56.66    3.39
  -1   3  -7   46.18    3.63
   1   3   7   46.62    4.39
   1   3   7   52.90    4.36
  -1   3  -7   48.48    4.79
  -1   3  -7   50.33    2.31
   1   3   7   47.37    4.44
   1   3   7   44.10    4.54
  -2  -3  -7  180.12    8.22
  -2  -3  -7  192.29    8.74
  -2  -3  -7  190.43    8.98
   2  -3   7  188.57    7.02
   2  -3   7  189.37    6.86
   2  -3   7  191.11    7.36
   2  -3   7  188.74    7.22
   2  -3   7  174.22    9.64
  -2  -3  -7  194.94    6.74
  -2  -3  -7  173.71    8.09
   2   3   7  191.80    8.28
   2   3   7  181.53    8.38
  -2   3  -7  198.49    8.72
   2   3   7  193.60    8.40
  -2   3  -7  188.45    7.71
  -2   3  -7  186.01    7.55
   2   3   7  184.49    7.19
  -2   3  -7  188.48    7.39
  -2   3  -7  192.27    6.50
  -2   3  -7  188.01    7.37
  -2   3  -7  184.54    6.96
  -3  -3  -7    9.81    3.16
   3  -3   7    8.46    2.31
   3  -3   7    9.33    3.30
   3  -3   7    6.34    2.84
  -3  -3  -7   10.32    3.09
   3  -3   7    8.18    2.32
  -3  -3  -7    8.71    2.12
  -3  -3  -7    8.98    2.58
   3   3   7    4.62    2.89
  -3   3  -7    5.95    2.59
  -3   3  -7    8.52    3.19
  -3   3  -7    6.82    2.44
  -3   3  -7    8.71    1.95
  -3   3  -7    8.77    2.56
   3   3   7   12.78    2.61
  -3   3  -7   10.13    3.01
   3   3   7    9.73    3.09
  -4  -3  -7   56.73    6.56
  -4  -3  -7   74.76    4.77
  -4  -3  -7   67.00    7.53
   4  -3   7   68.56    6.04
   4  -3   7   73.17    4.96
  -4  -3  -7   62.65    5.84
   4  -3   7   70.68    3.34
   4  -3   7   80.25    7.04
  -4   3  -7   77.60    7.99
  -4   3  -7   68.58    6.38
  -4   3  -7   65.78    7.09
   4   3   7   74.01    7.23
   4   3   7   78.34    6.59
   4   3   7   70.47    5.58
  -4   3  -7   75.20    5.49
  -4   3  -7   74.14    5.92
  -4   3  -7   62.01    6.25
   5  -3   7   48.60    5.92
   5  -3   7   35.12    4.98
  -5  -3  -7   40.24    4.62
   5  -3   7   32.65    3.72
  -5  -3  -7   39.37    5.21
  -5  -3  -7   28.68    5.29
  -5   3  -7   36.57    5.79
   5   3   7   45.39    6.57
  -5   3  -7   30.70    5.75
  -5   3  -7   38.71    5.47
  -5   3  -7   34.54    4.21
   5   3   7   35.98    4.55
  -6  -3  -7    9.76    3.42
   6  -3   7    9.95    3.99
  -6  -3  -7    8.79    4.74
   6  -3   7    6.64    3.10
   6  -3   7    9.79    6.11
  -6  -3  -7    4.81    5.20
  -6  -3  -7    4.45    5.06
   6   3   7   13.76    5.26
  -6   3  -7    6.25    3.50
  -6   3  -7    9.67    5.04
  -6   3  -7   -2.00    4.94
   6   3   7    5.81    5.50
  -7  -3  -7   87.10   10.21
   7  -3   7   59.43    6.61
  -7  -3  -7   65.94    7.81
  -7  -3  -7   60.74    6.76
  -7  -3  -7   76.10    9.46
  -7   3  -7   59.34    8.24
   7   3   7   73.70    8.51
  -7   3  -7   62.29    8.55
   7   3   7   69.76    8.18
   7   3   7   75.79    9.87
  -7   3  -7   63.69    8.47
  -7   3  -7   60.29    7.78
   9  -4  -7   75.96    9.01
   9  -4  -7  105.62   10.58
   9  -4  -7   97.57   10.06
  -9  -4   7   95.86    7.97
   9  -4  -7  105.41   11.25
  -9  -4   7   97.29   11.17
  -9   4   7   92.10    6.72
   9   4  -7   89.19   10.76
   9   4  -7   87.42   10.97
   9   4  -7   95.01    9.86
  -9   4   7  105.03   11.28
  -9   4   7  108.80   10.19
  -9   4   7  103.54   10.78
   9   4  -7   91.11   11.09
   8  -4  -7   12.78    4.82
  -8  -4   7    4.66    3.51
   8  -4  -7    0.47    7.19
  -8  -4   7   -2.04    3.15
   8  -4  -7   -3.21    4.72
   8  -4  -7   -0.64    3.72
  -8   4   7    2.45    5.13
  -8   4   7    9.28    6.81
   8   4  -7   15.21    5.37
   8   4  -7    1.49    5.04
   8   4  -7    0.60    3.98
  -8   4   7   -2.69    4.49
  -8   4   7   10.23    3.18
   7  -4  -7   25.91    4.74
  -7  -4   7   23.35    3.96
  -7  -4   7   21.13    3.96
   7  -4  -7   26.97    5.12
  -7  -4   7   14.35    3.59
   7   4  -7   33.83    5.44
  -7   4   7   16.74    5.55
   7   4  -7   18.44    4.82
   7   4  -7   32.33    7.56
  -7   4   7   29.18    5.03
  -7   4   7   20.48    5.07
  -7   4   7   26.40    3.83
   7   4  -7   15.03    4.28
   6  -4  -7    6.79    3.99
  -6  -4   7    5.72    2.86
   6  -4  -7    1.34    2.83
  -6  -4   7    4.50    2.97
   6  -4  -7    5.52    3.79
  -6  -4   7    6.17    2.42
   6   4  -7    9.24    2.97
  -6   4   7    6.58    3.08
   6   4  -7    7.86    3.07
   6   4  -7    8.52    3.47
   6   4  -7    4.52    2.70
   6   4  -7    8.86    4.21
  -6   4   7    3.41    2.65
  -6   4   7    2.71    3.07
  -6   4   7    5.15    3.77
   5  -4  -7   13.13    3.53
  -5  -4   7    9.26    3.30
   5  -4  -7    9.90    2.91
   5  -4  -7    6.34    3.05
  -5  -4   7   13.02    2.94
  -5  -4   7    7.19    2.50
  -5  -4   7   11.49    3.20
  -5   4   7    5.74    3.67
   5   4  -7    6.63    3.15
  -5   4   7   10.44    3.07
  -5   4   7    8.87    3.17
  -5   4   7   11.80    2.95
   5   4  -7   10.06    2.60
   5   4  -7    8.63    2.22
   5   4  -7    9.37    3.03
  -5   4   7    9.12    2.61
   5   4  -7    8.44    2.25
   5   4  -7    9.26    1.14
   5   4  -7   11.27    3.55
   5   4  -7    8.44    2.58
   4  -4  -7   -0.14    3.55
   4  -4  -7    5.07    2.40
  -4  -4   7    3.71    1.51
   4  -4  -7    1.07    2.32
   4  -4  -7    8.42    2.64
  -4  -4   7    3.84    1.22
  -4  -4   7    6.14    2.08
  -4  -4   7    7.65    2.55
  -4   4   7    3.25    2.49
   4   4  -7    2.24    1.54
  -4   4   7    3.20    3.33
   4   4  -7    6.76    2.08
  -4   4   7    4.89    2.46
   4   4  -7    6.54    1.99
  -4   4   7    5.98    2.84
   4   4  -7    3.39    1.81
  -4   4   7    4.81    2.16
  -4   4   7    3.70    2.64
   4   4  -7    1.84    2.30
   4   4  -7    4.03    1.45
  -3  -4   7    4.48    2.09
  -3  -4   7    1.99    1.83
   3  -4  -7    4.86    3.14
   3  -4  -7    1.22    2.25
   3  -4  -7    7.63    3.28
   3  -4  -7    0.75    2.13
   3  -4  -7    0.58    2.01
   3  -4  -7    2.19    3.08
  -3   4   7    0.29    2.14
   3   4  -7    5.31    1.78
   3   4  -7    4.04    2.26
   3   4  -7    2.56    2.57
  -3   4   7    2.62    2.73
   3   4  -7    3.41    1.54
  -3   4   7    1.93    1.93
   3   4  -7    3.50    1.39
  -3   4   7   -0.67    2.03
   3   4  -7    5.60    1.35
   3   4  -7    3.89    2.45
  -3   4   7    3.46    2.38
  -3   4   7    4.76    2.32
  -3   4   7    4.14    2.71
   2  -4  -7   11.57    2.69
   2  -4  -7    6.92    2.76
  -2  -4   7   13.87    2.70
   2  -4  -7   16.44    3.36
   2  -4  -7   10.95    2.89
   2  -4  -7   13.01    2.97
   2  -4  -7    6.97    2.38
   2   4  -7   12.30    2.42
  -2   4   7   12.53    2.76
  -2   4   7   15.19    2.86
   2   4  -7   14.14    1.87
   2   4  -7   15.28    1.80
   2   4  -7   14.97    1.97
   2   4  -7   15.08    1.82
  -2   4   7   14.01    3.07
   2   4  -7   13.73    1.58
  -2   4   7   10.31    2.84
  -2   4   7   14.27    2.79
   1  -4  -7   93.63    6.25
   1  -4  -7   85.65    5.56
   1  -4  -7   98.35    5.65
  -1  -4   7   99.50    5.24
   1  -4  -7  102.64    5.80
   1  -4  -7  109.14    6.26
   1  -4  -7   96.76    5.92
  -1   4   7   91.11    5.84
   1   4  -7   99.07    3.81
   1   4  -7   98.41    3.70
   1   4  -7   94.45    4.39
   1   4  -7   92.46    5.11
   1   4  -7   99.94    3.76
  -1   4   7  100.10    5.84
  -1   4   7   94.96    5.63
  -1   4   7   93.54    5.56
  -1   4   7  101.37    5.60
   1   4  -7  100.57    3.54
   0  -4   7   -0.68    2.30
   0  -4  -7    2.60    2.16
   0  -4   7    1.43    2.22
   0  -4  -7    2.07    2.11
   0  -4  -7    2.38    1.98
   0  -4  -7    1.21    2.96
   0  -4  -7    0.31    3.04
   0  -4  -7   -4.69    2.68
   0   4   7    0.48    2.78
   0   4  -7    3.47    0.92
   0   4   7    5.10    2.50
   0   4  -7    3.78    1.56
   0   4  -7    2.18    1.12
   0   4  -7    4.00    1.34
   0   4  -7    5.48    1.06
   0   4   7    3.31    2.24
   0   4  -7    2.65    1.11
   0   4  -7    2.38    1.64
   0   4   7    1.71    1.48
   0   4   7    3.98    2.16
   0   4   7    3.30    2.73
  -1  -4  -7  216.87    9.23
  -1  -4  -7  217.82    8.98
  -1  -4  -7  227.35    9.95
  -1  -4  -7  202.49    9.01
  -1  -4  -7  217.13    7.66
   1  -4   7  230.01    6.25
   1  -4   7  229.80    8.20
   1  -4   7  222.42    6.33
  -1   4  -7  219.88    9.39
   1   4   7  220.00    9.12
  -1   4  -7  211.88    7.58
  -1   4  -7  232.44    7.47
  -1   4  -7  224.78    7.78
   1   4   7  211.30    8.93
   1   4   7  223.95    7.98
  -1   4  -7  222.46    7.77
   1   4   7  227.40    9.37
  -1   4  -7  232.62    7.00
   2  -4   7    1.16    1.42
   2  -4   7    4.09    2.77
  -2  -4  -7    3.69    2.27
  -2  -4  -7    5.37    1.90
  -2  -4  -7   12.39    4.52
  -2  -4  -7    2.71    2.65
   2  -4   7    2.79    1.65
  -2  -4  -7   -0.27    2.22
   2  -4   7   -0.42    2.36
  -2   4  -7    7.04    1.97
  -2   4  -7   -0.67    2.54
   2   4   7    0.43    1.84
   2   4   7    0.65    2.56
   2   4   7    5.46    2.80
  -2   4  -7    3.31    1.96
  -2   4  -7    4.64    1.64
  -2   4  -7    4.67    2.66
  -2   4  -7    1.89    3.03
  -2   4  -7    1.15    1.88
  -3  -4  -7  111.26    5.76
   3  -4   7  127.60    7.62
   3  -4   7  129.62    5.82
   3  -4   7  128.13    5.62
  -3  -4  -7  112.54    7.59
  -3  -4  -7  115.96    6.58
  -3  -4  -7  119.39    7.52
  -3   4  -7  124.75    6.56
   3   4   7  125.63    7.73
   3   4   7  121.20    6.52
  -3   4  -7  108.31    7.65
   3   4   7  123.58    7.79
  -3   4  -7  116.85    6.45
  -3   4  -7  133.36    6.44
  -3   4  -7  125.68    6.50
  -4  -4  -7   -2.27    2.30
   4  -4   7   -1.65    2.89
   4  -4   7    0.77    2.94
  -4  -4  -7    2.00    4.17
  -4  -4  -7    1.50    2.62
   4  -4   7   -4.40    2.68
  -4  -4  -7    2.21    4.27
  -4   4  -7    1.41    3.01
  -4   4  -7   -4.82    3.85
   4   4   7   -1.13    3.50
  -4   4  -7   -1.33    3.80
   4   4   7   -4.09    3.89
   4   4   7    0.67    2.83
  -4   4  -7    6.14    3.64
  -4   4  -7    5.27    4.39
  -4   4  -7   -3.32    2.83
  -5  -4  -7  131.80    9.89
  -5  -4  -7  129.56    8.57
   5  -4   7  122.61    8.35
   5  -4   7  124.05    8.40
  -5  -4  -7  114.53    9.02
  -5  -4  -7  121.06    6.87
  -5   4  -7  131.29    9.51
   5   4   7  121.00    8.29
   5   4   7  113.81   10.09
   5   4   7  135.58    9.37
  -5   4  -7  116.89    9.27
  -5   4  -7  123.47    6.25
  -6  -4  -7    6.49    5.13
   6  -4   7    5.11    3.98
  -6  -4  -7    6.63    5.16
  -6  -4  -7    0.72    3.30
  -6   4  -7    2.18    5.14
  -6   4  -7    9.14    6.01
   6   4   7    6.14    5.13
  -6   4  -7    1.81    5.51
  -6   4  -7   -6.87    4.33
   6   4   7    4.79    5.76
   7  -4   7   56.53    7.14
  -7  -4  -7   49.54    5.91
  -7  -4  -7   42.61    6.98
  -7  -4  -7   62.92    9.29
  -7  -4  -7   84.47   10.71
   7   4   7   44.76    9.11
  -7   4  -7   34.30    7.96
  -7   4  -7   47.37    8.15
   7   4   7   69.87    8.98
  -7   4  -7   46.34    7.24
  -7   4  -7   48.72    8.72
   7   4   7   59.20    7.85
   9  -5  -7    6.84    6.04
  -9  -5   7    5.00    3.87
   9  -5  -7    4.73    4.85
   9  -5  -7    3.59    6.69
   9  -5  -7   -1.92    6.26
  -9  -5   7    5.59    4.17
  -9   5   7    3.06    3.54
  -9   5   7   -1.25    5.91
   9   5  -7    5.23    5.16
   9   5  -7   -5.06    6.17
  -9   5   7   -0.97    6.27
   9   5  -7    6.16    6.57
  -9   5   7  -11.03    6.65
   9   5  -7   10.40    6.92
   8  -5  -7   68.19    9.14
   8  -5  -7   89.81    8.20
  -8  -5   7   70.33    7.73
   8  -5  -7   73.48   11.39
   8  -5  -7   74.96    8.81
  -8  -5   7   75.23    6.71
  -8   5   7   75.25    6.15
  -8   5   7   83.30    8.91
   8   5  -7   58.16    7.78
   8   5  -7   67.23    7.74
   8   5  -7   66.30    7.47
   8   5  -7   76.37    8.97
  -8   5   7   63.38    7.65
  -8   5   7  100.44    9.10
  -7  -5   7    8.36    4.24
   7  -5  -7   11.80    4.52
  -7  -5   7    5.78    3.53
   7  -5  -7   11.27    3.96
   7  -5  -7    4.90    4.48
   7  -5  -7   13.43    5.24
   7   5  -7    7.62    4.08
  -7   5   7    3.61    5.09
   7   5  -7    9.78    4.72
  -7   5   7    5.64    4.06
  -7   5   7    5.87    4.57
   7   5  -7    6.95    4.98
  -7   5   7    4.39    2.99
   7   5  -7    3.76    3.37
   6  -5  -7   36.75    5.48
  -6  -5   7   44.97    5.42
   6  -5  -7   55.40    6.06
  -6  -5   7   52.92    4.00
  -6  -5   7   47.65    5.25
   6  -5  -7   43.29    6.20
  -6   5   7   46.89    5.70
  -6   5   7   48.63    6.18
  -6   5   7   41.99    5.59
   6   5  -7   49.23    5.17
   6   5  -7   39.97    4.35
   6   5  -7   44.12    5.37
   6   5  -7   52.75    5.94
  -6   5   7   43.46    4.50
   6   5  -7   46.78    6.24
  -5  -5   7   40.21    3.47
   5  -5  -7   36.70    4.73
   5  -5  -7   35.20    4.91
   5  -5  -7   35.32    4.76
  -5  -5   7   38.83    4.65
  -5  -5   7   36.01    4.27
  -5  -5   7   44.21    2.88
   5   5  -7   46.07    4.35
  -5   5   7   38.08    4.32
   5   5  -7   37.71    4.89
  -5   5   7   47.82    5.84
   5   5  -7   38.01    3.69
   5   5  -7   33.10    4.60
  -5   5   7   44.99    5.76
   5   5  -7   44.34    5.59
   5   5  -7   40.92    4.03
  -5   5   7   45.58    5.39
   5   5  -7   35.65    4.07
   4  -5  -7    4.78    2.71
   4  -5  -7    5.84    2.73
  -4  -5   7    3.45    2.07
   4  -5  -7    4.76    2.53
  -4  -5   7    8.86    2.80
   4   5  -7    3.79    2.14
  -4   5   7    4.07    2.81
   4   5  -7    9.14    2.27
  -4   5   7    2.83    2.02
   4   5  -7    5.36    1.43
  -4   5   7    6.37    2.71
   4   5  -7    2.73    1.81
  -4   5   7    3.63    2.62
   4   5  -7   -0.66    2.39
  -4   5   7   -3.89    2.81
   4   5  -7    4.18    1.67
   4   5  -7    6.05    1.85
   3  -5  -7  137.07    7.38
   3  -5  -7  139.60    7.21
   3  -5  -7  131.06    8.89
   3  -5  -7  135.04    6.80
  -3  -5   7  141.84    5.66
  -3  -5   7  144.42    6.90
  -3   5   7  134.68    7.16
   3   5  -7  134.77    7.07
   3   5  -7  134.41    4.91
   3   5  -7  132.28    4.77
  -3   5   7  119.67    6.70
  -3   5   7  118.96    6.98
   3   5  -7  136.81    5.05
   3   5  -7  136.13    5.96
   3   5  -7  136.22    5.48
   3   5  -7  135.02    5.14
  -2  -5   7   16.94    2.91
   2  -5  -7   16.09    3.64
   2  -5  -7   27.47    3.84
  -2  -5   7   24.01    2.95
   2  -5  -7   15.71    3.32
   2  -5  -7   20.93    3.30
  -2   5   7   18.34    3.34
   2   5  -7   22.95    3.14
  -2   5   7   21.51    3.24
   2   5  -7   21.96    1.91
   2   5  -7   19.10    1.66
   2   5  -7   22.53    1.68
  -2   5   7   20.16    3.26
  -2   5   7   17.63    3.20
  -1  -5   7  125.88    6.87
  -1  -5   7  115.73    5.84
   1  -5  -7  122.64    6.43
   1  -5  -7  123.75    6.85
   1  -5  -7  121.91    6.82
   1  -5  -7  116.38    6.95
   1   5  -7  128.51    3.87
   1   5  -7  122.97    4.09
   1   5  -7  120.93    5.88
  -1   5   7  110.31    6.19
   1   5  -7  123.38    3.96
   1   5  -7  117.15    4.22
  -1   5   7  120.58    6.65
  -1   5   7  118.83    6.74
   0  -5  -7  147.10    7.34
   0  -5  -7  137.64    7.05
   0  -5  -7  125.61    6.64
   0  -5  -7  125.30    7.58
   0  -5   7  135.96    6.35
   0   5   7  135.79    7.25
   0   5  -7  139.27    4.50
   0   5   7  141.29    5.93
   0   5   7  134.73    7.01
   0   5  -7  134.57    5.83
   0   5  -7  137.57    4.99
   0   5  -7  129.27    4.61
   0   5  -7  135.73    4.70
   0   5  -7  137.16    7.08
   0   5   7  123.68    7.62
  -1  -5  -7    4.51    2.29
  -1  -5  -7    5.81    2.10
  -1  -5  -7    3.36    2.39
  -1  -5  -7    3.17    2.65
   1  -5   7    7.29    2.91
   1  -5   7    6.61    2.96
  -1   5  -7    5.88    1.44
   1   5   7    5.34    2.52
   1   5   7    2.61    2.46
  -1   5  -7    4.63    1.83
  -1   5  -7    7.53    2.19
  -1   5  -7    5.08    1.79
  -1   5  -7    4.53    1.57
  -1   5  -7    8.63    2.81
   1   5   7    3.92    1.97
  -1   5  -7    7.00    1.87
  -2  -5  -7  241.85    8.93
   2  -5   7  235.78   10.56
   2  -5   7  249.06    6.93
  -2  -5  -7  256.01   10.58
  -2  -5  -7  238.60   10.15
   2  -5   7  257.73    8.37
   2  -5   7  258.02    6.91
  -2   5  -7  249.05    8.53
   2   5   7  243.03   10.49
   2   5   7  246.13   10.60
  -2   5  -7  232.93    9.10
  -2   5  -7  235.41   10.39
  -2   5  -7  245.07    8.71
  -2   5  -7  260.72    8.84
   2   5   7  241.10    9.39
  -2   5  -7  237.76    8.64
  -2   5  -7  251.54    8.01
  -3  -5  -7   15.11    4.05
  -3  -5  -7    8.76    2.51
  -3  -5  -7    9.29    3.97
  -3  -5  -7   13.56    3.03
   3  -5   7    9.65    2.60
   3  -5   7   13.44    2.23
   3  -5   7   16.94    3.71
  -3   5  -7   15.12    3.27
  -3   5  -7    9.35    2.69
  -3   5  -7   18.21    3.62
   3   5   7   14.17    3.82
   3   5   7   15.69    4.66
   3   5   7   12.23    3.05
  -3   5  -7   13.33    3.98
  -3   5  -7   12.91    2.79
   4  -5   7  149.96    8.80
  -4  -5  -7  158.35    8.00
  -4  -5  -7  163.12    7.66
  -4  -5  -7  157.95   10.53
   4  -5   7  152.82    7.20
   4   5   7  173.74   10.91
   4   5   7  160.80    8.49
  -4   5  -7  168.02    8.49
   5  -5   7   12.85    4.17
  -5  -5  -7    4.79    4.48
  -5  -5  -7   10.04    3.28
  -5  -5  -7    6.26    3.91
  -5  -5  -7   13.68    4.88
  -5   5  -7   13.89    5.45
   5   5   7   10.97    5.40
  -5   5  -7   10.64    5.01
  -5   5  -7   11.66    4.04
   5   5   7   20.13    5.51
  -6  -5  -7   20.91    6.21
  -6  -5  -7   29.33    4.34
   6  -5   7   18.00    5.20
  -6  -5  -7   26.38    6.63
  -6  -5  -7   16.87    8.70
   6   5   7   37.69    7.31
   6   5   7   23.32    6.74
  -6   5  -7   23.20    6.46
  -6   5  -7   12.41    6.74
  -6   5  -7   23.02    5.81
   6   5   7   31.02    5.96
  -6   5  -7   30.81    5.62
   8  -6  -7   58.94    7.70
  -8  -6   7   46.30    5.83
   8  -6  -7   40.97    7.08
   8  -6  -7   34.96    6.03
   8   6  -7   40.28    6.10
  -8   6   7   38.29    6.42
   8   6  -7   39.12    6.72
   8   6  -7   46.34    7.86
  -8   6   7   49.01    7.61
  -8   6   7   46.93    5.69
  -8   6   7   46.48    7.60
   8   6  -7   43.84    6.35
   7  -6  -7    9.37    4.99
  -7  -6   7    3.31    3.30
   7  -6  -7    9.37    5.02
   7  -6  -7    5.57    3.98
  -7  -6   7    2.85    3.10
   7  -6  -7   13.05    4.75
  -7   6   7   11.17    4.93
   7   6  -7    0.17    3.20
   7   6  -7   -6.97    3.94
   7   6  -7    6.96    5.04
  -7   6   7    4.41    4.38
  -7   6   7    0.85    2.84
  -7   6   7    6.17    4.45
   7   6  -7   15.85    4.83
  -6  -6   7  137.83    7.82
   6  -6  -7  133.37    8.21
   6  -6  -7  150.21    9.37
  -6  -6   7  135.43    8.08
   6  -6  -7  148.66   10.14
   6   6  -7  143.16    8.85
   6   6  -7  130.94    7.55
  -6   6   7  136.57    9.66
  -6   6   7  133.84    9.30
   6   6  -7  134.65    7.48
  -6   6   7  131.50    6.95
   6   6  -7  130.72    9.69
  -6   6   7  135.58   10.00
   5  -6  -7   -4.77    3.44
   5  -6  -7    3.60    2.77
  -5  -6   7   -2.67    2.27
  -5  -6   7   -4.07    2.48
   5  -6  -7    0.08    3.13
  -5   6   7    2.50    3.80
  -5   6   7    4.69    3.99
   5   6  -7    2.60    2.41
   5   6  -7   -1.26    2.15
   5   6  -7    2.36    2.75
   5   6  -7    3.18    3.77
   5   6  -7   -2.62    3.96
  -5   6   7   -1.98    3.25
  -5   6   7    0.90    2.27
   5   6  -7    2.78    4.36
   5   6  -7    0.14    1.86
  -4  -6   7  126.24    7.02
   4  -6  -7  139.24    7.86
  -4  -6   7  134.72    6.41
   4  -6  -7  138.39    7.38
   4  -6  -7  140.40    8.03
   4   6  -7  129.78    5.93
  -4   6   7  120.63    7.86
   4   6  -7  128.99    5.33
  -4   6   7  117.84    7.42
   4   6  -7  125.93    7.49
   4   6  -7  136.39    4.32
   4   6  -7  136.31    7.91
  -4   6   7  135.33    6.56
  -4   6   7  129.67    8.17
   4   6  -7  136.73    6.90
   4   6  -7  140.42    5.23
   4   6  -7  134.82    4.37
   3  -6  -7    2.35    2.43
   3  -6  -7    1.31    2.63
  -3  -6   7   -0.54    1.85
  -3  -6   7    1.40    2.32
   3  -6  -7    3.68    2.60
   3   6  -7    0.20    2.25
   3   6  -7    0.53    1.34
   3   6  -7    0.23    1.62
  -3   6   7   -1.63    2.49
  -3   6   7    0.30    2.86
   3   6  -7    0.68    0.93
   3   6  -7    3.67    2.03
  -3   6   7   -4.74    2.25
   3   6  -7    0.08    1.02
   2  -6  -7  132.21    7.13
   2  -6  -7  139.74    7.48
  -2  -6   7  137.55    6.74
   2  -6  -7  130.72    7.27
  -2  -6   7  133.83    5.50
   2  -6  -7  145.17    7.90
  -2   6   7  132.69    7.57
  -2   6   7  129.17    7.18
   2   6  -7  145.62    4.52
  -2   6   7  138.48    7.41
   2   6  -7  147.40    4.50
   2   6  -7  146.60    5.99
   2   6  -7  133.18    6.75
  -1  -6   7   12.60    2.86
   1  -6  -7    7.53    3.33
   1  -6  -7    6.16    2.39
   1  -6  -7   11.94    3.03
   1  -6  -7   10.99    2.97
   1   6  -7    7.51    2.32
   1   6  -7   11.58    1.97
   1   6  -7   10.59    1.28
   1   6  -7   10.35    1.16
  -1   6   7   11.48    2.88
  -1   6   7    5.36    2.73
   0  -6   7   70.53    5.32
   0  -6  -7   69.14    5.17
   0  -6   7   70.76    5.03
   0  -6  -7   73.08    5.75
   0  -6  -7   70.03    5.53
   0   6   7   70.72    4.68
   0   6  -7   71.19    3.94
   0   6  -7   76.73    5.63
   0   6  -7   62.99    4.97
   0   6   7   67.21    5.73
   0   6   7   68.16    5.69
   0   6  -7   72.07    4.18
   0   6  -7   74.22    3.13
   1  -6   7    8.86    3.00
  -1  -6  -7    6.40    3.37
  -1  -6  -7   13.51    2.77
  -1  -6  -7    9.83    3.14
   1  -6   7   -1.58    4.02
  -1  -6  -7   12.35    3.22
  -1   6  -7   10.92    1.47
  -1   6  -7   14.82    2.47
   1   6   7   14.12    3.54
  -1   6  -7   10.02    1.91
   1   6   7    8.24    2.51
  -1   6  -7    6.28    2.85
   1   6   7    7.61    3.06
  -1   6  -7   10.69    2.52
  -1   6  -7    9.02    2.49
  -2  -6  -7   10.99    2.60
  -2  -6  -7   11.98    2.61
  -2  -6  -7   12.85    3.69
   2  -6   7   19.20    2.86
   2  -6   7   11.63    3.29
  -2  -6  -7   18.53    3.86
  -2   6  -7   15.85    2.07
  -2   6  -7   17.84    2.26
   2   6   7   19.45    4.15
  -2   6  -7   15.96    3.21
   2   6   7   15.07    3.23
  -2   6  -7   13.71    3.90
   2   6   7   16.15    4.27
  -2   6  -7   13.93    2.45
  -2   6  -7   13.71    2.31
  -2   6  -7   11.86    3.09
   3  -6   7   14.05    1.83
  -3  -6  -7   21.53    3.29
   3  -6   7   21.13    4.38
  -3  -6  -7   20.36    3.23
  -3  -6  -7   21.86    4.71
  -3  -6  -7   16.63    4.83
  -3   6  -7   18.70    3.25
  -3   6  -7   18.09    4.17
  -3   6  -7   11.94    4.56
  -3   6  -7   17.05    3.17
   3   6   7   22.25    4.85
   3   6   7   16.75    3.54
  -3   6  -7   17.65    3.07
   3   6   7   14.26    4.66
   4  -6   7    6.20    3.65
  -4  -6  -7    4.86    3.05
  -4  -6  -7   10.14    4.39
  -4  -6  -7    4.09    5.14
  -4  -6  -7    8.12    3.25
  -4   6  -7    6.52    4.48
  -4   6  -7    4.87    3.68
   4   6   7    1.01    3.96
  -4   6  -7    5.79    3.32
  -4   6  -7    8.15    4.22
   4   6   7    9.23    5.08
   4   6   7    1.58    3.82
  -5  -6  -7    2.92    5.45
  -5  -6  -7   10.86    4.21
   5  -6   7    8.57    4.26
  -5  -6  -7   10.08    4.96
  -5  -6  -7    5.90    4.50
  -5   6  -7    8.14    5.00
   5   6   7    9.59    6.13
  -5   6  -7   -3.33    4.88
  -5   6  -7    2.10    3.89
   5   6   7   10.21    5.53
   5   6   7   15.35    5.95
  -5   6  -7   10.80    5.55
  -6  -6  -7   15.47    6.56
   6  -6   7   26.68    5.41
  -6  -6  -7   29.06    7.02
  -6  -6  -7   15.06    4.40
  -6  -6  -7   13.90    7.21
  -6   6  -7   28.69    7.05
   6   6   7    6.29    6.85
  -6   6  -7   23.35    7.05
  -6   6  -7   22.91    5.58
   6   6   7   24.81    6.95
  -6   6  -7   31.04    6.57
   6   6   7   26.71    6.46
  -8  -7   7   29.01    5.30
   8  -7  -7   25.16    6.58
   8  -7  -7    9.99    6.82
   8  -7  -7   24.60    5.97
   8  -7  -7   29.15    8.35
  -8  -7   7   21.74    4.61
  -8   7   7   27.65    7.33
  -8   7   7   17.91    6.79
   8   7  -7   32.68    6.89
  -8   7   7   23.34    4.37
   8   7  -7   16.69    6.58
   8   7  -7   17.47    6.24
  -8   7   7   25.76    6.71
   8   7  -7   16.39    5.13
  -7  -7   7   51.06    5.86
  -7  -7   7   35.01    5.97
   7  -7  -7   45.95    6.72
   7  -7  -7   43.86    6.25
   7  -7  -7   44.59    6.50
   7  -7  -7   38.53    6.23
   7   7  -7   40.72    6.34
   7   7  -7   34.64    5.74
  -7   7   7   44.11    6.40
  -7   7   7   45.84    5.22
   7   7  -7   44.15    6.80
  -7   7   7   46.45    7.08
   7   7  -7   40.30    4.90
  -7   7   7   44.61    6.67
   6  -7  -7    9.99    4.60
   6  -7  -7    2.57    4.95
  -6  -7   7    5.39    3.63
  -6  -7   7    9.89    3.50
   6  -7  -7    1.72    4.17
   6  -7  -7    0.21    3.65
   6   7  -7   10.87    3.55
   6   7  -7    4.50    4.72
   6   7  -7    3.57    4.47
  -6   7   7    8.02    3.08
  -6   7   7   14.08    4.58
   6   7  -7   10.35    3.44
  -6   7   7   10.64    4.57
  -6   7   7   12.16    4.87
   5  -7  -7  133.48    8.18
  -5  -7   7  128.06    7.29
  -5  -7   7  122.69    7.81
   5  -7  -7  137.13    9.48
  -5   7   7  141.71   10.56
  -5   7   7  141.07    6.85
   5   7  -7  134.76    6.55
  -5   7   7  105.31   11.83
   5   7  -7  139.24    5.96
   5   7  -7  148.40    7.93
  -5   7   7  115.09    8.91
   5   7  -7  132.23    9.56
   5   7  -7  123.79    6.10
   4  -7  -7   -1.42    2.87
  -4  -7   7    0.62    2.72
  -4  -7   7    4.02    2.45
   4  -7  -7    1.15    3.91
   4  -7  -7    4.95    3.71
  -4   7   7   -2.12    3.64
  -4   7   7    2.15    3.67
   4   7  -7   -0.68    3.28
   4   7  -7    0.97    2.22
   4   7  -7    0.11    3.18
   4   7  -7    5.27    2.79
   4   7  -7    4.12    2.62
  -4   7   7    1.02    4.31
   4   7  -7    2.63    1.34
   4   7  -7    2.32    1.52
  -4   7   7    6.07    2.44
   3  -7  -7  215.84   10.11
  -3  -7   7  224.11    8.30
  -3  -7   7  224.32    9.43
   3  -7  -7  214.98    9.80
   3   7  -7  231.15    7.19
   3   7  -7  217.27    8.84
   3   7  -7  219.18    9.55
  -3   7   7  238.53   10.69
  -3   7   7  217.79   10.29
   3   7  -7  215.42    6.99
  -3   7   7  209.09   10.71
   3   7  -7  220.12    7.47
   2  -7  -7    2.34    2.76
   2  -7  -7    0.03    2.73
  -2  -7   7    3.46    3.37
   2  -7  -7    2.84    2.65
  -2  -7   7    4.31    2.37
  -2  -7   7    4.05    2.02
   2   7  -7    1.75    1.86
   2   7  -7    2.63    1.04
   2   7  -7    4.57    2.51
  -2   7   7    5.36    3.03
  -2   7   7    4.48    3.13
   2   7  -7    4.98    1.08
   2   7  -7    4.23    2.10
  -2   7   7   -2.53    2.67
  -1  -7   7  163.71    7.24
   1  -7  -7  157.78    7.99
   1  -7  -7  171.37    8.75
   1  -7  -7  155.32    8.33
   1  -7  -7  161.33    8.46
  -1  -7   7  168.34    8.00
  -1   7   7  155.83    8.34
   1   7  -7  165.06    6.71
   1   7  -7  150.99    6.92
  -1   7   7  163.87    8.51
   1   7  -7  161.74    4.59
   1   7  -7  164.59    7.88
   1   7  -7  166.53    4.64
   1   7  -7  165.10    7.42
   0  -7   7   32.49    3.75
   0  -7  -7   42.68    5.38
   0  -7   7   35.90    4.51
   0  -7  -7   30.53    4.22
   0  -7  -7   29.96    4.58
   0   7   7   43.87    4.46
   0   7  -7   39.31    5.03
   0   7   7   43.62    5.51
   0   7   7   42.42    5.18
   0   7  -7   35.15    3.34
   0   7  -7   32.12    3.54
   0   7  -7   39.23    2.48
   0   7  -7   30.56    3.96
   1  -7   7   31.85    4.85
  -1  -7  -7   27.51    4.35
  -1  -7  -7   34.23    4.14
   1  -7   7   24.89    4.14
  -1  -7  -7   34.25    4.75
  -1   7  -7   27.02    3.06
  -1   7  -7   25.59    4.32
  -1   7  -7   31.21    4.10
   1   7   7   21.96    4.32
   1   7   7   30.18    5.01
  -1   7  -7   26.90    3.16
   1   7   7   27.47    3.92
  -1   7  -7   28.80    3.14
  -1   7  -7   28.66    2.01
   2  -7   7   44.52    5.75
  -2  -7  -7   56.54    4.75
  -2  -7  -7   50.63    5.95
  -2  -7  -7   50.64    6.57
  -2  -7  -7   44.71    4.81
  -2   7  -7   48.88    3.66
   2   7   7   57.09    6.89
  -2   7  -7   46.13    6.17
  -2   7  -7   53.99    5.13
   2   7   7   48.95    5.39
  -2   7  -7   46.33    3.54
  -2   7  -7   51.37    4.33
  -2   7  -7   49.03    2.66
   2   7   7   39.42    5.98
  -2   7  -7   47.39    4.65
  -2   7  -7   57.95    6.60
   3  -7   7    5.74    3.58
  -3  -7  -7    2.88    4.59
  -3  -7  -7    1.29    2.60
  -3  -7  -7    7.02    4.57
  -3  -7  -7   12.68    3.18
   3   7   7   11.32    4.46
  -3   7  -7    4.45    2.82
   3   7   7   12.27    4.09
   3   7   7   16.49    5.04
  -3   7  -7    5.20    2.67
  -3   7  -7   13.03    4.97
   4  -7   7   27.11    5.06
  -4  -7  -7   29.25    3.98
  -4  -7  -7   16.95    5.34
  -4  -7  -7   27.60    4.48
   4   7   7   25.72    5.70
  -4   7  -7   27.37    5.45
  -4   7  -7   24.21    5.15
   4   7   7   28.38    5.82
  -4   7  -7   34.74    4.78
   4   7   7   27.80    5.78
  -4   7  -7   29.42    5.70
  -5  -7  -7   37.24    5.16
   5  -7   7   47.86    6.93
  -5  -7  -7   43.82    6.58
  -5  -7  -7   57.44    7.67
  -5  -7  -7   36.32    4.82
  -5   7  -7   36.04    6.68
  -5   7  -7   40.66    6.91
   5   7   7   44.32    7.15
  -5   7  -7   55.23    8.03
   5   7   7   39.92    6.88
  -5   7  -7   43.14    5.48
   5   7   7   38.71    7.22
   7  -8  -7   34.49    5.90
   7  -8  -7   23.03    6.90
   7  -8  -7   17.78    6.16
  -7  -8   7   24.05    4.52
   7  -8  -7   26.29    6.63
   7   8  -7   25.76    4.28
  -7   8   7   31.19    6.38
  -7   8   7   23.62    4.23
  -7   8   7   32.47    6.75
  -7   8   7   19.01    6.31
   7   8  -7   27.32    6.26
   7   8  -7   28.81    6.98
   6  -8  -7    3.36    5.01
   6  -8  -7    3.90    4.55
   6  -8  -7    5.66    5.83
   6  -8  -7   12.53    4.74
  -6  -8   7    8.17    3.96
  -6  -8   7    1.57    3.29
  -6   8   7    9.06    4.89
  -6   8   7    5.32    4.79
   6   8  -7    8.53    4.07
   6   8  -7    4.61    7.56
  -6   8   7    4.46    4.77
  -6   8   7    2.47    2.90
  -5  -8   7    1.85    2.90
   5  -8  -7    2.64    3.64
   5  -8  -7   -3.48    4.76
  -5  -8   7    1.04    3.29
   5  -8  -7    2.74    3.99
   5  -8  -7   -2.18    3.73
  -5   8   7   -2.07    4.07
  -5   8   7   -4.14    4.08
  -5   8   7    2.37    2.74
   5   8  -7   -1.89    2.80
  -5   8   7   -4.26    3.81
   5   8  -7    2.27    3.92
   5   8  -7    2.48    2.01
   5   8  -7    5.65    4.57
   4  -8  -7   37.07    5.51
   4  -8  -7   33.54    4.68
  -4  -8   7   40.59    4.55
  -4  -8   7   41.58    5.06
   4   8  -7   31.48    4.00
  -4   8   7   35.90    5.91
  -4   8   7   30.19    6.45
  -4   8   7   31.62    3.88
  -4   8   7   41.34    7.30
   4   8  -7   38.25    4.65
   4   8  -7   37.18    2.18
   4   8  -7   32.98    5.86
  -3  -8   7   13.02    3.43
   3  -8  -7    7.29    3.83
  -3  -8   7   11.12    2.69
   3  -8  -7    6.95    3.72
   3  -8  -7    9.98    3.72
  -3   8   7   13.76    4.64
  -3   8   7   15.10    4.75
   3   8  -7    6.98    3.45
  -3   8   7   12.22    4.63
   3   8  -7   15.00    2.50
   3   8  -7   15.45    3.34
   3   8  -7   10.04    1.82
   3   8  -7   14.73    2.19
   2  -8  -7   44.69    5.39
   2  -8  -7   37.69    4.83
  -2  -8   7   33.78    4.21
   2  -8  -7   37.20    5.37
  -2  -8   7   30.92    4.01
  -2  -8   7   40.02    3.93
   2   8  -7   34.30    4.12
  -2   8   7   34.12    5.36
   2   8  -7   34.20    2.01
   2   8  -7   37.76    2.13
   2   8  -7   39.48    3.97
  -2   8   7   33.81    5.11
   2   8  -7   42.71    4.72
   2   8  -7   41.26    4.78
  -2   8   7   33.26    5.61
   1  -8  -7   41.52    5.33
  -1  -8   7   46.65    5.00
   1  -8  -7   46.69    5.43
   1  -8  -7   34.44    5.21
   1  -8  -7   44.57    5.41
  -1  -8   7   47.75    4.66
  -1   8   7   53.01    6.98
  -1   8   7   40.78    5.65
   1   8  -7   44.64    5.02
   1   8  -7   43.87    4.67
   1   8  -7   45.76    4.31
   1   8  -7   45.26    4.32
   0  -8   7   16.00    3.48
   0  -8  -7   12.71    3.63
   0  -8   7   17.59    3.51
   0  -8  -7   18.24    4.79
   0  -8  -7   19.36    4.44
   0  -8  -7   20.29    4.16
   0   8  -7   16.28    1.76
   0   8  -7   20.93    3.65
   0   8   7   12.18    4.27
   0   8   7   21.37    5.03
   0   8  -7   14.94    2.41
   0   8  -7   13.44    2.84
   0   8   7   18.87    3.50
   0   8  -7   22.18    3.52
  -1  -8  -7   72.55    5.82
  -1  -8  -7   83.50    7.46
  -1  -8  -7   81.38    7.18
   1  -8   7   82.18    6.58
  -1  -8  -7   72.31    6.99
   1  -8   7   69.61    6.98
  -1   8  -7   77.78    7.37
  -1   8  -7   73.77    4.05
   1   8   7   68.56    7.71
  -1   8  -7   79.77    7.05
  -1   8  -7   74.25    4.32
   1   8   7   88.96    8.27
   1   8   7   66.28    6.31
  -1   8  -7   84.17    4.81
  -2  -8  -7    1.01    4.05
  -2  -8  -7    5.29    7.42
  -2  -8  -7    1.36    2.46
   2  -8   7   -3.75    3.21
  -2   8  -7   -0.45    4.77
  -2   8  -7    3.79    4.74
   2   8   7    0.22    3.65
   2   8   7   -2.53    3.94
  -2   8  -7    3.07    2.79
  -2   8  -7   -0.58    1.49
  -2   8  -7   -0.35    1.67
   3  -8   7   76.73    7.84
  -3  -8  -7   96.19    8.08
  -3  -8  -7  104.75    8.57
  -3  -8  -7   79.16    9.74
  -3  -8  -7   92.17    6.12
  -3   8  -7  114.57    9.07
   3   8   7   91.86    8.69
  -3   8  -7   87.04    9.45
   3   8   7  106.04    9.30
  -3   8  -7   92.01    6.95
   3   8   7  104.77    9.09
  -3   8  -7   85.55    5.91
  -4  -8  -7    1.31    3.35
  -4  -8  -7    0.88    3.45
  -4  -8  -7   -5.99    5.04
   4  -8   7    6.86    4.07
  -4  -8  -7   -0.50    4.70
  -4   8  -7   -2.43    4.15
   4   8   7    0.80    4.94
  -4   8  -7    3.05    5.53
  -4   8  -7    9.17    4.89
   4   8   7    4.34    5.28
  -4   8  -7    3.28    3.09
   4   8   7   -4.54    4.78
  -5  -8  -7   77.18    9.22
  -5  -8  -7   65.92    7.82
  -5  -8  -7   71.27    6.52
   5  -8   7   55.71    7.42
  -5   8  -7   92.86   11.89
   5   8   7   67.37    9.01
   5   8   7   89.78   11.04
  -5   8  -7   76.28    7.56
  -5   8  -7   55.06    8.47
   5   8   7   62.89    8.04
   7  -9  -7   -2.01    6.21
  -7  -9   7    2.55    4.24
   7  -9  -7    3.09    7.01
  -7   9   7    1.22    6.39
  -7   9   7    2.53    6.49
   7   9  -7   16.82    6.73
   7   9  -7    1.60    3.91
  -7   9   7    6.05    6.84
   6  -9  -7   31.35    6.97
  -6  -9   7   38.86    5.18
   6  -9  -7   42.87    6.48
  -6  -9   7   32.19    5.92
   6  -9  -7   37.48    6.32
   6  -9  -7   37.46    6.35
  -6   9   7   33.34    6.84
   6   9  -7   28.05    3.60
  -6   9   7   40.02    7.42
   6   9  -7   29.43    6.10
  -6   9   7   51.36    7.47
  -6   9   7   38.24    4.40
  -5  -9   7   11.94    3.89
   5  -9  -7    6.71    4.10
   5  -9  -7    9.78    5.20
  -5  -9   7   11.29    4.53
   5  -9  -7   15.52    6.35
   5   9  -7   13.68    3.99
   5   9  -7    5.67    2.09
  -5   9   7   10.18    5.17
  -5   9   7    9.66    5.14
  -5   9   7    7.84    4.51
   5   9  -7    9.36    5.44
   5   9  -7   10.93    5.73
  -5   9   7    9.77    3.14
  -4  -9   7    5.93    3.08
   4  -9  -7   15.37    5.92
   4  -9  -7   -1.51    3.91
  -4  -9   7    4.53    3.06
   4  -9  -7    6.75    4.51
   4  -9  -7   14.45    5.01
  -4   9   7    3.16    4.67
  -4   9   7   11.22    3.06
   4   9  -7    7.93    3.18
   4   9  -7   11.49    3.02
   4   9  -7    8.52    4.17
  -4   9   7    6.84    4.53
  -4   9   7   11.07    4.49
   3  -9  -7   19.98    4.88
  -3  -9   7   24.47    3.57
   3  -9  -7   27.39    5.13
  -3  -9   7   23.67    4.27
  -3   9   7   22.97    4.71
   3   9  -7   17.22    3.78
  -3   9   7   14.79    4.34
  -3   9   7   26.81    5.38
   3   9  -7   34.32    3.51
   3   9  -7   21.55    2.80
   3   9  -7   23.63    3.39
   3   9  -7   11.09    4.08
   2  -9  -7   22.65    4.74
  -2  -9   7   20.91    3.72
   2  -9  -7   22.27    4.75
  -2  -9   7   22.71    3.35
   2  -9  -7   20.51    5.21
  -2  -9   7   12.51    3.51
   2   9  -7   23.05    3.74
   2   9  -7   14.75    3.46
   2   9  -7   17.17    2.89
   2   9  -7   11.32    3.03
  -2   9   7   12.49    4.98
  -2   9   7   18.65    5.24
  -1  -9   7   22.10    3.91
  -1  -9   7   21.16    3.63
   1  -9  -7   14.35    4.50
   1  -9  -7   27.65    4.79
   1  -9  -7   16.35    4.88
   1   9  -7   24.76    3.64
   1   9  -7   17.25    3.40
   1   9  -7   21.72    3.24
   1   9  -7   16.56    3.33
  -1   9   7   14.16    6.25
   0  -9   7  127.85    7.29
   0  -9   7  117.60    8.00
   0  -9  -7  127.51    9.65
   0  -9  -7  142.92    9.19
   0   9   7  116.46   15.08
   0   9  -7  129.82    7.78
   0   9   7  114.59    8.23
   0   9  -7  132.74    4.53
   0   9   7  125.97    9.15
   0   9  -7  136.24    7.41
   0   9  -7  136.15    6.03
   0   9  -7  139.84    8.21
  -1  -9  -7    8.09    4.71
  -1  -9  -7    3.57    4.20
   1  -9   7    8.15    3.29
  -1  -9  -7    2.84    3.37
  -1   9  -7    5.29    4.29
   1   9   7   -2.25    3.70
   1   9   7    3.45    4.24
  -1   9  -7   -0.11    2.08
  -1   9  -7    5.20    4.43
   1   9   7    1.42    4.59
  -2  -9  -7  169.40   11.87
  -2  -9  -7  171.98    7.48
  -2  -9  -7  167.78    8.85
   2  -9   7  171.87   10.19
  -2  -9  -7  173.47    9.95
  -2   9  -7  150.42   10.64
   2   9   7  161.63   10.97
  -2   9  -7  182.18   11.53
  -2   9  -7  177.04    5.48
  -2   9  -7  172.95    5.35
  -2   9  -7  168.58    7.61
   2   9   7  173.92   10.98
   2   9   7  175.86   10.59
  -3  -9  -7    5.17    4.47
   3  -9   7   -3.89    3.53
  -3  -9  -7    2.16    3.34
   3   9   7    3.71    5.00
  -3   9  -7   -6.37    4.61
  -3   9  -7   -0.40    3.77
  -3   9  -7    2.16    4.95
   3   9   7   11.42    5.22
  -3   9  -7    1.38    2.67
   3   9   7   -7.02    4.75
  -4  -9  -7  105.87    8.05
  -4  -9  -7   94.69   10.99
  -4  -9  -7  109.98   10.36
   4  -9   7  104.54    9.12
   4   9   7  100.92   10.65
  -4   9  -7  120.50   11.29
   4   9   7   98.15   10.67
  -4   9  -7  125.61   11.90
   4   9   7  112.86   11.82
  -4   9  -7  100.39    6.93
  -6 -10   7   79.43    7.45
  -6 -10   7   72.96    7.35
   6 -10  -7   72.08    9.03
   6 -10  -7   87.38   11.65
   6 -10  -7   76.40    9.92
  -6  10   7   64.86    6.93
   6  10  -7   79.85    8.59
   6  10  -7   73.40    5.68
  -6  10   7   76.63    9.33
  -6  10   7   65.40    8.65
  -6  10   7   76.91    9.25
  -5 -10   7    4.91    3.50
   5 -10  -7    4.17    6.37
   5 -10  -7    4.78    4.99
   5 -10  -7   -0.51    5.75
   5 -10  -7    5.99    4.19
  -5 -10   7    5.99    4.31
   5  10  -7   17.73    5.55
  -5  10   7   15.30    6.28
   5  10  -7    9.98    5.37
  -5  10   7   13.09    5.99
  -5  10   7   11.22    3.50
  -5  10   7    7.59    5.28
   4 -10  -7   70.92    8.48
  -4 -10   7   70.71    6.64
   4 -10  -7   73.81    7.87
   4 -10  -7   77.49    9.20
  -4 -10   7   82.45    7.19
   4 -10  -7   88.98    9.32
   4  10  -7   96.11    8.71
  -4  10   7   86.64    8.62
  -4  10   7   81.70    9.39
  -4  10   7   78.53    5.87
  -4  10   7   95.21    9.03
   4  10  -7   84.71    9.55
   3 -10  -7    4.15    4.63
  -3 -10   7    3.76    2.96
  -3 -10   7    6.63    3.64
   3 -10  -7    6.38    4.44
   3 -10  -7   -3.55    5.46
   3 -10  -7    1.20    3.70
  -3  10   7   -5.60    4.17
  -3  10   7   -1.86    4.34
   3  10  -7    0.21    2.99
   3  10  -7    3.28    4.90
  -3  10   7    0.82    4.30
   3  10  -7   -1.22    4.39
  -2 -10   7   40.30    5.03
   2 -10  -7   44.43    5.73
  -2 -10   7   44.27    4.43
  -2 -10   7   32.25    4.78
   2 -10  -7   37.69    6.30
   2  10  -7   42.19    5.10
  -2  10   7   45.32    6.12
   2  10  -7   37.72    4.19
   2  10  -7   42.25    5.37
  -2  10   7   43.79    6.15
  -2  10   7   40.68    6.24
   2  10  -7   49.37    5.68
   1 -10  -7    9.39    4.06
  -1 -10   7    3.93    3.33
  -1 -10   7   15.23    3.68
   1 -10  -7    4.00    4.96
  -1  10   7    4.43    4.43
   1  10  -7    7.76    3.35
  -1  10   7   12.69    4.65
   1  10  -7    7.70    3.27
   1  10  -7    4.99    2.94
   1  10  -7   10.37    3.70
   0 -10   7   42.49    5.64
   0 -10   7   57.73    5.78
   0 -10  -7   50.57    7.13
   0 -10  -7   48.90    5.79
   0  10   7   43.72    6.32
   0  10   7   48.86    6.62
   0  10  -7   45.38    4.65
   0  10  -7   37.98    4.89
   0  10  -7   55.23    6.76
   0  10  -7   41.08    5.95
   1 -10   7   40.59    5.69
  -1 -10  -7   33.63    5.28
  -1 -10  -7   38.95    5.64
  -1 -10  -7   29.72    6.80
   1  10   7   36.16    5.96
  -1  10  -7   34.95    6.55
   1  10   7   29.70    5.94
  -1  10  -7   43.39    6.69
   1  10   7   32.19    5.92
  -2 -10  -7   18.85    4.98
   2 -10   7   12.61    4.17
  -2 -10  -7    6.46    6.51
  -2 -10  -7    7.67    3.63
   2  10   7   11.33    5.55
   2  10   7   16.23    5.30
   2  10   7    8.33    5.29
  -2  10  -7   14.70    5.08
  -2  10  -7    3.84    5.12
  -3 -10  -7   46.51    7.83
  -3 -10  -7   43.14    5.46
   3 -10   7   45.32    6.75
  -3 -10  -7   47.13    6.73
   3  10   7   53.01    7.44
   3  10   7   56.18    7.62
  -3  10  -7   50.24    7.76
   3  10   7   50.30    8.08
  -3  10  -7   47.81    4.92
  -3  10  -7   44.25    7.00
   5  11  -7  100.94   11.33
  -4 -11   7   -3.17    5.62
   4 -11  -7    7.31    4.55
  -4 -11   7    2.01    3.43
   4 -11  -7   -0.62    7.18
   4 -11  -7    3.87    5.06
  -4  11   7    4.99    5.54
   4  11  -7   -0.76    5.37
  -4  11   7   14.44    5.91
  -4  11   7   12.97    6.23
  -4  11   7   -1.84    3.18
   4  11  -7   -0.22    5.52
   3 -11  -7  152.14   13.16
  -3 -11   7  154.41    9.10
   3 -11  -7  138.57    9.78
   3 -11  -7  145.04    9.98
  -3 -11   7  155.19   10.49
  -3  11   7  156.26   11.35
   3  11  -7  143.00   10.79
  -3  11   7  149.33   11.53
  -3  11   7  159.56   11.21
   3  11  -7  148.72   10.38
  -2 -11   7    0.61    3.50
  -2 -11   7    0.54    3.64
   2 -11  -7    6.33    6.72
   2 -11  -7    1.13    4.01
   2 -11  -7   -0.79    4.40
  -2 -11   7    0.41    3.51
  -2  11   7   -1.87    4.96
  -2  11   7    9.94    5.45
   2  11  -7   -4.71    4.74
   2  11  -7    2.78    3.37
  -2  11   7   -1.16    5.29
   2  11  -7   -1.15    5.74
  -1 -11   7  105.59    8.05
   1 -11  -7  118.81    8.77
   1 -11  -7  121.86    8.91
   1 -11  -7  114.69   11.98
  -1 -11   7  126.77    7.87
  -1  11   7  113.95    9.87
   1  11  -7  114.96    8.23
   1  11  -7  101.39    9.72
   1  11  -7  122.31    7.71
  -1  11   7  126.56   10.16
  -1  11   7  121.71    9.95
   1  11  -7  126.05    8.93
   0 -11  -7    4.73    6.59
   0 -11  -7    0.12    3.84
   0 -11   7   -1.25    3.87
   0 -11  -7   -1.67    4.41
   0  11  -7    3.14    5.20
   0  11   7    5.08    5.57
   0  11  -7    8.55    4.76
   0  11   7    5.26    5.48
   0  11   7   -1.15    4.53
  -1 -11  -7   28.47    5.70
  -1 -11  -7   39.79    7.91
   1 -11   7   40.86    6.04
  -1 -11  -7   33.85    5.20
  -1  11  -7   27.02    6.49
   1  11   7   30.30    7.03
   1  11   7   47.03    7.72
   1  11   7   33.82    6.36
  -1  11  -7   28.40    6.20
  -2 -11  -7    8.84    4.09
  -2 -11  -7    8.12    7.00
  -2 -11  -7   19.60    4.65
  -2 -11  -7   13.91    5.72
   2 -11   7   17.63    5.29
  -2  11  -7    9.77    6.25
   2  11   7   22.50    7.02
   2  11   7   21.44    6.77
  -2  11  -7   21.64    6.31
   2  11   7   10.18    6.24
   3  12  -7    4.85    6.26
   2 -12  -7   46.82    6.35
  -2 -12   7   51.91    6.28
  -2 -12   7   54.34    5.96
   2 -12  -7   29.03    5.72
  -2  12   7   44.07    7.41
  -2  12   7   47.34    7.30
  -2  12   7   47.97    7.64
   2  12  -7   31.94    6.68
   2  12  -7   42.00    9.57
   1 -12  -7   22.84    5.75
   1 -12  -7   25.59    5.40
  -1 -12   7   19.65    5.04
   1  12  -7   28.44    6.83
  -1  12   7   16.06    6.57
  -1  12   7   24.93    6.78
   1  12  -7   25.64    6.75
  -1  12   7   15.77    6.82
   0 -12   7   11.79    4.80
   0 -12  -7    8.48    4.77
   0 -12  -7   -0.19    5.31
   0  12   7   31.06    6.82
   0  12  -7   24.59    6.56
   0  12   7    3.23    6.04
   0  12   7    8.73    6.18
   0  12  -7    3.17    5.99
  -9   0   8    7.59    4.27
  -9   0   8    1.39    6.84
   9   0  -8    0.63    5.97
   9   0  -8   -1.92    4.05
  -9   0   8   -4.95    4.62
   9   0  -8   12.13    6.18
   9   0  -8   -8.45    5.39
  -8   0   8   97.28    8.52
   8   0  -8  101.83    8.77
   8   0  -8  100.41    9.12
  -8   0   8  101.89    8.69
  -8   0   8  101.41    7.16
   8   0  -8  106.13    8.88
  -7   0   8    0.08    2.42
   7   0  -8   -2.59    4.04
   7   0  -8    8.56    7.08
   7   0  -8    2.00    3.72
  -7   0   8   -3.39    2.75
  -7   0   8    0.44    3.37
  -6   0   8  120.41    7.06
   6   0  -8  117.23    6.80
   6   0  -8  113.74    7.36
  -6   0   8  139.35    6.29
  -6   0   8  120.33    6.79
   6   0  -8  106.95    8.54
  -6   0   8  113.03    6.90
  -6   0   8  127.29    8.24
   6   0  -8  102.11    8.21
   6   0  -8  119.93    7.69
   5   0  -8    3.20    2.63
  -5   0   8   -3.16    2.17
   5   0  -8   -3.02    2.02
  -5   0   8    0.51    2.62
   5   0  -8   -0.67    3.22
   5   0  -8    1.15    2.61
  -5   0   8   -1.15    1.73
   5   0  -8   -1.90    2.77
  -5   0   8   -3.17    2.37
  -5   0   8   -0.99    2.17
   4   0  -8  217.74    8.88
   4   0  -8  217.36    8.80
  -4   0   8  224.59    7.82
   4   0  -8  252.58    9.36
   4   0  -8  240.62    8.96
  -4   0   8  227.65    9.12
   4   0  -8  235.22    9.78
  -3   0   8    0.24    2.15
  -3   0   8   -0.06    0.98
   3   0  -8   -0.09    1.98
  -3   0   8    0.98    1.41
   3   0  -8    0.22    2.39
  -3   0   8   -0.83    1.45
  -3   0   8    7.08    2.43
   3   0  -8    2.74    2.50
  -3   0   8    2.06    2.01
   3   0  -8   -3.19    2.36
   3   0  -8    1.93    1.63
   3   0  -8    1.33    1.71
  -2   0   8   57.58    3.92
   2   0  -8   64.44    4.33
  -2   0   8   61.05    3.49
  -2   0   8   65.09    4.20
   2   0  -8   60.26    5.00
  -2   0   8   65.41    3.35
   2   0  -8   50.22    4.02
   2   0  -8   63.61    4.87
  -2   0   8   48.77    3.95
  -2   0   8   62.27    5.05
   2   0  -8   69.19    4.63
   2   0  -8   59.89    4.11
  -1   0   8    1.70    1.63
  -1   0   8    0.98    1.85
   1   0  -8   -2.49    2.15
   1   0  -8   -0.28    1.56
   1   0  -8    0.30    1.85
  -1   0   8    2.17    1.31
   1   0  -8    1.17    1.97
   1   0  -8    0.96    1.56
  -1   0   8    1.03    1.93
   1   0  -8    2.61    2.59
  -1   0   8    3.52    2.29
  -1   0   8   -1.60    1.35
   0   0  -8    6.90    3.22
   0   0   8    2.55    1.43
   0   0  -8   -0.11    2.48
   0   0  -8    1.12    1.86
   0   0   8    4.96    2.54
   0   0   8   -1.85    1.88
   0   0   8    2.44    1.87
   0   0  -8    2.60    1.76
   0   0   8   -0.56    1.47
   0   0  -8    0.30    1.76
  -1   0  -8   -1.11    1.88
   1   0   8   -1.93    2.49
  -1   0  -8    1.97    2.48
   1   0   8    0.30    1.80
   1   0   8   -0.51    1.58
   1   0   8    1.65    2.11
  -1   0  -8   -1.10    1.92
  -1   0  -8   -0.74    3.02
  -1   0  -8   -0.84    1.87
  -2   0  -8   20.64    3.56
  -2   0  -8   20.30    3.19
  -2   0  -8   25.55    3.53
   2   0   8   22.85    3.54
   2   0   8   23.27    3.67
   2   0   8   22.44    2.86
  -2   0  -8   23.33    3.62
   2   0   8   34.14    3.69
  -3   0  -8    3.51    2.96
   3   0   8   -0.49    2.62
  -3   0  -8   -1.87    2.76
  -3   0  -8    4.79    2.58
  -3   0  -8    0.58    2.38
   3   0   8   -1.39    2.30
   3   0   8   -1.91    2.73
  -3   0  -8    2.63    4.08
  -4   0  -8   47.48    4.41
  -4   0  -8   46.55    5.86
   4   0   8   48.16    5.01
  -4   0  -8   49.67    6.01
   4   0   8   57.24    6.37
  -4   0  -8   39.64    5.31
  -4   0  -8   43.00    6.73
  -4   0  -8   51.88    6.77
   4   0   8   39.98    5.04
  -5   0  -8   -5.04    4.19
  -5   0  -8   -0.19    2.82
   5   0   8    4.36    4.30
   5   0   8   -4.54    4.23
  -5   0  -8   -3.94    4.28
  -5   0  -8   -1.57    3.99
  -6   0  -8  105.70   10.36
   6   0   8  118.18    9.78
  -6   0  -8  103.94    9.92
   6   0   8  110.65   11.76
  -6   0  -8  104.78   10.20
   9  -1  -8   27.74    5.26
  -9  -1   8   23.07    4.79
   9  -1  -8   11.52    6.32
  -9  -1   8   21.98    5.76
  -9  -1   8    5.18    3.93
   9  -1  -8   14.22    6.12
   9  -1  -8   19.68    6.53
   9   1  -8   20.47    5.94
  -9   1   8   18.76    5.63
   9   1  -8   13.85    6.08
  -9   1   8   16.79    8.03
   9   1  -8   15.18    6.10
   9   1  -8   18.20    4.67
   8  -1  -8   17.15    5.11
  -8  -1   8   17.73    4.03
   8  -1  -8   10.33    4.73
  -8  -1   8    8.73    3.62
  -8  -1   8   10.18    4.70
   8  -1  -8    2.03    4.47
  -8  -1   8   13.18    3.59
   8   1  -8    7.11    4.90
   8   1  -8    6.55    4.04
  -8   1   8    8.34    4.61
   8   1  -8   17.43    5.27
  -8   1   8   10.70    3.44
   7  -1  -8  110.08    9.15
   7  -1  -8  101.02    8.39
  -7  -1   8  113.12    7.37
  -7  -1   8  100.94    6.62
  -7  -1   8   97.80    5.73
   7  -1  -8  100.16    8.36
  -7   1   8   93.74    6.40
  -7   1   8  106.88    7.75
   7   1  -8   92.03    7.62
  -7   1   8  100.19    7.18
   7   1  -8  103.07    8.85
   6  -1  -8    0.78    3.06
   6  -1  -8   -6.50    3.37
  -6  -1   8    4.47    2.80
   6  -1  -8    7.10    3.84
   6  -1  -8    0.55    3.34
  -6  -1   8    5.99    3.95
  -6  -1   8   -2.05    2.32
   6  -1  -8    2.69    5.01
  -6  -1   8    7.30    2.01
  -6   1   8    4.63    2.98
   6   1  -8    4.12    2.90
  -6   1   8    0.70    2.41
   6   1  -8    1.30    2.98
  -6   1   8    5.07    3.96
   6   1  -8    5.80    2.73
  -6   1   8    3.86    2.66
   6   1  -8    3.59    4.16
  -6   1   8    9.57    4.20
   6   1  -8    7.59    3.97
   5  -1  -8  174.68    8.92
   5  -1  -8  177.57    8.47
  -5  -1   8  171.42    8.41
   5  -1  -8  188.61    8.34
  -5  -1   8  174.24    7.57
  -5  -1   8  185.75    6.37
   5  -1  -8  182.66    9.08
  -5  -1   8  179.90    8.22
   5  -1  -8  195.20    8.43
  -5  -1   8  176.70    6.48
   5   1  -8  183.04    8.10
  -5   1   8  176.35    8.22
  -5   1   8  188.28    8.15
   5   1  -8  181.61    8.96
  -5   1   8  179.02    8.02
   5   1  -8  186.31    7.47
   5   1  -8  194.87    8.61
  -5   1   8  175.38    7.54
   5   1  -8  170.85    7.87
  -5   1   8  177.50    7.97
   4  -1  -8   27.29    3.89
   4  -1  -8   34.43    3.94
   4  -1  -8   26.73    3.54
   4  -1  -8   25.98    3.42
  -4  -1   8   27.41    3.47
  -4  -1   8   36.95    3.31
  -4  -1   8   27.88    2.42
  -4  -1   8   29.02    3.57
   4  -1  -8   26.69    3.89
   4   1  -8   25.57    3.18
  -4   1   8   25.57    3.46
   4   1  -8   29.01    3.67
   4   1  -8   31.96    3.98
  -4   1   8   31.31    4.02
  -4   1   8   31.83    3.48
   4   1  -8   26.96    3.71
  -4   1   8   26.22    3.38
   4   1  -8   34.08    3.85
   4   1  -8   20.81    2.93
  -4   1   8   28.25    3.46
  -3  -1   8  125.16    6.19
  -3  -1   8  128.79    5.54
   3  -1  -8  122.76    6.33
   3  -1  -8  128.99    6.73
  -3  -1   8  131.47    4.51
   3  -1  -8  137.34    6.42
  -3  -1   8  134.01    5.83
   3  -1  -8  122.09    6.68
   3  -1  -8  115.44    6.56
   3  -1  -8  127.95    6.54
   3   1  -8  135.59    6.11
   3   1  -8  128.56    6.15
   3   1  -8  130.94    5.92
   3   1  -8  130.36    6.30
  -3   1   8  135.41    4.77
   3   1  -8  117.75    6.53
  -3   1   8  129.06    6.11
   3   1  -8  122.58    5.79
  -3   1   8  137.48    5.81
  -3   1   8  124.31    6.33
  -3   1   8  140.18    5.77
   2  -1  -8  179.66    7.27
  -2  -1   8  172.72    6.56
   2  -1  -8  172.04    7.57
  -2  -1   8  187.38    7.54
   2  -1  -8  188.07    8.08
   2  -1  -8  171.46    7.46
  -2  -1   8  181.41    5.51
   2  -1  -8  173.67    7.42
   2  -1  -8  179.98    7.87
  -2  -1   8  178.24    6.57
  -2  -1   8  177.17    4.65
  -2   1   8  164.40    6.65
   2   1  -8  167.34    6.78
  -2   1   8  173.63    8.24
  -2   1   8  170.54    7.25
   2   1  -8  182.03    7.13
   2   1  -8  180.64    7.84
   2   1  -8  174.46    7.69
   2   1  -8  174.06    6.83
   2   1  -8  174.40    6.92
  -2   1   8  187.97    6.71
  -2   1   8  160.95    7.05
  -1  -1   8   18.55    2.26
   1  -1  -8   17.75    2.71
  -1  -1   8   17.86    2.79
   1  -1  -8   13.32    2.84
  -1  -1   8   15.68    2.76
   1  -1  -8   14.04    2.73
   1  -1  -8   16.11    2.77
  -1  -1   8   17.96    2.28
   1  -1  -8   20.82    3.43
  -1   1   8   20.82    2.50
   1   1  -8   15.21    2.46
  -1   1   8   17.71    2.83
  -1   1   8   17.83    2.25
   1   1  -8   16.37    2.28
  -1   1   8   13.31    2.84
   1   1  -8   20.60    2.87
   1   1  -8   20.70    3.21
   1   1  -8   16.20    2.30
   1   1  -8   15.56    2.89
  -1   1   8   17.70    2.66
   0  -1  -8  206.18    9.06
   0  -1   8  216.27    8.19
   0  -1   8  213.16    6.48
   0  -1   8  212.54    7.59
   0  -1   8  220.94    8.75
   0  -1  -8  198.89    8.30
   0  -1  -8  204.61    8.72
   0  -1  -8  215.31    8.59
   0  -1  -8  202.92    8.26
   0  -1  -8  218.39    8.83
   0  -1   8  202.51    6.91
   0  -1   8  220.85    7.77
   0   1   8  204.27    7.81
   0   1  -8  210.27    8.01
   0   1  -8  218.60    8.32
   0   1  -8  211.45    7.93
   0   1   8  225.30    7.69
   0   1   8  220.96    8.86
   0   1  -8  223.17    7.99
   0   1   8  223.08    8.60
   0   1  -8  207.99    8.44
   0   1   8  201.13    8.16
   1  -1   8   25.83    2.12
  -1  -1  -8   21.69    3.16
   1  -1   8   25.73    3.10
   1  -1   8   22.91    3.23
   1  -1   8   28.72    3.39
  -1  -1  -8   27.08    3.44
  -1  -1  -8   30.52    4.08
  -1  -1  -8   27.49    3.42
   1  -1   8   20.70    2.82
  -1   1  -8   25.15    3.27
   1   1   8   29.61    3.61
  -1   1  -8   22.41    2.93
   1   1   8   29.60    3.57
   1   1   8   27.12    3.38
  -1   1  -8   23.05    3.16
  -1   1  -8   29.67    3.59
  -1   1  -8   36.99    4.67
   1   1   8   19.34    3.45
  -2  -1  -8   78.36    5.29
   2  -1   8   77.12    4.06
   2  -1   8   70.11    5.52
  -2  -1  -8   82.96    6.07
  -2  -1  -8   84.24    5.61
  -2  -1  -8   71.78    5.65
   2  -1   8   71.70    3.78
  -2  -1  -8   95.60    6.68
  -2   1  -8   72.23    5.29
  -2   1  -8   71.91    5.07
  -2   1  -8   77.13    5.90
   2   1   8   74.03    5.57
  -2   1  -8   76.22    5.39
   2   1   8   73.51    5.05
  -2   1  -8   86.13    5.79
   2   1   8   84.45    5.28
  -3  -1  -8   68.85    6.55
  -3  -1  -8   76.00    6.02
  -3  -1  -8   65.25    7.46
   3  -1   8   74.27    5.98
   3  -1   8   68.16    6.32
  -3  -1  -8   67.48    4.10
  -3  -1  -8   70.74    5.59
  -3  -1  -8   64.77    6.35
   3  -1   8   70.73    4.48
  -3   1  -8   78.10    5.92
   3   1   8   72.10    6.03
   3   1   8   65.43    5.50
   3   1   8   68.52    4.35
  -3   1  -8   64.76    5.15
  -3   1  -8   76.20    7.11
  -3   1  -8   76.45    6.75
  -3   1  -8   68.93    5.96
   3   1   8   65.75    5.84
   4  -1   8   19.08    4.18
  -4  -1  -8   14.94    4.70
  -4  -1  -8   18.69    4.95
  -4  -1  -8   15.19    2.86
   4  -1   8   21.19    5.33
  -4  -1  -8   17.66    4.65
   4  -1   8   16.89    3.06
   4   1   8   18.08    2.96
   4   1   8   14.48    4.19
  -4   1  -8   11.54    4.13
  -4   1  -8   13.57    4.80
   4   1   8   23.97    4.30
  -4   1  -8   15.64    4.04
   4   1   8    0.41    4.61
  -4   1  -8   12.97    5.72
  -4   1  -8   11.17    3.34
  -5  -1  -8   48.93    6.63
  -5  -1  -8   52.57    6.45
   5  -1   8   43.75    6.20
   5  -1   8   60.68    6.16
  -5  -1  -8   53.50    4.99
  -5  -1  -8   53.07    6.54
   5   1   8   48.26    6.17
  -5   1  -8   54.34    6.84
   5   1   8   47.56    6.38
  -5   1  -8   46.41    6.13
  -5   1  -8   55.83    8.13
  -6  -1  -8   -0.72    5.32
   6  -1   8    5.86    5.85
  -6  -1  -8   -0.48    3.59
  -6  -1  -8    5.66    4.97
   6  -1   8    5.61    5.22
  -6  -1  -8   -4.62    5.15
  -6   1  -8   -2.21    5.40
  -6   1  -8   -4.01    5.10
   6   1   8   10.46    5.16
   6   1   8   -2.86    7.29
  -6   1  -8    3.20    5.18
   9  -2  -8   21.26    5.50
  -9  -2   8   25.19    8.01
   9  -2  -8   23.41    6.78
  -9  -2   8   12.15    4.28
   9  -2  -8   20.34    6.59
   9  -2  -8   25.66    6.62
  -9   2   8   20.77    6.01
   9   2  -8   15.97    5.85
  -9   2   8   21.18    4.47
   9   2  -8   14.85    6.09
  -9   2   8   23.28    7.77
   9   2  -8   19.79    4.65
  -9   2   8   23.41    7.06
   9   2  -8   11.42    6.56
  -8  -2   8    8.53    6.17
  -8  -2   8    2.84    3.17
  -8  -2   8    2.85    3.00
   8  -2  -8   -1.36    4.33
   8  -2  -8    7.68    4.92
  -8  -2   8    3.08    2.88
   8  -2  -8    1.10    4.47
  -8   2   8    1.64    3.02
  -8   2   8    1.96    4.09
  -8   2   8    4.20    4.07
   8   2  -8   -3.72    3.64
  -8   2   8    1.41    5.10
   8   2  -8   -2.04    4.77
   8   2  -8    1.18    4.55
  -7  -2   8    3.10    3.54
   7  -2  -8    4.37    7.71
   7  -2  -8    3.69    3.79
  -7  -2   8    3.02    2.02
   7  -2  -8   -0.65    4.16
  -7  -2   8    1.32    2.64
  -7   2   8    6.46    4.03
  -7   2   8    6.79    4.05
   7   2  -8    1.34    3.29
   7   2  -8    1.09    4.01
   7   2  -8    5.44    4.55
   7   2  -8    0.32    3.53
  -7   2   8    1.06    2.94
  -7   2   8    1.97    2.91
   6  -2  -8   -0.73    3.48
  -6  -2   8    6.02    4.04
  -6  -2   8    0.19    2.59
  -6  -2   8   -3.04    2.25
   6  -2  -8   -0.87    3.39
   6  -2  -8    2.34    3.62
   6   2  -8   -1.02    2.88
  -6   2   8    1.91    3.00
   6   2  -8    0.58    2.22
   6   2  -8   -2.11    2.51
  -6   2   8    7.35    5.38
  -6   2   8    3.78    2.97
  -6   2   8    8.03    2.84
  -6   2   8    0.85    2.56
   6   2  -8    5.92    3.96
   6   2  -8    1.97    2.63
   5  -2  -8   25.66    4.78
  -5  -2   8   23.78    3.58
   5  -2  -8   22.43    4.67
  -5  -2   8   19.56    3.10
  -5  -2   8   25.74    3.08
   5  -2  -8   28.32    4.12
  -5  -2   8   21.28    3.10
   5  -2  -8   20.23    3.75
   5  -2  -8   23.36    4.07
  -5   2   8   24.31    3.54
  -5   2   8   22.39    3.53
   5   2  -8   25.42    2.87
   5   2  -8   28.08    3.50
   5   2  -8   22.58    4.17
   5   2  -8   21.68    2.87
   5   2  -8   30.28    3.55
  -5   2   8   24.56    3.71
  -5   2   8   27.05    3.97
  -5   2   8   36.62    4.21
  -4  -2   8    4.96    2.02
   4  -2  -8    4.78    2.57
   4  -2  -8    5.12    3.46
  -4  -2   8    1.91    2.29
   4  -2  -8    0.91    3.03
   4  -2  -8    6.63    2.37
  -4  -2   8    3.65    1.63
  -4  -2   8    4.41    2.50
   4  -2  -8    2.68    2.25
  -4   2   8    5.85    2.26
   4   2  -8    8.72    2.34
  -4   2   8    8.13    2.36
   4   2  -8    3.44    1.90
  -4   2   8    3.25    2.41
  -4   2   8    5.80    2.36
   4   2  -8    3.80    2.32
  -4   2   8    1.27    2.71
   4   2  -8    2.65    1.98
   4   2  -8    6.00    2.26
   4   2  -8    4.37    2.53
   3  -2  -8  116.31    6.34
   3  -2  -8  120.92    6.81
  -3  -2   8  122.17    5.17
  -3  -2   8  117.11    4.94
   3  -2  -8  127.39    6.50
  -3  -2   8  124.05    6.42
   3  -2  -8  126.01    6.91
   3  -2  -8  117.69    6.43
  -3  -2   8  122.50    5.38
   3   2  -8  123.66    5.42
  -3   2   8  121.83    6.13
  -3   2   8  117.83    5.98
   3   2  -8  122.98    5.59
  -3   2   8  123.39    6.16
   3   2  -8  117.20    5.93
   3   2  -8  128.29    5.60
  -3   2   8  127.06    6.04
  -3   2   8  116.49    4.96
   3   2  -8  124.29    6.58
   3   2  -8  117.85    5.66
   2  -2  -8    2.30    2.59
   2  -2  -8    6.03    2.23
   2  -2  -8    5.03    2.92
  -2  -2   8    6.06    1.23
   2  -2  -8    0.78    2.54
  -2  -2   8    2.32    2.06
  -2  -2   8    2.41    1.54
   2  -2  -8    3.44    2.26
   2  -2  -8    1.91    2.14
  -2   2   8    7.01    2.23
  -2   2   8    5.03    1.14
   2   2  -8    2.23    2.28
   2   2  -8    6.76    1.80
   2   2  -8    3.11    1.64
  -2   2   8    3.64    1.89
   2   2  -8    3.80    1.64
  -2   2   8    8.88    2.30
   2   2  -8    5.60    1.98
   2   2  -8    3.16    2.25
  -2   2   8    5.24    2.18
  -1  -2   8  180.06    6.16
   1  -2  -8  159.12    7.82
   1  -2  -8  182.75    8.09
   1  -2  -8  183.14    8.53
  -1  -2   8  183.45    7.44
   1  -2  -8  172.46    7.45
   1  -2  -8  178.61    7.75
   1  -2  -8  167.14    7.57
  -1   2   8  178.21    4.95
  -1   2   8  183.17    7.30
   1   2  -8  161.82    6.59
   1   2  -8  178.58    6.82
  -1   2   8  178.83    4.92
   1   2  -8  179.54    6.65
  -1   2   8  195.21    8.83
  -1   2   8  162.03    7.41
  -1   2   8  183.80    7.06
   1   2  -8  176.45    6.60
   1   2  -8  173.72    7.57
  -1   2   8  193.82    9.14
   0  -2   8    0.35    1.40
   0  -2  -8    2.88    1.96
   0  -2   8   -0.60    2.40
   0  -2  -8   -0.84    1.98
   0  -2   8    1.74    2.04
   0  -2  -8    3.60    2.76
   0  -2  -8   -0.86    1.94
   0  -2   8   -0.33    1.52
   0   2   8    0.53    0.73
   0   2   8    0.10    1.87
   0   2   8    1.91    2.13
   0   2  -8    2.39    1.53
   0   2   8    1.46    2.10
   0   2  -8   -1.44    2.05
   0   2  -8   -0.95    1.67
   0   2  -8   -0.66    1.48
   0   2  -8   -3.31    1.55
   1  -2   8  180.65    7.33
   1  -2   8  181.89    6.89
  -1  -2  -8  183.91    8.30
  -1  -2  -8  189.89    8.20
   1  -2   8  191.94    7.17
   1  -2   8  186.75    7.87
  -1  -2  -8  187.15    8.57
  -1  -2  -8  187.46    8.26
  -1   2  -8  186.00    7.64
  -1   2  -8  185.67    7.33
  -1   2  -8  174.63    7.21
  -1   2  -8  178.24    7.48
  -1   2  -8  174.68    7.63
   1   2   8  183.69    7.84
   1   2   8  179.99    5.73
   1   2   8  182.89    8.18
   2  -2   8   -2.76    1.92
   2  -2   8    1.60    2.59
  -2  -2  -8    5.33    3.87
   2  -2   8    0.39    2.18
  -2  -2  -8   -4.80    1.84
  -2  -2  -8    0.16    2.30
  -2  -2  -8   -3.03    2.17
  -2  -2  -8    1.14    2.51
  -2  -2  -8   -0.03    2.41
  -2   2  -8    2.27    1.91
  -2   2  -8    0.10    2.60
  -2   2  -8    0.62    1.07
   2   2   8   -3.17    2.41
   2   2   8   -3.08    2.26
  -2   2  -8   -1.65    2.61
   2   2   8    2.24    2.82
   2   2   8    1.42    2.47
  -2   2  -8   -1.86    1.97
  -2   2  -8   -1.36    2.01
   3  -2   8  150.40    5.01
   3  -2   8  147.95    7.60
  -3  -2  -8  151.15    8.58
  -3  -2  -8  141.29    8.73
  -3  -2  -8  156.13    8.28
   3  -2   8  149.73    8.26
  -3  -2  -8  157.63    5.92
  -3   2  -8  143.78    8.23
   3   2   8  148.84    8.01
  -3   2  -8  160.05    9.45
  -3   2  -8  159.15    8.12
  -3   2  -8  156.74    7.75
  -3   2  -8  155.89    7.04
   3   2   8  132.24    8.16
   3   2   8  156.65    8.50
   3   2   8  145.38    6.46
   4  -2   8    3.04    3.59
  -4  -2  -8   10.76    2.51
   4  -2   8    6.76    2.10
   4  -2   8    6.07    3.40
  -4  -2  -8    3.67    4.44
   4  -2   8   -3.61    5.63
  -4  -2  -8    0.48    3.84
   4   2   8    0.98    3.64
   4   2   8    3.71    2.71
   4   2   8    4.11    4.22
  -4   2  -8    5.80    4.01
  -4   2  -8    4.43    3.57
  -5  -2  -8   51.49    4.99
   5  -2   8   61.18    5.04
  -5  -2  -8   55.36    6.77
  -5  -2  -8   52.97    6.93
   5  -2   8   73.82    7.99
   5  -2   8   58.92    6.71
  -5  -2  -8   62.99    7.24
  -5   2  -8   49.01    6.05
   5   2   8   49.78    6.96
   5   2   8   44.46    6.78
   5   2   8   46.65    6.04
  -5   2  -8   49.18    6.69
   6  -2   8    1.87    3.96
  -6  -2  -8    7.24    3.75
  -6  -2  -8   -5.67    4.79
  -6  -2  -8   -7.30    5.20
   6  -2   8    0.89    4.17
  -6  -2  -8   13.61    6.03
  -6   2  -8    2.22    5.34
  -6   2  -8   -1.00    4.71
   6   2   8    4.60    5.69
  -6   2  -8   -4.52    5.70
   6   2   8  -14.99    9.95
   6   2   8    6.29    5.15
   9  -3  -8   -1.71    6.24
   9  -3  -8    1.02    6.12
   9  -3  -8    7.41    6.43
   9  -3  -8   17.76    4.98
  -9   3   8   15.64    5.95
  -9   3   8    4.66    6.87
   9   3  -8   35.58    7.48
   9   3  -8   15.84    6.40
   9   3  -8   17.91    5.72
  -9   3   8    2.17    6.13
  -9   3   8   15.13    4.13
   9   3  -8   21.37    6.94
  -8  -3   8   16.82    4.14
   8  -3  -8   21.23    5.43
   8  -3  -8   22.97    5.49
   8  -3  -8   14.59    5.31
  -8  -3   8   18.41    5.58
  -8   3   8   15.35    5.32
   8   3  -8   18.86    4.78
  -8   3   8   19.50    3.72
   8   3  -8   25.59    5.64
  -8   3   8   31.45    7.36
  -8   3   8   14.30    5.06
   8   3  -8   26.23    5.85
  -7  -3   8   64.29    6.13
   7  -3  -8   58.00    7.27
   7  -3  -8   58.08    6.54
   7  -3  -8   53.67    6.55
  -7  -3   8   68.46    8.09
   7   3  -8   61.54    7.40
   7   3  -8   58.27    7.54
  -7   3   8   54.54    7.14
  -7   3   8   67.36    7.15
   7   3  -8   60.86    6.49
  -7   3   8   55.16    5.49
   7   3  -8   64.75    6.88
  -6  -3   8    2.63    2.41
  -6  -3   8    5.90    2.75
  -6  -3   8    1.31    4.04
   6  -3  -8    3.28    3.47
   6  -3  -8   -6.77    3.36
   6  -3  -8   11.12    4.05
  -6  -3   8    5.83    2.78
  -6   3   8    7.55    3.40
  -6   3   8   -0.78    3.22
  -6   3   8    1.06    2.43
   6   3  -8    1.76    1.68
   6   3  -8    1.18    3.24
   6   3  -8    5.37    2.90
   6   3  -8   -0.07    2.55
  -6   3   8    1.63    3.22
   6   3  -8    1.18    4.03
   6   3  -8    7.26    3.76
  -5  -3   8  112.19    6.82
   5  -3  -8  107.71    7.34
  -5  -3   8  127.63    5.65
  -5  -3   8  120.31    6.37
   5  -3  -8  117.11    7.68
   5  -3  -8  123.26    7.46
  -5  -3   8  123.01    6.57
   5   3  -8  121.99    6.00
   5   3  -8  117.99    6.20
   5   3  -8  127.21    8.17
  -5   3   8  116.87    6.83
  -5   3   8  126.65    6.63
   5   3  -8  122.90    6.42
  -5   3   8  115.85    7.52
  -5   3   8  129.96    7.28
   5   3  -8  124.53    5.27
  -5   3   8  122.94    6.93
   5   3  -8  128.91    6.61
   4  -3  -8    8.16    3.76
   4  -3  -8   12.02    3.02
   4  -3  -8   19.34    3.59
  -4  -3   8   19.75    2.49
  -4  -3   8   13.76    2.39
   4  -3  -8   16.02    3.18
  -4  -3   8    9.92    3.00
  -4  -3   8   12.95    2.91
   4   3  -8   14.44    3.03
  -4   3   8   11.50    3.65
   4   3  -8   17.21    2.53
   4   3  -8   16.15    2.43
  -4   3   8    9.81    2.76
   4   3  -8   16.25    2.61
  -4   3   8   15.75    3.31
  -4   3   8   11.12    2.75
  -4   3   8   15.56    2.93
   4   3  -8   15.99    2.21
   4   3  -8   12.98    2.47
   4   3  -8   14.67    2.72
  -3  -3   8   60.23    3.26
   3  -3  -8   54.58    4.94
  -3  -3   8   54.98    4.43
   3  -3  -8   68.39    5.82
   3  -3  -8   55.82    4.86
   3  -3  -8   54.10    4.87
  -3  -3   8   56.74    2.97
  -3  -3   8   60.23    4.03
   3   3  -8   60.37    2.83
   3   3  -8   57.66    3.71
   3   3  -8   53.55    3.57
  -3   3   8   62.05    4.84
  -3   3   8   53.04    3.92
  -3   3   8   62.15    4.98
   3   3  -8   58.68    5.17
   3   3  -8   58.40    3.87
   3   3  -8   66.67    4.60
  -3   3   8   50.75    4.34
   3   3  -8   61.24    4.08
  -3   3   8   58.14    4.69
   2  -3  -8  200.41    8.61
   2  -3  -8  188.80    8.37
  -2  -3   8  199.14    5.50
   2  -3  -8  187.16    8.44
  -2  -3   8  191.73    5.84
  -2  -3   8  196.67    5.84
   2  -3  -8  188.14    8.18
  -2  -3   8  190.96    7.96
   2   3  -8  183.96    6.74
   2   3  -8  186.10    6.62
   2   3  -8  179.08    7.44
   2   3  -8  197.11    6.97
  -2   3   8  193.68    7.97
  -2   3   8  186.31    7.89
   2   3  -8  184.89    8.06
  -2   3   8  185.93    8.16
   2   3  -8  191.89    7.84
  -2   3   8  192.80    6.39
   1  -3  -8    0.00    2.07
  -1  -3   8    2.73    1.09
   1  -3  -8    2.05    2.07
   1  -3  -8    3.68    2.85
  -1  -3   8    2.91    1.10
  -1  -3   8    5.23    2.36
   1  -3  -8    2.72    2.31
  -1   3   8   -3.31    2.37
   1   3  -8    0.73    1.39
   1   3  -8    3.67    1.88
  -1   3   8    1.14    2.18
   1   3  -8    1.67    2.00
  -1   3   8    2.43    1.08
  -1   3   8   -1.17    2.04
   1   3  -8   -0.34    1.31
   0  -3   8  282.86    8.26
   0  -3   8  278.72    8.04
   0  -3  -8  262.05   10.58
   0  -3  -8  268.46   10.32
   0  -3  -8  269.60   10.69
   0  -3  -8  282.22   10.60
   0  -3   8  266.76    9.63
   0   3  -8  277.14    9.02
   0   3   8  274.17   10.23
   0   3  -8  275.23    9.07
   0   3   8  267.92    8.44
   0   3  -8  283.59    8.94
   0   3   8  284.35   10.54
   0   3   8  272.13   10.03
   0   3  -8  261.38    9.74
   0   3  -8  291.78    9.32
  -1  -3  -8   -3.33    2.16
  -1  -3  -8    0.74    2.24
   1  -3   8   -0.70    2.34
   1  -3   8    3.05    1.62
  -1  -3  -8    4.79    3.52
   1  -3   8    2.81    1.64
   1  -3   8    0.22    2.52
  -1  -3  -8   -1.05    2.22
   1  -3   8    1.43    2.17
  -1   3  -8    1.87    1.72
   1   3   8    3.10    2.49
  -1   3  -8    1.44    1.83
   1   3   8    1.31    2.46
  -1   3  -8   -2.61    1.69
   1   3   8   -1.51    2.92
  -1   3  -8    1.90    2.33
   1   3   8    3.36    1.58
  -1   3  -8    0.98    1.75
  -1   3  -8    2.76    2.43
  -2  -3  -8  149.40    7.76
   2  -3   8  146.26    6.84
  -2  -3  -8  142.09    5.69
   2  -3   8  141.50    6.45
  -2  -3  -8  138.74    9.23
   2  -3   8  147.17    8.14
   2  -3   8  139.36    6.20
  -2  -3  -8  147.05    7.79
  -2  -3  -8  134.88    8.08
  -2   3  -8  147.83    6.86
   2   3   8  138.77    7.41
   2   3   8  143.03    7.82
   2   3   8  137.68    7.79
  -2   3  -8  143.92    4.90
   2   3   8  133.26    6.03
  -2   3  -8  138.88    6.72
  -2   3  -8  145.02    8.17
  -2   3  -8  149.38    6.41
  -2   3  -8  141.57    6.78
   3  -3   8   30.56    3.63
   3  -3   8   29.86    3.51
   3  -3   8   39.82    4.99
   3  -3   8   29.83    4.60
  -3  -3  -8   38.20    5.82
  -3  -3  -8   28.21    3.33
  -3  -3  -8   29.57    4.11
  -3  -3  -8   27.32    4.87
   3   3   8   32.11    4.97
   3   3   8   32.32    4.09
  -3   3  -8   31.46    4.58
  -3   3  -8   29.46    3.24
   3   3   8   34.73    4.74
  -3   3  -8   29.15    4.14
  -3   3  -8   34.21    4.08
  -3   3  -8   32.53    5.56
  -3   3  -8   21.85    3.69
   4  -3   8   41.81    4.91
  -4  -3  -8   30.20    5.13
  -4  -3  -8   27.46    9.30
   4  -3   8   40.54    5.59
  -4  -3  -8   39.71    4.15
  -4   3  -8   37.49    5.25
   4   3   8   36.70    5.76
  -4   3  -8   43.16    6.49
   4   3   8   33.38    5.25
   4   3   8   27.26    3.93
   5  -3   8   51.69    6.22
  -5  -3  -8   52.41    7.18
  -5  -3  -8   52.64    5.33
  -5  -3  -8   73.48    8.25
   5   3   8   76.08    8.47
  -5   3  -8   64.76    7.60
   5   3   8   61.95    7.18
  -5   3  -8   63.21    6.77
   5   3   8   64.78    8.57
  -6  -3  -8    6.43    3.73
  -6  -3  -8   -0.18    5.00
  -6  -3  -8   -3.49    5.07
   6  -3   8   -1.02    4.36
  -6  -3  -8   -0.58    5.98
  -6   3  -8   18.12    6.81
   6   3   8    1.44    5.74
  -6   3  -8   13.72    6.04
   6   3   8    8.05    6.51
   8  -4  -8   90.65    9.75
  -8  -4   8  105.05    7.62
   8  -4  -8   92.42    8.54
   8  -4  -8   93.70    9.67
   8  -4  -8  104.76    9.64
  -8  -4   8   93.34    7.63
   8   4  -8  112.13   10.23
  -8   4   8  108.11    7.11
   8   4  -8   95.16    8.43
  -8   4   8  107.85    9.73
   8   4  -8  114.84    9.89
  -8   4   8  101.83    9.46
   8   4  -8  107.91   10.90
  -8   4   8  124.60   10.55
   7  -4  -8   -5.76    4.02
   7  -4  -8    0.74    3.93
  -7  -4   8    1.73    2.81
  -7  -4   8    0.33    3.45
   7  -4  -8    1.60    4.88
  -7   4   8    1.79    2.78
  -7   4   8    2.52    5.28
   7   4  -8    5.50    3.07
   7   4  -8   -3.36    3.99
  -7   4   8    6.44    4.54
   7   4  -8   -2.48    3.81
  -7   4   8   -1.12    3.65
   7   4  -8    0.38    4.61
   6  -4  -8   92.64    8.23
   6  -4  -8   99.70    9.02
  -6  -4   8   97.71    6.85
  -6  -4   8  108.70    6.62
   6  -4  -8   93.46    8.30
   6   4  -8   93.15    6.66
  -6   4   8  103.88    7.89
   6   4  -8  106.43    6.77
   6   4  -8  101.79    6.89
  -6   4   8   94.44    7.72
  -6   4   8  108.16    6.49
  -6   4   8  116.63    8.38
  -5  -4   8   -2.16    1.74
   5  -4  -8   -1.08    3.20
  -5  -4   8   -0.92    3.21
   5  -4  -8   -3.45    3.12
  -5  -4   8   -0.55    2.31
  -5  -4   8    0.58    2.60
   5  -4  -8   -1.40    3.21
  -5   4   8    1.45    2.98
   5   4  -8    1.47    2.08
   5   4  -8   -2.78    2.16
  -5   4   8   -1.45    2.35
  -5   4   8    4.20    3.10
   5   4  -8   -3.18    1.58
   5   4  -8    2.88    2.27
  -5   4   8   -0.41    2.87
   5   4  -8   -3.24    3.31
  -5   4   8   -4.75    3.97
   5   4  -8   -0.19    2.59
   4  -4  -8   90.03    6.44
   4  -4  -8   95.88    6.60
  -4  -4   8   93.71    6.11
  -4  -4   8   87.05    3.67
   4  -4  -8   89.10    6.57
  -4  -4   8   85.05    4.91
  -4  -4   8   89.63    3.49
   4   4  -8   95.18    4.91
   4   4  -8   82.26    4.66
   4   4  -8   92.30    6.35
  -4   4   8   88.22    6.20
   4   4  -8   83.28    4.85
  -4   4   8   86.12    6.12
   4   4  -8   90.66    4.69
  -4   4   8   96.50    6.45
  -4   4   8   90.39    5.54
   4   4  -8   80.28    5.16
   4   4  -8   82.28    4.58
  -4   4   8   80.03    5.99
   3  -4  -8    4.11    3.65
   3  -4  -8    7.19    2.78
  -3  -4   8    4.01    2.41
  -3  -4   8   12.52    2.24
   3  -4  -8    9.80    2.55
   3  -4  -8   10.50    2.78
  -3   4   8    7.70    2.35
   3   4  -8    8.33    2.43
   3   4  -8    6.32    2.86
   3   4  -8    6.41    1.60
  -3   4   8    5.87    3.25
  -3   4   8    9.57    2.85
   3   4  -8    7.02    2.71
  -3   4   8    6.42    2.39
   3   4  -8    7.97    1.75
  -3   4   8    9.63    2.75
   3   4  -8    7.75    2.16
   2  -4  -8   92.94    6.63
   2  -4  -8   83.85    5.91
  -2  -4   8   89.34    5.44
  -2  -4   8   95.31    3.56
   2  -4  -8   95.30    6.17
  -2   4   8   97.33    6.14
   2   4  -8   97.18    5.63
  -2   4   8  105.56    6.09
   2   4  -8  104.40    4.67
   2   4  -8   93.58    4.91
   2   4  -8   92.64    4.07
   2   4  -8   92.12    3.27
   2   4  -8   94.72    4.12
  -2   4   8   99.36    5.95
  -1  -4   8   19.89    2.88
   1  -4  -8   19.07    3.05
   1  -4  -8   24.62    3.66
   1  -4  -8   14.68    3.24
   1  -4  -8   22.33    3.97
   1   4  -8   18.25    3.06
  -1   4   8   19.75    3.39
  -1   4   8   14.40    2.93
   1   4  -8   18.65    2.25
  -1   4   8   14.58    3.43
   1   4  -8   16.96    3.34
   1   4  -8   16.62    1.99
  -1   4   8   20.60    2.30
   1   4  -8   24.29    2.95
   0  -4   8    5.85    2.52
   0  -4  -8   14.05    3.62
   0  -4  -8    4.69    2.42
   0  -4  -8    1.75    2.46
   0  -4  -8    7.99    2.70
   0  -4   8   -0.23    2.31
   0   4  -8    3.45    2.05
   0   4  -8    4.95    1.67
   0   4   8    3.91    2.51
   0   4   8    4.30    1.70
   0   4  -8    5.02    1.53
   0   4   8    6.67    3.12
   0   4   8    4.63    2.46
   0   4  -8    6.05    2.10
  -1  -4  -8   11.75    3.05
   1  -4   8   17.81    3.66
  -1  -4  -8   12.66    6.89
  -1  -4  -8   10.81    3.12
   1  -4   8   17.49    3.00
   1  -4   8   16.05    1.50
   1  -4   8   17.68    1.86
  -1  -4  -8   11.39    3.10
  -1   4  -8   17.99    2.43
  -1   4  -8   14.71    2.41
  -1   4  -8   19.47    2.68
  -1   4  -8   13.59    1.31
  -1   4  -8   16.23    3.54
   1   4   8   13.61    3.33
  -1   4  -8   16.68    2.42
  -1   4  -8   15.19    2.93
   1   4   8   10.89    2.13
   1   4   8   15.79    3.35
  -1   4  -8   13.87    1.71
  -2  -4  -8    4.93    2.19
  -2  -4  -8    0.96    3.06
  -2  -4  -8    4.53    3.18
   2  -4   8   15.39    2.22
  -2  -4  -8    3.72    3.12
   2  -4   8    9.54    3.18
   2  -4   8   10.12    2.03
   2  -4   8    8.17    3.10
   2   4   8    8.41    2.33
  -2   4  -8    8.20    2.31
  -2   4  -8    6.39    1.94
  -2   4  -8   17.14    5.40
  -2   4  -8    0.35    3.17
  -2   4  -8    9.58    2.47
   2   4   8    3.44    3.11
  -2   4  -8    5.36    1.85
   2   4   8   12.46    3.55
  -2   4  -8    8.31    2.40
   3  -4   8    0.83    3.18
  -3  -4  -8    1.26    2.13
  -3  -4  -8   -1.52    2.68
  -3  -4  -8    3.93    4.31
  -3  -4  -8   -1.45    3.74
   3  -4   8    4.77    3.01
   3   4   8    2.47    2.70
  -3   4  -8    2.36    2.85
  -3   4  -8    4.78    3.22
  -3   4  -8    3.60    2.94
   3   4   8    3.21    4.26
  -3   4  -8    0.94    2.68
  -3   4  -8    2.16    3.86
   3   4   8    2.37    3.30
  -4  -4  -8   49.46    5.71
  -4  -4  -8   57.86    4.83
  -4  -4  -8   50.62    6.94
   4  -4   8   54.98    6.52
   4  -4   8   69.90    7.92
  -4  -4  -8   51.28    6.86
  -4   4  -8   52.62    6.70
   4   4   8   66.90    7.68
  -4   4  -8   55.50    6.86
   4   4   8   49.61    5.97
  -4   4  -8   55.93    6.72
   4   4   8   51.43    6.71
  -5  -4  -8   -1.93    4.44
  -5  -4  -8    1.03    4.91
  -5  -4  -8    0.11    3.16
   5  -4   8    2.43    3.75
  -5   4  -8    3.26    4.84
   5   4   8    1.38    4.66
   5   4   8   -8.73    4.38
  -6  -4  -8  103.27   10.16
  -6  -4  -8   99.95   10.15
   6  -4   8  128.22    9.34
  -6  -4  -8   98.31   11.86
  -6  -4  -8  107.76   11.00
   6   4   8   81.54   10.97
  -6   4  -8   85.69   10.28
   6   4   8  112.92   12.67
   6   4   8  111.57   10.54
  -6   4  -8  104.70   10.73
  -6   4  -8  104.92   11.98
   8  -5  -8    1.97    5.56
   8  -5  -8   12.31    4.68
   8  -5  -8   -2.87    5.63
   8  -5  -8    4.23    5.29
  -8  -5   8    1.99    3.45
   8   5  -8   -0.45    5.19
  -8   5   8   10.76    5.90
  -8   5   8   11.09    6.08
  -8   5   8    5.12    5.40
   8   5  -8   18.91    6.46
   8   5  -8   -1.91    5.19
   8   5  -8    4.64    4.62
  -8   5   8    4.58    3.49
   7  -5  -8  106.08    8.85
   7  -5  -8   75.25    8.27
  -7  -5   8   92.96    7.52
  -7   5   8   91.49    6.35
   7   5  -8   92.07    7.30
  -7   5   8   88.55    8.94
   7   5  -8   94.09    8.41
   7   5  -8   95.76    9.66
   7   5  -8   98.82    9.63
  -7   5   8  105.59    8.81
   6  -5  -8    8.08    4.76
  -6  -5   8   -0.39    2.90
  -6  -5   8    3.64    2.91
   6  -5  -8   -1.91    3.85
  -6   5   8   -3.30    4.89
   6   5  -8   -4.16    2.82
   6   5  -8    0.55    3.05
  -6   5   8    2.33    2.82
  -6   5   8    0.48    4.32
   6   5  -8   -3.13    3.08
  -6   5   8   -1.29    4.41
   6   5  -8   -2.34    3.96
  -5  -5   8  201.02    9.61
  -5  -5   8  208.06    8.66
   5  -5  -8  214.73   10.25
   5  -5  -8  211.76   10.86
   5  -5  -8  211.83   11.23
  -5  -5   8  204.16    5.75
   5   5  -8  215.26    8.88
  -5   5   8  225.79   10.75
   5   5  -8  196.12   10.61
  -5   5   8  192.28    8.75
   5   5  -8  216.44    5.83
   5   5  -8  199.04    8.04
   5   5  -8  224.36    8.52
   5   5  -8  207.73    8.42
  -5   5   8  201.89   10.08
  -5   5   8  214.66   10.54
  -4  -5   8   -0.21    1.98
   4  -5  -8   10.52    3.59
  -4  -5   8    2.75    2.58
   4  -5  -8    3.54    2.92
   4  -5  -8   -0.24    3.13
  -4   5   8    1.86    3.18
   4   5  -8    4.01    1.93
   4   5  -8    1.19    2.97
   4   5  -8    2.39    2.57
   4   5  -8    3.29    1.88
  -4   5   8    5.69    2.49
  -4   5   8    2.07    2.95
  -4   5   8    2.24    3.53
   4   5  -8    0.25    2.08
   4   5  -8    3.99    1.69
   4   5  -8    3.49    2.31
  -4   5   8   -3.47    2.69
  -3  -5   8  114.58    5.22
   3  -5  -8  113.74    7.19
   3  -5  -8  123.33    7.55
   3  -5  -8  128.18    7.51
  -3  -5   8  107.91    6.38
  -3   5   8  123.19    7.22
   3   5  -8  126.68    5.37
   3   5  -8  115.08    4.65
  -3   5   8  123.85    7.48
  -3   5   8  114.51    6.82
   3   5  -8  116.74    5.12
   3   5  -8  121.84    6.88
  -3   5   8  128.63    6.69
   3   5  -8  121.53    5.96
   3   5  -8  128.42    5.35
  -3   5   8  125.71    6.41
   2  -5  -8   77.37    5.71
  -2  -5   8   60.59    3.90
  -2  -5   8   57.77    4.63
   2  -5  -8   60.82    5.31
   2  -5  -8   52.53    5.24
   2   5  -8   67.40    3.37
   2   5  -8   64.55    2.96
  -2   5   8   60.62    5.47
   2   5  -8   68.05    3.04
  -2   5   8   70.25    5.60
   2   5  -8   66.26    3.71
   2   5  -8   63.74    5.17
  -1  -5   8    9.58    2.62
   1  -5  -8    9.95    2.97
   1  -5  -8   10.55    3.02
   1  -5  -8    9.72    3.03
   1   5  -8    9.19    1.34
  -1   5   8    7.48    2.06
   1   5  -8    7.01    1.85
   1   5  -8    8.27    2.34
  -1   5   8    8.35    2.84
   1   5  -8    9.57    1.44
  -1   5   8   11.63    2.99
   1   5  -8    9.96    1.41
   1   5  -8    7.90    1.59
   0  -5  -8   88.96    6.56
   0  -5  -8   80.02    6.00
   0  -5   8   77.09    5.91
   0  -5  -8   78.09    6.12
   0  -5   8   77.49    5.02
   0   5   8   82.59    4.78
   0   5  -8   80.04    6.01
   0   5   8   80.69    6.06
   0   5  -8   83.94    3.44
   0   5  -8   79.71    4.91
   0   5  -8   81.35    3.81
   0   5  -8   83.18    3.22
   0   5   8   84.42    6.30
   0   5  -8   77.64    3.53
   0   5  -8   86.35    4.56
  -1  -5  -8    8.33    3.43
  -1  -5  -8   10.52    3.59
   1  -5   8   10.77    2.72
  -1  -5  -8    8.28    3.17
   1  -5   8   15.07    3.63
  -1   5  -8   10.97    2.09
   1   5   8    7.47    2.28
  -1   5  -8   10.03    2.19
   1   5   8   10.45    3.45
  -1   5  -8   10.85    1.87
  -1   5  -8    8.90    3.35
  -1   5  -8   14.47    2.36
   1   5   8    2.84    3.16
  -1   5  -8   12.60    1.97
  -1   5  -8   17.80    2.95
   2  -5   8   55.53    5.12
  -2  -5  -8   60.27    6.86
   2  -5   8   37.21    4.98
  -2  -5  -8   52.52    5.23
  -2  -5  -8   43.17    5.50
  -2  -5  -8   47.97    4.15
   2   5   8   56.55    5.93
  -2   5  -8   56.79    4.40
   2   5   8   43.53    4.66
   2   5   8   51.55    6.31
  -2   5  -8   52.66    7.18
  -2   5  -8   42.01    3.63
  -2   5  -8   39.80    5.76
  -2   5  -8   47.46    4.43
  -2   5  -8   48.47    4.17
   3  -5   8   59.29    6.53
  -3  -5  -8   48.52    6.42
  -3  -5  -8   50.14    5.63
  -3  -5  -8   56.37    4.61
  -3   5  -8   59.19    6.10
  -3   5  -8   63.32   10.36
   3   5   8   60.86    7.72
   3   5   8   55.03    5.65
  -3   5  -8   63.12    5.57
   3   5   8   69.55    7.35
  -4  -5  -8   21.19    3.47
   4  -5   8   25.85    4.99
  -4  -5  -8   29.74    5.60
  -4  -5  -8   26.02    5.57
  -4  -5  -8   20.69    4.74
  -4   5  -8   27.44    4.88
   4   5   8   26.15    4.75
   4   5   8   27.77    6.54
  -4   5  -8   22.78    5.26
   4   5   8   24.08    5.60
  -5  -5  -8   94.02   10.01
   5  -5   8   85.15    8.36
  -5  -5  -8   82.99    9.48
  -5  -5  -8   80.89   10.36
   5   5   8   77.12   10.21
  -5   5  -8   63.70    8.14
  -5   5  -8   79.67    9.76
   5   5   8   87.18    9.68
   5   5   8   93.75    9.75
  -6  -5  -8    2.42    3.89
  -6  -5  -8    5.67    6.50
  -6  -5  -8   -4.16    6.89
   6  -5   8   -3.38    4.25
  -6  -5  -8    1.62    6.04
  -6   5  -8   -5.00    6.15
  -6   5  -8  -11.94    6.68
   6   5   8    0.44    6.42
  -6   5  -8   -9.84    5.32
  -6   5  -8    7.37    6.53
   6   5   8   -0.46    7.65
   6   5   8   -0.69    6.66
  -8  -6   8   15.22    4.09
   8  -6  -8   11.35    6.33
   8  -6  -8   11.69    5.97
   8  -6  -8   19.36    6.93
  -8  -6   8   15.79    4.22
   8  -6  -8   14.75    5.01
   8   6  -8   11.21    6.67
   8   6  -8   11.69    6.15
  -8   6   8   16.73    7.04
   8   6  -8    3.81    4.87
  -8   6   8   17.99    6.59
  -8   6   8    7.14    5.91
  -8   6   8    8.86    3.59
   8   6  -8    8.51    6.26
  -7  -6   8   -4.58    4.55
   7  -6  -8   -3.18    4.75
   7  -6  -8   10.16    5.27
   7  -6  -8   -1.84    3.71
  -7  -6   8   -2.05    3.05
   7  -6  -8    7.26    5.29
  -7   6   8   -2.80    4.84
   7   6  -8   -1.63    5.45
  -7   6   8   -4.07    2.90
  -7   6   8   14.98    4.90
   7   6  -8    1.24    3.37
   7   6  -8    0.45    4.60
   7   6  -8    6.77    5.06
  -7   6   8   -0.90    5.12
   6  -6  -8   16.00    5.32
   6  -6  -8   24.46    5.18
  -6  -6   8   24.35    4.18
   6  -6  -8   18.92    5.45
  -6  -6   8   17.02    3.98
  -6   6   8   20.10    3.51
   6   6  -8   19.08    3.65
   6   6  -8   16.81    4.76
  -6   6   8   15.68    5.14
   6   6  -8   27.12    4.64
   6   6  -8   25.93    4.08
  -6   6   8   20.66    6.36
  -6   6   8   18.10    4.77
   5  -6  -8   26.16    5.14
   5  -6  -8   21.83    8.68
  -5  -6   8   20.60    3.53
   5  -6  -8   19.38    5.14
  -5  -6   8   20.07    3.97
  -5   6   8   24.41    5.28
  -5   6   8   21.03    3.85
   5   6  -8   24.50    5.39
  -5   6   8   25.57    5.42
   5   6  -8   16.95    2.80
   5   6  -8   21.85    3.78
   5   6  -8   16.42    2.75
   5   6  -8   25.89    3.24
  -4  -6   8   14.90    3.66
  -4  -6   8   14.13    2.79
   4  -6  -8   12.91    4.25
   4  -6  -8    8.90    3.40
   4  -6  -8   10.26    4.06
   4   6  -8   10.02    1.86
  -4   6   8   13.89    4.79
  -4   6   8   10.84    3.81
  -4   6   8    3.76    3.93
   4   6  -8    8.69    2.21
   4   6  -8   10.57    2.08
   4   6  -8    6.81    2.60
   4   6  -8   10.06    2.56
   4   6  -8    6.49    3.72
  -4   6   8   11.96    3.23
   4   6  -8    6.97    2.99
   3  -6  -8   81.97    6.71
  -3  -6   8   84.89    4.64
  -3  -6   8   76.89    5.72
   3  -6  -8   96.55    7.05
   3   6  -8   85.44    3.30
   3   6  -8   82.56    4.05
   3   6  -8   87.28    6.58
  -3   6   8   90.88    7.36
   3   6  -8   79.49    4.08
   3   6  -8   89.32    4.48
  -3   6   8   90.43    7.68
  -3   6   8   79.04    6.36
   3   6  -8   85.61    4.91
   3   6  -8   78.01    5.34
   2  -6  -8    4.54    3.20
  -2  -6   8    2.18    2.47
   2  -6  -8    6.10    3.26
   2  -6  -8    8.68    3.30
  -2  -6   8    6.40    2.33
   2   6  -8    2.18    2.47
   2   6  -8    5.16    1.92
  -2   6   8    3.67    2.77
   2   6  -8    5.39    1.40
   2   6  -8    4.71    1.67
  -2   6   8    9.80    3.59
   1  -6  -8   99.32    6.85
   1  -6  -8   96.69    6.86
  -1  -6   8   87.53    6.50
  -1  -6   8   89.82    5.50
   1  -6  -8   96.35    6.93
  -1   6   8   88.96    6.82
  -1   6   8   89.41    6.46
  -1   6   8   90.35    5.32
   1   6  -8   92.63    5.60
   1   6  -8   89.38    4.00
   0  -6  -8   -0.36    2.90
   0  -6   8   -0.49    2.49
   0  -6  -8    3.29    3.13
   0  -6   8    3.93    2.44
   0  -6  -8    1.06    3.30
   0   6  -8    3.26    2.17
   0   6   8   -0.10    2.08
   0   6  -8    2.59    1.94
   0   6  -8   -0.46    1.49
   0   6  -8    3.14    1.99
   0   6   8   -6.26    3.26
   0   6  -8    0.92    2.71
   0   6   8    2.84    2.95
  -1  -6  -8  131.71    8.78
  -1  -6  -8  137.70    8.53
   1  -6   8  146.51    8.48
   1  -6   8  132.06    6.64
  -1  -6  -8  135.28    8.86
  -1   6  -8  141.58    7.18
  -1   6  -8  141.20    6.63
  -1   6  -8  136.03    5.99
   1   6   8  145.47    8.64
  -1   6  -8  137.51    5.10
  -1   6  -8  143.14    8.71
   1   6   8  128.28    8.93
   1   6   8  129.19    6.95
  -2  -6  -8   10.88    3.17
   2  -6   8   11.76    3.54
   2  -6   8   17.36    3.84
  -2  -6  -8   15.06    3.11
  -2  -6  -8   17.00    4.91
  -2  -6  -8   15.40    4.93
   2   6   8   16.84    4.73
  -2   6  -8   15.47    4.20
   2   6   8   19.80    4.67
  -2   6  -8   10.46    2.78
  -2   6  -8   12.42    2.16
  -2   6  -8   12.78    2.54
   2   6   8   15.90    3.29
  -2   6  -8   17.79    4.81
  -3  -6  -8  113.58    8.40
   3  -6   8  115.72    7.98
  -3  -6  -8  105.97    7.26
  -3  -6  -8  113.62    6.55
  -3  -6  -8  116.69   13.96
   3   6   8  111.49    7.52
  -3   6  -8  114.54    7.20
  -3   6  -8  108.01    9.02
   3   6   8  115.32   10.17
   3   6   8  121.22    8.82
  -3   6  -8  120.90    7.11
   4  -6   8    8.35    4.13
  -4  -6  -8    1.09    4.35
  -4  -6  -8    3.76    3.44
  -4  -6  -8   -3.47    4.86
  -4  -6  -8    7.88    4.15
   4   6   8   -2.68    4.41
   4   6   8   -0.43    4.70
  -4   6  -8    2.54    5.10
  -4   6  -8    9.77    4.27
   4   6   8   13.03    5.35
  -4   6  -8    8.41    3.68
  -5  -6  -8   65.14    7.53
   5  -6   8   47.70    6.47
  -5  -6  -8   68.42    8.71
  -5  -6  -8   62.14    8.26
  -5  -6  -8   53.58    6.15
   5   6   8   59.62    7.43
   5   6   8   51.79    7.72
  -5   6  -8   45.57    8.53
  -5   6  -8   58.93    6.67
   5   6   8   51.02    7.93
  -5   6  -8   59.66    8.45
  -5   6  -8   45.14    7.85
  -7  -7   8   14.28    3.94
   7  -7  -8   25.85    6.53
   7  -7  -8   18.21    5.03
   7  -7  -8   19.46    5.71
   7  -7  -8   12.38    6.70
  -7   7   8   25.21    4.02
  -7   7   8   19.78    6.24
  -7   7   8   23.80    6.58
   7   7  -8   11.45    6.18
   7   7  -8   25.27    4.09
   7   7  -8   18.40    5.58
   7   7  -8   33.65    6.70
  -7   7   8   24.17    6.57
  -6  -7   8   -1.24    3.46
  -6  -7   8    2.57    3.39
   6  -7  -8    0.73    5.02
   6  -7  -8    0.16    4.46
   6  -7  -8   -2.80    4.62
  -6   7   8    1.02    2.83
  -6   7   8   -9.94    4.16
   6   7  -8   -1.05    3.74
   6   7  -8   -1.43    4.67
  -6   7   8    3.09    4.74
   6   7  -8    4.30    4.65
  -6   7   8   -1.47    4.61
  -5  -7   8   43.74    5.18
   5  -7  -8   37.47    6.80
   5  -7  -8   44.09    5.94
   5  -7  -8   60.07    7.93
  -5  -7   8   48.43    5.85
   5   7  -8   54.36    5.17
  -5   7   8   48.41    6.30
  -5   7   8   43.72    5.82
  -5   7   8   48.28    5.17
  -5   7   8   56.61   10.14
   5   7  -8   48.20    6.40
   5   7  -8   43.63    5.90
   5   7  -8   55.95    4.12
   4  -7  -8   42.89    5.78
   4  -7  -8   42.01    6.43
  -4  -7   8   44.85    5.26
  -4  -7   8   46.37    4.62
  -4   7   8   45.72    4.76
   4   7  -8   43.47    5.81
  -4   7   8   38.98    9.31
  -4   7   8   43.16    6.24
   4   7  -8   45.99    2.70
   4   7  -8   45.73    5.19
  -3  -7   8   19.63    2.84
   3  -7  -8   21.05    4.55
   3  -7  -8   17.47    4.51
   3  -7  -8   16.53    4.29
  -3  -7   8   21.41    3.71
   3   7  -8   18.77    2.63
   3   7  -8   23.48    2.84
  -3   7   8   20.53    4.64
  -3   7   8   21.40    5.04
   3   7  -8   18.01    3.93
  -3   7   8   21.19    5.06
   3   7  -8   17.13    3.18
   3   7  -8   22.11    2.51
   2  -7  -8  147.53    9.11
  -2  -7   8  144.42    7.48
  -2  -7   8  149.11    6.03
   2  -7  -8  158.96    9.00
   2  -7  -8  147.85    8.91
   2   7  -8  144.92    6.97
   2   7  -8  145.96    6.48
  -2   7   8  142.51    8.86
   2   7  -8  149.60    7.54
  -2   7   8  149.01    8.92
   2   7  -8  152.35    5.11
   2   7  -8  147.80    4.90
  -1  -7   8    2.54    2.82
   1  -7  -8    2.74    4.19
  -1  -7   8   -0.21    2.37
   1  -7  -8    5.23    3.69
   1  -7  -8    3.20    3.53
  -1   7   8    4.52    3.33
   1   7  -8    4.11    2.84
  -1   7   8   -0.46    3.73
  -1   7   8    6.75    2.59
   1   7  -8    2.64    2.37
   1   7  -8    2.77    1.58
   1   7  -8    4.91    1.43
   1   7  -8    1.75    1.96
   0  -7   8  207.86   10.00
   0  -7  -8  212.80   10.47
   0  -7  -8  207.21   10.77
   0  -7  -8  219.38   10.65
   0  -7   8  213.12    8.57
   0   7  -8  212.87    7.62
   0   7  -8  215.46   10.38
   0   7  -8  222.71    7.26
   0   7  -8  220.00    8.32
   0   7   8  221.43    9.16
   0   7   8  206.33   10.79
   0   7  -8  218.62    6.98
   0   7   8  202.83   10.81
  -1  -7  -8    1.15    3.95
  -1  -7  -8   -6.43    4.06
   1  -7   8    3.02    2.97
   1  -7   8    4.69    3.10
   1   7   8    5.84    4.62
   1   7   8    0.85    6.24
  -1   7  -8    0.45    4.08
  -1   7  -8    5.08    3.72
   1   7   8    4.86    2.97
  -1   7  -8    4.45    1.30
  -1   7  -8    4.99    1.97
  -1   7  -8    2.49    2.31
  -2  -7  -8  123.14    8.85
  -2  -7  -8  135.58    7.27
  -2  -7  -8  130.47    7.32
  -2  -7  -8  134.72   10.27
   2  -7   8  150.47    9.10
  -2   7  -8  131.81   10.99
  -2   7  -8  128.31    5.75
   2   7   8  139.25    8.06
  -2   7  -8  147.54    7.10
   2   7   8  130.20    9.11
  -2   7  -8  133.38    5.51
   2   7   8  128.63   10.20
  -3  -7  -8   17.47    3.82
   3  -7   8   14.57    4.88
  -3  -7  -8   14.16    5.49
  -3  -7  -8   25.61    5.20
  -3   7  -8   14.01    5.29
  -3   7  -8   14.99    3.60
   3   7   8   21.53    5.31
   3   7   8   21.39    5.42
   3   7   8   18.35    5.08
  -3   7  -8   15.40    4.25
  -3   7  -8   17.94    5.67
  -4  -7  -8   22.20    4.93
  -4  -7  -8   33.08    6.95
  -4  -7  -8   24.97    4.93
  -4  -7  -8   39.98    6.70
   4  -7   8   24.83    5.39
   4   7   8   26.94    6.72
  -4   7  -8   22.66    5.70
  -4   7  -8   24.61    4.27
  -4   7  -8   25.99    5.92
   4   7   8   26.26    9.77
   4   7   8   34.14    6.68
  -4   7  -8   22.80    6.17
  -5  -7  -8   22.94    7.56
  -5  -7  -8   11.19    4.13
  -5  -7  -8   31.51    6.83
   5  -7   8   10.41    5.09
  -5   7  -8   27.49    6.61
   5   7   8    2.64    7.21
  -5   7  -8    9.00    5.25
  -5   7  -8   21.27    6.74
  -5   7  -8   11.91    6.83
   5   7   8   19.72    6.66
   5   7   8   10.59    7.06
  -7  -8   8   -6.43    3.59
   7  -8  -8    5.59    4.74
   7  -8  -8    9.55    6.79
   7  -8  -8    2.82    6.24
   7  -8  -8    7.40    6.16
  -7  -8   8    0.58    3.45
   7   8  -8    6.31    3.51
   7   8  -8    4.76    6.30
  -7   8   8  -12.65    6.00
  -7   8   8    4.11    6.45
  -7   8   8    2.10    3.34
   7   8  -8   -2.75    5.74
   6  -8  -8   69.29    7.75
   6  -8  -8   89.04    9.37
   6  -8  -8   82.81    8.75
   6  -8  -8   94.05    9.99
  -6  -8   8   74.67    6.80
  -6  -8   8   73.62    7.62
  -6   8   8   66.11    8.06
   6   8  -8   80.40    9.54
  -6   8   8   68.60    7.99
  -6   8   8   78.30    8.59
   6   8  -8   65.98    5.83
   6   8  -8   65.13    7.72
   6   8  -8   99.25   11.07
  -6   8   8   80.59    6.16
   5  -8  -8   11.95    5.22
  -5  -8   8    2.42    3.71
   5  -8  -8    1.16    5.77
  -5  -8   8    3.13    3.16
   5   8  -8   -0.84    3.12
  -5   8   8   -0.65    4.92
  -5   8   8    0.38    2.88
  -5   8   8    0.17    4.34
   5   8  -8   -5.46    4.50
   5   8  -8   13.60    4.45
   5   8  -8    3.00    1.95
  -5   8   8   -1.55    4.10
   4  -8  -8   68.95    8.37
   4  -8  -8   88.84    7.61
   4  -8  -8   75.82    8.99
  -4  -8   8   82.96    6.44
  -4  -8   8   92.92    6.14
  -4   8   8   96.58    8.10
  -4   8   8   80.13    8.36
   4   8  -8   73.72    9.19
  -4   8   8   88.10    6.01
   4   8  -8   83.14    6.67
  -4   8   8   89.26    8.54
   4   8  -8   85.04    5.87
  -3  -8   8    6.26    3.01
   3  -8  -8    9.30    5.10
   3  -8  -8   11.01    4.42
   3  -8  -8    9.85    4.34
  -3  -8   8    6.50    2.68
   3   8  -8    9.63    4.03
  -3   8   8    3.50    4.06
  -3   8   8    9.22    4.64
   3   8  -8    4.59    2.31
   3   8  -8    9.32    2.94
   3   8  -8    5.43    1.79
  -3   8   8   12.30    4.18
   2  -8  -8   30.83    5.64
  -2  -8   8   31.07    3.29
   2  -8  -8   30.59    5.40
  -2  -8   8   27.33    4.04
  -2   8   8   18.61    5.34
   2   8  -8   21.43    3.63
   2   8  -8   20.15    3.13
   2   8  -8   22.20    2.00
   2   8  -8   27.10    3.96
   2   8  -8   23.25    3.32
  -2   8   8   16.93    5.06
   1  -8  -8   39.72    5.67
   1  -8  -8   29.75    5.27
  -1  -8   8   40.06    4.61
  -1  -8   8   35.84    4.86
  -1   8   8   34.24    5.96
   1   8  -8   35.45    4.61
   1   8  -8   48.35    5.30
   1   8  -8   34.16    4.34
   1   8  -8   37.55    4.79
  -1   8   8   34.20    6.65
   1   8  -8   32.36    2.25
  -1   8   8   36.21    4.32
   0  -8  -8   -2.57    4.70
   0  -8   8   -2.15    2.78
   0  -8  -8    2.31    5.09
   0  -8  -8    4.05    4.56
   0  -8   8   -4.40    2.71
   0   8  -8   -1.40    3.18
   0   8   8    1.08    3.01
   0   8  -8   -2.63    3.43
   0   8  -8    3.96    1.83
   0   8  -8    1.64    2.28
   0   8   8    2.37    4.39
   0   8   8   -0.66    4.19
   0   8  -8   -0.59    2.24
   1  -8   8   24.33    4.11
  -1  -8  -8   21.29    5.48
  -1  -8  -8   26.06    4.78
   1  -8   8   16.11    4.04
  -1   8  -8   18.71    2.59
  -1   8  -8   18.67    3.80
  -1   8  -8   16.24    5.60
   1   8   8   19.40    5.05
   1   8   8   20.32    7.68
   1   8   8   21.96    4.25
  -1   8  -8   21.52    5.39
  -2  -8  -8   -2.12    4.26
  -2  -8  -8    5.35    3.19
   2  -8   8    0.94    3.72
  -2  -8  -8    2.00    3.11
   2   8   8    9.94    5.16
  -2   8  -8    7.63    1.80
  -2   8  -8    9.50    4.98
  -2   8  -8    1.63    4.35
  -2   8  -8    8.44    3.35
   2   8   8    3.39    4.68
   2   8   8    9.90    4.88
  -3  -8  -8   20.78    5.80
  -3  -8  -8   18.76    4.17
  -3  -8  -8   19.16    5.39
   3  -8   8   11.61    4.65
  -3  -8  -8   18.24    3.85
   3   8   8   14.37    5.74
   3   8   8   14.70    6.17
  -3   8  -8   18.73    5.82
  -3   8  -8    7.44    4.39
  -3   8  -8   18.31    3.82
  -3   8  -8   26.01    5.94
   3   8   8    7.00    5.49
   4  -8   8   31.94    5.79
  -4  -8  -8   36.90    6.91
  -4  -8  -8   48.20    7.35
  -4  -8  -8   24.47    4.75
  -4   8  -8   32.72    7.34
  -4   8  -8   34.18    7.43
  -4   8  -8   33.32    7.10
  -4   8  -8   32.79    4.49
   4   8   8   23.03    7.17
   4   8   8   28.50    7.33
   4   8   8   24.53    6.71
   6  -9  -8   -2.10    5.37
  -6  -9   8   -3.74    3.81
   6  -9  -8    1.63    4.27
   6  -9  -8    6.96    6.53
  -6  -9   8   -4.12    3.48
  -6   9   8   -4.51    6.14
  -6   9   8    0.31    3.33
  -6   9   8    3.97    6.30
   6   9  -8   -8.51    5.59
  -6   9   8    0.90    5.66
   6   9  -8    7.50    5.87
   6   9  -8    1.34    2.94
   5  -9  -8  117.03   10.81
   5  -9  -8  109.11    9.62
   5  -9  -8  112.40    9.57
  -5  -9   8  116.81    9.46
   5  -9  -8  118.67    9.80
   5   9  -8  119.30   10.51
   5   9  -8  132.12   10.61
  -5   9   8  111.29   10.82
  -5   9   8  115.73   10.41
  -5   9   8  115.58    7.19
  -5   9   8  110.71   10.32
   4  -9  -8    6.72    5.23
  -4  -9   8   -0.62    2.99
   4  -9  -8    1.78    4.39
  -4  -9   8    0.98    3.41
   4  -9  -8    7.89    7.28
  -4   9   8    4.33    4.80
   4   9  -8    5.67    4.27
  -4   9   8    0.89    4.62
  -4   9   8    0.86    2.99
   4   9  -8    7.96    4.25
   4   9  -8    5.16    3.56
  -4   9   8   -4.61    4.38
  -3  -9   8  111.09    6.27
   3  -9  -8  113.66    9.80
   3  -9  -8  100.24    8.49
  -3  -9   8  104.69    7.49
   3  -9  -8   94.12   10.64
   3   9  -8  106.75    7.26
   3   9  -8   96.73    5.73
  -3   9   8  108.79    8.89
  -3   9   8  111.13    9.49
   3   9  -8  106.21    9.09
  -3   9   8  112.37    9.52
   3   9  -8  107.39    7.13
   2  -9  -8   31.86    5.54
  -2  -9   8   37.13    3.94
  -2  -9   8   48.71    5.76
   2  -9  -8   37.47    6.33
   2  -9  -8   33.72    5.89
   2   9  -8   37.30    4.09
  -2   9   8   40.88    5.83
   2   9  -8   23.03    3.99
  -2   9   8   39.14    6.08
   2   9  -8   46.97    6.16
   2   9  -8   33.15    4.27
   1  -9  -8   14.75    4.35
   1  -9  -8   11.33    5.26
  -1  -9   8   10.04    3.83
  -1  -9   8   21.61    3.96
   1  -9  -8   10.98    4.64
  -1   9   8   13.99    4.59
   1   9  -8   11.45    4.10
  -1   9   8   12.18    4.92
   1   9  -8   14.44    3.25
  -1   9   8   20.54    5.22
   1   9  -8   16.99    3.50
   1   9  -8   14.76    3.63
   0  -9   8   40.50    4.48
   0  -9   8   32.35    5.29
   0  -9  -8   31.84    6.60
   0  -9  -8   22.49    4.86
   0   9  -8   34.81    3.74
   0   9  -8   28.67    5.61
   0   9   8   39.83    6.18
   0   9  -8   43.02    5.16
   0   9   8   32.63    5.79
   0   9  -8   36.24    6.21
   0   9   8   31.78    5.90
  -1  -9  -8    7.02    8.82
   1  -9   8   12.89    4.45
  -1  -9  -8    8.78    4.64
   1   9   8   15.29    5.27
  -1   9  -8   12.89    5.10
   1   9   8   10.92    5.28
   1   9   8   19.06    5.48
  -1   9  -8   18.78    3.95
  -1   9  -8   20.64    8.42
   2  -9   8   -4.46    3.77
  -2  -9  -8   15.43    5.38
  -2  -9  -8   10.17    4.87
  -2  -9  -8   10.16    3.43
  -2  -9  -8   10.31    3.54
  -2   9  -8   -1.41    5.16
   2   9   8    4.41    8.99
   2   9   8    7.73    5.36
  -2   9  -8    5.27    5.12
   2   9   8   -0.76    5.14
   3  -9   8   50.72    6.73
  -3  -9  -8   39.57    7.73
  -3  -9  -8   40.52    6.66
  -3  -9  -8   50.76    5.85
   3   9   8   50.80    7.13
   3   9   8   43.75    7.85
  -3   9  -8   51.45    8.28
   3   9   8   44.91    7.85
  -3   9  -8   50.37    7.08
   5 -10  -8    4.94    4.87
   5 -10  -8    7.72    6.24
   5 -10  -8   10.56    5.64
  -5 -10   8   15.33    4.01
   5 -10  -8   14.60    7.05
   5  10  -8   13.66    6.56
  -5  10   8   18.45    6.31
  -5  10   8   14.49    6.35
  -5  10   8    3.65    6.05
   5  10  -8    7.03    6.26
  -5  10   8   10.34    3.79
   4 -10  -8   12.88    4.73
   4 -10  -8    3.17    5.22
   4 -10  -8   23.43    5.60
   4 -10  -8   15.81    6.20
  -4 -10   8   18.07    4.94
  -4 -10   8   14.70    4.01
  -4  10   8   25.60    4.16
  -4  10   8   22.20    6.09
   4  10  -8    4.42    5.27
  -4  10   8   26.03    6.54
   4  10  -8   23.73    6.47
  -4  10   8   40.77    7.57
  -3 -10   8   44.59    5.54
   3 -10  -8   41.31    6.54
  -3 -10   8   40.27    4.59
   3 -10  -8   42.52    6.27
   3 -10  -8   38.39    7.28
   3  10  -8   31.48    6.07
  -3  10   8   55.04    7.18
  -3  10   8   35.54    6.49
  -3  10   8   54.19    6.79
   3  10  -8   23.74    7.18
   3  10  -8   37.78    4.94
  -2 -10   8    3.40    3.59
   2 -10  -8   10.58    5.08
   2 -10  -8   16.91    4.74
  -2  10   8   15.61    5.23
   2  10  -8    9.53    4.64
   2  10  -8    3.20    3.52
   2  10  -8   11.53    4.17
   2  10  -8   15.01    4.79
  -2  10   8   14.33    5.07
  -1 -10   8   80.43    6.65
   1 -10  -8   89.84    8.20
  -1 -10   8   82.63    7.38
  -1  10   8   72.13    8.19
  -1  10   8   68.08    8.16
   1  10  -8   95.93    7.86
  -1  10   8   66.48    8.53
   1  10  -8   64.74    6.54
   1  10  -8   80.51    7.89
   1  10  -8   70.32    6.59
   0 -10  -8   13.09    7.90
   0 -10   8    5.60    3.92
   0 -10   8    9.18    4.01
   0 -10  -8    0.19    4.44
   0  10  -8    3.05    5.21
   0  10   8    1.43    4.84
   0  10  -8    7.63    4.15
   0  10   8    3.19    5.23
   0  10   8    2.86    4.37
  -1 -10  -8   70.38    8.86
   1 -10   8   48.20    6.30
  -1 -10  -8   53.57    7.26
   1  10   8   42.24    6.46
  -1  10  -8   57.32    6.33
  -1  10  -8   61.53    7.03
  -1  10  -8   73.29    9.12
   1  10   8   60.02    7.90
   1  10   8   45.06    7.22
   2 -10   8    1.26    4.03
  -2 -10  -8    3.80    6.39
  -2 -10  -8    1.20    3.61
  -2 -10  -8   22.49    5.80
  -2  10  -8    2.85    5.62
   2  10   8    8.14    5.92
   2  10   8    5.29    5.71
   2  10   8   12.54    5.73
  -2  10  -8    4.13    5.81
   3 -11  -8   17.05    6.05
   3 -11  -8    9.54    7.14
  -3 -11   8    8.04    4.16
  -3 -11   8    5.81    3.95
   3 -11  -8    3.81    4.88
  -3  11   8    0.40    6.09
   3  11  -8   17.83    5.89
  -3  11   8    2.86    6.01
   3  11  -8   11.59    5.96
  -3  11   8   -1.18    6.17
   2 -11  -8   98.41    9.83
  -2 -11   8   93.07    7.86
   2 -11  -8  106.36   11.06
   2 -11  -8   90.34    8.75
  -2  11   8  101.34   10.13
  -2  11   8   93.10   10.18
   2  11  -8   92.46   12.31
   2  11  -8  107.91   10.35
  -2  11   8  100.59   10.92
  -1 -11   8   -5.23    4.01
   1 -11  -8    3.06    4.46
  -1 -11   8    9.54    4.17
   1 -11  -8    5.88    6.24
   1 -11  -8    6.40    5.36
  -1  11   8    0.09    5.53
   1  11  -8    4.28    6.18
   1  11  -8   -2.57    5.93
  -1  11   8   -0.17    5.82
   1  11  -8    0.27    5.91
  -1  11   8  -11.88    5.13
   0 -11  -8  155.28   11.22
   0 -11  -8  190.79   13.39
   0 -11  -8  160.50   10.03
   0 -11   8  158.75   10.34
   0  11  -8  145.53   11.87
   0  11   8  193.89   12.44
   0  11   8  171.71   11.84
   0  11   8  167.46   12.67
   0  11  -8  149.33   10.87
  -1 -11  -8    4.46    6.18
   1 -11   8    3.16    4.55
  -1 -11  -8    4.62    6.81
  -1 -11  -8   -0.60    4.35
  -1  11  -8   11.55    6.04
   1  11   8   -1.56    5.98
  -1  11  -8   10.14    6.57
   1  11   8  -10.86    6.29
   1  11   8    2.22    6.15
   9   0  -9    1.67    6.21
  -9   0   9    0.45    4.39
  -9   0   9   -0.83    5.19
   9   0  -9   -1.16    6.38
  -8   0   9    2.00    3.21
  -8   0   9   -2.04    4.59
   8   0  -9    0.98    4.73
  -8   0   9   -1.90    4.86
   8   0  -9    0.70    4.81
   8   0  -9   -2.38    4.86
  -7   0   9   56.71    5.27
   7   0  -9   40.72    6.00
   7   0  -9   38.61    5.36
  -7   0   9   42.31    5.08
  -7   0   9   32.41    4.74
  -6   0   9    3.40    2.70
   6   0  -9   -2.93    4.67
   6   0  -9   -2.08    4.15
   6   0  -9   -5.31    3.49
  -6   0   9   -3.22    3.22
   6   0  -9    0.75    3.94
   6   0  -9   -1.46    3.42
  -6   0   9   -0.84    2.43
  -6   0   9   -0.39    4.41
   5   0  -9   91.54    7.54
  -5   0   9   90.20    6.11
   5   0  -9   82.81    6.33
  -5   0   9   89.92    4.84
  -5   0   9   77.45    5.72
   5   0  -9   73.30    6.51
  -5   0   9   80.57    7.68
   5   0  -9   82.23    7.46
  -5   0   9   88.67    5.77
   5   0  -9   92.89    6.21
  -4   0   9   -1.37    2.21
   4   0  -9   -6.40    3.27
   4   0  -9    2.87    3.35
  -4   0   9    1.09    2.55
   4   0  -9    2.53    2.46
  -4   0   9    2.56    1.65
  -4   0   9   -0.87    2.10
   4   0  -9    0.37    2.20
   4   0  -9    3.25    3.17
  -4   0   9   -2.00    1.58
  -3   0   9  160.03    5.82
   3   0  -9  154.46    7.20
   3   0  -9  138.12    7.83
  -3   0   9  151.10    5.78
   3   0  -9  158.71    8.04
  -3   0   9  158.48    7.43
   3   0  -9  161.39    7.55
   3   0  -9  149.38    7.04
   2   0  -9    1.26    2.15
   2   0  -9   -3.00    2.36
   2   0  -9    1.97    2.23
  -2   0   9    1.83    1.89
  -2   0   9    2.00    2.19
  -2   0   9    1.53    1.50
  -2   0   9   -0.62    1.47
   2   0  -9   -0.97    1.77
  -1   0   9  213.77    6.91
   1   0  -9  214.97    8.57
  -1   0   9  209.61    8.61
  -1   0   9  220.83    7.25
   1   0  -9  219.99    8.65
   1   0  -9  214.60    9.09
  -1   0   9  194.72    8.70
   0   0   9    2.45    1.65
   0   0  -9   -0.61    2.64
   0   0  -9   -2.42    1.85
   0   0  -9   -2.33    2.28
   0   0   9    1.92    2.19
   0   0   9    1.22    1.59
   0   0  -9    3.14    2.16
   0   0   9    2.15    2.82
  -1   0  -9  123.10    6.71
  -1   0  -9  117.20    6.55
   1   0   9  119.11    5.32
  -1   0  -9  121.99    7.30
  -1   0  -9  121.60    6.83
   1   0   9  110.23    5.30
  -2   0  -9    3.93    4.06
  -2   0  -9   -0.07    2.53
  -2   0  -9   -0.07    2.91
   2   0   9    0.18    2.21
   2   0   9   -3.09    2.84
  -2   0  -9    2.44    3.30
  -2   0  -9    1.03    2.36
   2   0   9    2.45    2.44
  -3   0  -9   76.03    7.61
  -3   0  -9   62.77    7.01
  -3   0  -9   69.83    7.93
   3   0   9   75.99    5.48
  -3   0  -9   69.06    6.17
   3   0   9   61.47    6.59
  -3   0  -9   64.66    6.90
   4   0   9   -1.71    3.35
  -4   0  -9   -2.61    3.78
   4   0   9   -3.70    3.86
  -4   0  -9   -4.20    3.75
  -5   0  -9   -0.01    4.97
   5   0   9  -10.64    5.36
  -5   0  -9    3.51    4.93
   5   0   9   -0.38    5.09
  -5   0  -9   -0.05    4.92
  -6   0  -9    0.99    6.54
  -6   0  -9    2.12    6.26
  -6   0  -9    0.83    6.23
   6   0   9    1.85    5.67
  -9  -1   9   60.99    6.33
   9  -1  -9   89.24   11.57
  -9  -1   9   54.51    6.98
   9  -1  -9   57.52    8.28
   9  -1  -9   78.73    8.87
   9   1  -9   59.71    8.27
   9   1  -9   57.23    7.59
   9   1  -9   56.92    8.25
   8  -1  -9    8.01    5.39
  -8  -1   9    3.43    3.37
   8  -1  -9    4.16    5.01
  -8  -1   9   -0.91    3.22
   8  -1  -9   -3.05    4.60
   8   1  -9   -1.62    4.34
   8   1  -9    6.31    5.12
  -8   1   9   10.50    5.56
  -8   1   9   -1.98    3.11
   8   1  -9    7.24    5.34
   7  -1  -9   92.21    8.74
  -7  -1   9   89.62    7.56
   7  -1  -9   97.05    8.25
  -7  -1   9   89.83    6.68
  -7  -1   9   90.12    5.32
  -7  -1   9  104.76    7.27
   7  -1  -9   99.69    8.25
  -7   1   9   90.44    6.64
  -7   1   9   93.44    7.98
   7   1  -9   90.24    7.58
   7   1  -9   90.33    8.81
  -7   1   9   98.09    7.50
   7   1  -9   81.46    8.95
   6  -1  -9   55.61    9.08
  -6  -1   9   52.33    5.60
  -6  -1   9   51.86    3.73
   6  -1  -9   55.82    6.60
  -6  -1   9   60.85    4.98
  -6  -1   9   54.60    5.47
   6  -1  -9   53.56    6.67
  -6   1   9   58.65    6.70
   6   1  -9   45.93    5.50
  -6   1   9   51.37    4.93
   6   1  -9   59.95    9.48
  -6   1   9   51.92    6.11
  -6   1   9   65.29    5.14
   6   1  -9   60.28    6.79
   6   1  -9   55.35    6.34
   5  -1  -9   39.34    4.98
   5  -1  -9   44.33    5.49
   5  -1  -9   51.74    5.84
   5  -1  -9   39.36    5.43
  -5  -1   9   42.70    4.68
  -5  -1   9   47.31    4.81
  -5  -1   9   47.40    2.99
  -5   1   9   48.12    5.75
  -5   1   9   39.04    5.23
  -5   1   9   42.95    4.36
   5   1  -9   41.53    5.04
   5   1  -9   47.12    5.92
   5   1  -9   40.11    4.87
  -5   1   9   43.97    5.08
   5   1  -9   56.05    6.06
  -5   1   9   36.01    4.43
   5   1  -9   33.21    4.08
  -4  -1   9  138.79    7.31
  -4  -1   9  156.46    6.66
   4  -1  -9  164.00    7.84
   4  -1  -9  152.77    8.30
   4  -1  -9  162.09    8.58
   4  -1  -9  143.01    7.69
  -4  -1   9  159.72    5.37
  -4   1   9  155.04    7.35
   4   1  -9  141.48    7.04
   4   1  -9  155.93    7.53
  -4   1   9  150.37    6.61
   4   1  -9  143.92    7.17
  -4   1   9  152.38    7.47
  -4   1   9  145.79    8.00
  -4   1   9  164.32    7.12
   4   1  -9  155.67    7.41
   4   1  -9  138.08    8.10
   3  -1  -9    4.97    3.00
  -3  -1   9   10.50    2.21
  -3  -1   9    9.74    2.51
   3  -1  -9    6.80    2.48
   3  -1  -9    5.78    2.50
  -3  -1   9   11.55    2.76
   3  -1  -9   11.92    3.05
  -3   1   9    8.65    2.62
  -3   1   9    4.00    2.42
  -3   1   9    8.47    1.11
   3   1  -9    7.90    2.30
   3   1  -9    7.83    2.39
  -3   1   9    4.24    2.03
   3   1  -9    7.92    2.72
  -3   1   9    9.73    2.47
   3   1  -9    4.90    2.87
   3   1  -9   12.68    3.35
   2  -1  -9  123.72    6.46
  -2  -1   9  127.75    6.44
   2  -1  -9  129.19    7.03
   2  -1  -9  128.74    6.58
  -2  -1   9  119.95    3.95
  -2  -1   9  149.22    7.09
  -2  -1   9  137.07    5.77
   2  -1  -9  128.22    6.95
  -2   1   9  128.11    6.69
   2   1  -9  136.72    6.19
   2   1  -9  132.28    6.25
   2   1  -9  125.31    6.79
   2   1  -9  129.51    6.14
  -2   1   9  127.71    6.50
   2   1  -9  117.19    7.09
  -2   1   9  132.59    5.82
   2   1  -9  128.12    6.59
  -2   1   9  130.01    5.85
  -1  -1   9   23.42    3.54
   1  -1  -9   34.23    3.96
   1  -1  -9   29.41    3.80
  -1  -1   9   37.44    4.56
   1  -1  -9   26.02    3.38
  -1  -1   9   25.81    3.22
   1  -1  -9   28.81    3.75
  -1   1   9   31.37    3.88
   1   1  -9   29.61    3.52
   1   1  -9   29.86    3.76
   1   1  -9   25.37    3.21
   1   1  -9   25.84    3.55
  -1   1   9   30.06    3.56
  -1   1   9   30.66    3.82
  -1   1   9   26.45    2.89
   0  -1  -9  126.81    6.53
   0  -1  -9  116.84    6.58
   0  -1  -9  115.78    6.95
   0  -1   9  118.07    5.68
   0  -1   9  103.43    5.96
   0  -1  -9  114.79    6.45
   0   1  -9  109.12    5.87
   0   1  -9  108.15    6.43
   0   1   9  128.98    5.97
   0   1   9  114.87    6.54
   0   1  -9  118.02    6.32
   0   1  -9  117.80    5.96
   0   1   9  117.60    5.62
  -1  -1  -9   65.88    5.55
  -1  -1  -9   58.17    5.32
  -1  -1  -9   74.83    6.81
   1  -1   9   64.21    4.70
   1  -1   9   56.19    4.69
  -1  -1  -9   74.20    5.53
  -1   1  -9   66.17    5.03
  -1   1  -9   69.81    5.26
  -1   1  -9   69.99    5.43
   1   1   9   73.17    5.60
   1   1   9   69.68    4.93
   1   1   9   73.22    4.91
  -1   1  -9   64.73    5.57
   2  -1   9   35.69    3.19
  -2  -1  -9   40.88    5.39
  -2  -1  -9   40.25    5.40
   2  -1   9   29.63    2.83
  -2  -1  -9   32.81    5.04
  -2  -1  -9   40.56    5.41
  -2  -1  -9   52.83    5.52
   2  -1   9   37.85    4.46
  -2   1  -9   29.79    3.78
  -2   1  -9   40.63    4.89
   2   1   9   35.58    4.05
  -2   1  -9   36.97    4.25
   2   1   9   44.19    5.12
  -2   1  -9   34.64    5.57
  -2   1  -9   34.26    4.61
   2   1   9   31.82    4.33
  -3  -1  -9   90.35    7.71
   3  -1   9   73.70    6.91
  -3  -1  -9   71.28    7.74
   3  -1   9   69.33    6.71
   3  -1   9   83.72    4.74
  -3  -1  -9   74.36   10.09
  -3   1  -9   78.86    5.87
  -3   1  -9   72.82    8.38
   3   1   9   80.95    8.20
  -3   1  -9   73.82    6.91
  -3   1  -9   87.09    7.29
   3   1   9   73.81    6.75
   3   1   9   79.35    6.30
  -3   1  -9   89.22    9.07
   4  -1   9    2.05    2.78
  -4  -1  -9    9.19    4.37
  -4  -1  -9    1.29    3.93
   4  -1   9    9.38    4.46
  -4  -1  -9   10.65    4.30
   4   1   9    1.63    4.35
   4   1   9   -0.42    4.45
  -4   1  -9    0.93    4.02
  -4   1  -9   -4.33    4.44
  -4   1  -9    7.28    3.74
  -5  -1  -9   62.74    8.31
  -5  -1  -9   49.27    6.85
   5  -1   9   55.98    6.53
  -5  -1  -9   37.72    6.30
  -5   1  -9   46.14    6.89
  -5   1  -9   42.57    6.29
   5   1   9   46.42    7.28
  -5   1  -9   43.14    6.86
   5   1   9   44.02    6.87
  -6  -1  -9    5.29    6.48
  -6  -1  -9   -3.16    6.38
  -6  -1  -9   13.24    6.85
  -6   1  -9   18.20    6.43
   6   1   9    9.70    6.32
  -6   1  -9   10.66    6.35
  -6   1  -9   -8.29    6.56
   8  -2  -9   98.05    9.62
   8  -2  -9   85.23    9.83
   8  -2  -9   82.33    9.59
  -8  -2   9   96.79    7.30
  -8  -2   9   99.79    7.64
  -8   2   9   99.91    7.59
   8   2  -9   85.36    8.86
   8   2  -9   93.78    9.32
  -8   2   9   97.53    8.79
  -8   2   9   97.62   10.96
   8   2  -9  113.79   10.52
   7  -2  -9   -0.85    4.00
   7  -2  -9    4.84    4.14
  -7  -2   9   -2.76    2.89
  -7  -2   9    0.16    2.87
   7  -2  -9    3.23    4.28
   7   2  -9    0.56    3.42
   7   2  -9    6.45    4.58
  -7   2   9   -0.95    4.31
  -7   2   9   -4.73    4.04
   7   2  -9    1.65    4.57
  -7   2   9    0.67    2.67
  -6  -2   9   79.79    5.90
   6  -2  -9   83.69    8.08
  -6  -2   9   96.68    5.95
  -6  -2   9   85.26    6.15
   6  -2  -9   88.40    9.51
   6  -2  -9   86.92    8.36
  -6   2   9   77.24    5.82
  -6   2   9   96.02    6.93
   6   2  -9   67.67    9.76
   6   2  -9   96.95    7.01
   6   2  -9   78.35    7.00
  -6   2   9   79.84    7.23
  -5  -2   9   -0.34    2.58
   5  -2  -9   -5.64    3.78
   5  -2  -9    1.47    3.41
  -5  -2   9    3.27    2.43
  -5  -2   9   -1.40    2.33
   5  -2  -9   -2.59    4.72
   5  -2  -9    3.91    3.37
  -5  -2   9    0.47    2.39
  -5   2   9    2.83    2.65
   5   2  -9    2.92    2.92
   5   2  -9    5.27    3.53
  -5   2   9    0.05    2.34
   5   2  -9   -2.35    2.51
  -5   2   9   11.14    4.10
  -5   2   9    0.07    2.77
  -5   2   9   -4.12    3.29
   5   2  -9    0.59    3.65
   5   2  -9    1.73    2.59
   4  -2  -9   15.99    3.89
  -4  -2   9   16.41    2.68
  -4  -2   9   18.98    3.51
   4  -2  -9   14.64    3.35
   4  -2  -9   27.48    4.71
   4  -2  -9   19.44    3.47
  -4  -2   9   16.95    2.56
  -4   2   9   16.43    3.19
   4   2  -9   18.14    2.91
   4   2  -9   16.61    3.43
   4   2  -9   17.82    3.15
  -4   2   9   17.26    2.77
  -4   2   9   15.04    2.94
   4   2  -9   14.35    2.82
   4   2  -9   18.88    4.02
  -4   2   9   17.67    3.48
  -4   2   9    6.20    3.27
   3  -2  -9    1.73    2.68
  -3  -2   9    3.98    2.29
  -3  -2   9    0.14    2.33
  -3  -2   9    3.67    1.75
   3  -2  -9    2.80    3.36
  -3  -2   9    3.76    2.29
   3  -2  -9   -0.27    2.40
   3  -2  -9    3.97    2.60
   3   2  -9    3.03    3.04
   3   2  -9   -5.29    2.74
  -3   2   9    3.69    2.22
   3   2  -9    5.34    2.51
   3   2  -9    1.93    1.92
  -3   2   9    4.25    2.34
   3   2  -9    1.09    2.55
  -3   2   9    2.71    2.48
   3   2  -9    0.84    1.85
  -3   2   9    0.86    2.68
  -3   2   9    1.57    1.52
   2  -2  -9   -1.42    2.26
   2  -2  -9   -2.68    1.97
  -2  -2   9   -1.63    2.17
   2  -2  -9   -1.21    3.25
   2  -2  -9    1.47    2.24
  -2  -2   9    1.48    2.03
   2   2  -9    0.77    1.71
   2   2  -9   -0.80    1.91
  -2   2   9    0.85    2.55
  -2   2   9    1.80    2.33
   2   2  -9    0.04    1.65
   2   2  -9   -2.53    2.40
   2   2  -9   -1.73    2.27
  -2   2   9   -1.13    2.19
  -2   2   9    0.38    1.98
   2   2  -9    2.95    3.24
   1  -2  -9    3.30    2.34
  -1  -2   9   -2.36    2.03
   1  -2  -9    0.77    2.42
   1  -2  -9    0.02    2.33
   1  -2  -9    0.71    3.46
  -1  -2   9   -3.18    1.85
  -1   2   9    1.05    2.00
  -1   2   9    0.28    2.44
   1   2  -9   -6.77    2.49
   1   2  -9    2.72    2.46
   1   2  -9   -0.09    1.62
   1   2  -9    1.50    2.01
  -1   2   9   -2.49    2.03
   0  -2  -9   13.34    3.74
   0  -2   9    3.66    2.27
   0  -2   9   10.76    2.74
   0  -2   9    8.94    2.15
   0  -2  -9   12.05    3.13
   0  -2  -9   10.97    2.84
   0  -2  -9    8.24    2.75
   0   2   9    6.66    2.55
   0   2   9    8.97    2.79
   0   2  -9   10.50    3.05
   0   2  -9   10.07    2.72
   0   2  -9    9.49    2.62
   0   2  -9   10.03    2.26
   0   2   9   14.89    3.27
   0   2  -9    9.51    2.23
  -1  -2  -9   -1.55    3.85
  -1  -2  -9   -1.61    2.64
  -1  -2  -9   -0.80    2.22
  -1  -2  -9    0.95    2.77
   1  -2   9    1.87    2.20
   1  -2   9    9.99    3.88
   1  -2   9   -0.69    2.12
   1   2   9    2.34    3.09
  -1   2  -9    2.31    2.31
   1   2   9    0.94    2.53
   1   2   9    1.22    2.74
  -1   2  -9   -0.29    2.18
  -1   2  -9    1.76    2.05
  -1   2  -9   -4.16    2.57
  -1   2  -9    4.26    3.16
  -2  -2  -9   90.63    7.78
  -2  -2  -9   84.48    6.70
  -2  -2  -9   83.29    8.45
  -2  -2  -9   82.28    6.81
   2  -2   9   93.39    5.78
  -2  -2  -9   82.34    7.24
   2  -2   9   94.15    5.47
  -2   2  -9   97.97    6.69
   2   2   9   86.41    6.78
  -2   2  -9   91.63    6.20
   2   2   9   83.14    6.77
  -2   2  -9   92.11    8.27
   2   2   9   82.11    6.26
  -2   2  -9   99.18    6.75
  -2   2  -9   86.02    5.69
  -3  -2  -9    5.38    2.69
  -3  -2  -9    1.58    3.85
   3  -2   9   -2.70    2.41
  -3  -2  -9    5.12    4.30
   3   2   9   -0.34    2.16
  -3   2  -9    5.37    3.57
   3   2   9   -6.12    3.47
  -3   2  -9    5.69    3.46
   3   2   9    4.78    3.71
  -3   2  -9    4.23    2.56
   4  -2   9  130.43    9.30
  -4  -2  -9  154.97   10.16
   4  -2   9  135.79    7.28
  -4  -2  -9  143.02    9.56
  -4  -2  -9  157.93   10.04
   4   2   9  139.48    7.29
  -4   2  -9  150.55   10.72
  -4   2  -9  148.42   10.35
   4   2   9  143.14    9.91
  -4   2  -9  139.86    9.06
   4   2   9  151.94    9.94
  -5  -2  -9    8.79    5.40
  -5  -2  -9    5.18    5.64
   5  -2   9   -1.34    3.57
  -5  -2  -9   -0.41    4.36
  -5   2  -9   12.96    5.74
  -5   2  -9   -0.24    4.73
   5   2   9   11.01    7.63
   5   2   9   -0.07    5.00
  -5   2  -9   -1.41    5.16
  -6  -2  -9  142.83   13.11
  -6   2  -9  130.82   11.30
   8  -3  -9    3.25    5.13
   8  -3  -9   -6.42    5.23
   8  -3  -9    5.87    5.69
  -8  -3   9   -1.74    3.28
  -8  -3   9   -0.05    3.56
  -8   3   9    0.85    4.98
   8   3  -9   -5.54    5.78
   8   3  -9   -5.94    5.11
  -8   3   9   -0.18    7.43
  -8   3   9    5.78    3.74
   8   3  -9    1.14    4.65
  -7  -3   9   90.61    7.23
   7  -3  -9   94.64    8.74
  -7  -3   9   98.24    7.37
   7  -3  -9   90.11    8.45
   7  -3  -9  104.26    8.94
  -7   3   9   99.94    6.87
   7   3  -9  104.23    9.53
   7   3  -9  101.24    7.72
  -7   3   9  103.96    9.63
  -7   3   9  105.59    8.49
   7   3  -9   76.43    9.22
  -6  -3   9   22.14    3.43
   6  -3  -9   13.83    4.70
  -6  -3   9   18.34    3.66
   6  -3  -9   24.01    7.74
  -6  -3   9   17.38    3.31
  -6   3   9   12.34    4.36
  -6   3   9   20.72    3.81
   6   3  -9   12.86    3.44
   6   3  -9   23.95    4.66
  -6   3   9   21.44    4.60
   6   3  -9   18.63    4.61
   5  -3  -9   59.98    7.52
  -5  -3   9   55.36    4.75
  -5  -3   9   43.47    5.16
   5  -3  -9   49.05    5.78
   5  -3  -9   59.42    7.11
  -5   3   9   62.84    6.18
   5   3  -9   54.04    5.01
   5   3  -9   56.97    5.21
  -5   3   9   58.72    5.25
   5   3  -9   57.91    4.99
   5   3  -9   51.54    5.68
   5   3  -9   63.98    6.90
  -5   3   9   51.65    5.73
  -5   3   9   57.23    6.60
   4  -3  -9  111.95    7.40
  -4  -3   9  105.49    4.86
  -4  -3   9  108.71    6.56
   4  -3  -9  100.05    7.43
  -4  -3   9  100.74    5.24
   4  -3  -9  103.68    7.37
   4  -3  -9  121.44    9.68
  -4  -3   9  101.05    5.20
   4   3  -9  114.95    6.14
   4   3  -9  105.72    7.54
   4   3  -9  106.92    5.75
  -4   3   9  101.31    6.21
   4   3  -9  113.01    5.92
  -4   3   9  116.28    6.22
  -4   3   9  103.76    6.46
   4   3  -9  101.01    5.64
  -4   3   9  102.84    6.87
  -3  -3   9   -0.89    1.48
   3  -3  -9   -2.02    3.94
  -3  -3   9   -0.07    3.28
  -3  -3   9   -4.84    1.98
   3  -3  -9   -0.77    2.87
  -3  -3   9    0.75    1.76
   3  -3  -9    2.81    2.84
   3  -3  -9   -1.84    2.37
  -3   3   9    2.86    3.32
  -3   3   9    2.61    2.28
   3   3  -9    0.94    2.73
   3   3  -9    1.74    1.95
   3   3  -9   -2.38    2.61
   3   3  -9   -1.70    2.87
  -3   3   9   -1.59    2.19
  -3   3   9    3.06    2.54
   3   3  -9    0.53    1.75
   3   3  -9    0.27    1.72
  -2  -3   9  116.18    4.37
   2  -3  -9  121.66    7.58
   2  -3  -9  121.97    7.04
  -2  -3   9  120.54    4.38
   2  -3  -9  116.31    8.14
  -2  -3   9  108.92    6.29
  -2   3   9  113.36    6.46
   2   3  -9  120.60    5.44
  -2   3   9  115.36    6.40
   2   3  -9  108.78    6.56
  -2   3   9  125.43    4.56
  -2   3   9  118.45    4.35
  -2   3   9  119.69    6.77
   2   3  -9  123.04    7.31
  -2   3   9  114.23    6.82
   2   3  -9  120.62    5.41
   2   3  -9  118.37    5.41
   2   3  -9  115.03    6.00
  -1  -3   9   15.91    3.04
   1  -3  -9   13.54    4.35
   1  -3  -9   15.82    3.36
  -1  -3   9   15.17    1.83
   1  -3  -9   14.49    3.00
   1  -3  -9   14.71    3.39
  -1  -3   9   13.78    1.77
  -1   3   9   16.76    3.09
  -1   3   9   16.25    3.30
   1   3  -9   18.43    2.44
  -1   3   9   12.61    2.99
   1   3  -9   16.35    3.23
  -1   3   9   15.72    1.82
  -1   3   9   15.92    1.59
   1   3  -9   15.01    2.45
   1   3  -9   17.53    2.98
   0  -3   9   69.68    4.88
   0  -3  -9   64.25    5.82
   0  -3  -9   75.70    7.02
   0  -3   9   72.87    3.79
   0  -3  -9   60.12    5.59
   0  -3   9   66.09    3.63
   0  -3  -9   64.81    5.74
   0   3  -9   70.73    5.26
   0   3   9   69.63    5.37
   0   3   9   66.40    5.60
   0   3  -9   72.85    4.59
   0   3  -9   64.35    5.44
   0   3  -9   67.75    4.35
   0   3   9   79.64    5.96
   0   3  -9   71.93    4.41
   0   3   9   68.08    3.01
  -1  -3  -9   56.16    6.08
  -1  -3  -9   68.68    5.74
  -1  -3  -9   56.50    6.24
   1  -3   9   67.80    4.18
   1  -3   9   62.19    4.69
  -1  -3  -9   54.43    7.12
  -1   3  -9   61.08    4.91
  -1   3  -9   62.44    4.99
   1   3   9   63.62    5.95
   1   3   9   58.20    5.55
   1   3   9   68.11    6.36
  -1   3  -9   57.48    4.66
  -1   3  -9   61.66    6.73
  -1   3  -9   65.53    4.97
  -2  -3  -9   12.17    4.22
   2  -3   9    7.10    3.08
  -2  -3  -9    6.92    4.22
   2  -3   9    7.87    3.66
  -2  -3  -9    4.05    3.74
  -2  -3  -9    6.89    3.35
   2  -3   9    7.85    2.60
  -2   3  -9    6.94    2.73
  -2   3  -9    8.90    4.07
  -2   3  -9    9.12    2.62
   2   3   9    6.42    3.56
  -2   3  -9   10.72    3.05
   2   3   9    8.61    2.27
   2   3   9   13.16    3.85
  -2   3  -9    8.87    3.45
  -3  -3  -9   83.91    7.94
   3  -3   9   64.55    6.05
  -3  -3  -9   76.09    8.33
  -3  -3  -9   76.32    4.91
   3  -3   9   75.77    5.38
   3   3   9   85.77    8.19
  -3   3  -9   70.31    8.47
  -3   3  -9   74.82    5.49
   3   3   9   76.87    7.31
  -3   3  -9   62.83    6.40
  -3   3  -9   77.83    8.26
   3   3   9   78.21    5.21
  -4  -3  -9   -1.61    4.39
  -4  -3  -9    0.35    2.85
  -4  -3  -9   -0.87    4.43
   4  -3   9   -0.42    3.17
   4  -3   9    1.28    3.63
  -4  -3  -9   -4.06    4.32
  -4   3  -9    4.22    3.86
  -4   3  -9   -4.24    4.62
  -4   3  -9   11.01    4.85
   4   3   9   -6.00    5.08
   4   3   9   -1.57    3.16
   4   3   9   10.31    4.53
  -5  -3  -9   65.56    6.00
  -5  -3  -9   51.48    7.05
  -5  -3  -9   78.81   10.00
  -5  -3  -9   56.68    7.46
   5   3   9   83.74    9.50
   5   3   9   75.51    8.23
  -5   3  -9   61.91    7.36
  -5   3  -9   60.80    7.52
  -5   3  -9   57.70    8.08
   8  -4  -9   -0.15    5.83
   8  -4  -9    0.11    5.47
  -8  -4   9    0.32    3.58
  -8  -4   9    9.14    4.40
   8  -4  -9   -0.94    5.57
  -8   4   9    9.05    6.92
   8   4  -9    1.80    5.60
  -8   4   9  -10.23    5.18
   8   4  -9   -0.53    4.90
   8   4  -9   -1.98    6.00
   8   4  -9    4.09    5.63
  -8   4   9   10.43    3.54
  -8   4   9   15.63    5.87
  -7  -4   9   27.15    5.51
   7  -4  -9   33.14    5.85
   7  -4  -9   19.36    5.56
  -7  -4   9   22.70    5.20
   7  -4  -9   44.32    6.42
  -7   4   9   32.04    5.65
  -7   4   9   24.26    6.36
   7   4  -9   28.58    4.80
  -7   4   9   38.02    6.90
  -7   4   9   28.15    4.65
   7   4  -9   44.16    5.45
   7   4  -9   43.45    6.92
   7   4  -9   36.20    6.44
   6  -4  -9    9.49    3.91
  -6  -4   9    0.36    2.96
   6  -4  -9   -0.32    3.81
  -6  -4   9    2.08    3.08
  -6   4   9    5.03    2.97
  -6   4   9   -1.65    4.48
  -6   4   9    5.53    4.66
   6   4  -9    3.92    3.19
   6   4  -9   10.22    3.10
   6   4  -9    3.61    4.18
   5  -4  -9   93.18    8.14
  -5  -4   9   91.01    5.60
  -5  -4   9   83.73    4.95
   5  -4  -9   94.69    7.50
  -5  -4   9   80.73    6.12
   5  -4  -9   90.91    8.15
  -5   4   9   81.35    6.79
  -5   4   9   97.57    7.83
  -5   4   9   84.49    6.02
   5   4  -9   82.50    7.96
   5   4  -9   93.35    5.26
   5   4  -9   82.15    5.80
  -5   4   9   74.77    8.32
   5   4  -9   83.69    5.89
  -4  -4   9    0.79    2.17
   4  -4  -9    6.64    3.90
   4  -4  -9    2.44    3.89
  -4  -4   9   -0.14    2.50
   4  -4  -9    0.68    3.60
   4   4  -9    0.22    1.85
  -4   4   9    4.81    2.77
  -4   4   9   -5.44    2.81
   4   4  -9    4.14    2.40
  -4   4   9    6.07    3.12
   4   4  -9   -2.31    4.58
  -4   4   9   -4.26    3.30
   4   4  -9    3.18    3.34
   4   4  -9    0.88    2.76
   4   4  -9    2.23    2.14
   3  -4  -9  113.73    7.98
  -3  -4   9  115.20    6.82
   3  -4  -9  124.60    7.47
   3  -4  -9  119.21    7.84
  -3  -4   9  125.97    5.15
   3   4  -9  114.00    6.14
  -3   4   9  125.44    6.01
   3   4  -9  118.21    5.27
   3   4  -9  109.61    7.31
   3   4  -9  121.16    6.70
  -3   4   9  111.88    6.37
   3   4  -9  115.43    5.22
  -3   4   9  111.83    7.24
   3   4  -9  111.44    5.34
  -3   4   9  123.71    7.23
   2  -4  -9   -2.92    2.74
  -2  -4   9    2.81    2.33
   2  -4  -9   -4.49    2.57
   2  -4  -9   -3.05    2.49
   2   4  -9    5.76    2.57
   2   4  -9   -0.19    1.58
   2   4  -9   10.85    3.57
   2   4  -9    1.55    1.46
   2   4  -9    0.88    1.67
  -2   4   9    5.60    2.73
  -2   4   9    0.90    1.94
   2   4  -9   -0.81    2.24
  -2   4   9   -2.70    2.58
   1  -4  -9  134.94    7.96
   1  -4  -9  125.23    7.52
   1  -4  -9  120.39    7.65
  -1  -4   9  125.25    6.43
   1   4  -9  131.43    6.24
   1   4  -9  139.46    7.02
   1   4  -9  133.07    5.29
   1   4  -9  125.70    5.40
  -1   4   9  123.83    7.38
  -1   4   9  127.74    7.24
   0  -4  -9    5.50    3.30
   0  -4  -9    3.96    3.07
   0  -4   9   -0.79    2.43
   0  -4  -9    2.73    3.31
   0   4   9    2.57    2.82
   0   4  -9    4.60    1.93
   0   4   9    4.98    3.14
   0   4  -9    9.39    3.01
   0   4  -9    4.14    2.32
   0   4  -9    3.30    1.83
   0   4  -9    2.06    1.73
   1  -4   9  132.26    5.29
  -1  -4  -9  141.68    9.03
   1  -4   9  142.40    6.63
  -1  -4  -9  131.54    8.55
   1  -4   9  134.30    4.53
  -1  -4  -9  127.66    8.70
   1   4   9  141.73    8.32
  -1   4  -9  143.31    6.50
  -1   4  -9  137.97    6.32
  -1   4  -9  132.28    6.69
  -1   4  -9  145.10    9.19
   1   4   9  137.09    6.07
  -1   4  -9  142.65    6.59
   1   4   9  144.31    8.46
   2  -4   9   -0.82    2.45
   2  -4   9    2.07    3.34
   2  -4   9    2.20    2.25
  -2  -4  -9    4.52    4.27
  -2  -4  -9    0.79    4.09
  -2  -4  -9    2.15    3.81
  -2  -4  -9    1.65    3.24
  -2   4  -9   -1.09    3.73
  -2   4  -9   -1.03    2.24
  -2   4  -9    1.12    2.72
  -2   4  -9   -1.26    2.55
   2   4   9    3.49    2.36
  -2   4  -9    0.72    2.88
   2   4   9   -0.97    3.25
   2   4   9    0.22    4.22
  -3  -4  -9   35.81    5.75
   3  -4   9   36.00    4.14
  -3  -4  -9   34.02    4.30
  -3  -4  -9   38.86    6.17
  -3  -4  -9   42.27    5.64
   3  -4   9   39.71    5.66
  -3   4  -9   37.38    4.69
   3   4   9   25.43    9.77
   3   4   9   36.58    6.28
  -3   4  -9   29.56    5.56
   3   4   9   30.13    3.88
  -4  -4  -9   16.52    5.21
  -4  -4  -9   13.70    3.27
  -4  -4  -9    9.58    5.80
   4  -4   9    4.57    4.00
  -4  -4  -9    0.62    4.64
   4   4   9    7.48    6.20
   4   4   9    7.57    3.87
  -4   4  -9    2.93    4.10
   4   4   9    4.97    4.86
  -4   4  -9    7.21    5.42
  -4   4  -9    9.18    4.64
  -5  -4  -9    4.11    3.68
  -5  -4  -9    7.35    6.25
  -5  -4  -9    4.07    5.71
  -5  -4  -9    1.69    5.30
   5  -4   9   -1.67    4.15
   5   4   9    6.00    6.02
  -5   4  -9    0.32    4.97
  -5   4  -9   -2.47    5.27
   5   4   9    8.21    5.87
   5   4   9    7.33    6.65
  -5   4  -9   -3.22    6.26
  -8  -5   9   -5.55    3.08
   8  -5  -9    0.96    5.76
   8  -5  -9   -2.30    5.89
   8  -5  -9   -0.18    6.33
   8  -5  -9   -3.69    4.77
  -8  -5   9   -1.65    3.80
   8   5  -9   -2.32    4.67
  -8   5   9   -6.58    6.60
  -8   5   9   -8.61    5.66
   8   5  -9   -1.72    6.61
   8   5  -9    8.21    6.23
   8   5  -9    1.09    6.06
  -8   5   9    4.67    6.24
  -8   5   9   -1.78    3.31
   7  -5  -9   36.33    6.33
   7  -5  -9   36.59    5.92
   7  -5  -9   36.81    6.67
  -7  -5   9   33.52    5.60
  -7  -5   9   22.41    4.66
  -7   5   9   36.91    7.06
   7   5  -9   34.33    4.82
   7   5  -9   40.40    6.59
   7   5  -9   30.25    6.11
   7   5  -9   23.50    5.98
  -7   5   9   33.68    6.21
  -7   5   9   25.20    5.52
  -7   5   9   20.87    3.98
   6  -5  -9   31.74    5.98
   6  -5  -9   45.71    6.25
  -6  -5   9   40.98    4.96
  -6  -5   9   37.87    5.54
   6  -5  -9   45.56    6.09
   6   5  -9   45.80    6.43
  -6   5   9   33.48    6.37
   6   5  -9   37.79    4.77
  -6   5   9   36.49    5.80
  -6   5   9   53.12    5.48
  -6   5   9   39.57    5.78
   6   5  -9   43.10    4.79
   5  -5  -9   18.56    5.20
   5  -5  -9   30.06    5.30
  -5  -5   9   25.51    3.82
  -5  -5   9   23.78    4.48
   5   5  -9   31.69    3.76
   5   5  -9   23.28    6.84
   5   5  -9   29.01    3.56
   5   5  -9   24.05    3.41
  -5   5   9   31.01    5.32
  -5   5   9   27.73    3.85
  -5   5   9   20.35    4.96
  -4  -5   9  155.66    6.55
   4  -5  -9  153.75    9.33
   4  -5  -9  151.92    9.74
   4  -5  -9  151.38    9.29
  -4  -5   9  148.46    8.03
   4   5  -9  160.08    6.61
   4   5  -9  147.84    6.06
   4   5  -9  138.84    7.40
  -4   5   9  136.32    7.46
  -4   5   9  143.47    9.13
  -4   5   9  149.42    8.50
  -4   5   9  140.29    8.61
   4   5  -9  163.06    9.35
   4   5  -9  159.95    6.70
   4   5  -9  147.88    6.28
   3  -5  -9    7.61    4.24
  -3  -5   9    0.96    2.54
  -3  -5   9    2.88    2.53
   3  -5  -9   -0.09    3.82
   3   5  -9    0.58    2.70
   3   5  -9   -1.47    1.40
  -3   5   9    5.68    2.81
  -3   5   9    5.26    3.67
  -3   5   9   -4.34    2.90
  -3   5   9   -1.73    3.00
   3   5  -9    4.69    1.75
   3   5  -9   -1.00    3.12
   3   5  -9   -2.70    3.08
   3   5  -9    2.75    1.72
  -2  -5   9  234.69    9.87
   2  -5  -9  220.66   10.89
   2  -5  -9  252.08   11.73
   2  -5  -9  243.12   11.13
  -2   5   9  255.53   11.12
   2   5  -9  255.59    7.66
  -2   5   9  245.96   10.90
   2   5  -9  240.51   10.10
   2   5  -9  241.67    7.66
   2   5  -9  254.73    8.75
   2   5  -9  267.55    8.61
   1  -5  -9    6.65    3.86
   1  -5  -9    9.32    4.06
   1  -5  -9   11.62    3.89
  -1  -5   9    9.76    2.63
   1   5  -9   11.07    1.59
   1   5  -9   11.77    2.66
   1   5  -9    9.47    1.78
  -1   5   9    8.24    2.17
  -1   5   9   10.98    3.48
  -1   5   9    7.96    3.72
   1   5  -9    3.58    2.49
   0  -5  -9   93.81    8.00
   0  -5   9   96.14    5.68
   0  -5  -9  110.50    7.79
   0  -5  -9  104.49    8.09
   0   5   9   97.06    7.67
   0   5  -9  109.73    5.99
   0   5  -9   94.11    4.35
   0   5   9   99.52    7.11
   0   5   9   94.12    5.24
   0   5  -9   99.14    5.81
   0   5  -9   92.27    4.88
   0   5  -9   81.28    7.71
   0   5  -9  100.29    4.70
   1  -5   9   38.99    4.00
  -1  -5  -9   35.53    5.65
   1  -5   9   35.31    5.41
  -1  -5  -9   37.24    5.59
  -1  -5  -9   35.57    5.37
  -1   5  -9   45.50    4.21
   1   5   9   44.69    5.91
  -1   5  -9   35.06    5.61
   1   5   9   35.75    5.16
   1   5   9   38.15    4.22
  -1   5  -9   45.09    4.38
  -1   5  -9   35.07    3.65
  -1   5  -9   27.06    5.30
  -1   5  -9   29.90    3.72
  -2  -5  -9   22.68    4.45
   2  -5   9   31.53    3.83
   2  -5   9   15.05    4.03
  -2  -5  -9   23.62    4.93
  -2  -5  -9   19.91    3.18
  -2   5  -9   16.99    5.68
  -2   5  -9   21.34    3.73
   2   5   9   22.16    5.01
  -2   5  -9   18.16    3.30
   2   5   9   20.25    3.54
  -2   5  -9   17.14    2.83
   3  -5   9   23.79    5.17
   3  -5   9   30.08    4.17
  -3  -5  -9   31.59    5.76
  -3  -5  -9   24.93    3.57
  -3  -5  -9   25.10    5.62
  -3  -5  -9   22.96    5.44
  -3   5  -9   24.28    5.70
  -3   5  -9   47.65    5.85
   3   5   9   31.19    6.53
   3   5   9   25.74    5.45
  -3   5  -9   28.86    5.79
   3   5   9   33.53    4.34
   4  -5   9    1.23    4.32
  -4  -5  -9   -2.98    5.11
  -4  -5  -9    5.13    3.29
  -4  -5  -9   -3.86    4.69
  -4   5  -9    1.23    5.46
   4   5   9    5.51    4.95
   4   5   9    1.87    5.27
   4   5   9    1.10    4.48
  -4   5  -9   -1.13    5.50
  -5  -5  -9   27.35    6.69
  -5  -5  -9   12.83    6.61
  -5  -5  -9   12.30    5.70
   5  -5   9   16.25    5.42
  -5  -5  -9   10.24    4.45
   5   5   9   18.07    6.84
   5   5   9   21.49    7.34
  -5   5  -9   17.27    7.18
  -5   5  -9    7.20    5.59
  -5   5  -9   24.58    6.60
  -7  -6   9   -4.48    3.44
   7  -6  -9    5.87    5.97
   7  -6  -9    9.37    5.77
   7  -6  -9    0.41    5.13
   7   6  -9   10.21    6.61
  -7   6   9   -2.82    3.30
   7   6  -9    8.12    6.56
  -7   6   9    1.90    5.67
  -7   6   9    7.17    5.97
   7   6  -9    3.28    3.71
   7   6  -9    0.93    6.14
  -7   6   9    5.14    5.42
   6  -6  -9   67.53    8.28
  -6  -6   9   63.54    7.00
   6  -6  -9   75.39    9.25
  -6  -6   9   67.00    6.57
   6  -6  -9   81.05    8.93
   6   6  -9   68.72    7.60
  -6   6   9   68.97    8.23
   6   6  -9   76.83    7.44
   6   6  -9   63.49    7.32
  -6   6   9   67.61    5.99
  -6   6   9   80.04    9.04
  -6   6   9   60.66    8.18
   6   6  -9   65.11    6.09
   5  -6  -9   14.04    4.70
  -5  -6   9   10.60    3.63
  -5  -6   9   14.48    3.09
   5  -6  -9   21.26    5.19
  -5   6   9   10.87    5.18
   5   6  -9   18.23    4.75
   5   6  -9   15.49    3.46
   5   6  -9   20.92    3.16
  -5   6   9   17.26    5.13
  -5   6   9   16.53    3.67
  -5   6   9   13.98    4.73
   5   6  -9   14.88    3.58
  -4  -6   9   16.87    3.93
   4  -6  -9   16.07    5.18
  -4  -6   9   22.18    3.18
   4  -6  -9   20.36    5.22
   4  -6  -9   19.42    4.77
   4   6  -9   18.67    2.92
  -4   6   9   11.28    8.18
   4   6  -9   16.52    2.40
   4   6  -9   22.01    5.47
  -4   6   9   15.63    3.44
   4   6  -9   16.95    2.92
  -4   6   9   13.70    4.56
   4   6  -9   21.45    2.74
   3  -6  -9   21.23    6.50
  -3  -6   9   16.36    3.49
   3  -6  -9   29.32    5.33
  -3  -6   9   22.43    2.88
   3  -6  -9   14.88    4.66
   3   6  -9   21.45    2.69
  -3   6   9   14.96    3.21
  -3   6   9    8.62    4.35
   3   6  -9   17.79    2.04
   3   6  -9   22.43    3.74
  -3   6   9   11.11    4.75
   3   6  -9   18.08    4.26
   3   6  -9   22.56    2.65
   3   6  -9   16.95    3.04
  -3   6   9   20.43    4.56
   2  -6  -9    1.01    3.87
  -2  -6   9   -1.19    2.45
   2  -6  -9    1.38    3.71
   2  -6  -9    0.67    4.11
  -2   6   9   -3.58    3.58
   2   6  -9   -1.26    2.28
   2   6  -9    2.79    1.68
   2   6  -9    0.74    0.86
   2   6  -9   -5.81    2.55
  -2   6   9    2.39    3.58
   1  -6  -9   20.80    4.93
   1  -6  -9   15.12    4.65
  -1  -6   9   19.57    3.47
   1  -6  -9   18.62    4.86
   1   6  -9   19.79    2.47
  -1   6   9   18.94    4.27
  -1   6   9   20.49    4.90
   1   6  -9   22.23    1.70
   1   6  -9   23.21    4.59
  -1   6   9   26.00    3.24
   1   6  -9   15.62    3.27
   1   6  -9   19.57    2.47
   1   6  -9   19.95    2.15
   1   6  -9   22.21    2.81
   1   6  -9   18.01    2.05
   0  -6  -9   18.76    5.12
   0  -6   9   20.37    3.49
   0  -6   9   21.37    4.51
   0  -6  -9   19.38    5.07
   0  -6  -9   16.38    4.73
   0   6  -9   13.60    1.80
   0   6  -9   17.07    4.88
   0   6  -9   19.84    3.25
   0   6  -9   14.03    3.01
   0   6   9   17.31    4.59
   0   6  -9   20.46    2.43
   0   6   9   17.67    4.86
   0   6   9   16.19    3.13
   0   6  -9   18.50    2.06
   1  -6   9    9.99    3.71
  -1  -6  -9   16.17    4.46
  -1  -6  -9   10.93    4.84
   1  -6   9   11.65    2.88
  -1  -6  -9   15.78    4.54
  -1   6  -9    8.90    1.63
  -1   6  -9    9.64    2.54
  -1   6  -9   19.09    5.01
   1   6   9    7.19    3.05
  -1   6  -9   11.27    2.10
  -1   6  -9   11.99    2.82
   1   6   9   14.34    4.92
  -1   6  -9    9.55    2.09
   2  -6   9   58.51    5.71
  -2  -6  -9   58.38    7.78
  -2  -6  -9   58.85    6.78
   2  -6   9   81.08    7.30
  -2  -6  -9   52.23    5.01
  -2  -6  -9   62.02    7.94
  -2   6  -9   70.68    8.10
   2   6   9   68.10    8.03
   2   6   9   70.95    9.04
  -2   6  -9   71.95    5.98
  -2   6  -9   57.14    4.67
   2   6   9   56.53    6.01
  -3  -6  -9   -1.19    4.68
  -3  -6  -9    4.21    4.72
   3  -6   9   -3.46    3.47
  -3  -6  -9    2.56    4.90
  -3  -6  -9    3.46    3.08
  -3   6  -9    3.27    4.88
  -3   6  -9    8.15    4.05
   3   6   9   -0.06    4.62
   3   6   9   -0.93    3.87
   3   6   9    2.94    5.44
  -4  -6  -9  108.34    7.20
  -4  -6  -9  101.21   10.31
  -4  -6  -9   97.45   10.39
   4  -6   9  112.85    9.54
   4   6   9   94.21   10.57
   4   6   9   97.33   11.20
  -4   6  -9   94.93    8.17
  -4   6  -9   96.99   11.62
  -4   6  -9   95.05   11.20
   4   6   9  123.21   11.28
   7  -7  -9  132.68   12.77
   7  -7  -9  116.82   11.53
   7  -7  -9  134.92   12.05
   7  -7  -9  126.87   10.52
  -7  -7   9  116.42    8.66
  -7  -7   9  107.54    8.02
  -7   7   9  124.03   12.08
   7   7  -9  121.24   11.30
  -7   7   9  128.09    7.83
  -7   7   9  150.34   12.32
  -7   7   9  136.09   11.39
   7   7  -9  104.06   12.89
   7   7  -9  137.78    7.93
   6  -7  -9   20.03    6.06
  -6  -7   9   12.66    4.53
   6  -7  -9   16.19    5.77
  -6  -7   9   19.95    4.59
   6  -7  -9   17.25    5.54
  -6   7   9   27.59    6.08
   6   7  -9   17.44    3.37
  -6   7   9   15.47    3.71
   6   7  -9   13.99    6.13
   6   7  -9    3.96    5.54
  -6   7   9   11.15    5.71
   6   7  -9   21.44    4.70
  -6   7   9   13.87    5.83
   5  -7  -9   83.70    8.31
  -5  -7   9   81.68    7.18
  -5  -7   9   83.71    6.09
   5  -7  -9   67.17    7.68
   5  -7  -9   82.17    8.43
  -5   7   9   75.33    8.26
   5   7  -9   97.19    9.31
  -5   7   9   72.34    8.02
  -5   7   9   70.71    6.19
   5   7  -9   85.93    7.39
   5   7  -9   76.90    4.73
   5   7  -9   85.30    6.27
  -5   7   9   74.75    8.96
  -4  -7   9   34.28    4.88
   4  -7  -9   36.50    6.63
  -4  -7   9   46.80    4.80
   4  -7  -9   36.15    6.29
   4   7  -9   32.95    2.59
   4   7  -9   36.44    2.28
  -4   7   9   28.91    5.76
   4   7  -9   40.76    9.95
   4   7  -9   35.48    4.56
  -4   7   9   33.67    4.51
   4   7  -9   30.94    4.11
  -4   7   9   47.20    6.17
   4   7  -9   34.59    3.88
  -4   7   9   36.66    7.53
  -3  -7   9    4.35    2.85
   3  -7  -9   12.30    4.17
   3  -7  -9   18.24    5.32
  -3  -7   9    1.79    2.50
  -3   7   9    1.11    3.99
   3   7  -9    3.91    4.43
   3   7  -9    5.74    2.15
   3   7  -9    9.48    2.75
  -3   7   9    6.79    4.77
   3   7  -9   12.75    2.92
  -2  -7   9   31.18    4.51
   2  -7  -9   34.58    5.16
   2  -7  -9   27.81    5.90
   2   7  -9   30.62    4.08
  -2   7   9   34.13    6.01
   2   7  -9   31.27    2.96
   2   7  -9   27.51    4.36
  -2   7   9   43.62    6.60
   1  -7  -9   33.09    6.31
   1  -7  -9   27.31    5.75
  -1  -7   9   25.42    3.81
   1  -7  -9   29.41    4.93
   1   7  -9   31.23    2.99
   1   7  -9   34.82    5.70
   1   7  -9   42.10    4.78
  -1   7   9   26.12    5.70
  -1   7   9   26.97    5.93
  -1   7   9   25.96    3.64
   0  -7  -9   23.44    4.62
   0  -7   9   21.39    3.84
   0  -7  -9   41.27    6.01
   0  -7   9   31.39    5.09
   0  -7  -9   27.60    4.93
   0   7   9   35.54    5.35
   0   7   9   40.61    6.24
   0   7  -9   29.18    3.53
   0   7   9   25.99    3.79
   0   7  -9   37.15    5.85
   1  -7   9   99.46    6.19
  -1  -7  -9   77.10    9.93
   1  -7   9   83.71    7.75
  -1  -7  -9   98.89    8.25
  -1   7  -9   98.23    5.07
  -1   7  -9   84.76    5.67
  -1   7  -9   91.10    3.89
  -1   7  -9   77.73    9.72
   1   7   9  104.41   11.09
   1   7   9  105.01    6.97
  -1   7  -9   96.90    6.04
   1   7   9   99.09    8.84
  -2  -7  -9    5.81    3.03
  -2  -7  -9    6.90    4.80
   2  -7   9   11.62    4.26
  -2  -7  -9    7.13    4.02
  -2  -7  -9    1.78    4.75
   2   7   9    7.88    5.11
  -2   7  -9   13.28    3.01
   2   7   9   13.76    5.38
   2   7   9    5.26    4.09
  -2   7  -9    9.12    3.77
  -2   7  -9   14.54    5.04
  -3  -7  -9   99.10    6.99
  -3  -7  -9   91.44    9.89
  -3  -7  -9   89.69    9.97
   3  -7   9  102.99    9.13
  -3  -7  -9   85.19    9.64
   3   7   9   81.34   10.35
   3   7   9  105.53   10.24
  -3   7  -9  106.36    6.51
  -3   7  -9   87.94    8.52
   3   7   9  109.16   10.61
  -3   7  -9   90.69   10.43
  -3   7  -9  104.29   10.76
  -4  -7  -9    4.04    3.54
  -4  -7  -9   -9.64    5.99
  -4  -7  -9   11.77    6.90
   4  -7   9    7.96    5.17
  -4   7  -9   10.99    6.45
   4   7   9    1.26    5.87
  -4   7  -9   15.17    6.85
  -4   7  -9    3.68    4.19
  -4   7  -9   14.94    7.57
   4   7   9   -4.28    6.51
   4   7   9   12.75    7.05
   6  -8  -9    0.90    6.13
   6  -8  -9   21.30    6.70
  -6  -8   9   13.66    3.81
   6  -8  -9   29.77    6.64
  -6  -8   9   14.94    5.26
  -6   8   9   11.32    5.94
  -6   8   9   18.93    6.70
   6   8  -9   16.88    3.28
   6   8  -9   15.49    7.06
  -6   8   9   11.07    4.05
   6   8  -9   -0.30    6.20
  -6   8   9   21.91    6.22
  -5  -8   9   53.96    6.10
   5  -8  -9   41.12    6.71
   5  -8  -9   39.39    7.00
  -5   8   9   48.89    7.12
   5   8  -9   45.56    7.11
  -5   8   9   44.50    7.11
  -5   8   9   45.13    7.23
   5   8  -9   39.08    5.93
   5   8  -9   50.15    3.01
  -5   8   9   50.98    5.53
  -4  -8   9   14.09    3.71
   4  -8  -9   13.82    4.96
   4  -8  -9    9.18    5.21
  -4  -8   9   13.46    3.25
   4  -8  -9    9.50    4.60
   4   8  -9   10.25    4.05
  -4   8   9   11.38    5.10
   4   8  -9    7.61    4.60
  -4   8   9   16.45    5.28
  -4   8   9   10.11    5.40
  -4   8   9    8.51    3.37
   3  -8  -9   70.37    8.36
  -3  -8   9   91.49    6.78
   3  -8  -9   94.52    9.00
   3  -8  -9   93.28    8.43
  -3  -8   9   88.97    5.53
   3   8  -9   69.74    8.25
   3   8  -9   84.34    5.93
  -3   8   9   95.76    8.78
  -3   8   9   86.78    8.78
   3   8  -9   86.53    6.52
  -2  -8   9    2.19    2.86
   2  -8  -9   -2.14    4.17
   2  -8  -9    2.69    6.32
   2  -8  -9    2.64    4.24
  -2   8   9   -2.69    4.15
   2   8  -9    5.55    4.30
   2   8  -9    1.55    3.84
  -2   8   9   -1.95    4.78
   2   8  -9   -6.75    2.64
   2   8  -9    1.76    3.04
   1  -8  -9  131.75    9.12
   1  -8  -9  114.29    8.87
  -1  -8   9  118.18    7.07
   1  -8  -9   93.23   14.06
   1   8  -9  123.16    8.22
   1   8  -9  126.82    9.89
   1   8  -9  109.99    6.09
  -1   8   9  114.61    7.69
  -1   8   9  109.52    8.75
   1   8  -9  119.74    6.93
  -1   8   9  117.26    9.56
   0  -8   9   13.28    4.32
   0  -8   9   10.75    3.40
   0  -8  -9    8.81    4.57
   0  -8  -9    9.34    5.48
   0  -8  -9    4.53    4.46
   0   8  -9   14.74    6.08
   0   8   9    6.88    4.53
   0   8  -9    9.53    4.94
   0   8   9   12.20    4.90
   0   8  -9    7.78    3.16
   0   8  -9    9.64    2.86
   0   8   9    7.23    4.11
   1  -8   9   69.79    6.40
  -1  -8  -9   65.58    7.73
   1  -8   9   74.07    7.59
  -1  -8  -9   84.52    8.56
  -1   8  -9   65.17    8.76
   1   8   9   80.64    9.24
  -1   8  -9   79.16    8.24
  -1   8  -9   71.94    7.29
   1   8   9   58.41    7.81
   1   8   9   69.09    8.73
  -2  -8  -9   15.92    4.56
  -2  -8  -9   15.01    6.01
   2  -8   9    9.61    4.61
  -2  -8  -9    9.09    5.43
   2   8   9    6.59    5.66
  -2   8  -9   10.01    5.28
   2   8   9   14.51    5.93
  -2   8  -9   11.64    5.55
  -2   8  -9   12.97    2.51
   2   8   9   10.61    6.15
  -3  -8  -9   22.77    7.71
  -3  -8  -9   21.23    6.99
  -3  -8  -9   16.20    6.19
   3  -8   9   24.57    5.79
  -3  -8  -9   26.90    4.52
  -3   8  -9   21.22    3.57
   3   8   9   23.19    6.99
   3   8   9   27.25    6.77
  -3   8  -9   27.86    7.31
  -3   8  -9   29.62    7.34
   3   8   9   28.93    7.15
   5  -9  -9   -8.82    5.52
   5  -9  -9    5.55    6.15
  -5  -9   9   -0.53    4.37
   5  -9  -9    3.25    5.91
  -5   9   9   12.56    6.17
  -5   9   9   -3.85    6.12
   5   9  -9   -1.09    6.27
  -5   9   9   -4.76    5.76
   5   9  -9    6.07    5.89
  -5   9   9    4.91    3.39
   4  -9  -9  129.27   10.60
  -4  -9   9  144.17    7.76
   4  -9  -9  140.59   11.66
  -4  -9   9  140.64    9.49
   4  -9  -9  150.41   10.83
   4   9  -9  153.44    9.88
  -4   9   9  137.97    8.23
  -4   9   9  134.55   10.68
  -4   9   9  151.24   11.41
   4   9  -9  135.47   10.60
  -4   9   9  130.46   11.98
   4   9  -9  135.21    9.75
   3  -9  -9   -1.11    4.44
  -3  -9   9    6.11    3.93
   3  -9  -9   -6.52    5.06
   3  -9  -9   10.75    5.12
  -3  -9   9    1.62    3.38
  -3   9   9    5.69    5.21
   3   9  -9    6.02    4.75
  -3   9   9    1.42    4.86
   3   9  -9    5.81    4.85
   3   9  -9   -2.23    4.05
   2  -9  -9  155.88   10.83
  -2  -9   9  157.38    8.66
   2  -9  -9  173.39   10.29
   2  -9  -9  144.97   11.16
  -2   9   9  151.11   10.64
   2   9  -9  165.29   10.96
   2   9  -9  166.56    8.82
  -2   9   9  145.82   10.57
   2   9  -9  160.63    8.43
   2   9  -9  170.83   10.42
  -2   9   9  147.42   10.23
   1  -9  -9   -7.17    4.87
   1  -9  -9   -5.91    4.77
   1  -9  -9   -1.00    4.36
  -1  -9   9   -1.46    3.61
  -1  -9   9    8.12    3.61
   1   9  -9   -1.32    5.02
   1   9  -9   10.44    3.65
   1   9  -9   -3.60    3.64
  -1   9   9   -2.03    4.81
   1   9  -9    2.54    5.20
  -1   9   9    6.94    4.88
  -1   9   9    0.20    4.65
   0  -9   9   97.49    7.31
   0  -9  -9  103.65    8.94
   0  -9   9   95.07    8.16
   0  -9  -9   99.62   10.27
   0   9  -9   92.86    9.37
   0   9   9  104.96   10.17
   0   9   9  101.53    9.60
   0   9  -9  105.52    7.45
   0   9   9  106.09   10.09
   0   9  -9   91.66    9.83
  -1  -9  -9    3.74    5.76
   1  -9   9   14.53    4.29
  -1  -9  -9   19.14    5.65
   1   9   9   12.51    5.95
   1   9   9   10.86    6.05
  -1   9  -9   20.98    5.47
  -1   9  -9   10.08    5.63
  -2  -9  -9   25.22    6.93
  -2  -9  -9   20.27    6.30
   2  -9   9   17.90    5.20
  -2   9  -9   22.30    6.95
   2   9   9   18.55    7.21
   2   9   9   19.55    7.38
   2   9   9   18.73    5.87
  -2   9  -9   20.58    6.86
  -4 -10   9   11.31    5.15
   4 -10  -9   14.18    5.27
   4 -10  -9    2.11    6.93
   4 -10  -9    5.06    6.45
  -4 -10   9    8.57    4.51
   4 -10  -9   14.59    6.47
  -4  10   9    5.37    6.82
  -4  10   9   10.78    4.95
  -4  10   9   13.55    6.71
  -4  10   9   13.40    6.52
   4  10  -9   20.34    6.44
   3 -10  -9   27.85    6.44
   3 -10  -9   33.88    7.01
  -3 -10   9   31.15    5.29
   3 -10  -9   40.70    7.76
  -3  10   9   29.41    7.22
  -3  10   9   33.87    7.05
   3  10  -9   30.16    5.92
   2 -10  -9   -6.37    5.59
   2 -10  -9   -5.30    5.09
   2 -10  -9    6.59    6.20
  -2 -10   9    8.38    4.12
   2  10  -9   -1.88    5.78
   2  10  -9    0.95    5.84
  -2  10   9    2.27    5.86
  -2  10   9   -2.46    5.86
  -2  10   9    1.82    5.02
   1 -10  -9   26.51    5.98
  -1 -10   9   32.66    5.76
   1 -10  -9   32.84    7.07
  -1  10   9   13.20    6.68
   1  10  -9   33.94   10.16
  -1  10   9   25.91    5.82
  -1  10   9   13.63    6.45
   0 -10  -9    8.43    6.40
   0 -10   9    5.58    4.52
   0 -10  -9    2.75    5.66
   0  10   9    2.12    6.22
   0  10   9    0.46    5.59
   0  10  -9    5.94    5.32
   0  10  -9   -4.00    5.56
   0  10   9   -0.35    6.03
  -1 -10  -9    7.74    6.03
  -1 -10  -9    7.90    6.53
   1 -10   9    8.89    4.49
   1  10   9   10.40    6.90
   1  10   9   -6.68    6.79
  -1  10  -9    9.38    6.05
   1  10   9   10.09    6.20
  -1  10  -9    7.48    6.21
   8   0 -10   23.01    6.84
  -8   0  10   22.10    5.93
   8   0 -10   19.27    5.54
   8   0 -10   24.95    6.29
   7   0 -10   -1.18    4.44
   7   0 -10   -1.07    3.93
  -7   0  10    2.16    3.25
  -7   0  10   -4.11    5.29
  -7   0  10   -1.24    3.10
   7   0 -10    4.95    4.83
  -6   0  10   12.33    2.88
   6   0 -10    4.22    4.68
   6   0 -10    9.12    3.83
   6   0 -10    9.49    4.41
  -6   0  10   14.72    4.13
  -6   0  10    8.01    3.25
   5   0 -10    1.02    4.44
  -5   0  10   -1.17    2.42
  -5   0  10   -1.00    2.07
  -5   0  10   -0.04    3.11
   4   0 -10   -0.25    3.29
  -4   0  10    5.21    2.86
  -4   0  10    6.26    2.11
  -4   0  10    1.11    1.82
   4   0 -10   -1.02    2.47
   4   0 -10    4.60    3.70
   4   0 -10   -0.52    4.22
  -3   0  10    1.44    2.75
   3   0 -10    1.12    2.40
  -3   0  10   -1.15    1.73
   3   0 -10   -0.69    3.59
   3   0 -10   -3.19    2.32
  -3   0  10   -0.91    2.34
  -3   0  10    0.12    1.68
   3   0 -10    4.00    3.35
   2   0 -10   24.05    4.01
  -2   0  10   26.94    4.06
   2   0 -10   35.25    4.55
   2   0 -10   21.31    3.37
   2   0 -10   27.05    4.34
  -2   0  10   27.65    2.93
  -2   0  10   28.50    2.76
  -1   0  10    2.42    2.54
  -1   0  10   -0.43    1.55
   1   0 -10   -0.97    3.17
   1   0 -10    0.09    2.38
   1   0 -10    0.20    2.44
  -1   0  10    1.19    1.65
   1   0 -10    1.82    3.08
   0   0 -10  135.48    7.87
   0   0 -10  126.03    6.93
   0   0  10  124.49    6.82
   0   0  10  118.02    4.96
   0   0  10  129.29    7.09
   0   0  10  124.54    5.23
   0   0 -10  125.50    7.74
   0   0 -10  128.53    7.45
   1   0  10   -1.29    2.02
   1   0  10    0.93    3.09
   1   0  10    1.15    2.22
  -1   0 -10    5.60    3.49
   1   0  10    2.94    2.15
  -1   0 -10    2.17    2.89
  -1   0 -10    9.77    4.26
  -1   0 -10    2.25    2.98
  -2   0 -10  183.71    9.82
  -2   0 -10  143.23   13.93
  -2   0 -10  179.37    9.55
   2   0  10  191.44    7.51
   2   0  10  184.10    9.34
   3   0  10    2.30    3.08
   3   0  10   -1.83    4.20
  -3   0 -10   -1.92    4.03
  -3   0 -10    1.33    3.76
  -4   0 -10  166.27   11.03
   4   0  10  149.55    8.78
  -4   0 -10  139.56   10.28
   4   0  10  148.38   16.01
  -4   0 -10  160.88   11.13
  -5   0 -10   -2.27    6.28
  -5   0 -10    3.08    5.67
  -5   0 -10    0.61    6.47
   8  -1 -10   27.27    7.06
   8  -1 -10   20.27    6.68
   8  -1 -10   44.66    7.14
  -8  -1  10   40.74    5.37
   8   1 -10   29.09    5.99
   8   1 -10   38.45    6.89
   8   1 -10   42.17    7.28
  -8   1  10   14.73    9.83
  -8   1  10   27.89    5.21
  -7  -1  10   34.54    5.73
  -7  -1  10   25.50    4.82
   7  -1 -10   36.84    6.27
   7  -1 -10   22.80    5.63
   7  -1 -10   37.97    5.68
  -7   1  10   31.98    4.89
   7   1 -10   47.26    6.21
   7   1 -10   32.11    6.19
  -7   1  10   31.15    5.53
  -7   1  10   35.35    5.37
   7   1 -10   39.55    5.41
   6  -1 -10   59.44    7.81
   6  -1 -10   58.02    6.69
  -6  -1  10   54.31    5.95
  -6  -1  10   51.61    5.59
  -6   1  10   66.23    5.70
   6   1 -10   56.28    6.98
   6   1 -10   56.12    6.62
  -6   1  10   57.88    5.51
  -6   1  10   50.70    6.79
   6   1 -10   60.44    6.28
   5  -1 -10    5.07    4.31
  -5  -1  10    2.89    2.83
  -5  -1  10    1.03    2.71
   5  -1 -10   -4.01    8.23
   5   1 -10    0.62    3.06
   5   1 -10   -1.02    3.02
  -5   1  10    1.98    2.73
  -5   1  10    2.74    3.10
  -5   1  10    0.66    2.48
   4  -1 -10  129.39    7.77
   4  -1 -10  120.19    7.98
  -4  -1  10  122.31    6.39
   4  -1 -10  113.74    9.17
  -4  -1  10  121.08    5.80
   4  -1 -10  130.43    8.77
  -4  -1  10  116.76    7.20
   4   1 -10  138.76    8.93
  -4   1  10  122.40    6.97
   4   1 -10  115.69    7.53
  -4   1  10  131.07    6.14
  -4   1  10  124.96    7.18
  -4   1  10  118.94    4.51
  -4   1  10  132.46    6.88
   4   1 -10  126.28    6.98
   4   1 -10  128.47    7.87
  -3  -1  10   38.22    4.04
   3  -1 -10   55.33    6.67
   3  -1 -10   27.26    4.19
   3  -1 -10   33.74    5.30
  -3  -1  10   36.62    4.42
   3  -1 -10   36.07    4.45
  -3   1  10   35.65    3.87
   3   1 -10   27.19    4.12
  -3   1  10   33.07    4.21
   3   1 -10   35.76    4.69
  -3   1  10   30.32    3.42
  -3   1  10   28.60    4.02
   3   1 -10   33.55    4.94
   3   1 -10   34.56    4.49
   2  -1 -10   77.36    5.91
  -2  -1  10   67.77    4.74
   2  -1 -10   62.52    6.58
  -2  -1  10   62.31    5.04
   2  -1 -10   74.55    6.68
  -2   1  10   69.16    4.86
   2   1 -10   68.69    5.33
   2   1 -10   70.25    5.16
  -2   1  10   61.41    5.53
  -2   1  10   69.04    5.51
   2   1 -10   71.67    6.61
  -2   1  10   75.79    4.78
   1  -1 -10   80.34    6.26
  -1  -1  10   79.66    5.56
   1  -1 -10   83.25    6.93
  -1  -1  10   78.76    5.15
   1  -1 -10   85.67    6.00
   1  -1 -10   89.58    6.72
  -1   1  10   90.06    5.16
  -1   1  10   89.22    5.76
  -1   1  10   82.66    5.16
   1   1 -10   84.96    5.72
  -1   1  10   83.03    6.18
   1   1 -10   78.65    6.59
   1   1 -10   77.80    5.39
   0  -1 -10   20.80    4.12
   0  -1  10   16.24    3.03
   0  -1  10   14.80    3.15
   0  -1 -10   13.71    3.59
   0  -1 -10   11.48    3.35
   0  -1 -10   26.05    4.86
   0   1  10   15.88    2.99
   0   1 -10   17.85    3.60
   0   1 -10   15.85    3.06
   0   1 -10   16.84    3.43
   0   1  10   13.49    3.29
   0   1 -10   14.81    3.61
   0   1  10   17.25    3.55
   0   1  10   23.90    3.24
  -1  -1 -10   74.27    8.20
  -1  -1 -10   99.61    7.51
  -1  -1 -10   87.48    7.31
   1  -1  10   96.88    6.09
  -1  -1 -10   89.15    6.99
   1  -1  10   85.32    5.79
  -1   1 -10   92.53    6.71
  -1   1 -10   87.75    7.05
   1   1  10   93.80    5.96
   1   1  10   97.45    5.78
  -1   1 -10   93.35    7.58
  -1   1 -10   89.22    6.10
   1   1  10   91.53    6.71
   2  -1  10    1.21    3.52
  -2  -1 -10   -0.27    4.15
  -2  -1 -10   -3.72    3.45
  -2  -1 -10   -1.54    3.93
   2  -1  10    4.51    2.59
   2   1  10    5.16    3.77
  -2   1 -10    0.44    4.33
  -2   1 -10    0.63    3.06
  -2   1 -10   -0.77    3.25
   2   1  10    1.27    2.97
   3  -1  10   66.28    5.74
  -3  -1 -10   68.63    8.30
   3  -1  10   69.44    4.65
   3  -1  10   73.86    7.73
  -3  -1 -10   53.76    6.45
  -3  -1 -10   64.39    7.78
  -3   1 -10   62.63    7.12
  -3   1 -10   62.87    7.33
   3   1  10   59.77    6.44
   3   1  10   72.41    7.28
  -3   1 -10   71.85    8.15
  -3   1 -10   83.77    8.39
  -4  -1 -10   17.10    5.64
  -4  -1 -10    2.72    5.26
  -4  -1 -10    4.90    5.18
  -4   1 -10   -1.47    4.91
   4   1  10   12.22    5.35
  -4   1 -10    9.91    5.48
  -4   1 -10    8.27    4.83
   4   1  10   15.24    5.56
  -5  -1 -10   21.21    6.47
  -5  -1 -10   11.53    6.67
  -5  -1 -10   43.03    7.51
  -5   1 -10   35.55    7.35
   5   1  10   29.78    6.29
  -5   1 -10   21.98    6.24
  -5   1 -10   28.86    7.10
   8  -2 -10   14.56    6.52
   8  -2 -10    8.99    6.06
   8  -2 -10  -11.07    5.33
  -8  -2  10    2.58    3.85
  -8  -2  10    4.74    3.66
  -8   2  10    6.35   10.29
   8   2 -10    0.54    5.47
  -8   2  10    2.87    5.23
   8   2 -10   -0.63    6.14
   8   2 -10    6.71    5.17
  -8   2  10   -1.88    3.86
   7  -2 -10   70.38    7.74
   7  -2 -10   52.09    6.64
   7  -2 -10   81.53    9.02
  -7  -2  10   63.14    6.84
  -7   2  10   50.60   10.50
   7   2 -10   60.87    8.35
   7   2 -10   59.50    7.39
  -7   2  10   68.77    8.65
  -7   2  10   77.84    6.57
   7   2 -10   61.59    7.23
  -6  -2  10    2.87    3.03
   6  -2 -10   -3.85    4.08
   6  -2 -10    3.81    4.00
  -6  -2  10    2.22    3.15
   6  -2 -10    4.51    4.44
  -6   2  10    0.19    2.81
  -6   2  10    3.32    4.10
   6   2 -10   -0.67    4.58
   6   2 -10   -0.25    3.32
  -6   2  10    2.66    4.09
   6   2 -10    0.86    3.92
  -5  -2  10  105.19    7.04
   5  -2 -10   96.67   12.96
   5  -2 -10  102.60    8.42
   5  -2 -10  112.96    8.74
  -5  -2  10  110.17    6.25
  -5  -2  10  103.38    6.19
   5   2 -10  102.42    9.75
  -5   2  10  105.49    7.05
   5   2 -10  117.24    7.52
  -5   2  10   98.18    6.84
   5   2 -10  117.46    7.02
  -5   2  10  117.13    7.89
  -4  -2  10    0.71    2.28
   4  -2 -10   -3.10    3.42
  -4  -2  10   -1.99    2.16
  -4  -2  10   -1.35    2.31
   4  -2 -10   -0.66    5.08
   4  -2 -10    1.00    3.56
   4  -2 -10   -2.55    3.75
  -4   2  10    1.55    2.52
   4   2 -10   -5.14    3.12
  -4   2  10   -1.45    3.84
   4   2 -10    0.33    3.63
  -4   2  10    0.40    2.98
   4   2 -10    2.58    2.56
   4   2 -10   -2.49    4.26
  -4   2  10    1.52    2.44
  -4   2  10    3.68    2.53
   4   2 -10    3.82    2.92
   3  -2 -10  131.23    8.33
   3  -2 -10  138.85    8.12
   3  -2 -10  135.79    9.34
   3  -2 -10  158.84    9.20
  -3  -2  10  138.77    7.54
   3   2 -10  146.52    7.20
   3   2 -10  142.16    8.82
   3   2 -10  137.51    6.90
   3   2 -10  137.12    6.84
  -3   2  10  131.84    7.47
  -3   2  10  141.38    6.98
  -3   2  10  148.30    8.00
  -3   2  10  132.21    7.61
   2  -2 -10    4.24    4.14
  -2  -2  10    3.57    2.47
   2  -2 -10    3.56    3.56
   2  -2 -10    3.04    3.15
   2   2 -10    0.58    2.53
  -2   2  10    0.69    2.39
  -2   2  10    3.90    2.51
   2   2 -10   -2.76    2.09
   2   2 -10    0.18    3.03
   2   2 -10    2.15    2.15
  -2   2  10    2.89    3.20
  -2   2  10    0.69    2.81
   1  -2 -10  112.68    8.09
  -1  -2  10  117.63    6.62
   1  -2 -10  121.84    7.82
   1  -2 -10  125.41    7.41
   1  -2 -10  112.49    8.39
   1   2 -10  107.65    6.06
   1   2 -10  115.02    7.23
   1   2 -10  133.12    6.46
  -1   2  10  118.63    6.54
  -1   2  10  121.86    6.83
  -1   2  10  116.27    7.10
  -1   2  10  116.00    6.89
   1   2 -10  114.37    6.38
   0  -2 -10    8.25    3.99
   0  -2  10    9.14    3.96
   0  -2 -10    6.41    3.67
   0  -2 -10    4.37    4.95
   0  -2  10   11.26    3.08
   0  -2 -10    6.40    3.38
   0   2  10    5.45    2.66
   0   2 -10    9.11    2.64
   0   2 -10    6.93    3.11
   0   2  10    7.27    3.46
   0   2  10    5.38    3.41
   0   2 -10    7.66    2.71
   0   2 -10    8.48    3.14
  -1  -2 -10   29.61    4.88
  -1  -2 -10   31.25    5.21
   1  -2  10   36.37    4.71
  -1  -2 -10   25.40    7.23
   1  -2  10   27.52    3.73
  -1  -2 -10   38.23    5.24
   1   2  10   36.57    4.86
  -1   2 -10   32.59    4.56
  -1   2 -10   31.87    4.04
   1   2  10   38.14    4.78
  -1   2 -10   32.30    5.66
  -1   2 -10   33.47    4.20
   1   2  10   28.01    3.85
   2  -2  10   -1.52    2.64
  -2  -2 -10   -2.87    3.54
  -2  -2 -10   -2.85    3.81
   2  -2  10   -0.03    3.15
  -2  -2 -10   -6.60    3.75
  -2   2 -10   -0.68    3.30
  -2   2 -10   -0.33    3.91
   2   2  10    0.37    3.91
  -2   2 -10    3.74    2.93
   2   2  10    7.63    3.70
   3  -2  10    4.31    2.96
  -3  -2 -10    2.30    4.26
  -3  -2 -10   -4.00    4.01
  -3  -2 -10    3.76    4.21
   3   2  10    8.92    4.67
  -3   2 -10    1.31    3.47
   3   2  10   -2.28    4.60
  -3   2 -10    8.80    4.83
  -3   2 -10    3.27    3.93
  -3   2 -10   -2.66    4.55
   4  -2  10   -3.42    3.18
  -4  -2 -10   -0.90    4.96
  -4  -2 -10    2.29    4.82
  -4  -2 -10   -1.91    4.56
   4   2  10   -0.93    6.41
   4   2  10   -1.47    4.99
  -4   2 -10    6.44    5.91
  -4   2 -10    6.33    5.04
  -4   2 -10    5.05    4.76
  -5  -2 -10   40.50    7.98
  -5  -2 -10   40.84    7.37
   5  -2  10   32.97    4.81
  -5  -2 -10   18.45    6.38
  -5   2 -10   22.22    6.31
  -5   2 -10   30.82    7.70
  -5   2 -10   31.26    7.06
   5   2  10   32.41    6.59
   8  -3 -10   42.38    7.51
  -8  -3  10   25.90    4.46
   8  -3 -10   31.18    7.07
   8  -3 -10   20.05    6.74
  -8  -3  10   32.82    5.26
  -8   3  10   40.07    8.96
   8   3 -10   53.92    6.79
   8   3 -10   25.22    7.05
  -8   3  10   35.31    5.64
   8   3 -10   42.23    6.80
  -8   3  10   20.38    6.26
   7  -3 -10   17.88    5.27
   7  -3 -10   20.93    5.79
  -7  -3  10   16.97    5.11
   7  -3 -10   10.21    5.39
  -7  -3  10   15.47    4.13
  -7   3  10   11.27    3.79
  -7   3  10    0.79    6.19
  -7   3  10    3.61    4.69
   7   3 -10    9.15    4.36
   7   3 -10   10.01    5.91
   6  -3 -10  129.26    9.80
  -6  -3  10  131.63    7.46
   6  -3 -10  130.15    9.55
  -6  -3  10  129.57    8.51
   6  -3 -10  116.18    9.53
  -6   3  10  130.08    7.78
   6   3 -10  132.19    8.77
  -6   3  10  144.32    9.58
   6   3 -10  144.05    8.08
  -6   3  10  128.89   10.06
   6   3 -10  140.37    9.70
   5  -3 -10   -6.67    4.15
  -5  -3  10   -2.40    2.70
   5  -3 -10   -5.71    3.34
  -5  -3  10    1.72    2.89
   5   3 -10   -2.19    2.86
  -5   3  10    1.31    2.54
   5   3 -10   -2.00    3.12
   5   3 -10    3.20    4.02
  -5   3  10   -6.23    3.82
  -5   3  10   -2.64    3.86
  -4  -3  10  144.85    6.13
   4  -3 -10  132.96    9.58
  -4  -3  10  130.60    7.74
   4  -3 -10  157.38    9.37
  -4  -3  10  138.68    5.72
   4  -3 -10  136.64    9.26
   4   3 -10  129.80    8.00
   4   3 -10  140.52    7.00
   4   3 -10  131.35    8.99
  -4   3  10  142.46    8.55
  -4   3  10  139.92    7.95
  -4   3  10  132.60    7.34
   4   3 -10  132.92    6.94
   4   3 -10  140.99    7.29
   3  -3 -10    2.58    3.74
   3  -3 -10    7.59    3.96
   3  -3 -10   13.04    4.49
  -3  -3  10   10.02    3.11
  -3  -3  10    7.96    1.91
  -3  -3  10    4.42    2.22
   3   3 -10   10.10    2.51
   3   3 -10    6.89    3.93
   3   3 -10   13.30    2.93
  -3   3  10    7.00    2.99
  -3   3  10   10.67    2.08
  -3   3  10   10.68    4.18
  -3   3  10   10.07    3.05
  -3   3  10    8.60    3.53
   3   3 -10    8.36    2.64
   2  -3 -10   88.59   10.65
   2  -3 -10   90.20    7.72
   2  -3 -10   92.07    7.55
  -2  -3  10   89.65    6.14
  -2  -3  10   95.41    4.17
   2  -3 -10   94.26    6.86
  -2  -3  10   94.35    4.10
  -2   3  10   86.24    6.13
   2   3 -10  100.50    5.48
   2   3 -10   97.57    5.45
  -2   3  10   99.54    7.52
  -2   3  10  102.40    6.78
   2   3 -10   92.94    5.44
   2   3 -10  106.73    7.11
  -2   3  10   98.67    6.52
  -1  -3  10   49.69    4.76
  -1  -3  10   50.91    3.37
   1  -3 -10   60.08    6.60
  -1  -3  10   45.60    3.45
   1  -3 -10   59.31    6.26
   1  -3 -10   56.14    6.66
   1   3 -10   46.81    5.23
   1   3 -10   51.44    4.35
   1   3 -10   52.13    4.46
  -1   3  10   45.90    5.64
  -1   3  10   45.37    5.26
   1   3 -10   55.76    4.46
  -1   3  10   51.47    6.58
   0  -3 -10    9.59    4.08
   0  -3 -10    8.77    3.95
   0  -3 -10   11.11    4.03
   0  -3  10    6.57    2.77
   0  -3  10    5.25    2.09
   0   3 -10    5.36    2.72
   0   3  10    4.44    3.39
   0   3 -10    7.69    2.45
   0   3 -10    9.17    2.88
   0   3  10    6.44    3.43
   0   3  10   -2.57    4.16
   0   3 -10   14.71    3.28
  -1  -3 -10   56.80    7.08
   1  -3  10   57.37    4.92
  -1  -3 -10   63.00    6.85
   1  -3  10   52.24    4.82
  -1   3 -10   49.42    5.20
   1   3  10   49.84    6.44
   1   3  10   72.40    6.90
  -1   3 -10   47.91    5.04
  -1   3 -10   58.77    6.24
  -2  -3 -10   11.97    7.01
  -2  -3 -10   -3.29    4.10
   2  -3  10   -4.43    2.59
  -2  -3 -10    3.79    3.92
  -2  -3 -10    2.37    4.21
  -2   3 -10    2.46    3.90
  -2   3 -10    2.65    3.09
   2   3  10    4.10    4.43
  -2   3 -10    5.49    2.86
   2   3  10    2.32    4.17
   3  -3  10   25.16    3.85
  -3  -3 -10   42.47    6.63
  -3  -3 -10   29.31    5.04
  -3  -3 -10   27.59    5.58
  -3   3 -10   21.90    5.68
   3   3  10   27.36    6.05
  -3   3 -10   23.01    5.94
  -3   3 -10   31.87    5.10
   3   3  10   30.16    6.02
  -4  -3 -10   20.26    6.08
  -4  -3 -10   20.03    5.66
  -4  -3 -10    4.70    5.43
   4  -3  10   18.96    4.18
  -4   3 -10    8.84    4.81
  -4   3 -10   15.99    5.51
   4   3  10   13.88    5.68
   4   3  10    9.37    7.34
  -4   3 -10   29.88    6.58
   7  -4 -10   10.86    5.43
   7  -4 -10   10.12    5.46
   7  -4 -10    2.00    5.39
  -7  -4  10    9.74    5.51
   7   4 -10    2.34    4.06
   7   4 -10    6.52    5.89
  -7   4  10   -5.13    4.91
  -7   4  10    2.81    3.48
   6  -4 -10    0.88    4.17
   6  -4 -10    4.88    4.68
  -6  -4  10    0.67    3.22
  -6  -4  10    8.09    3.60
   6  -4 -10    5.70    4.62
   6   4 -10   -0.14    3.93
  -6   4  10   11.00    3.47
   6   4 -10   -0.81    4.40
   6   4 -10    5.47    3.42
  -6   4  10    3.21    5.19
  -6   4  10    1.25    4.10
  -5  -4  10    6.81    2.98
  -5  -4  10   12.07    3.77
   5  -4 -10    0.42    4.08
   5  -4 -10    7.69    4.12
   5  -4 -10   -1.79    3.64
   5   4 -10    5.65    3.25
  -5   4  10    1.54    4.29
   5   4 -10    7.63    3.47
  -5   4  10    5.87    4.85
  -5   4  10   11.48    3.56
   5   4 -10   14.36    4.49
  -4  -4  10    2.96    2.40
   4  -4 -10   -4.75    4.40
  -4  -4  10    0.79    2.71
   4   4 -10   -0.55    2.49
   4   4 -10   -1.90    2.37
   4   4 -10    4.27    4.58
  -4   4  10   -1.92    2.45
  -4   4  10    2.18    3.71
  -4   4  10    7.16    4.24
  -3  -4  10    9.24    2.97
   3  -4 -10   11.33    4.18
   3  -4 -10    8.45    4.02
   3   4 -10   10.84    2.56
   3   4 -10   -0.10    4.11
  -3   4  10   10.96    3.80
   3   4 -10    8.13    2.40
  -3   4  10   10.46    3.90
  -3   4  10    8.12    2.90
   3   4 -10   10.88    2.43
   2  -4 -10   24.51    4.90
  -2  -4  10   38.50    4.54
   2  -4 -10   19.97    4.80
   2  -4 -10   26.66    5.15
  -2   4  10   28.87    3.51
   2   4 -10   29.27    3.14
   2   4 -10   33.46    5.21
   2   4 -10   28.44    4.53
  -2   4  10   30.36    3.79
  -2   4  10   16.87    4.12
   2   4 -10   27.33    2.99
  -2   4  10   23.58    3.88
  -2   4  10   23.67    4.20
   2   4 -10   28.27    2.96
   1  -4 -10    3.00    4.06
   1  -4 -10    0.91    3.78
   1  -4 -10    9.40    4.20
  -1  -4  10    4.53    2.63
  -1   4  10    4.29    3.31
   1   4 -10    3.05    3.16
  -1   4  10    3.10    1.54
   1   4 -10    1.67    2.04
   1   4 -10    5.42    2.14
   1   4 -10    4.95    2.18
  -1   4  10    4.57    3.64
  -1   4  10    3.10    1.70
   0  -4 -10   68.38    7.41
   0  -4 -10   70.60    8.12
   0  -4 -10   67.95    8.43
   0  -4  10   75.13    5.68
   0   4  10   71.95    6.92
   0   4 -10   80.64    5.37
   0   4  10   75.63    4.29
   0   4  10   78.89    7.60
   0   4 -10   86.45    6.14
   0   4 -10   85.34    5.13
   0   4 -10   80.78    5.00
   0   4 -10   85.40    7.96
  -1  -4 -10   -0.41    4.16
  -1  -4 -10    0.30    3.90
   1  -4  10    0.66    2.69
  -1  -4 -10   -4.16    4.65
  -1   4 -10   -4.98    2.52
  -1   4 -10    2.57    2.67
   1   4  10    3.14    4.15
   1   4  10    0.63    3.68
  -1   4 -10    1.54    3.22
  -1   4 -10    3.91    4.45
   2  -4  10  140.82    7.19
  -2  -4 -10  136.67    9.38
  -2  -4 -10  141.14    9.91
  -2  -4 -10  152.60    9.83
  -2  -4 -10  123.94   13.92
   2   4  10  126.66   12.10
  -2   4 -10  140.32   10.32
   2   4  10  139.41   14.67
  -2   4 -10  137.54    7.26
   2   4  10  124.82    6.13
  -2   4 -10  128.98    7.84
  -3  -4 -10   -2.71    4.63
  -3  -4 -10    3.93    4.25
   3  -4  10   -0.33    3.29
  -3  -4 -10   -1.36    4.82
   3   4  10    1.10    6.30
  -3   4 -10   -5.83    4.36
   3   4  10   -0.37    4.75
  -3   4 -10   -5.60    4.71
  -3   4 -10    1.81    3.79
  -4  -4 -10  164.42   12.11
  -4  -4 -10  149.44   11.32
  -4  -4 -10  149.59   11.63
   4   4  10  163.86   11.64
  -4   4 -10  184.13   12.76
   4   4  10  160.21   12.88
  -4   4 -10  158.20   10.62
  -4   4 -10  151.29   11.29
  -7  -5  10   22.40    4.26
  -7  -5  10   23.18    4.66
   7  -5 -10   18.32    6.42
   7  -5 -10   11.18    6.31
   7  -5 -10   17.30    6.28
   7   5 -10   20.08    4.52
  -7   5  10   18.25    6.88
  -7   5  10   18.45    5.96
   7   5 -10   17.25    6.42
  -6  -5  10   45.88    8.31
   6  -5 -10   46.58    6.62
   6  -5 -10   40.65    6.32
   6  -5 -10   46.26    6.58
  -6  -5  10   50.34    5.82
   6   5 -10   48.44    5.18
   6   5 -10   59.65    7.48
   6   5 -10   34.48    6.12
  -6   5  10   43.16    9.07
   6   5 -10   44.68    5.71
  -6   5  10   38.76    5.98
  -6   5  10   38.54    5.15
  -5  -5  10    4.82    2.92
  -5  -5  10   -3.77    2.95
   5  -5 -10   -1.75    3.98
   5  -5 -10   -0.66    4.12
   5  -5 -10    0.40    4.48
   5   5 -10    5.10    4.77
  -5   5  10    1.90    4.18
   5   5 -10   -1.30    3.02
   5   5 -10    1.45    3.35
   5   5 -10    4.41    2.81
  -5   5  10    4.02    5.49
  -5   5  10    5.65    3.16
  -4  -5  10   48.96    4.36
   4  -5 -10   48.61    6.59
   4  -5 -10   42.09    5.39
  -4  -5  10   53.55    5.33
   4  -5 -10   46.00    6.07
  -4   5  10   53.34    5.45
   4   5 -10   54.37    4.95
   4   5 -10   42.17    4.27
  -4   5  10   48.11    6.13
   4   5 -10   48.04    8.19
  -3  -5  10   22.20    3.76
   3  -5 -10   23.13    6.21
   3  -5 -10   18.02    7.20
  -3   5  10   24.90    4.69
  -3   5  10   20.75    4.82
   3   5 -10   24.17    5.26
   3   5 -10   24.27    3.10
   3   5 -10   31.97    3.96
   3   5 -10   30.30    3.48
  -3   5  10   24.44    3.89
  -2  -5  10   26.70    3.93
  -2   5  10   38.18    3.81
   2   5 -10   37.58    3.38
  -2   5  10   34.19    5.63
   2   5 -10   39.39    3.93
   2   5 -10   37.24    4.98
  -2   5  10   46.53    6.08
   2   5 -10   32.71    3.15
   1  -5 -10   69.23    9.17
  -1  -5  10   84.53    5.86
   1   5 -10   76.79    4.13
   1   5 -10   77.89    6.64
  -1   5  10   80.50    4.83
  -1   5  10   67.93    6.97
  -1   5  10   82.17    8.03
   1   5 -10   77.44    4.35
   1   5 -10   81.27    4.91
   0  -5 -10   -1.04    3.77
   0  -5 -10   -1.39    3.50
   0  -5  10    4.80    2.80
   0  -5 -10    3.03    4.51
   0   5  10    3.13    4.15
   0   5 -10   -2.00    1.97
   0   5  10    6.66    4.61
   0   5 -10    0.10    2.41
   0   5  10   -2.09    2.26
   0   5 -10    1.22    2.11
   0   5 -10   -1.27    2.69
  -1  -5 -10  108.91    8.66
  -1  -5 -10  117.99    8.89
   1  -5  10  111.51    6.47
  -1  -5 -10  126.99    8.65
  -1   5 -10  101.58    6.56
   1   5  10  114.64    9.69
  -1   5 -10  109.27    6.71
  -1   5 -10   99.10    6.53
   1   5  10  103.28    5.93
  -1   5 -10  102.15    8.37
   1   5  10  103.74    8.87
  -2  -5 -10   -4.39    4.41
  -2  -5 -10    3.23    4.47
   2  -5  10   -1.57    3.01
   2   5  10   -0.77    3.13
   2   5  10   -0.91    5.60
   2   5  10   -3.33    4.59
  -2   5 -10   -5.21    3.57
  -2   5 -10   -1.31    2.99
  -2   5 -10   -1.31    5.97
  -2   5 -10    1.65    4.74
  -3  -5 -10   68.01    8.61
  -3  -5 -10   74.32    9.33
  -3  -5 -10   66.86    8.13
   3  -5  10   71.53    8.37
  -3   5 -10   83.24    9.62
   3   5  10   63.57    9.03
  -3   5 -10   70.38    6.93
   3   5  10   74.64    8.03
  -3   5 -10   66.95    8.28
  -4  -5 -10   12.14    5.92
  -4  -5 -10   12.15    6.45
  -4  -5 -10    6.91    4.67
  -4  -5 -10   -3.09    5.66
   4  -5  10    1.35    4.71
  -4   5 -10    9.25    6.79
   4   5  10   16.14    6.80
  -4   5 -10   10.72    6.28
   4   5  10   10.47    7.07
   7  -6 -10   59.68    8.52
   7  -6 -10   58.70    8.16
  -7  -6  10   52.67    6.50
   7  -6 -10   66.60    8.25
  -7  -6  10   42.23    6.25
  -7   6  10   40.27    5.21
   7   6 -10   60.47    8.95
  -7   6  10   58.52    7.72
   7   6 -10   46.04    5.45
  -7   6  10   64.74    8.48
  -6  -6  10    7.14    4.44
   6  -6 -10    7.36    5.69
   6  -6 -10   11.85    5.61
  -6  -6  10   -2.68    3.67
   6  -6 -10    9.54    5.63
   6   6 -10    2.06    3.11
   6   6 -10    7.97    5.53
  -6   6  10    0.30    5.82
  -6   6  10   -2.90    3.31
   6   6 -10   -3.34    4.36
  -6   6  10    2.25    5.20
   5  -6 -10   75.72    8.11
  -5  -6  10   84.78    6.02
  -5  -6  10   71.63    6.83
   5  -6 -10   81.44    8.39
   5  -6 -10   60.39    7.24
  -5   6  10   71.07    8.48
   5   6 -10   87.65    6.74
   5   6 -10   64.30    7.20
  -5   6  10   74.93    6.48
   5   6 -10   78.80    5.82
   5   6 -10   78.96    8.48
  -4  -6  10    3.08    3.05
   4  -6 -10    7.17    4.71
   4  -6 -10    0.97    4.10
  -4   6  10   -6.93    4.04
   4   6 -10    4.65    1.92
   4   6 -10    5.58    4.31
  -4   6  10    7.15    3.17
  -4   6  10    1.85    5.23
   4   6 -10    6.84    2.93
  -3  -6  10   89.09    6.64
   3  -6 -10   70.45    7.87
   3  -6 -10   92.05    8.39
   3  -6 -10   95.68    8.47
  -3   6  10   82.93    6.19
   3   6 -10   84.48    5.27
  -3   6  10   96.44    7.98
  -3   6  10   83.89    9.76
   3   6 -10   89.60    3.73
   3   6 -10   87.80    8.33
   2  -6 -10    2.97    4.26
   2  -6 -10    0.14    3.76
   2  -6 -10    6.61    4.02
  -2  -6  10    2.22    2.69
   2   6 -10    3.20    4.27
   2   6 -10    2.40    2.28
  -2   6  10    9.40    4.21
  -2   6  10   -1.62    4.45
  -2   6  10    3.27    2.70
   2   6 -10    3.80    1.29
   1  -6 -10   72.02    7.66
   1  -6 -10   82.99    7.95
   1  -6 -10   61.68    7.24
  -1  -6  10   75.52    5.80
  -1   6  10   73.82    5.47
  -1   6  10   77.33    8.57
   1   6 -10   82.63    9.29
   1   6 -10   80.76    6.89
  -1   6  10   84.35    7.96
   1   6 -10   69.47    4.90
   1   6 -10   75.34    3.87
   1   6 -10   80.40    3.39
   0  -6  10    2.61    2.92
   0  -6 -10    0.06    4.17
   0  -6 -10    8.14    4.39
   0  -6 -10    6.12    3.91
   0   6 -10    3.75    2.66
   0   6  10    1.48    3.95
   0   6 -10    2.65    4.66
   0   6 -10    2.51    1.74
   0   6  10    3.19    2.91
   0   6  10    9.00    5.58
   0   6 -10    0.39    2.76
   1  -6  10   44.43    4.64
  -1  -6 -10   32.35    6.21
  -1  -6 -10   34.87    5.81
  -1  -6 -10   36.80    6.20
   1   6  10   33.75    4.26
  -1   6 -10   32.91    4.24
  -1   6 -10   43.67    6.64
   1   6  10   31.86    5.87
  -1   6 -10   36.30    4.58
   1   6  10   42.77    7.37
  -1   6 -10   36.71    4.35
  -2  -6 -10   26.71    5.77
  -2  -6 -10   19.28    5.72
   2  -6  10   20.55    5.26
   2  -6  10   27.93    4.18
   2   6  10   37.93    4.57
  -2   6 -10   31.35    6.20
   2   6  10   32.27    6.19
  -2   6 -10   24.69    4.96
  -2   6 -10   24.03    4.86
   2   6  10   45.01    7.10
   3  -6  10    4.00    4.76
  -3  -6 -10    5.65    5.02
  -3  -6 -10    6.05    5.96
  -3  -6 -10   -4.00    5.51
   3   6  10    5.35    5.92
  -3   6 -10    1.76    6.11
  -3   6 -10   -2.25    5.73
   3   6  10   -9.72    6.13
   6  -7 -10  107.43   12.01
  -6  -7  10   88.95    7.89
  -6  -7  10   81.68    7.74
   6  -7 -10  122.85   10.99
   6  -7 -10  105.26   10.98
   6   7 -10  116.80   11.75
   6   7 -10  110.18    6.60
  -6   7  10  121.03   11.47
  -6   7  10   98.31   10.75
   5  -7 -10    5.72    5.15
  -5  -7  10    9.61    3.49
   5  -7 -10    5.20    5.54
  -5  -7  10    6.68    3.53
   5   7 -10   10.03    4.99
  -5   7  10   15.87    5.47
  -5   7  10   -4.35    5.31
   5   7 -10    4.48    2.86
  -5   7  10    1.78    3.37
   4  -7 -10  128.91    9.84
   4  -7 -10   85.10    9.46
  -4  -7  10  109.82    7.92
   4  -7 -10  110.84    9.50
  -4   7  10  117.01    9.71
  -4   7  10  109.32    9.79
  -4   7  10  125.04    7.83
   4   7 -10  126.97    9.91
   3  -7 -10    9.36    4.47
   3  -7 -10   12.12    5.05
   3  -7 -10    6.82    4.95
  -3  -7  10   17.93    4.07
  -3   7  10   12.86    3.83
  -3   7  10   10.76    7.17
  -3   7  10   12.54    4.84
   3   7 -10    7.65    6.50
  -2  -7  10   73.30    6.31
   2  -7 -10   66.61    7.88
   2  -7 -10   69.73    8.46
   2  -7 -10   75.03    8.55
  -2   7  10   76.79    8.51
  -2   7  10   70.36    6.35
   2   7 -10   83.73    8.20
   2   7 -10   74.13    9.04
   1  -7 -10   23.00    5.30
  -1  -7  10   16.07    3.78
   1  -7 -10   19.97    5.19
   1  -7 -10   14.97    5.22
   1   7 -10   17.54    4.01
  -1   7  10   21.40    3.82
  -1   7  10   21.21    5.49
   1   7 -10   21.33    6.23
   0  -7 -10   31.53    5.92
   0  -7 -10   35.45    6.06
   0  -7 -10   32.61    5.90
   0  -7  10   37.07    4.60
   0   7  10   40.75    6.89
   0   7  10   26.34    4.45
   0   7  10   36.79    6.28
   0   7 -10   36.95    4.41
   0   7 -10   38.78    6.34
   1  -7  10   33.97    5.65
  -1  -7 -10   22.16    5.67
  -1  -7 -10   24.27    5.56
   1  -7  10   29.12    4.42
   1   7  10   32.35    6.47
   1   7  10   29.89    6.16
   1   7  10   19.77    4.29
  -1   7 -10   23.89    6.27
  -1   7 -10   24.93    3.28
  -1   7 -10   22.96    3.87
   2  -7  10   -1.47    4.43
  -2  -7 -10    7.54    5.72
  -2  -7 -10    3.34    6.77
  -2  -7 -10   -4.38    5.36
   2   7  10   11.70    6.17
   2   7  10   -1.32    4.69
   2   7  10   -3.02    5.80
  -2   7 -10    1.59    5.41
  -3  -7 -10   26.49    6.94
  -3  -7 -10    5.05    5.50
   3  -7  10   15.05    5.55
  -3  -7 -10    6.78    6.89
  -3   7 -10    0.58    6.90
  -3   7 -10   -3.17    6.56
  -3   7 -10   11.11    3.79
   3   7  10   -5.93    6.72
   3   7  10   25.15    7.71
   5  -8 -10   35.12    7.09
  -5  -8  10   18.71    4.17
   5  -8 -10    4.83    5.84
   5  -8 -10   15.41    6.39
  -5   8  10   24.43    5.10
  -5   8  10   34.21    7.17
  -5   8  10   17.66    6.70
   5   8 -10    9.79    6.36
   4  -8 -10   -1.10    5.85
   4  -8 -10   -4.15    4.69
   4  -8 -10   -2.86    5.34
  -4   8  10   -6.89    5.33
   4   8 -10   -0.50    4.92
  -4   8  10   -5.63    4.78
  -4   8  10   -2.00    5.53
   3  -8 -10    8.42    4.99
   3  -8 -10   18.55    5.58
   3  -8 -10   11.45    5.48
  -3  -8  10   11.94    4.19
   3   8 -10   16.54    3.91
  -3   8  10   20.26    5.79
  -3   8  10    8.69    4.15
  -3   8  10   12.55    6.01
   3   8 -10   13.47    4.96
   2  -8 -10    9.72    5.18
  -2  -8  10   10.19    3.61
   2  -8 -10    3.61    4.51
   2  -8 -10   16.28    5.57
   2   8 -10   15.00    4.59
   2   8 -10   15.74    6.33
  -2   8  10    8.56    5.30
   2   8 -10   12.59    4.89
  -2   8  10   10.49    5.52
  -2   8  10    8.10    4.21
   1  -8 -10    3.74    5.09
   1  -8 -10    5.84    5.22
   1  -8 -10    7.98    4.95
  -1  -8  10    7.52    3.55
  -1   8  10   20.79    4.89
  -1   8  10    6.80    5.80
   1   8 -10    6.81    4.48
   1   8 -10   11.39    5.29
   1   8 -10   11.02    4.93
  -1   8  10    1.37    5.20
   0  -8 -10   58.12    7.89
   0  -8  10   70.22    6.68
   0  -8 -10   73.57    9.74
   0  -8 -10   60.02    7.66
   0   8 -10   59.28    6.69
   0   8 -10   57.88    6.84
   0   8  10   51.60    7.48
   0   8  10   60.95    8.00
   0   8 -10   55.76    7.35
   0   8  10   71.51    8.49
   1  -8  10    6.30    4.57
  -1  -8 -10   -3.60    5.76
  -1  -8 -10   -3.88    5.46
   1   8  10   -0.61    5.93
   1   8  10    7.08    5.54
   1   8  10   10.66    6.30
  -1   8 -10   -7.50    5.66
  -1   8 -10    6.22    5.40
  -2  -8 -10  101.03   11.66
   2  -8  10  120.94   10.05
  -2  -8 -10  114.31   12.03
  -2  -8 -10  108.73   11.56
   2   8  10  114.50   12.23
  -2   8 -10  156.27   12.40
  -2   8 -10   88.23   11.84
   2   8  10  104.92   12.79
   4  -9 -10   15.42    7.22
  -4  -9  10   28.55    6.43
   4  -9 -10   19.34    6.66
   4  -9 -10   12.12    6.53
  -4   9  10   23.30    5.29
  -4   9  10   26.82    7.18
   4   9 -10   26.62    6.69
   4   9 -10   20.93    7.96
  -4   9  10   26.80    7.08
   3  -9 -10   24.39    6.39
   3  -9 -10   16.24    6.94
  -3  -9  10   20.43    5.52
   3  -9 -10   15.38    6.05
  -3   9  10   16.48    6.49
   3   9 -10   22.58    5.87
  -3   9  10   25.76    5.15
  -3   9  10   17.19    6.59
   3   9 -10   16.08    6.35
   2  -9 -10   17.88    6.14
  -2  -9  10   14.33    4.29
   2  -9 -10    9.41    5.96
   2  -9 -10   22.01    6.53
   2   9 -10   13.43    6.95
   2   9 -10   11.31    5.95
  -2   9  10   19.27    7.05
   2   9 -10   21.67    5.59
  -2   9  10   17.75    6.55
  -2   9  10   14.00    6.53
   1  -9 -10   77.53    8.57
   1  -9 -10   84.64   10.13
   1  -9 -10   77.25    9.34
  -1  -9  10   71.62    7.37
   1   9 -10   77.90   10.12
  -1   9  10   93.12    9.63
   1   9 -10   85.14    9.86
  -1   9  10   57.25    8.75
   1   9 -10   85.22    9.80
  -1   9  10   98.89   10.57
   0  -9 -10   -1.77    5.75
   0  -9  10   13.61    4.48
   0  -9 -10    4.73    6.47
   0   9  10   -9.97    6.11
   0   9 -10    2.21    6.07
   0   9  10    1.12    6.13
   0   9 -10    4.03    5.31
   0   9  10    1.15    9.39
  -1  -9 -10   89.35   11.01
  -1  -9 -10   74.24    9.35
   1  -9  10   69.46    8.76
  -1   9 -10   72.69    8.34
  -1   9 -10   62.34    8.28
   1   9  10  109.84   14.22
   1   9  10   83.91    9.63
   1   9  10   78.94    9.40
  -7   0  11   72.62    8.42
   7   0 -11   92.18    9.14
   7   0 -11   93.22    9.66
   7   0 -11   99.62   10.90
   6   0 -11    4.49    4.70
  -6   0  11    0.35    3.29
   6   0 -11    2.47    4.53
   6   0 -11   -0.68    3.87
  -5   0  11   66.80    6.94
   5   0 -11   57.88    6.85
  -5   0  11   58.43    5.99
   5   0 -11   56.70    6.71
   5   0 -11   73.97    8.27
   4   0 -11    1.41    3.38
   4   0 -11   -1.16    3.64
  -4   0  11   -0.08    2.78
   4   0 -11   -7.51    3.65
  -4   0  11   -1.85    2.75
  -3   0  11   57.91    5.39
   3   0 -11   60.91    8.66
  -3   0  11   58.64    6.08
   3   0 -11   75.72    6.51
  -2   0  11    1.56    2.46
   2   0 -11   -3.45    3.00
  -2   0  11    3.25    4.33
   2   0 -11   -2.47    3.99
   1   0 -11   33.28    4.65
  -1   0  11   35.98    4.73
  -1   0  11   25.69    4.09
   1   0 -11   31.88    4.92
   1   0 -11   34.63    5.45
   0   0  11    4.37    2.88
   0   0 -11    4.59    4.27
   0   0 -11    2.79    3.30
   0   0 -11    2.98    4.29
  -1   0 -11   -4.34    3.08
   1   0  11   -2.55    2.00
   1   0  11    1.89    2.86
   1   0  11   -5.52    3.61
  -1   0 -11    2.50    4.13
  -1   0 -11    3.96    4.19
   2   0  11   -0.33    2.74
   2   0  11   -0.05    2.81
  -2   0 -11    6.53    4.89
  -2   0 -11    2.16    5.47
   2   0  11   -6.81    6.71
  -2   0 -11   -1.76    3.88
  -3   0 -11   71.99    8.64
  -3   0 -11   52.15    7.65
  -3   0 -11   68.02    8.37
  -4   0 -11  -13.10    6.24
  -4   0 -11   -2.92    5.74
  -4   0 -11   -4.58    5.50
   7  -1 -11    1.85    5.39
   7  -1 -11    5.18    5.02
   7  -1 -11   10.21    6.32
   7   1 -11   -7.34    5.62
  -7   1  11    0.10    3.59
   7   1 -11    7.70    5.53
   7   1 -11    1.26    4.90
  -7   1  11    4.75    4.67
  -6  -1  11   96.51    6.64
   6  -1 -11   88.34    8.06
   6  -1 -11   73.43    9.13
   6  -1 -11   69.65    8.70
   6   1 -11   85.94    8.78
  -6   1  11   85.04    6.27
   6   1 -11   72.29    7.51
   6   1 -11   86.49   12.07
  -6   1  11   66.85    8.06
  -6   1  11   78.03    7.69
   5  -1 -11   29.07    5.48
  -5  -1  11   30.50    3.93
  -5  -1  11   23.25    4.52
   5  -1 -11   29.10    4.86
  -5   1  11   35.34    3.87
   5   1 -11   33.00    5.71
  -5   1  11   21.90    4.35
   5   1 -11   19.42    4.21
  -5   1  11   24.30    4.54
   5   1 -11   31.79    5.78
  -4  -1  11   49.73    5.52
   4  -1 -11   61.48    7.34
   4  -1 -11   60.60    6.39
   4  -1 -11   56.25    6.57
  -4  -1  11   43.00    5.12
  -4   1  11   46.57    5.42
  -4   1  11   58.20    4.90
   4   1 -11   46.76    6.18
   4   1 -11   56.84    6.41
   4   1 -11   49.28    6.13
  -4   1  11   51.41    6.28
  -3  -1  11   55.57    5.60
   3  -1 -11   50.44    7.12
  -3  -1  11   56.09    5.05
   3  -1 -11   60.25    6.83
   3  -1 -11   47.98    9.25
  -3   1  11   54.15    4.68
  -3   1  11   57.22    5.90
   3   1 -11   53.42    5.99
   3   1 -11   54.91    5.50
  -3   1  11   47.09    5.41
  -2  -1  11    4.24    2.77
   2  -1 -11    9.42    3.78
  -2  -1  11    5.08    2.84
   2  -1 -11   -6.58    5.85
   2   1 -11    0.74    4.22
  -2   1  11    5.71    2.99
   2   1 -11    7.77    3.56
  -2   1  11    5.55    2.54
  -2   1  11    3.28    3.26
  -1  -1  11   73.07    5.68
   1  -1 -11   64.01    7.70
  -1  -1  11   70.98    5.65
   1  -1 -11   63.69    6.81
   1   1 -11   65.91    7.67
   1   1 -11   69.55    6.55
   1   1 -11   60.63    5.55
  -1   1  11   65.23    6.47
  -1   1  11   67.42    4.97
  -1   1  11   77.89    6.09
   0  -1 -11    2.05    4.25
   0  -1 -11    0.92    3.32
   0  -1 -11    4.22    4.59
   0  -1  11   -2.50    2.50
   0  -1  11    5.25    3.21
   0   1  11   -0.04    3.29
   0   1  11    2.70    2.88
   0   1 -11   -0.54    3.12
   0   1  11    1.81    2.63
   0   1 -11    0.01    3.94
  -1  -1 -11   29.30    5.46
  -1  -1 -11   36.80    5.27
  -1  -1 -11   34.72    9.49
   1  -1  11   40.57    4.86
  -1   1 -11   42.34    5.34
   1   1  11   33.25    3.97
  -1   1 -11   40.68    5.74
   1   1  11   29.31    4.86
   1   1  11   45.53    5.18
  -1   1 -11   35.29    4.87
  -1   1 -11   33.83    5.76
   2  -1  11   18.47    3.73
  -2  -1 -11   19.81    4.57
  -2  -1 -11   25.80    5.09
  -2  -1 -11   17.67    5.50
  -2  -1 -11   25.31    5.20
  -2   1 -11   19.99    5.35
   2   1  11   20.82    3.94
  -2   1 -11   27.10    5.32
  -2   1 -11   23.27    6.08
  -2   1 -11   27.43    5.21
   2   1  11   23.05    5.39
  -3  -1 -11   16.40    5.72
  -3  -1 -11   27.77    6.01
   3  -1  11   37.68    4.63
  -3  -1 -11   36.67    6.46
   3   1  11   44.43    5.59
  -3   1 -11   45.23    6.95
  -3   1 -11   38.84    6.04
  -3   1 -11   35.03    6.52
   4  -1  11   46.55    5.46
  -4  -1 -11   40.04    7.64
  -4  -1 -11   32.72    6.63
  -4  -1 -11   49.93    7.74
  -4   1 -11   53.23    8.07
  -4   1 -11   49.48    7.15
  -4   1 -11   47.13    7.43
   7  -2 -11   -3.55    5.76
  -7  -2  11   -5.71    4.81
   7  -2 -11   -3.59    5.87
   7  -2 -11    0.55    5.32
  -7   2  11   -4.45    5.82
  -7   2  11    1.78    3.93
   7   2 -11    1.13    5.15
   7   2 -11   -5.86    5.71
   7   2 -11   -0.30    4.50
   6  -2 -11   10.94    4.65
  -6  -2  11    2.46    4.36
   6  -2 -11   -2.62    4.64
  -6  -2  11   -3.08    3.29
   6  -2 -11   -3.56    4.92
   6   2 -11    0.25    3.76
  -6   2  11    0.74    3.69
   6   2 -11   -4.38    5.28
   6   2 -11    2.04    5.04
  -6   2  11    7.76    5.03
  -6   2  11   -3.79    4.88
   5  -2 -11    1.75    3.79
   5  -2 -11    4.26    4.54
  -5  -2  11    3.34    3.01
   5  -2 -11   -2.91    3.98
  -5  -2  11    0.12    2.93
  -5   2  11   -2.63    3.89
   5   2 -11   -0.43    3.33
   5   2 -11   -4.57    3.69
  -5   2  11   -3.64    3.55
  -5   2  11    1.63    3.05
   5   2 -11   -1.47    3.96
   4  -2 -11   30.42    6.95
   4  -2 -11   32.11    4.97
  -4  -2  11   22.94    4.38
   4  -2 -11   22.45    5.32
  -4   2  11   30.21    4.75
   4   2 -11   30.18    5.47
   4   2 -11   34.37    4.40
  -4   2  11   25.92    3.98
  -4   2  11   34.31    4.69
   3  -2 -11    1.23    3.46
   3  -2 -11    3.28    4.09
   3  -2 -11    2.97    3.91
  -3  -2  11   -2.98    2.51
  -3   2  11   -1.82    3.54
   3   2 -11   -1.88    2.61
   3   2 -11   -3.09    3.06
  -3   2  11    0.90    2.85
  -3   2  11   -3.60    2.38
   2  -2 -11   84.88    8.15
   2  -2 -11   93.73    7.78
   2  -2 -11   87.50    9.29
  -2  -2  11  102.79    6.63
  -2   2  11   91.29    6.49
  -2   2  11   97.35    7.20
  -2   2  11  102.67    6.37
   2   2 -11   96.14    7.94
   2   2 -11   94.04    6.63
  -1  -2  11    1.45    2.46
   1  -2 -11    1.45    4.16
   1  -2 -11    2.91    3.82
  -1   2  11    0.51    2.80
  -1   2  11   -0.48    3.40
   1   2 -11    1.30    4.04
   1   2 -11    1.86    2.61
  -1   2  11    0.81    2.91
   1   2 -11    2.32    3.23
   0  -2  11  203.08    9.20
   0  -2 -11  208.61   10.28
   0  -2 -11  201.22   10.89
   0  -2 -11  191.38   11.21
   0   2  11  205.12    9.61
   0   2 -11  224.19   11.14
   0   2  11  192.92   10.11
   0   2 -11  197.62    9.09
   0   2  11  222.77    9.28
   0   2 -11  206.95   12.13
  -1  -2 -11   -2.65    4.16
   1  -2  11    1.38    2.77
  -1  -2 -11   -2.69    3.77
  -1  -2 -11    0.09    3.76
  -1   2 -11   -3.89    3.33
  -1   2 -11   -3.71    4.16
  -1   2 -11    1.20    4.21
   1   2  11    7.24    4.15
   1   2  11    8.41    4.23
  -1   2 -11    7.24    3.68
  -2  -2 -11  194.91   11.17
  -2  -2 -11  184.26   11.04
  -2  -2 -11  191.26   10.84
  -2  -2 -11  163.55   10.83
   2  -2  11  178.50    8.67
   2   2  11  190.20   10.99
  -2   2 -11  173.81   10.98
  -2   2 -11  164.97   10.35
  -2   2 -11  183.83   11.59
  -2   2 -11  173.79    9.81
   2   2  11  167.46   10.89
  -3  -2 -11   12.22    5.57
  -3  -2 -11   12.23    5.70
  -3  -2 -11    1.86    5.42
   3  -2  11    3.95    3.53
  -3   2 -11   17.38    5.06
  -3   2 -11    5.23    5.83
  -3   2 -11    3.79    5.09
   3   2  11   14.95    6.43
  -4  -2 -11   39.90    7.39
  -4  -2 -11   44.81    7.74
   4  -2  11   38.36    4.76
  -4  -2 -11   46.33    7.88
   4   2  11   28.12    6.54
  -4   2 -11   36.02    7.23
  -4   2 -11   34.61    7.58
  -4   2 -11   42.15    7.21
   7  -3 -11    6.87    5.72
   7  -3 -11    0.46    5.78
  -7  -3  11   -1.44    2.98
   7  -3 -11   15.66    6.18
   7   3 -11    2.10    4.62
  -7   3  11   -3.72    7.76
  -7   3  11   -0.91    5.63
  -7   3  11    2.34    5.39
   7   3 -11   -3.47    5.89
   7   3 -11   -3.61    5.58
  -6  -3  11   59.21    6.16
   6  -3 -11   72.17    9.31
  -6  -3  11   64.65    7.17
   6  -3 -11   91.37    9.07
   6  -3 -11   71.48    8.60
   6   3 -11   54.77    7.11
   6   3 -11   72.93    8.92
  -6   3  11   79.59    9.94
  -6   3  11   69.00    8.42
   6   3 -11   79.57    8.84
   5  -3 -11   20.62    5.57
  -5  -3  11   22.42    4.39
  -5  -3  11   26.41    3.74
   5  -3 -11   29.57    5.34
   5  -3 -11   15.29    4.73
  -5   3  11   25.20    5.54
  -5   3  11   21.26    4.24
   5   3 -11   21.64    4.10
  -5   3  11   18.88    5.24
   5   3 -11   31.86    4.76
   5   3 -11   17.56    5.40
  -4  -3  11   25.13    4.37
   4  -3 -11   22.70    5.11
   4  -3 -11   22.55    4.88
   4  -3 -11   36.30    5.27
  -4   3  11   28.63    5.22
  -4   3  11   31.22    4.62
  -4   3  11   27.79    4.97
   4   3 -11   32.51    4.22
   4   3 -11   34.07    5.35
   3  -3 -11   89.37    7.85
   3  -3 -11  102.16    8.78
  -3  -3  11   82.24    6.38
  -3   3  11   90.05    7.30
  -3   3  11   88.76    7.61
   3   3 -11   80.68    6.41
  -3   3  11   98.74    6.80
   3   3 -11   88.71    6.04
   2  -3 -11    3.42    3.94
   2  -3 -11   -4.66    4.39
  -2  -3  11    3.69    2.71
   2  -3 -11    2.04    3.79
  -2   3  11    1.58    3.62
   2   3 -11    4.20    3.14
  -2   3  11    5.74    3.14
   2   3 -11    2.79    4.35
  -2   3  11    0.34    3.33
   1  -3 -11   83.04    7.53
   1  -3 -11   92.35    7.65
  -1  -3  11   90.39    6.22
   1   3 -11   94.65    8.45
   1   3 -11   92.20    5.95
   1   3 -11   86.27    6.51
  -1   3  11   98.78    7.47
  -1   3  11   89.76    7.54
  -1   3  11   81.45    6.49
   0  -3  11    3.58    2.77
   0  -3 -11    5.41    4.53
   0  -3 -11   -0.08    3.48
   0  -3 -11   -2.05    3.58
   0   3  11    1.69    4.19
   0   3 -11    3.80    4.41
   0   3 -11    0.80    2.72
   0   3  11    1.27    4.11
   0   3 -11    6.52    3.39
   1  -3  11   89.55    6.41
  -1  -3 -11  100.96    8.20
  -1  -3 -11   88.61    8.12
  -1  -3 -11   87.17    8.25
  -1   3 -11   94.10    8.11
  -1   3 -11   84.41    9.14
  -1   3 -11  104.04    7.14
  -1   3 -11   98.75    7.24
   1   3  11   87.45    8.87
   1   3  11   97.82    8.57
  -2  -3 -11   37.81    5.98
  -2  -3 -11   26.79    5.94
  -2  -3 -11   38.99    5.97
   2  -3  11   29.79    4.09
  -2  -3 -11   42.69    6.14
  -2   3 -11   28.42    5.93
  -2   3 -11   31.11    5.39
   2   3  11   35.05    6.86
  -2   3 -11   23.47    4.70
  -2   3 -11   23.57    5.99
   2   3  11   29.57    7.77
   3  -3  11   25.18    4.17
  -3  -3 -11   37.14    6.74
  -3  -3 -11   39.35    6.64
  -3  -3 -11   22.15    6.25
   3   3  11   21.58    6.19
  -3   3 -11   34.44    7.48
  -3   3 -11   33.35    5.90
  -3   3 -11   32.71    5.71
   3   3  11   38.17    8.94
  -7  -4  11   53.17    6.49
   7  -4 -11   52.87    7.94
   7  -4 -11   61.93    8.65
   7  -4 -11   71.07    8.60
  -7  -4  11   60.29    6.40
   7   4 -11   46.92    7.64
   7   4 -11   66.43    8.83
  -7   4  11   60.49    8.45
  -7   4  11   49.22    8.99
  -7   4  11   61.45    7.46
   7   4 -11   48.98    6.16
   6  -4 -11    2.86    5.64
   6  -4 -11   -4.37    5.39
  -6  -4  11   -2.62    3.59
   6  -4 -11   -7.49    4.89
  -6  -4  11    6.04    4.61
  -6   4  11   -2.17    3.17
  -6   4  11   -2.29    6.39
   6   4 -11   -4.18    5.21
  -6   4  11    3.28    4.98
   6   4 -11    1.71    3.70
   6   4 -11  -11.13    5.76
   5  -4 -11  110.18    9.56
   5  -4 -11  139.97    9.93
  -5  -4  11  107.28    8.82
   5  -4 -11  148.22   10.20
  -5   4  11  125.38   10.68
   5   4 -11  122.14    7.37
   5   4 -11  123.26    8.14
  -5   4  11  120.43    7.82
   5   4 -11  122.60   10.36
  -5   4  11  115.36    8.99
  -4  -4  11    2.97    3.44
   4  -4 -11    0.11    4.29
   4  -4 -11    9.92    4.71
   4  -4 -11   -4.31    4.05
  -4   4  11    3.88    3.09
  -4   4  11    8.89    4.51
   4   4 -11    4.59    3.42
   4   4 -11    0.16    4.05
   4   4 -11    6.09    3.34
   3  -4 -11   76.59    7.51
   3  -4 -11   86.08    8.65
   3  -4 -11   74.76    7.82
  -3  -4  11   74.60    6.36
   3   4 -11   85.32    6.04
  -3   4  11   75.05    7.57
   3   4 -11   82.50    8.76
   3   4 -11   80.15    5.82
  -3   4  11   83.45    8.21
  -3   4  11   79.28    6.46
   2  -4 -11    6.88    3.99
  -2  -4  11    2.70    2.79
   2  -4 -11    3.09    4.09
   2  -4 -11    4.10    3.69
  -2   4  11    5.32    4.49
   2   4 -11    8.31    3.07
  -2   4  11    4.17    3.88
  -2   4  11    3.74    3.31
   2   4 -11    1.64    4.48
  -1  -4  11    9.45    3.05
   1  -4 -11    8.06    4.11
   1  -4 -11   16.34    4.84
   1  -4 -11   14.60    4.30
   1   4 -11    8.99    4.65
  -1   4  11   15.21    4.44
   1   4 -11   10.40    3.44
   1   4 -11   14.23    3.19
  -1   4  11   10.83    5.01
   0  -4  11    7.27    3.09
   0  -4 -11   10.32    4.10
   0  -4 -11    3.64    4.18
   0  -4 -11    7.39    4.49
   0   4  11   14.27    4.93
   0   4 -11    1.28    3.92
   0   4 -11    7.51    4.97
   0   4  11    5.67    5.01
   0   4 -11    5.05    3.17
   0   4 -11    8.47    3.67
  -1  -4 -11    3.31    4.71
  -1  -4 -11    8.62    4.66
   1  -4  11    1.39    3.16
  -1  -4 -11    0.32    4.20
  -1   4 -11    3.37    4.52
   1   4  11    7.77    4.69
  -1   4 -11    5.78    3.90
  -1   4 -11    6.89    3.19
  -1   4 -11    9.92    3.61
   1   4  11    2.92    5.09
   2  -4  11    2.65    3.37
  -2  -4 -11   -3.21    4.61
  -2  -4 -11   13.07    5.23
  -2  -4 -11   -1.27    4.90
  -2  -4 -11    2.79    4.74
  -2   4 -11    4.31    4.35
   2   4  11   21.78    7.37
  -2   4 -11    7.37    5.22
   2   4  11   -2.05    4.99
  -2   4 -11   -1.08    5.32
  -2   4 -11    7.82    3.68
  -3  -4 -11   53.70    8.06
  -3  -4 -11   69.74    8.80
  -3  -4 -11   65.29    7.77
   3  -4  11   69.76    6.89
  -3   4 -11   58.48    6.63
   3   4  11   55.32   10.87
   3   4  11   65.17    7.53
  -3   4 -11   49.39    8.29
  -3   4 -11   78.75    8.47
  -6  -5  11   82.34    7.86
  -6  -5  11   94.48    7.08
   6  -5 -11  116.12   10.82
   6  -5 -11  114.92   11.54
   6  -5 -11  119.64   11.06
  -6   5  11   99.14    8.02
   6   5 -11  108.05   11.67
   6   5 -11  102.24    7.44
  -6   5  11  103.21   10.38
   6   5 -11   96.68   10.54
  -6   5  11  119.10   11.41
   5  -5 -11   20.43    5.95
   5  -5 -11   18.19    5.62
  -5  -5  11   12.05    4.02
  -5   5  11    8.13    5.11
   5   5 -11   10.45    5.00
   5   5 -11   14.99    3.23
  -5   5  11    5.86    6.49
   5   5 -11    8.70    4.21
   4  -5 -11   57.93    7.50
  -4  -5  11   48.22    5.90
   4  -5 -11   70.04    8.61
   4   5 -11   60.88    5.34
  -4   5  11   43.63    7.46
   4   5 -11   43.76    6.73
  -4   5  11   55.99    5.91
   4   5 -11   45.43    6.04
  -4   5  11   59.02    6.72
   3  -5 -11   66.62    8.19
   3  -5 -11   60.38    7.67
  -3  -5  11   56.24    5.97
   3  -5 -11   64.53    7.63
  -3   5  11   66.92    7.62
  -3   5  11   66.01    8.77
   3   5 -11   49.93    4.93
  -3   5  11   52.32    5.91
   3   5 -11   53.20    5.42
   3   5 -11   72.12    7.73
   2  -5 -11   15.55    4.85
   2  -5 -11   18.75    4.93
   2  -5 -11   19.23    4.89
  -2  -5  11   19.04    3.94
  -2   5  11   18.96    4.93
  -2   5  11   19.38    4.43
   2   5 -11   20.16    7.50
   2   5 -11   17.11    2.99
  -2   5  11   18.67    5.35
   1  -5 -11   34.57    5.77
   1  -5 -11   36.24    5.68
   1  -5 -11   29.91    5.41
  -1  -5  11   47.28    5.27
  -1   5  11   43.34    5.98
   1   5 -11   35.73    5.41
   1   5 -11   36.05    4.77
  -1   5  11   30.23    5.98
   1   5 -11   39.71    4.14
   0  -5 -11    6.20    4.67
   0  -5  11    3.58    2.88
   0  -5 -11    1.78    4.29
   0  -5 -11    5.69    4.13
   0   5  11    5.65    6.13
   0   5 -11    7.73    4.25
   0   5 -11    3.07    3.47
   0   5 -11   -1.17    4.68
   0   5 -11    1.77    3.02
   0   5  11    7.36    4.85
  -1  -5 -11   26.62    5.72
  -1  -5 -11   22.14    5.23
   1  -5  11   28.72    4.28
  -1  -5 -11   24.53    5.91
   1   5  11   24.20    7.24
   1   5  11   17.46    5.63
  -1   5 -11   22.26    4.41
  -1   5 -11   23.54    4.03
  -1   5 -11   22.50    4.43
  -1   5 -11   23.17    5.54
  -2  -5 -11   40.66    7.06
   2  -5  11   33.79    4.69
  -2  -5 -11   37.34    5.82
  -2  -5 -11   24.62    6.45
   2   5  11   33.68    7.98
  -2   5 -11   31.89    5.70
   2   5  11   37.75    6.59
  -2   5 -11   37.01    4.77
  -2   5 -11   32.07    6.77
  -2   5 -11   36.65    6.53
  -3  -5 -11   12.97    6.74
  -3  -5 -11   14.05    6.25
  -3  -5 -11   -4.26    6.41
   3   5  11    9.45    6.70
   3   5  11   10.63    7.63
  -3   5 -11   -4.03    6.14
  -3   5 -11    3.66    6.84
   6  -6 -11   -6.65    6.25
   6  -6 -11    0.38    6.16
  -6  -6  11    1.20    3.40
   6  -6 -11    8.84    6.42
  -6   6  11    1.61    6.16
  -6   6  11    3.55    7.00
   6   6 -11   -3.13    5.84
   6   6 -11    6.00    3.61
  -5  -6  11    2.17    4.89
   5  -6 -11   10.29    6.29
   5  -6 -11   12.12    5.79
  -5   6  11   -3.79    3.05
  -5   6  11   13.78    6.60
   5   6 -11    6.07    2.97
   5   6 -11   19.71    6.50
  -5   6  11    3.85    5.60
   4  -6 -11   30.20    5.94
   4  -6 -11   10.82    5.61
   4  -6 -11   24.99    5.52
   4   6 -11   23.01    3.22
  -4   6  11   25.73    7.89
   4   6 -11    8.40    5.11
  -4   6  11   21.46    5.60
   3  -6 -11    7.62    4.92
  -3  -6  11    1.23    3.18
   3  -6 -11    5.59    5.15
   3  -6 -11   16.55    5.01
  -3   6  11   -0.09    4.79
   3   6 -11   15.54    4.90
  -3   6  11    4.86    4.05
  -3   6  11   -3.55    6.36
   3   6 -11    8.10    2.21
   2  -6 -11   91.69    9.34
   2  -6 -11   85.98    8.97
   2  -6 -11  101.60    8.91
  -2  -6  11   89.94    6.86
  -2   6  11   73.23    8.81
   2   6 -11   99.17   12.59
  -2   6  11  106.19   10.81
   2   6 -11   92.67    3.90
   1  -6 -11   -0.79    4.12
   1  -6 -11   -5.83    4.39
   1  -6 -11   -6.51    4.38
  -1  -6  11    3.89    3.31
  -1   6  11    3.24    6.37
   1   6 -11    7.75    4.89
   1   6 -11   -1.01    4.43
  -1   6  11   -1.29    4.61
   1   6 -11    1.28    1.98
   0  -6 -11  151.52   10.88
   0  -6 -11  161.35   11.08
   0  -6  11  154.20    8.26
   0  -6 -11  161.80   10.50
   0   6 -11  151.26    6.80
   0   6 -11  159.36    9.76
   0   6  11  157.84   21.11
   0   6  11  159.58   10.79
   0   6 -11  153.30   11.43
  -1  -6 -11   -6.69    5.31
   1  -6  11    5.30    3.67
  -1  -6 -11   -0.36    5.31
  -1  -6 -11    2.90    5.41
   1   6  11    7.10    6.01
   1   6  11    2.40    5.39
  -1   6 -11   -3.90    5.57
  -1   6 -11    5.85    4.29
  -1   6 -11   -0.24    3.73
  -2  -6 -11  120.57   11.59
  -2  -6 -11  104.57   10.13
  -2  -6 -11   97.03   11.41
   2  -6  11  114.48    8.67
   2   6  11  108.66   11.97
   2   6  11  105.99   12.71
  -2   6 -11   93.74   11.18
  -5  -7  11   25.61    4.70
   5  -7 -11   34.85    7.61
   5  -7 -11   30.90    7.08
  -5   7  11   26.91    7.39
  -5   7  11   25.22    6.48
   5   7 -11   28.59    6.95
   4  -7 -11    3.67    6.17
   4  -7 -11   14.00    6.41
   4  -7 -11   12.78    6.16
  -4  -7  11    6.87    3.91
   4   7 -11   12.22    5.68
  -4   7  11    6.62    3.74
  -4   7  11   13.76    6.08
  -4   7  11    3.29    6.39
  -3  -7  11   62.28    6.47
   3  -7 -11   64.61    7.72
   3  -7 -11   58.91    7.72
   3  -7 -11   64.14    7.95
  -3   7  11   67.40    8.72
   3   7 -11   75.70    8.91
  -3   7  11   56.51    6.38
  -3   7  11   61.95    7.40
   2  -7 -11    2.56    5.06
   2  -7 -11    3.52    5.26
  -2  -7  11   -1.54    3.52
   2  -7 -11  -11.19    4.70
  -2   7  11   11.84    6.19
  -2   7  11   -6.35    5.33
   2   7 -11   -1.97    4.64
   2   7 -11   -5.38    4.94
   1  -7 -11   94.06   10.84
   1  -7 -11  130.96   10.55
  -1  -7  11  104.65    7.53
   1  -7 -11   96.13    9.73
  -1   7  11  118.30   10.10
  -1   7  11  112.36   11.07
   1   7 -11  104.08   10.25
   1   7 -11  104.01    9.62
   0  -7 -11    6.70    6.05
   0  -7 -11    3.86    5.62
   0  -7  11    5.92    3.82
   0  -7 -11   -3.86    5.57
   0   7  11    2.04    5.55
   0   7 -11   -1.31    4.96
   0   7 -11    2.09    5.70
   0   7  11    7.49    6.53
  -1  -7 -11   83.26   11.14
  -1  -7 -11   81.72    9.25
   1  -7  11   81.67    7.71
   1   7  11   70.73    8.31
  -1   7 -11   75.70    9.07
   1   7  11   76.64    9.22
   3  -8 -11   32.89    7.18
  -3  -8  11   42.12    5.73
   3  -8 -11   28.73    7.27
   3  -8 -11   31.03    6.84
  -3   8  11   23.89    5.79
   3   8 -11   26.38    6.45
  -3   8  11   46.41    7.49
  -3   8  11   28.43    7.78
   3   8 -11   34.07    6.40
   2  -8 -11   24.48    6.54
  -2  -8  11   28.31    4.71
   2  -8 -11   42.33    6.85
   2  -8 -11   10.88    7.00
   2   8 -11   25.67    5.97
  -2   8  11   22.53    6.60
   2   8 -11   26.05    6.08
  -2   8  11   31.29    7.01
   1  -8 -11   11.04    6.11
   1  -8 -11   20.64    6.64
   1  -8 -11    0.99    6.50
  -1  -8  11   15.67    4.63
  -1   8  11   11.79    6.54
   1   8 -11   17.81    5.86
  -1   8  11   32.62    7.23
   1   8 -11    1.64    5.81
   0  -8 -11   29.05    6.86
   0  -8 -11   20.50    6.90
   0  -8 -11   20.92    7.05
   0  -8  11   21.97    4.82
   0   8  11   29.82    8.07
   0   8  11   31.02    7.21
   0   8 -11   18.76    6.51
   0   8 -11   11.26    6.52
   6   0 -12   31.39    6.80
  -6   0  12   29.08    5.05
   6   0 -12   29.47    6.00
   6   0 -12   19.46    5.56
   5   0 -12   -2.13    4.03
   5   0 -12    4.64    5.41
  -5   0  12   -2.88    2.94
   5   0 -12   -6.26    4.46
  -4   0  12  164.57    9.31
   4   0 -12  168.81    9.71
   4   0 -12  141.71   10.77
   3   0 -12    3.54    3.75
   3   0 -12   -1.65    4.20
  -3   0  12    3.56    3.32
   2   0 -12  161.49   10.47
   2   0 -12  196.27    9.72
  -2   0  12  179.33    9.33
   2   0 -12  173.00   10.46
  -1   0  12    1.64    3.17
   1   0 -12    6.75    4.55
   1   0 -12    8.37    3.89
   1   0 -12    3.76    4.62
   0   0 -12   98.37    8.09
   0   0  12  100.41    7.33
   0   0 -12  106.14    9.11
  -1   0 -12   -3.54    3.92
  -1   0 -12    4.62    4.32
  -1   0 -12    5.62    4.53
  -1   0 -12    3.30    5.37
   1   0  12    1.23    3.13
  -2   0 -12   24.04    7.03
  -2   0 -12   27.24    6.21
  -2   0 -12   16.53    5.26
  -2   0 -12   13.09    5.86
   2   0  12   33.37    4.82
   6  -1 -12   19.39    5.81
   6  -1 -12   26.73    6.96
   6  -1 -12   16.28    6.20
  -6  -1  12   16.66    5.21
  -6  -1  12   16.00    4.28
   6   1 -12   22.81    5.57
   6   1 -12   18.37    5.62
   6   1 -12   23.68    6.50
   5  -1 -12   57.06    6.94
   5  -1 -12   50.63    6.90
   5  -1 -12   53.83    7.46
  -5  -1  12   56.59    6.69
  -5   1  12   58.54    6.35
   5   1 -12   54.65    6.25
   5   1 -12   51.79    7.94
   5   1 -12   53.92    7.05
   4  -1 -12   12.85    5.35
  -4  -1  12    5.58    3.93
   4  -1 -12    3.10    4.22
   4  -1 -12    1.35    4.13
  -4   1  12   -0.13    3.44
   4   1 -12   -1.21    4.53
   4   1 -12   -0.51    3.84
   4   1 -12    1.13    4.44
   3  -1 -12   85.29    8.57
  -3  -1  12   88.35    6.83
   3  -1 -12  101.91    7.76
  -3   1  12   95.48    5.31
   3   1 -12   78.91    7.06
  -3   1  12   92.17    7.19
  -3   1  12   88.68    8.00
   3   1 -12   84.70    8.32
   3   1 -12   98.03    9.02
  -2  -1  12   15.80    4.02
   2  -1 -12   14.73    4.72
   2  -1 -12   20.37    4.41
   2   1 -12   16.72    4.11
   2   1 -12   22.27    5.09
  -2   1  12   18.01    4.35
  -2   1  12   19.43    2.85
  -2   1  12   27.25    4.79
   2   1 -12   15.23    4.50
   1  -1 -12   74.05    7.55
  -1  -1  12   65.90    6.11
   1  -1 -12   88.19    8.49
   1  -1 -12   86.78   12.03
  -1   1  12   72.38    7.75
   1   1 -12   74.64    6.98
   1   1 -12   90.24    8.09
   1   1 -12   72.03    8.02
  -1   1  12   88.08    6.98
  -1   1  12   74.14    5.02
   0  -1 -12   25.15    4.79
   0  -1  12   24.27    4.27
   0  -1 -12   35.54    5.60
   0  -1 -12   34.89    5.91
   0   1  12   22.29    4.40
   0   1 -12   24.06    5.38
   0   1 -12   22.31    4.90
   0   1  12   29.92    3.57
   0   1 -12   29.49    5.25
  -1  -1 -12   13.44    5.22
  -1  -1 -12   22.49    5.84
  -1  -1 -12   19.17    5.23
  -1  -1 -12   12.82    5.12
   1  -1  12    2.80    3.49
  -1   1 -12    0.01    5.13
  -1   1 -12   10.17    4.07
  -1   1 -12   12.54    5.44
  -1   1 -12   17.05    4.73
   1   1  12    7.26    3.52
  -2  -1 -12   28.71    6.15
  -2  -1 -12   33.28    6.14
  -2  -1 -12   27.04    6.02
   2  -1  12   17.33    4.37
  -2  -1 -12   34.48    7.15
  -2   1 -12   21.08    6.05
  -2   1 -12   29.35    5.49
  -2   1 -12   28.58    5.71
  -2   1 -12   14.14    6.63
   6  -2 -12   -2.47    6.04
  -6  -2  12    8.70    3.50
   6  -2 -12    1.95    5.41
   6  -2 -12   -3.91    6.06
  -6   2  12   -1.35    5.09
   6   2 -12   -2.81    5.21
  -6   2  12    4.46    5.74
   6   2 -12    2.24    5.59
   6   2 -12   -3.77    4.75
  -5  -2  12   34.55    5.42
   5  -2 -12   38.49    6.97
   5  -2 -12   39.74    6.13
   5  -2 -12   43.85    6.58
   5   2 -12   41.43    5.67
  -5   2  12   43.35    5.87
  -5   2  12   40.15    5.21
   5   2 -12   48.78    8.27
   5   2 -12   42.52    7.02
   4  -2 -12    5.28    4.81
   4  -2 -12    3.00    4.51
  -4  -2  12    5.69    4.24
   4  -2 -12    5.46    3.97
   4   2 -12    9.08    4.98
   4   2 -12    4.10    3.70
   4   2 -12    3.68    4.89
  -4   2  12   12.56    3.90
  -4   2  12    7.52    4.96
  -3  -2  12   10.07    3.62
   3  -2 -12   12.72    4.79
   3  -2 -12   15.12    4.55
   3   2 -12   14.87    4.87
  -3   2  12   13.34    3.61
  -3   2  12   17.69    4.70
   3   2 -12   18.37    3.94
  -3   2  12   12.92    3.58
   3   2 -12   19.77    4.36
   2  -2 -12    9.02    4.62
   2  -2 -12   -1.73    3.75
  -2  -2  12    7.96    3.48
   2  -2 -12    1.37    4.42
   2   2 -12   -2.60    4.47
  -2   2  12    0.04    2.96
  -2   2  12    3.26    3.24
   2   2 -12    4.86    3.64
  -2   2  12    1.49    4.28
   2   2 -12    4.14    3.51
   1  -2 -12   15.03    4.69
   1  -2 -12    3.01    4.54
   1  -2 -12   18.10    4.54
  -1  -2  12    2.86    3.21
   1   2 -12    9.96    3.89
   1   2 -12   12.13    3.96
  -1   2  12   12.58    3.67
  -1   2  12   17.27    3.96
  -1   2  12    6.60    4.88
   1   2 -12    5.02    4.13
   0  -2 -12    1.84    4.04
   0  -2  12    4.20    3.10
   0  -2 -12   -0.58    4.81
   0  -2 -12    1.95    4.32
   0   2  12   10.22    4.87
   0   2 -12    5.84    4.05
   0   2 -12    1.93    4.34
   0   2 -12    6.08    4.61
   0   2  12    9.48    4.15
   0   2  12   -1.86    3.16
  -1  -2 -12  140.34   10.49
   1  -2  12  108.63    7.45
  -1  -2 -12  113.27    9.71
  -1  -2 -12  108.82    9.76
  -1   2 -12  106.74   11.21
  -1   2 -12  109.59    8.92
  -1   2 -12  120.58    9.01
   1   2  12  120.62    9.19
  -2  -2 -12    7.39    5.92
  -2  -2 -12   -3.28    5.16
   2  -2  12    2.35    3.71
  -2  -2 -12   -9.14    5.73
  -2  -2 -12    1.36    5.46
  -2   2 -12  -13.30    5.29
  -2   2 -12    1.99    4.69
  -2   2 -12    3.13    6.34
   2   2  12    1.26    5.93
  -2   2 -12    2.21    4.98
   6  -3 -12   55.23    7.97
   6  -3 -12   56.37    7.99
  -6  -3  12   38.17    5.51
   6  -3 -12   57.87    8.05
   6   3 -12   47.18    5.85
  -6   3  12   35.02    4.94
   6   3 -12   42.61    6.87
   6   3 -12   55.16    8.17
  -6   3  12   51.43    6.68
   5  -3 -12   36.20    6.99
   5  -3 -12   49.50    7.59
  -5  -3  12   33.91    6.66
   5  -3 -12   47.32    7.29
  -5   3  12   40.76    5.90
   5   3 -12   52.46    5.50
   5   3 -12   52.32    7.30
  -5   3  12   59.45    7.80
   5   3 -12   43.60    7.38
   4  -3 -12   12.14    5.29
   4  -3 -12    9.74    4.71
   4  -3 -12    7.14    5.18
  -4   3  12    2.09    4.97
   4   3 -12    5.83    4.48
   4   3 -12    8.66    3.48
  -4   3  12    9.44    4.44
   4   3 -12    2.38    4.54
  -3  -3  12   36.27    5.12
   3  -3 -12   27.47    5.63
   3  -3 -12   38.61    6.56
   3  -3 -12   19.86    4.95
  -3   3  12   24.48    5.59
  -3   3  12   24.38    5.43
   3   3 -12   29.13    4.16
   3   3 -12   31.79    4.79
   3   3 -12   36.71    6.32
   2  -3 -12   12.77    4.63
   2  -3 -12   13.19    4.94
   2  -3 -12   11.69    4.76
  -2  -3  12    6.27    3.28
   2   3 -12    6.15    3.62
  -2   3  12    1.28    3.72
  -2   3  12   13.76    5.42
   2   3 -12    3.00    2.89
   2   3 -12    6.25    4.85
  -2   3  12    2.82    4.56
   1  -3 -12   34.15    5.42
  -1  -3  12   37.47    5.23
   1  -3 -12   35.68    6.21
   1  -3 -12   38.06    6.04
  -1   3  12   29.67    5.84
  -1   3  12   30.85    6.28
   1   3 -12   35.39    5.52
   1   3 -12   32.57    4.68
   1   3 -12   32.43    4.46
  -1   3  12   32.38    5.71
   0  -3 -12   49.41    6.83
   0  -3  12   54.46    5.91
   0  -3 -12   58.47    7.15
   0  -3 -12   54.48    7.11
   0   3 -12   57.91    7.34
   0   3 -12   40.21    6.87
   0   3  12   52.03    6.80
   0   3 -12   47.81    6.25
   0   3  12   48.89    6.63
   0   3 -12   54.33    6.64
  -1  -3 -12   21.27    5.87
  -1  -3 -12   10.75    5.25
   1  -3  12   10.10    3.60
  -1  -3 -12   20.69    6.07
  -1   3 -12   17.24    4.47
  -1   3 -12   25.51    6.08
   1   3  12    8.92    6.39
  -1   3 -12   16.00    5.96
   1   3  12   20.71    7.09
  -1   3 -12   11.88    4.89
  -2  -3 -12   33.39    7.16
  -2  -3 -12   37.23    6.94
  -2  -3 -12   47.55    7.57
   2  -3  12   41.50    5.45
  -2  -3 -12   50.35    7.80
  -2   3 -12   38.56    6.04
  -2   3 -12   33.95    6.18
  -2   3 -12   34.90    7.51
   2   3  12   25.45    6.33
  -2   3 -12   42.43    7.36
   6  -4 -12   30.79    7.20
   6  -4 -12   25.71    7.06
   6  -4 -12   29.85    7.26
   6   4 -12   26.65    7.25
   6   4 -12   22.82    5.11
   6   4 -12   34.20    6.73
   5  -4 -12   13.20    6.05
   5  -4 -12    4.83    5.90
   5  -4 -12   10.15    6.03
  -5   4  12   11.33    7.59
   5   4 -12   13.86    6.52
   5   4 -12    3.67    6.18
  -5   4  12   -0.84    4.95
   5   4 -12    5.22    3.71
   4  -4 -12   75.04    9.51
   4  -4 -12   79.39    9.53
  -4  -4  12   79.96    7.27
  -4   4  12   78.83    8.81
   4   4 -12   85.11    6.36
   4   4 -12   82.34    8.14
  -4   4  12   72.27    7.18
   4   4 -12   97.85   10.03
  -4   4  12   67.63    8.42
  -3  -4  12    3.10    3.09
   3  -4 -12    5.08    4.85
   3  -4 -12   -3.89    4.25
   3  -4 -12   -8.15    4.56
  -3   4  12    4.41    5.67
  -3   4  12    1.77    4.56
  -3   4  12   -1.50    2.91
   3   4 -12    4.20    4.89
   3   4 -12    3.28    2.84
   3   4 -12    7.73    3.89
   2  -4 -12  203.98   12.30
   2  -4 -12  185.70   11.31
  -2  -4  12  171.50    9.34
   2  -4 -12  179.45   11.09
  -2   4  12  171.15   10.89
  -2   4  12  193.62   12.22
  -2   4  12  201.09   10.94
   2   4 -12  183.85    9.35
   2   4 -12  188.92   11.01
   2   4 -12  183.28    8.46
  -1  -4  12    0.18    3.00
   1  -4 -12    8.38    4.72
   1  -4 -12    1.94    4.66
   1  -4 -12    8.84    5.12
  -1   4  12    3.53    6.10
  -1   4  12   -4.77    4.54
   1   4 -12    6.59    3.19
   1   4 -12    6.70    3.67
   1   4 -12    2.29    4.28
  -1   4  12   -0.74    3.04
   0  -4 -12  108.77    9.95
   0  -4 -12   95.39    9.54
   0  -4  12  117.60    7.50
   0  -4 -12  100.15    9.62
   0   4  12  110.64   11.96
   0   4 -12   85.40   10.83
   0   4 -12  104.57    9.22
   0   4 -12  116.50    7.48
   0   4 -12  107.58    8.89
   0   4  12  109.58    9.60
   1  -4  12    9.66    3.76
  -1  -4 -12    4.08    5.64
  -1  -4 -12   15.01    6.00
  -1  -4 -12    1.43    5.51
  -1   4 -12    9.00    6.65
  -1   4 -12    5.45    5.59
   1   4  12    3.79    7.77
  -1   4 -12    4.97    3.97
  -1   4 -12   -3.10    6.20
   1   4  12   -0.31    5.56
  -2  -4 -12   43.46    7.42
  -2  -4 -12   38.24    6.93
  -2  -4 -12   17.38    6.93
  -2   4 -12   34.14    7.91
  -2   4 -12   30.85    6.75
  -2   4 -12   27.32    5.58
   2   4  12   47.17    7.26
   5  -5 -12   80.62    9.30
   5  -5 -12   97.67   11.18
  -5  -5  12   69.27    6.85
   5   5 -12   80.85   10.17
  -5   5  12   81.03    7.03
  -5   5  12   73.11    8.78
   5   5 -12   77.18    6.25
  -5   5  12   81.54   10.49
   4  -5 -12    2.09    5.69
  -4  -5  12    0.53    4.21
   4  -5 -12   -5.16    5.24
   4  -5 -12    1.30    5.35
   4   5 -12    0.99    2.92
   4   5 -12    4.70    5.51
  -4   5  12    0.48    5.21
   3  -5 -12  104.08   11.16
   3  -5 -12   96.05   10.11
   3  -5 -12   92.34   10.13
  -3   5  12   82.59    7.98
  -3   5  12  103.06   11.99
  -3   5  12  103.87    9.60
   3   5 -12  106.83   10.07
   3   5 -12   90.10    6.08
  -2  -5  12   -0.85    3.07
   2  -5 -12    4.67    5.24
   2  -5 -12    6.22    5.30
   2  -5 -12   11.04    5.22
  -2   5  12   -6.19    4.86
  -2   5  12    2.77    3.78
  -2   5  12    2.42    6.66
   2   5 -12    8.20    5.21
   1  -5 -12   64.63    7.82
  -1  -5  12   64.34    6.45
   1  -5 -12   66.91    7.96
   1  -5 -12   51.68    7.47
   1   5 -12   64.25    5.75
  -1   5  12   63.80    9.06
   1   5 -12   57.67    7.91
   1   5 -12   52.95    6.28
  -1   5  12   47.38    7.10
  -1   5  12   81.43    9.24
   0  -5 -12   13.09    5.85
   0  -5  12    6.63    3.64
   0  -5 -12   14.38    5.53
   0  -5 -12   19.28    6.15
   0   5  12   10.66    5.74
   0   5 -12   12.91    3.46
   0   5 -12   20.13    6.56
   0   5 -12   12.80    5.42
  -1  -5 -12   38.93    7.31
  -1  -5 -12   31.53    6.85
  -1  -5 -12   35.86    7.65
   1  -5  12   37.00    4.85
  -1   5 -12   27.80    7.27
   1   5  12   27.04    7.71
   1   5  12   21.24    6.74
  -1   5 -12   22.94    4.38
   4  -6 -12   22.06    6.54
  -4  -6  12   15.96    5.54
   4  -6 -12   13.54    6.49
   4  -6 -12    9.88    6.40
  -4   6  12    6.57    3.29
  -4   6  12    7.34    6.32
  -4   6  12    7.00    7.46
   4   6 -12    5.59    6.77
  -3  -6  12    4.14    3.78
   3  -6 -12   19.93    6.61
   3  -6 -12    2.35    6.14
   3  -6 -12    4.86    5.75
  -3   6  12   13.25    4.01
  -3   6  12   -0.94    6.64
  -3   6  12    3.32    5.68
   2  -6 -12   14.56    6.43
  -2  -6  12    3.00    5.70
   2  -6 -12   13.53    5.81
   2  -6 -12   20.61    5.90
  -2   6  12   11.73    5.98
  -2   6  12    5.07    3.92
  -2   6  12   22.19    7.12
   2   6 -12    9.82    5.45
   1  -6 -12   11.58    5.96
   1  -6 -12   22.69    6.06
   1  -6 -12   -2.77    5.53
  -1  -6  12   10.76    3.88
   1   6 -12    0.32    6.33
   1   6 -12   16.74    5.38
  -1   6  12    7.40    5.63
  -1   6  12    5.85    7.03
   1   6 -12    6.34    3.58
   0  -6 -12    2.60    5.81
   0  -6 -12   11.27    6.09
   0  -6 -12    7.66    6.41
   0  -6  12    6.07    4.01
   0   6 -12    3.66    3.35
   0   6  12    1.40    6.52
   0   6 -12    2.48    5.71
   0   6  12    0.79    7.21
   0   6 -12   -3.54    6.14
   2  -7 -12   -2.24    6.46
   2   7 -12   11.61    6.54
   5   0 -13   -3.56    5.85
  -5   0  13    1.18    3.24
   5   0 -13    1.13    5.25
   5   0 -13    5.27    5.79
   4   0 -13   -6.91    5.58
   4   0 -13    0.92    5.21
  -4   0  13   -1.45    3.97
   4   0 -13    5.38    4.88
  -3   0  13   30.06    6.05
   3   0 -13   30.80    6.71
   3   0 -13   26.98    5.44
   3   0 -13   33.25    5.52
   2   0 -13    2.04    4.29
   2   0 -13   -6.04    4.57
   2   0 -13   -5.10    4.93
  -2   0  13    3.38    3.69
   1   0 -13   89.23   10.44
  -1   0  13  107.42    8.24
   1   0 -13   97.00    8.99
   1   0 -13  118.12    9.39
   0   0  13    2.85    3.94
   0   0 -13    8.08    5.02
   0   0 -13    4.63    4.93
   0   0 -13    8.70    5.24
  -1   0 -13   90.00   10.09
  -1   0 -13   90.10   10.50
  -1   0 -13  102.73   10.81
  -1   0 -13  114.95   12.46
  -5  -1  13   66.94    6.58
   5  -1 -13   69.40    8.69
   5  -1 -13   56.23    7.25
   5  -1 -13   54.11    8.16
   5   1 -13   57.52    7.03
   5   1 -13   82.69    9.85
  -5   1  13   59.60    6.58
   5   1 -13   49.88    8.16
   4  -1 -13    4.79    4.70
   4  -1 -13    2.72    5.96
  -4  -1  13   17.58    6.75
   4   1 -13   20.64    5.43
  -4   1  13   15.36    4.33
   4   1 -13   16.58    5.01
   4   1 -13   11.23    5.88
   3  -1 -13   39.36    6.20
  -3  -1  13   33.45    6.56
   3  -1 -13   34.73    7.03
   3  -1 -13   35.15    6.28
   3   1 -13   34.00    6.67
   3   1 -13   41.07    5.83
   2  -1 -13   21.28    5.71
   2  -1 -13   11.86    6.16
  -2  -1  13   25.94    5.08
   2  -1 -13   19.21    4.97
   2   1 -13   32.20    5.48
   2   1 -13   25.48    6.41
   2   1 -13   27.14    5.26
  -2   1  13   27.47    5.56
   1  -1 -13    4.52    4.72
   1  -1 -13    1.07    4.79
  -1  -1  13    9.43    3.99
   1  -1 -13    6.87    5.38
   1   1 -13    3.54    4.50
  -1   1  13    5.22    4.03
   1   1 -13    1.51    4.30
   1   1 -13   -6.00    5.03
   0  -1 -13   26.62    6.05
   0  -1 -13   47.39    7.29
   0  -1  13   42.38    5.57
   0  -1 -13   37.12    6.24
   0   1 -13   43.11    6.87
   0   1 -13   37.35    6.28
   0   1  13   27.82    7.84
   0   1 -13   39.31    6.26
  -1  -1 -13    6.00    6.17
  -1  -1 -13   -6.42    6.35
   1  -1  13   -4.70    4.46
  -1  -1 -13   -1.49    5.65
  -1  -1 -13   -4.35    5.53
   1   1  13    7.84    4.50
  -1   1 -13    9.74    5.76
  -1   1 -13   -5.52    5.57
  -1   1 -13   13.66    6.62
  -1   1 -13    4.88    5.52
   5  -2 -13    2.60    6.12
   5  -2 -13   -2.51    6.16
  -5  -2  13    1.74    3.31
   5  -2 -13    2.56    5.68
  -5   2  13   -0.88    3.40
   5   2 -13    5.84    6.26
   5   2 -13    3.51    4.88
   5   2 -13    8.25    6.32
   4  -2 -13  145.62   11.90
   4  -2 -13  131.44   10.16
   4   2 -13  130.46    9.07
   4   2 -13  130.46   10.74
   4   2 -13  141.25   11.80
  -4   2  13  120.47    8.52
   3  -2 -13   11.52    5.94
  -3  -2  13    0.97    4.83
   3  -2 -13   -5.51    4.79
   3   2 -13   -3.81    5.46
   3   2 -13   -0.01    3.89
   2  -2 -13   78.14    8.69
   2  -2 -13   71.58    9.11
  -2  -2  13   77.68    7.36
   2  -2 -13   73.61    8.67
   2   2 -13   79.00    7.43
   2   2 -13   83.49    9.87
  -1  -2  13    3.15    3.40
   1  -2 -13   -7.40    5.44
   1  -2 -13    3.06    4.95
   1  -2 -13   -0.49    4.95
   1   2 -13   -2.34    8.78
   1   2 -13   -8.30    5.07
   1   2 -13   -0.76    4.34
   0  -2 -13   25.49    6.20
   0  -2  13   27.74    4.71
   0  -2 -13   19.19    6.15
   0  -2 -13   26.13    6.84
   0   2 -13   16.63    6.92
   0   2 -13   24.72    5.41
   0   2 -13   21.75    5.66
   0   2  13   17.23    4.87
   0   2 -13   26.37    5.82
  -4  -3  13   12.47    3.49
   4  -3 -13   15.71    7.12
   4  -3 -13   21.46    6.36
   4   3 -13   11.02    6.53
  -4   3  13    8.93    3.82
   4   3 -13    9.32    4.12
   3  -3 -13   42.61    7.65
   3  -3 -13   41.47    6.80
   3  -3 -13   41.89    7.11
   3   3 -13   25.37    6.96
  -3   3  13   34.79    5.35
   3   3 -13   31.36    4.68
  -3   3  13   53.46    7.41
  -2  -3  13   19.92    4.44
   2  -3 -13   15.31    5.95
   2  -3 -13   22.79    5.86
   2  -3 -13   30.71    6.36
   2   3 -13   20.88    6.15
   2   3 -13   22.04    6.10
  -2   3  13   24.26    6.52
  -2   3  13   18.95    4.58
   2   3 -13   23.99    4.47
   1  -3 -13   21.79    5.89
   1  -3 -13   12.93    5.80
   1  -3 -13    6.40    5.71
  -1  -3  13    7.57    3.57
   1   3 -13    5.61    6.01
   1   3 -13   10.61    4.31
  -1   3  13    8.34    8.27
  -1   3  13   15.49    4.24
   1   3 -13   21.92    5.98
   0  -3 -13   17.60    6.13
   0  -3  13   17.74    4.17
   0  -3 -13   12.74    6.37
   0  -3 -13   22.41    6.25
   0   3 -13   10.87    6.30
   0   3 -13    9.60    5.20
   0   3 -13   17.54    5.00
   0   3  13   16.13    4.16
   0   3 -13   -1.56    6.00
   0   3  13   20.81    8.38
   3  -4 -13   22.56    7.22
   3  -4 -13   46.03    7.31
  -3  -4  13   21.91    5.81
   3  -4 -13   21.93    6.21
  -3   4  13   18.13    4.67
   3   4 -13   22.84    4.09
   3   4 -13   26.04    6.82
  -3   4  13   14.91    6.03
   2  -4 -13    4.81    5.67
  -2  -4  13    3.21    4.18
   2  -4 -13    2.54    5.35
   2  -4 -13   10.44    6.07
   2   4 -13    6.28    3.79
  -2   4  13    4.60    3.23
   2   4 -13    3.96    5.81
  -2   4  13    3.10    5.72
   1  -4 -13   90.99   10.40
   1  -4 -13   99.92   11.03
  -1  -4  13   78.73    7.57
   1  -4 -13   96.84   10.86
   1   4 -13  102.41    7.68
  -1   4  13   77.36    8.10
  -1   4  13   94.78    7.49
   1   4 -13  135.13   12.39
   1   4 -13   93.14    9.98
   0   0   0    0.00    0.00
;
_shelx_hkl_checksum              81569
loop_
_space_group_symop_operation_xyz
'x, y, z'
'-x+1/2, y+1/2, -z+1/2'
'-x, -y, -z'
'x-1/2, -y-1/2, z-1/2'
loop_
_atom_site_label
_atom_site_type_symbol
_atom_site_fract_x
_atom_site_fract_y
_atom_site_fract_z
_atom_site_U_iso_or_equiv
_atom_site_adp_type
_atom_site_occupancy
_atom_site_site_symmetry_order
_atom_site_calc_flag
_atom_site_refinement_flags_posn
_atom_site_refinement_flags_adp
_atom_site_refinement_flags_occupancy
_atom_site_disorder_assembly
_atom_site_disorder_group
Tm Tm 0.53721(2) 0.88334(2) 0.34175(2) 0.00474(4) Uani 1 1 d . . . . .
K K 0.57512(10) 0.37571(7) 0.41441(7) 0.01186(12) Uani 1 1 d . . . . .
O1 O 0.7257(3) 0.7260(2) 0.8159(2) 0.0074(4) Uani 1 1 d . . . . .
O2 O 0.5992(3) 0.9639(2) 0.8575(2) 0.0077(4) Uani 1 1 d . . . . .
O3 O 0.6016(3) 0.8952(2) 0.6054(2) 0.0097(4) Uani 1 1 d . . . . .
O4 O 0.6592(3) 0.4975(2) 0.1501(2) 0.0071(4) Uani 1 1 d . . . . .
O5 O 0.5756(3) 0.7489(2) 0.1242(2) 0.0092(4) Uani 1 1 d . . . . .
O6 O 0.6589(3) 0.6517(2) 0.3706(2) 0.0094(4) Uani 1 1 d . . . . .
B1 B 0.6485(5) 0.8591(3) 0.7612(4) 0.0062(5) Uani 1 1 d . . . . .
B2 B 0.6323(5) 0.6300(3) 0.2155(4) 0.0072(5) Uani 1 1 d . . . . .
Li1 Li 0.4179(8) 0.8835(6) 0.9950(6) 0.0137(10) Uani 1 1 d . . . . .
Li2 Li 0.4146(8) 0.3857(6) 0.0501(6) 0.0137(10) Uani 1 1 d . . . . .
loop_
_atom_site_aniso_label
_atom_site_aniso_U_11
_atom_site_aniso_U_22
_atom_site_aniso_U_33
_atom_site_aniso_U_23
_atom_site_aniso_U_13
_atom_site_aniso_U_12
Tm 0.00596(5) 0.00381(5) 0.00450(6) -0.00002(5) 0.00124(3) 0.00009(5)
K 0.0147(3) 0.0105(3) 0.0104(3) -0.0002(2) 0.0028(2) -0.0020(2)
O1 0.0080(9) 0.0067(9) 0.0076(9) 0.0011(7) 0.0021(7) 0.0018(7)
O2 0.0111(9) 0.0068(9) 0.0049(9) -0.0002(7) 0.0014(7) 0.0026(7)
O3 0.0160(10) 0.0078(9) 0.0053(9) -0.0006(7) 0.0020(7) 0.0037(8)
O4 0.0071(9) 0.0063(9) 0.0080(9) -0.0022(7) 0.0019(7) 0.0014(7)
O5 0.0138(10) 0.0065(9) 0.0070(10) 0.0016(7) 0.0020(8) 0.0021(8)
O6 0.0135(10) 0.0084(9) 0.0059(9) 0.0003(7) 0.0012(7) 0.0031(8)
B1 0.0056(12) 0.0057(14) 0.0072(13) -0.0009(10) 0.0011(10) 0.0008(10)
B2 0.0044(12) 0.0069(13) 0.0101(13) 0.0004(11) 0.0013(10) -0.0003(11)
Li1 0.012(2) 0.015(2) 0.012(2) 0.001(2) -0.0031(19) 0.000(2)
Li2 0.017(3) 0.015(2) 0.009(2) 0.000(2) 0.0030(19) -0.007(2)
loop_
_atom_type_symbol
_atom_type_description
_atom_type_scat_dispersion_real
_atom_type_scat_dispersion_imag
_atom_type_scat_source
B B 0.0013 0.0007 'International Tables Vol C Tables 4.2.6.8 and 6.1.1.4'
K K 0.2009 0.2494 'International Tables Vol C Tables 4.2.6.8 and 6.1.1.4'
Li Li -0.0003 0.0001 'International Tables Vol C Tables 4.2.6.8 and 6.1.1.4'
O O 0.0106 0.0060 'International Tables Vol C Tables 4.2.6.8 and 6.1.1.4'
Tm Tm -0.3139 5.2483 'International Tables Vol C Tables 4.2.6.8 and 6.1.1.4'
loop_
_geom_angle_atom_site_label_1
_geom_angle_atom_site_label_2
_geom_angle_atom_site_label_3
_geom_angle
_geom_angle_site_symmetry_1
_geom_angle_site_symmetry_3
O4 Tm O1 175.93(7) 2_655 4_575
O4 Tm O6 98.05(7) 2_655 .
O1 Tm O6 83.62(7) 4_575 .
O4 Tm O2 86.43(7) 2_655 3_676
O1 Tm O2 89.82(7) 4_575 3_676
O6 Tm O2 137.22(7) . 3_676
O4 Tm O3 88.87(7) 2_655 .
O1 Tm O3 94.94(7) 4_575 .
O6 Tm O3 86.98(7) . .
O2 Tm O3 135.76(7) 3_676 .
O4 Tm O3 88.64(7) 2_655 3_676
O1 Tm O3 90.93(7) 4_575 3_676
O6 Tm O3 160.89(7) . 3_676
O2 Tm O3 60.73(7) 3_676 3_676
O3 Tm O3 75.21(8) . 3_676
O4 Tm O5 90.81(7) 2_655 .
O1 Tm O5 86.81(7) 4_575 .
O6 Tm O5 60.07(7) . .
O2 Tm O5 77.43(7) 3_676 .
O3 Tm O5 146.66(7) . .
O3 Tm O5 138.11(7) 3_676 .
O4 Tm B2 97.21(8) 2_655 .
O1 Tm B2 82.36(8) 4_575 .
O6 Tm B2 30.10(8) . .
O2 Tm B2 107.15(8) 3_676 .
O3 Tm B2 117.07(8) . .
O3 Tm B2 166.34(8) 3_676 .
O5 Tm B2 30.11(8) . .
O4 Tm B1 86.63(8) 2_655 3_676
O1 Tm B1 90.94(8) 4_575 3_676
O6 Tm B1 166.65(8) . 3_676
O2 Tm B1 30.16(8) 3_676 3_676
O3 Tm B1 105.67(8) . 3_676
O3 Tm B1 30.58(8) 3_676 3_676
O5 Tm B1 107.58(8) . 3_676
B2 Tm B1 137.10(9) . 3_676
O4 Tm Li1 93.72(11) 2_655 1_554
O1 Tm Li1 82.37(11) 4_575 1_554
O6 Tm Li1 97.09(12) . 1_554
O2 Tm Li1 40.15(12) 3_676 1_554
O3 Tm Li1 174.81(11) . 1_554
O3 Tm Li1 100.34(11) 3_676 1_554
O5 Tm Li1 37.91(12) . 1_554
B2 Tm Li1 67.08(12) . 1_554
B1 Tm Li1 70.04(12) 3_676 1_554
O4 Tm Li2 146.88(11) 2_655 2
O1 Tm Li2 34.50(11) 4_575 2
O6 Tm Li2 106.99(11) . 2
O2 Tm Li2 89.50(10) 3_676 2
O3 Tm Li2 71.53(10) . 2
O3 Tm Li2 61.08(11) 3_676 2
O5 Tm Li2 120.31(11) . 2
B2 Tm Li2 115.34(11) . 2
B1 Tm Li2 73.96(11) 3_676 2
Li1 Tm Li2 104.09(14) 1_554 2
O4 Tm K 128.46(5) 2_655 3_666
O1 Tm K 55.43(5) 4_575 3_666
O6 Tm K 52.80(5) . 3_666
O2 Tm K 144.77(5) 3_676 3_666
O3 Tm K 53.21(5) . 3_666
O3 Tm K 109.39(5) 3_676 3_666
O5 Tm K 103.48(5) . 3_666
B2 Tm K 76.52(6) . 3_666
B1 Tm K 132.26(6) 3_676 3_666
Li1 Tm K 127.31(11) 1_554 3_666
Li2 Tm K 59.14(9) 2 3_666
O6 K O5 100.55(6) . 2_645
O6 K O1 111.46(6) . 3_666
O5 K O1 105.58(6) 2_645 3_666
O6 K O6 111.24(5) . 3_666
O5 K O6 133.66(6) 2_645 3_666
O1 K O6 93.42(6) 3_666 3_666
O6 K O2 70.62(6) . 2_646
O5 K O2 70.13(6) 2_645 2_646
O1 K O2 175.65(6) 3_666 2_646
O6 K O2 89.24(6) 3_666 2_646
O6 K O3 164.32(6) . 3_666
O5 K O3 88.04(6) 2_645 3_666
O1 K O3 53.18(6) 3_666 3_666
O6 K O3 70.11(6) 3_666 3_666
O2 K O3 124.94(6) 2_646 3_666
O6 K O4 53.04(6) . .
O5 K O4 74.14(6) 2_645 .
O1 K O4 75.48(6) 3_666 .
O6 K O4 152.20(6) 3_666 .
O2 K O4 103.59(6) 2_646 .
O3 K O4 118.42(6) 3_666 .
O6 K O1 121.17(6) . 2_646
O5 K O1 68.93(6) 2_645 2_646
O1 K O1 127.28(3) 3_666 2_646
O6 K O1 65.98(6) 3_666 2_646
O2 K O1 51.03(6) 2_646 2_646
O3 K O1 74.11(6) 3_666 2_646
O4 K O1 140.59(6) . 2_646
O6 K B1 137.72(8) . 3_666
O5 K B1 87.81(7) 2_645 3_666
O1 K B1 28.29(7) 3_666 3_666
O6 K B1 90.32(8) 3_666 3_666
O2 K B1 148.43(8) 2_646 3_666
O3 K B1 28.53(7) 3_666 3_666
O4 K B1 91.11(8) . 3_666
O1 K B1 100.61(7) 2_646 3_666
O6 K B2 27.03(7) . .
O5 K B2 92.23(7) 2_645 .
O1 K B2 89.49(7) 3_666 .
O6 K B2 130.50(8) 3_666 .
O2 K B2 91.39(7) 2_646 .
O3 K B2 140.92(8) 3_666 .
O4 K B2 27.22(7) . .
O1 K B2 141.40(7) 2_646 .
B1 K B2 112.40(9) 3_666 .
O6 K K 56.87(5) . 3_666
O5 K K 141.26(5) 2_645 3_666
O1 K K 111.89(5) 3_666 3_666
O6 K K 54.38(5) 3_666 3_666
O2 K K 72.46(5) 2_646 3_666
O3 K K 122.28(5) 3_666 3_666
O4 K K 105.69(5) . 3_666
O1 K K 94.91(5) 2_646 3_666
B1 K K 130.56(7) 3_666 3_666
B2 K K 78.85(6) . 3_666
O6 K B1 94.87(7) . 2_646
O5 K B1 75.11(7) 2_645 2_646
O1 K B1 152.73(7) 3_666 2_646
O6 K B1 69.56(7) 3_666 2_646
O2 K B1 26.69(7) 2_646 2_646
O3 K B1 100.04(7) 3_666 2_646
O4 K B1 128.96(7) . 2_646
O1 K B1 26.58(7) 2_646 2_646
B1 K B1 127.16(6) 3_666 2_646
B2 K B1 117.78(8) . 2_646
K K B1 76.12(6) 3_666 2_646
B1 O1 Li2 119.6(2) . 3_666
B1 O1 Tm 133.82(18) . 4_676
Li2 O1 Tm 104.52(19) 3_666 4_676
B1 O1 K 83.32(15) . 3_666
Li2 O1 K 84.73(17) 3_666 3_666
Tm O1 K 115.49(8) 4_676 3_666
B1 O1 K 86.30(15) . 2_656
Li2 O1 K 86.33(17) 3_666 2_656
Tm O1 K 83.32(6) 4_676 2_656
K O1 K 160.70(8) 3_666 2_656
B1 O2 Li1 169.8(2) . 3_677
B1 O2 Li1 111.9(2) . .
Li1 O2 Li1 74.1(3) 3_677 .
B1 O2 Tm 93.22(16) . 3_676
Li1 O2 Tm 90.41(17) 3_677 3_676
Li1 O2 Tm 120.21(17) . 3_676
B1 O2 K 89.80(16) . 2_656
Li1 O2 K 82.39(17) 3_677 2_656
Li1 O2 K 85.55(16) . 2_656
Tm O2 K 150.29(9) 3_676 2_656
B1 O3 Tm 163.23(18) . .
B1 O3 Tm 91.20(15) . 3_676
Tm O3 Tm 104.79(8) . 3_676
B1 O3 K 81.14(15) . 3_666
Tm O3 K 84.81(6) . 3_666
Tm O3 K 128.76(9) 3_676 3_666
B2 O4 Li2 118.9(2) . .
B2 O4 Li2 82.8(2) . 3_665
Li2 O4 Li2 82.2(2) . 3_665
B2 O4 Tm 126.50(17) . 2_645
Li2 O4 Tm 114.46(19) . 2_645
Li2 O4 Tm 108.30(18) 3_665 2_645
B2 O4 K 86.06(15) . .
Li2 O4 K 82.63(16) . .
Li2 O4 K 153.79(18) 3_665 .
Tm O4 K 97.42(7) 2_645 .
B2 O5 Li1 161.9(3) . 1_554
B2 O5 Li2 85.0(2) . 3_665
Li1 O5 Li2 92.5(2) 1_554 3_665
B2 O5 Tm 89.88(16) . .
Li1 O5 Tm 90.58(19) 1_554 .
Li2 O5 Tm 172.26(18) 3_665 .
B2 O5 K 106.92(17) . 2_655
Li1 O5 K 90.95(19) 1_554 2_655
Li2 O5 K 89.67(17) 3_665 2_655
Tm O5 K 97.40(7) . 2_655
B2 O6 Li1 118.2(2) . 4_675
B2 O6 Tm 93.38(16) . .
Li1 O6 Tm 119.4(2) 4_675 .
B2 O6 K 91.35(16) . .
Li1 O6 K 86.66(19) 4_675 .
Tm O6 K 146.63(9) . .
B2 O6 K 136.65(18) . 3_666
Li1 O6 K 99.30(19) 4_675 3_666
Tm O6 K 85.59(6) . 3_666
K O6 K 68.76(5) . 3_666
O1 B1 O2 121.6(3) . .
O1 B1 O3 123.4(2) . .
O2 B1 O3 114.8(2) . .
O1 B1 Tm 174.9(2) . 3_676
O2 B1 Tm 56.62(13) . 3_676
O3 B1 Tm 58.23(13) . 3_676
O1 B1 K 68.39(14) . 3_666
O2 B1 K 134.29(19) . 3_666
O3 B1 K 70.33(15) . 3_666
Tm B1 K 109.12(10) 3_676 3_666
O1 B1 K 67.13(14) . 2_656
O2 B1 K 63.51(14) . 2_656
O3 B1 K 151.9(2) . 2_656
Tm B1 K 113.87(10) 3_676 2_656
K B1 K 132.77(11) 3_666 2_656
O5 B2 O6 116.2(2) . .
O5 B2 O4 120.1(3) . .
O6 B2 O4 123.7(3) . .
O5 B2 Li2 59.07(19) . 3_665
O6 B2 Li2 175.2(3) . 3_665
O4 B2 Li2 61.1(2) . 3_665
O5 B2 Tm 60.02(14) . .
O6 B2 Tm 56.52(14) . .
O4 B2 Tm 174.0(2) . .
Li2 B2 Tm 118.83(19) 3_665 .
O5 B2 Li1 127.8(2) . 4_675
O6 B2 Li1 36.08(17) . 4_675
O4 B2 Li1 102.2(2) . 4_675
Li2 B2 Li1 145.2(2) 3_665 4_675
Tm B2 Li1 81.00(14) . 4_675
O5 B2 K 156.8(2) . .
O6 B2 K 61.62(14) . .
O4 B2 K 66.73(14) . .
Li2 B2 K 123.03(18) 3_665 .
Tm B2 K 110.67(10) . .
Li1 B2 K 65.68(13) 4_675 .
O5 B2 K 50.11(13) . 2_655
O6 B2 K 107.07(17) . 2_655
O4 B2 K 108.25(17) . 2_655
Li2 B2 K 69.44(15) 3_665 2_655
Tm B2 K 76.62(7) . 2_655
Li1 B2 K 90.30(14) 4_675 2_655
K B2 K 152.41(10) . 2_655
O5 Li1 O6 125.2(3) 1_556 4_576
O5 Li1 O2 100.0(3) 1_556 3_677
O6 Li1 O2 110.2(3) 4_576 3_677
O5 Li1 O2 106.7(3) 1_556 .
O6 Li1 O2 107.4(3) 4_576 .
O2 Li1 O2 105.9(3) 3_677 .
O5 Li1 Li1 112.6(3) 1_556 3_677
O6 Li1 Li1 122.2(4) 4_576 3_677
O2 Li1 Li1 54.7(2) 3_677 3_677
O2 Li1 Li1 51.2(2) . 3_677
O5 Li1 B2 135.0(3) 1_556 4_576
O6 Li1 B2 25.68(12) 4_576 4_576
O2 Li1 B2 120.5(2) 3_677 4_576
O2 Li1 B2 81.73(19) . 4_576
Li1 Li1 B2 106.8(3) 3_677 4_576
O5 Li1 Li2 45.83(17) 1_556 3_666
O6 Li1 Li2 96.1(2) 4_576 3_666
O2 Li1 Li2 145.7(3) 3_677 3_666
O2 Li1 Li2 85.9(2) . 3_666
Li1 Li1 Li2 127.5(4) 3_677 3_666
B2 Li1 Li2 92.7(2) 4_576 3_666
O5 Li1 Tm 51.51(14) 1_556 1_556
O6 Li1 Tm 127.7(3) 4_576 1_556
O2 Li1 Tm 49.44(13) 3_677 1_556
O2 Li1 Tm 123.9(2) . 1_556
Li1 Li1 Tm 87.0(3) 3_677 1_556
B2 Li1 Tm 153.0(2) 4_576 1_556
Li2 Li1 Tm 97.09(19) 3_666 1_556
O5 Li1 K 153.6(3) 1_556 4_576
O6 Li1 K 57.18(15) 4_576 4_576
O2 Li1 K 59.86(15) 3_677 4_576
O2 Li1 K 95.8(2) . 4_576
Li1 Li1 K 71.3(2) 3_677 4_576
B2 Li1 K 60.65(12) 4_576 4_576
Li2 Li1 K 152.5(2) 3_666 4_576
Tm Li1 K 104.39(16) 1_556 4_576
O5 Li1 K 54.78(15) 1_556 2_656
O6 Li1 K 155.1(3) 4_576 2_656
O2 Li1 K 93.36(19) 3_677 2_656
O2 Li1 K 56.34(14) . 2_656
Li1 Li1 K 65.0(2) 3_677 2_656
B2 Li1 K 132.8(2) 4_576 2_656
Li2 Li1 K 66.12(16) 3_666 2_656
Tm Li1 K 73.95(11) 1_556 2_656
K Li1 K 136.28(18) 4_576 2_656
O5 Li1 K 105.7(2) 1_556 2_556
O6 Li1 K 49.49(15) 4_576 2_556
O2 Li1 K 70.54(17) 3_677 2_556
O2 Li1 K 147.5(2) . 2_556
Li1 Li1 K 116.5(3) 3_677 2_556
B2 Li1 K 73.69(13) 4_576 2_556
Li2 Li1 K 115.7(2) 3_666 2_556
Tm Li1 K 79.37(12) 1_556 2_556
K Li1 K 53.62(9) 4_576 2_556
K Li1 K 153.21(17) 2_656 2_556
O5 Li1 Tm 91.9(2) 1_556 4_576
O6 Li1 Tm 33.69(13) 4_576 4_576
O2 Li1 Tm 127.8(2) 3_677 4_576
O2 Li1 Tm 118.9(2) . 4_576
Li1 Li1 Tm 155.0(3) 3_677 4_576
B2 Li1 Tm 48.79(11) 4_576 4_576
Li2 Li1 Tm 66.70(16) 3_666 4_576
Tm Li1 Tm 113.30(16) 1_556 4_576
K Li1 Tm 88.92(12) 4_576 4_576
K Li1 Tm 132.81(17) 2_656 4_576
K Li1 Tm 57.36(8) 2_556 4_576
O1 Li2 O4 117.1(3) 3_666 .
O1 Li2 O5 104.4(3) 3_666 3_665
O4 Li2 O5 120.8(3) . 3_665
O1 Li2 O4 138.7(3) 3_666 3_665
O4 Li2 O4 97.8(2) . 3_665
O5 Li2 O4 72.07(19) 3_665 3_665
O1 Li2 B2 127.7(3) 3_666 3_665
O4 Li2 B2 114.0(3) . 3_665
O5 Li2 B2 35.92(13) 3_665 3_665
O4 Li2 B2 36.15(12) 3_665 3_665
O1 Li2 Li2 157.3(4) 3_666 3_665
O4 Li2 Li2 50.24(18) . 3_665
O5 Li2 Li2 98.2(3) 3_665 3_665
O4 Li2 Li2 47.55(17) 3_665 3_665
B2 Li2 Li2 71.1(2) 3_665 3_665
O1 Li2 Li1 83.0(2) 3_666 3_666
O4 Li2 Li1 102.4(2) . 3_666
O5 Li2 Li1 41.69(16) 3_665 3_666
O4 Li2 Li1 111.7(2) 3_665 3_666
B2 Li2 Li1 76.5(2) 3_665 3_666
Li2 Li2 Li1 116.6(3) 3_665 3_666
O1 Li2 K 57.51(14) 3_666 .
O4 Li2 K 59.65(14) . .
O5 Li2 K 135.4(2) 3_665 .
O4 Li2 K 149.8(2) 3_665 .
B2 Li2 K 167.4(3) 3_665 .
Li2 Li2 K 107.1(3) 3_665 .
Li1 Li2 K 93.78(19) 3_666 .
O1 Li2 K 57.84(14) 3_666 4_565
O4 Li2 K 165.5(3) . 4_565
O5 Li2 K 53.58(13) 3_665 4_565
O4 Li2 K 92.86(18) 3_665 4_565
B2 Li2 K 69.96(15) 3_665 4_565
Li2 Li2 K 139.4(3) 3_665 4_565
Li1 Li2 K 64.24(15) 3_666 4_565
K Li2 K 113.35(15) . 4_565
O1 Li2 Tm 40.98(12) 3_666 2_545
O4 Li2 Tm 125.3(2) . 2_545
O5 Li2 Tm 113.8(2) 3_665 2_545
O4 Li2 Tm 101.2(2) 3_665 2_545
B2 Li2 Tm 111.3(2) 3_665 2_545
Li2 Li2 Tm 125.6(3) 3_665 2_545
Li1 Li2 Tm 116.6(2) 3_666 2_545
K Li2 Tm 80.11(12) . 2_545
K Li2 Tm 61.45(9) 4_565 2_545
O1 Li2 Tm 105.1(2) 3_666 4_575
O4 Li2 Tm 110.3(2) . 4_575
O5 Li2 Tm 96.15(19) 3_665 4_575
O4 Li2 Tm 37.91(12) 3_665 4_575
B2 Li2 Tm 64.95(15) 3_665 4_575
Li2 Li2 Tm 69.3(2) 3_665 4_575
Li1 Li2 Tm 136.8(2) 3_666 4_575
K Li2 Tm 126.79(17) . 4_575
K Li2 Tm 84.12(12) 4_565 4_575
Tm Li2 Tm 64.67(10) 2_545 4_575
O1 Li2 Tm 115.3(2) 3_666 2_645
O4 Li2 Tm 35.36(12) . 2_645
O5 Li2 Tm 90.04(19) 3_665 2_645
O4 Li2 Tm 105.93(19) 3_665 2_645
B2 Li2 Tm 100.15(19) 3_665 2_645
Li2 Li2 Tm 66.8(2) 3_665 2_645
Li1 Li2 Tm 67.39(16) 3_666 2_645
K Li2 Tm 68.28(10) . 2_645
K Li2 Tm 131.61(17) 4_565 2_645
Tm Li2 Tm 148.39(16) 2_545 2_645
Tm Li2 Tm 136.07(16) 4_575 2_645
loop_
_geom_bond_atom_site_label_1
_geom_bond_atom_site_label_2
_geom_bond_distance
_geom_bond_site_symmetry_2
Tm O4 2.274(2) 2_655
Tm O1 2.280(2) 4_575
Tm O6 2.288(2) .
Tm O2 2.302(2) 3_676
Tm O3 2.3068(19) .
Tm O3 2.340(2) 3_676
Tm O5 2.372(2) .
Tm B2 2.738(3) .
Tm B1 2.752(3) 3_676
Tm Li1 3.030(5) 1_554
Tm Li2 3.366(5) 2
Tm K 3.4344(6) 3_666
K O6 2.663(2) .
K O5 2.701(2) 2_645
K O1 2.712(2) 3_666
K O6 2.744(2) 3_666
K O2 2.760(2) 2_646
K O3 2.762(2) 3_666
K O4 2.786(2) .
K O1 2.847(2) 2_646
K B1 2.898(3) 3_666
K B2 3.026(3) .
K K 3.0537(13) 3_666
K B1 3.084(3) 2_646
O1 B1 1.383(3) .
O1 Li2 1.969(6) 3_666
O2 B1 1.385(4) .
O2 Li1 1.954(6) 3_677
O2 Li1 2.046(6) .
O3 B1 1.400(4) .
O4 B2 1.387(4) .
O4 Li2 1.976(6) .
O4 Li2 2.058(6) 3_665
O5 B2 1.373(4) .
O5 Li1 1.862(6) 1_554
O5 Li2 2.008(6) 3_665
O6 B2 1.375(4) .
O6 Li1 1.869(5) 4_675
B2 Li2 2.332(6) 3_665
B2 Li1 2.796(6) 4_675
Li1 Li1 2.412(11) 3_677
Li1 Li2 2.797(8) 3_666
Li2 Li2 2.653(10) 3_665
