#------------------------------------------------------------------------------
#$Date: 2020-12-21 18:21:42 +0200 (Mon, 21 Dec 2020) $
#$Revision: 260043 $
#$URL: file:///home/coder/svn-repositories/cod/cif/4/35/07/4350777.cif $
#------------------------------------------------------------------------------
#
# This file is available in the Crystallography Open Database (COD),
# http://www.crystallography.net/
#
# All data on this site have been placed in the public domain by the
# contributors.
#
data_4350777
loop_
_publ_author_name
'Chen, Pengyun'
'Murshed, M. Mangir'
'Fischer, Michael'
'Frederichs, Thomas'
'Gesing, Thorsten M.'
_publ_section_title
;
 KLi2RE(BO3)2 (RE = Dy, Ho, Er, Tm, Yb, and Y): Structural, Spectroscopic,
 And Thermogravimetric Studies on a Series of Mixed-Alkali Rare-Earth
 Orthoborates
;
_journal_issue                   24
_journal_name_full               'Inorganic Chemistry'
_journal_page_first              18214
_journal_page_last               18224
_journal_paper_doi               10.1021/acs.inorgchem.0c02684
_journal_volume                  59
_journal_year                    2020
_chemical_formula_sum            'B2 Er K Li2 O6'
_chemical_formula_weight         337.86
_space_group_crystal_system      monoclinic
_space_group_IT_number           14
_space_group_name_Hall           '-P 2yn'
_space_group_name_H-M_alt        'P 1 21/n 1'
_atom_sites_solution_hydrogens   .
_audit_creation_method           SHELXL-2018/3
_cell_angle_alpha                90
_cell_angle_beta                 102.7513(6)
_cell_angle_gamma                90
_cell_formula_units_Z            4
_cell_length_a                   6.69887(5)
_cell_length_b                   9.28866(6)
_cell_length_c                   8.97274(7)
_cell_measurement_reflns_used    9929
_cell_measurement_temperature    301(2)
_cell_measurement_theta_max      33.25
_cell_measurement_theta_min      3.20
_cell_volume                     544.546(7)
_computing_structure_refinement  'SHELXL-2018/3 (Sheldrick, 2018)'
_computing_structure_solution    'SHELXT 2014/5 (Sheldrick, 2014)'
_diffrn_ambient_temperature      301(2)
_diffrn_measured_fraction_theta_full 1.000
_diffrn_measured_fraction_theta_max 0.999
_diffrn_measurement_device_type  'Bruker D8 venture'
_diffrn_radiation_type           MoK\a
_diffrn_radiation_wavelength     0.71073
_diffrn_reflns_av_R_equivalents  0.0378
_diffrn_reflns_av_unetI/netI     0.0130
_diffrn_reflns_Laue_measured_fraction_full 1.000
_diffrn_reflns_Laue_measured_fraction_max 0.999
_diffrn_reflns_limit_h_max       9
_diffrn_reflns_limit_h_min       -9
_diffrn_reflns_limit_k_max       13
_diffrn_reflns_limit_k_min       -13
_diffrn_reflns_limit_l_max       12
_diffrn_reflns_limit_l_min       -12
_diffrn_reflns_number            30838
_diffrn_reflns_point_group_measured_fraction_full 1.000
_diffrn_reflns_point_group_measured_fraction_max 0.999
_diffrn_reflns_theta_full        25.242
_diffrn_reflns_theta_max         30.562
_diffrn_reflns_theta_min         3.198
_exptl_absorpt_coefficient_mu    16.133
_exptl_absorpt_correction_T_max  0.274
_exptl_absorpt_correction_T_min  0.158
_exptl_absorpt_correction_type   numerical
_exptl_absorpt_process_details   'J. Appl. Cryst. 48 (2015) 3-10'
_exptl_crystal_colour            pink
_exptl_crystal_density_diffrn    4.121
_exptl_crystal_description       Prism
_exptl_crystal_F_000             604
_exptl_crystal_size_max          0.181
_exptl_crystal_size_mid          0.122
_exptl_crystal_size_min          0.108
_refine_diff_density_max         0.485
_refine_diff_density_min         -0.584
_refine_diff_density_rms         0.124
_refine_ls_extinction_coef       0.00389(14)
_refine_ls_extinction_expression Fc^*^=kFc[1+0.001xFc^2^\l^3^/sin(2\q)]^-1/4^
_refine_ls_extinction_method     'SHELXL-2018/3 (Sheldrick 2018)'
_refine_ls_goodness_of_fit_ref   1.074
_refine_ls_hydrogen_treatment    undef
_refine_ls_matrix_type           full
_refine_ls_number_parameters     110
_refine_ls_number_reflns         1676
_refine_ls_number_restraints     0
_refine_ls_restrained_S_all      1.074
_refine_ls_R_factor_all          0.0143
_refine_ls_R_factor_gt           0.0117
_refine_ls_shift/su_max          0.002
_refine_ls_shift/su_mean         0.000
_refine_ls_structure_factor_coef Fsqd
_refine_ls_weighting_details
'w=1/[\s^2^(Fo^2^)+(0.0096P)^2^+0.8107P] where P=(Fo^2^+2Fc^2^)/3'
_refine_ls_weighting_scheme      calc
_refine_ls_wR_factor_gt          0.0241
_refine_ls_wR_factor_ref         0.0246
_reflns_Friedel_coverage         0.000
_reflns_Friedel_fraction_full    .
_reflns_Friedel_fraction_max     .
_reflns_number_gt                1551
_reflns_number_total             1676
_reflns_threshold_expression     'I > 2\s(I)'
_cod_data_source_file            KLi2Er_BO3_2.cif
_cod_data_source_block           KLi2Er(BO3)2-REMEASURE
_cod_depositor_comments
;
The following automatic conversions were performed:

data item '_exptl_absorpt_correction_type' value 'Numerical' was
changed to 'numerical' in accordance with the built-in table derived
from the CIF Core dictionary named 'cif_core.dic' version 2.4.5 last
updated on 2014-11-21.

Automatic conversion script
Id: cif_fix_values 8369 2020-08-20 11:38:08Z andrius 
;
_cod_original_sg_symbol_H-M      'P 21/n'
_cod_database_code               4350777
_shelx_shelxl_version_number     2018/3
_shelx_space_group_comment
;
The symmetry employed for this shelxl refinement is uniquely defined
by the following loop, which should always be used as a source of
symmetry information in preference to the above space-group names.
They are only intended as comments.
;
_shelx_res_file
;
TITL 20200707CPYKEr2b_0m_a.res in P2(1)/n
    KLi2Er(BO3)2-REMEASURE.res
    created by SHELXL-2018/3 at 01:06:27 on 23-Jul-2020
REM Old TITL 20200707CPYKEr2b_0m in P2(1)/n

REM SHELXT solution in P2(1)/n
REM R1 0.040,  Rweak 0.002,  Alpha 0.014,  Orientation as input
REM Formula found by SHELXT:  B2 Er K O6

CELL  0.71073   6.69887   9.28866   8.97274   90.000  102.7513   90.000
ZERR    4.000   0.00005   0.00006   0.00007    0.000    0.0006    0.000
LATT  1
SYMM 1/2-X, 1/2+Y, 1/2-Z
SFAC B ER K LI O
UNIT 8 4 4 8 24
TEMP 27.750
L.S. 10
BOND
LIST 4
acta
FMAP 2
PLAN 20
WGHT    0.009600    0.810700
EXTI    0.003891
FVAR       0.36784
ER    2    0.537446    0.883104    0.342011    11.00000    0.00598    0.00428 =
         0.00449   -0.00005    0.00126    0.00006
K     3    0.574446    0.375926    0.414229    11.00000    0.01438    0.01068 =
         0.01007    0.00021    0.00248   -0.00221
O1    5    0.725175    0.726495    0.816620    11.00000    0.00757    0.00581 =
         0.00931    0.00142    0.00204    0.00202
O2    5    0.599756    0.963996    0.858133    11.00000    0.01232    0.00707 =
         0.00553    0.00006    0.00170    0.00299
O3    5    0.602588    0.894903    0.606652    11.00000    0.01493    0.00851 =
         0.00557    0.00062    0.00131    0.00361
O4    5    0.658699    0.497754    0.149836    11.00000    0.00816    0.00646 =
         0.00724   -0.00172    0.00121    0.00202
O5    5    0.575148    0.748589    0.124040    11.00000    0.01312    0.00763 =
         0.00625    0.00140    0.00242    0.00237
O6    5    0.659704    0.651137    0.370191    11.00000    0.01256    0.00770 =
         0.00646    0.00005    0.00149    0.00300
B1    1    0.648575    0.858852    0.761901    11.00000    0.00384    0.00708 =
         0.00823    0.00009    0.00044   -0.00146
B2    1    0.632118    0.629967    0.215202    11.00000    0.00492    0.00767 =
         0.00889    0.00025    0.00256   -0.00038
LI1   4    0.417382    0.883193    0.994364    11.00000    0.01143    0.00973 =
         0.01084   -0.00051   -0.00098    0.00147
LI2   4    0.416328    0.385302    0.050605    11.00000    0.01344    0.01912 =
         0.00978   -0.00138    0.00175   -0.00608
HKLF 4




REM  20200707CPYKEr2b_0m_a.res in P2(1)/n
REM wR2 = 0.0246, GooF = S = 1.074, Restrained GooF = 1.074 for all data
REM R1 = 0.0117 for 1551 Fo > 4sig(Fo) and 0.0143 for all 1676 data
REM 110 parameters refined using 0 restraints

END

WGHT      0.0096      0.8106

REM Highest difference peak  0.485,  deepest hole -0.584,  1-sigma level  0.124
Q1    1   0.6623  0.5604  0.1821  11.00000  0.05    0.49
Q2    1   0.5864  0.4652  0.1617  11.00000  0.05    0.47
Q3    1   0.6985  0.7398  0.5866  11.00000  0.05    0.47
Q4    1   0.7740  0.7141  0.7615  11.00000  0.05    0.47
Q5    1   0.5550  0.8589  0.6436  11.00000  0.05    0.45
Q6    1   0.5770  0.6771  0.3584  11.00000  0.05    0.43
Q7    1   0.5837  0.3916  0.3245  11.00000  0.05    0.42
Q8    1   0.6691  0.6420  0.3003  11.00000  0.05    0.40
Q9    1   0.3137  0.8557  1.0170  11.00000  0.05    0.39
Q10   1   0.6956  0.9941  0.9414  11.00000  0.05    0.38
Q11   1   0.7969  0.6771  0.8603  11.00000  0.05    0.37
Q12   1   0.6884  0.4535  0.2435  11.00000  0.05    0.37
Q13   1   0.8094  0.4617  0.2597  11.00000  0.05    0.37
Q14   1   0.5835  0.9252  0.9233  11.00000  0.05    0.37
Q15   1   0.6963  0.5329  0.1036  11.00000  0.05    0.37
Q16   1   0.7293  0.5990  0.4201  11.00000  0.05    0.37
Q17   1   0.4818  0.8394  0.3928  11.00000  0.05    0.36
Q18   1   0.5932  0.4849  0.1065  11.00000  0.05    0.36
Q19   1   0.7415  0.4262  0.1623  11.00000  0.05    0.36
Q20   1   0.5672  0.9599  0.3187  11.00000  0.05    0.36
;
_shelx_res_checksum              32129
_shelx_hkl_file
;
   1   0   0    4.80    2.00
   1   0   0    7.30    2.70
   1   0   0    7.80    2.70
  -1   0   0    8.30    2.20
  -1   0   0    9.90    2.90
  -1   0   0    6.70    3.20
   1   0   0    6.90    2.40
   1   0   0    4.80    3.20
  -1   0   0    5.60    3.30
  -1   0   0    6.60    2.30
  -1   0   0    7.50    2.60
   2   0   0 6591.74  145.79
   2   0   0 5986.90  138.89
   2   0   0 6192.28  141.79
   2   0   0 6254.77  142.89
   2   0   0 6220.38  143.59
  -2   0   0 6419.86  142.69
  -2   0   0 6295.47  142.29
  -2   0   0 6341.57  145.89
  -2   0   0 6310.77  141.49
  -2   0   0 6022.70  143.49
  -2   0   0 6280.07  144.19
   2   0   0 6254.07  141.29
   3   0   0    0.70    3.30
  -3   0   0    9.40    6.50
  -3   0   0    6.20    4.80
  -3   0   0    1.40    6.70
  -3   0   0    5.90    3.90
  -3   0   0    7.60    5.60
  -3   0   0    4.40    5.40
   3   0   0    2.60    6.10
   3   0   0    4.30    4.70
   3   0   0   -0.90    5.00
  -3   0   0   -6.30    6.60
   3   0   0   -3.90    9.00
   3   0   0    2.30    4.00
  -4   0   0  275.57   13.20
   4   0   0  279.37   15.90
   4   0   0  296.87   12.50
   4   0   0  288.87   13.30
   4   0   0  296.27   21.60
   4   0   0  278.27   16.80
  -4   0   0  253.57   15.10
   4   0   0  313.17   19.20
  -4   0   0  321.77   18.00
  -4   0   0  327.17   19.00
  -4   0   0  295.27   16.60
  -4   0   0  275.87   24.90
  -5   0   0    6.90    8.70
  -5   0   0   -2.10   11.30
   5   0   0   -4.50    7.20
   5   0   0    6.00    7.10
  -5   0   0  -11.40   11.40
  -5   0   0   11.30    5.90
   5   0   0    3.60    4.50
   5   0   0    9.90    5.00
   5   0   0    2.60   12.80
  -5   0   0    0.50    8.10
  -5   0   0    9.60   10.80
  -5   0   0   -9.80    9.60
   6   0   0   14.30    9.80
  -6   0   0   20.60   15.70
  -6   0   0    1.00   15.00
  -6   0   0  -10.80   14.80
  -6   0   0   26.90   18.70
   6   0   0   23.00    4.50
   6   0   0   20.00   16.00
   6   0   0   12.70   12.00
  -6   0   0   10.90   12.10
  -6   0   0   13.20   14.50
  -6   0   0   19.60   12.00
  -6   0   0   26.40    8.30
  -7   0   0    5.70    9.60
   7   0   0   -7.40   11.20
  -7   0   0    7.60   14.30
   7   0   0   29.40   18.00
  -7   0   0    3.30   17.90
  -7   0   0   -3.40   18.50
  -7   0   0   14.60   12.30
  -7   0   0  -39.20   16.00
   8   0   0  307.07   29.30
  -8   0   0  301.87   37.90
   8   0   0  307.07   35.40
  -8   0   0  365.26   36.10
  -8   0   0  269.37   28.40
  -8   0   0  254.97   36.10
  -9   0   0  -34.00   20.30
   9   0   0    6.60   23.10
  -9   0   0  -17.30   30.90
  -9   0   0   32.90   31.00
  -9   0   0   11.50   44.00
   0  -1   0    2.30    2.60
   0  -1   0    0.00    2.30
   0  -1   0    4.60    2.30
   0  -1   0    9.00    2.80
   0  -1   0   -2.80    1.80
   0  -1   0   -0.40    2.00
   0  -1   0   -1.10    2.10
   0   1   0   -1.70    1.80
   0   1   0   -1.60    2.30
   0   1   0    1.60    2.30
   0   1   0    1.20    2.20
   0   1   0    4.10    2.40
   0   1   0    0.50    2.30
   0   1   0    3.00    2.40
  -1  -1   0 2974.60   69.29
   1  -1   0 3011.50   71.19
  -1  -1   0 3032.40   70.29
  -1  -1   0 2921.11   69.49
   1  -1   0 2988.70   69.99
   1  -1   0 3075.59   70.29
   1  -1   0 3006.10   68.99
   1  -1   0 2982.10   68.89
  -1  -1   0 3151.38   69.79
  -1  -1   0 3082.39   70.39
  -1  -1   0 2934.71   69.09
  -1  -1   0 3021.80   71.49
   1  -1   0 3059.29   70.09
   1  -1   0 2871.81   68.29
  -1   1   0 3056.19   70.39
  -1   1   0 3076.19   70.19
   1   1   0 2965.70   69.19
  -1   1   0 2877.01   68.19
  -1   1   0 2955.10   69.19
  -1   1   0 3069.09   71.49
   1   1   0 3020.40   69.19
  -1   1   0 3093.59   69.49
   1   1   0 3047.09   69.69
  -1   1   0 3041.70   70.19
  -1   1   0 3007.30   70.19
   1   1   0 2972.30   69.69
   1   1   0 2997.00   70.09
   1   1   0 2879.91   70.09
  -2  -1   0 2057.29   51.79
   2  -1   0 2137.19   51.99
   2  -1   0 2029.60   49.60
  -2  -1   0 2085.89   49.70
   2  -1   0 2041.70   49.40
   2  -1   0 2117.19   53.19
  -2  -1   0 2081.69   52.29
  -2  -1   0 2160.28   51.99
  -2  -1   0 2049.29   50.79
   2  -1   0 1965.70   51.39
  -2  -1   0 1977.60   53.79
  -2  -1   0 2123.59   51.29
   2   1   0 2115.39   50.89
  -2   1   0 2003.50   54.39
  -2   1   0 2072.59   50.79
   2   1   0 2114.99   51.39
  -2   1   0 2047.50   50.79
   2   1   0 2089.19   49.99
  -2   1   0 2103.59   51.29
   2   1   0 2085.29   49.70
  -2   1   0 1947.31   51.99
  -2   1   0 2065.59   53.49
  -2   1   0 2091.59   52.39
   2   1   0 2097.79   52.59
  -2   1   0 2021.90   46.80
  -3  -1   0 2448.56   62.19
   3  -1   0 2378.16   57.39
   3  -1   0 2537.35   61.49
   3  -1   0 2262.37   57.69
  -3  -1   0 2333.57   64.79
  -3  -1   0 2366.16   55.29
  -3  -1   0 2307.17   59.59
   3  -1   0 2455.75   63.89
  -3  -1   0 2527.15   62.29
  -3  -1   0 2388.66   61.99
  -3  -1   0 2435.16   56.99
  -3  -1   0 2300.87   63.19
   3  -1   0 2462.55   61.59
   3  -1   0 2358.66   64.89
  -3   1   0 2304.47   63.79
   3   1   0 2284.07   61.69
  -3   1   0 2335.87   62.09
  -3   1   0 2368.46   62.29
   3   1   0 2444.36   60.99
  -3   1   0 2583.34   60.69
   3   1   0 2387.46   59.49
  -3   1   0 2396.06   59.89
   3   1   0 2433.96   57.19
   3   1   0 2365.26   64.99
  -3   1   0 2337.37   65.49
   3   1   0 2452.35   58.09
  -4  -1   0  798.42   21.10
  -4  -1   0  784.82   26.50
  -4  -1   0  788.72   33.60
  -4  -1   0  835.12   28.40
  -4  -1   0  753.52   29.20
  -4  -1   0  788.92   28.50
   4  -1   0  736.03   31.80
   4  -1   0  760.42   31.00
   4  -1   0  760.62   23.20
  -4  -1   0  777.02   29.20
   4  -1   0  734.93   27.00
   4  -1   0  752.72   22.70
   4  -1   0  780.82   26.80
   4   1   0  820.42   33.60
  -4   1   0  727.23   32.80
  -4   1   0  717.43   26.20
   4   1   0  797.32   27.00
  -4   1   0  728.53   28.60
   4   1   0  828.52   29.10
   4   1   0  794.92   24.60
  -4   1   0  738.23   33.10
   4   1   0  790.72   21.80
   4   1   0  804.42   23.50
  -4   1   0  767.12   27.60
  -4   1   0  785.02   26.70
  -5  -1   0  208.78   18.70
   5  -1   0  236.48   11.20
  -5  -1   0  232.28   10.20
   5  -1   0  224.88   22.70
  -5  -1   0  248.18   19.00
   5  -1   0  217.18   24.50
   5  -1   0  217.38   16.70
  -5  -1   0  198.38   19.60
   5  -1   0  202.28   17.00
   5  -1   0  206.18   11.10
  -5  -1   0  209.88   19.00
  -5  -1   0  235.98   23.30
  -5  -1   0  263.77   20.20
   5   1   0  222.38   12.00
  -5   1   0  188.08   23.20
  -5   1   0  241.18   27.90
  -5   1   0  248.28   20.20
  -5   1   0  232.68   19.30
  -5   1   0  234.48   19.70
  -5   1   0  232.78   15.90
  -5   1   0  243.48   24.10
   5   1   0  212.18   12.70
   5   1   0  208.48   17.10
   5   1   0  214.48   16.80
   5   1   0  217.88   22.30
  -5   1   0  220.18   21.20
  -6  -1   0 1016.60   42.30
   6  -1   0 1094.79   40.80
  -6  -1   0  973.70   46.60
   6  -1   0  963.10   45.30
  -6  -1   0 1009.60   39.50
   6  -1   0 1039.10   37.90
  -6  -1   0 1017.30   43.60
   6  -1   0 1060.69   25.40
  -6  -1   0 1214.78   50.79
  -6  -1   0  985.60   46.50
  -6   1   0  993.80   46.90
   6   1   0 1035.70   39.20
  -6   1   0 1014.30   36.00
  -6   1   0 1003.70   41.80
  -6   1   0  990.50   45.90
  -6   1   0  977.10   42.30
   6   1   0 1070.39   28.60
   6   1   0 1023.10   29.50
  -6   1   0 1030.60   39.80
   6   1   0 1105.49   47.90
  -6   1   0  932.01   45.20
  -7  -1   0  -22.20   17.50
  -7  -1   0    0.10   12.90
  -7  -1   0    3.10   17.30
  -7  -1   0   11.60   17.80
  -7  -1   0  -10.50   11.90
   7  -1   0   12.50   18.10
   7  -1   0   17.50   11.60
   7   1   0   -7.80   11.70
  -7   1   0   -9.70   12.30
   7   1   0  -10.50   14.80
  -7   1   0    9.30   12.60
  -7   1   0   21.30   15.60
  -7   1   0   -5.00   18.50
  -7   1   0   -6.80   17.60
  -7   1   0    4.40   18.60
  -8  -1   0  840.82   58.89
  -8  -1   0  894.81   61.29
  -8  -1   0  759.42   46.30
   8  -1   0  794.62   50.19
  -8  -1   0  737.33   42.60
   8  -1   0  801.92   40.90
  -8   1   0  814.72   46.90
   8   1   0  808.02   49.80
   8   1   0  824.42   41.10
  -8   1   0  754.92   53.49
  -8   1   0  793.72   56.49
  -8   1   0  832.62   43.60
  -9  -1   0   90.69   36.00
   9  -1   0   80.49   28.30
  -9  -1   0   82.69   32.10
  -9  -1   0   96.29   35.30
  -9  -1   0   70.19   24.40
  -9   1   0   59.49   37.00
  -9   1   0   67.99   24.20
  -9   1   0   42.10   50.19
  -9   1   0   69.99   31.60
   9   1   0   78.29   27.90
   0  -2   0   67.69    8.50
   0  -2   0   61.39    6.50
   0  -2   0   67.49    7.20
   0  -2   0   61.69    7.20
   0  -2   0   65.49    7.50
   0  -2   0   75.09    8.00
   0  -2   0   66.49    7.70
   0  -2   0   68.39    7.50
   0   2   0   44.40    6.20
   0   2   0   63.59    7.50
   0   2   0   71.99    7.70
   0   2   0   63.69    8.10
   0   2   0   71.69    7.00
   0   2   0   70.59    8.00
   0   2   0   52.29    6.40
   1  -2   0  670.83   20.30
  -1  -2   0  645.44   20.30
  -1  -2   0  695.43   21.60
   1  -2   0  683.53   20.90
  -1  -2   0  626.34   20.90
  -1  -2   0  646.74   19.90
  -1  -2   0  694.53   18.60
  -1  -2   0  643.74   18.10
  -1  -2   0  663.33   20.90
   1  -2   0  659.53   19.90
  -1  -2   0  626.94   21.50
   1  -2   0  657.63   22.00
   1  -2   0  665.33   20.00
   1  -2   0  662.73   20.80
   1  -2   0  678.93   19.90
  -1   2   0  670.83   20.80
   1   2   0  627.34   20.20
   1   2   0  681.03   20.70
   1   2   0  678.73   21.80
  -1   2   0  641.44   22.30
  -1   2   0  686.13   21.60
  -1   2   0  665.93   20.40
  -1   2   0  664.73   19.70
   1   2   0  652.63   18.70
  -1   2   0  635.94   20.20
   1   2   0  656.83   22.30
   1   2   0  660.13   20.90
  -1   2   0  615.34   20.70
  -1   2   0  686.63   19.80
  -1   2   0  611.34   21.50
   1   2   0  702.33   20.00
   2  -2   0  136.59   10.80
  -2  -2   0  128.59   10.40
   2  -2   0  151.08   11.20
  -2  -2   0  148.99   11.30
  -2  -2   0  150.78    9.80
   2  -2   0  154.38    9.80
  -2  -2   0  129.29   12.10
  -2  -2   0  140.39   10.30
  -2  -2   0  151.38   10.90
   2  -2   0  144.79    8.40
   2  -2   0  124.79   12.10
   2  -2   0  153.28   11.20
   2  -2   0  142.89    9.30
  -2  -2   0  138.39   11.10
  -2  -2   0  142.29    7.90
  -2  -2   0  130.89   12.70
  -2   2   0  147.59   11.30
   2   2   0  149.59   10.10
   2   2   0  154.08   10.90
  -2   2   0  135.19    9.80
   2   2   0  141.79   10.40
   2   2   0  146.99   11.40
  -2   2   0  146.69   11.90
  -2   2   0  133.19   10.90
   2   2   0  131.79    9.80
  -2   2   0  140.09   11.60
   2   2   0  147.29    9.60
  -2   2   0  144.29    8.00
  -2   2   0  132.19   14.10
  -2   2   0  147.89   12.00
   3  -2   0 4738.43  107.99
   3  -2   0 4607.24  111.39
  -3  -2   0 4625.34  109.19
   3  -2   0 4555.94  107.99
   3  -2   0 4797.82  113.29
   3  -2   0 4677.03  111.39
   3  -2   0 4610.84  114.89
  -3  -2   0 4722.03  111.49
  -3  -2   0 4328.77  115.79
  -3  -2   0 4832.32  106.69
  -3  -2   0 4799.72  112.99
  -3  -2   0 4608.34  110.59
  -3  -2   0 4854.41  111.09
  -3   2   0 4363.66  114.79
  -3   2   0 4786.52  110.39
   3   2   0 4623.04  115.19
   3   2   0 4589.74  112.59
  -3   2   0 4478.65  104.89
   3   2   0 4694.03  115.59
   3   2   0 4666.23  109.09
   3   2   0 4526.35  109.59
  -3   2   0 4624.04  110.59
  -3   2   0 4652.33  112.69
   3   2   0 4673.63  111.49
   3   2   0 4647.94  108.39
  -3   2   0 4641.94  113.39
  -3   2   0 4218.88  121.69
   4  -2   0   33.20    8.00
  -4  -2   0   21.10    7.30
   4  -2   0   15.70   11.30
   4  -2   0   37.20   10.40
  -4  -2   0   28.90    8.90
  -4  -2   0   17.80    9.00
  -4  -2   0   41.00   12.70
  -4  -2   0   23.60    8.20
   4  -2   0   29.10    5.80
   4  -2   0   22.80    5.30
   4  -2   0   23.70    7.80
  -4  -2   0   33.20    8.80
  -4   2   0   41.00    8.50
   4   2   0   18.70    6.10
   4   2   0   21.40    5.60
  -4   2   0   25.60    9.10
  -4   2   0   44.10   13.30
   4   2   0   21.60    7.20
   4   2   0   27.50   12.00
   4   2   0   20.20    6.30
  -4   2   0   36.90    8.80
   4   2   0   31.60    8.70
  -4   2   0   15.30    9.00
  -4   2   0   39.50    8.70
  -4   2   0   26.30   12.30
  -5  -2   0 3772.32  103.89
   5  -2   0 4049.69  110.09
  -5  -2   0 3900.91  109.79
   5  -2   0 3886.81  101.79
  -5  -2   0 4047.59  103.99
   5  -2   0 3960.70  100.99
  -5  -2   0 3934.21  104.79
  -5  -2   0 4021.20  102.99
   5  -2   0 3979.80   93.79
   5  -2   0 4035.30  106.79
   5  -2   0 3927.31   93.69
  -5  -2   0 4426.46  120.29
   5   2   0 4115.29   95.69
   5   2   0 4113.89  104.09
  -5   2   0 3973.80  102.29
   5   2   0 4104.09   95.79
  -5   2   0 3789.42  104.69
   5   2   0 3876.01  101.39
  -5   2   0 4135.29  101.39
  -5   2   0 3906.31  102.19
  -5   2   0 3917.41  107.69
  -5   2   0 3925.81  111.09
   5   2   0 4000.90  109.79
  -5   2   0 4010.90  104.49
   6  -2   0    7.50   15.60
   6  -2   0   20.70   10.20
  -6  -2   0   17.40   13.30
  -6  -2   0   14.60   16.30
  -6  -2   0   16.80   14.70
  -6  -2   0   -4.40   10.80
  -6  -2   0   18.70   12.20
   6  -2   0   11.90    3.60
  -6   2   0   11.90   11.30
   6   2   0   22.70   16.20
   6   2   0   18.60    6.30
  -6   2   0    4.30   16.10
  -6   2   0   23.50   12.50
  -6   2   0   39.60   13.50
  -6   2   0    3.30   24.00
  -6   2   0   18.90   14.90
   6   2   0   36.50   12.00
  -7  -2   0 1835.92   65.99
  -7  -2   0 1923.21   62.59
   7  -2   0 1839.72   57.99
  -7  -2   0 1899.71   52.39
   7  -2   0 1816.72   71.09
  -7  -2   0 1910.21   66.59
  -7  -2   0 1868.61   73.29
  -7   2   0 1861.31   74.19
  -7   2   0 1832.02   60.39
   7   2   0 1861.71   61.59
  -7   2   0 1900.71   71.59
  -7   2   0 1865.81   66.89
   7   2   0 1815.52   70.49
  -7   2   0 1944.71   63.29
  -7   2   0 1831.42   65.79
  -8  -2   0   -8.70   24.20
   8  -2   0  -38.10   18.40
   8  -2   0  -14.70   18.80
  -8  -2   0  -15.40   16.60
  -8  -2   0    2.60   20.30
  -8  -2   0  -32.80   26.60
  -8   2   0   -0.70   17.50
  -8   2   0    8.00   27.50
  -8   2   0    0.70   25.60
  -8   2   0    8.10   18.30
   8   2   0    2.80   17.40
   8   2   0   17.70   20.00
   9  -2   0  587.24   50.49
  -9  -2   0  668.13   51.39
  -9  -2   0  581.34   62.29
  -9  -2   0  564.94   59.89
  -9  -2   0  729.73   50.29
  -9   2   0  688.33   61.99
   9   2   0  623.34   51.19
  -9   2   0  582.04   50.09
  -9   2   0  603.34   48.30
   0  -3   0   -3.30    5.90
   0  -3   0    5.20    5.80
   0  -3   0   11.60    5.50
   0  -3   0    2.70    5.50
   0  -3   0    6.10    5.70
   0  -3   0   10.10    6.40
   0  -3   0    2.00    6.50
   0   3   0   -5.10    5.30
   0   3   0    2.50    5.80
   0   3   0    5.90    5.90
   0   3   0    2.80    5.10
   0   3   0    3.50    6.50
   0   3   0    5.70    6.60
   0   3   0    9.00    6.10
   1  -3   0 1054.39   30.30
   1  -3   0 1115.79   31.10
  -1  -3   0 1033.10   30.90
   1  -3   0 1098.29   32.10
  -1  -3   0 1076.49   32.80
  -1  -3   0 1095.39   31.20
   1  -3   0 1084.19   32.70
  -1  -3   0 1087.49   32.40
  -1  -3   0 1081.19   33.10
  -1  -3   0 1124.19   29.30
   1  -3   0 1015.10   31.50
  -1  -3   0 1033.20   32.70
   1  -3   0 1080.29   31.40
   1  -3   0 1102.99   30.70
   1  -3   0 1152.88   32.70
   1  -3   0 1071.99   33.30
   1   3   0 1082.39   30.50
  -1   3   0 1049.79   33.10
   1   3   0 1047.70   31.40
   1   3   0 1087.79   32.20
   1   3   0 1116.19   33.00
  -1   3   0 1073.79   31.30
  -1   3   0 1088.59   31.40
   1   3   0 1009.00   33.00
   1   3   0 1019.70   32.00
  -1   3   0 1068.89   33.90
  -1   3   0 1109.79   32.40
  -1   3   0 1107.69   32.10
  -1   3   0 1065.19   32.20
   1   3   0 1082.59   29.10
  -1   3   0 1067.69   30.40
   2  -3   0  732.33   23.80
  -2  -3   0  786.82   22.00
   2  -3   0  741.33   25.30
   2  -3   0  766.02   25.00
  -2  -3   0  785.82   22.90
  -2  -3   0  754.32   26.40
  -2  -3   0  750.52   24.90
   2  -3   0  736.43   27.30
   2  -3   0  745.43   25.80
  -2  -3   0  758.62   28.20
   2  -3   0  777.92   24.10
   2  -3   0  727.13   27.70
  -2  -3   0  756.42   25.10
   2  -3   0  744.93   23.40
  -2  -3   0  709.03   25.70
  -2  -3   0  727.43   25.70
  -2   3   0  753.22   28.80
   2   3   0  768.42   24.10
   2   3   0  744.53   26.50
   2   3   0  715.13   28.80
  -2   3   0  759.42   24.30
  -2   3   0  746.83   25.30
  -2   3   0  780.92   26.50
  -2   3   0  758.52   23.50
  -2   3   0  691.23   25.70
   2   3   0  748.53   25.00
   2   3   0  770.02   23.60
  -2   3   0  697.03   27.30
  -2   3   0  739.23   25.40
   2   3   0  728.33   25.60
  -2   3   0  748.33   26.40
   2   3   0  781.92   26.00
  -3  -3   0  994.60   32.50
   3  -3   0 1069.49   37.30
   3  -3   0 1021.10   29.00
  -3  -3   0 1045.70   35.80
  -3  -3   0 1099.29   33.60
   3  -3   0 1041.40   30.50
  -3  -3   0 1095.59   35.50
   3  -3   0  967.10   32.70
   3  -3   0 1043.40   33.70
   3  -3   0 1010.80   33.70
  -3  -3   0  943.91   36.60
  -3  -3   0 1049.99   37.40
   3  -3   0 1029.00   30.50
   3  -3   0 1040.40   36.90
  -3  -3   0 1066.49   28.30
  -3  -3   0 1088.99   31.80
  -3  -3   0 1018.60   32.60
   3   3   0 1032.90   31.10
   3   3   0 1084.29   38.30
  -3   3   0 1036.80   34.30
  -3   3   0 1016.90   32.10
   3   3   0 1051.89   34.30
   3   3   0 1024.10   24.40
  -3   3   0 1046.20   34.70
  -3   3   0 1045.40   34.30
  -3   3   0 1015.20   34.60
  -3   3   0 1000.20   38.90
   3   3   0  997.90   24.50
  -3   3   0 1023.30   33.40
   3   3   0 1040.80   36.60
   3   3   0 1061.69   33.50
  -3   3   0 1036.90   28.90
   3   3   0 1008.10   35.80
   3   3   0  985.50   31.40
   3   3   0 1009.30   32.50
  -4  -3   0 1139.29   38.20
  -4  -3   0 1150.88   39.10
  -4  -3   0 1206.38   37.50
  -4  -3   0 1083.99   39.20
  -4  -3   0 1084.39   42.50
   4  -3   0 1183.88   40.10
  -4  -3   0 1046.70   40.70
   4  -3   0 1216.48   39.20
   4  -3   0 1160.58   33.30
  -4  -3   0 1190.08   31.90
  -4  -3   0 1203.18   36.50
   4  -3   0 1179.18   43.70
  -4  -3   0 1156.58   44.20
   4  -3   0 1165.38   37.90
   4  -3   0 1189.68   33.50
   4   3   0 1220.18   38.50
  -4   3   0 1143.69   30.10
  -4   3   0 1131.79   39.70
  -4   3   0 1214.18   47.80
  -4   3   0 1085.89   40.10
  -4   3   0 1187.78   37.40
   4   3   0 1176.38   37.50
  -4   3   0 1042.60   41.00
  -4   3   0 1102.39   44.30
   4   3   0 1186.18   34.70
   4   3   0 1196.88   36.20
   4   3   0 1171.18   43.60
   4   3   0 1169.78   39.30
  -4   3   0 1146.19   38.60
  -5  -3   0  403.36   25.30
  -5  -3   0  363.96   23.20
  -5  -3   0  366.46   25.30
  -5  -3   0  400.66   16.90
   5  -3   0  356.26   22.50
  -5  -3   0  401.76   23.50
  -5  -3   0  385.76   28.50
   5  -3   0  374.06   27.00
  -5  -3   0  358.86   24.50
   5  -3   0  405.06   29.30
  -5  -3   0  324.17   32.40
   5  -3   0  427.56   22.20
   5  -3   0  385.16   24.20
  -5   3   0  427.56   26.70
  -5   3   0  411.46   24.60
   5   3   0  427.36   20.70
   5   3   0  394.36   18.10
  -5   3   0  374.76   24.50
  -5   3   0  366.86   29.30
  -5   3   0  408.06   28.40
   5   3   0  339.67   27.60
  -5   3   0  364.76   24.60
   5   3   0  353.56   23.00
   5   3   0  360.26   23.10
   6  -3   0  917.61   45.90
  -6  -3   0  963.60   38.80
  -6  -3   0  969.40   41.10
   6  -3   0  984.20   25.80
  -6  -3   0 1004.40   42.40
  -6  -3   0  989.00   31.30
  -6  -3   0  951.60   42.40
   6  -3   0  967.80   37.30
  -6  -3   0  929.31   48.10
   6   3   0  960.50   45.80
   6   3   0  962.10   29.90
   6   3   0  920.51   41.50
  -6   3   0  992.70   48.90
  -6   3   0  961.20   40.80
  -6   3   0  975.60   41.50
  -6   3   0  978.60   42.50
   6   3   0  950.20   39.70
  -6   3   0  995.80   45.50
  -6   3   0  941.21   41.50
  -7  -3   0   19.10   14.20
   7  -3   0   42.60   13.50
  -7  -3   0   22.90   15.50
  -7  -3   0   23.60   19.80
  -7  -3   0   31.20   21.30
   7  -3   0   33.00   19.30
   7   3   0   15.90   17.70
  -7   3   0   45.60   21.20
  -7   3   0   62.29   21.80
   7   3   0   36.40   15.30
  -7   3   0   34.80   15.80
  -7   3   0   27.10   15.90
  -7   3   0   52.39   21.00
  -7   3   0   53.99   21.70
  -8  -3   0 1311.07   68.79
   8  -3   0 1120.69   60.29
  -8  -3   0 1356.36   64.29
  -8  -3   0 1261.27   55.69
   8   3   0 1289.97   54.19
  -8   3   0 1225.58   59.19
  -8   3   0 1246.38   72.19
  -8   3   0 1347.77   57.49
  -8   3   0 1276.47   65.09
   8   3   0 1236.18   62.49
   9  -3   0  128.49   31.50
  -9  -3   0   85.09   28.80
  -9  -3   0  143.89   29.90
  -9  -3   0   84.49   36.20
  -9  -3   0  126.79   38.00
   9   3   0  117.69   29.50
  -9   3   0  129.49   37.80
  -9   3   0  138.19   30.90
  -9   3   0  167.68   31.10
   0  -4   0 8171.68  186.88
   0  -4   0 8299.37  186.98
   0  -4   0 7766.02  184.48
   0  -4   0 8227.08  184.78
   0  -4   0 7899.01  187.28
   0  -4   0 7497.15  185.58
   0  -4   0 8049.19  187.38
   0  -4   0 8335.77  184.28
   0   4   0 7792.22  187.28
   0   4   0 7757.42  188.78
   0   4   0 8016.60  184.28
   0   4   0 8223.58  186.78
   0   4   0 8268.67  187.98
   0   4   0 7816.62  186.68
   0   4   0 7657.43  184.88
   1  -4   0  261.87   17.30
  -1  -4   0  265.77   15.40
  -1  -4   0  271.77   14.20
   1  -4   0  287.47   14.90
   1  -4   0  275.47   16.00
  -1  -4   0  291.37   15.50
  -1  -4   0  275.87   16.40
   1  -4   0  279.27   14.60
   1  -4   0  278.27   17.40
  -1  -4   0  297.47   17.80
   1  -4   0  261.07   16.30
  -1  -4   0  277.97   16.60
  -1  -4   0  266.57   17.90
   1  -4   0  300.47   17.20
   1  -4   0  263.37   16.10
   1  -4   0  289.97   16.40
  -1   4   0  278.67   15.70
  -1   4   0  292.27   19.20
   1   4   0  286.97   13.00
  -1   4   0  283.07   16.40
   1   4   0  285.07   16.40
   1   4   0  309.77   15.40
   1   4   0  291.27   15.90
   1   4   0  285.87   22.60
   1   4   0  296.17   16.70
  -1   4   0  315.37   16.70
  -1   4   0  276.37   17.00
   1   4   0  269.87   17.10
  -1   4   0  280.27   16.30
   1   4   0  324.87   17.50
  -1   4   0  315.07   15.70
  -1   4   0  284.07   15.00
  -2  -4   0 5749.32  141.19
  -2  -4   0 5998.50  136.19
  -2  -4   0 5811.92  142.19
   2  -4   0 5572.34  140.99
  -2  -4   0 6157.78  144.49
   2  -4   0 6030.00  144.29
   2  -4   0 6123.49  142.39
   2  -4   0 5561.54  139.69
  -2  -4   0 6262.47  141.59
  -2  -4   0 6115.59  136.89
   2  -4   0 6244.58  140.89
  -2  -4   0 5655.03  142.99
   2  -4   0 5818.02  138.89
   2  -4   0 5993.00  143.99
   2  -4   0 5751.62  143.79
   2  -4   0 5962.10  139.59
  -2  -4   0 6146.79  157.58
  -2   4   0 5968.00  142.49
  -2   4   0 5849.02  144.49
   2   4   0 5332.47  149.99
  -2   4   0 5938.71  145.49
  -2   4   0 6053.19  142.39
  -2   4   0 5632.84  141.89
   2   4   0 5922.41  142.69
   2   4   0 5842.92  141.89
   2   4   0 5784.42  137.39
  -2   4   0 5917.11  140.89
  -2   4   0 6060.09  139.79
  -2   4   0 5735.13  139.69
   2   4   0 5902.01  144.89
   2   4   0 5481.95  144.99
   2   4   0 6106.79  141.89
   2   4   0 5985.00  136.19
   2   4   0 6075.29  139.59
   3  -4   0  167.48   12.60
  -3  -4   0  157.08   17.40
   3  -4   0  151.88   15.80
   3  -4   0  157.48   14.30
   3  -4   0  150.98   15.50
   3  -4   0  172.58   19.50
  -3  -4   0  172.08   15.80
  -3  -4   0  170.68   11.80
   3  -4   0  161.08   13.20
  -3  -4   0  160.18   15.00
   3  -4   0  169.28   18.80
  -3  -4   0  141.49   16.00
  -3  -4   0  168.08   12.10
  -3  -4   0  145.19   17.30
   3  -4   0  149.19   15.00
  -3  -4   0  163.48   16.00
  -3  -4   0  141.69   17.80
   3   4   0  163.18    8.50
  -3   4   0  182.28   14.70
   3   4   0  169.98   13.30
  -3   4   0  190.78   12.40
  -3   4   0  151.38   16.40
  -3   4   0  170.48   15.80
   3   4   0  139.69   14.80
  -3   4   0  156.68   15.20
  -3   4   0  145.09   20.40
  -3   4   0  153.88   15.20
   3   4   0  171.68   15.10
  -3   4   0  161.48   18.10
   3   4   0  153.58   12.20
  -3   4   0  165.38   19.50
   3   4   0  157.18   15.30
   3   4   0  181.08   15.40
   4  -4   0  655.23   29.40
   4  -4   0  634.34   26.70
  -4  -4   0  638.04   28.00
   4  -4   0  605.04   23.20
  -4  -4   0  566.34   28.20
  -4  -4   0  629.34   21.40
   4  -4   0  586.94   31.00
   4  -4   0  634.54   28.80
  -4  -4   0  607.04   24.80
  -4  -4   0  640.84   28.00
   4  -4   0  600.94   32.30
  -4  -4   0  632.74   27.60
  -4  -4   0  609.14   32.00
  -4  -4   0  633.04   29.90
   4  -4   0  636.54   23.70
  -4  -4   0  608.44   32.20
   4   4   0  607.24   24.80
   4   4   0  620.64   27.20
   4   4   0  592.94   31.70
  -4   4   0  611.34   26.80
  -4   4   0  596.54   29.30
  -4   4   0  645.44   29.20
  -4   4   0  603.74   34.10
  -4   4   0  613.54   29.30
   4   4   0  665.43   24.70
   4   4   0  669.03   28.50
   4   4   0  656.13   29.40
  -4   4   0  647.24   21.90
   4   4   0  606.84   26.90
  -5  -4   0  117.79   16.10
   5  -4   0  102.39   12.60
  -5  -4   0  114.39   12.80
  -5  -4   0  133.09   16.80
  -5  -4   0  139.19   15.40
   5  -4   0  114.79   16.50
   5  -4   0  117.49   20.30
   5  -4   0  147.09   17.40
   5  -4   0   99.69   15.90
  -5  -4   0  109.09   18.40
   5  -4   0  102.59   10.70
  -5   4   0  101.89   14.50
   5   4   0  120.59   27.30
   5   4   0  124.59   14.10
  -5   4   0   84.39   17.00
  -5   4   0  108.19   20.30
   5   4   0  131.59   15.40
  -5   4   0  111.39   17.30
   5   4   0  114.09   14.80
   5   4   0  126.59   14.50
  -5   4   0  120.99   16.70
  -5   4   0  177.78   22.60
  -6  -4   0    8.50   13.60
   6  -4   0    6.30    6.70
   6  -4   0   -0.20   15.70
  -6  -4   0    1.90   16.10
  -6  -4   0    6.50   16.10
  -6  -4   0   -3.90   10.10
  -6  -4   0    5.70   13.00
   6  -4   0   10.20   10.80
  -6  -4   0   -1.70   16.40
   6   4   0   13.30   15.90
  -6   4   0   44.20   19.30
  -6   4   0   34.00   18.40
   6   4   0    2.40   11.20
  -6   4   0   25.60   14.10
   6   4   0   24.30   12.30
  -6   4   0   23.30   14.90
  -6   4   0    0.60   21.80
   6   4   0   39.90   13.00
   6   4   0    1.50    9.60
  -7  -4   0   31.80   18.00
   7  -4   0   20.40   14.20
  -7  -4   0   49.00   24.70
  -7  -4   0   48.50   22.90
   7  -4   0   83.89   23.60
  -7  -4   0   50.29   17.60
  -7   4   0   68.39   20.40
  -7   4   0   76.39   24.40
  -7   4   0   31.40   19.70
  -7   4   0   43.20   25.60
   7   4   0   65.29   20.90
   7   4   0   79.19   15.10
   7   4   0   30.10   16.30
   7   4   0   51.19    9.00
  -8  -4   0  220.58   37.80
   8  -4   0  254.27   36.90
  -8  -4   0  206.08   25.60
  -8  -4   0  212.28   29.30
  -8   4   0  198.88   39.40
   8   4   0  227.08   32.70
  -8   4   0  210.18   32.60
   8   4   0  232.48   33.30
  -8   4   0  254.87   30.10
   0  -5   0   -5.00    7.00
   0  -5   0   -4.20    6.50
   0  -5   0   -2.90    7.00
   0  -5   0   -2.80    7.60
   0  -5   0   -0.80    6.40
   0  -5   0   -0.60    8.80
   0  -5   0    6.00    9.00
   0  -5   0   -2.20    8.10
   0  -5   0    2.70    7.20
   0   5   0   -0.20    7.40
   0   5   0   -9.40    6.60
   0   5   0    0.70    6.80
   0   5   0    8.70    7.60
   0   5   0  -11.80    8.80
   0   5   0   -7.10    8.80
   0   5   0   -2.70    6.40
   0   5   0    3.20    9.80
   1  -5   0 3361.26   84.89
   1  -5   0 3143.59   86.69
  -1  -5   0 3416.96   82.49
  -1  -5   0 3345.57   87.09
  -1  -5   0 3394.26   85.29
   1  -5   0 3342.47   88.09
  -1  -5   0 3396.36   88.49
  -1  -5   0 3441.76   87.09
  -1  -5   0 3291.37   86.99
  -1  -5   0 3260.07   88.89
   1  -5   0 3394.86   87.49
   1  -5   0 3147.69   83.59
   1  -5   0 3218.18   85.49
  -1  -5   0 3390.26   85.99
  -1  -5   0 3159.48   84.29
   1  -5   0 3321.57   87.39
   1  -5   0 3268.67   83.29
   1  -5   0 3427.26   86.69
  -1   5   0 3229.58   87.89
  -1   5   0 3387.56   85.59
  -1   5   0 3456.05   86.89
   1   5   0 3177.38   87.29
   1   5   0 3510.65   87.09
  -1   5   0 3238.08   83.69
   1   5   0 3270.57   88.69
  -1   5   0 3409.16   86.69
   1   5   0 3329.97   87.19
   1   5   0 3282.67   81.59
  -1   5   0 3250.47   88.59
   1   5   0 3361.96   83.99
   1   5   0 3156.58   87.69
   1   5   0 3287.07   82.99
  -1   5   0 3414.46   86.29
  -1   5   0 3284.87   87.09
  -2  -5   0   90.49   11.90
   2  -5   0   52.49   10.90
   2  -5   0   78.69   13.30
  -2  -5   0   70.09   12.00
  -2  -5   0   75.79    9.60
   2  -5   0   77.69   10.30
  -2  -5   0   34.30   10.60
   2  -5   0   62.19   12.70
  -2  -5   0   53.39   13.90
   2  -5   0   81.59   10.30
   2  -5   0   51.79    9.70
  -2  -5   0   80.59   12.00
  -2  -5   0   57.89   11.80
   2   5   0   62.59   15.20
  -2   5   0   51.29   10.00
  -2   5   0   66.29   11.90
   2   5   0   70.49    8.50
  -2   5   0   67.69   10.60
   2   5   0   71.09    8.50
  -2   5   0   76.69   12.00
   2   5   0   74.79   12.20
  -2   5   0   80.79   12.30
   2   5   0   62.69    9.30
   2   5   0   54.79   10.40
  -2   5   0   78.59   10.90
   2   5   0   56.19   10.50
  -2   5   0   64.99   13.10
   2   5   0   72.19   10.80
  -2   5   0   62.89   14.40
  -3  -5   0 1204.28   42.70
  -3  -5   0 1264.07   43.00
  -3  -5   0 1196.68   43.20
   3  -5   0 1218.78   39.60
   3  -5   0 1214.88   45.50
  -3  -5   0 1152.68   39.80
  -3  -5   0 1168.58   38.60
  -3  -5   0 1151.58   40.60
   3  -5   0 1161.08   37.70
   3  -5   0 1220.78   38.00
   3  -5   0 1222.88   42.20
   3  -5   0 1132.09   44.80
   3  -5   0 1181.68   38.50
   3  -5   0 1169.68   40.30
  -3  -5   0 1247.78   41.60
  -3  -5   0 1287.67   45.80
   3  -5   0 1177.08   44.50
  -3  -5   0 1169.98   34.80
   3   5   0 1187.78   36.50
  -3   5   0 1267.27   38.80
  -3   5   0 1198.58   42.40
  -3   5   0 1163.68   45.70
   3   5   0 1247.28   42.10
  -3   5   0 1219.08   42.80
   3   5   0 1193.58   41.50
  -3   5   0 1127.89   45.20
  -3   5   0 1241.98   42.70
  -3   5   0 1256.07   40.50
   3   5   0 1241.58   43.00
   3   5   0 1224.08   39.00
   3   5   0 1157.28   40.60
   3   5   0 1233.38   33.50
   4  -5   0   71.29   17.30
  -4  -5   0   85.19   15.50
   4  -5   0   83.39   14.00
  -4  -5   0   84.79   14.50
   4  -5   0   75.59   17.10
   4  -5   0   84.39   11.10
   4  -5   0  118.29   20.40
  -4  -5   0   66.89   13.40
  -4  -5   0   77.69   16.80
  -4  -5   0   97.69   10.10
   4  -5   0  116.59   14.30
   4  -5   0   94.39   11.30
  -4  -5   0  103.69   11.70
  -4  -5   0   98.79   17.40
  -4  -5   0   81.89   14.70
  -4  -5   0   58.49   13.60
   4  -5   0   94.09   13.80
   4   5   0   85.29    5.80
   4   5   0   78.89    6.20
  -4   5   0   87.39   14.10
  -4   5   0  102.79   15.70
   4   5   0   71.49   14.40
  -4   5   0   97.69   17.40
  -4   5   0  132.99   13.80
   4   5   0  100.19   12.70
   4   5   0   66.99   15.60
  -4   5   0  100.29   18.10
   4   5   0   68.29   12.60
  -4   5   0   80.29   13.10
   4   5   0  101.89   15.10
   4   5   0   76.89   10.90
  -4   5   0   97.19   18.10
  -4   5   0   84.89   14.90
   4   5   0   84.29   13.50
  -4   5   0  124.69   16.20
  -5  -5   0  577.14   22.50
  -5  -5   0  571.24   36.70
   5  -5   0  589.44   29.40
   5  -5   0  549.15   34.80
  -5  -5   0  638.34   28.60
   5  -5   0  582.74   24.60
  -5  -5   0  579.34   33.80
  -5  -5   0  591.44   30.10
  -5  -5   0  611.34   32.70
   5  -5   0  559.44   32.90
  -5  -5   0  665.93   36.20
   5  -5   0  603.94   24.50
   5   5   0  606.94   27.20
  -5   5   0  652.93   34.00
  -5   5   0  601.24   22.80
  -5   5   0  562.24   31.70
   5   5   0  599.84   31.60
   5   5   0  556.44   34.40
  -5   5   0  559.24   38.30
  -5   5   0  583.74   36.20
  -5   5   0  613.74   39.00
   5   5   0  577.74   30.80
  -5   5   0  565.04   32.50
   5   5   0  567.04   28.70
  -6  -5   0  321.17   31.10
   6  -5   0  343.77   28.60
   6  -5   0  344.67   34.00
  -6  -5   0  396.56   29.80
  -6  -5   0  334.67   28.20
  -6  -5   0  315.27   35.30
  -6  -5   0  333.87   36.10
  -6   5   0  297.87   36.70
  -6   5   0  322.47   29.00
   6   5   0  364.16   29.50
  -6   5   0  301.07   29.70
   6   5   0  319.67   24.00
  -6   5   0  285.87   31.50
   6   5   0  347.17   22.50
   6   5   0  343.17   30.20
   6   5   0  328.47   32.20
  -6   5   0  342.17   37.10
  -6   5   0  321.97   38.10
   7  -5   0  -12.10   21.60
   7  -5   0  -33.30   14.80
  -7  -5   0   11.80   16.90
  -7  -5   0  -17.80   22.30
  -7  -5   0   12.60   17.00
   7  -5   0   -1.30   16.30
  -7   5   0   15.40   19.20
  -7   5   0    4.00   24.80
   7   5   0    1.00   11.10
   7   5   0   31.60   18.70
   7   5   0   11.10   16.10
  -7   5   0   24.20   19.20
  -7   5   0  -24.20   22.30
  -7   5   0   15.60   18.30
   7   5   0   14.30   11.70
  -8  -5   0  773.92   66.09
   8  -5   0  820.52   57.29
  -8  -5   0  868.31   49.90
   8  -5   0  830.62   52.09
  -8   5   0  774.02   49.60
  -8   5   0  815.12   55.39
  -8   5   0  782.92   56.29
   8   5   0  851.91   53.29
  -8   5   0  722.13   76.29
   0  -6   0  481.55   23.60
   0  -6   0  504.55   26.70
   0  -6   0  489.55   27.90
   0  -6   0  453.75   36.40
   0  -6   0  483.05   24.70
   0  -6   0  482.75   24.90
   0  -6   0  494.75   26.30
   0  -6   0  484.95   25.00
   0   6   0  451.55   25.50
   0   6   0  530.75   26.00
   0   6   0  521.05   24.30
   0   6   0  495.05   25.20
   0   6   0  480.75   23.50
   0   6   0  521.35   28.70
   0   6   0  461.15   27.00
   0   6   0  493.95   25.70
  -1  -6   0  378.96   24.90
  -1  -6   0  388.36   23.40
   1  -6   0  427.46   21.60
   1  -6   0  382.86   21.00
  -1  -6   0  397.56   22.80
   1  -6   0  381.76   22.90
  -1  -6   0  407.06   23.50
  -1  -6   0  394.76   20.50
  -1  -6   0  385.06   24.50
  -1  -6   0  391.16   22.50
   1  -6   0  381.06   24.30
   1  -6   0  408.86   23.00
   1  -6   0  400.76   24.70
  -1  -6   0  406.96   24.10
  -1  -6   0  369.66   25.00
   1  -6   0  388.96   21.90
   1  -6   0  394.46   24.40
   1  -6   0  417.66   24.40
   1  -6   0  360.46   24.90
   1   6   0  409.66   20.70
   1   6   0  364.86   22.50
  -1   6   0  375.06   26.50
   1   6   0  405.16   25.60
  -1   6   0  443.16   27.10
  -1   6   0  403.56   24.00
  -1   6   0  420.76   24.40
  -1   6   0  424.66   25.70
   1   6   0  419.46   18.90
  -1   6   0  409.86   24.00
   1   6   0  411.16   25.20
  -1   6   0  416.26   22.30
   1   6   0  382.06   22.90
   1   6   0  403.36   21.40
  -1   6   0  431.66   23.40
   2  -6   0  553.84   25.10
  -2  -6   0  483.05   27.40
   2  -6   0  520.45   27.60
   2  -6   0  514.55   25.00
  -2  -6   0  509.45   28.50
  -2  -6   0  528.15   26.60
  -2  -6   0  499.45   28.90
  -2  -6   0  526.85   23.20
  -2  -6   0  533.95   30.30
  -2  -6   0  479.45   27.30
   2  -6   0  569.34   24.40
  -2  -6   0  504.55   25.60
   2  -6   0  507.25   30.40
  -2  -6   0  523.25   26.70
   2  -6   0  543.15   28.50
   2   6   0  538.75   22.60
  -2   6   0  565.44   28.30
   2   6   0  533.85   27.20
  -2   6   0  481.95   29.70
  -2   6   0  537.15   26.50
  -2   6   0  513.25   26.60
  -2   6   0  549.65   28.20
   2   6   0  483.95   29.70
   2   6   0  516.45   24.90
  -2   6   0  538.95   30.80
   2   6   0  530.75   21.60
   2   6   0  512.25   28.40
  -2   6   0  501.95   25.60
   2   6   0  525.95   26.70
  -2   6   0  528.75   28.00
   2   6   0  479.75   27.60
  -3  -6   0 1736.03   57.49
   3  -6   0 1755.92   51.79
   3  -6   0 1587.94   55.09
  -3  -6   0 1766.62   56.99
   3  -6   0 1710.93   58.39
  -3  -6   0 1773.12   48.40
   3  -6   0 1728.63   59.59
   3  -6   0 1764.92   52.49
   3  -6   0 1742.73   51.59
   3  -6   0 1721.63   54.29
   3  -6   0 1707.03   59.09
  -3  -6   0 1629.24   56.29
  -3  -6   0 1787.82   59.89
  -3  -6   0 1709.73   53.99
  -3  -6   0 1662.63   54.29
   3  -6   0 1601.94   57.69
  -3  -6   0 1583.44   53.39
  -3   6   0 1684.03   56.39
  -3   6   0 1747.33   54.39
  -3   6   0 1769.02   52.99
  -3   6   0 1653.93   56.69
  -3   6   0 1751.32   56.59
  -3   6   0 1680.93   59.09
  -3   6   0 1790.52   61.39
   3   6   0 1638.74   54.39
   3   6   0 1658.43   48.70
   3   6   0 1824.62   58.49
  -3   6   0 1614.84   54.29
   3   6   0 1793.22   54.89
   3   6   0 1749.22   56.79
   3   6   0 1754.72   52.09
   4  -6   0  205.58   19.70
  -4  -6   0  222.68   25.00
   4  -6   0  224.68   19.80
   4  -6   0  186.38   23.00
  -4  -6   0  220.18   23.00
  -4  -6   0  191.58   22.30
  -4  -6   0  198.98   23.40
   4  -6   0  226.28   24.10
  -4  -6   0  221.88   16.40
  -4  -6   0  212.58   24.40
  -4  -6   0  236.58   17.20
   4  -6   0  207.78   18.30
   4  -6   0  187.28   21.90
   4   6   0  232.08   25.50
  -4   6   0  175.58   22.90
  -4   6   0  216.28   23.20
  -4   6   0  229.58   19.50
  -4   6   0  219.08   23.70
  -4   6   0  251.87   25.40
  -4   6   0  221.38   24.10
  -4   6   0  186.48   24.20
   4   6   0  200.68   24.40
   4   6   0  192.98   23.70
   4   6   0  195.68   20.60
   4   6   0  202.28   11.80
   4   6   0  187.08   20.00
   5  -6   0 2948.30   83.39
   5  -6   0 2931.31   77.49
  -5  -6   0 2848.31   83.79
  -5  -6   0 2934.31   88.89
  -5  -6   0 3100.29   78.59
   5  -6   0 2879.71   85.09
   5  -6   0 2825.42   75.79
  -5  -6   0 2864.91   72.29
   5  -6   0 2897.91   92.39
  -5  -6   0 2893.21   91.79
  -5  -6   0 2871.51   88.89
  -5  -6   0 2835.12   84.29
   5  -6   0 2822.92   91.09
   5   6   0 2817.92   81.39
  -5   6   0 2840.02   85.49
  -5   6   0 2914.81   85.09
   5   6   0 2895.51   78.99
   5   6   0 2880.41   91.89
   5   6   0 3123.09   94.29
  -5   6   0 2713.33   91.79
  -5   6   0 2820.12   94.19
  -5   6   0 2912.11   76.79
  -5   6   0 2891.81   87.69
   5   6   0 2898.71   85.99
  -5   6   0 2825.02   87.59
   6  -6   0   93.29   15.90
   6  -6   0   93.69   21.40
   6  -6   0   68.49   20.70
   6  -6   0   69.69   11.20
  -6  -6   0   32.90   19.10
   6  -6   0   52.99   10.60
  -6  -6   0   55.19   17.80
  -6  -6   0   50.69   18.00
  -6  -6   0   50.29   24.90
   6   6   0   79.99   21.80
   6   6   0   54.99   22.60
  -6   6   0   36.40   23.40
  -6   6   0   46.20   18.60
  -6   6   0   70.29   17.10
  -6   6   0   87.99   24.70
   6   6   0   53.69   14.50
  -6   6   0   34.80   17.70
   6   6   0   92.29   15.20
  -6   6   0   61.19   23.50
   6   6   0   23.00   18.30
   7  -6   0 1590.74   58.09
   7  -6   0 1580.34   70.09
  -7  -6   0 1416.96   74.39
  -7  -6   0 1512.05   67.69
   7  -6   0 1388.26   65.99
  -7  -6   0 1547.55   61.89
   7   6   0 1467.35   49.50
   7   6   0 1564.84   68.99
  -7   6   0 1483.25   67.09
  -7   6   0 1515.25   63.89
  -7   6   0 1579.84   65.99
   7   6   0 1622.34   66.79
  -7   6   0 1634.44   80.59
  -7   6   0 1589.34   78.09
   8  -6   0    2.60   24.30
  -8  -6   0   49.30   23.90
  -8  -6   0  -25.50   26.00
  -8  -6   0   35.70   32.30
   8  -6   0    5.60   23.40
  -8   6   0   15.50   31.50
  -8   6   0   -7.40   22.60
  -8   6   0  -44.40   24.80
  -8   6   0   21.80   33.00
  -8   6   0    9.90   28.00
   8   6   0   44.50   26.30
   0  -7   0   24.00   13.40
   0  -7   0   -0.10   10.40
   0  -7   0   -1.30   11.30
   0  -7   0   19.50   11.60
   0  -7   0   -8.70    9.70
   0  -7   0  -17.70   10.80
   0  -7   0   10.80   12.00
   0  -7   0   15.10   10.80
   0  -7   0   13.70    9.90
   0   7   0    1.20   10.50
   0   7   0    1.80   10.80
   0   7   0  -10.50   11.40
   0   7   0    6.40    9.60
   0   7   0  -10.70   10.60
   0   7   0    5.60   13.30
   0   7   0   -2.90   11.50
  -1  -7   0  237.08   22.90
  -1  -7   0  198.18   22.70
   1  -7   0  218.88   18.90
   1  -7   0  206.38   20.90
   1  -7   0  202.78   25.30
  -1  -7   0  206.98   24.30
  -1  -7   0  227.18   21.40
  -1  -7   0  205.68   20.50
  -1  -7   0  182.68   21.90
   1  -7   0  214.98   20.40
  -1  -7   0  212.58   18.90
   1  -7   0  177.18   21.80
   1  -7   0  210.38   19.00
   1  -7   0  212.98   18.70
   1  -7   0  235.08   22.00
  -1  -7   0  281.67   26.10
   1  -7   0  208.68   22.90
  -1  -7   0  202.48   21.50
   1  -7   0  197.28   23.20
  -1   7   0  199.28   22.20
   1   7   0  194.08   21.60
  -1   7   0  187.68   22.20
   1   7   0  224.28   22.40
   1   7   0  209.98   20.00
   1   7   0  217.18   19.10
  -1   7   0  222.48   20.60
   1   7   0  194.68   17.10
  -1   7   0  207.88   24.50
  -1   7   0  201.88   22.30
   1   7   0  188.08   23.80
   1   7   0  203.78   22.90
  -1   7   0  222.18   20.60
  -1   7   0  221.98   22.90
  -1   7   0  198.98   21.30
   1   7   0  187.88   20.70
  -2  -7   0  503.55   27.70
  -2  -7   0  509.15   28.40
   2  -7   0  491.65   25.60
  -2  -7   0  521.15   26.20
   2  -7   0  536.15   28.50
   2  -7   0  454.25   25.80
   2  -7   0  480.55   29.80
  -2  -7   0  520.25   31.40
  -2  -7   0  512.75   31.20
   2  -7   0  511.35   33.70
  -2  -7   0  482.85   29.50
   2  -7   0  542.95   31.00
  -2  -7   0  495.65   31.60
  -2  -7   0  536.65   33.70
  -2  -7   0  461.05   29.40
   2   7   0  483.65   29.50
  -2   7   0  461.25   27.30
  -2   7   0  523.65   31.40
  -2   7   0  479.95   30.80
   2   7   0  496.15   24.70
  -2   7   0  476.95   32.70
   2   7   0  509.35   33.00
   2   7   0  442.06   29.80
   2   7   0  479.65   29.90
   2   7   0  500.25   27.00
  -2   7   0  465.65   29.30
   2   7   0  488.45   31.20
  -2   7   0  483.25   28.80
  -2   7   0  452.05   26.70
  -2   7   0  565.44   32.00
   3  -7   0  537.35   28.00
  -3  -7   0  469.45   30.40
   3  -7   0  468.25   26.80
   3  -7   0  495.25   25.90
  -3  -7   0  443.76   28.20
   3  -7   0  456.45   29.70
  -3  -7   0  504.75   32.80
  -3  -7   0  457.15   24.30
   3  -7   0  434.26   31.10
  -3  -7   0  490.05   29.30
   3  -7   0  424.76   28.50
  -3  -7   0  477.75   30.70
  -3   7   0  489.45   31.10
  -3   7   0  483.25   32.90
   3   7   0  431.26   28.10
  -3   7   0  458.45   34.70
   3   7   0  467.35   33.50
   3   7   0  463.75   29.30
   3   7   0  489.55   23.50
  -3   7   0  478.95   33.00
  -3   7   0  473.25   28.40
   3   7   0  510.75   31.70
   3   7   0  455.65   26.80
  -3   7   0  432.76   28.70
  -4  -7   0 1112.79   48.50
  -4  -7   0 1078.69   49.60
   4  -7   0 1171.98   50.89
   4  -7   0 1131.09   42.40
  -4  -7   0 1158.78   37.60
   4  -7   0 1182.88   47.40
  -4  -7   0 1138.89   47.60
  -4  -7   0 1178.68   49.50
   4  -7   0 1078.89   43.70
   4  -7   0 1227.28   52.89
   4  -7   0 1170.58   41.00
  -4  -7   0 1148.69   46.50
   4   7   0 1163.68   49.40
  -4   7   0 1135.09   53.79
  -4   7   0 1134.19   52.89
   4   7   0 1183.98   39.90
  -4   7   0 1246.18   45.00
   4   7   0 1083.99   44.80
  -4   7   0 1163.38   46.70
   4   7   0 1180.48   46.00
   4   7   0 1174.48   43.70
  -4   7   0 1165.58   51.59
  -4   7   0 1168.28   49.60
  -5  -7   0  162.68   22.50
  -5  -7   0  174.28   23.90
  -5  -7   0  199.38   20.60
   5  -7   0  197.88   26.80
   5  -7   0  111.49   21.30
   5  -7   0  156.18   17.50
  -5  -7   0   85.19   26.20
  -5  -7   0  177.98   17.70
  -5  -7   0  201.28   23.70
   5  -7   0  203.88   28.20
   5  -7   0  170.18   31.70
  -5  -7   0  175.48   25.20
   5  -7   0  152.48   18.70
  -5   7   0  214.38   25.30
   5   7   0  173.08   17.50
   5   7   0  170.38   20.20
  -5   7   0  199.48   29.30
   5   7   0  229.48   27.40
  -5   7   0  142.39   25.40
  -5   7   0  192.18   27.90
   5   7   0  177.18   25.20
   5   7   0  193.78   28.30
  -5   7   0  156.78   21.80
  -5   7   0  151.08   22.00
   6  -7   0 1393.06   66.49
   6  -7   0 1465.25   65.49
  -6  -7   0 1411.36   65.69
   6  -7   0 1381.56   43.20
   6  -7   0 1503.35   46.70
  -6  -7   0 1405.56   62.19
   6  -7   0 1364.26   56.79
  -6   7   0 1390.76   67.49
  -6   7   0 1469.15   59.49
   6   7   0 1401.76   62.39
   6   7   0 1310.27   61.99
  -6   7   0 1459.55   59.99
  -6   7   0 1447.76   71.09
  -6   7   0 1425.66   60.99
   6   7   0 1436.16   52.79
  -7  -7   0   -5.90   27.90
  -7  -7   0   13.20   23.90
   7  -7   0  -14.50   21.80
   7  -7   0   15.80   19.90
  -7  -7   0  -49.40   20.10
   7  -7   0   -9.00   24.00
  -7   7   0   48.80   25.50
   7   7   0  -10.00   26.20
   7   7   0   -5.40   16.50
  -7   7   0  -20.20   28.40
  -7   7   0  -17.70   21.20
  -7   7   0   12.80   22.00
   7   7   0   30.10   23.80
  -7   7   0  -40.30   32.10
   0  -8   0 6308.37  162.08
   0  -8   0 6178.08  157.78
   0  -8   0 6198.58  156.78
   0  -8   0 6490.15  161.88
   0  -8   0 6392.06  160.18
   0  -8   0 7169.68  194.78
   0  -8   0 6357.76  164.68
   0   8   0 6293.37  159.68
   0   8   0 6148.98  154.88
   0   8   0 6305.87  159.58
   0   8   0 6184.28  162.88
   0   8   0 6135.19  162.88
   0   8   0 6083.69  160.78
   1  -8   0   17.80   14.40
  -1  -8   0   32.10   12.40
   1  -8   0   -6.00   10.00
  -1  -8   0   -0.70   11.70
  -1  -8   0   -2.20   17.10
   1  -8   0   29.10   14.90
   1  -8   0   24.40   13.50
   1  -8   0   16.30   13.00
  -1  -8   0    4.30   12.20
  -1  -8   0    8.20   11.80
  -1  -8   0    7.50   14.10
   1  -8   0   28.80   12.40
   1   8   0   17.90   13.50
   1   8   0   11.80   13.80
  -1   8   0   -8.40   14.30
   1   8   0   19.00    9.70
  -1   8   0   19.80   17.10
  -1   8   0    8.80   14.50
   1   8   0    5.10   11.90
  -1   8   0   21.00   12.90
   1   8   0   17.10   14.30
  -1   8   0    7.30   11.90
   2  -8   0 2707.03   75.19
  -2  -8   0 2664.93   74.09
  -2  -8   0 2655.13   82.59
  -2  -8   0 2613.84   83.89
   2  -8   0 2520.25   79.19
  -2  -8   0 2668.23   78.09
   2  -8   0 2625.54   81.39
  -2  -8   0 2476.95   77.29
  -2  -8   0 2606.24   82.39
   2  -8   0 2579.34   82.99
   2  -8   0 2538.45   75.69
   2  -8   0 2629.94   78.09
  -2   8   0 2527.75   78.89
  -2   8   0 2687.13   84.99
   2   8   0 2671.63   82.89
  -2   8   0 2546.95   81.69
   2   8   0 2978.40   86.89
  -2   8   0 2642.74   91.09
  -2   8   0 2644.04   84.19
   2   8   0 2555.34   83.29
  -2   8   0 2733.23   82.39
   2   8   0 2550.34   74.19
   2   8   0 2500.65   76.99
  -3  -8   0  240.58   26.40
   3  -8   0  197.38   25.60
  -3  -8   0  240.78   28.50
  -3  -8   0  248.48   28.30
   3  -8   0  222.18   23.00
  -3  -8   0  239.88   23.30
   3  -8   0  216.18   25.00
   3  -8   0  199.98   26.00
   3  -8   0  224.98   25.10
  -3  -8   0  287.47   27.00
   3  -8   0  202.78   22.70
   3   8   0  240.38   29.00
  -3   8   0  195.88   26.30
   3   8   0  265.87   28.00
   3   8   0  238.98   22.70
   3   8   0  249.48   25.40
  -3   8   0  285.07   29.20
  -3   8   0  215.08   27.40
  -3   8   0  236.28   27.00
  -3   8   0  215.88   27.70
   3   8   0  232.98   27.70
  -3   8   0  149.09   21.60
  -4  -8   0  290.77   30.30
  -4  -8   0  263.07   29.60
   4  -8   0  277.17   30.70
  -4  -8   0  306.67   24.60
   4  -8   0  294.57   23.90
   4  -8   0  289.67   30.40
   4  -8   0  231.18   30.80
  -4  -8   0  301.77   31.50
  -4  -8   0  285.37   30.40
   4  -8   0  337.77   32.00
  -4   8   0  242.18   28.10
   4   8   0  273.17   30.50
  -4   8   0  313.87   33.80
   4   8   0  328.77   28.80
  -4   8   0  280.07   33.60
  -4   8   0  313.27   34.50
   4   8   0  284.17   31.80
  -4   8   0  259.27   32.90
  -4   8   0  271.47   29.80
   4   8   0  322.87   21.70
   4   8   0  314.47   35.90
   5  -8   0  139.79   20.50
  -5  -8   0  198.68   27.20
  -5  -8   0  171.28   26.50
   5  -8   0  196.88   22.70
   5  -8   0  185.18   28.50
   5  -8   0  180.58   24.20
   5  -8   0  176.58   28.60
  -5  -8   0  219.18   24.40
  -5  -8   0  182.18   24.20
  -5  -8   0  197.08   24.80
  -5   8   0  182.08   29.50
  -5   8   0  187.28   30.80
   5   8   0  204.68   25.40
   5   8   0  205.48   26.80
  -5   8   0  193.98   25.20
  -5   8   0  210.68   26.90
   5   8   0  171.88   26.80
   5   8   0  165.88   18.80
  -5   8   0  200.28   32.60
  -5   8   0  157.58   24.40
   5   8   0  190.78   23.60
   6  -8   0  -11.90   11.70
   6  -8   0   12.10   22.70
   6  -8   0   -9.70   22.30
  -6  -8   0  -29.50   26.60
  -6  -8   0   24.40   20.40
   6  -8   0    3.60   20.00
   6   8   0  -43.90   16.70
   6   8   0   33.40   18.30
  -6   8   0  -18.80   19.70
  -6   8   0    4.50   22.40
  -6   8   0   18.80   29.30
  -6   8   0  -34.40   28.30
   6   8   0    9.30   22.40
  -7  -8   0  269.17   35.40
   7  -8   0  294.07   39.80
  -7  -8   0  323.57   44.70
  -7  -8   0  242.18   34.80
   7  -8   0  341.97   43.10
  -7   8   0  288.47   43.10
  -7   8   0  366.76   41.10
   7   8   0  328.67   38.10
   7   8   0  266.87   26.20
   7   8   0  309.57   38.80
  -7   8   0  234.98   32.10
  -7   8   0  245.38   41.50
   0  -9   0  -22.70   12.90
   0  -9   0   23.50   17.20
   0  -9   0  -13.50   12.30
   0  -9   0   13.50   13.90
   0   9   0   -5.20   16.20
   0   9   0   15.60   11.30
   0   9   0    0.30   13.90
   0   9   0    3.10   14.40
   1  -9   0 1788.62   58.89
   1  -9   0 1740.23   62.29
  -1  -9   0 1662.43   65.69
   1  -9   0 1678.73   64.19
  -1  -9   0 1707.93   63.49
  -1  -9   0 1687.33   56.49
   1  -9   0 1711.03   59.19
   1  -9   0 1661.03   61.79
  -1  -9   0 1715.53   59.39
  -1   9   0 1701.13   64.89
  -1   9   0 1752.92   66.89
  -1   9   0 1671.63   63.39
   1   9   0 1704.23   63.29
   1   9   0 1666.03   54.49
  -1   9   0 1784.02   62.09
   1   9   0 1641.34   64.79
   1   9   0 1662.13   60.29
  -2  -9   0  114.19   22.20
  -2  -9   0  121.79   16.90
   2  -9   0  126.19   21.80
   2  -9   0  162.18   20.70
   2  -9   0  132.99   21.30
   2  -9   0  102.39   20.50
  -2  -9   0  133.69   22.30
  -2  -9   0  122.29   18.70
  -2  -9   0  127.49   20.20
   2  -9   0  102.79   17.80
  -2   9   0  120.79   20.70
  -2   9   0  122.69   21.20
  -2   9   0   78.89   22.00
   2   9   0   95.49   17.80
  -2   9   0  102.49   21.60
   2   9   0  155.18   21.20
   2   9   0  136.19   24.40
   2   9   0  116.09   15.40
   2   9   0  146.29   21.60
   3  -9   0 1268.27   58.69
  -3  -9   0 1316.27   46.50
   3  -9   0 1357.66   55.09
  -3  -9   0 1355.26   57.49
   3  -9   0 1322.87   51.19
   3  -9   0 1285.57   55.49
  -3  -9   0 1356.06   58.69
   3  -9   0 1299.97   49.70
  -3  -9   0 1347.77   52.89
   3  -9   0 1326.17   54.59
  -3  -9   0 1265.77   53.49
  -3   9   0 1321.27   54.29
   3   9   0 1377.26   53.59
   3   9   0 1201.28   48.50
   3   9   0 1328.77   46.00
  -3   9   0 1282.27   59.19
   3   9   0 1260.97   56.59
  -3   9   0 1383.56   57.79
   3   9   0 1277.77   58.39
  -3   9   0 1339.57   61.69
  -4  -9   0   65.29   19.70
   4  -9   0   43.60   15.50
   4  -9   0   58.59   18.20
  -4  -9   0   52.39   21.80
   4  -9   0  -13.50   20.90
  -4  -9   0   24.80   19.50
  -4  -9   0   68.49   20.00
  -4  -9   0   36.20   18.50
   4  -9   0   33.20   17.60
   4  -9   0   93.49   22.90
  -4  -9   0   70.69   16.00
  -4   9   0   75.99   21.40
   4   9   0   37.30   14.40
   4   9   0   56.29   18.40
  -4   9   0   43.70   19.00
  -4   9   0   25.60   23.20
   4   9   0   47.50   19.40
   4   9   0   84.99   16.40
  -4   9   0   78.79   24.70
   5  -9   0  257.87   26.90
  -5  -9   0  324.57   38.90
   5  -9   0  311.77   33.30
  -5  -9   0  312.97   39.80
  -5  -9   0  330.87   42.90
   5  -9   0  313.77   36.40
  -5   9   0  299.37   34.00
  -5   9   0  275.67   38.10
   5   9   0  216.28   26.20
  -5   9   0  246.08   39.10
   5   9   0  278.37   26.70
   5   9   0  298.27   32.80
  -5   9   0  279.57   33.90
   5   9   0  263.77   15.80
   5   9   0  248.68   34.00
   6  -9   0   76.99   17.00
   6  -9   0   94.59   26.50
  -6  -9   0   75.29   32.00
   6  -9   0   85.09   27.90
  -6  -9   0   60.89   35.70
   6   9   0   80.69   24.30
  -6   9   0   70.49   49.60
   6   9   0   87.39   29.30
  -6   9   0   93.49   30.70
   6   9   0   83.19   28.20
   0 -10   0  427.46   36.50
   0 -10   0  480.55   40.00
   0 -10   0  461.35   34.10
   0 -10   0  471.55   33.90
   0  10   0  510.45   31.00
   0  10   0  494.15   36.30
   0  10   0  472.95   38.90
   0  10   0  500.15   38.60
   1 -10   0  141.49   23.30
  -1 -10   0  143.49   21.60
   1 -10   0  129.99   21.60
   1 -10   0  117.29   19.90
   1 -10   0  112.59   24.60
  -1 -10   0  146.49   21.80
  -1 -10   0  149.88   24.50
  -1 -10   0  128.19   24.20
   1 -10   0  179.58   23.60
  -1  10   0  105.49   22.80
   1  10   0  157.88   23.70
  -1  10   0  130.69   21.80
  -1  10   0  156.98   26.40
  -1  10   0  200.88   29.10
   1  10   0  141.09   25.40
   1  10   0  164.28   24.60
   1  10   0  121.29   16.80
   2 -10   0  452.15   39.20
  -2 -10   0  413.26   32.60
   2 -10   0  416.56   36.00
  -2 -10   0  426.96   30.70
  -2 -10   0  398.16   34.20
  -2 -10   0  414.66   38.60
   2 -10   0  367.76   36.90
  -2 -10   0  447.56   37.10
   2 -10   0  440.16   33.30
   2 -10   0  474.45   36.80
  -2  10   0  474.45   41.20
   2  10   0  415.86   27.90
  -2  10   0  436.96   38.70
  -2  10   0  421.56   35.60
  -2  10   0  502.35   38.50
   2  10   0  424.56   38.00
   2  10   0  499.05   35.60
   2  10   0  476.65   38.20
   3 -10   0 1239.48   51.69
  -3 -10   0 1319.67   58.19
  -3 -10   0 1283.47   61.39
   3 -10   0 1309.47   58.49
   3 -10   0 1350.96   60.29
  -3 -10   0 1278.07   54.09
  -3 -10   0 1313.77   61.79
   3 -10   0 1305.67   58.49
   3 -10   0 1261.07   61.39
  -3 -10   0 1281.47   48.80
   3  10   0 1284.27   47.50
  -3  10   0 1256.67   60.79
  -3  10   0 1277.87   58.09
   3  10   0 1357.56   63.09
  -3  10   0 1381.36   66.89
   3  10   0 1283.07   56.49
   3  10   0 1339.17   61.89
  -3  10   0 1348.47   63.99
  -4 -10   0  185.78   31.90
  -4 -10   0  242.98   32.30
   4 -10   0  139.89   27.60
  -4 -10   0  238.78   28.50
   4 -10   0  169.88   27.40
  -4 -10   0  196.48   28.30
   4 -10   0  195.98   23.50
  -4 -10   0  191.08   29.90
  -4  10   0  193.78   30.10
   4  10   0  181.88   20.00
  -4  10   0  230.48   37.60
  -4  10   0  248.08   38.00
   4  10   0  213.18   31.10
   4  10   0  148.69   24.90
  -4  10   0  231.48   36.10
  -5 -10   0 1225.58   64.49
   5 -10   0 1214.78   65.69
   5 -10   0 1242.58   61.09
  -5 -10   0 1310.67   68.69
   5 -10   0 1263.97   50.49
   5  10   0 1224.38   46.30
   5  10   0 1189.08   66.69
  -5  10   0 1261.97   77.69
  -5  10   0 1215.58   66.59
   5  10   0 1204.18   59.89
   5  10   0 1190.28   63.39
  -5  10   0 1203.78   81.29
  -6 -10   0   -2.60   29.70
   6 -10   0  -12.00   21.90
  -6 -10   0   -2.10   25.70
   6 -10   0   -7.40   17.70
   6  10   0   29.40   23.20
   6  10   0    1.60   30.30
  -6  10   0    9.50   36.50
  -6  10   0  -13.60   24.40
   6  10   0   -3.70   32.60
  -6  10   0  -16.70   33.00
   0 -11   0   -3.50   19.80
   0 -11   0   -9.50   18.00
   0 -11   0   35.30   24.60
   0 -11   0  -17.20   16.90
   0  11   0   -1.60   15.20
   0  11   0   21.70   20.40
   0  11   0   18.70   23.80
   0  11   0   16.70   20.60
   1 -11   0   59.19   22.40
   1 -11   0   51.49   25.10
   1 -11   0   43.90   19.50
  -1 -11   0   49.40   18.70
  -1 -11   0   29.50   22.50
  -1 -11   0    4.60   19.50
  -1 -11   0   26.20   24.90
   1 -11   0   30.70   18.50
   1  11   0   62.89   25.90
  -1  11   0   66.59   18.30
   1  11   0    8.30   18.80
  -1  11   0   10.50   21.80
   1  11   0   31.20   21.00
  -1  11   0    2.60   19.30
  -1  11   0   33.60   23.20
   1  11   0   64.39   17.50
  -2 -11   0  184.28   24.60
   2 -11   0  173.08   27.70
  -2 -11   0  176.48   31.20
   2 -11   0  253.07   33.00
  -2 -11   0  218.68   31.70
   2 -11   0  217.18   31.60
  -2 -11   0  209.78   32.60
   2 -11   0  195.38   26.30
  -2  11   0  155.18   29.10
   2  11   0  149.88   27.30
   2  11   0  188.98   31.70
  -2  11   0  207.08   34.80
  -2  11   0  174.08   32.30
  -2  11   0  202.78   33.40
   2  11   0  184.68   21.80
   2  11   0  244.08   31.00
  -3 -11   0   36.80   22.00
   3 -11   0   54.19   20.90
   3 -11   0   84.59   26.30
  -3 -11   0   39.20   21.90
  -3 -11   0   34.30   28.90
  -3 -11   0   47.30   28.30
  -3 -11   0   25.20   19.00
   3 -11   0   49.50   22.00
   3  11   0   15.20   15.70
  -3  11   0   67.69   27.00
  -3  11   0   42.20   32.10
  -3  11   0   -5.30   20.80
   3  11   0   53.49   30.90
  -3  11   0   54.59   31.10
   3  11   0   30.20   23.80
   3  11   0   73.79   24.10
   4 -11   0  723.13   52.59
  -4 -11   0  709.93   57.79
  -4 -11   0  726.63   49.40
   4 -11   0  692.03   54.69
   4 -11   0  750.22   45.80
   4  11   0  769.12   52.79
  -4  11   0  644.94   72.99
  -4  11   0  798.32   78.69
  -4  11   0  762.32   88.99
   4  11   0  773.02   55.39
  -4  11   0  820.42   58.99
   4  11   0  747.23   38.50
  -5 -11   0   74.99   32.40
  -5 -11   0  -19.10   36.20
  -5 -11   0   26.30   27.60
   5 -11   0   -1.60   31.70
   5 -11   0   78.59   24.30
   5 -11   0    5.40   20.40
  -5  11   0   69.79   32.10
   5  11   0    4.70   32.80
  -5  11   0   94.09   35.40
   5  11   0  -21.90   33.90
  -5  11   0    7.10   27.20
   5  11   0   21.10   24.60
  -5  11   0   16.80   33.60
   0 -12   0 1789.82   78.79
   0 -12   0 1742.53   80.99
   0 -12   0 1763.72   75.99
   0 -12   0 1823.12   74.29
   0  12   0 1844.92   77.19
   0  12   0 1817.82   67.49
   0  12   0 1785.52   84.89
   0  12   0 1784.92   82.89
   1 -12   0   99.59   27.60
  -1 -12   0   77.79   28.00
  -1 -12   0  115.49   26.00
  -1 -12   0   98.69   32.60
   1 -12   0   58.49   27.90
   1 -12   0  150.38   28.50
  -1 -12   0   83.39   30.80
   1 -12   0   57.99   27.40
   1  12   0  150.98   35.00
  -1  12   0  121.59   23.60
   1  12   0   87.19   31.20
  -1  12   0   94.69   31.20
   1  12   0  107.09   22.00
  -1  12   0   91.89   29.10
   1  12   0  147.39   31.40
  -1  12   0  122.69   29.20
   2 -12   0 1227.78   65.99
   2 -12   0 1211.28   61.19
  -2 -12   0 1206.88   67.69
  -2 -12   0 1163.38   57.39
   2 -12   0 1227.28   62.99
   2  12   0 1270.07   54.09
  -2  12   0 1187.58   60.69
   2  12   0 1281.27   71.69
  -2  12   0 1155.58   70.89
  -2  12   0 1179.58   77.19
  -2  12   0  963.50  101.39
   2  12   0 1168.08   73.09
   3 -12   0  297.67   40.60
   3 -12   0  164.28   31.10
  -3 -12   0  188.08   37.80
  -3 -12   0  168.28   27.10
  -3 -12   0  272.07   37.10
  -3 -12   0  180.78   35.90
  -3 -12   0  275.07   36.80
   3 -12   0  197.38   35.30
  -3  12   0  238.58   43.70
  -3  12   0  321.77   46.90
  -3  12   0  280.67   40.50
   3  12   0  226.98   26.20
  -3  12   0  242.28   37.70
   3  12   0  191.68   38.10
   3  12   0  202.98   32.80
  -4 -12   0  244.78   38.10
   4 -12   0  257.67   42.10
   4 -12   0  198.98   33.70
  -4 -12   0  208.48   40.20
  -4  12   0  165.58   35.90
  -4  12   0  260.37   39.90
  -4  12   0  244.48   42.20
   4  12   0  267.87   43.90
   4  12   0  202.98   33.00
   0 -13   0   -6.00   19.60
   0 -13   0   29.50   28.70
   0 -13   0  -15.60   36.50
   0  13   0  -27.70   29.50
   0  13   0   16.20   24.60
   0  13   0  -11.70   26.00
   0  13   0    5.00   30.50
  -1 -13   0 1252.47   65.69
   1 -13   0 1429.26   70.19
   1 -13   0 1306.07   68.29
  -1 -13   0 1211.28  113.09
   1 -13   0 1504.15   82.49
  -1 -13   0 1379.46   70.79
   1  13   0 1400.26   77.69
  -1  13   0 1262.27   70.69
  -1  13   0 1365.96   69.79
  -1  13   0 1442.06   80.39
  -1  13   0 1362.56   75.29
   1  13   0 1169.18  119.19
   1  13   0 1381.96   69.59
   1  13   0 1413.46   60.99
  -9   0   1 1329.87   95.69
  -9   0   1 1242.88   88.49
  -9   0   1 1391.76   64.09
   9   0  -1 1385.96   66.39
  -9   0   1 1451.05   76.19
   8   0  -1   24.40   16.90
  -8   0   1   15.30   17.30
   8   0  -1  -18.00   17.00
  -8   0   1  -10.40   23.20
  -8   0   1    8.50   24.10
  -8   0   1    1.70   17.50
   7   0  -1 2553.84   65.99
  -7   0   1 2535.35   86.89
  -7   0   1 2612.64   78.09
  -7   0   1 2404.26   80.29
  -7   0   1 2473.75   86.49
   7   0  -1 2505.65   76.79
   7   0  -1 2476.25   64.39
   7   0  -1 2605.24   84.99
  -7   0   1 2595.64   67.59
  -7   0   1 2454.35   81.29
  -6   0   1   -6.60   13.30
  -6   0   1    8.00   14.20
   6   0  -1   -9.20   10.10
  -6   0   1   15.10   11.80
  -6   0   1  -17.80   17.50
  -6   0   1    9.50   14.50
  -6   0   1    5.80    8.60
  -6   0   1    7.40   10.90
   6   0  -1    6.00    7.90
   6   0  -1   -6.00    7.90
   6   0  -1  -19.30   21.60
   5   0  -1 1345.77   43.90
   5   0  -1 1352.46   44.10
  -5   0   1 1231.28   48.30
   5   0  -1 1347.77   45.20
  -5   0   1 1354.36   44.70
  -5   0   1 1306.57   50.09
   5   0  -1 1361.26   48.50
  -5   0   1 1371.16   39.50
  -5   0   1 1261.97   45.80
  -5   0   1 1295.17   47.10
   5   0  -1 1306.17   47.30
  -5   0   1 1331.47   46.90
   5   0  -1 1390.16   40.70
  -4   0   1    3.80    9.10
  -4   0   1    0.00    8.00
   4   0  -1    0.60    8.10
   4   0  -1   -3.80    7.00
   4   0  -1   12.90   10.40
   4   0  -1    1.10    4.50
  -4   0   1    1.40    7.00
  -4   0   1    8.30    5.90
  -4   0   1    9.50    6.40
  -4   0   1    4.50    7.50
   4   0  -1   -6.80    6.40
   4   0  -1   -2.70    6.60
   4   0  -1    7.30    5.80
  -4   0   1   -1.00    9.40
   3   0  -1  381.76   17.30
   3   0  -1  401.66   15.60
   3   0  -1  390.96   15.80
  -3   0   1  415.46   19.20
   3   0  -1  402.66   12.00
  -3   0   1  403.66   15.70
  -3   0   1  393.46   19.80
   3   0  -1  394.96   19.30
  -3   0   1  404.76   18.90
   3   0  -1  426.16   18.20
  -3   0   1  390.46   17.90
  -3   0   1  387.96   19.40
   3   0  -1  423.76   19.90
  -3   0   1  376.46   17.10
   2   0  -1   -1.30    5.10
  -2   0   1   10.30    6.70
  -2   0   1   11.20    4.80
   2   0  -1    6.50    6.00
   2   0  -1   12.80    6.70
   2   0  -1    7.00    4.90
   2   0  -1    8.20    5.30
  -2   0   1    7.10    5.00
   2   0  -1    5.50    6.10
   2   0  -1    2.10    5.70
  -2   0   1   12.70    6.30
  -2   0   1   17.20    5.90
  -2   0   1    1.70    5.70
  -2   0   1    4.00    5.40
   1   0  -1 1148.19   29.80
  -1   0   1 1151.98   29.30
   1   0  -1 1129.59   30.00
   1   0  -1 1169.18   30.10
  -1   0   1 1152.98   30.10
  -1   0   1 1130.09   28.90
  -1   0   1 1126.19   29.70
  -1   0   1 1103.09   29.30
   1   0  -1 1129.49   29.40
   1   0  -1 1171.58   30.00
   1   0  -1 1172.48   29.10
  -1   0   1 1125.29   28.90
   1   0  -1 1118.39   29.10
  -1   0   1 1141.19   30.20
  -1   0   1 1153.18   30.00
   0   0  -1    4.20    1.20
   0   0  -1    7.20    1.90
   0   0  -1    3.20    1.50
   0   0  -1    2.60    2.40
   0   0   1    3.20    1.50
   0   0   1    3.30    1.30
   0   0  -1    3.00    1.40
   0   0   1    3.20    1.20
   0   0   1    6.80    2.10
   0   0   1    1.30    1.70
   0   0  -1    2.50    1.60
   0   0  -1    0.60    1.80
  -1   0  -1 5029.50  111.99
   2   0   1    5.90    3.60
  -2   0  -1    0.40    3.40
  -2   0  -1    9.60    5.80
   2   0   1    4.80    2.70
  -2   0  -1    3.10    3.10
  -2   0  -1    0.30    2.60
  -2   0  -1   -0.20    2.90
  -2   0  -1    6.60    3.80
  -3   0  -1 7116.19  161.08
  -3   0  -1 6995.70  162.48
  -3   0  -1 6991.40  157.98
  -3   0  -1 6875.01  162.48
  -3   0  -1 7100.09  160.48
  -3   0  -1 7095.59  167.38
  -3   0  -1 7060.29  159.98
   3   0   1 7164.48  168.68
   4   0   1   12.60    4.80
  -4   0  -1    1.10    6.20
   4   0   1  -12.40   10.00
  -4   0  -1   -1.60    5.20
  -4   0  -1   -4.70    5.90
   4   0   1   -4.20   11.30
  -4   0  -1    7.00    4.80
  -4   0  -1   -2.50    9.10
  -5   0  -1 2841.62   79.59
  -5   0  -1 2744.83   76.69
   5   0   1 2792.12   78.59
  -5   0  -1 2883.91   74.09
   5   0   1 2879.11   71.79
   5   0   1 2742.83   84.19
  -5   0  -1 2857.91   75.79
  -5   0  -1 2827.42   83.19
  -5   0  -1 2891.91   75.79
  -5   0  -1 2919.91   70.19
  -6   0  -1  -14.90   11.10
  -6   0  -1   13.40    7.00
  -6   0  -1  -16.20   16.80
  -6   0  -1   -1.00   13.70
  -6   0  -1   -3.30   15.80
  -6   0  -1   -3.30   10.60
  -6   0  -1    6.90   10.60
   6   0   1   17.00   16.00
  -6   0  -1    0.20   14.00
   6   0   1    0.70    9.10
  -7   0  -1 1429.26   50.39
  -7   0  -1 1421.66   62.59
  -7   0  -1 1330.57   60.99
  -7   0  -1 1379.56   53.59
   7   0   1 1409.46   61.09
  -7   0  -1 1479.95   39.60
  -7   0  -1 1546.35   54.29
   7   0   1 1488.65   45.40
  -8   0  -1    6.20   24.00
  -8   0  -1  -38.60   27.60
   8   0   1    0.80   20.00
  -8   0  -1  -12.50   16.30
  -8   0  -1  -25.40   16.50
  -9   0  -1  115.89   35.20
  -9   0  -1  145.49   26.90
   9   0   1  126.69   29.50
  -9   0  -1   92.99   49.20
  -9   0  -1   69.59   35.80
  -9  -1   1    1.10   26.90
  -9  -1   1  -14.50   29.90
  -9  -1   1   27.80   30.60
  -9  -1   1  -15.40   24.00
   9  -1  -1   -1.40   20.50
  -9   1   1    2.10   28.80
   9   1  -1   21.40   21.10
  -9   1   1   37.80   25.60
  -9   1   1    2.90   31.00
   8  -1  -1  675.23   39.60
  -8  -1   1  629.04   51.79
  -8  -1   1  672.53   52.69
  -8  -1   1  673.13   45.90
  -8  -1   1  667.03   39.70
   8  -1  -1  572.64   42.70
  -8   1   1  669.03   44.40
  -8   1   1  745.83   42.10
   8   1  -1  682.33   41.40
  -8   1   1  696.53   52.79
   8   1  -1  627.74   44.00
  -8   1   1  564.74   49.40
  -7  -1   1  463.35   31.40
  -7  -1   1  507.65   37.70
   7  -1  -1  509.75   36.60
   7  -1  -1  499.65   20.70
  -7  -1   1  463.05   34.00
  -7  -1   1  477.25   40.30
   7  -1  -1  543.25   32.50
   7  -1  -1  474.65   25.10
  -7  -1   1  442.56   38.00
  -7   1   1  496.55   39.50
   7   1  -1  484.25   31.30
  -7   1   1  483.15   37.20
  -7   1   1  523.65   39.90
  -7   1   1  488.85   31.90
   7   1  -1  496.65   23.90
  -7   1   1  452.15   33.70
   7   1  -1  508.55   36.50
   7   1  -1  520.15   21.90
  -7   1   1  499.25   29.10
  -6  -1   1  765.82   40.50
  -6  -1   1  796.02   42.00
   6  -1  -1  809.32   29.10
  -6  -1   1  814.62   38.60
  -6  -1   1  777.52   37.60
  -6  -1   1  810.52   35.40
  -6  -1   1  836.52   26.10
   6  -1  -1  833.92   40.80
   6  -1  -1  847.92   35.60
   6  -1  -1  817.02   28.20
  -6   1   1  850.91   32.70
  -6   1   1  794.92   37.70
   6   1  -1  832.42   36.20
   6   1  -1  790.42   30.90
  -6   1   1  827.12   42.90
   6   1  -1  735.73   42.70
  -6   1   1  832.42   39.20
  -6   1   1  831.82   36.30
  -6   1   1  857.51   43.30
  -5  -1   1  600.24   31.40
   5  -1  -1  568.54   28.20
  -5  -1   1  613.94   29.90
   5  -1  -1  626.14   28.30
  -5  -1   1  678.13   31.00
   5  -1  -1  596.74   31.40
   5  -1  -1  668.13   32.30
  -5  -1   1  706.53   30.90
  -5  -1   1  612.74   28.80
   5  -1  -1  579.14   27.00
  -5  -1   1  600.34   33.70
  -5  -1   1  657.63   21.20
  -5   1   1  593.14   31.70
  -5   1   1  609.44   30.20
   5   1  -1  640.84   27.80
  -5   1   1  623.04   32.80
  -5   1   1  578.74   28.10
  -5   1   1  599.14   30.60
  -5   1   1  580.04   31.90
   5   1  -1  595.84   31.30
   5   1  -1  620.94   18.10
   5   1  -1  642.64   29.90
  -5   1   1  664.83   26.40
   5   1  -1  656.63   32.80
  -4  -1   1  211.18   11.00
  -4  -1   1  230.98   20.90
   4  -1  -1  223.68   18.80
   4  -1  -1  214.98   16.60
  -4  -1   1  182.18   16.00
   4  -1  -1  208.38   18.70
   4  -1  -1  209.38   13.50
  -4  -1   1  239.58   17.90
   4  -1  -1  205.98   13.80
  -4  -1   1  188.08   16.20
   4  -1  -1  177.98   15.30
  -4  -1   1  217.48   18.00
  -4  -1   1  237.78   16.50
   4   1  -1  192.58   18.10
   4   1  -1  229.38   19.10
   4   1  -1  220.58   16.70
  -4   1   1  195.18   19.70
   4   1  -1  224.68   10.00
  -4   1   1  185.68   17.80
  -4   1   1  209.78   15.60
  -4   1   1  180.48   16.20
  -4   1   1  222.78   17.80
  -4   1   1  205.38   15.90
  -4   1   1  207.58   18.40
   4   1  -1  207.88   10.90
   4   1  -1  216.98   13.80
   4   1  -1  219.58   15.90
   3  -1  -1 1821.72   49.60
  -3  -1   1 1778.22   49.70
   3  -1  -1 1697.53   47.10
   3  -1  -1 1721.33   46.80
   3  -1  -1 1804.42   50.49
   3  -1  -1 1735.83   49.50
  -3  -1   1 1765.42   48.60
  -3  -1   1 1732.83   50.89
  -3  -1   1 1830.22   49.80
  -3  -1   1 1795.02   44.00
  -3  -1   1 1712.63   47.20
   3  -1  -1 1760.82   46.40
   3  -1  -1 1722.73   50.09
   3  -1  -1 1729.23   41.40
  -3  -1   1 1796.72   50.09
   3   1  -1 1822.52   46.80
  -3   1   1 1811.62   51.49
  -3   1   1 1824.42   50.69
   3   1  -1 1672.83   49.00
   3   1  -1 1793.92   44.00
  -3   1   1 1748.72   48.20
   3   1  -1 1713.13   49.70
  -3   1   1 1862.91   50.59
   3   1  -1 1748.43   47.90
  -3   1   1 1691.23   49.50
   3   1  -1 1731.53   44.00
   3   1  -1 1759.12   50.19
  -3   1   1 1820.02   47.50
  -3   1   1 1736.63   47.70
   3   1  -1 1848.92   48.70
  -3   1   1 1656.83   50.49
   3   1  -1 1803.32   54.79
   2  -1  -1  914.01   27.70
   2  -1  -1  942.21   29.50
  -2  -1   1  917.51   28.70
   2  -1  -1  959.10   24.70
  -2  -1   1  956.30   25.10
  -2  -1   1  930.31   27.70
   2  -1  -1  956.80   27.40
  -2  -1   1  939.51   29.80
  -2  -1   1  997.00   28.50
   2  -1  -1  957.10   29.70
   2  -1  -1  966.50   28.50
  -2  -1   1  932.61   28.90
  -2  -1   1  944.01   28.80
   2  -1  -1  916.81   28.90
   2  -1  -1 1034.00   30.60
  -2   1   1  944.81   28.00
   2   1  -1  894.11   28.00
  -2   1   1  938.91   30.10
  -2   1   1  924.91   29.20
  -2   1   1  943.71   30.00
   2   1  -1 1013.60   29.20
   2   1  -1  963.30   27.10
   2   1  -1  978.80   29.60
   2   1  -1  919.41   28.60
   2   1  -1  959.10   25.90
   2   1  -1  914.51   29.00
  -2   1   1  981.10   28.40
  -2   1   1  915.11   27.60
  -2   1   1  954.10   29.60
   2   1  -1  952.80   25.70
  -2   1   1  916.21   28.80
  -1  -1   1 2037.50   49.70
   1  -1  -1 2017.60   49.20
  -1  -1   1 2094.59   50.29
  -1  -1   1 2107.29   50.09
   1  -1  -1 2032.80   50.49
  -1  -1   1 2023.70   50.49
   1  -1  -1 2127.59   50.59
  -1  -1   1 2132.49   49.99
   1  -1  -1 2010.80   49.40
   1  -1  -1 2038.90   50.59
   1  -1  -1 1946.91   50.49
  -1  -1   1 2038.10   50.39
  -1  -1   1 1983.20   49.10
  -1  -1   1 2080.59   49.00
   1  -1  -1 2011.10   49.70
   1  -1  -1 2099.19   50.69
   1   1  -1 2049.49   49.80
  -1   1   1 2092.19   50.89
   1   1  -1 1977.90   50.29
  -1   1   1 2028.30   50.19
  -1   1   1 2049.20   49.70
  -1   1   1 2081.59   49.20
  -1   1   1 2017.20   50.59
   1   1  -1 2031.20   49.10
   1   1  -1 2042.70   49.90
   1   1  -1 2038.00   49.50
   1   1  -1 2055.09   50.89
  -1   1   1 2013.70   50.69
   1   1  -1 2062.29   50.19
  -1   1   1 2074.89   50.49
  -1   1   1 1956.60   49.50
   0  -1  -1  658.93   18.80
   0  -1   1  715.23   18.40
   0  -1  -1  704.53   17.30
   0  -1   1  711.13   19.40
   0  -1  -1  661.73   18.30
   0  -1  -1  703.53   19.30
   0  -1   1  688.13   17.60
   0  -1   1  699.53   17.60
   0  -1   1  720.43   17.80
   0  -1  -1  691.83   20.00
   0  -1  -1  699.33   18.20
   0  -1   1  713.13   18.90
   0  -1   1  711.93   18.40
   0  -1  -1  706.43   18.90
   0  -1  -1  683.73   19.30
   0   1   1  696.43   19.00
   0   1  -1  711.83   19.30
   0   1   1  704.13   19.30
   0   1  -1  707.33   19.30
   0   1  -1  674.43   17.50
   0   1   1  716.03   18.40
   0   1   1  698.63   17.10
   0   1   1  670.53   18.70
   0   1   1  706.53   20.10
   0   1  -1  740.43   18.60
   0   1  -1  674.23   17.80
   0   1   1  685.13   19.40
   0   1  -1  679.03   18.40
   0   1   1  695.63   18.20
   0   1   1  691.43   17.30
   0   1  -1  679.83   17.90
  -1  -1  -1 1950.80   45.30
  -1  -1  -1 1935.41   46.20
   1  -1   1 1951.00   45.40
  -1  -1  -1 1983.60   47.90
   1  -1   1 1988.60   48.30
  -1  -1  -1 1912.61   45.20
  -1  -1  -1 1929.31   46.20
   1  -1   1 1943.91   46.80
  -1  -1  -1 1984.20   45.60
   1  -1   1 1931.11   46.10
  -1   1  -1 1935.61   46.30
   1   1   1 2028.20   48.20
   1   1   1 1986.20   45.90
  -1   1  -1 1921.51   45.50
   1   1   1 1937.31   45.10
   1   1   1 1906.71   45.00
   1   1   1 1939.11   44.70
  -1   1  -1 1967.50   44.40
  -1   1  -1 1951.70   44.60
  -1   1  -1 1928.21   48.30
  -2  -1  -1  225.68    6.90
   2  -1   1  229.88    9.30
   2  -1   1  220.08   11.70
  -2  -1  -1  220.18   10.70
  -2  -1  -1  228.68   10.10
  -2  -1  -1  224.68   10.80
  -2  -1  -1  206.38   10.50
  -2  -1  -1  218.88    9.40
  -2  -1  -1  232.38   11.10
  -2   1  -1  211.98   14.10
   2   1   1  222.38   10.90
   2   1   1  250.37    9.90
  -2   1  -1  214.18   10.40
  -2   1  -1  235.58    9.00
   2   1   1  221.68    6.90
  -2   1  -1  221.08   12.60
  -2   1  -1  223.88   10.40
  -2   1  -1  234.38    9.20
  -3  -1  -1  573.54   19.20
  -3  -1  -1  632.24   20.90
  -3  -1  -1  615.14   15.40
   3  -1   1  605.94   23.40
   3  -1   1  576.24   25.50
  -3  -1  -1  570.34   20.60
  -3  -1  -1  616.84   20.10
  -3  -1  -1  577.64   18.40
   3  -1   1  558.44   23.80
  -3  -1  -1  587.54   21.60
  -3   1  -1  618.44   19.20
  -3   1  -1  613.64   24.10
  -3   1  -1  602.64   20.40
  -3   1  -1  586.24   19.10
   3   1   1  626.14   19.40
   3   1   1  632.24   26.90
   3   1   1  606.74   19.20
  -3   1  -1  578.84   20.70
  -3   1  -1  601.44   15.70
   3   1   1  572.94   25.20
  -3   1  -1  582.64   21.00
  -3   1  -1  613.64   15.60
  -4  -1  -1 2462.85   62.99
  -4  -1  -1 2436.76   63.99
  -4  -1  -1 2456.95   65.49
   4  -1   1 2415.46   70.69
  -4  -1  -1 2260.87   64.69
  -4  -1  -1 2442.26   58.29
  -4  -1  -1 2343.17   70.39
  -4  -1  -1 2364.86   61.59
   4  -1   1 2415.36   60.49
  -4  -1  -1 2355.06   55.79
  -4   1  -1 2368.56   70.99
  -4   1  -1 2470.75   64.49
   4   1   1 2474.25   68.99
  -4   1  -1 2377.96   61.69
   4   1   1 2394.06   70.89
   4   1   1 2445.96   61.39
   4   1   1 2423.26   63.09
  -4   1  -1 2505.85   62.49
  -4   1  -1 2554.84   63.79
  -5  -1  -1   11.20    2.90
  -5  -1  -1   31.30   10.40
   5  -1   1    0.40    6.50
  -5  -1  -1    3.10   11.70
   5  -1   1   -9.30   13.00
  -5  -1  -1    6.30    7.50
  -5  -1  -1    2.90    7.60
  -5  -1  -1   33.10   13.40
  -5  -1  -1   13.30    8.60
  -5   1  -1    5.00    8.00
  -5   1  -1    9.00    7.20
   5   1   1   41.40   13.10
   5   1   1    6.80    6.70
  -5   1  -1   34.10   13.50
   5   1   1   28.20   14.30
  -5   1  -1   13.80    9.50
  -5   1  -1   -3.50   12.50
  -5   1  -1    9.60    8.70
   5   1   1   20.60    7.20
  -5   1  -1    6.00    7.90
   6  -1   1 2057.29   71.49
  -6  -1  -1 2081.39   71.29
  -6  -1  -1 2036.60   63.19
  -6  -1  -1 2116.49   65.09
  -6  -1  -1 2204.38   63.59
  -6  -1  -1 2185.08   67.69
   6  -1   1 2149.78   70.49
   6  -1   1 2046.80   56.89
  -6  -1  -1 2086.79   72.09
  -6   1  -1 2032.40   73.09
  -6   1  -1 2208.98   64.49
   6   1   1 2079.79   72.69
  -6   1  -1 2174.88   59.09
  -6   1  -1 2051.49   63.49
  -6   1  -1 2093.49   64.59
  -6   1  -1 2184.28   76.89
   6   1   1 2020.80   57.79
  -6   1  -1 2174.18   72.09
  -7  -1  -1  241.28   26.80
  -7  -1  -1  272.47   28.90
   7  -1   1  267.67   32.40
  -7  -1  -1  251.57   24.40
   7  -1   1  235.38   19.60
  -7  -1  -1  229.08   31.10
  -7  -1  -1  257.27   32.80
  -7   1  -1  295.47   27.30
  -7   1  -1  227.58   25.10
   7   1   1  252.97   32.00
  -7   1  -1  301.67   29.80
   7   1   1  277.17   21.40
  -7   1  -1  262.27   31.90
  -7   1  -1  245.78   22.80
  -7   1  -1  313.17   35.30
  -8  -1  -1  508.75   35.40
  -8  -1  -1  482.75   52.89
   8  -1   1  486.85   43.40
  -8  -1  -1  451.35   40.30
  -8  -1  -1  445.66   51.09
  -8   1  -1  536.45   49.60
  -8   1  -1  423.06   51.89
   8   1   1  570.64   45.40
  -8   1  -1  466.85   37.70
  -8   1  -1  507.05   35.20
   9  -1   1  841.72   58.59
  -9  -1  -1  654.23   52.59
  -9  -1  -1  716.63   47.50
  -9  -1  -1  774.12   63.69
  -9  -1  -1  746.83   60.79
   9  -1   1  800.52   46.40
  -9   1  -1  618.14   61.49
  -9   1  -1  751.82   65.69
  -9   1  -1  647.64   66.49
   9   1   1  704.13   54.29
  -9   1  -1  662.73   51.39
  -9  -2   1   40.40   29.40
   9  -2  -1   -2.80   21.20
  -9  -2   1   32.90   25.80
  -9  -2   1   20.30   24.70
  -9  -2   1    3.00   28.50
  -9   2   1   36.00   26.40
  -9   2   1   -3.40   24.60
  -9   2   1   44.10   32.70
   9   2  -1   56.49   25.10
  -8  -2   1    7.50   16.90
  -8  -2   1  -12.90   24.90
  -8  -2   1    0.50   16.40
   8  -2  -1   25.40   21.40
   8  -2  -1   17.10   16.50
  -8  -2   1   21.10   25.90
  -8  -2   1    8.50   19.60
  -8   2   1    2.50   18.60
   8   2  -1   22.90   20.30
   8   2  -1   35.30   19.20
  -8   2   1   24.50   19.70
  -8   2   1   25.90   24.40
  -8   2   1   32.70   27.60
  -7  -2   1   92.99   18.80
   7  -2  -1  140.99   23.00
  -7  -2   1   80.89   21.40
   7  -2  -1  125.69   17.20
   7  -2  -1  100.69   11.80
  -7  -2   1   89.59   17.90
   7  -2  -1  116.49   14.20
  -7  -2   1   95.99   22.90
   7   2  -1  116.69   22.20
  -7   2   1  101.09   24.90
  -7   2   1   91.69   18.30
  -7   2   1   89.29   22.90
  -7   2   1   75.39   18.50
   7   2  -1  106.59   19.10
  -7   2   1  133.29   24.20
   7   2  -1  103.19   13.60
   7   2  -1   82.19   17.90
  -7   2   1  108.99   19.30
  -6  -2   1 1062.29   44.30
   6  -2  -1  969.90   32.60
   6  -2  -1 1021.00   45.30
  -6  -2   1 1034.50   48.00
  -6  -2   1  928.51   43.70
  -6  -2   1  968.00   40.10
  -6  -2   1  915.51   41.60
   6  -2  -1  960.00   39.60
   6  -2  -1  957.40   32.80
   6   2  -1  996.00   41.00
  -6   2   1  971.80   40.00
   6   2  -1  967.80   33.20
   6   2  -1  987.70   44.80
  -6   2   1  929.31   47.60
  -6   2   1  990.10   38.10
  -6   2   1  995.60   44.80
   6   2  -1  986.10   28.80
   6   2  -1  947.41   35.60
  -6   2   1  974.30   42.90
  -6   2   1  992.50   46.60
   5  -2  -1  -22.10    9.90
  -5  -2   1   11.20   12.50
  -5  -2   1   17.00   11.30
  -5  -2   1    6.50   10.00
   5  -2  -1    9.00    8.80
   5  -2  -1    4.00   12.60
  -5  -2   1   17.20   10.90
   5  -2  -1   -3.60   10.90
  -5  -2   1   14.60   11.10
  -5  -2   1    8.70    9.60
  -5   2   1   13.10   10.20
  -5   2   1   15.20   11.60
  -5   2   1   13.30   12.20
  -5   2   1    1.70   12.30
   5   2  -1   17.10   13.40
   5   2  -1   12.20   10.70
  -5   2   1   -9.30    9.40
  -5   2   1    8.60   10.60
  -5   2   1    6.70   12.10
   5   2  -1    6.30    7.40
   5   2  -1    4.90    9.30
  -5   2   1    0.80    9.60
   5   2  -1    8.80    9.30
   5   2  -1   12.10    6.00
   4  -2  -1 8158.88  188.28
  -4  -2   1 8291.37  188.28
   4  -2  -1 7862.41  189.18
  -4  -2   1 7738.73  186.38
  -4  -2   1 7918.01  189.38
   4  -2  -1 8135.99  184.38
   4  -2  -1 8081.09  190.38
  -4  -2   1 7921.31  192.18
   4  -2  -1 7695.23  176.48
   4  -2  -1 7602.34  184.68
   4  -2  -1 8022.60  190.48
  -4  -2   1 7866.61  187.28
  -4   2   1 7387.06  196.58
  -4   2   1 8161.18  189.88
   4   2  -1 7960.70  187.28
   4   2  -1 7832.12  188.48
   4   2  -1 7919.11  189.38
  -4   2   1 8024.90  193.18
   4   2  -1 8186.78  184.58
   4   2  -1 7989.90  190.48
  -4   2   1 7804.02  189.98
  -4   2   1 8045.10  186.88
   4   2  -1 7724.73  186.38
   4   2  -1 7769.82  181.78
   4   2  -1 7589.34  178.48
  -4   2   1 8085.99  186.68
  -3  -2   1  421.16   20.10
  -3  -2   1  425.96   23.10
  -3  -2   1  402.26   19.50
   3  -2  -1  426.76   21.60
   3  -2  -1  443.16   14.10
  -3  -2   1  431.76   19.60
   3  -2  -1  410.26   20.50
   3  -2  -1  441.86   20.40
   3  -2  -1  417.06   19.20
   3  -2  -1  435.86   17.90
   3  -2  -1  430.66   20.10
   3  -2  -1  432.86   18.50
  -3  -2   1  426.86   18.60
   3  -2  -1  432.06   21.90
  -3   2   1  441.16   18.90
   3   2  -1  406.76   21.00
  -3   2   1  395.56   20.40
   3   2  -1  392.36   20.00
   3   2  -1  394.06   18.90
  -3   2   1  432.16   20.60
   3   2  -1  419.16   16.90
  -3   2   1  405.86   19.00
  -3   2   1  448.76   19.40
   3   2  -1  407.06   19.20
   3   2  -1  410.56   14.20
   3   2  -1  426.46   18.00
   3   2  -1  425.66   19.50
   2  -2  -1 9343.26  218.08
  -2  -2   1 9304.47  216.58
  -2  -2   1 8932.81  221.98
   2  -2  -1 8876.41  212.48
   2  -2  -1 9868.81  217.08
  -2  -2   1 9452.55  215.08
   2  -2  -1 9024.60  215.98
   2  -2  -1 9401.46  216.78
   2  -2  -1 9262.27  216.98
  -2  -2   1 9935.71  213.18
   2  -2  -1 9530.95  214.78
  -2  -2   1 9999.00  217.08
  -2  -2   1 9707.53  215.18
   2  -2  -1 9148.28  214.78
  -2  -2   1 9257.47  216.58
  -2  -2   1 9403.96  215.88
   2   2  -1 9789.22  214.68
   2   2  -1 9855.11  214.98
  -2   2   1 9047.89  215.08
  -2   2   1 9507.35  216.18
  -2   2   1 9107.29  212.58
   2   2  -1 9452.45  216.88
   2   2  -1 9284.77  215.18
  -2   2   1 9550.54  217.08
   2   2  -1 9404.06  215.48
   2   2  -1 9794.62  217.18
  -2   2   1 9267.67  217.18
  -2   2   1 9454.45  215.18
  -2   2   1 9351.17  217.68
  -2   2   1 9360.26  216.98
  -1  -2   1   21.50    6.30
   1  -2  -1   18.10    7.00
   1  -2  -1   15.80    6.50
  -1  -2   1   17.00    5.10
  -1  -2   1   28.30    5.70
  -1  -2   1   20.60    5.70
   1  -2  -1   22.50    6.80
  -1  -2   1   14.10    4.70
   1  -2  -1   14.90    5.70
   1  -2  -1   23.70    5.80
  -1  -2   1   15.00    5.30
  -1  -2   1   14.40    5.80
   1  -2  -1   22.70    6.30
   1  -2  -1   16.10    5.50
   1  -2  -1   21.30    6.20
  -1  -2   1   17.40    6.40
  -1   2   1   12.30    6.10
  -1   2   1   18.20    5.60
   1   2  -1   14.00    5.20
   1   2  -1   21.20    5.60
  -1   2   1   27.40    6.60
   1   2  -1   14.50    5.00
   1   2  -1   16.20    5.80
  -1   2   1   15.10    5.50
  -1   2   1   20.90    5.40
  -1   2   1   11.20    6.30
   1   2  -1   12.80    6.50
  -1   2   1   15.70    6.40
   1   2  -1   13.60    5.60
   1   2  -1   14.00    5.80
  -1   2   1   11.50    7.00
  -1   2   1   22.20    5.70
   0  -2   1 3828.42   86.89
   0  -2  -1 3745.13   86.19
   0  -2   1 3835.52   86.69
   0  -2   1 3850.81   87.19
   0  -2  -1 3752.12   86.49
   0  -2   1 3999.00   88.69
   0  -2  -1 3736.53   88.29
   0  -2  -1 3734.73   87.19
   0  -2   1 3628.74   86.69
   0  -2   1 3687.03   85.89
   0  -2  -1 3605.34   86.49
   0  -2   1 3755.62   86.09
   0  -2  -1 3571.14   88.09
   0  -2  -1 3722.23   87.39
   0  -2  -1 3780.12   87.39
   0   2   1 3641.84   86.89
   0   2  -1 3666.53   85.99
   0   2   1 3550.04   86.09
   0   2  -1 3695.53   88.19
   0   2  -1 3628.34   86.49
   0   2  -1 3737.73   86.89
   0   2  -1 3493.35   86.89
   0   2  -1 3869.11   88.09
   0   2   1 3680.63   86.49
   0   2   1 3685.13   87.39
   0   2   1 3753.52   86.39
   0   2   1 3571.94   88.19
   0   2   1 3743.43   88.19
   0   2   1 3615.94   87.49
   0   2  -1 3647.24   85.99
  -1  -2  -1  127.19   10.30
  -1  -2  -1  124.09    9.20
   1  -2   1  135.09    7.40
  -1  -2  -1  115.79    9.20
   1  -2   1  142.79    8.90
   1  -2   1  138.19   10.50
   1  -2   1  134.29    8.40
  -1  -2  -1  144.09    7.60
  -1  -2  -1  132.29   11.00
  -1  -2  -1  140.99    9.30
  -1  -2  -1  127.79    5.00
   1  -2   1  137.99   11.00
   1  -2   1  134.79    7.00
  -1  -2  -1  130.69    8.70
   1  -2   1  139.89    7.70
  -1   2  -1  150.18    8.80
   1   2   1  139.99    7.70
   1   2   1  127.19    5.20
  -1   2  -1  136.59    8.70
   1   2   1  128.39    9.50
  -1   2  -1  142.99    7.50
  -1   2  -1  129.19   11.40
  -1   2  -1  133.29    8.10
   1   2   1  125.59    8.80
   1   2   1  133.89    8.10
   1   2   1  125.99   10.60
  -1   2  -1  130.39    8.70
  -1   2  -1  144.99    9.90
   1   2   1  128.69    8.80
  -1   2  -1  137.89   11.70
   1   2   1  116.69   10.80
   2  -2   1  824.72   21.00
   2  -2   1  872.81   25.20
  -2  -2  -1  805.62   25.60
   2  -2   1  817.32   23.60
   2  -2   1  814.82   28.30
  -2  -2  -1  798.52   25.30
   2  -2   1  821.92   20.90
   2  -2   1  855.61   26.00
   2  -2   1  825.82   24.40
  -2  -2  -1  874.31   25.70
  -2  -2  -1  831.72   22.80
  -2  -2  -1  802.22   23.90
  -2  -2  -1  838.72   24.40
   2   2   1  815.22   23.40
  -2   2  -1  832.42   24.10
   2   2   1  808.52   24.80
   2   2   1  840.02   22.60
  -2   2  -1  847.72   23.60
   2   2   1  799.82   25.10
  -2   2  -1  852.71   23.30
  -2   2  -1  838.62   25.50
  -2   2  -1  803.02   28.60
  -2   2  -1  822.82   24.60
   2   2   1  826.22   25.80
   3  -2   1    6.20    7.20
  -3  -2  -1   -2.20    5.20
   3  -2   1   13.80    5.10
   3  -2   1    9.80   10.20
   3  -2   1    4.40    4.20
  -3  -2  -1    0.30    4.40
  -3  -2  -1   -0.20    4.50
  -3  -2  -1   -0.40    8.10
  -3  -2  -1   13.30    7.50
  -3  -2  -1    6.60    5.40
  -3  -2  -1    8.30    5.10
   3   2   1    1.20    4.80
  -3   2  -1    4.20    5.80
  -3   2  -1    8.20    5.20
  -3   2  -1   16.50    7.20
  -3   2  -1   -5.30    6.20
   3   2   1   14.50    5.40
  -3   2  -1    7.10    9.70
   3   2   1    2.80    4.00
  -3   2  -1   15.10    3.60
  -3   2  -1    7.00    5.00
   3   2   1    3.90    3.10
   3   2   1    9.40    4.60
   3   2   1    7.10    9.80
   3   2   1   25.50   10.60
  -4  -2  -1   20.20    7.70
  -4  -2  -1   23.80    6.10
  -4  -2  -1   35.80    7.60
  -4  -2  -1   20.90    7.70
  -4  -2  -1   30.80    9.20
  -4  -2  -1    8.10   11.00
   4  -2   1   11.00    8.80
   4  -2   1   26.10   12.60
   4  -2   1   16.90    6.60
  -4  -2  -1   18.70    7.80
   4  -2   1   21.80    5.70
   4   2   1   16.20   11.80
  -4   2  -1   28.40    8.20
   4   2   1   22.70    4.50
  -4   2  -1   18.00   12.60
   4   2   1   19.30   10.90
   4   2   1   21.60    6.40
   4   2   1   21.10    6.50
  -4   2  -1   24.00   10.40
  -4   2  -1   39.60    8.90
   4   2   1   17.40    7.10
  -4   2  -1   14.60    7.10
  -4   2  -1   20.50    8.00
   4   2   1   22.00    4.20
  -4   2  -1   21.40    7.40
  -5  -2  -1   10.70   12.70
  -5  -2  -1   20.90   11.00
  -5  -2  -1   25.60   10.00
  -5  -2  -1   10.20   11.90
  -5  -2  -1    8.30   10.20
  -5  -2  -1   18.70    6.00
   5  -2   1   44.70   13.20
  -5  -2  -1   23.10    6.50
  -5  -2  -1    9.70    8.80
   5  -2   1   25.40   15.30
   5  -2   1   17.40    7.60
  -5   2  -1   26.80   10.20
  -5   2  -1   26.80   12.70
  -5   2  -1   18.20   10.20
  -5   2  -1   -2.70   12.30
  -5   2  -1    0.00    9.90
   5   2   1   17.30   13.00
   5   2   1   25.40    8.40
  -5   2  -1   -5.10    7.70
   5   2   1   20.90   15.30
  -5   2  -1   31.20    9.90
   5   2   1   14.40    8.10
  -6  -2  -1  866.61   37.90
   6  -2   1  879.61   32.10
  -6  -2  -1  914.01   40.90
  -6  -2  -1  919.91   45.40
  -6  -2  -1  880.41   36.60
  -6  -2  -1  932.21   36.90
   6  -2   1  930.91   45.90
  -6  -2  -1  885.71   26.70
  -6   2  -1  905.01   37.60
  -6   2  -1  894.51   47.50
   6   2   1  903.81   34.10
   6   2   1  903.81   44.80
  -6   2  -1  902.81   43.60
  -6   2  -1  858.51   39.60
  -6   2  -1  921.01   38.20
  -6   2  -1  853.91   47.60
  -6   2  -1  889.01   35.50
  -7  -2  -1   39.60   19.40
   7  -2   1   40.70   19.40
   7  -2   1   -3.20    9.90
  -7  -2  -1    4.20   16.30
  -7  -2  -1   -5.00   13.30
  -7  -2  -1   18.00   13.60
   7   2   1  -14.40   16.20
  -7   2  -1   -8.10   17.60
  -7   2  -1   -7.30   15.50
  -7   2  -1  -13.10   12.10
  -7   2  -1    9.00   20.30
  -7   2  -1  -16.50   16.30
  -7   2  -1   11.80   14.40
  -8  -2  -1  969.40   64.89
   8  -2   1  915.81   54.99
  -8  -2  -1  870.21   45.20
  -8  -2  -1  886.31   49.00
  -8  -2  -1  839.92   63.39
  -8   2  -1  837.32   62.09
  -8   2  -1  875.11   47.60
  -8   2  -1  927.11   45.80
   8   2   1  865.01   54.19
  -8   2  -1  834.42   57.39
  -9  -2  -1   -6.60   30.30
   9  -2   1   -7.70   24.60
  -9  -2  -1    5.20   30.90
   9  -2   1   22.50   21.30
  -9  -2  -1   17.90   24.50
  -9  -2  -1   17.30   23.60
  -9   2  -1   -5.60   22.20
  -9   2  -1   17.60   32.90
  -9   2  -1   -0.60   25.80
  -9   2  -1  -33.90   48.20
   9   2   1   32.40   25.00
  -9  -3   1   45.50   32.90
   9  -3  -1   18.80   22.00
  -9  -3   1   28.90   31.70
  -9  -3   1   36.50   28.80
  -9  -3   1    5.80   23.40
  -9   3   1   16.50   31.50
  -9   3   1   81.39   30.10
  -9   3   1   22.90   24.60
   9   3  -1   -4.80   21.40
   8  -3  -1  315.47   31.70
   8  -3  -1  242.68   31.90
  -8  -3   1  310.07   40.50
  -8  -3   1  246.28   27.40
  -8  -3   1  339.77   44.20
  -8   3   1  330.67   40.50
   8   3  -1  308.67   34.60
  -8   3   1  272.07   35.80
  -8   3   1  294.97   42.80
   8   3  -1  349.47   34.90
  -8   3   1  320.07   37.80
   8   3  -1  324.37   21.80
  -7  -3   1  458.15   41.40
  -7  -3   1  508.55   25.80
  -7  -3   1  419.56   33.80
   7  -3  -1  477.75   36.00
   7  -3  -1  467.75   30.50
   7  -3  -1  458.65   22.20
   7  -3  -1  475.25   22.20
  -7  -3   1  474.65   34.40
  -7  -3   1  501.75   39.30
   7   3  -1  490.05   30.80
   7   3  -1  568.04   34.50
  -7   3   1  406.96   43.20
  -7   3   1  450.65   33.40
   7   3  -1  504.55   22.30
   7   3  -1  456.85   26.10
  -7   3   1  451.15   39.00
   7   3  -1  429.86   35.60
  -7   3   1  376.26   40.20
  -7   3   1  460.15   34.80
  -6  -3   1  611.04   26.40
  -6  -3   1  556.44   35.40
   6  -3  -1  592.34   31.60
  -6  -3   1  586.44   34.60
   6  -3  -1  738.53   38.80
  -6  -3   1  727.83   38.20
   6  -3  -1  560.24   25.80
  -6  -3   1  581.44   31.40
  -6  -3   1  642.04   38.70
   6   3  -1  653.03   34.30
   6   3  -1  646.14   36.80
  -6   3   1  535.85   38.00
  -6   3   1  695.63   38.20
  -6   3   1  608.94   37.20
  -6   3   1  623.84   34.30
   6   3  -1  606.74   28.50
  -6   3   1  637.94   35.80
  -6   3   1  615.04   33.70
   6   3  -1  660.23   28.40
   6   3  -1  677.13   26.00
   5  -3  -1 2212.68   65.89
  -5  -3   1 2240.68   67.19
   5  -3  -1 2194.18   66.39
  -5  -3   1 2216.98   65.39
  -5  -3   1 2171.68   71.59
   5  -3  -1 2198.18   60.69
   5  -3  -1 2268.17   60.19
  -5  -3   1 2208.58   66.19
   5  -3  -1 2283.87   70.09
  -5  -3   1 2155.68   73.19
  -5  -3   1 2167.18   67.59
   5  -3  -1 2252.17   69.19
  -5  -3   1 2273.37   65.79
  -5  -3   1 2229.68   58.59
   5   3  -1 2080.79   62.89
  -5   3   1 2201.48   72.29
   5   3  -1 2177.58   65.69
   5   3  -1 2180.18   59.89
   5   3  -1 2275.27   60.59
  -5   3   1 2176.48   68.99
  -5   3   1 2160.98   65.59
  -5   3   1 2098.59   67.49
  -5   3   1 2252.37   65.49
  -5   3   1 2299.97   68.69
   5   3  -1 2204.08   67.79
  -5   3   1 2295.57   65.99
   5   3  -1 2278.77   70.19
  -4  -3   1   57.99   13.60
   4  -3  -1   41.60   12.60
  -4  -3   1   59.49   13.90
   4  -3  -1   77.79   12.40
  -4  -3   1   62.79   13.00
  -4  -3   1   47.00   10.80
   4  -3  -1   92.89   12.30
  -4  -3   1   42.20    8.60
   4  -3  -1   46.40   10.60
   4  -3  -1   51.89    6.20
   4  -3  -1   59.19    9.20
   4  -3  -1   63.99   14.40
   4  -3  -1   78.59   12.90
  -4  -3   1   36.10   10.10
  -4  -3   1   46.30    9.90
  -4   3   1   61.49   11.90
   4   3  -1   62.79    8.80
  -4   3   1   42.90   11.90
   4   3  -1   46.00   10.90
   4   3  -1   49.30    9.10
   4   3  -1   53.89    6.40
   4   3  -1   49.90   10.60
  -4   3   1   34.50   11.70
   4   3  -1   59.39   11.70
  -4   3   1   38.80   11.30
  -4   3   1   53.79   14.80
  -4   3   1   31.20    9.70
  -4   3   1   50.89   10.90
   4   3  -1   58.39   12.80
   4   3  -1   69.39   11.70
  -3  -3   1 2566.44   68.69
   3  -3  -1 2555.14   69.79
   3  -3  -1 2580.54   67.79
   3  -3  -1 2510.55   68.09
  -3  -3   1 2478.85   69.89
   3  -3  -1 2406.26   61.59
  -3  -3   1 2581.84   65.99
  -3  -3   1 2506.25   61.99
  -3  -3   1 2585.94   65.39
  -3  -3   1 2468.35   68.99
   3  -3  -1 2457.15   67.29
  -3  -3   1 2347.47   67.69
   3  -3  -1 2470.65   67.79
   3   3  -1 2567.34   64.59
   3   3  -1 2472.05   68.19
  -3   3   1 2412.06   70.79
  -3   3   1 2365.16   65.79
  -3   3   1 2583.04   66.09
  -3   3   1 2522.55   67.09
  -3   3   1 2518.55   67.89
  -3   3   1 2516.55   61.99
   3   3  -1 2464.35   66.89
   3   3  -1 2599.44   65.29
   3   3  -1 2438.06   59.69
   3   3  -1 2433.36   67.49
  -3   3   1 2410.46   68.39
   3   3  -1 2359.86   64.89
   3   3  -1 2327.07   65.49
  -3   3   1 2380.26   68.89
   2  -3  -1   87.79    9.80
  -2  -3   1   75.19    9.90
  -2  -3   1   96.79   11.90
  -2  -3   1   96.99   11.80
   2  -3  -1   86.49   10.40
   2  -3  -1   95.79   12.40
   2  -3  -1   97.19   11.20
  -2  -3   1   87.49   11.30
   2  -3  -1  109.49   12.70
   2  -3  -1  117.99   13.40
  -2  -3   1  105.59   10.40
  -2  -3   1  103.49   11.70
  -2  -3   1   95.49   11.10
  -2  -3   1  103.19   11.70
  -2  -3   1  111.69   10.30
   2  -3  -1   91.29   11.10
   2  -3  -1   91.59   11.00
   2  -3  -1  108.09   15.00
   2   3  -1   75.29    9.00
   2   3  -1  102.99   11.90
  -2   3   1   94.99   12.00
  -2   3   1   83.99   10.40
  -2   3   1   69.19    9.80
  -2   3   1   97.49   11.50
  -2   3   1   76.99   10.20
   2   3  -1  108.79   10.60
   2   3  -1  100.19   11.40
   2   3  -1   74.29   10.80
  -2   3   1   78.39    9.70
  -2   3   1   95.49   10.90
  -2   3   1  105.19    9.70
  -2   3   1   99.79   11.70
   2   3  -1  103.39   11.60
   1  -3  -1 2373.76   61.99
   1  -3  -1 2388.16   61.19
  -1  -3   1 2422.76   60.09
  -1  -3   1 2255.17   61.09
  -1  -3   1 2361.46   61.39
   1  -3  -1 2309.67   61.29
  -1  -3   1 2455.95   62.69
   1  -3  -1 2482.65   62.79
  -1  -3   1 2336.37   59.89
   1  -3  -1 2331.37   60.89
   1  -3  -1 2475.35   60.69
   1  -3  -1 2310.67   59.79
  -1  -3   1 2269.27   60.89
   1  -3  -1 2473.75   60.39
  -1  -3   1 2384.86   58.99
  -1  -3   1 2457.15   58.89
  -1   3   1 2411.86   60.09
   1   3  -1 2307.37   60.29
   1   3  -1 2410.36   61.59
  -1   3   1 2429.16   60.79
   1   3  -1 2375.56   59.59
  -1   3   1 2437.26   61.89
  -1   3   1 2310.07   62.49
  -1   3   1 2300.47   60.59
  -1   3   1 2293.37   60.49
   1   3  -1 2345.97   61.79
   1   3  -1 2353.86   62.79
   1   3  -1 2300.27   59.39
  -1   3   1 2248.77   61.49
   1   3  -1 2519.65   61.79
  -1   3   1 2436.66   61.49
   0  -3   1  192.48   13.60
   0  -3  -1  184.98   11.80
   0  -3   1  179.18   12.10
   0  -3  -1  173.78   11.10
   0  -3  -1  169.68   12.40
   0  -3   1  190.68   11.40
   0  -3  -1  171.38   12.30
   0  -3  -1  170.08   14.30
   0  -3   1  180.88   12.00
   0  -3  -1  170.18   11.60
   0  -3   1  190.18   12.20
   0  -3   1  178.98   11.10
   0  -3  -1  175.38   12.60
   0  -3   1  175.88   12.70
   0  -3  -1  166.38   13.50
   0  -3   1  148.09   12.50
   0   3   1  165.78   14.40
   0   3  -1  184.28   10.80
   0   3   1  171.28   11.80
   0   3  -1  183.38   12.20
   0   3   1  174.48   12.30
   0   3  -1  184.68   13.30
   0   3  -1  175.88   13.80
   0   3   1  162.88   12.10
   0   3   1  177.98   12.20
   0   3   1  157.28   11.20
   0   3  -1  159.68   12.60
   0   3   1  170.98   11.80
   0   3   1  180.98   13.30
   0   3  -1  161.28   12.30
   0   3  -1  160.28   11.00
   1  -3   1  633.24   23.00
  -1  -3  -1  652.93   22.20
  -1  -3  -1  616.64   22.20
   1  -3   1  628.74   18.20
  -1  -3  -1  597.04   20.50
   1  -3   1  635.44   20.20
  -1  -3  -1  636.64   22.50
   1  -3   1  635.24   22.10
  -1  -3  -1  629.54   18.70
  -1  -3  -1  611.64   23.30
   1  -3   1  557.94   22.90
   1  -3   1  618.64   20.90
   1  -3   1  594.44   19.50
  -1  -3  -1  619.14   21.60
   1   3   1  617.44   19.60
   1   3   1  612.84   21.90
  -1   3  -1  598.24   20.50
   1   3   1  622.34   17.00
   1   3   1  641.14   20.30
  -1   3  -1  649.34   20.30
  -1   3  -1  631.24   24.10
   1   3   1  622.24   22.90
   1   3   1  612.24   22.80
   1   3   1  626.34   21.00
  -1   3  -1  637.14   23.60
  -1   3  -1  596.84   21.30
  -1   3  -1  638.24   21.40
  -1   3  -1  666.83   22.30
  -2  -3  -1 1036.40   33.40
  -2  -3  -1 1023.80   31.10
   2  -3   1 1045.80   35.30
   2  -3   1 1029.70   31.70
   2  -3   1 1118.49   30.40
   2  -3   1 1051.99   35.10
  -2  -3  -1 1101.49   34.70
  -2  -3  -1 1064.09   31.70
   2  -3   1 1079.59   34.70
   2  -3   1 1055.39   30.90
  -2  -3  -1 1073.49   27.50
   2  -3   1 1105.89   29.10
   2  -3   1 1056.59   32.70
  -2  -3  -1 1011.30   32.50
   2  -3   1 1050.19   28.40
  -2  -3  -1 1077.69   27.30
  -2  -3  -1 1076.69   32.60
  -2   3  -1 1123.79   35.50
  -2   3  -1 1115.09   31.00
  -2   3  -1 1000.00   36.40
   2   3   1 1058.19   29.80
  -2   3  -1  994.70   31.80
   2   3   1 1024.60   27.10
  -2   3  -1 1108.29   31.50
   2   3   1 1045.70   27.80
  -2   3  -1 1062.39   31.90
   2   3   1 1081.99   36.80
   2   3   1 1093.39   32.10
  -2   3  -1 1096.29   31.00
   2   3   1 1061.79   30.90
   2   3   1 1027.60   32.50
  -3  -3  -1  333.77   14.60
  -3  -3  -1  359.66   16.90
   3  -3   1  338.57   21.10
  -3  -3  -1  356.76   17.90
   3  -3   1  340.67   12.20
  -3  -3  -1  367.56   21.60
  -3  -3  -1  366.06   17.90
   3  -3   1  349.47   12.50
  -3  -3  -1  365.66   17.40
   3  -3   1  341.77   17.10
   3  -3   1  341.87   23.60
   3  -3   1  337.87   15.90
   3  -3   1  316.47   20.50
   3   3   1  345.27   17.60
   3   3   1  390.36   17.10
  -3   3  -1  348.77   14.30
  -3   3  -1  324.37   16.50
  -3   3  -1  337.17   18.10
  -3   3  -1  371.36   18.40
  -3   3  -1  363.76   16.20
  -3   3  -1  355.46   19.40
   3   3   1  359.96   14.40
   3   3   1  355.96   17.80
  -3   3  -1  328.17   21.80
   3   3   1  349.96   15.60
  -3   3  -1  340.27   18.20
   3   3   1  333.57   22.60
   3   3   1  342.27   22.90
  -4  -3  -1 1492.75   51.59
  -4  -3  -1 1423.46   44.20
  -4  -3  -1 1415.86   46.30
   4  -3   1 1462.05   42.00
  -4  -3  -1 1485.75   51.99
   4  -3   1 1509.25   43.40
   4  -3   1 1470.55   45.80
   4  -3   1 1500.55   51.59
  -4  -3  -1 1461.75   45.00
  -4  -3  -1 1431.26   43.10
  -4  -3  -1 1471.05   44.30
  -4  -3  -1 1484.45   45.70
  -4   3  -1 1369.66   50.89
   4   3   1 1448.16   39.60
   4   3   1 1437.26   43.10
   4   3   1 1504.95   51.79
  -4   3  -1 1488.15   37.30
   4   3   1 1424.36   45.00
   4   3   1 1496.25   51.69
  -4   3  -1 1520.95   46.40
   4   3   1 1507.45   44.30
  -4   3  -1 1458.05   44.00
  -4   3  -1 1517.85   46.00
  -4   3  -1 1435.66   43.10
  -4   3  -1 1385.26   45.30
  -4   3  -1 1493.95   47.70
   4   3   1 1476.55   38.50
  -5  -3  -1   10.00    9.90
  -5  -3  -1   29.50   17.40
  -5  -3  -1   16.80   10.30
  -5  -3  -1   21.70    7.90
   5  -3   1   27.90    8.90
   5  -3   1   20.20   12.10
  -5  -3  -1   27.40   14.70
   5  -3   1   13.10    7.20
  -5  -3  -1   23.20   11.80
  -5  -3  -1   19.90   11.10
   5   3   1    4.70    8.60
  -5   3  -1   38.00   11.70
  -5   3  -1   25.70   13.00
  -5   3  -1   14.40   10.60
   5   3   1   17.10    5.00
   5   3   1   14.80    7.10
   5   3   1   21.90    9.10
  -5   3  -1    8.50   11.20
  -5   3  -1    5.40   14.30
  -5   3  -1   26.90   11.70
  -5   3  -1    1.90    9.40
   5   3   1   42.10    9.90
   5   3   1   24.90   14.40
  -6  -3  -1  799.62   38.20
  -6  -3  -1  860.41   36.90
   6  -3   1  858.61   46.20
  -6  -3  -1  805.42   36.00
  -6  -3  -1  791.62   41.80
  -6  -3  -1  847.02   45.40
  -6   3  -1  821.22   46.70
  -6   3  -1  839.92   38.00
  -6   3  -1  866.21   42.20
   6   3   1  841.02   34.90
   6   3   1  843.72   44.10
  -6   3  -1  823.72   38.10
  -6   3  -1  843.92   38.20
  -6   3  -1  787.32   36.40
  -7  -3  -1  280.67   27.30
   7  -3   1  291.47   34.20
  -7  -3  -1  376.96   35.00
  -7  -3  -1  252.57   28.10
   7  -3   1  325.67   32.20
   7  -3   1  311.17   21.90
  -7  -3  -1  422.96   46.80
  -7  -3  -1  293.77   38.60
  -7   3  -1  232.38   26.60
   7   3   1  332.67   26.90
  -7   3  -1  301.97   29.00
  -7   3  -1  368.66   39.30
   7   3   1  293.57   35.00
  -7   3  -1  330.57   29.70
  -7   3  -1  312.97   39.40
  -7   3  -1  303.57   36.20
  -8  -3  -1  323.77   34.30
   8  -3   1  346.07   41.00
   8  -3   1  253.27   34.50
  -8  -3  -1  280.07   33.10
  -8  -3  -1  390.36   44.30
  -8   3  -1  266.97   42.30
  -8   3  -1  311.37   38.30
  -8   3  -1  271.87   35.30
   8   3   1  274.27   37.20
  -8   3  -1  351.16   37.40
  -9  -4   1 1279.57   70.29
  -9  -4   1 1269.57   79.09
   9  -4  -1 1298.87   68.59
  -9  -4   1 1348.07   69.39
  -9   4   1 1351.76   77.19
  -9   4   1 1288.67   73.89
  -9   4   1 1078.79   97.09
   9   4  -1 1394.76   69.79
  -8  -4   1   -3.60   27.90
  -8  -4   1   38.70   21.30
  -8  -4   1    3.10   19.00
   8  -4  -1   -1.70   17.90
   8  -4  -1  -26.50   20.10
  -8   4   1  -16.30   24.40
  -8   4   1   24.70   29.90
   8   4  -1   25.80   27.30
  -8   4   1  -36.10   21.60
   8   4  -1   17.80   12.70
   8   4  -1    1.70   19.00
  -8   4   1   -9.50   20.10
   7  -4  -1 1700.13   68.79
  -7  -4   1 1839.22   64.69
   7  -4  -1 1657.93   50.09
  -7  -4   1 1811.62   70.29
  -7  -4   1 1796.22   52.19
   7  -4  -1 1902.31   63.29
   7  -4  -1 1812.42   50.99
  -7  -4   1 1899.71   76.09
  -7  -4   1 1790.32   67.39
  -7   4   1 1819.22   66.19
   7   4  -1 1921.01   68.99
  -7   4   1 1823.12   75.19
   7   4  -1 1789.82   55.39
   7   4  -1 1799.92   55.59
  -7   4   1 1752.02   70.59
   7   4  -1 1767.72   69.89
  -7   4   1 1824.42   68.29
  -7   4   1 1829.02   72.79
   7   4  -1 1791.02   56.59
   6  -4  -1  135.09   18.60
   6  -4  -1  148.79   23.00
  -6  -4   1  121.99   22.30
  -6  -4   1  112.99   20.10
  -6  -4   1  103.59   13.20
  -6  -4   1  144.79   20.80
   6  -4  -1  105.49   13.40
  -6  -4   1  133.49   17.30
  -6  -4   1  108.49   20.60
   6  -4  -1  118.09   14.10
  -6   4   1  130.49   22.80
   6   4  -1  119.99   21.00
   6   4  -1   97.29   14.80
   6   4  -1   87.39   21.70
  -6   4   1  125.89   23.30
  -6   4   1  120.09   19.50
  -6   4   1   79.59   19.20
   6   4  -1  113.59   14.90
  -6   4   1   94.59   18.20
   6   4  -1  133.29   16.60
  -5  -4   1 1879.41   65.69
  -5  -4   1 1961.80   52.59
  -5  -4   1 1944.91   58.79
   5  -4  -1 1885.91   64.79
   5  -4  -1 1901.81   59.99
  -5  -4   1 1973.40   63.39
   5  -4  -1 1836.12   62.79
  -5  -4   1 2005.80   62.89
   5  -4  -1 2007.10   55.29
  -5  -4   1 1863.61   59.79
   5  -4  -1 1860.61   54.99
   5   4  -1 1841.32   58.69
  -5   4   1 2006.70   63.19
   5   4  -1 1893.81   54.99
   5   4  -1 2034.50   57.69
  -5   4   1 1887.41   67.59
   5   4  -1 1994.80   65.49
  -5   4   1 1951.00   72.39
  -5   4   1 1826.42   62.49
  -5   4   1 1931.91   61.19
  -5   4   1 1920.81   62.79
  -5   4   1 1853.61   63.69
   5   4  -1 1856.01   58.19
  -4  -4   1  122.09   16.40
   4  -4  -1   97.69   16.80
   4  -4  -1   99.19   15.00
  -4  -4   1  101.49   13.30
   4  -4  -1   94.59   13.80
  -4  -4   1  103.19   15.10
  -4  -4   1  110.09   13.00
  -4  -4   1  114.99   13.80
  -4  -4   1   96.59   15.80
  -4  -4   1  103.79   17.30
   4  -4  -1  144.99   18.90
   4  -4  -1   93.79   13.20
   4  -4  -1  143.49   15.70
   4  -4  -1  106.29   13.00
   4  -4  -1  113.89   11.40
  -4   4   1  124.19   15.70
   4   4  -1  146.89   15.40
   4   4  -1   86.99   13.70
  -4   4   1   78.59   12.70
   4   4  -1  123.99   15.30
  -4   4   1  103.19   15.70
  -4   4   1  113.49   15.10
  -4   4   1  142.69   16.10
  -4   4   1   98.69   17.30
   4   4  -1  106.99   13.60
   4   4  -1  159.28   18.70
   4   4  -1  102.09   11.90
  -4   4   1  116.49   11.90
   4   4  -1  110.79    8.50
   4   4  -1   99.09   13.80
  -3  -4   1  182.18   17.30
   3  -4  -1  197.78   15.30
   3  -4  -1  180.08   19.90
   3  -4  -1  204.08   16.80
  -3  -4   1  210.98   18.40
  -3  -4   1  205.18   14.30
  -3  -4   1  188.58   19.50
   3  -4  -1  235.48   18.90
  -3  -4   1  178.98   17.60
   3  -4  -1  195.78   17.00
   3  -4  -1  190.88   13.70
  -3  -4   1  176.88   14.40
   3  -4  -1  218.38   18.00
  -3  -4   1  202.58   16.60
  -3   4   1  226.58   17.80
  -3   4   1  207.98   18.80
  -3   4   1  196.38   16.10
  -3   4   1  167.58   17.80
  -3   4   1  177.98   15.70
  -3   4   1  190.28   20.40
   3   4  -1  186.68   15.60
  -3   4   1  203.18   17.80
   3   4  -1  174.58   16.20
  -3   4   1  185.68   19.30
  -3   4   1  241.58   18.70
   3   4  -1  193.28   15.00
   3   4  -1  187.68   17.50
   3   4  -1  183.78   14.50
   3   4  -1  176.98   16.80
  -2  -4   1  317.97   15.40
  -2  -4   1  292.17   19.60
   2  -4  -1  328.57   19.10
   2  -4  -1  280.17   18.20
   2  -4  -1  310.87   16.70
  -2  -4   1  271.17   16.50
   2  -4  -1  301.97   20.50
  -2  -4   1  251.77   18.60
   2  -4  -1  286.47   17.60
   2  -4  -1  272.77   19.60
   2  -4  -1  294.77   16.60
  -2  -4   1  280.37   17.60
   2  -4  -1  270.87   17.70
  -2  -4   1  293.97   17.10
  -2  -4   1  317.37   20.10
  -2  -4   1  320.17   18.40
   2   4  -1  313.77   18.60
   2   4  -1  273.87   17.70
   2   4  -1  321.97   18.10
   2   4  -1  283.77   17.70
   2   4  -1  278.17   15.60
   2   4  -1  304.57   21.00
  -2   4   1  320.77   18.70
  -2   4   1  276.57   20.80
   2   4  -1  273.47   15.50
  -2   4   1  278.37   20.00
  -2   4   1  282.07   15.90
  -2   4   1  335.77   19.00
  -2   4   1  301.97   16.80
   1  -4  -1 2099.19   57.59
   1  -4  -1 2106.09   56.09
   1  -4  -1 2037.30   57.49
   1  -4  -1 2111.99   59.09
  -1  -4   1 2150.68   55.99
  -1  -4   1 2200.58   58.09
  -1  -4   1 2056.99   54.39
  -1  -4   1 2139.09   62.29
   1  -4  -1 1961.00   60.69
   1  -4  -1 2152.88   57.89
  -1  -4   1 2133.59   58.59
   1  -4  -1 2128.59   55.99
   1  -4  -1 2048.90   56.19
  -1  -4   1 2124.29   57.89
  -1  -4   1 2092.99   57.79
  -1  -4   1 2020.10   57.89
  -1  -4   1 1990.30   55.49
   1  -4  -1 2091.89   57.69
  -1   4   1 2093.19   57.39
   1   4  -1 2014.90   57.19
   1   4  -1 1971.90   55.49
  -1   4   1 2184.08   57.29
   1   4  -1 2116.89   55.29
  -1   4   1 2099.09   57.49
  -1   4   1 2084.69   56.29
  -1   4   1 2129.29   57.19
  -1   4   1 2219.38   55.99
   1   4  -1 2075.49   58.99
  -1   4   1 2124.79   58.59
   1   4  -1 2168.38   58.19
   1   4  -1 2075.59   54.99
  -1   4   1 2032.40   59.09
   1   4  -1 2203.38   57.69
   0  -4  -1   68.79   10.10
   0  -4  -1   71.39    8.70
   0  -4   1   72.79    9.30
   0  -4   1   79.49   10.60
   0  -4   1   75.09    9.60
   0  -4  -1   65.49   10.00
   0  -4   1   91.69   11.60
   0  -4  -1   82.59   11.60
   0  -4  -1   87.09    9.60
   0  -4   1   89.89   10.40
   0  -4  -1   70.49    9.20
   0  -4   1   65.89    8.90
   0  -4   1   69.19   10.40
   0   4   1   79.29    9.40
   0   4   1   99.69   11.90
   0   4  -1   68.19    9.70
   0   4  -1   86.69   11.20
   0   4   1   92.19   10.70
   0   4  -1   65.99    8.60
   0   4   1   95.59   11.80
   0   4   1   76.49    9.00
   0   4  -1   68.69   10.60
   0   4  -1   80.69    9.00
   0   4   1   69.19    9.40
   0   4   1   85.39   10.90
   0   4  -1   67.49    9.00
   0   4  -1   69.59    9.50
   1  -4   1 6502.05  155.98
  -1  -4  -1 7247.68  162.58
   1  -4   1 6611.54  159.28
   1  -4   1 6901.21  158.78
   1  -4   1 6702.23  156.78
   1  -4   1 6838.82  158.38
  -1  -4  -1 6803.72  159.78
   1  -4   1 6949.20  161.88
   1  -4   1 6852.91  160.98
   1  -4   1 6618.34  158.28
   1  -4   1 6625.94  153.88
  -1  -4  -1 6554.54  157.58
  -1  -4  -1 6936.61  154.88
   1  -4   1 6876.81  160.08
  -1  -4  -1 6602.14  160.88
  -1  -4  -1 6969.80  160.28
  -1  -4  -1 6993.80  158.28
  -1  -4  -1 5971.90  162.88
  -1   4  -1 6429.46  167.18
  -1   4  -1 6683.53  160.58
   1   4   1 7189.78  159.98
   1   4   1 7001.90  161.28
   1   4   1 6724.23  157.58
   1   4   1 6732.43  159.68
   1   4   1 6701.53  161.48
  -1   4  -1 6980.00  157.38
   1   4   1 6907.91  156.68
  -1   4  -1 5857.21  162.48
  -1   4  -1 6805.02  159.18
  -1   4  -1 6738.63  157.68
   1   4   1 6597.74  153.08
  -1   4  -1 7054.79  159.28
   1   4   1 6461.55  159.48
   2  -4   1   41.30   11.20
  -2  -4  -1   40.80    6.50
  -2  -4  -1   26.50    8.40
  -2  -4  -1   25.20    6.90
   2  -4   1   36.10    7.50
   2  -4   1   27.50    6.40
  -2  -4  -1   26.90    8.80
   2  -4   1   52.59   10.20
  -2  -4  -1   24.30    7.30
  -2  -4  -1   20.90    7.40
   2  -4   1   30.40    9.00
   2  -4   1   31.00    6.10
   2  -4   1   33.90   10.00
   2  -4   1   32.20    6.00
   2  -4   1   24.30    6.80
  -2   4  -1   15.60    7.60
   2   4   1   32.90    7.70
  -2   4  -1   37.30    7.10
   2   4   1   38.50    8.60
   2   4   1   22.40    5.10
  -2   4  -1   31.80    7.50
   2   4   1   43.30   11.50
   2   4   1   21.50    6.20
   2   4   1   33.00    8.40
  -2   4  -1   16.50   12.20
  -2   4  -1   31.30    7.20
   2   4   1   14.20    6.70
  -2   4  -1   34.30   10.80
   2   4   1   34.00    5.00
  -2   4  -1   21.90    7.20
  -2   4  -1   31.00    6.40
  -3  -4  -1 3322.27   88.99
   3  -4   1 3185.18   78.59
   3  -4   1 3242.38   83.89
  -3  -4  -1 3229.18   76.29
   3  -4   1 3140.09   86.39
   3  -4   1 3269.37   89.89
   3  -4   1 3373.16   79.59
   3  -4   1 3498.05   90.29
  -3  -4  -1 3409.36   86.29
  -3  -4  -1 3428.56   78.99
  -3  -4  -1 3325.47   84.49
   3  -4   1 3182.18   88.39
  -3  -4  -1 3159.08   85.69
   3  -4   1 3227.98   82.79
  -3  -4  -1 3053.99   85.49
   3   4   1 3284.67   85.29
   3   4   1 3381.86   84.29
   3   4   1 3417.46   86.39
   3   4   1 3148.78   86.49
  -3   4  -1 3420.06   85.89
  -3   4  -1 3183.28   85.39
  -3   4  -1 3331.97   86.89
  -3   4  -1 3411.36   82.99
  -3   4  -1 3269.97   83.49
  -3   4  -1 3195.98   90.69
   3   4   1 3308.57   75.29
   3   4   1 3280.37   90.19
   3   4   1 3363.26   80.99
  -3   4  -1 3273.77   81.99
  -3   4  -1 3183.68   83.69
   3   4   1 3264.07   79.19
  -3   4  -1 3182.38   89.69
   3   4   1 3396.46   91.99
  -4  -4  -1   -8.20    7.90
   4  -4   1    3.10    9.10
   4  -4   1    1.20    3.90
  -4  -4  -1   12.20    9.40
  -4  -4  -1    2.40    9.20
  -4  -4  -1   -2.00   12.80
   4  -4   1    3.20    6.60
   4  -4   1    4.70    4.30
  -4  -4  -1    9.80   11.50
   4  -4   1   18.90    8.80
   4  -4   1   12.50   12.30
   4  -4   1   -1.80   10.80
   4   4   1   13.50    8.40
   4   4   1    8.00   13.40
   4   4   1   21.10    9.20
  -4   4  -1    3.60    8.50
  -4   4  -1    1.20    5.50
  -4   4  -1   14.60    9.10
   4   4   1    3.70    6.30
  -4   4  -1   -2.70    8.30
   4   4   1   -4.70   12.90
  -4   4  -1  -12.90   12.60
   4   4   1    5.40    9.00
  -4   4  -1   21.40   13.70
  -4   4  -1   -0.20   10.10
   4   4   1   14.00    8.30
  -4   4  -1    7.10   10.80
   5  -4   1 2522.55   79.69
   5  -4   1 2621.84   72.09
  -5  -4  -1 2546.15   74.89
  -5  -4  -1 2685.03   70.39
  -5  -4  -1 2604.04   73.39
   5  -4   1 2674.83   83.99
   5  -4   1 2529.45   74.49
  -5  -4  -1 2585.34   82.49
  -5  -4  -1 2536.65   75.69
   5  -4   1 2669.63   69.99
  -5  -4  -1 2614.94   79.69
   5   4   1 2623.94   64.69
  -5   4  -1 2546.65   72.89
   5   4   1 2494.25   81.19
   5   4   1 2676.33   73.29
   5   4   1 2565.14   73.79
  -5   4  -1 2487.95   82.19
  -5   4  -1 2639.74   75.39
  -5   4  -1 2638.44   76.99
   5   4   1 2574.94   82.49
  -5   4  -1 2648.44   62.09
  -5   4  -1 2516.45   75.69
  -5   4  -1 2452.95   74.49
  -5   4  -1 2652.63   80.29
  -6  -4  -1   -7.30   15.30
   6  -4   1    7.10    9.20
   6  -4   1   42.40   17.70
  -6  -4  -1   -3.60   15.40
  -6  -4  -1   26.70   16.60
   6  -4   1   28.80   15.60
  -6  -4  -1  -10.20   11.60
  -6  -4  -1   -9.10   11.80
  -6   4  -1  -11.30   17.70
   6   4   1  -23.40   11.30
   6   4   1   27.50   16.50
  -6   4  -1   -3.20   12.10
  -6   4  -1    3.80   17.30
  -6   4  -1  -10.60   13.80
   6   4   1   -8.60   13.00
  -7  -4  -1  560.94   59.99
   7  -4   1  617.24   30.70
   7  -4   1  639.64   40.60
  -7  -4  -1  634.14   50.89
  -7  -4  -1  658.13   40.50
   7  -4   1  601.44   43.10
  -7  -4  -1  626.64   36.80
  -7  -4  -1  699.13   57.39
   7   4   1  609.84   37.40
  -7   4  -1  573.14   48.60
  -7   4  -1  744.93   43.50
  -7   4  -1  611.64   42.20
  -7   4  -1  637.74   38.50
   7   4   1  635.64   44.30
   8  -4   1   63.49   21.20
  -8  -4  -1   52.09   21.60
   8  -4   1   47.00   24.40
  -8  -4  -1   78.59   25.80
  -8   4  -1   72.89   27.30
  -8   4  -1   50.19   22.40
   8   4   1   78.29   24.50
  -8   4  -1   83.29   42.70
  -8   4  -1   39.00   22.00
   8  -5  -1  935.91   56.99
   8  -5  -1 1039.10   65.49
  -8  -5   1 1043.80   87.49
  -8  -5   1  929.71   54.49
  -8   5   1 1030.60   57.19
   8   5  -1  914.51   54.89
   8   5  -1  973.10   61.39
  -8   5   1  999.30   60.49
  -8   5   1 1017.90   61.49
   8   5  -1 1032.80   40.80
   7  -5  -1  170.58   21.00
  -7  -5   1  179.38   24.70
  -7  -5   1  195.08   28.20
   7  -5  -1  169.78   19.20
   7  -5  -1  167.48   27.70
  -7  -5   1  121.19   32.10
  -7  -5   1  194.48   31.90
  -7  -5   1  247.28   29.00
   7   5  -1  172.68   20.40
   7   5  -1  166.88   26.60
  -7   5   1  191.98   40.50
  -7   5   1  218.08   29.10
  -7   5   1  172.18   25.70
   7   5  -1  171.88   26.00
  -7   5   1  185.58   25.40
  -7   5   1  211.28   33.50
  -6  -5   1  771.02   29.90
  -6  -5   1  722.73   45.20
  -6  -5   1  778.72   39.90
   6  -5  -1  783.62   31.50
   6  -5  -1  749.53   42.40
  -6  -5   1  734.93   41.40
  -6  -5   1  729.93   45.50
   6  -5  -1  752.92   32.30
  -6  -5   1  765.62   40.60
   6  -5  -1  787.62   39.90
   6   5  -1  791.72   34.70
  -6   5   1  777.92   46.20
   6   5  -1  790.02   36.20
  -6   5   1  808.12   43.60
  -6   5   1  796.02   46.80
   6   5  -1  734.03   41.50
  -6   5   1  752.72   41.50
   6   5  -1  647.84   51.39
   6   5  -1  788.82   38.20
  -6   5   1  725.33   39.60
  -5  -5   1  509.35   34.40
  -5  -5   1  502.45   32.10
   5  -5  -1  540.75   26.20
  -5  -5   1  568.54   31.00
   5  -5  -1  574.34   34.70
   5  -5  -1  561.84   27.30
   5  -5  -1  553.74   33.60
  -5  -5   1  573.74   29.50
   5  -5  -1  573.54   31.30
  -5  -5   1  569.84   35.20
  -5  -5   1  574.84   24.40
  -5   5   1  541.85   36.30
  -5   5   1  588.34   37.60
  -5   5   1  546.35   35.40
  -5   5   1  486.75   32.60
   5   5  -1  599.94   34.30
   5   5  -1  601.44   29.40
   5   5  -1  532.85   29.70
  -5   5   1  565.84   34.30
   5   5  -1  544.45   30.80
  -5   5   1  562.14   31.70
   5   5  -1  534.95   28.50
   4  -5  -1  212.08   20.80
  -4  -5   1  198.88   21.00
  -4  -5   1  205.98   22.30
  -4  -5   1  201.58   23.80
   4  -5  -1  241.58   24.30
  -4  -5   1  228.28   16.70
   4  -5  -1  258.17   24.80
   4  -5  -1  199.48   22.50
   4  -5  -1  239.38   19.90
   4  -5  -1  238.58   19.80
  -4  -5   1  206.18   22.70
   4  -5  -1  229.58   25.30
  -4  -5   1  174.58   20.90
  -4  -5   1  209.78   18.60
   4  -5  -1  255.37   16.50
  -4  -5   1  211.38   27.00
   4   5  -1  230.48   20.00
   4   5  -1  267.97   24.10
   4   5  -1  202.08   21.60
  -4   5   1  218.08   16.70
  -4   5   1  210.58   25.30
  -4   5   1  201.48   24.50
  -4   5   1  195.78   21.90
  -4   5   1  265.97   24.00
   4   5  -1  220.28   20.70
   4   5  -1  257.77   22.60
  -4   5   1  213.98   22.50
  -4   5   1  209.28   21.90
   4   5  -1  206.98   22.80
  -4   5   1  217.48   23.80
   4   5  -1  192.58   19.70
  -4   5   1  264.87   22.20
   4   5  -1  228.58   11.90
  -3  -5   1  629.04   32.40
   3  -5  -1  585.34   25.70
  -3  -5   1  554.24   29.00
  -3  -5   1  608.24   24.00
   3  -5  -1  608.24   30.50
  -3  -5   1  616.64   24.50
  -3  -5   1  605.04   28.70
  -3  -5   1  589.44   29.90
  -3  -5   1  636.84   28.80
   3  -5  -1  620.94   32.20
  -3  -5   1  604.44   29.20
   3  -5  -1  613.44   29.10
   3  -5  -1  589.74   26.70
  -3  -5   1  607.64   30.40
   3  -5  -1  585.74   28.10
  -3  -5   1  581.04   28.70
   3  -5  -1  600.94   28.60
  -3   5   1  619.74   30.80
   3   5  -1  563.24   27.10
  -3   5   1  591.14   27.20
  -3   5   1  562.44   28.40
   3   5  -1  605.94   26.00
  -3   5   1  547.35   31.90
  -3   5   1  548.25   31.10
  -3   5   1  587.54   28.90
   3   5  -1  567.84   29.60
  -3   5   1  588.04   28.50
  -3   5   1  579.34   24.80
  -3   5   1  578.54   30.10
   3   5  -1  593.94   28.20
   3   5  -1  578.04   28.30
   2  -5  -1   92.69   12.80
   2  -5  -1   87.79   11.90
  -2  -5   1   98.89   12.90
   2  -5  -1  110.79   15.30
  -2  -5   1   97.39   13.50
  -2  -5   1   95.49   10.60
   2  -5  -1   72.99   11.70
  -2  -5   1   73.99   12.80
  -2  -5   1   91.89   14.10
  -2  -5   1   98.59   11.20
   2  -5  -1  111.39   12.90
  -2  -5   1  104.99   12.30
   2  -5  -1   89.79   13.60
  -2  -5   1   91.39   13.90
   2  -5  -1   93.29   12.20
  -2  -5   1   72.49   11.00
   2  -5  -1   81.49   13.90
  -2   5   1   86.79   14.10
  -2   5   1   87.39   11.40
   2   5  -1   98.69   15.20
  -2   5   1   67.99   13.90
   2   5  -1   80.09   12.60
   2   5  -1   82.79   10.00
  -2   5   1   81.59   12.40
   2   5  -1   83.69   12.20
  -2   5   1   86.79   13.30
  -2   5   1   84.59   11.30
   2   5  -1  111.09   13.40
  -2   5   1   84.49   13.00
   2   5  -1   93.09   10.90
   2   5  -1  107.99   15.20
   1  -5  -1 1447.46   44.90
  -1  -5   1 1406.36   45.50
  -1  -5   1 1469.95   45.20
   1  -5  -1 1640.64   55.09
   1  -5  -1 1417.76   42.50
   1  -5  -1 1452.15   43.60
  -1  -5   1 1300.87   53.39
  -1  -5   1 1473.85   43.10
  -1  -5   1 1410.86   44.50
  -1  -5   1 1370.66   41.00
   1  -5  -1 1351.16   42.70
   1  -5  -1 1394.06   45.50
  -1  -5   1 1214.28   48.40
   1  -5  -1 1309.57   43.60
   1  -5  -1 1431.46   46.30
  -1  -5   1 1444.06   44.80
  -1   5   1 1461.95   43.30
   1   5  -1 1337.47   40.60
   1   5  -1 1395.26   47.90
  -1   5   1 1469.05   44.40
   1   5  -1 1304.37   44.30
  -1   5   1 1489.75   44.30
  -1   5   1 1476.35   44.60
  -1   5   1 1236.08   48.40
  -1   5   1 1343.17   50.89
  -1   5   1 1296.37   44.80
  -1   5   1 1335.37   43.90
   1   5  -1 1368.56   44.60
   1   5  -1 1477.25   51.39
   1   5  -1 1409.96   42.00
   1   5  -1 1433.16   44.20
   0  -5   1  696.83   25.60
   0  -5   1  729.83   27.80
   0  -5   1  681.43   26.00
   0  -5  -1  667.23   29.00
   0  -5   1  650.93   27.80
   0  -5   1  673.23   28.30
   0  -5  -1  658.03   25.90
   0  -5  -1  708.93   27.50
   0  -5   1  685.33   27.80
   0  -5  -1  657.13   28.70
   0  -5   1  642.24   27.00
   0  -5   1  673.73   29.10
   0  -5  -1  618.54   26.50
   0  -5  -1  662.33   25.90
   0  -5   1  686.43   26.30
   0  -5  -1  713.63   27.30
   0  -5  -1  667.03   27.80
   0   5  -1  721.23   28.30
   0   5   1  742.03   28.30
   0   5  -1  722.73   25.90
   0   5   1  684.33   26.90
   0   5  -1  627.54   29.30
   0   5  -1  702.13   27.00
   0   5  -1  642.54   25.90
   0   5   1  717.13   31.00
   0   5   1  696.33   26.00
   0   5   1  705.23   26.30
   0   5   1  588.24   30.90
   0   5   1  650.33   28.30
   0   5   1  689.13   28.20
   0   5  -1  658.43   27.30
   0   5   1  662.83   27.80
   1  -5   1  292.37   20.00
  -1  -5  -1  314.47   18.30
   1  -5   1  315.67   17.00
  -1  -5  -1  298.27   21.80
   1  -5   1  294.87   20.30
   1  -5   1  312.87   20.10
   1  -5   1  293.17   18.90
   1  -5   1  337.77   18.20
   1  -5   1  328.97   14.90
  -1  -5  -1  312.17   18.50
  -1  -5  -1  306.47   18.70
  -1  -5  -1  300.77   16.10
   1  -5   1  332.57   18.70
  -1  -5  -1  322.57   19.10
   1  -5   1  337.57   20.60
   1  -5   1  297.77   17.60
   1   5   1  304.87   21.50
  -1   5  -1  339.77   19.80
   1   5   1  287.17   24.70
   1   5   1  290.67   13.20
  -1   5  -1  275.67   21.60
   1   5   1  317.17   18.70
  -1   5  -1  304.47   16.90
  -1   5  -1  285.17   21.30
   1   5   1  293.37   19.10
   1   5   1  320.87   16.80
   1   5   1  277.57   20.50
   1   5   1  318.67   16.40
  -1   5  -1  286.47   18.10
   1   5   1  315.17   19.70
  -2  -5  -1 2070.19   53.09
   2  -5   1 2061.99   61.59
  -2  -5  -1 2021.80   62.29
  -2  -5  -1 2036.80   60.29
  -2  -5  -1 2089.09   61.99
  -2  -5  -1 2091.59   60.19
   2  -5   1 2072.89   55.29
   2  -5   1 2068.69   62.19
   2  -5   1 2047.40   62.39
  -2  -5  -1 2080.79   58.49
  -2  -5  -1 2104.19   60.39
   2  -5   1 2095.09   53.99
   2  -5   1 2020.70   57.39
   2  -5   1 2055.89   59.09
  -2   5  -1 2047.20   63.89
  -2   5  -1 1990.10   63.39
  -2   5  -1 2073.59   56.69
  -2   5  -1 2171.18   58.69
  -2   5  -1 1977.40   62.59
   2   5   1 1996.70   51.69
   2   5   1 2039.70   60.29
   2   5   1 1911.51   61.59
  -2   5  -1 2014.20   62.89
   2   5   1 1958.50   59.09
   2   5   1 2048.10   63.39
   2   5   1 2109.39   53.89
  -2   5  -1 2029.30   59.89
   2   5   1 2113.79   55.89
   2   5   1 2110.19   59.09
   2   5   1 2335.57   78.49
  -3  -5  -1   26.60    9.90
   3  -5   1   18.70   11.70
  -3  -5  -1   43.00   10.70
   3  -5   1   27.40    8.30
   3  -5   1   26.70    8.10
   3  -5   1   41.80   10.00
   3  -5   1   30.50    7.20
  -3  -5  -1   45.10    7.90
  -3  -5  -1   43.40   12.50
  -3  -5  -1   25.30    9.80
  -3  -5  -1   50.09   11.70
   3  -5   1   30.80    8.20
   3  -5   1   47.20   14.20
   3  -5   1   24.00   11.90
  -3  -5  -1   27.40    5.90
  -3  -5  -1   36.90   11.90
  -3   5  -1   10.80    7.80
   3   5   1   32.10    5.60
   3   5   1   55.19   14.60
  -3   5  -1   33.70   12.80
   3   5   1   27.40    9.30
   3   5   1   20.60   11.40
  -3   5  -1   34.60   12.40
  -3   5  -1   29.80   14.30
   3   5   1   29.90    8.70
  -3   5  -1   27.80    9.40
   3   5   1   20.40    8.80
  -3   5  -1   36.40   10.10
  -3   5  -1   45.40   11.00
  -3   5  -1   39.10    9.20
   3   5   1   31.50    6.10
   3   5   1   25.30    9.30
  -3   5  -1   23.30    8.90
   4  -5   1 2041.50   65.89
  -4  -5  -1 1933.71   62.09
   4  -5   1 1991.90   59.89
   4  -5   1 2045.10   58.29
  -4  -5  -1 1966.50   65.59
  -4  -5  -1 1957.70   60.19
  -4  -5  -1 1946.51   58.69
   4  -5   1 2039.20   58.19
   4  -5   1 2064.99   69.09
  -4  -5  -1 1944.51   48.90
  -4  -5  -1 2066.29   60.39
   4  -5   1 1970.10   66.09
  -4  -5  -1 1953.20   66.19
  -4  -5  -1 1980.60   61.49
  -4  -5  -1 2054.89   62.99
   4  -5   1 2070.39   51.89
  -4   5  -1 1959.00   61.59
   4   5   1 2007.60   54.89
   4   5   1 2029.70   57.19
   4   5   1 1982.10   67.79
  -4   5  -1 1957.00   60.39
  -4   5  -1 1996.10   58.79
  -4   5  -1 1964.70   63.59
   4   5   1 2011.20   61.29
   4   5   1 1998.60   60.29
  -4   5  -1 1846.42   66.49
  -4   5  -1 2094.69   55.49
  -4   5  -1 2002.30   59.89
   4   5   1 1751.72   71.99
  -4   5  -1 2052.89   68.09
   4   5   1 2056.89   61.39
   5  -5   1   12.20    3.80
   5  -5   1   23.60   13.60
  -5  -5  -1    0.50   11.60
  -5  -5  -1   -6.30   13.90
  -5  -5  -1    9.90   11.10
  -5  -5  -1   13.40   14.10
   5  -5   1    3.20   13.10
   5  -5   1   -4.30    8.40
  -5  -5  -1  -13.30   10.80
  -5  -5  -1   31.10   10.20
   5  -5   1   -1.50   17.60
  -5   5  -1    8.20    7.20
   5   5   1  -12.10    9.90
  -5   5  -1   20.20   12.90
  -5   5  -1   14.20   12.10
  -5   5  -1   52.99   14.40
   5   5   1   31.00   14.20
  -5   5  -1    2.30   11.90
   5   5   1   -1.90    8.40
  -5   5  -1   -8.60   16.10
   5   5   1    2.00   16.20
   5   5   1   -2.30    9.10
  -5   5  -1   -3.80   15.60
   6  -5   1 1434.16   47.70
  -6  -5  -1 1467.05   49.70
   6  -5   1 1445.06   61.59
   6  -5   1 1404.96   58.39
  -6  -5  -1 1472.15   55.89
  -6  -5  -1 1484.05   59.79
  -6  -5  -1 1415.56   48.70
  -6  -5  -1 1418.56   61.69
   6   5   1 1499.85   54.19
  -6   5  -1 1473.75   56.79
  -6   5  -1 1449.06   54.69
  -6   5  -1 1461.35   53.49
  -6   5  -1 1503.95   64.89
  -6   5  -1 1380.66   58.59
  -6   5  -1 1403.76   63.89
   6   5   1 1466.75   39.50
   6   5   1 1399.36   60.29
   6   5   1 1353.66   53.49
  -7  -5  -1  100.79   20.20
   7  -5   1   80.59   25.70
  -7  -5  -1  100.59   30.00
  -7  -5  -1   99.89   23.50
   7  -5   1   89.49   22.20
   7   5   1   65.49   24.00
   7   5   1  109.49   20.40
  -7   5  -1  113.39   23.30
  -7   5  -1   94.79   21.80
  -7   5  -1   58.39   28.80
  -7   5  -1  100.99   21.70
  -7   5  -1  152.28   32.90
  -8  -5  -1  769.32   48.60
   8  -5   1  803.12   55.69
   8  -5   1  722.83   51.09
  -8  -5  -1  607.94   78.89
  -8  -5  -1  742.23   61.09
  -8   5  -1  756.22   65.89
  -8   5  -1  706.43   49.70
  -8   5  -1  925.91   65.49
  -8   5  -1  817.32   56.49
  -8   5  -1  824.12   58.29
   8   5   1  783.52   54.09
   8  -6  -1   14.00   20.50
   8  -6  -1   16.90   22.10
  -8  -6   1    2.10   23.00
  -8  -6   1    7.30   29.30
  -8  -6   1   25.60   27.60
  -8   6   1    5.30   28.90
  -8   6   1  -19.10   28.10
  -8   6   1  -31.70   24.00
   8   6  -1  -11.50   20.10
   8   6  -1   30.80   28.70
   8   6  -1   13.00   17.70
  -8   6   1  -33.60   26.40
  -8   6   1   71.39   31.90
   7  -6  -1   92.39   25.40
   7  -6  -1   61.49   23.50
  -7  -6   1   85.99   26.50
  -7  -6   1   58.49   29.20
   7  -6  -1   77.99   12.60
  -7  -6   1  112.79   22.30
   7   6  -1   61.89   24.30
   7   6  -1   65.49   17.60
   7   6  -1   75.09   23.00
  -7   6   1   48.20   20.60
  -7   6   1   99.09   24.90
  -7   6   1   47.70   22.60
  -7   6   1  106.89   30.60
  -7   6   1   69.99   32.20
   6  -6  -1  539.05   39.70
  -6  -6   1  560.84   37.60
  -6  -6   1  607.34   37.40
   6  -6  -1  523.65   37.80
  -6  -6   1  444.76   37.90
   6  -6  -1  532.75   28.10
   6  -6  -1  567.04   31.70
  -6  -6   1  481.45   52.89
  -6  -6   1  615.74   41.10
  -6  -6   1  586.24   28.50
   6   6  -1  558.54   35.60
   6   6  -1  559.84   48.50
  -6   6   1  567.74   40.90
   6   6  -1  561.64   34.30
  -6   6   1  556.84   47.80
   6   6  -1  563.14   39.40
  -6   6   1  553.24   38.70
  -6   6   1  480.55   41.00
  -6   6   1  486.95   37.60
  -6   6   1  575.44   43.30
   6   6  -1  571.04   39.40
   5  -6  -1  139.89   15.90
  -5  -6   1  167.08   23.20
   5  -6  -1  191.78   25.80
   5  -6  -1  110.49   19.90
  -5  -6   1  132.49   24.90
   5  -6  -1  166.18   18.20
  -5  -6   1  117.29   21.10
  -5  -6   1  212.48   24.70
   5  -6  -1  137.59   19.20
  -5  -6   1  170.58   16.00
  -5   6   1  145.39   21.20
   5   6  -1  168.48   19.30
  -5   6   1  158.38   15.80
   5   6  -1  122.79   16.40
  -5   6   1  174.78   23.00
   5   6  -1  169.78   23.10
   5   6  -1  173.48   23.30
  -5   6   1  204.18   27.90
   5   6  -1  180.18    9.30
  -5   6   1  189.68   22.50
   5   6  -1  160.48    9.20
  -5   6   1  134.99   22.00
   5   6  -1  125.59   18.20
  -5   6   1  165.58   24.90
   5   6  -1  110.39   18.30
  -4  -6   1 4111.19  105.49
  -4  -6   1 4138.59  111.39
  -4  -6   1 4227.78  115.39
  -4  -6   1 4249.98  114.79
  -4  -6   1 4192.68  114.59
  -4  -6   1 4347.86  103.99
   4  -6  -1 4005.60  107.59
   4  -6  -1 4141.29  112.99
   4  -6  -1 3913.01  110.39
   4  -6  -1 4211.68  108.39
  -4   6   1 4065.29  117.59
  -4   6   1 4105.99  111.89
   4   6  -1 4301.17  108.79
  -4   6   1 4230.18  112.89
   4   6  -1 4154.18  115.09
  -4   6   1 4080.39  114.79
   4   6  -1 4101.39  110.89
   4   6  -1 4179.38  107.89
  -4   6   1 4264.47  118.09
  -4   6   1 4324.77  107.49
   4   6  -1 4230.68  112.79
  -4   6   1 4394.06  115.79
   4   6  -1 3950.20  101.69
  -3  -6   1   66.09   11.10
   3  -6  -1   38.40   14.00
   3  -6  -1   36.40   11.50
  -3  -6   1   32.30   14.50
   3  -6  -1   31.30   10.90
  -3  -6   1   35.50   12.70
  -3  -6   1   40.60    9.80
  -3  -6   1   23.60   12.10
   3  -6  -1   59.19   13.80
  -3  -6   1   56.19   13.80
   3  -6  -1   63.99   12.20
   3  -6  -1   52.29   12.80
  -3  -6   1   45.20   12.70
   3  -6  -1   45.00   13.70
  -3  -6   1   71.59   15.70
  -3  -6   1   42.20   11.70
   3  -6  -1   54.79   17.30
  -3  -6   1   32.30   12.00
  -3   6   1   48.20   15.40
   3   6  -1   56.59   12.40
  -3   6   1   85.99   16.40
  -3   6   1   56.89   13.30
  -3   6   1    5.90   11.70
  -3   6   1   39.40   14.90
   3   6  -1   34.50   13.10
   3   6  -1   41.40   10.70
  -3   6   1   40.20   15.50
   3   6  -1   44.70   12.40
   3   6  -1   47.50   14.80
  -3   6   1   40.90   12.90
   3   6  -1   39.90   12.70
  -3   6   1   64.99   13.80
   3   6  -1   34.80   13.00
  -2  -6   1 7164.98  173.58
  -2  -6   1 7074.59  175.78
   2  -6  -1 6927.81  175.28
   2  -6  -1 6916.61  172.98
  -2  -6   1 7257.37  174.98
  -2  -6   1 6925.71  173.88
   2  -6  -1 7218.28  176.58
  -2  -6   1 7037.40  175.08
   2  -6  -1 7085.99  175.78
   2  -6  -1 7196.68  174.58
  -2  -6   1 7181.58  176.58
  -2  -6   1 6703.13  171.08
   2  -6  -1 7308.17  171.88
   2  -6  -1 6791.22  170.68
  -2  -6   1 7043.70  167.98
  -2  -6   1 7392.56  172.08
   2  -6  -1 7208.28  171.38
  -2   6   1 7227.98  174.58
  -2   6   1 6928.11  172.38
   2   6  -1 7132.29  169.18
  -2   6   1 7191.58  172.08
  -2   6   1 7286.17  175.38
   2   6  -1 7400.06  174.38
  -2   6   1 6737.93  174.58
  -2   6   1 7340.17  172.78
  -2   6   1 7002.50  175.18
   2   6  -1 6871.01  176.58
   2   6  -1 7198.78  170.28
   2   6  -1 7168.58  174.98
   2   6  -1 7128.19  175.38
  -2   6   1 6893.71  176.88
   2   6  -1 7003.00  172.18
   1  -6  -1  162.88   16.80
  -1  -6   1  163.88   19.90
   1  -6  -1  189.48   18.70
  -1  -6   1  169.08   18.90
  -1  -6   1  176.08   20.30
  -1  -6   1  189.28   18.60
   1  -6  -1  168.88   17.60
   1  -6  -1  178.38   18.20
  -1  -6   1  168.48   16.90
   1  -6  -1  144.09   18.00
  -1  -6   1  166.58   16.90
  -1  -6   1  159.58   18.50
   1  -6  -1  172.38   19.30
  -1  -6   1  170.98   19.10
   1  -6  -1  173.48   17.10
   1  -6  -1  162.48   19.80
   1   6  -1  179.48   19.30
  -1   6   1  178.88   18.50
   1   6  -1  164.28   19.20
  -1   6   1  163.18   18.00
  -1   6   1  171.88   18.80
  -1   6   1  159.38   17.00
   1   6  -1  196.68   18.60
  -1   6   1  177.38   18.80
   1   6  -1  185.28   18.40
  -1   6   1  150.08   18.70
  -1   6   1  151.58   18.30
  -1   6   1  182.28   19.80
   1   6  -1  170.88   18.50
   1   6  -1  184.98   16.10
   1   6  -1  224.08   17.10
   0  -6  -1 2789.32   75.39
   0  -6   1 2759.82   76.79
   0  -6   1 2855.91   78.69
   0  -6  -1 2787.92   75.59
   0  -6   1 2816.12   76.89
   0  -6   1 2733.53   77.09
   0  -6  -1 2705.73   74.89
   0  -6   1 2809.42   74.69
   0  -6  -1 2852.01   76.29
   0  -6   1 2874.21   74.89
   0  -6   1 2756.92   77.29
   0  -6  -1 2801.52   78.89
   0  -6   1 2680.93   73.79
   0  -6   1 2696.03   78.29
   0  -6  -1 2728.23   77.29
   0  -6  -1 2863.81   77.89
   0  -6  -1 2655.03   78.39
   0   6  -1 2749.52   74.29
   0   6  -1 2687.53   74.79
   0   6  -1 2930.51   77.09
   0   6   1 2774.32   76.19
   0   6  -1 2642.44   78.69
   0   6   1 2689.93   83.99
   0   6   1 2871.91   74.99
   0   6  -1 2805.52   78.09
   0   6   1 2884.51   75.19
   0   6   1 2730.73   77.39
   0   6   1 2735.93   79.89
   0   6  -1 2597.74   76.99
   0   6   1 2683.03   75.19
   0   6  -1 2688.63   77.69
   0   6   1 2649.24   75.09
  -1  -6  -1   52.89   14.20
  -1  -6  -1   32.20   10.40
  -1  -6  -1   57.89   11.30
   1  -6   1   56.49   11.10
   1  -6   1   66.29   12.90
   1  -6   1   48.70    8.40
   1  -6   1   67.29   11.30
   1  -6   1   59.79   12.90
   1  -6   1   36.30   11.50
  -1  -6  -1   43.00   10.30
   1  -6   1   35.40   11.70
  -1  -6  -1   42.20   12.50
   1  -6   1   38.90   11.60
  -1  -6  -1   63.89   12.10
  -1  -6  -1   34.70   10.70
   1  -6   1   36.10    9.90
  -1  -6  -1   48.70   11.80
  -1  -6  -1   36.40   10.50
   1  -6   1   36.00    9.50
  -1   6  -1   31.70   10.10
   1   6   1   54.49   13.40
   1   6   1   32.10   10.40
  -1   6  -1   56.69   12.10
   1   6   1   33.50    6.60
   1   6   1   32.30   11.40
   1   6   1   34.40   11.90
  -1   6  -1   60.19   14.90
   1   6   1   44.10   12.60
  -1   6  -1   42.40   10.80
   1   6   1   40.70    9.30
   1   6   1   39.30   10.40
  -1   6  -1   41.00    9.80
  -1   6  -1   18.50   10.30
  -1   6  -1   59.09   13.60
   1   6   1   56.49   10.70
  -2  -6  -1  625.44   30.30
   2  -6   1  622.14   29.90
   2  -6   1  663.13   24.20
  -2  -6  -1  631.34   33.10
   2  -6   1  596.04   30.90
   2  -6   1  637.54   27.80
   2  -6   1  631.34   26.80
  -2  -6  -1  586.84   28.20
  -2  -6  -1  637.24   30.80
   2  -6   1  606.34   26.10
  -2  -6  -1  631.84   24.40
  -2  -6  -1  574.04   27.10
  -2  -6  -1  620.34   28.70
  -2  -6  -1  579.54   30.50
  -2  -6  -1  599.34   30.10
   2  -6   1  609.34   31.30
   2   6   1  641.24   26.90
   2   6   1  652.63   29.30
  -2   6  -1  681.03   27.50
  -2   6  -1  633.74   29.70
  -2   6  -1  600.24   31.40
   2   6   1  611.94   24.60
   2   6   1  621.34   21.90
  -2   6  -1  597.14   32.90
   2   6   1  621.14   28.50
   2   6   1  632.04   37.40
  -2   6  -1  622.94   28.90
   2   6   1  604.84   32.00
   2   6   1  619.34   30.00
  -2   6  -1  589.04   28.60
  -2   6  -1  593.94   29.20
  -2   6  -1  575.84   32.00
   2   6   1  588.84   32.70
  -3  -6  -1  356.66   25.20
   3  -6   1  383.36   20.90
   3  -6   1  375.16   29.70
   3  -6   1  369.46   20.00
  -3  -6  -1  387.56   18.80
  -3  -6  -1  383.46   23.80
   3  -6   1  328.47   25.50
   3  -6   1  419.76   29.50
   3  -6   1  400.36   28.40
  -3  -6  -1  420.46   26.10
   3  -6   1  395.76   22.30
  -3  -6  -1  380.66   28.90
  -3  -6  -1  327.87   24.30
   3  -6   1  398.36   21.00
  -3  -6  -1  413.06   27.90
  -3  -6  -1  400.76   25.70
  -3   6  -1  415.56   23.80
   3   6   1  366.86   28.70
   3   6   1  410.06   22.90
  -3   6  -1  387.86   29.10
  -3   6  -1  368.16   24.10
   3   6   1  391.36   26.00
  -3   6  -1  375.26   28.60
  -3   6  -1  393.46   26.20
  -3   6  -1  312.77   28.80
  -3   6  -1  392.76   25.40
   3   6   1  376.46   23.10
   3   6   1  371.76   26.50
  -3   6  -1  335.77   23.20
   3   6   1  372.26   16.60
   3   6   1  366.26   17.30
   4  -6   1  122.39   19.70
  -4  -6  -1  136.79   18.90
   4  -6   1  115.09   20.80
  -4  -6  -1  107.09   19.70
   4  -6   1  129.09   16.20
  -4  -6  -1  115.89   16.90
   4  -6   1  148.49   18.60
   4  -6   1  110.69   11.60
  -4  -6  -1   82.89   14.80
  -4  -6  -1  130.79   18.40
   4  -6   1  110.19   11.50
   4   6   1  126.69   18.60
  -4   6  -1   89.89   14.90
  -4   6  -1  138.19   18.90
  -4   6  -1   95.89   20.30
   4   6   1  116.29   20.40
   4   6   1  125.89   14.80
   4   6   1  105.69   14.90
   4   6   1  127.29   13.60
   4   6   1  125.19    7.30
  -4   6  -1  110.09   14.50
  -4   6  -1   92.49   19.70
   4   6   1  100.79   20.00
  -4   6  -1  122.39   17.50
  -4   6  -1  124.49   16.80
   5  -6   1  327.17   14.80
  -5  -6  -1  331.77   32.90
   5  -6   1  324.17   22.80
  -5  -6  -1  301.37   27.80
   5  -6   1  276.57   30.90
  -5  -6  -1  294.87   27.80
  -5  -6  -1  331.87   27.30
  -5  -6  -1  302.57   33.60
   5  -6   1  283.47   28.00
  -5  -6  -1  340.77   21.00
   5  -6   1  311.07   30.70
  -5   6  -1  318.27   22.80
  -5   6  -1  303.47   27.00
   5   6   1  313.27   30.30
  -5   6  -1  349.47   33.60
   5   6   1  387.16   33.70
  -5   6  -1  302.17   26.80
  -5   6  -1  308.17   26.70
   5   6   1  299.97   23.10
  -5   6  -1  288.07   32.60
  -5   6  -1  316.67   33.30
   5   6   1  314.47   22.10
   5   6   1  326.47   25.80
  -6  -6  -1  595.24   33.80
  -6  -6  -1  610.44   44.30
  -6  -6  -1  594.34   45.90
   6  -6   1  530.45   39.30
  -6  -6  -1  544.35   37.50
  -6  -6  -1  569.24   30.60
   6  -6   1  580.84   42.80
   6  -6   1  489.45   29.60
  -6   6  -1  551.64   44.50
  -6   6  -1  593.44   37.40
  -6   6  -1  589.24   43.90
   6   6   1  551.84   26.20
   6   6   1  564.44   36.70
   6   6   1  575.64   41.30
  -6   6  -1  539.35   37.50
  -6   6  -1  558.64   22.50
  -6   6  -1  520.75   35.00
   6   6   1  553.24   26.70
  -6   6  -1  547.65   43.30
  -7  -6  -1  109.59   31.60
   7  -6   1  128.09   28.90
  -7  -6  -1  132.59   28.00
   7  -6   1  134.69   24.50
  -7  -6  -1  165.78   25.30
  -7   6  -1  100.59   32.10
   7   6   1   85.09   21.60
  -7   6  -1  122.89   25.60
  -7   6  -1  138.69   24.10
   7   6   1  116.09   27.60
  -7   6  -1  106.09   24.50
  -7   6  -1  130.09   35.00
  -8  -6  -1  598.64   63.29
  -8  -6  -1  630.54   53.09
   8  -6   1  711.53   56.29
  -8  -6  -1  675.03   51.99
   8  -6   1  663.33   50.99
   8   6   1  735.63   55.99
  -8   6  -1  636.34   48.50
  -8   6  -1  617.94   51.49
  -8   6  -1  722.43   60.69
  -8   6  -1  792.02   58.19
  -8   6  -1  749.92   62.79
   8  -7  -1   71.19   25.80
  -8  -7   1   62.49   27.90
  -8  -7   1   92.39   36.40
   8  -7  -1  109.29   31.10
  -8   7   1  100.99   34.70
   8   7  -1  111.99   27.90
  -8   7   1  149.29   40.40
   8   7  -1  138.19   23.00
  -8   7   1  129.59   38.80
  -8   7   1  166.18   39.30
  -8   7   1   62.39   28.10
  -7  -7   1  327.47   41.20
  -7  -7   1  356.86   42.20
  -7  -7   1  436.96   44.50
   7  -7  -1  394.86   46.20
   7  -7  -1  337.17   38.50
   7  -7  -1  338.87   41.90
   7  -7  -1  371.96   26.00
   7   7  -1  312.17   35.50
  -7   7   1  335.47   46.00
  -7   7   1  304.17   40.20
  -7   7   1  391.16   43.50
   7   7  -1  310.57   37.00
   7   7  -1  380.26   35.20
  -7   7   1  301.47   44.10
  -7   7   1  259.17   34.80
  -6  -7   1  112.09   25.40
  -6  -7   1   94.29   20.50
   6  -7  -1  135.39   24.70
   6  -7  -1   98.19   16.00
  -6  -7   1  111.29   22.60
   6  -7  -1  128.79   25.60
   6  -7  -1  104.29   23.20
  -6  -7   1  113.19   25.70
   6  -7  -1   84.99   21.00
  -6   7   1  121.69   34.90
  -6   7   1   95.89   23.10
   6   7  -1  122.39   25.80
  -6   7   1  127.89   24.30
  -6   7   1   90.09   26.40
   6   7  -1  124.69   25.30
  -6   7   1  111.49   30.20
   6   7  -1   58.49   21.20
   6   7  -1  111.99   21.00
  -6   7   1   76.59   21.40
   5  -7  -1  960.70   46.30
  -5  -7   1 1016.70   40.20
   5  -7  -1  924.21   38.80
   5  -7  -1  935.01   42.40
  -5  -7   1  982.30   36.30
   5  -7  -1  944.91   48.90
   5  -7  -1  945.01   48.80
  -5  -7   1  926.41   47.00
  -5  -7   1 1011.50   49.10
   5   7  -1  935.51   39.20
   5   7  -1  934.51   47.00
   5   7  -1  881.01   29.50
   5   7  -1  949.90   28.80
   5   7  -1  949.51   43.50
  -5   7   1  961.50   51.29
  -5   7   1  943.91   52.69
  -5   7   1  944.81   47.00
  -5   7   1  989.00   40.20
  -5   7   1  965.80   53.89
   5   7  -1  959.50   44.20
   5   7  -1  919.01   46.90
  -5   7   1  942.71   45.20
  -4  -7   1   94.39   18.70
   4  -7  -1   95.59   14.70
   4  -7  -1  103.59   16.00
   4  -7  -1   73.09   19.00
   4  -7  -1   91.79   17.90
  -4  -7   1  106.59   16.10
  -4  -7   1  117.19   20.90
   4  -7  -1   55.39   17.10
   4  -7  -1  100.69   16.70
  -4  -7   1  101.09   18.20
  -4  -7   1  101.49   15.40
  -4  -7   1  113.29   23.70
   4   7  -1  105.39   15.80
  -4   7   1   63.89   16.70
   4   7  -1   99.19   17.60
  -4   7   1   70.09   19.70
   4   7  -1  158.68   16.00
  -4   7   1  112.59   18.00
  -4   7   1   81.89   17.20
  -4   7   1  109.69   21.40
  -4   7   1   83.29   21.40
   4   7  -1  126.89   17.80
   4   7  -1   81.09   17.20
   3  -7  -1 2333.57   69.69
  -3  -7   1 2220.58   71.69
   3  -7  -1 2222.08   68.79
  -3  -7   1 2335.17   72.79
   3  -7  -1 2119.49   65.69
  -3  -7   1 2364.86   64.39
   3  -7  -1 2306.47   75.49
   3  -7  -1 2331.27   72.39
  -3  -7   1 2213.08   68.69
  -3  -7   1 2165.88   68.69
  -3  -7   1 2298.67   70.29
   3  -7  -1 2220.18   67.59
  -3  -7   1 2240.88   71.89
  -3   7   1 2157.58   71.59
   3   7  -1 2262.17   72.79
  -3   7   1 2112.79   73.59
   3   7  -1 2272.87   64.79
  -3   7   1 2149.28   72.39
   3   7  -1 2131.29   73.89
   3   7  -1 2326.47   69.79
  -3   7   1 2239.68   72.19
   3   7  -1 2150.08   66.59
  -3   7   1 2277.67   68.19
   3   7  -1 2282.87   62.69
  -3   7   1 2210.78   70.09
  -2  -7   1  211.68   23.00
  -2  -7   1  186.18   20.10
  -2  -7   1  158.98   19.50
  -2  -7   1  200.48   23.00
   2  -7  -1  207.18   23.00
   2  -7  -1  180.48   22.50
  -2  -7   1  175.88   21.30
   2  -7  -1  170.78   20.20
   2  -7  -1  188.78   21.30
  -2  -7   1  139.29   19.90
   2  -7  -1  162.78   19.10
   2  -7  -1  151.88   22.40
  -2  -7   1  174.18   17.40
  -2  -7   1  169.68   21.20
   2  -7  -1  196.28   21.30
  -2  -7   1  161.88   19.80
   2  -7  -1  134.89   18.00
  -2   7   1  201.98   21.60
   2   7  -1  185.18   20.50
   2   7  -1  147.69   19.60
   2   7  -1  183.08   17.90
  -2   7   1  186.48   24.30
  -2   7   1  168.28   21.10
   2   7  -1  124.59   17.60
  -2   7   1  206.58   22.40
  -2   7   1  184.68   21.60
  -2   7   1  142.59   20.50
   2   7  -1  146.79   19.40
  -2   7   1  178.68   21.90
   2   7  -1  183.18   20.80
   2   7  -1  181.58   22.20
  -2   7   1  163.58   19.20
   1  -7  -1 2464.45   70.49
   1  -7  -1 2484.45   72.19
   1  -7  -1 2362.86   73.39
   1  -7  -1 2378.56   70.89
  -1  -7   1 2334.17   66.99
   1  -7  -1 2308.57   68.29
  -1  -7   1 2331.17   68.69
  -1  -7   1 2436.76   71.29
   1  -7  -1 2289.07   73.39
  -1  -7   1 2288.57   68.09
   1  -7  -1 2319.57   68.69
  -1  -7   1 2301.47   72.09
   1  -7  -1 2329.77   68.09
  -1  -7   1 2319.87   71.39
  -1  -7   1 2328.47   71.69
   1  -7  -1 2347.17   71.59
  -1  -7   1 2407.26   71.59
  -1  -7   1 2369.26   73.69
   1   7  -1 2258.87   72.89
  -1   7   1 2270.17   71.59
   1   7  -1 2361.96   71.49
  -1   7   1 2415.56   71.39
   1   7  -1 2273.77   68.99
   1   7  -1 2418.16   71.29
  -1   7   1 2205.68   72.69
   1   7  -1 2293.67   65.79
  -1   7   1 2402.76   71.89
   1   7  -1 2381.36   72.29
  -1   7   1 2329.67   68.69
  -1   7   1 2343.97   70.49
  -1   7   1 2320.97   69.49
  -1   7   1 2287.97   71.49
   1   7  -1 2311.87   67.79
   0  -7  -1   42.10   15.60
   0  -7   1   36.10   14.90
   0  -7   1   35.10   13.20
   0  -7   1   36.00   13.40
   0  -7   1   38.10   13.20
   0  -7   1   21.70   11.50
   0  -7  -1    7.20   11.40
   0  -7   1   36.30   11.80
   0  -7  -1   46.30   13.60
   0  -7  -1   20.30   12.00
   0  -7  -1   25.60   13.10
   0  -7  -1   38.60   13.50
   0  -7   1   14.30    9.90
   0  -7  -1   32.10   12.20
   0  -7   1    4.70   13.30
   0  -7  -1   12.60   10.40
   0  -7   1   20.30   12.10
   0   7   1   41.30   12.90
   0   7   1   14.60   12.80
   0   7   1   31.40   12.10
   0   7  -1   10.30   13.10
   0   7   1   26.80   12.50
   0   7   1   33.40   11.00
   0   7   1   24.20   12.50
   0   7  -1   37.60   12.90
   0   7  -1    6.90   12.10
   0   7  -1   38.40   12.80
   0   7  -1   32.40   10.80
   0   7   1   24.40   12.00
   0   7  -1   34.20   11.50
   0   7  -1   42.80   13.10
   0   7  -1   29.80   12.00
   0   7   1   14.90   13.00
   1  -7   1 1540.95   54.99
  -1  -7  -1 1671.63   55.39
   1  -7   1 1612.54   50.49
   1  -7   1 1656.33   56.09
  -1  -7  -1 1787.32   56.59
  -1  -7  -1 1579.04   52.79
   1  -7   1 1717.63   53.79
   1  -7   1 1620.14   60.39
   1  -7   1 1548.15   54.09
  -1  -7  -1 1669.73   52.89
   1  -7   1 1620.84   56.69
   1  -7   1 1680.03   48.00
  -1  -7  -1 1607.74   57.39
  -1  -7  -1 1610.64   58.29
   1  -7   1 1693.53   51.29
  -1  -7  -1 1578.24   55.49
   1  -7   1 1580.14   56.29
  -1  -7  -1 1574.44   52.09
  -1   7  -1 1637.64   54.59
   1   7   1 1652.93   46.40
  -1   7  -1 1718.53   58.79
   1   7   1 1726.43   51.99
   1   7   1 1600.94   54.99
   1   7   1 1680.33   51.29
   1   7   1 1640.34   55.69
  -1   7  -1 1656.33   54.09
  -1   7  -1 1573.34   52.39
   1   7   1 1646.44   56.29
  -1   7  -1 1540.35   53.99
   1   7   1 1602.34   52.69
  -1   7  -1 1503.15   50.69
   1   7   1 1566.04   55.29
  -1   7  -1 1598.34   56.09
  -1   7  -1 1622.84   53.99
   1   7   1 1566.34   54.19
   2  -7   1   16.10   11.40
  -2  -7  -1   54.39   13.90
  -2  -7  -1   32.80   14.10
   2  -7   1   41.40   10.50
  -2  -7  -1   51.79   15.20
  -2  -7  -1   36.30   13.60
   2  -7   1   56.69   14.50
   2  -7   1   54.89   15.60
  -2  -7  -1   40.60   11.00
   2  -7   1   44.90   15.60
  -2  -7  -1   35.40   11.50
  -2  -7  -1   44.50   12.80
   2  -7   1   53.89   10.90
   2  -7   1   68.59   12.80
  -2   7  -1   58.89   13.80
   2   7   1   42.50   12.10
  -2   7  -1   72.19   17.70
   2   7   1   30.00   12.20
  -2   7  -1   36.60   13.10
   2   7   1   39.90    7.90
   2   7   1   28.80   15.60
   2   7   1   10.80   12.10
  -2   7  -1   60.59   14.60
  -2   7  -1   59.89   14.70
   2   7   1   31.00   14.60
  -2   7  -1   41.80   12.90
   2   7   1   63.49   15.90
  -2   7  -1   58.19   16.20
   2   7   1   60.99   11.30
  -3  -7  -1  354.16   45.70
  -3  -7  -1  322.77   25.80
   3  -7   1  322.87   22.40
   3  -7   1  316.97   21.40
   3  -7   1  361.26   28.20
  -3  -7  -1  263.27   26.00
  -3  -7  -1  389.16   30.40
  -3  -7  -1  352.16   27.60
   3  -7   1  349.17   23.00
  -3  -7  -1  320.47   28.20
   3  -7   1  329.27   20.50
   3   7   1  295.57   23.50
  -3   7  -1  325.77   26.00
   3   7   1  338.47   16.80
   3   7   1  306.37   19.30
  -3   7  -1  333.97   30.50
   3   7   1  319.67   27.40
   3   7   1  305.87   26.00
  -3   7  -1  293.67   24.90
   3   7   1  337.77   24.70
  -3   7  -1  317.27   26.20
  -3   7  -1  298.87   29.40
  -3   7  -1  323.47   28.40
   4  -7   1  716.13   29.50
  -4  -7  -1  648.84   35.00
   4  -7   1  659.43   40.30
  -4  -7  -1  787.52   42.20
  -4  -7  -1  652.03   36.10
   4  -7   1  737.53   32.00
   4  -7   1  704.93   33.10
  -4  -7  -1  621.74   36.60
   4  -7   1  635.94   27.00
   4  -7   1  719.63   41.30
  -4   7  -1  645.24   35.40
  -4   7  -1  680.73   34.30
   4   7   1  666.13   24.60
   4   7   1  690.53   32.60
  -4   7  -1  634.94   39.20
   4   7   1  669.63   33.30
  -4   7  -1  619.64   34.80
  -4   7  -1  635.94   43.10
  -4   7  -1  712.23   42.70
   4   7   1  678.93   22.80
  -5  -7  -1    6.50   13.80
  -5  -7  -1    6.50   23.30
   5  -7   1    7.10   17.00
   5  -7   1   29.40   19.50
   5  -7   1   13.70    9.10
   5  -7   1   15.00    9.30
  -5  -7  -1    0.50   14.50
   5  -7   1   35.70   13.20
  -5  -7  -1   17.70   15.40
  -5  -7  -1   19.40   18.40
   5  -7   1   25.90   15.10
   5   7   1   30.90   17.60
  -5   7  -1   44.30   22.70
  -5   7  -1   39.90   15.90
   5   7   1   20.30   15.40
   5   7   1   14.10   12.70
  -5   7  -1   27.20   15.40
  -5   7  -1   46.90   20.70
  -5   7  -1   28.00   15.30
   5   7   1  -22.50   15.50
  -5   7  -1   34.60   21.40
   6  -7   1  567.44   42.30
  -6  -7  -1  465.95   47.50
   6  -7   1  505.75   43.30
  -6  -7  -1  521.05   41.10
  -6  -7  -1  558.64   40.60
  -6  -7  -1  511.25   36.40
   6  -7   1  483.85   33.30
  -6   7  -1  505.65   49.50
   6   7   1  449.16   28.60
   6   7   1  447.26   41.60
  -6   7  -1  491.35   38.10
  -6   7  -1  475.95   38.30
  -6   7  -1  538.45   36.70
  -6   7  -1  536.55   51.89
   6   7   1  499.25   42.40
   7  -7   1  248.58   33.10
   7  -7   1  299.67   39.50
  -7  -7  -1  369.46   39.80
  -7  -7  -1  325.77   69.79
  -7   7  -1  294.37   50.09
  -7   7  -1  307.97   32.00
  -7   7  -1  292.07   33.90
  -7   7  -1  233.18   45.90
  -7   7  -1  228.88   29.20
   7   7   1  276.87   38.40
  -7  -8   1 1243.28   66.89
   7  -8  -1 1217.08   64.09
   7  -8  -1 1297.27   46.30
  -7  -8   1 1288.17   65.99
   7  -8  -1 1157.28   65.29
   7  -8  -1 1198.88   65.89
  -7  -8   1 1275.17   81.49
  -7   8   1 1179.88   64.69
  -7   8   1 1152.98   73.69
  -7   8   1 1162.68   72.39
   7   8  -1 1260.07   56.79
  -7   8   1 1235.38   69.79
   7   8  -1 1311.07   70.59
   7   8  -1 1227.68   63.79
  -6  -8   1  150.28   30.80
  -6  -8   1  122.79   29.80
   6  -8  -1  110.39   18.00
   6  -8  -1  126.59   25.90
  -6  -8   1  159.88   19.80
   6  -8  -1  130.99   25.40
  -6  -8   1  106.29   24.60
   6  -8  -1   99.29   24.50
   6   8  -1   92.79   27.30
  -6   8   1  115.09   34.20
  -6   8   1   73.19   32.20
   6   8  -1  124.79   19.30
  -6   8   1  112.29   30.40
  -6   8   1  101.89   25.70
   6   8  -1  112.79   25.70
   6   8  -1  103.89   22.40
  -5  -8   1  811.72   47.10
   5  -8  -1  800.32   48.80
   5  -8  -1  775.32   44.60
  -5  -8   1  803.22   44.60
  -5  -8   1  812.12   47.40
  -5  -8   1  835.72   36.60
   5  -8  -1  868.01   39.40
   5  -8  -1  841.42   45.30
   5   8  -1  752.32   37.50
  -5   8   1  743.93   50.09
  -5   8   1  860.81   48.20
   5   8  -1  839.92   43.50
  -5   8   1  816.82   45.40
  -5   8   1  827.92   52.09
   5   8  -1  807.02   46.50
   5   8  -1  792.72   44.80
  -5   8   1  887.81   44.10
   5   8  -1  824.92   28.10
  -4  -8   1  295.17   30.10
  -4  -8   1  353.06   25.70
   4  -8  -1  401.66   35.00
   4  -8  -1  300.47   30.30
   4  -8  -1  254.27   33.80
   4  -8  -1  347.47   29.10
  -4  -8   1  325.97   30.80
   4  -8  -1  272.07   32.90
   4  -8  -1  311.07   27.60
  -4  -8   1  388.16   31.80
  -4  -8   1  352.26   33.20
  -4   8   1  260.07   32.80
   4   8  -1  295.07   30.00
   4   8  -1  379.56   24.50
  -4   8   1  357.46   40.00
   4   8  -1  347.47   25.70
  -4   8   1  354.26   32.90
  -4   8   1  364.26   37.60
  -4   8   1  280.17   35.70
  -4   8   1  407.46   33.50
   4   8  -1  329.37   31.80
  -3  -8   1  132.19   20.60
   3  -8  -1  126.69   19.20
   3  -8  -1  161.28   21.40
   3  -8  -1  165.18   20.20
  -3  -8   1  164.48   18.70
  -3  -8   1  130.69   19.60
  -3  -8   1  126.19   20.80
   3  -8  -1  133.29   23.50
  -3  -8   1  156.28   20.20
   3  -8  -1  142.29   20.70
  -3  -8   1  136.89   18.10
   3  -8  -1  119.99   19.00
  -3   8   1  111.49   23.20
  -3   8   1  187.08   27.70
   3   8  -1  149.79   19.30
   3   8  -1  181.38   18.40
   3   8  -1  146.29   17.00
  -3   8   1  133.39   20.50
  -3   8   1  159.08   24.60
   3   8  -1  171.58   22.90
  -3   8   1  126.29   25.70
   3   8  -1   97.19   20.90
  -3   8   1  112.29   20.00
   2  -8  -1  695.43   36.40
  -2  -8   1  723.43   35.40
  -2  -8   1  670.13   37.30
   2  -8  -1  658.83   36.80
   2  -8  -1  680.83   36.70
   2  -8  -1  678.43   34.60
  -2  -8   1  721.63   35.30
   2  -8  -1  717.13   36.20
  -2  -8   1  650.23   37.90
  -2  -8   1  674.53   31.90
   2  -8  -1  676.93   36.20
  -2   8   1  715.33   41.80
   2   8  -1  661.93   31.10
   2   8  -1  652.33   34.90
   2   8  -1  643.44   36.60
   2   8  -1  705.73   33.20
  -2   8   1  631.04   34.90
  -2   8   1  707.93   38.20
  -2   8   1  723.73   39.10
  -2   8   1  617.34   37.70
   2   8  -1  628.84   38.10
   1  -8  -1  380.66   35.30
   1  -8  -1  286.67   25.00
   1  -8  -1  266.97   27.00
   1  -8  -1  251.17   27.90
  -1  -8   1  261.77   27.40
  -1  -8   1  278.77   25.80
   1  -8  -1  296.27   26.30
  -1  -8   1  246.78   24.10
  -1  -8   1  331.67   39.00
   1  -8  -1  309.27   26.50
   1  -8  -1  288.77   28.10
  -1  -8   1  317.07   23.30
  -1  -8   1  266.57   26.30
   1   8  -1  267.17   25.30
   1   8  -1  323.27   31.70
  -1   8   1  246.98   28.10
  -1   8   1  297.67   26.20
   1   8  -1  310.97   29.90
   1   8  -1  237.78   25.20
  -1   8   1  322.87   27.70
   1   8  -1  292.37   22.20
  -1   8   1  279.67   30.30
   1   8  -1  308.37   27.90
  -1   8   1  302.37   27.70
   0  -8  -1  790.42   40.90
   0  -8   1  786.12   35.60
   0  -8   1  722.83   33.80
   0  -8   1  662.33   39.80
   0  -8  -1  716.23   38.60
   0  -8   1  712.23   37.60
   0  -8   1  736.93   33.90
   0  -8  -1  760.82   36.40
   0  -8   1  723.23   36.30
   0  -8  -1  752.22   36.80
   0  -8  -1  753.52   35.20
   0  -8   1  742.13   37.40
   0  -8  -1  730.43   37.10
   0   8   1  780.72   38.70
   0   8   1  751.82   35.60
   0   8   1  741.83   37.80
   0   8  -1  742.83   39.30
   0   8  -1  741.13   37.90
   0   8   1  783.72   37.30
   0   8  -1  796.62   36.30
   0   8  -1  797.32   34.10
   0   8  -1  804.72   42.00
   0   8   1  769.62   30.00
   0   8  -1  695.53   38.60
   1  -8   1 2197.08   70.39
   1  -8   1 2316.57   68.69
  -1  -8  -1 2199.28   71.99
   1  -8   1 2254.67   66.09
  -1  -8  -1 2189.38   70.89
  -1  -8  -1 2289.47   74.79
  -1  -8  -1 2094.89   66.99
  -1  -8  -1 2296.67   68.69
   1  -8   1 2152.88   67.69
  -1  -8  -1 2167.88   71.69
   1  -8   1 2139.29   71.69
   1  -8   1 2186.68   74.19
   1  -8   1 2307.17   63.19
   1   8   1 2275.17   67.79
  -1   8  -1 2254.87   71.09
   1   8   1 2199.08   72.19
   1   8   1 2227.88   61.49
   1   8   1 2160.18   71.39
  -1   8  -1 2194.08   72.69
  -1   8  -1 2235.18   68.59
  -1   8  -1 2077.59   72.79
  -1   8  -1 2253.77   72.39
   1   8   1 2137.89   67.79
   1   8   1 2204.18   68.19
   2  -8   1   -9.10   10.50
  -2  -8  -1   17.70   12.70
   2  -8   1  -15.70   11.90
   2  -8   1   -0.10   10.70
  -2  -8  -1   14.70   13.20
   2  -8   1    2.90   13.20
  -2  -8  -1    1.40   17.20
  -2  -8  -1    0.50   13.50
   2  -8   1  -24.50   13.40
  -2  -8  -1    6.50   11.60
   2   8   1    1.50   11.30
   2   8   1    3.10    7.70
  -2   8  -1   -2.90   15.70
   2   8   1   -2.50   13.90
  -2   8  -1    7.40   12.70
  -2   8  -1   -1.30   14.00
  -2   8  -1   23.10   16.00
   2   8   1    2.20   12.80
   2   8   1  -19.30   12.00
  -2   8  -1   -4.90   12.00
   2   8   1  -12.30   14.10
  -3  -8  -1 3035.70   94.09
  -3  -8  -1 3093.89   91.49
  -3  -8  -1 3286.47   98.19
   3  -8   1 3187.38   83.89
   3  -8   1 3127.39   98.49
   3  -8   1 3131.69   85.49
  -3  -8  -1 3164.78   96.99
   3  -8   1 3193.28   87.19
  -3  -8  -1 3212.18   88.19
   3   8   1 3166.68   90.19
  -3   8  -1 3262.27   95.89
  -3   8  -1 3116.79   99.59
  -3   8  -1 3170.78   93.29
   3   8   1 3140.09   88.69
   3   8   1 3237.78   84.49
  -3   8  -1 3024.20   93.09
  -3   8  -1 3045.10   91.19
   3   8   1 3163.48   94.29
  -3   8  -1 3149.68   98.49
   3   8   1 3190.68   80.09
  -4  -8  -1   -6.40   14.10
  -4  -8  -1   -8.50   14.00
  -4  -8  -1    4.50   14.90
   4  -8   1  -23.80   13.70
   4  -8   1  -20.20   13.00
   4  -8   1   -3.50   13.50
   4  -8   1    7.20   16.50
   4  -8   1   -6.50    9.90
  -4  -8  -1    2.90   24.10
  -4   8  -1    4.60   22.30
  -4   8  -1  -15.20   19.50
   4   8   1    2.30   12.50
  -4   8  -1  -11.10   13.20
   4   8   1   71.79   18.70
  -4   8  -1   15.70   19.80
   4   8   1   10.70   15.40
   4   8   1    0.10    7.90
  -4   8  -1  -13.70   14.60
  -4   8  -1  -22.00   18.80
   4   8   1   29.80   15.40
   5  -8   1 1446.16   45.40
   5  -8   1 1362.16   58.19
  -5  -8  -1 1353.66   60.59
   5  -8   1 1396.66   43.00
   5  -8   1 1426.46   54.19
  -5  -8  -1 1474.85   60.19
   5  -8   1 1343.67   62.49
  -5  -8  -1 1339.27   57.79
  -5  -8  -1 1333.47   63.79
   5  -8   1 1347.87   62.69
  -5   8  -1 1346.07   65.89
  -5   8  -1 1435.76   57.79
   5   8   1 1373.26   51.29
  -5   8  -1 1361.16   64.29
   5   8   1 1406.16   59.69
  -5   8  -1 1342.17   65.69
  -5   8  -1 1362.96   58.99
   5   8   1 1388.06   59.29
   5   8   1 1199.18   59.39
  -5   8  -1 1462.75   54.59
  -6  -8  -1   21.80   19.60
   6  -8   1   41.60   18.60
  -6  -8  -1   21.90   23.30
   6  -8   1   47.00   19.90
  -6  -8  -1   40.80   23.00
  -6  -8  -1   45.40   25.20
   6  -8   1   39.70   21.20
  -6   8  -1   51.09   20.70
   6   8   1   32.90   21.70
   6   8   1   22.80   16.80
  -6   8  -1   66.69   33.90
  -6   8  -1   31.70   21.10
   6   8   1    3.50   24.70
  -6   8  -1   -7.70   34.60
  -7  -8  -1  515.75   48.70
   7  -8   1  462.05   45.10
   7  -8   1  555.34   53.19
  -7  -8  -1  588.74   57.89
  -7  -8  -1  511.35   50.59
  -7   8  -1  471.35   56.49
  -7   8  -1  433.36   51.49
  -7   8  -1  463.95   45.00
   7   8   1  437.16   45.60
  -7   8  -1  519.45   58.59
  -7  -9   1  107.39   32.60
   7   9  -1  155.78   31.40
  -7   9   1  104.29   42.10
   6  -9  -1  603.24   49.40
  -6  -9   1  613.04   50.59
   6  -9  -1  607.34   49.20
  -6  -9   1  695.83   39.70
  -6  -9   1  605.04   52.79
   6  -9  -1  646.34   38.40
   6   9  -1  699.53   39.90
   6   9  -1  629.54   48.90
  -6   9   1  667.53   60.89
   6   9  -1  751.82   55.19
  -6   9   1  705.13   91.79
   6   9  -1  660.73   49.70
  -6   9   1  647.24   53.89
   5  -9  -1   76.19   23.30
   5  -9  -1   60.39   23.20
  -5  -9   1   69.89   22.80
  -5  -9   1   94.19   16.70
  -5  -9   1   60.99   24.10
  -5  -9   1   69.59   25.70
   5  -9  -1   90.69   18.40
  -5   9   1   53.09   26.90
   5   9  -1   64.09   21.60
   5   9  -1   46.50   25.10
   5   9  -1   60.99   16.90
  -5   9   1   71.49   23.10
  -5   9   1   96.09   30.70
   5   9  -1   87.29   24.80
  -5   9   1   81.09   24.90
   4  -9  -1  220.18   27.30
  -4  -9   1  175.68   24.70
  -4  -9   1  197.48   26.10
   4  -9  -1  174.48   26.20
   4  -9  -1  153.88   22.30
  -4  -9   1  190.78   22.20
  -4  -9   1  148.49   23.00
   4  -9  -1  190.38   22.50
  -4  -9   1  182.18   25.10
  -4   9   1  258.37   33.20
  -4   9   1  134.99   23.30
  -4   9   1  139.59   30.90
   4   9  -1  207.28   22.40
  -4   9   1  153.38   26.50
   4   9  -1  158.48   19.30
   4   9  -1  173.88   23.30
   4   9  -1  174.98   26.30
  -3  -9   1   56.39   16.40
  -3  -9   1   46.00   17.10
   3  -9  -1   43.70   18.60
   3  -9  -1   47.50   20.10
  -3  -9   1   54.59   17.40
  -3  -9   1   56.59   14.70
   3  -9  -1   63.19   17.00
   3  -9  -1   61.79   21.90
   3  -9  -1   44.60   18.50
  -3  -9   1   69.49   20.10
  -3  -9   1   60.59   18.40
  -3   9   1   64.39   21.10
  -3   9   1   52.19   19.40
   3   9  -1   55.69   18.30
   3   9  -1   60.39   15.40
   3   9  -1   26.30   16.60
  -3   9   1   56.79   21.60
   3   9  -1   46.90   21.90
   3   9  -1   70.19   19.10
  -3   9   1   66.59   20.10
  -2  -9   1    1.20   14.20
   2  -9  -1   31.10   16.80
   2  -9  -1   -2.30   17.80
   2  -9  -1   13.10   14.40
  -2  -9   1   33.70   14.10
  -2  -9   1    6.60   15.10
   2  -9  -1   17.70   14.60
  -2  -9   1   30.20   16.60
  -2  -9   1   29.60   15.50
   2  -9  -1   16.10   15.40
   2   9  -1   37.40   12.60
   2   9  -1   -2.80   21.50
  -2   9   1   -4.30   14.60
  -2   9   1   11.40   16.70
   2   9  -1   38.50   15.90
   2   9  -1   25.40   16.60
  -2   9   1   21.50   15.70
   2   9  -1   29.30   18.80
  -2   9   1   11.10   16.10
  -1  -9   1  108.79   20.30
   1  -9  -1   89.39   17.80
  -1  -9   1  122.89   18.70
   1  -9  -1  109.39   17.30
  -1  -9   1   79.69   15.60
   1  -9  -1   92.79   20.20
  -1  -9   1   91.59   20.60
   1  -9  -1  104.69   19.60
   1  -9  -1  116.39   21.10
  -1  -9   1   88.49   16.70
  -1   9   1  112.19   21.80
  -1   9   1   76.09   21.00
   1   9  -1   88.89   15.40
   1   9  -1   98.59   22.30
   1   9  -1   94.19   17.60
  -1   9   1  101.29   19.00
   1   9  -1  105.99   20.40
  -1   9   1  129.59   22.20
   0  -9   1  847.92   41.60
   0  -9   1  798.22   38.80
   0  -9   1  797.12   41.50
   0  -9   1  880.21   39.30
   0  -9  -1  790.92   44.60
   0  -9   1  826.92   44.80
   0  -9  -1  805.92   42.10
   0  -9  -1  789.92   37.70
   0   9  -1  827.12   39.80
   0   9   1  789.82   43.20
   0   9  -1  796.22   46.00
   0   9   1  831.12   41.00
   0   9   1  819.62   43.10
   0   9   1  809.12   33.90
   0   9  -1  819.52   43.00
   0   9  -1  748.13   35.70
   1  -9   1  178.48   22.00
  -1  -9  -1  235.08   27.90
  -1  -9  -1  198.18   22.60
   1  -9   1  190.78   23.80
   1  -9   1  204.48   26.70
  -1  -9  -1  206.28   25.70
   1  -9   1  199.98   21.60
   1  -9   1  234.68   28.70
  -1  -9  -1  214.28   25.10
   1  -9   1  196.08   25.20
  -1   9  -1  173.58   21.40
   1   9   1  219.18   27.50
   1   9   1  229.58   20.10
   1   9   1  149.49   22.90
  -1   9  -1  182.98   26.80
  -1   9  -1  214.28   25.30
  -1   9  -1  194.48   26.30
   1   9   1  183.78   23.40
   2  -9   1 1151.38   48.60
  -2  -9  -1 1029.10   49.10
   2  -9   1 1019.50   46.90
   2  -9   1 1039.80   43.10
   2  -9   1 1115.99   50.69
  -2  -9  -1 1064.79   45.00
  -2  -9  -1 1080.69   52.89
   2  -9   1 1101.09   40.60
  -2  -9  -1 1100.69   47.20
  -2   9  -1 1043.90   47.70
   2   9   1 1050.79   50.39
   2   9   1  989.30   44.90
   2   9   1 1054.89   48.90
   2   9   1 1097.99   38.20
   2   9   1 1117.79   45.60
  -2   9  -1 1015.80   51.79
  -2   9  -1  991.60   51.69
  -2   9  -1 1017.80   53.39
  -2   9  -1 1094.19   49.50
   3  -9   1  114.89   20.30
  -3  -9  -1  159.38   24.80
   3  -9   1  111.59   21.80
  -3  -9  -1  120.49   19.40
  -3  -9  -1  173.08   24.20
   3  -9   1  136.29   16.90
  -3  -9  -1  146.09   23.90
   3  -9   1  143.19   21.30
   3  -9   1  153.98   18.70
   3   9   1  157.58   20.00
  -3   9  -1  131.59   22.40
  -3   9  -1  159.08   22.60
   3   9   1  151.88   21.40
  -3   9  -1  215.98   31.00
  -3   9  -1  162.68   27.60
   3   9   1  131.49   21.30
   3   9   1  134.59   24.10
  -3   9  -1  141.49   26.50
   4  -9   1 1349.77   57.59
   4  -9   1 1410.26   51.09
  -4  -9  -1 1460.65   59.09
   4  -9   1 1422.66   52.39
   4  -9   1 1352.86   64.59
  -4  -9  -1 1472.35   61.79
  -4  -9  -1 1427.56   62.89
  -4  -9  -1 1382.26   61.19
   4  -9   1 1420.36   49.60
  -4   9  -1 1416.46   59.49
  -4   9  -1 1422.36   64.19
  -4   9  -1 1431.26   70.09
   4   9   1 1391.36   47.60
  -4   9  -1 1430.36   61.89
   4   9   1 1446.16   42.90
  -4   9  -1 1637.94   81.39
   4   9   1 1401.66   59.29
   4   9   1 1418.76   55.09
  -5  -9  -1   19.00   23.70
  -5  -9  -1   -1.70   21.10
  -5  -9  -1    0.40   20.60
   5  -9   1   12.70   18.70
   5  -9   1   20.00   12.90
  -5  -9  -1   10.90   25.30
   5  -9   1    7.60   34.30
  -5   9  -1  -21.20   27.20
  -5   9  -1   23.40   22.40
  -5   9  -1   -6.50   27.10
   5   9   1    3.30   18.40
  -5   9  -1    7.40   20.50
   5   9   1   27.20   20.80
   5   9   1   20.90   22.30
   6  -9   1 1516.25   73.59
  -6  -9  -1 1500.15   71.39
  -6  -9  -1 1531.65   70.49
  -6  -9  -1 1438.76   85.39
  -6   9  -1 1593.04   82.79
   6   9   1 1465.25   57.09
   6   9   1 1533.05   72.49
  -6   9  -1 1366.76   71.09
   6   9   1 1536.15   72.69
  -6   9  -1 1507.85   69.59
   6 -10  -1  471.05   41.50
   6 -10  -1  378.76   44.70
  -6 -10   1  555.54   51.99
  -6 -10   1  487.25   62.29
   6 -10  -1  470.25   55.29
  -6 -10   1  443.46   48.40
   6  10  -1  462.35   56.09
  -6  10   1  509.75   69.99
  -6  10   1  488.35   57.39
   6  10  -1  416.36   40.30
   6  10  -1  449.66   43.20
  -6  10   1  412.66   50.49
   6  10  -1  396.56   44.60
  -6  10   1  529.15   61.09
  -5 -10   1  158.78   21.20
  -5 -10   1  202.28   35.00
   5 -10  -1  174.58   25.90
   5 -10  -1  161.78   29.60
   5 -10  -1  129.79   29.90
  -5 -10   1  131.79   30.70
  -5 -10   1  158.68   32.00
  -5  10   1  135.59   36.80
   5  10  -1  178.58   31.90
  -5  10   1  149.99   34.30
  -5  10   1  115.39   34.90
   5  10  -1  218.28   36.10
   5  10  -1  111.39   29.00
  -5  10   1  150.58   48.00
   5  10  -1  193.88   24.20
  -4 -10   1 2093.39   74.39
  -4 -10   1 2117.19   77.29
   4 -10  -1 1989.10   81.69
  -4 -10   1 2207.38   67.69
   4 -10  -1 2088.79   72.29
  -4 -10   1 2162.78   82.99
  -4 -10   1 2095.69   79.09
   4 -10  -1 2066.79   79.89
   4 -10  -1 2042.90   76.09
  -4  10   1 2165.68   80.89
   4  10  -1 2158.88   78.39
   4  10  -1 2023.30   68.19
   4  10  -1 2150.98   82.49
  -4  10   1 2073.79   88.69
  -4  10   1 2047.00   84.39
  -4  10   1 2083.59   86.09
   3 -10  -1   26.70   21.90
  -3 -10   1   23.00   18.20
  -3 -10   1   24.90   20.10
   3 -10  -1   -1.30   15.80
  -3 -10   1   10.60   14.00
  -3 -10   1   12.30   16.40
   3 -10  -1   18.80   19.30
  -3 -10   1   -5.60   15.80
   3 -10  -1    4.00   16.90
   3  10  -1  -44.80   19.60
   3  10  -1    6.10   18.20
  -3  10   1   -0.50   17.00
   3  10  -1   33.10   20.90
  -3  10   1  -40.20   19.40
  -3  10   1   29.00   21.50
   3  10  -1   35.40   15.80
  -3  10   1   13.20   23.40
  -2 -10   1 2299.27   77.59
  -2 -10   1 2379.26   73.49
  -2 -10   1 2332.67   81.39
   2 -10  -1 2380.16   82.89
  -2 -10   1 2264.37   82.19
   2 -10  -1 2282.17   81.89
  -2 -10   1 2267.27   78.19
   2 -10  -1 2310.07   81.39
   2 -10  -1 2244.48   75.99
  -2  10   1 2356.76   84.79
  -2  10   1 2403.36   85.59
   2  10  -1 2332.37   78.69
   2  10  -1 2299.87   83.99
  -2  10   1 2277.37   82.69
   2  10  -1 2269.17   81.89
   2  10  -1 2322.37   72.09
  -2  10   1 2314.37   78.89
   1 -10  -1  101.19   19.30
  -1 -10   1  105.59   21.00
  -1 -10   1   80.59   18.20
  -1 -10   1   62.49   17.10
   1 -10  -1   87.09   21.10
  -1 -10   1   85.09   20.10
   1 -10  -1  103.79   23.80
  -1 -10   1   76.99   20.70
   1 -10  -1   93.29   19.50
   1  10  -1   81.39   24.20
  -1  10   1  104.09   20.30
   1  10  -1  111.79   21.20
  -1  10   1   90.89   22.60
  -1  10   1   76.79   22.90
  -1  10   1   97.39   25.80
   1  10  -1  100.19   17.70
   1  10  -1   69.29   20.40
   0 -10   1 1431.06   56.39
   0 -10   1 1497.55   65.39
   0 -10   1 1543.65   61.59
   0 -10   1 1468.25   56.49
   0 -10  -1 1438.26   64.59
   0 -10  -1 1439.46   61.09
   0 -10   1 1584.44   55.79
   0 -10   1 1532.95   61.89
   0 -10  -1 1499.15   58.19
   0 -10  -1 1442.76   57.79
   0  10   1 1458.65   50.89
   0  10  -1 1512.65   59.19
   0  10   1 1549.45   62.59
   0  10  -1 1457.05   63.29
   0  10   1 1485.45   62.49
   0  10  -1 1523.25   62.19
   0  10   1 1398.86   57.69
   0  10  -1 1430.56   54.69
   1 -10   1  327.37   33.30
   1 -10   1  380.66   34.40
  -1 -10  -1  326.87   31.60
  -1 -10  -1  380.36   32.00
   1 -10   1  394.56   32.10
   1 -10   1  358.26   31.60
  -1 -10  -1  350.56   38.50
  -1 -10  -1  297.37   34.10
   1  10   1  454.85   37.10
  -1  10  -1  399.56   38.10
  -1  10  -1  312.77   36.00
  -1  10  -1  404.86   33.70
  -1  10  -1  359.06   35.10
  -1  10  -1  393.56   31.50
   1  10   1  332.37   36.00
   1  10   1  413.36   26.00
   1  10   1  387.86   32.30
   2 -10   1  205.18   25.30
  -2 -10  -1  219.18   28.60
   2 -10   1  201.48   23.30
   2 -10   1  171.58   21.70
  -2 -10  -1  230.58   31.00
  -2 -10  -1  160.58   20.50
   2 -10   1  131.59   23.70
  -2 -10  -1  161.18   24.40
   2  10   1  166.58   22.40
   2  10   1  178.78   28.60
   2  10   1  158.68   26.10
  -2  10  -1  193.48   29.70
  -2  10  -1  188.98   24.70
   2  10   1  168.38   18.40
  -2  10  -1  177.38   28.30
  -2  10  -1  135.09   24.80
  -3 -10  -1  465.95   39.80
   3 -10   1  496.35   39.70
   3 -10   1  464.85   33.70
  -3 -10  -1  547.95   47.30
  -3 -10  -1  484.75   42.70
   3 -10   1  445.26   39.40
   3  10   1  447.76   35.50
  -3  10  -1  505.45   46.10
   3  10   1  429.26   40.30
  -3  10  -1  483.25   42.40
  -3  10  -1  557.94   46.30
  -3  10  -1  454.45   38.20
   3  10   1  497.85   42.70
   3  10   1  497.65   38.40
  -4 -10  -1  -12.10   21.70
   4 -10   1    8.90   18.80
  -4 -10  -1   44.60   22.90
   4 -10   1  -18.50   20.20
   4 -10   1    0.90   15.70
  -4 -10  -1   39.80   25.00
  -4 -10  -1  -13.00   23.50
  -4  10  -1   38.70   22.90
   4  10   1   25.90   20.90
   4  10   1   11.40   21.30
  -4  10  -1   -9.20   20.80
  -4  10  -1   16.00   26.50
  -4  10  -1  -45.20   29.30
  -5 -10  -1  238.08   35.70
  -5 -10  -1  218.58   36.20
  -5 -10  -1  175.48   33.90
  -5 -10  -1  219.18   36.70
   5 -10   1  236.28   32.20
   5 -10   1  181.78   30.30
   5 -10   1  180.38   20.60
   5  10   1  229.08   30.20
   5  10   1  238.18   36.80
  -5  10  -1  280.47   42.90
  -5  10  -1  206.08   40.30
  -5  10  -1  239.28   34.90
  -5  10  -1  191.58   44.30
   5  10   1  233.48   34.90
  -5 -11   1 1011.10   67.69
   5 -11  -1 1128.59   68.89
   5 -11  -1  995.20   56.39
   5 -11  -1 1121.29   67.09
  -5 -11   1 1093.89   50.69
  -5 -11   1 1041.90   65.89
   5  11  -1  952.90   60.89
   5  11  -1 1058.89   66.39
  -5  11   1 1176.88   68.89
   5  11  -1  968.90   71.09
  -5  11   1 1206.88   74.59
   5  11  -1 1076.89   52.49
  -5  11   1 1062.39   66.89
  -5  11   1 1137.49   73.59
   4 -11  -1   57.39   26.60
  -4 -11   1   53.39   18.90
  -4 -11   1   25.80   28.30
   4 -11  -1   40.80   27.10
   4 -11  -1   44.00   21.90
  -4 -11   1   35.20   24.20
  -4 -11   1   25.80   22.00
   4  11  -1   51.19   28.20
   4  11  -1   59.69   20.00
  -4  11   1   24.00   32.10
   4  11  -1   23.90   26.30
  -4  11   1    9.60   28.20
  -4  11   1   26.90   46.20
   3 -11  -1 1503.15   69.39
  -3 -11   1 1522.95   57.49
  -3 -11   1 1501.85   62.89
  -3 -11   1 1509.25   63.29
   3 -11  -1 1488.75   69.99
   3 -11  -1 1506.35   69.49
  -3 -11   1 1501.15   68.09
  -3 -11   1 1458.15   72.09
   3 -11  -1 1549.54   66.29
   3  11  -1 1605.54   79.99
  -3  11   1 1432.76   76.49
   3  11  -1 1566.24   59.69
  -3  11   1 1607.54   75.29
   3  11  -1 1447.96   67.09
   3  11  -1 1609.04   72.59
  -3  11   1 1567.64   75.49
  -3  11   1 1541.95   71.39
  -2 -11   1  -16.40   20.00
  -2 -11   1   -6.20   18.30
   2 -11  -1    1.60   24.40
   2 -11  -1   16.90   17.70
  -2 -11   1   -0.10   22.30
   2 -11  -1   -6.70   21.20
  -2 -11   1    2.10   16.30
   2 -11  -1   17.70   20.10
  -2 -11   1   13.30   17.00
   2  11  -1   37.80   17.60
  -2  11   1   12.70   23.70
   2  11  -1   -2.80   25.60
   2  11  -1   11.90   22.80
  -2  11   1   30.70   28.90
   2  11  -1   17.50   21.70
  -2  11   1    1.20   21.90
  -2  11   1   19.70   23.80
   1 -11  -1 1166.18   57.99
   1 -11  -1 1058.89   53.29
   1 -11  -1 1152.28   56.19
  -1 -11   1 1119.99   54.89
   1 -11  -1 1049.30   58.69
  -1 -11   1 1090.29   49.10
  -1 -11   1 1111.59   54.29
  -1 -11   1 1022.00   55.09
   1  11  -1 1076.79   61.09
  -1  11   1  995.20   57.99
   1  11  -1 1104.39   58.79
   1  11  -1 1094.09   48.40
  -1  11   1 1094.79   58.19
  -1  11   1 1098.19   56.59
   1  11  -1 1068.59   55.39
  -1  11   1 1147.09   48.60
   0 -11   1    5.50   17.00
   0 -11   1   -0.40   18.80
   0 -11  -1  -28.10   18.60
   0 -11  -1   36.90   20.70
   0 -11  -1    5.10   23.30
   0 -11  -1   15.00   17.60
   0 -11   1   -5.30   19.80
   0  11   1   12.70   21.60
   0  11   1   21.20   20.00
   0  11  -1   -1.20   15.60
   0  11  -1   16.90   20.80
   0  11   1   35.00   20.10
   0  11  -1   10.30   24.50
   0  11   1   -1.90   13.60
   0  11  -1   12.10   21.50
  -1 -11  -1  620.64   47.40
   1 -11   1  638.94   45.50
   1 -11   1  590.84   43.90
  -1 -11  -1  750.22   41.90
   1 -11   1  693.13   43.30
  -1 -11  -1  781.22   47.10
  -1 -11  -1  636.94   53.69
   1  11   1  653.13   47.50
   1  11   1  645.64   47.60
  -1  11  -1  668.63   46.40
   1  11   1  729.13   46.30
  -1  11  -1  647.54   40.90
   1  11   1  609.44   34.70
  -1  11  -1  639.84   48.30
  -1  11  -1  744.13   54.59
  -2 -11  -1  -18.50   16.10
  -2 -11  -1   -0.90   20.50
   2 -11   1   13.50   17.80
   2 -11   1   12.40   21.10
  -2 -11  -1  -20.80   23.60
  -2 -11  -1  -17.40   24.80
   2 -11   1   -3.00   17.50
  -2  11  -1  -23.20   20.90
  -2  11  -1   -9.40   22.40
   2  11   1  -23.80   23.70
   2  11   1   21.20   21.60
   2  11   1   21.10   14.30
   2  11   1   33.70   22.30
  -2  11  -1    1.80   26.70
  -2  11  -1   -4.30   25.90
   3 -11   1  207.78   33.20
  -3 -11  -1  228.98   31.50
   3 -11   1  181.48   29.20
  -3 -11  -1  169.98   32.20
  -3 -11  -1  228.38   27.00
   3 -11   1  237.48   26.70
  -3 -11  -1  199.98   32.30
  -3  11  -1  206.78   38.10
   3  11   1  210.68   30.60
  -3  11  -1  192.38   32.60
  -3  11  -1  219.68   36.10
   3  11   1  189.78   20.70
   3  11   1  196.48   31.80
  -3  11  -1  240.48   38.90
  -4 -11  -1  123.89   30.80
   4 -11   1   85.59   22.10
   4 -11   1   59.19   24.80
   4 -11   1  133.09   29.70
  -4 -11  -1   74.79   35.80
  -4 -11  -1  134.59   32.30
  -4  11  -1   94.89   32.70
   4  11   1   78.79   28.90
  -4  11  -1  121.09   27.80
  -4  11  -1  128.79   38.70
   4  11   1  121.49   30.00
  -4  11  -1   75.49   35.00
   5 -11   1  -16.80   20.10
  -5 -11  -1  -40.50   28.10
  -5 -11  -1   56.99   29.90
   5 -11   1    6.20   22.60
  -5 -11  -1   43.60   28.40
  -5 -11  -1   14.90   29.00
  -5  11  -1  -35.20   33.30
  -5  11  -1   43.30   35.60
   5  11   1   13.90   29.10
   5  11   1  -30.60   33.10
  -5  11  -1    2.40   32.40
   5  11   1   -4.70   20.90
  -5  11  -1    8.40   26.10
   4 -12  -1  275.97   37.80
   4 -12  -1  309.67   44.60
  -4 -12   1  320.97   36.50
   4 -12  -1  279.57   40.60
  -4 -12   1  306.37   41.80
  -4 -12   1  314.67   38.60
  -4 -12   1  346.17   39.30
  -4  12   1  348.97   45.80
   4  12  -1  282.07   31.00
  -4  12   1  323.57   43.40
  -4  12   1  313.57   45.50
   4  12  -1  341.27   46.80
  -4  12   1  302.17   40.70
   4  12  -1  346.37   41.20
  -3 -12   1  -14.00   24.10
  -3 -12   1   -7.20   25.10
   3 -12  -1   40.90   30.60
   3 -12  -1   39.00   23.90
  -3 -12   1   27.60   20.90
   3 -12  -1   35.90   33.30
   3  12  -1   55.09   21.80
   3  12  -1  -11.10   31.60
  -3  12   1    0.30   30.60
   3  12  -1   14.90   24.40
  -3  12   1   33.30   26.20
  -3  12   1   55.89   30.40
   3  12  -1   22.00   35.60
  -2 -12   1  616.74   46.80
  -2 -12   1  746.23   46.00
   2 -12  -1  710.33   58.29
   2 -12  -1  650.83   51.59
   2 -12  -1  648.84   48.80
  -2 -12   1  751.62   61.49
   2 -12  -1  691.83   57.09
  -2  12   1  719.43   61.69
   2  12  -1  589.54   61.79
   2  12  -1  738.03   45.20
  -2  12   1  666.23   56.79
   2  12  -1  631.44   60.29
   1 -12  -1  484.65   50.99
   1 -12  -1  360.06   38.10
  -1 -12   1  293.97   36.80
   1 -12  -1  316.17   37.10
   1 -12  -1  291.67   42.40
  -1 -12   1  306.27   35.10
  -1 -12   1  363.56   47.00
  -1  12   1  339.47   36.10
   1  12  -1  366.36   44.40
  -1  12   1  347.47   42.70
   1  12  -1  292.57   30.70
  -1  12   1  345.67   38.50
   1  12  -1  220.88   35.90
  -1  12   1  382.76   45.60
   1  12  -1  371.86   45.70
   0 -12   1  442.86   47.30
   0 -12  -1  421.06   41.10
   0 -12   1  411.06   39.50
   0 -12   1  413.16   47.40
   0 -12  -1  455.65   53.19
   0 -12  -1  408.56   39.10
   0 -12  -1  440.96   53.19
   0  12  -1  426.16   39.00
   0  12   1  583.14   49.60
   0  12   1  442.56   51.69
   0  12   1  452.15   36.60
   0  12   1  399.96   50.59
   0  12  -1  478.65   48.40
   0  12  -1  414.26   50.69
   0  12  -1  366.76   44.90
   1 -12   1  726.73   51.69
  -1 -12  -1  775.72   67.89
  -1 -12  -1  804.42   47.70
  -1 -12  -1  800.62   74.29
   1 -12   1  842.72   54.89
   1 -12   1  853.71   52.59
  -1 -12  -1  820.02   60.99
  -1  12  -1  843.92   52.89
   1  12   1  776.72   55.79
  -1  12  -1  727.63   56.49
   1  12   1  859.71   63.79
   1  12   1  753.72   59.09
  -1  12  -1  798.32   60.59
   1  12   1  867.81   42.30
  -1  12  -1  788.12   65.19
  -2 -12  -1   40.10   35.20
  -2 -12  -1   75.09   33.90
   2 -12   1   66.19   22.90
   2 -12   1  104.59   31.00
   2 -12   1   71.59   23.50
  -2 -12  -1  121.59   26.30
  -2 -12  -1   64.29   36.10
  -2  12  -1  117.69   56.79
   2  12   1  132.69   31.40
   2  12   1   99.69   19.80
  -2  12  -1  117.49   32.90
  -2  12  -1   87.09   38.80
   2  12   1  101.69   45.20
   2  12   1  113.69   31.70
  -3 -12  -1 1067.59   67.49
  -3 -12  -1 1049.30   68.19
  -3 -12  -1 1092.09   63.39
   3 -12   1 1065.79   58.39
   3 -12   1  946.31   64.29
  -3 -12  -1 1061.59   56.59
   3 -12   1 1111.69   64.69
  -3  12  -1  975.30   80.09
  -3  12  -1 1069.09   67.79
   3  12   1  953.00   79.99
  -3  12  -1 1073.09   72.69
  -3  12  -1 1169.58   67.09
   3  12   1 1117.99   86.59
   1 -13  -1    9.20   27.80
   1 -13  -1  -22.40   19.20
  -1 -13   1   37.00   37.50
   1 -13  -1  -48.20   32.30
  -1 -13   1   23.90   22.00
  -1 -13   1  -21.30   20.70
   1 -13  -1   -1.80   31.60
  -1 -13   1  -20.10   25.50
   1  13  -1  -32.50   24.90
   1  13  -1   36.80   29.50
  -1  13   1    1.00   29.10
  -1  13   1    7.40   24.20
   1  13  -1   41.40   34.90
  -1  13   1  -11.10   31.10
   1  13  -1    3.10   28.00
  -1  13   1   18.70   28.20
   0 -13  -1  201.68   33.00
   0 -13  -1  221.78   39.60
   0 -13   1  291.87   37.70
   0 -13  -1  233.88   36.00
   0 -13   1  219.38   33.50
   0 -13   1  235.88   42.40
   0  13   1  207.28   65.49
   0  13   1  230.48   28.10
   0  13   1  238.98   43.60
   0  13  -1  266.67   43.60
   0  13  -1  204.28   37.40
   0  13   1  271.27   38.10
   0  13  -1  254.87   36.90
   0  13  -1  208.68   37.20
  -1 -13  -1   24.70   30.10
  -1 -13  -1  -22.60   27.30
   1 -13   1   18.50   38.30
  -1 -13  -1  -39.50   20.90
   1 -13   1   65.59   26.20
  -1 -13  -1   10.80   30.40
   1 -13   1   26.10   20.20
   1  13   1    4.70   32.80
   1  13   1   19.00   38.80
  -1  13  -1    3.30   35.80
   1  13   1   41.90   22.80
   1  13   1   33.00   27.90
  -1  13  -1   62.49   34.40
  -1  13  -1  -32.80   25.60
  -1  13  -1   -2.90   30.10
  -9   0   2    7.60   34.50
  -9   0   2   54.39   50.69
   9   0  -2   -7.50   18.40
  -9   0   2   -1.50   34.60
   9   0  -2  -19.10   18.60
  -9   0   2   17.30   25.30
  -8   0   2 1109.89   60.79
   8   0  -2 1100.79   40.40
   8   0  -2 1111.89   53.99
   8   0  -2 1192.48   56.39
  -8   0   2 1088.69   56.29
  -8   0   2 1070.49   52.49
  -8   0   2 1105.79   61.99
   7   0  -2   23.20   22.70
  -7   0   2  -39.10   21.50
  -7   0   2   -1.40   16.50
   7   0  -2    9.90   16.30
  -7   0   2    0.80   14.70
  -7   0   2  -21.10   12.70
   7   0  -2  -28.40   12.40
  -7   0   2   -4.80   14.00
  -7   0   2  -14.60   17.80
   7   0  -2    4.90   11.60
  -6   0   2 4347.37  117.19
  -6   0   2 4366.26  121.49
   6   0  -2 4489.45  112.09
   6   0  -2 4434.56  120.39
  -6   0   2 4472.05  110.99
  -6   0   2 4619.94  122.59
  -6   0   2 4537.95  124.99
   6   0  -2 4430.76  113.79
   6   0  -2 4529.65  122.99
  -6   0   2 4325.17  124.39
  -5   0   2    3.40   11.10
  -5   0   2    1.50   10.50
   5   0  -2    0.70   11.60
  -5   0   2    9.10   12.60
  -5   0   2    0.40   11.50
   5   0  -2  -13.50    8.70
   5   0  -2   -0.90    6.60
   5   0  -2   -8.50   10.70
   5   0  -2    7.40    9.50
  -5   0   2    7.90   11.90
  -5   0   2    0.60   11.80
  -5   0   2    7.70   10.70
  -5   0   2   12.30    8.50
   5   0  -2   11.40   13.30
   5   0  -2    3.70    3.70
   4   0  -2 5348.47  134.49
  -4   0   2 5080.49  133.29
   4   0  -2 5312.27  132.29
   4   0  -2 5465.95  132.39
  -4   0   2 5408.96  131.89
  -4   0   2 5396.16  133.59
   4   0  -2 5569.04  134.99
  -4   0   2 5443.06  134.09
  -4   0   2 5306.77  135.19
  -4   0   2 5270.57  130.49
   4   0  -2 5186.48  128.19
   4   0  -2 5642.14  129.39
   4   0  -2 5400.06  132.39
  -3   0   2    5.10    6.70
  -3   0   2    3.00    6.70
  -3   0   2    3.80    7.00
  -3   0   2   -7.00    6.50
  -3   0   2   -1.10    5.50
   3   0  -2    0.90    7.00
   3   0  -2    4.90    5.90
   3   0  -2    8.70    7.20
   3   0  -2   -5.20    6.20
   3   0  -2    3.00    7.50
  -3   0   2    7.60    7.10
  -3   0   2   10.10    8.40
   3   0  -2    9.90    6.60
   3   0  -2    5.10    6.50
  -3   0   2    4.80    7.40
   2   0  -2 3243.88   80.29
  -2   0   2 3068.49   78.49
   2   0  -2 3200.38   79.29
  -2   0   2 3150.48   80.49
  -2   0   2 3354.76   79.69
   2   0  -2 3119.19   80.99
   2   0  -2 3222.88   80.59
   2   0  -2 3329.57   80.99
  -2   0   2 3319.87   81.49
  -2   0   2 3108.59   80.39
   2   0  -2 3260.37   78.69
  -2   0   2 3384.36   80.59
  -2   0   2 3275.77   79.09
   2   0  -2 3287.87   79.89
  -2   0   2 3201.88   78.59
   1   0  -2    5.70    5.10
   1   0  -2    8.80    5.20
  -1   0   2    0.40    5.50
  -1   0   2    5.70    5.20
   1   0  -2    4.30    5.60
   1   0  -2   -0.50    5.40
   1   0  -2    1.50    3.40
  -1   0   2   -5.50    5.20
   1   0  -2    7.00    5.60
   1   0  -2   -3.90    4.90
  -1   0   2    0.10    3.50
  -1   0   2   -1.90    4.60
   1   0  -2   -0.80    5.00
  -1   0   2   -2.70    4.70
  -1   0   2    5.40    5.20
  -1   0   2   -1.20    4.90
   0   0  -2 1628.74   39.90
   0   0  -2 1595.24   39.10
   0   0  -2 1615.64   38.10
   0   0   2 1579.94   37.00
   0   0  -2 1568.94   39.00
   0   0   2 1625.34   38.80
   0   0   2 1687.13   39.80
   0   0   2 1557.44   37.10
   0   0  -2 1616.54   38.00
   0   0  -2 1609.14   41.30
   0   0   2 1621.34   37.50
   0   0  -2 1609.24   37.50
   1   0   2    1.90    3.80
  -2   0  -2  818.22   20.80
   2   0   2  816.52   21.90
  -2   0  -2  821.52   20.60
   3   0   2   13.40   10.20
  -3   0  -2    2.80    6.30
  -3   0  -2    2.80    3.70
  -3   0  -2    2.00    3.90
  -3   0  -2    6.50    3.10
  -3   0  -2    2.30    4.20
   3   0   2    5.70    8.20
  -3   0  -2   -1.80    3.20
  -4   0  -2 1404.36   40.10
  -4   0  -2 1453.85   39.40
  -4   0  -2 1440.86   43.60
   4   0   2 1513.25   51.29
  -4   0  -2 1427.86   38.20
  -4   0  -2 1352.76   47.40
   4   0   2 1424.16   46.60
   4   0   2 1448.06   34.90
   4   0   2 1416.06   34.60
  -4   0  -2 1481.95   38.90
  -4   0  -2 1398.76   36.70
   5   0   2   -8.10   16.40
  -5   0  -2   -7.00   11.10
  -5   0  -2   -4.20    6.30
   5   0   2    2.20    4.00
  -5   0  -2    1.60    8.00
  -5   0  -2   11.20    7.50
  -5   0  -2    5.30    6.40
   5   0   2   33.10   13.20
   5   0   2    0.60    3.90
  -5   0  -2    1.50    8.50
  -6   0  -2 1462.05   59.89
   6   0   2 1510.35   37.10
  -6   0  -2 1500.25   58.79
   6   0   2 1529.95   60.59
  -6   0  -2 1510.75   47.70
  -6   0  -2 1540.65   41.50
  -6   0  -2 1439.56   55.39
  -6   0  -2 1535.45   50.39
   6   0   2 1497.75   54.59
  -6   0  -2 1539.45   50.49
  -7   0  -2   12.50   13.10
  -7   0  -2    0.10   18.80
  -7   0  -2    8.60    7.10
  -7   0  -2   17.80   20.50
  -7   0  -2  -12.50   12.30
  -7   0  -2  -14.50   11.60
   7   0   2   -3.60   19.40
  -8   0  -2  788.92   62.99
  -8   0  -2  849.22   43.30
  -8   0  -2  833.92   44.30
   8   0   2  824.02   53.59
  -8   0  -2  900.61   64.39
   9  -1  -2  361.76   38.90
  -9  -1   2  300.47   39.00
  -9  -1   2  357.96   38.20
  -9  -1   2  391.96   48.70
  -9  -1   2  332.97   44.10
   9   1  -2  309.27   23.60
  -9   1   2  375.36   45.70
   9   1  -2  389.86   39.30
  -9   1   2  329.87   43.70
  -9   1   2  385.76   46.60
   8  -1  -2  200.88   29.10
  -8  -1   2  189.48   26.40
  -8  -1   2  196.58   28.10
   8  -1  -2  226.08   21.70
  -8  -1   2  151.68   29.80
   8  -1  -2  183.08   32.30
  -8  -1   2  166.58   31.30
   8   1  -2  199.18   23.40
  -8   1   2  186.78   27.90
  -8   1   2  162.98   32.10
  -8   1   2  152.98   24.00
   8   1  -2  163.28   25.50
   8   1  -2  127.09   23.60
  -8   1   2  131.89   28.60
   7  -1  -2  866.01   36.60
  -7  -1   2  826.12   47.70
  -7  -1   2  892.51   44.60
   7  -1  -2  909.21   43.80
  -7  -1   2  871.21   51.09
   7  -1  -2  862.91   34.90
  -7  -1   2  926.91   42.50
  -7  -1   2  835.42   48.70
   7   1  -2  875.11   35.70
  -7   1   2  861.51   48.80
  -7   1   2  920.21   39.20
  -7   1   2  863.01   49.90
   7   1  -2  950.00   46.80
   7   1  -2  853.61   44.00
  -7   1   2  931.91   51.49
  -7   1   2  869.11   41.60
   7   1  -2  870.81   36.50
  -7   1   2  821.02   43.90
  -6  -1   2   -7.50   14.00
  -6  -1   2   21.20   15.00
  -6  -1   2    0.00   13.90
  -6  -1   2   -4.10   11.50
  -6  -1   2    7.00   12.00
  -6  -1   2    3.40    9.20
   6  -1  -2    0.50   13.70
   6  -1  -2    9.70   10.50
   6  -1  -2   12.30   12.20
  -6   1   2    7.20   15.30
  -6   1   2  -14.20   13.10
   6   1  -2    6.00   10.60
   6   1  -2   -5.60   10.10
  -6   1   2    3.10   11.10
   6   1  -2    2.10    6.10
  -6   1   2   13.60   13.20
  -6   1   2   12.00   14.70
   6   1  -2   22.20   13.00
  -6   1   2   -8.80   10.40
   6   1  -2    5.80    4.50
   5  -1  -2 1233.88   29.70
   5  -1  -2 1290.67   40.70
  -5  -1   2 1191.58   43.40
  -5  -1   2 1294.57   46.40
   5  -1  -2 1270.57   44.70
   5  -1  -2 1232.08   44.60
   5  -1  -2 1218.78   46.50
  -5  -1   2 1275.07   40.70
   5  -1  -2 1194.88   40.60
  -5  -1   2 1236.88   48.30
   5  -1  -2 1195.78   41.50
   5  -1  -2 1272.57   29.70
  -5  -1   2 1196.48   42.50
  -5  -1   2 1212.08   45.70
  -5  -1   2 1221.98   46.00
   5  -1  -2 1270.37   45.30
  -5   1   2 1250.57   43.60
   5   1  -2 1333.47   45.40
  -5   1   2 1275.47   41.60
   5   1  -2 1250.27   34.20
  -5   1   2 1272.87   44.10
  -5   1   2 1182.38   47.70
   5   1  -2 1155.28   42.00
  -5   1   2 1200.08   46.20
   5   1  -2 1267.37   46.90
   5   1  -2 1214.58   44.80
   5   1  -2 1235.78   40.40
  -5   1   2 1346.77   47.00
   5   1  -2 1184.88   36.50
  -5   1   2 1254.67   47.00
  -5   1   2 1175.98   46.40
   5   1  -2 1207.78   44.50
   4  -1  -2  301.17   16.70
   4  -1  -2  259.17   19.10
   4  -1  -2  240.88   18.90
  -4  -1   2  301.87   20.30
  -4  -1   2  286.77   14.60
  -4  -1   2  288.57   18.90
   4  -1  -2  248.48   16.10
  -4  -1   2  224.58   17.20
   4  -1  -2  278.37   21.00
   4  -1  -2  243.78   11.50
   4  -1  -2  251.77   19.10
   4  -1  -2  265.17   21.10
  -4  -1   2  270.57   22.50
  -4  -1   2  233.18   19.30
  -4  -1   2  271.87   19.40
  -4   1   2  304.57   18.60
  -4   1   2  222.98   20.00
  -4   1   2  252.47   20.80
  -4   1   2  267.97   21.50
   4   1  -2  253.97   18.50
  -4   1   2  263.17   19.90
   4   1  -2  270.57   17.20
   4   1  -2  248.78   12.90
   4   1  -2  255.87   14.10
   4   1  -2  265.07   20.40
  -4   1   2  300.37   20.10
  -4   1   2  289.67   18.90
   4   1  -2  239.88   18.90
  -4   1   2  281.47   17.40
   4   1  -2  260.57   19.60
  -3  -1   2 2198.98   59.19
  -3  -1   2 2244.08   55.29
   3  -1  -2 2192.98   58.29
  -3  -1   2 2264.17   58.59
  -3  -1   2 2076.69   59.99
   3  -1  -2 2232.68   57.69
   3  -1  -2 2092.89   60.19
   3  -1  -2 2164.18   59.49
   3  -1  -2 2231.08   60.79
   3  -1  -2 1965.50   56.89
  -3  -1   2 2021.60   73.19
  -3  -1   2 1977.80   59.59
   3  -1  -2 2138.89   53.69
  -3  -1   2 2064.69   56.79
   3   1  -2 2265.97   59.69
   3   1  -2 2192.48   59.29
   3   1  -2 2063.39   57.89
  -3   1   2 2311.87   60.39
  -3   1   2 2141.19   61.99
   3   1  -2 2245.88   56.99
   3   1  -2 2105.99   59.89
  -3   1   2 2157.08   59.69
   3   1  -2 2093.69   55.39
  -3   1   2 2101.99   57.29
  -3   1   2 2011.90   60.69
  -3   1   2 2181.58   61.69
  -3   1   2 2261.87   58.49
   3   1  -2 2144.69   59.59
   2  -1  -2   18.20    7.70
   2  -1  -2   26.40    7.50
   2  -1  -2   13.00    6.80
  -2  -1   2    1.70    6.80
   2  -1  -2   12.60    7.40
  -2  -1   2   15.00    7.40
  -2  -1   2   21.60    7.60
   2  -1  -2   -0.70    6.30
   2  -1  -2    5.90    6.80
  -2  -1   2   22.70    7.10
  -2  -1   2    8.00    6.10
  -2  -1   2    8.50    6.20
   2  -1  -2    0.40    5.80
  -2  -1   2   13.00    6.90
   2   1  -2   28.50    6.50
  -2   1   2   15.60    6.80
  -2   1   2   13.00    7.00
   2   1  -2    4.20    6.70
   2   1  -2   14.10    7.30
   2   1  -2   11.00    6.50
   2   1  -2   14.00    6.30
  -2   1   2   10.20    6.20
   2   1  -2   19.00    6.50
  -2   1   2    3.60    6.60
  -2   1   2    8.40    6.80
  -2   1   2   13.90    8.30
   2   1  -2   12.70    7.20
  -2   1   2   17.20    7.70
  -2   1   2   12.20    6.70
   1  -1  -2 1789.62   43.50
  -1  -1   2 1623.54   42.50
   1  -1  -2 1604.04   43.40
   1  -1  -2 1720.03   43.50
   1  -1  -2 1692.03   44.80
   1  -1  -2 1668.13   45.10
   1  -1  -2 1739.93   45.50
  -1  -1   2 1676.43   43.10
  -1  -1   2 1772.02   44.50
   1  -1  -2 1684.03   43.80
   1  -1  -2 1705.43   45.20
  -1  -1   2 1752.22   43.90
  -1  -1   2 1747.53   43.40
  -1  -1   2 1711.73   44.20
  -1  -1   2 1660.43   43.40
  -1  -1   2 1621.24   43.80
  -1   1   2 1659.43   43.30
   1   1  -2 1698.33   43.00
   1   1  -2 1765.92   43.20
  -1   1   2 1612.54   45.10
   1   1  -2 1716.73   44.00
  -1   1   2 1686.63   43.30
  -1   1   2 1722.03   44.90
  -1   1   2 1727.53   45.00
   1   1  -2 1749.32   43.50
   1   1  -2 1656.83   43.60
  -1   1   2 1742.13   43.60
  -1   1   2 1578.44   44.30
  -1   1   2 1681.93   43.40
   1   1  -2 1775.82   44.40
   1   1  -2 1609.04   44.10
   1   1  -2 1767.62   44.90
   0  -1   2 1790.32   41.60
   0  -1   2 1824.92   42.70
   0  -1  -2 1823.22   43.70
   0  -1  -2 1824.92   46.60
   0  -1   2 1781.72   44.10
   0  -1  -2 1813.02   45.00
   0  -1  -2 1858.11   48.00
   0  -1  -2 1850.51   43.60
   0  -1   2 1828.02   42.50
   0  -1   2 1840.02   45.10
   0  -1  -2 1727.73   44.00
   0  -1  -2 1770.62   40.90
   0  -1   2 1853.11   44.10
   0  -1   2 1866.61   45.80
   0  -1   2 1920.61   45.70
   0  -1  -2 1752.52   44.90
   0  -1  -2 1843.42   45.60
   0   1  -2 1843.92   43.40
   0   1   2 1807.72   43.20
   0   1  -2 1824.52   45.00
   0   1   2 1876.71   46.60
   0   1  -2 1816.12   44.40
   0   1   2 1855.91   44.90
   0   1   2 1839.02   45.20
   0   1  -2 1776.12   43.30
   0   1   2 1780.82   43.50
   0   1  -2 1820.72   45.80
   0   1  -2 1849.11   41.80
   0   1  -2 1829.42   43.10
   0   1  -2 1851.41   44.30
   0   1   2 1796.92   43.30
  -1  -1  -2  302.07   15.20
  -1  -1  -2  332.17   11.00
  -1  -1  -2  335.47    9.70
  -1  -1  -2  329.57   13.20
  -1  -1  -2  323.77   11.00
   1  -1   2  344.37   13.30
  -1  -1  -2  328.07   10.00
   1   1   2  325.87   10.30
  -1   1  -2  314.47   13.50
   1   1   2  325.67   10.30
  -1   1  -2  322.87    9.90
  -1   1  -2  305.67   14.30
  -1   1  -2  325.87    9.80
  -2  -1  -2 2026.70   52.29
  -2  -1  -2 2005.10   48.70
  -2  -1  -2 2026.60   47.00
   2  -1   2 2065.19   50.19
  -2  -1  -2 2010.20   48.80
  -2  -1  -2 1983.70   48.80
  -2  -1  -2 2056.39   47.50
  -2   1  -2 1933.51   53.99
   2   1   2 2080.09   46.80
  -2   1  -2 1968.30   51.69
  -2   1  -2 1980.40   47.70
   2   1   2 2032.40   47.20
  -2   1  -2 2035.10   47.80
  -3  -1  -2   23.50    4.00
  -3  -1  -2   30.60    4.60
   3  -1   2   40.20   11.30
  -3  -1  -2   26.20    4.90
  -3  -1  -2   23.30    9.60
  -3  -1  -2   31.40    5.50
  -3  -1  -2   23.90    5.70
  -3  -1  -2   22.80    5.00
  -3   1  -2   32.90   11.10
  -3   1  -2   24.70    7.50
  -3   1  -2   23.70    4.00
  -3   1  -2   24.00    5.00
   3   1   2   27.50    3.50
   3   1   2   37.60   12.00
   3   1   2   24.60    4.10
  -3   1  -2   23.40    5.10
  -3   1  -2   25.00    4.10
   3   1   2   29.60   10.10
  -4  -1  -2 1939.31   45.70
  -4  -1  -2 1914.71   53.99
   4  -1   2 1920.21   55.19
  -4  -1  -2 1944.61   50.69
  -4  -1  -2 1929.21   51.29
  -4  -1  -2 1760.12   54.89
  -4  -1  -2 1906.71   45.80
  -4  -1  -2 1943.81   49.20
   4  -1   2 1908.91   45.80
  -4  -1  -2 1907.11   59.79
   4  -1   2 1853.81   60.29
   4  -1   2 1875.71   44.40
  -4  -1  -2 1906.61   49.40
  -4   1  -2 1938.31   52.09
   4   1   2 1940.91   47.60
  -4   1  -2 1873.01   60.49
  -4   1  -2 1929.41   49.40
  -4   1  -2 1877.81   46.30
   4   1   2 1941.91   46.60
   4   1   2 1816.32   57.49
  -4   1  -2 1936.11   48.90
  -4   1  -2 1945.21   51.19
   4   1   2 1831.32   59.69
  -4   1  -2 1808.72   59.59
   5  -1   2  606.14   29.90
  -5  -1  -2  591.74   26.10
  -5  -1  -2  588.34   16.10
  -5  -1  -2  603.94   16.20
  -5  -1  -2  600.44   28.60
  -5  -1  -2  618.64   19.60
  -5  -1  -2  598.74   25.50
  -5  -1  -2  598.24   24.90
  -5  -1  -2  604.24   33.40
   5  -1   2  623.04   17.30
   5  -1   2  616.34   17.20
   5  -1   2  496.35   39.60
  -5  -1  -2  572.64   23.50
  -5   1  -2  575.54   23.00
  -5   1  -2  563.34   31.90
   5   1   2  582.84   19.90
  -5   1  -2  579.14   33.60
  -5   1  -2  648.64   25.20
  -5   1  -2  567.74   24.50
   5   1   2  604.94   19.70
  -5   1  -2  614.14   24.60
   5   1   2  547.35   49.70
   5   1   2  611.04   32.80
  -5   1  -2  582.54   25.60
  -6  -1  -2  739.23   33.40
  -6  -1  -2  719.13   35.30
   6  -1   2  781.02   42.70
  -6  -1  -2  734.03   30.60
  -6  -1  -2  763.82   31.80
   6  -1   2  756.22   35.80
  -6  -1  -2  762.22   39.40
  -6  -1  -2  806.72   44.00
  -6   1  -2  735.03   31.00
  -6   1  -2  747.83   35.00
  -6   1  -2  781.52   30.30
  -6   1  -2  759.22   40.10
  -6   1  -2  771.82   45.00
   6   1   2  802.22   24.40
   6   1   2  823.62   24.10
   6   1   2  721.93   41.10
  -6   1  -2  773.62   33.20
   6   1   2  713.93   38.30
   7  -1   2 1220.78   58.69
  -7  -1  -2 1243.98   48.40
   7  -1   2 1255.37   49.70
  -7  -1  -2 1151.28   57.39
  -7  -1  -2 1311.67   46.50
  -7  -1  -2 1219.68   62.69
  -7  -1  -2 1195.68   46.00
  -7   1  -2 1230.98   59.29
   7   1   2 1218.88   58.59
  -7   1  -2 1200.98   46.60
  -7   1  -2 1198.58   46.10
  -7   1  -2 1183.78   45.10
  -7   1  -2 1244.08   42.20
  -7   1  -2 1272.67   61.29
  -8  -1  -2   51.49   31.00
  -8  -1  -2   41.60   19.30
   8  -1   2   43.40   20.80
  -8  -1  -2   13.60   17.90
   8  -1   2   66.29   28.40
  -8  -1  -2   23.50   30.50
  -8   1  -2   59.29   32.50
  -8   1  -2   15.80   17.70
  -8   1  -2   30.50   17.80
  -8   1  -2   15.90   25.90
   8   1   2   51.59   23.90
  -9  -2   2 1098.69   68.69
  -9  -2   2 1123.99   65.39
  -9  -2   2 1173.98   47.50
   9  -2  -2 1030.40   59.39
  -9  -2   2 1185.98   72.69
  -9  -2   2 1056.99   64.39
   9   2  -2 1094.29   38.70
  -9   2   2 1192.48   71.89
  -9   2   2 1125.49   62.69
   9   2  -2 1095.99   58.59
  -9   2   2 1080.09   64.39
   8  -2  -2   -8.90   12.00
  -8  -2   2  -22.00   14.00
   8  -2  -2   12.50   22.50
  -8  -2   2   25.20   25.70
  -8  -2   2   -6.40   21.30
  -8  -2   2   -8.40   17.70
  -8  -2   2    1.60   23.80
   8  -2  -2   -2.70   17.80
   8   2  -2    5.10   13.30
  -8   2   2    3.10   24.20
  -8   2   2   18.70   19.00
  -8   2   2  -24.40   18.30
  -8   2   2  -28.70   22.20
   8   2  -2   46.70   19.60
  -7  -2   2  930.81   51.49
   7  -2  -2  960.30   36.50
   7  -2  -2  906.91   37.40
   7  -2  -2 1019.80   47.00
  -7  -2   2  961.60   47.50
   7  -2  -2  977.90   52.99
  -7  -2   2  879.71   51.09
  -7  -2   2  883.21   43.60
  -7   2   2  904.11   46.80
   7   2  -2  984.80   54.49
   7   2  -2  937.41   26.50
   7   2  -2  940.51   38.90
  -7   2   2  887.51   44.00
   7   2  -2  866.61   46.10
  -7   2   2  981.90   51.89
  -7   2   2  941.91   50.79
  -7   2   2  939.21   51.09
  -7   2   2  910.91   44.70
   7   2  -2  993.70   39.60
  -6  -2   2   18.50   13.70
  -6  -2   2   34.90   12.40
   6  -2  -2   38.00   10.80
   6  -2  -2   60.69   24.40
  -6  -2   2   38.90   17.70
  -6  -2   2   57.49   17.30
  -6  -2   2   28.10   19.60
   6  -2  -2   53.69   11.80
  -6   2   2   40.20   16.70
   6   2  -2   33.00   12.20
  -6   2   2   52.69   15.90
   6   2  -2   51.29    7.40
   6   2  -2   25.60   16.10
  -6   2   2   41.80   14.50
   6   2  -2   55.99    8.70
   6   2  -2   62.89   12.20
  -6   2   2   27.90   16.70
  -6   2   2   16.30   14.00
   6   2  -2   33.80   23.20
  -6   2   2   36.90   17.00
   5  -2  -2   32.20   10.90
   5  -2  -2   26.40   12.40
  -5  -2   2   25.40   12.00
  -5  -2   2   49.80   14.70
  -5  -2   2   39.40   13.60
   5  -2  -2   28.50    9.80
   5  -2  -2   30.10   10.70
   5  -2  -2   14.60   13.10
  -5  -2   2   11.10   12.50
  -5  -2   2   38.90   12.50
   5  -2  -2   31.20   13.00
   5  -2  -2   17.50    3.70
   5  -2  -2   32.50   10.80
  -5  -2   2    9.40   11.50
   5   2  -2   13.50    9.40
   5   2  -2   18.60    8.20
   5   2  -2   26.00   11.40
  -5   2   2   45.20   14.20
   5   2  -2   49.50   12.00
   5   2  -2   17.30    6.00
   5   2  -2   41.30   13.10
  -5   2   2   17.10   12.70
   5   2  -2   33.50   14.60
  -5   2   2   35.10   13.20
  -5   2   2   -0.40   12.50
  -5   2   2   12.60   12.60
  -5   2   2   35.00   12.00
   5   2  -2   32.10   13.40
  -5   2   2   19.30   12.00
  -5   2   2   34.00   14.40
  -4  -2   2  355.16   21.60
   4  -2  -2  327.57   21.20
   4  -2  -2  312.97   20.20
  -4  -2   2  318.87   22.30
   4  -2  -2  329.27   22.70
   4  -2  -2  299.47   21.00
   4  -2  -2  319.37   19.10
   4  -2  -2  316.87   22.10
   4  -2  -2  308.67   21.50
  -4  -2   2  358.86   21.00
  -4  -2   2  309.87   23.60
  -4  -2   2  364.56   23.40
   4  -2  -2  321.17   13.60
  -4  -2   2  298.97   21.50
  -4  -2   2  289.47   28.90
  -4   2   2  320.07   23.00
   4   2  -2  348.67   21.80
   4   2  -2  356.26   18.50
   4   2  -2  346.07   21.70
   4   2  -2  302.97   18.00
   4   2  -2  276.97   20.10
  -4   2   2  320.37   20.00
  -4   2   2  339.17   22.30
  -4   2   2  363.46   32.50
   4   2  -2  317.97   19.70
  -4   2   2  284.97   19.10
  -4   2   2  296.77   22.90
  -4   2   2  331.07   22.10
   4   2  -2  304.27   15.10
   4   2  -2  358.76   22.70
  -4   2   2  335.57   24.10
   3  -2  -2 2140.19   59.59
  -3  -2   2 1891.01   63.69
  -3  -2   2 2186.78   61.09
   3  -2  -2 2103.59   58.09
   3  -2  -2 2223.58   57.09
   3  -2  -2 2210.88   60.29
   3  -2  -2 2031.90   57.89
   3  -2  -2 2187.08   60.29
   3  -2  -2 2094.39   53.79
  -3  -2   2 2131.29   59.39
  -3  -2   2 2171.18   58.39
  -3  -2   2 2180.88   58.29
   3  -2  -2 2064.09   59.69
  -3   2   2 1961.80   62.79
   3   2  -2 2162.68   56.69
  -3   2   2 2259.67   59.89
  -3   2   2 1912.71   60.59
   3   2  -2 2128.79   58.69
   3   2  -2 2082.19   58.59
  -3   2   2 2017.90   58.69
  -3   2   2 2191.98   58.09
   3   2  -2 2173.48   59.09
   3   2  -2 1969.20   59.09
   3   2  -2 2091.79   54.29
   3   2  -2 1924.01   62.59
  -3   2   2 2181.28   58.49
   3   2  -2 2254.57   55.89
   2  -2  -2  134.39   12.70
   2  -2  -2  131.19   13.30
   2  -2  -2  139.09   16.00
   2  -2  -2  131.69   11.10
  -2  -2   2  125.99   13.00
  -2  -2   2  126.49   13.50
  -2  -2   2  128.09   14.20
   2  -2  -2  152.98   15.80
  -2  -2   2  162.18   11.90
  -2  -2   2  156.58   13.50
  -2  -2   2  142.39   12.00
  -2  -2   2  132.89   12.20
   2  -2  -2  121.99   13.10
   2   2  -2  115.69   13.70
   2   2  -2  122.69   11.00
   2   2  -2  134.09   13.00
  -2   2   2  148.99   13.80
  -2   2   2  113.99   13.30
   2   2  -2  116.29   12.00
   2   2  -2  155.18   12.30
  -2   2   2  121.29   11.70
   2   2  -2  147.79   10.70
  -2   2   2  126.29   12.60
  -2   2   2  125.39   13.00
  -2   2   2  133.19   13.30
   1  -2  -2 5985.60  135.39
   1  -2  -2 5804.62  136.79
   1  -2  -2 5738.13  137.29
   1  -2  -2 5995.00  137.69
  -1  -2   2 5732.43  134.29
  -1  -2   2 5865.11  135.99
   1  -2  -2 5662.13  136.79
  -1  -2   2 5815.52  134.69
  -1  -2   2 5591.64  133.19
  -1  -2   2 5954.90  136.09
   1  -2  -2 5462.45  135.09
   1  -2  -2 5957.90  136.29
  -1  -2   2 6078.29  134.79
  -1  -2   2 6028.10  136.69
  -1  -2   2 6012.30  135.89
   1  -2  -2 5740.03  136.79
  -1   2   2 5857.91  134.49
  -1   2   2 5782.12  136.69
  -1   2   2 6016.10  136.79
  -1   2   2 5771.82  135.19
   1   2  -2 5838.82  133.19
   1   2  -2 6061.19  134.79
   1   2  -2 5667.43  134.89
   1   2  -2 5606.64  135.49
   1   2  -2 5984.30  136.29
  -1   2   2 5837.92  136.89
   1   2  -2 5713.23  135.99
  -1   2   2 5787.92  135.39
  -1   2   2 5722.53  136.29
   1   2  -2 5686.03  136.39
  -1   2   2 5594.84  132.99
   0  -2  -2    1.90    5.80
   0  -2  -2    6.30    5.10
   0  -2   2    2.70    3.70
   0  -2  -2   -0.80    6.40
   0  -2  -2    2.40    4.80
   0  -2   2    4.70    3.90
   0  -2   2    8.10    6.20
   0  -2  -2    2.90    3.20
   0  -2  -2    5.40    4.40
   0  -2   2    1.00    4.30
   0  -2  -2    3.30    6.00
   0  -2   2    8.30    6.20
   0  -2   2   -0.90    4.20
   0  -2  -2   -1.90    4.80
   0  -2   2   -0.20    3.80
   0   2  -2    6.10    4.80
   0   2  -2    4.20    4.10
   0   2   2    0.50    5.40
   0   2   2   -5.00    6.40
   0   2   2    2.80    3.10
   0   2  -2   -0.30    4.00
   0   2  -2    0.70    5.20
   0   2   2   -0.10    6.20
   0   2   2    2.20    5.00
   0   2  -2   12.30    5.30
   0   2   2    5.20    4.40
   0   2  -2    5.40    5.80
   0   2   2   -2.30    3.40
   0   2  -2    7.40    4.30
   0   2   2   -3.40    4.60
   0   2   2    1.10    4.50
  -1  -2  -2 6365.36  147.49
   1  -2   2 6453.25  146.09
  -1  -2  -2 6578.74  147.99
  -1  -2  -2 6710.83  148.09
  -1  -2  -2 6237.58  150.88
  -1  -2  -2 6538.45  146.89
   1  -2   2 6558.44  148.39
  -1  -2  -2 6654.43  146.79
  -1  -2  -2 6253.07  147.69
   1  -2   2 6657.13  148.49
  -1   2  -2 6641.04  151.28
   1   2   2 6275.97  147.29
   1   2   2 6498.65  151.28
   1   2   2 6636.14  147.79
  -1   2  -2 6202.98  146.69
   1   2   2 6259.87  145.39
   1   2   2 6521.15  147.39
  -1   2  -2 6217.88  146.39
   1   2   2 6257.97  145.09
  -1   2  -2 6353.86  144.19
  -1   2  -2 6469.25  148.69
  -1   2  -2 6331.37  145.59
  -1   2  -2 6546.54  145.59
  -2  -2  -2   -2.40    5.40
  -2  -2  -2   14.70    3.40
  -2  -2  -2    6.90    3.90
  -2  -2  -2   14.20    4.80
  -2  -2  -2   11.70    4.50
   2  -2   2   -6.00    8.70
  -2  -2  -2   11.20    4.20
   2  -2   2    6.40    6.50
   2  -2   2   12.00    3.50
  -2  -2  -2    8.90    3.70
   2  -2   2    8.00    3.00
   2   2   2    6.80    9.00
   2   2   2   13.80    6.10
  -2   2  -2   13.70    7.60
  -2   2  -2    7.30    3.80
  -2   2  -2   20.20    5.20
  -2   2  -2    9.00    3.30
  -2   2  -2    6.20    3.80
   2   2   2    2.30    8.90
  -2   2  -2    9.20    3.60
   3  -2   2 5066.99  125.59
  -3  -2  -2 5032.10  117.99
  -3  -2  -2 4980.40  111.09
  -3  -2  -2 4965.50  119.39
  -3  -2  -2 4969.00  115.99
  -3  -2  -2 4878.61  118.19
  -3  -2  -2 5048.69  116.49
   3  -2   2 4899.81  112.99
  -3  -2  -2 5174.98  117.19
   3  -2   2 4980.30  122.09
   3   2   2 5014.40  115.39
  -3   2  -2 4955.60  116.99
   3   2   2 5063.09  125.99
  -3   2  -2 5112.99  114.99
  -3   2  -2 4835.82  124.09
   3   2   2 4980.50  125.39
   3   2   2 4747.62  123.99
  -3   2  -2 4954.30  120.09
  -3   2  -2 4837.42  115.19
   4  -2   2  331.17   12.10
  -4  -2  -2  341.97   24.90
   4  -2   2  350.26   12.50
  -4  -2  -2  347.37   18.80
  -4  -2  -2  354.16   17.20
  -4  -2  -2  340.67   17.90
   4  -2   2  364.96   22.60
  -4  -2  -2  330.17   16.10
   4  -2   2  382.66   27.10
  -4  -2  -2  342.97   16.70
  -4  -2  -2  352.76   18.30
  -4   2  -2  347.47   25.80
   4   2   2  400.26   25.50
  -4   2  -2  335.57   16.10
  -4   2  -2  356.46   13.20
   4   2   2  338.87   14.80
  -4   2  -2  318.17   17.00
   4   2   2  332.77   24.40
  -4   2  -2  341.17   16.30
  -4   2  -2  344.97   21.70
  -4   2  -2  333.17   17.50
   4   2   2  343.27   18.60
  -5  -2  -2  978.40   36.40
   5  -2   2 1016.90   27.20
   5  -2   2 1060.39   40.40
   5  -2   2  954.70   51.69
  -5  -2  -2 1052.49   35.60
  -5  -2  -2 1037.10   36.90
  -5  -2  -2 1021.80   31.20
  -5  -2  -2 1013.30   34.90
  -5  -2  -2  931.61   43.60
   5  -2   2 1000.60   27.30
   5  -2   2 1016.10   37.20
   5   2   2  989.00   31.30
  -5   2  -2 1026.10   35.20
  -5   2  -2 1001.90   41.60
  -5   2  -2  982.10   35.50
  -5   2  -2 1028.20   44.60
   5   2   2 1010.80   42.60
  -5   2  -2  944.01   32.80
   5   2   2 1001.60   30.40
  -5   2  -2 1075.39   37.00
   5   2   2  869.61   47.40
  -5   2  -2  987.50   33.50
  -6  -2  -2    1.20   18.80
  -6  -2  -2  -14.50   13.80
   6  -2   2    7.20    4.90
   6  -2   2   20.70   16.40
   6  -2   2   17.50   14.70
  -6  -2  -2    3.10   11.20
  -6  -2  -2   13.60   10.60
  -6  -2  -2   10.10   14.60
  -6   2  -2    3.00   10.50
   6   2   2   -1.70    7.80
  -6   2  -2   11.60   12.10
  -6   2  -2   10.20   13.80
  -6   2  -2   11.30   16.80
   6   2   2   21.00   14.10
  -6   2  -2   16.60   11.30
   6   2   2   -7.60    8.40
  -6   2  -2    0.10   13.60
   6   2   2    8.10   16.20
  -6   2  -2    8.40   13.50
  -7  -2  -2   79.09   15.60
   7  -2   2  121.49   20.30
  -7  -2  -2   85.59   26.10
  -7  -2  -2   90.89   16.90
  -7  -2  -2  116.49   18.40
   7  -2   2   78.09   24.80
  -7   2  -2   75.79   15.50
  -7   2  -2   76.29   23.30
  -7   2  -2   68.99   25.30
  -7   2  -2   99.99   16.70
  -7   2  -2   81.39   16.90
   7   2   2   62.39   21.50
  -7   2  -2   55.39   17.90
  -8  -2  -2   -4.10   26.30
   8  -2   2    3.10   23.10
  -8  -2  -2   -3.10   29.80
  -8  -2  -2   13.60   17.60
   8  -2   2  -17.30   19.50
  -8  -2  -2  -31.80   17.90
  -8   2  -2    9.40   17.10
  -8   2  -2   26.50   18.80
   8   2   2   46.60   24.90
  -8   2  -2    4.00   33.80
  -8   2  -2  -31.40   23.20
   9  -3  -2  149.88   30.20
  -9  -3   2  180.18   30.30
  -9  -3   2  142.39   30.50
  -9  -3   2  220.28   37.90
  -9  -3   2  142.99   38.60
  -9   3   2  220.08   38.50
   9   3  -2  234.68   27.10
  -9   3   2  242.08   41.60
  -9   3   2   66.19   55.69
   9   3  -2  198.88   32.60
  -9   3   2  149.69   31.70
   8  -3  -2  485.35   42.10
  -8  -3   2  504.85   47.70
  -8  -3   2  515.95   33.20
  -8  -3   2  493.95   39.90
  -8  -3   2  459.65   52.49
   8  -3  -2  480.95   27.80
   8  -3  -2  547.05   42.10
  -8   3   2  522.05   42.10
   8   3  -2  587.74   45.70
  -8   3   2  495.75   50.69
   8   3  -2  524.15   33.70
  -8   3   2  530.25   48.30
  -8   3   2  530.45   46.70
   8   3  -2  448.86   40.00
   7  -3  -2  593.34   39.10
  -7  -3   2  625.54   38.10
   7  -3  -2  548.55   28.90
  -7  -3   2  534.15   46.90
  -7  -3   2  553.54   32.00
   7  -3  -2  558.94   40.10
  -7  -3   2  547.45   43.20
  -7  -3   2  553.74   37.90
  -7   3   2  542.65   38.40
  -7   3   2  608.34   42.30
   7   3  -2  622.84   33.20
  -7   3   2  559.34   38.40
   7   3  -2  609.34   38.10
   7   3  -2  612.54   33.90
   7   3  -2  626.44   27.10
  -7   3   2  477.75   46.70
  -7   3   2  605.64   43.30
   7   3  -2  608.64   41.90
   6  -3  -2   16.50   11.20
   6  -3  -2   14.40   17.40
  -6  -3   2   24.50   17.30
   6  -3  -2   20.20   15.10
  -6  -3   2   37.40   17.90
  -6  -3   2   27.30   12.00
   6  -3  -2   28.50   12.20
  -6  -3   2   33.40   17.30
  -6  -3   2   17.00   14.70
  -6  -3   2   15.60   13.20
  -6   3   2   25.10   17.60
   6   3  -2   12.50   14.20
  -6   3   2   38.10   16.70
  -6   3   2    9.30   12.90
  -6   3   2    6.30   13.50
   6   3  -2   22.70    5.40
   6   3  -2   16.90    9.80
  -6   3   2    8.60   15.20
   6   3  -2   13.40   12.10
  -6   3   2    9.90   19.00
   6   3  -2   25.60   12.20
  -5  -3   2 1086.49   43.60
  -5  -3   2 1150.88   44.90
   5  -3  -2 1143.39   40.00
   5  -3  -2 1098.99   42.50
  -5  -3   2 1192.68   49.50
  -5  -3   2 1093.59   46.70
   5  -3  -2 1180.48   31.30
  -5  -3   2 1183.08   37.60
   5  -3  -2 1043.00   49.40
  -5  -3   2 1248.18   44.60
   5  -3  -2 1145.39   46.20
   5  -3  -2 1119.19   39.10
  -5  -3   2 1198.38   45.10
  -5  -3   2 1120.09   41.70
   5  -3  -2 1179.38   44.50
   5  -3  -2 1130.39   45.60
   5   3  -2 1062.19   43.60
   5   3  -2 1177.48   37.30
  -5   3   2 1080.19   47.30
   5   3  -2 1158.28   39.50
  -5   3   2 1128.49   43.40
  -5   3   2 1171.18   45.70
   5   3  -2 1132.19   41.80
  -5   3   2 1115.69   43.50
   5   3  -2 1143.59   32.60
   5   3  -2 1233.08   45.10
  -5   3   2 1099.59   45.90
  -5   3   2 1151.38   43.60
  -5   3   2 1097.59   46.40
  -5   3   2 1102.09   46.00
   5   3  -2 1111.49   43.00
   5   3  -2 1105.09   45.40
   4  -3  -2   21.70    5.90
   4  -3  -2   16.10    9.40
  -4  -3   2   19.80   10.10
   4  -3  -2   31.70    9.90
  -4  -3   2   22.90    8.90
   4  -3  -2   23.00    8.90
  -4  -3   2   16.20   10.50
   4  -3  -2   27.50   11.10
   4  -3  -2   25.30   11.70
   4  -3  -2   21.80   10.80
  -4  -3   2   46.80   13.10
   4  -3  -2   24.00   12.50
   4  -3  -2   32.00   11.30
  -4  -3   2   23.10   10.70
  -4  -3   2   26.30   11.20
  -4  -3   2   23.70    9.40
  -4  -3   2   21.00   12.30
  -4   3   2   74.69   14.60
   4   3  -2   36.20   10.80
   4   3  -2   21.80    8.20
   4   3  -2   19.30   10.80
  -4   3   2   17.00    9.60
  -4   3   2   22.80   11.80
  -4   3   2   36.80   12.70
  -4   3   2   29.80   10.90
   4   3  -2  -11.60   10.80
  -4   3   2   31.20   11.00
   4   3  -2   23.40    9.60
  -4   3   2   15.40   12.30
  -4   3   2   20.80   11.50
   4   3  -2   23.40    6.50
   4   3  -2   26.90   12.10
  -3  -3   2  525.95   26.00
   3  -3  -2  556.94   26.30
   3  -3  -2  505.35   25.60
   3  -3  -2  531.35   25.30
   3  -3  -2  562.54   25.80
  -3  -3   2  560.64   25.30
  -3  -3   2  540.55   25.20
  -3  -3   2  585.64   24.10
   3  -3  -2  510.05   25.00
  -3  -3   2  510.15   23.30
  -3  -3   2  502.95   25.60
  -3  -3   2  515.55   21.20
   3  -3  -2  572.54   23.50
   3  -3  -2  547.25   26.30
   3  -3  -2  484.55   20.40
  -3  -3   2  541.75   23.60
   3  -3  -2  511.45   24.00
  -3   3   2  503.45   26.30
  -3   3   2  560.64   21.00
   3   3  -2  516.55   27.00
  -3   3   2  527.75   26.70
   3   3  -2  595.44   23.60
  -3   3   2  559.74   25.30
   3   3  -2  553.44   22.70
   3   3  -2  509.65   24.10
   3   3  -2  543.25   25.10
  -3   3   2  537.25   25.20
   3   3  -2  526.45   24.80
  -3   3   2  527.55   30.60
  -3   3   2  563.74   25.90
   3   3  -2  520.35   19.50
  -3   3   2  542.55   24.20
  -2  -3   2 1256.67   37.20
   2  -3  -2 1305.37   40.10
  -2  -3   2 1242.48   37.20
  -2  -3   2 1220.98   40.40
   2  -3  -2 1257.17   39.70
   2  -3  -2 1190.78   36.80
  -2  -3   2 1265.97   38.70
  -2  -3   2 1270.47   36.30
   2  -3  -2 1301.17   40.20
   2  -3  -2 1237.58   39.70
  -2  -3   2 1177.08   38.70
  -2  -3   2 1191.58   37.00
  -2  -3   2 1217.78   37.10
  -2  -3   2 1225.38   39.70
   2  -3  -2 1173.58   37.20
   2  -3  -2 1192.18   39.30
   2  -3  -2 1281.37   37.50
   2   3  -2 1214.28   40.40
   2   3  -2 1272.87   38.70
  -2   3   2 1288.27   39.90
  -2   3   2 1229.38   37.50
  -2   3   2 1258.57   36.90
  -2   3   2 1145.89   39.00
  -2   3   2 1246.68   37.70
  -2   3   2 1176.68   37.40
   2   3  -2 1250.37   38.10
   2   3  -2 1261.67   38.00
   2   3  -2 1292.77   37.40
   2   3  -2 1312.57   40.40
  -2   3   2 1274.27   40.70
  -2   3   2 1308.17   39.50
   2   3  -2 1150.68   37.10
  -1  -3   2   64.19    7.90
   1  -3  -2   52.79    8.30
  -1  -3   2   58.19    8.00
  -1  -3   2   53.39    7.30
   1  -3  -2   67.69    9.30
  -1  -3   2   58.09   10.50
   1  -3  -2   61.89    9.70
   1  -3  -2   49.99    8.40
   1  -3  -2   50.89    8.70
  -1  -3   2   56.99    8.30
  -1  -3   2   60.09    8.50
  -1  -3   2   54.09    8.70
   1  -3  -2   57.29    8.70
   1   3  -2   76.39    9.80
  -1   3   2   55.39    9.80
   1   3  -2   52.99    7.70
  -1   3   2   47.40    8.30
  -1   3   2   75.99   10.30
   1   3  -2   45.50    8.80
   1   3  -2   78.99    9.40
  -1   3   2   52.79   10.30
  -1   3   2   53.89    7.10
   1   3  -2   68.79    9.30
   1   3  -2   72.69    9.30
   1   3  -2   63.29    8.00
  -1   3   2   60.09   10.60
  -1   3   2   50.29    8.10
   0  -3  -2 2646.24   63.69
   0  -3   2 2542.95   63.79
   0  -3  -2 2504.05   71.79
   0  -3   2 2662.13   64.69
   0  -3  -2 2730.53   66.09
   0  -3   2 2643.34   64.19
   0  -3   2 2573.84   65.59
   0  -3  -2 2626.84   66.99
   0  -3  -2 2549.15   68.39
   0  -3   2 2690.83   65.89
   0  -3  -2 2841.22   67.49
   0  -3   2 2556.44   59.39
   0  -3  -2 2617.74   66.69
   0   3  -2 2708.73   66.09
   0   3  -2 2581.64   66.29
   0   3  -2 2550.44   64.49
   0   3  -2 2687.63   64.69
   0   3   2 2554.34   64.79
   0   3  -2 2496.65   65.59
   0   3   2 2523.55   70.19
   0   3  -2 2709.23   65.09
   0   3   2 2692.43   66.49
   0   3   2 2559.84   68.29
   0   3   2 2750.32   67.19
   0   3   2 2502.95   63.79
   0   3   2 2651.63   65.09
   0   3   2 2483.65   71.69
   0   3  -2 2515.25   67.29
  -1  -3  -2 1437.16   38.50
  -1  -3  -2 1369.96   39.10
  -1  -3  -2 1342.47   38.90
  -1  -3  -2 1364.46   37.70
   1  -3   2 1392.26   35.20
   1  -3   2 1382.16   37.30
   1  -3   2 1457.85   39.70
  -1  -3  -2 1410.56   37.90
  -1  -3  -2 1401.76   42.00
   1  -3   2 1415.26   39.10
   1  -3   2 1323.57   37.70
   1  -3   2 1389.56   42.40
   1  -3   2 1434.26   41.70
   1   3   2 1332.77   38.60
  -1   3  -2 1370.76   36.90
   1   3   2 1389.96   41.50
  -1   3  -2 1411.26   39.80
  -1   3  -2 1415.46   36.80
  -1   3  -2 1440.86   38.10
   1   3   2 1356.16   37.00
   1   3   2 1378.16   38.80
  -1   3  -2 1401.36   40.40
  -1   3  -2 1339.17   38.00
   1   3   2 1374.16   36.60
   1   3   2 1340.57   38.10
  -1   3  -2 1382.26   41.80
   1   3   2 1360.36   37.40
   2  -3   2 4583.14  104.39
  -2  -3  -2 4590.94  106.79
  -2  -3  -2 4311.87  101.49
   2  -3   2 4373.66  109.39
  -2  -3  -2 3982.50  109.89
  -2  -3  -2 4587.34  105.09
   2  -3   2 4549.74  108.49
   2  -3   2 4515.05  106.99
  -2  -3  -2 4200.18  103.79
  -2  -3  -2 4383.36   98.19
  -2  -3  -2 4472.65  108.99
   2  -3   2 4421.36  110.09
   2  -3   2 4429.56  102.39
  -2   3  -2 4477.45  105.09
  -2   3  -2 4506.55  106.19
   2   3   2 4502.05  109.29
   2   3   2 4353.46  101.99
  -2   3  -2 4050.29  109.79
  -2   3  -2 4338.37  111.29
  -2   3  -2 4366.66  108.99
  -2   3  -2 4395.06  105.09
   2   3   2 4429.66  104.99
   2   3   2 4464.55  111.99
   2   3   2 4426.16  102.79
  -2   3  -2 4418.36  102.99
   2   3   2 4368.66  101.99
   2   3   2 4435.46  105.69
  -2   3  -2 4323.87  103.59
   3  -3   2   19.50    9.70
  -3  -3  -2    8.40    5.40
  -3  -3  -2   20.10    7.50
  -3  -3  -2   -4.50    5.50
  -3  -3  -2    6.20    6.40
  -3  -3  -2    4.60    4.30
   3  -3   2    6.40   11.30
  -3  -3  -2    5.30    6.50
  -3  -3  -2    1.70    9.00
   3  -3   2    7.90    8.50
   3  -3   2   15.20    5.20
   3   3   2   12.20    5.70
  -3   3  -2   -2.40    6.40
   3   3   2   -2.10    5.10
  -3   3  -2   13.30    6.80
  -3   3  -2   -3.00   10.30
  -3   3  -2   11.80    6.10
  -3   3  -2    1.10    5.20
   3   3   2   12.00   11.60
  -3   3  -2    7.10    5.60
   3   3   2    4.50   10.30
   3   3   2   12.90    3.80
  -3   3  -2    4.80    5.40
   3   3   2   34.00    8.70
   3   3   2    9.00    5.40
  -3   3  -2    3.10   11.20
  -4  -3  -2 2185.98   56.09
   4  -3   2 2206.28   54.59
  -4  -3  -2 1969.10   66.29
   4  -3   2 2214.08   64.89
   4  -3   2 2138.69   53.89
  -4  -3  -2 2046.10   58.99
  -4  -3  -2 2210.18   58.89
  -4  -3  -2 2000.50   59.59
  -4  -3  -2 2179.48   66.99
  -4  -3  -2 2135.09   57.79
   4  -3   2 2028.60   66.89
   4   3   2 2095.79   56.19
  -4   3  -2 2074.79   62.09
  -4   3  -2 2121.89   58.99
  -4   3  -2 2237.68   57.19
  -4   3  -2 2049.49   56.89
  -4   3  -2 2025.60   66.29
   4   3   2 2218.48   68.59
  -4   3  -2 2203.08   54.19
   4   3   2 2097.19   57.79
  -4   3  -2 2172.58   58.89
   4   3   2 2169.58   60.59
   4   3   2 2202.58   68.29
  -4   3  -2 2268.47   62.49
  -5  -3  -2  555.54   26.90
   5  -3   2  520.35   33.90
  -5  -3  -2  543.15   26.90
   5  -3   2  544.65   31.50
   5  -3   2  565.34   19.60
  -5  -3  -2  571.24   27.60
   5  -3   2  556.94   20.40
  -5  -3  -2  607.24   26.70
  -5  -3  -2  521.45   34.40
  -5  -3  -2  571.64   28.40
   5   3   2  528.75   33.10
   5   3   2  536.95   23.50
  -5   3  -2  556.54   15.40
  -5   3  -2  533.25   25.60
  -5   3  -2  644.24   30.70
  -5   3  -2  601.24   24.80
  -5   3  -2  598.34   36.30
  -5   3  -2  563.34   32.40
  -5   3  -2  546.45   26.70
   6  -3   2  601.44   20.20
   6  -3   2  572.24   39.60
  -6  -3  -2  574.74   32.20
  -6  -3  -2  578.44   30.90
  -6  -3  -2  599.34   31.20
   6  -3   2  582.14   20.80
  -6  -3  -2  618.74   25.30
  -6  -3  -2  563.94   41.00
  -6  -3  -2  612.04   30.30
  -6   3  -2  579.24   36.20
  -6   3  -2  552.24   34.90
   6   3   2  555.04   37.20
  -6   3  -2  617.74   31.60
  -6   3  -2  566.94   39.50
   6   3   2  601.94   26.50
   6   3   2  593.84   38.50
  -7  -3  -2  620.24   37.10
   7  -3   2  632.04   44.60
  -7  -3  -2  631.64   37.00
  -7  -3  -2  609.44   34.50
   7  -3   2  624.54   40.20
  -7  -3  -2  678.53   50.49
  -7   3  -2  645.54   36.00
   7   3   2  615.44   27.80
  -7   3  -2  635.94   35.70
  -7   3  -2  675.53   43.80
   7   3   2  633.84   44.90
  -7   3  -2  625.84   49.40
  -8  -3  -2   15.90   23.20
  -8  -3  -2   38.80   20.40
   8  -3   2   54.29   25.50
   8  -3   2   33.50   19.70
  -8   3  -2   24.80   35.20
  -8   3  -2   27.80   20.00
   8   3   2   39.30   23.40
  -8   3  -2   22.30   24.30
  -9  -4   2   27.30   33.30
  -9  -4   2   40.00   27.20
  -9  -4   2   50.99   35.30
  -9  -4   2   38.40   36.70
   9  -4  -2   45.60   24.10
  -9   4   2   46.20   28.20
  -9   4   2  -18.80   31.60
   9   4  -2   40.20   23.20
  -9   4   2   36.60   33.70
  -9   4   2   79.49   35.50
   9   4  -2   26.50   18.60
  -8  -4   2 1342.47   66.09
   8  -4  -2 1254.77   60.79
  -8  -4   2 1410.46   61.79
  -8  -4   2 1406.66   72.99
  -8  -4   2 1337.17   49.60
   8  -4  -2 1295.77   45.10
  -8   4   2 1544.05   65.89
  -8   4   2 1366.86   69.79
   8   4  -2 1224.28   60.19
   8   4  -2 1241.48   51.29
  -8   4   2 1276.37   65.59
   8   4  -2 1375.86   65.59
  -8   4   2 1229.28   70.69
   7  -4  -2   30.70   12.00
  -7  -4   2  -13.70   32.80
  -7  -4   2   -3.50   20.50
  -7  -4   2    1.00   15.50
  -7  -4   2   20.20   16.90
   7  -4  -2   12.20   15.40
   7  -4  -2   16.40   17.70
  -7  -4   2   -2.00   17.40
  -7   4   2    0.10   28.60
   7   4  -2   39.60   14.70
   7   4  -2   12.40   16.80
   7   4  -2   55.39   17.80
  -7   4   2   39.30   19.20
   7   4  -2   -1.80   14.10
   7   4  -2   39.80   20.60
  -7   4   2   24.50   18.00
  -7   4   2    5.30   19.20
  -7   4   2    2.90   20.30
   6  -4  -2 3720.03   97.39
  -6  -4   2 3707.53  110.09
  -6  -4   2 3588.24   94.29
   6  -4  -2 3658.03   97.29
  -6  -4   2 3551.84  107.99
   6  -4  -2 3676.23  106.59
  -6  -4   2 3773.42  109.19
  -6  -4   2 3644.24  102.69
   6  -4  -2 3787.82  106.69
   6   4  -2 3625.64  100.69
   6   4  -2 3758.62   97.69
  -6   4   2 3843.22  105.89
   6   4  -2 3672.73   84.59
   6   4  -2 3663.73  106.89
   6   4  -2 3595.74   97.89
  -6   4   2 3760.32  109.49
  -6   4   2 3610.24  107.69
   6   4  -2 3663.83  107.19
  -6   4   2 3673.23  108.89
  -6   4   2 3695.53  111.89
   5  -4  -2   37.30   14.80
   5  -4  -2    0.10    9.80
   5  -4  -2   -0.90   11.40
   5  -4  -2    2.10    5.40
  -5  -4   2    8.90   11.80
  -5  -4   2    6.10   13.80
  -5  -4   2    6.00   12.90
  -5  -4   2   -3.80   13.10
   5  -4  -2   27.20   14.90
   5  -4  -2    1.10   13.10
  -5  -4   2   10.10   12.30
  -5  -4   2   -0.30    9.90
  -5   4   2   33.20   14.70
   5   4  -2    2.00   11.40
   5   4  -2   -5.50    5.30
  -5   4   2    8.00   13.50
   5   4  -2    2.00   15.50
   5   4  -2   29.70   11.30
  -5   4   2  -15.60   11.30
   5   4  -2   -0.60   13.80
  -5   4   2  -33.90   14.30
   5   4  -2    6.80   11.70
  -5   4   2   -8.50   10.90
   5   4  -2   -3.90   10.80
  -5   4   2   -4.10   12.20
  -4  -4   2 4331.77  115.39
  -4  -4   2 4423.06  114.89
  -4  -4   2 4390.16  111.79
   4  -4  -2 4230.28  114.19
  -4  -4   2 4552.74  111.89
   4  -4  -2 4312.87  123.19
   4  -4  -2 4470.85  114.59
   4  -4  -2 4289.37  110.69
  -4  -4   2 4369.66  117.99
   4  -4  -2 4354.56  106.69
   4  -4  -2 4285.37  116.59
   4  -4  -2 4458.45  110.69
  -4  -4   2 4317.27  113.09
   4  -4  -2 4227.48  113.99
  -4  -4   2 4579.74  107.89
   4  -4  -2 4321.67  114.69
  -4  -4   2 4274.87  114.89
   4   4  -2 4157.78  112.19
  -4   4   2 4190.98  116.89
  -4   4   2 4337.37  112.39
   4   4  -2 4485.15  114.69
   4   4  -2 4334.67  112.19
  -4   4   2 4330.47  113.59
  -4   4   2 4075.39  114.99
   4   4  -2 4460.25  109.99
  -4   4   2 4215.18  113.09
   4   4  -2 4462.25  110.99
   4   4  -2 4589.44  114.89
   4   4  -2 4475.85  115.89
   4   4  -2 4281.97  104.69
  -4   4   2 4211.48  115.39
  -4   4   2 4558.84  116.19
  -3  -4   2   -1.90    8.00
   3  -4  -2    3.00    9.40
   3  -4  -2   15.70    6.50
   3  -4  -2    6.10    9.60
  -3  -4   2    3.90    9.10
  -3  -4   2   27.10    9.00
   3  -4  -2    8.20    9.20
   3  -4  -2   -1.40    8.30
  -3  -4   2   16.90   11.30
   3  -4  -2    8.10   10.50
  -3  -4   2   22.40    9.60
  -3  -4   2   10.70    9.40
   3  -4  -2   14.40   10.40
   3  -4  -2    0.60    9.70
   3  -4  -2   10.60    8.30
  -3  -4   2    9.90    9.30
  -3  -4   2    9.60   10.30
   3   4  -2   16.80   10.00
  -3   4   2   18.90   10.00
  -3   4   2   16.90    8.50
   3   4  -2   25.10   10.20
   3   4  -2    1.50   10.20
  -3   4   2   19.90   12.10
  -3   4   2    8.00    7.30
   3   4  -2   12.90    8.20
  -3   4   2   28.90   11.00
   3   4  -2   15.60    9.70
  -3   4   2   10.30    9.00
   3   4  -2    2.90    8.10
   2  -4  -2 4792.02  116.89
  -2  -4   2 4546.25  113.39
   2  -4  -2 4681.03  114.19
   2  -4  -2 4489.15  115.89
   2  -4  -2 4372.66  115.39
  -2  -4   2 4643.94  113.09
   2  -4  -2 4406.86  113.29
  -2  -4   2 4498.25  115.99
  -2  -4   2 4384.96  111.69
   2  -4  -2 4745.53  116.09
  -2  -4   2 4825.92  112.69
   2  -4  -2 4766.92  113.29
  -2  -4   2 4763.52  116.19
  -2  -4   2 4757.82  111.49
   2  -4  -2 4678.63  115.29
  -2  -4   2 4653.03  115.49
  -2   4   2 4652.13  113.39
   2   4  -2 4705.73  114.99
  -2   4   2 4759.52  116.79
  -2   4   2 4476.25  113.69
  -2   4   2 4748.23  115.89
   2   4  -2 4466.05  113.69
  -2   4   2 4551.84  116.79
   2   4  -2 4462.65  116.59
  -2   4   2 4491.05  113.39
  -2   4   2 4567.74  112.89
   2   4  -2 4362.46  113.79
   2   4  -2 4550.84  112.39
   2   4  -2 4727.13  115.19
  -2   4   2 4436.96  116.59
   1  -4  -2  191.38   16.30
  -1  -4   2  165.98   17.20
  -1  -4   2  170.58   16.10
  -1  -4   2  195.38   14.40
   1  -4  -2  193.68   19.20
  -1  -4   2  188.78   16.30
  -1  -4   2  189.88   13.70
   1  -4  -2  211.68   15.00
  -1  -4   2  180.98   14.80
   1  -4  -2  193.08   16.90
   1  -4  -2  184.58   12.70
   1  -4  -2  203.28   16.70
  -1  -4   2  192.88   14.20
  -1  -4   2  173.08   10.60
   1  -4  -2  166.58   16.20
  -1   4   2  203.68   15.90
   1   4  -2  174.78   13.30
  -1   4   2  190.78   13.70
  -1   4   2  183.98   13.40
  -1   4   2  170.78   16.10
   1   4  -2  149.69   13.30
   1   4  -2  182.98   14.20
  -1   4   2  175.48   15.20
   1   4  -2  168.58   15.10
  -1   4   2  189.98   15.10
   1   4  -2  169.18   14.50
   0  -4  -2  283.97   16.60
   0  -4   2  276.77   16.00
   0  -4   2  274.07   18.00
   0  -4   2  264.37   14.60
   0  -4  -2  291.87   14.40
   0  -4  -2  265.17   17.90
   0  -4   2  291.97   14.60
   0  -4  -2  295.37   16.00
   0  -4  -2  288.27   15.80
   0  -4   2  282.27   15.40
   0  -4  -2  271.57   16.40
   0  -4   2  288.47   15.80
   0  -4   2  280.07   18.70
   0  -4   2  262.77   15.60
   0   4  -2  231.88   15.30
   0   4   2  290.27   16.50
   0   4  -2  270.97   15.60
   0   4   2  268.27   16.20
   0   4   2  264.17   15.60
   0   4  -2  273.77   14.70
   0   4   2  288.07   17.30
   0   4   2  276.97   15.10
   0   4  -2  258.97   17.40
   0   4   2  232.18   20.70
   0   4  -2  251.47   20.80
   0   4   2  288.37   15.80
   0   4  -2  271.17   14.90
   0   4  -2  243.18   16.60
   0   4   2  253.57   14.70
  -1  -4  -2  444.56   21.20
  -1  -4  -2  484.85   19.90
  -1  -4  -2  471.75   19.80
   1  -4   2  477.55   22.70
   1  -4   2  466.85   17.70
  -1  -4  -2  469.45   23.30
   1  -4   2  469.45   17.50
  -1  -4  -2  452.35   18.50
  -1  -4  -2  445.66   20.10
   1  -4   2  473.65   22.60
   1  -4   2  470.45   19.30
   1  -4   2  464.55   13.00
  -1  -4  -2  464.95   23.20
   1  -4   2  474.05   21.10
   1  -4   2  467.55   22.60
   1  -4   2  457.15   20.60
   1  -4   2  484.45   19.50
  -1  -4  -2  474.05   24.90
  -1   4  -2  463.85   19.80
   1   4   2  457.55   20.00
  -1   4  -2  485.05   21.40
  -1   4  -2  476.15   18.40
   1   4   2  465.55   20.20
   1   4   2  465.15   23.00
   1   4   2  482.35   19.10
  -1   4  -2  472.75   24.20
   1   4   2  460.35   22.20
   1   4   2  441.26   20.10
   1   4   2  459.55   18.90
  -1   4  -2  434.46   18.70
   1   4   2  457.55   12.90
  -1   4  -2  438.26   20.50
  -1   4  -2  477.95   21.90
   1   4   2  482.95   18.30
   2  -4   2  519.45   21.30
   2  -4   2  531.05   20.40
   2  -4   2  536.55   17.20
  -2  -4  -2  526.95   23.90
  -2  -4  -2  454.65   22.80
   2  -4   2  531.85   26.00
  -2  -4  -2  574.74   22.20
  -2  -4  -2  520.35   21.40
   2  -4   2  539.45   25.90
   2  -4   2  566.74   24.20
   2  -4   2  526.95   17.00
  -2  -4  -2  531.95   25.40
  -2  -4  -2  574.54   23.40
   2  -4   2  508.85   23.30
   2  -4   2  542.15   17.30
   2   4   2  561.34   21.90
  -2   4  -2  541.15   20.70
   2   4   2  532.25   22.80
  -2   4  -2  508.15   25.40
  -2   4  -2  538.85   20.00
  -2   4  -2  479.25   27.20
  -2   4  -2  543.55   22.70
  -2   4  -2  504.65   20.60
   2   4   2  548.25   25.30
  -2   4  -2  526.15   17.90
   2   4   2  534.45   19.50
   2   4   2  511.95   27.70
   2   4   2  509.25   19.80
   2   4   2  524.25   18.60
   3  -4   2   67.39   12.50
   3  -4   2   74.89    8.80
  -3  -4  -2   67.29   11.20
   3  -4   2   83.59   16.20
   3  -4   2   62.39    7.90
   3  -4   2   80.79   13.80
  -3  -4  -2   80.79   10.20
   3  -4   2   99.29   10.30
  -3  -4  -2   90.19   11.40
  -3  -4  -2   76.69    6.60
  -3  -4  -2   77.99   11.40
  -3  -4  -2   93.09   15.80
  -3  -4  -2   84.29   13.20
   3  -4   2   83.59   13.00
   3   4   2   77.69   10.30
  -3   4  -2   81.29   10.50
  -3   4  -2   83.69   10.60
   3   4   2  103.69   12.30
   3   4   2   74.99   16.80
  -3   4  -2   75.99    9.70
   3   4   2   70.59    7.40
  -3   4  -2   72.49   10.20
   3   4   2   84.89   15.10
  -3   4  -2   69.89    9.40
  -3   4  -2   68.79   15.20
   3   4   2   74.89   12.50
   3   4   2   61.19    8.10
  -3   4  -2   58.09    9.90
  -3   4  -2   81.79   15.80
   3   4   2   77.49    6.10
  -4  -4  -2 1387.36   37.20
   4  -4   2 1352.86   42.30
  -4  -4  -2 1363.96   44.10
  -4  -4  -2 1376.16   45.10
  -4  -4  -2 1277.37   44.70
   4  -4   2 1387.56   49.70
  -4  -4  -2 1343.77   43.40
  -4  -4  -2 1413.86   49.99
   4  -4   2 1442.26   41.20
  -4  -4  -2 1293.27   50.19
   4  -4   2 1352.46   50.99
  -4   4  -2 1387.16   43.90
   4   4   2 1395.66   53.19
  -4   4  -2 1342.07   42.40
   4   4   2 1345.27   41.70
  -4   4  -2 1487.95   48.60
   4   4   2 1341.47   42.90
   4   4   2 1474.25   53.39
  -4   4  -2 1187.28   48.40
   4   4   2 1394.06   36.20
  -4   4  -2 1383.16   42.50
   4   4   2 1363.86   35.40
   4   4   2 1386.76   46.20
  -4   4  -2 1320.87   43.10
  -4   4  -2 1350.36   52.29
  -4   4  -2 1282.57   50.59
  -4   4  -2 1312.27   43.70
   5  -4   2   93.89   18.00
   5  -4   2  134.69   21.20
  -5  -4  -2   97.19   12.10
   5  -4   2  122.09   12.60
  -5  -4  -2   93.29   15.80
  -5  -4  -2   91.59   14.50
  -5  -4  -2   86.89   18.30
  -5  -4  -2  131.59   15.40
  -5  -4  -2   94.89   14.40
  -5  -4  -2  120.49   16.10
   5  -4   2  140.39   16.20
  -5   4  -2   91.59    8.90
   5   4   2   80.39   12.10
  -5   4  -2   82.49   16.20
  -5   4  -2  119.89   15.40
   5   4   2   96.89   15.70
  -5   4  -2  128.19   15.00
  -5   4  -2  108.59   15.20
  -5   4  -2  104.89   18.80
   5   4   2   98.39   19.40
  -5   4  -2  117.19   14.80
   5   4   2  116.99   20.10
  -5   4  -2   86.29   21.20
  -5   4  -2  104.19   20.70
   5   4   2  101.59   14.70
  -6  -4  -2 1183.28   41.60
   6  -4   2 1108.09   35.30
  -6  -4  -2 1198.78   55.19
  -6  -4  -2 1168.18   42.50
   6  -4   2 1206.58   34.90
   6  -4   2 1140.49   54.69
  -6  -4  -2 1139.09   46.40
   6  -4   2 1191.48   50.59
  -6   4  -2 1188.18   49.30
   6   4   2 1131.19   54.19
   6   4   2 1169.78   53.59
  -6   4  -2 1196.28   57.39
  -6   4  -2 1137.09   44.40
  -6   4  -2 1130.19   44.70
  -6   4  -2 1154.18   45.40
   7  -4   2   -0.50   16.40
  -7  -4  -2   -6.50   14.10
  -7  -4  -2   -0.20   22.60
   7  -4   2   -9.00   18.70
  -7  -4  -2   10.80   15.70
  -7   4  -2   34.00   24.30
   7   4   2    2.20   17.90
  -7   4  -2    3.90   14.70
  -7   4  -2    6.80   18.90
  -7   4  -2  -22.70   14.90
   7   4   2   29.00   20.60
  -8  -4  -2 1059.19   70.29
   8  -4   2 1135.59   65.29
   8  -4   2 1204.98   57.99
  -8  -4  -2 1132.69   58.69
  -8  -4  -2 1086.59   53.39
   8   4   2 1150.78   63.89
  -8   4  -2 1122.79   54.89
  -8   4  -2 1243.18   64.39
  -8   4  -2 1016.60   82.09
  -8   4  -2 1140.79   54.79
   8  -5  -2  241.28   35.80
   8  -5  -2  213.68   25.40
  -8  -5   2  182.08   35.80
  -8  -5   2  216.98   32.20
  -8  -5   2  228.98   41.90
   8  -5  -2  205.18   29.90
  -8   5   2  222.58   38.60
   8   5  -2  223.08   31.90
  -8   5   2  203.78   48.70
  -8   5   2  177.48   31.50
   8   5  -2  140.39   30.30
   8   5  -2  258.97   27.60
  -7  -5   2 1068.29   41.60
  -7  -5   2 1012.40   48.60
   7  -5  -2 1012.50   52.79
   7  -5  -2 1019.50   51.39
   7  -5  -2  991.20   52.39
   7  -5  -2 1003.10   40.80
  -7  -5   2  998.30   57.89
  -7  -5   2 1001.50   53.29
   7   5  -2  999.00   50.39
   7   5  -2  993.40   52.09
   7   5  -2  876.01   54.09
  -7   5   2 1087.89   52.89
  -7   5   2  938.21   53.69
   7   5  -2 1003.00   45.90
  -7   5   2 1015.30   59.49
   7   5  -2  947.81   51.39
  -6  -5   2   19.50   14.00
   6  -5  -2    0.80   11.60
   6  -5  -2   23.50   15.60
   6  -5  -2   10.20   17.10
   6  -5  -2   22.90   17.60
  -6  -5   2   34.10   18.60
  -6  -5   2   37.90   15.90
  -6  -5   2   57.39   23.40
  -6  -5   2   36.60   16.60
   6   5  -2   41.40   16.90
  -6   5   2   58.29   21.60
   6   5  -2   37.80   17.60
   6   5  -2    5.20   16.80
   6   5  -2   17.60   14.00
  -6   5   2   26.40   18.80
  -6   5   2  -15.90   24.00
   6   5  -2    8.00   16.80
   6   5  -2   25.00   15.10
  -6   5   2   10.30   14.80
  -5  -5   2 2147.09   64.19
   5  -5  -2 2122.99   75.99
  -5  -5   2 2136.09   67.89
  -5  -5   2 2225.88   67.39
   5  -5  -2 2137.19   71.29
  -5  -5   2 2106.69   72.09
   5  -5  -2 2123.39   63.79
  -5  -5   2 2093.79   72.19
   5  -5  -2 2222.88   64.99
   5  -5  -2 2178.48   91.39
   5  -5  -2 2129.89   58.89
  -5  -5   2 2121.19   70.89
  -5   5   2 2140.19   72.49
   5   5  -2 2240.88   72.89
   5   5  -2 2107.39   55.59
   5   5  -2 2129.69   66.89
  -5   5   2 2151.68   75.49
  -5   5   2 2103.19   68.39
  -5   5   2 2260.87   72.49
   5   5  -2 2162.48   67.69
   5   5  -2 2179.08   65.29
  -5   5   2 2125.49   73.59
   5   5  -2 2146.19   65.89
   4  -5  -2   18.10   10.80
  -4  -5   2   -4.70   15.90
  -4  -5   2   11.00   11.30
  -4  -5   2   18.00   12.50
  -4  -5   2   29.20   12.50
   4  -5  -2   52.39   15.30
   4  -5  -2   37.80   12.10
  -4  -5   2   39.10   14.40
   4  -5  -2   11.50   14.90
   4  -5  -2   89.79   16.30
   4  -5  -2   31.30   12.10
  -4  -5   2   22.60   12.00
  -4  -5   2   21.00   14.80
   4  -5  -2   35.60   15.60
  -4  -5   2   25.00   12.50
   4  -5  -2   85.79   18.20
   4   5  -2   45.70   12.00
  -4   5   2   39.70   14.50
   4   5  -2    8.10   11.30
  -4   5   2   24.40   13.30
   4   5  -2   23.00   13.40
  -4   5   2   18.80   15.00
  -4   5   2   55.69   14.10
  -4   5   2   21.40   14.10
   4   5  -2   33.10   12.30
   4   5  -2   28.20    7.00
   4   5  -2    9.10   10.70
  -4   5   2   17.60   12.30
  -4   5   2   31.90   12.40
  -4   5   2    8.40    9.60
  -4   5   2  -10.80   11.50
   4   5  -2   22.20   14.20
   4   5  -2   37.50   13.50
   3  -5  -2 1091.19   41.90
  -3  -5   2 1052.09   40.50
  -3  -5   2  975.50   40.10
   3  -5  -2 1044.10   41.30
  -3  -5   2 1074.69   37.00
  -3  -5   2 1067.29   39.70
  -3  -5   2 1097.59   41.60
   3  -5  -2 1022.90   40.50
  -3  -5   2 1008.50   41.90
   3  -5  -2 1019.90   37.70
   3  -5  -2 1041.70   38.30
   3  -5  -2 1065.59   43.20
  -3  -5   2 1065.29   38.80
  -3  -5   2 1083.89   35.30
  -3  -5   2 1023.10   38.90
   3  -5  -2 1071.79   37.70
   3  -5  -2 1113.59   40.90
   3   5  -2  975.70   38.70
   3   5  -2 1080.69   40.10
   3   5  -2 1012.90   43.40
  -3   5   2 1071.99   36.90
  -3   5   2 1049.00   43.80
   3   5  -2 1009.60   38.60
  -3   5   2 1054.89   40.30
   3   5  -2 1074.59   36.80
  -3   5   2 1043.50   41.10
  -3   5   2 1079.79   40.10
  -3   5   2  965.40   40.80
  -3   5   2 1050.99   38.10
   3   5  -2 1049.20   41.20
  -3   5   2 1086.29   41.30
  -2  -5   2  173.88   16.90
  -2  -5   2  155.58   17.50
   2  -5  -2  142.29   17.10
   2  -5  -2  158.48   18.60
  -2  -5   2  171.28   14.20
   2  -5  -2  167.78   18.50
  -2  -5   2  144.79   16.50
   2  -5  -2  160.18   17.50
  -2  -5   2  135.89   17.80
  -2  -5   2  149.49   16.50
   2  -5  -2  154.68   18.40
   2  -5  -2  133.89   15.40
  -2  -5   2  153.08   15.40
  -2  -5   2  165.68   15.40
   2  -5  -2  164.68   18.50
   2  -5  -2  159.58   17.30
  -2  -5   2  155.78   17.80
  -2   5   2  157.48   18.80
   2   5  -2  135.29   15.50
  -2   5   2  191.78   17.60
  -2   5   2  143.09   15.70
   2   5  -2  144.09   19.40
  -2   5   2  174.48   17.50
   2   5  -2  166.28   20.80
  -2   5   2  169.08   15.80
   2   5  -2  154.98   16.50
  -2   5   2  162.88   17.30
   2   5  -2  158.48   17.50
  -2   5   2  147.29   17.40
   2   5  -2  141.79   15.40
  -2   5   2  154.38   18.30
   2   5  -2  189.68   15.80
  -1  -5   2  925.01   32.70
   1  -5  -2  901.21   36.30
  -1  -5   2  930.01   34.70
  -1  -5   2  895.51   28.60
  -1  -5   2  838.62   35.20
   1  -5  -2 1007.00   35.40
  -1  -5   2  968.90   34.50
   1  -5  -2  973.80   35.10
   1  -5  -2 1081.49   50.29
   1  -5  -2  951.50   32.20
  -1  -5   2  941.61   35.50
   1  -5  -2  962.80   35.30
   1  -5  -2  912.51   35.40
  -1  -5   2  877.41   31.70
   1  -5  -2  925.11   33.10
   1  -5  -2  876.91   35.30
  -1  -5   2  911.41   35.20
  -1  -5   2  962.20   33.50
  -1   5   2  913.71   35.80
  -1   5   2  910.31   32.10
  -1   5   2  867.51   36.80
   1   5  -2  928.11   33.40
  -1   5   2  874.21   32.40
   1   5  -2  870.31   36.30
  -1   5   2  968.30   34.10
  -1   5   2  930.61   34.70
  -1   5   2  975.40   34.70
   1   5  -2  956.40   32.20
   1   5  -2  931.11   35.30
   1   5  -2  995.10   34.70
  -1   5   2  881.51   33.60
   0  -5   2  680.13   29.40
   0  -5   2  764.32   26.20
   0  -5  -2  706.83   30.30
   0  -5  -2  667.03   26.80
   0  -5   2  683.03   30.50
   0  -5   2  708.03   27.60
   0  -5  -2  721.93   28.70
   0  -5  -2  626.04   32.00
   0  -5  -2  700.93   26.30
   0  -5  -2  643.14   33.70
   0  -5   2  683.13   29.10
   0  -5   2  683.73   25.40
   0  -5   2  720.63   27.80
   0  -5   2  697.63   27.30
   0  -5  -2  714.93   28.50
   0  -5  -2  715.53   27.00
   0   5   2  680.93   28.80
   0   5   2  672.63   26.30
   0   5  -2  731.63   26.60
   0   5   2  676.93   27.00
   0   5   2  667.33   28.50
   0   5  -2  712.53   27.50
   0   5   2  671.83   26.40
   0   5  -2  728.73   28.10
   0   5   2  654.73   28.20
   0   5  -2  702.63   29.00
   0   5  -2  691.83   27.30
   0   5   2  688.63   27.90
   0   5  -2  624.84   31.70
   0   5   2  677.93   38.10
   0   5  -2  616.04   34.20
   0   5  -2  684.13   27.80
   1  -5   2  592.04   25.10
  -1  -5  -2  632.14   29.60
  -1  -5  -2  598.74   25.50
   1  -5   2  656.03   25.50
  -1  -5  -2  645.74   25.50
   1  -5   2  592.44   28.30
  -1  -5  -2  642.24   26.90
   1  -5   2  570.04   27.60
   1  -5   2  558.64   23.70
  -1  -5  -2  606.44   26.90
   1  -5   2  624.04   18.10
  -1  -5  -2  609.84   29.40
  -1  -5  -2  611.04   25.10
   1  -5   2  593.04   26.50
   1  -5   2  658.93   26.80
   1  -5   2  619.44   24.90
   1   5   2  640.34   24.20
  -1   5  -2  621.94   24.30
   1   5   2  661.83   29.60
   1   5   2  612.74   29.50
  -1   5  -2  624.74   26.90
  -1   5  -2  520.25   30.90
   1   5   2  587.24   26.00
  -1   5  -2  624.44   25.70
   1   5   2  623.64   26.30
   1   5   2  637.84   24.50
  -1   5  -2  618.74   27.10
   1   5   2  628.54   26.60
   1   5   2  619.74   18.30
   1   5   2  622.84   28.50
  -1   5  -2  611.84   30.30
   2  -5   2 1403.06   42.60
   2  -5   2 1425.36   40.00
   2  -5   2 1466.15   46.80
   2  -5   2 1452.65   37.20
  -2  -5  -2 1424.96   49.10
   2  -5   2 1444.06   39.90
  -2  -5  -2 1478.25   45.90
  -2  -5  -2 1478.95   44.40
   2  -5   2 1413.66   46.10
  -2  -5  -2 1365.36   43.70
  -2  -5  -2 1394.06   45.80
  -2  -5  -2 1532.65   46.90
   2  -5   2 1429.66   48.30
   2  -5   2 1436.76   48.70
   2   5   2 1386.06   46.20
   2   5   2 1441.26   40.30
  -2   5  -2 1406.56   49.60
  -2   5  -2 1421.36   43.60
   2   5   2 1440.76   50.19
   2   5   2 1430.96   34.00
   2   5   2 1369.06   43.90
  -2   5  -2 1411.76   41.90
  -2   5  -2 1336.17   44.20
   2   5   2 1411.26   41.30
  -2   5  -2 1251.37   46.00
   2   5   2 1388.46   47.00
   2   5   2 1414.36   45.10
  -2   5  -2 1474.55   45.20
  -3  -5  -2    4.00    9.10
   3  -5   2   -3.20   12.30
   3  -5   2   -0.10    5.60
   3  -5   2   18.30   13.20
  -3  -5  -2    9.00    8.80
   3  -5   2    5.90    4.70
   3  -5   2   -0.70    4.20
   3  -5   2  -13.40    9.80
   3  -5   2    0.00    6.50
   3  -5   2   15.50   11.50
  -3  -5  -2   16.80   12.50
   3  -5   2   -4.70    9.00
  -3  -5  -2    6.80    9.70
  -3  -5  -2   10.70   10.80
  -3  -5  -2    1.40   10.20
   3   5   2   -1.20    6.20
   3   5   2    8.70    8.00
   3   5   2   16.50    5.10
  -3   5  -2    2.00    6.90
   3   5   2   11.70    9.40
   3   5   2   -9.60   11.30
  -3   5  -2   -2.90    8.50
  -3   5  -2   -1.00   12.30
   3   5   2    7.20    8.00
   3   5   2   28.90   12.10
  -3   5  -2   11.70    8.30
  -3   5  -2    6.50    8.80
  -3   5  -2    7.70   12.00
  -3   5  -2    7.80    7.70
   4  -5   2  764.82   30.70
  -4  -5  -2  743.83   34.40
  -4  -5  -2  765.92   33.80
   4  -5   2  747.23   29.10
  -4  -5  -2  714.63   39.40
  -4  -5  -2  670.33   32.20
  -4  -5  -2  765.02   32.80
   4  -5   2  728.33   40.40
   4  -5   2  730.73   36.10
   4  -5   2  722.03   27.30
  -4  -5  -2  760.82   22.20
  -4  -5  -2  716.43   33.40
   4   5   2  757.82   39.70
   4   5   2  755.72   36.30
  -4   5  -2  758.42   28.40
   4   5   2  771.82   25.10
  -4   5  -2  749.73   36.10
  -4   5  -2  762.72   32.10
  -4   5  -2  828.82   32.20
   4   5   2  694.53   30.70
  -4   5  -2  732.53   37.90
   4   5   2  708.63   31.50
  -4   5  -2  749.33   32.40
  -4   5  -2  775.82   32.80
   4   5   2  774.52   40.70
  -4   5  -2  738.83   40.10
   4   5   2  755.82   27.90
  -5  -5  -2  812.72   44.60
   5  -5   2  824.32   45.60
   5  -5   2  758.32   40.30
   5  -5   2  984.10   44.20
  -5  -5  -2  787.42   35.50
  -5  -5  -2  839.82   36.40
  -5  -5  -2  768.72   31.70
  -5  -5  -2  860.31   39.20
  -5  -5  -2  784.42   36.60
  -5   5  -2  820.72   37.10
   5   5   2  783.92   44.50
   5   5   2  825.62   46.20
   5   5   2  823.42   35.20
  -5   5  -2  774.72   35.50
  -5   5  -2  797.92   37.40
  -5   5  -2  795.82   45.60
  -5   5  -2  785.62   36.90
  -5   5  -2  766.42   44.40
   5   5   2  803.02   21.80
   5   5   2  809.82   40.00
  -6  -5  -2  306.57   28.90
   6  -5   2  311.77   20.70
  -6  -5  -2  291.47   25.30
   6  -5   2  351.96   36.50
   6  -5   2  308.17   31.50
  -6  -5  -2  329.77   33.30
  -6  -5  -2  275.07   29.00
  -6  -5  -2  225.78   30.10
  -6  -5  -2  331.77   23.20
   6   5   2  374.46   36.10
   6   5   2  320.17   26.50
   6   5   2  275.87   33.20
  -6   5  -2  320.97   33.20
  -6   5  -2  323.37   27.80
  -6   5  -2  287.47   29.60
  -6   5  -2  316.37   37.70
  -6   5  -2  290.67   37.50
  -6   5  -2  342.97   27.80
  -7  -5  -2 1405.46   70.69
  -7  -5  -2 1382.56   60.79
  -7  -5  -2 1425.46   55.99
   7  -5   2 1341.67   66.89
   7  -5   2 1468.35   62.39
   7   5   2 1320.27   65.59
  -7   5  -2 1331.07   55.09
  -7   5  -2 1283.97   71.89
  -7   5  -2 1341.57   70.59
  -7   5  -2 1355.66   56.49
  -7   5  -2 1462.45   60.59
  -8  -5  -2   26.90   22.00
  -8  -5  -2   28.00   23.80
   8  -5   2   34.20   25.70
  -8  -5  -2   14.30   30.80
   8  -5   2   24.20   20.90
  -8   5  -2  -52.09   30.00
   8   5   2    9.20   25.10
  -8   5  -2   13.90   32.00
  -8   5  -2  -29.80   25.30
  -8   5  -2  -13.70   25.70
  -8   5  -2   19.10   33.80
  -8  -6   2   91.39   31.70
  -8  -6   2   55.89   26.80
   8  -6  -2  140.19   31.70
  -8  -6   2   81.49   34.50
   8  -6  -2   97.39   30.60
   8  -6  -2   94.39   18.00
  -8   6   2   91.89   35.00
   8   6  -2  101.59   22.10
  -8   6   2   98.89   36.20
   8   6  -2   67.59   22.00
  -8   6   2  121.19   34.20
  -8   6   2   97.39   35.20
  -8   6   2   79.79   27.90
   8   6  -2  109.49   30.50
   7  -6  -2  637.14   45.10
  -7  -6   2  664.33   52.49
  -7  -6   2  644.44   44.50
  -7  -6   2  671.73   38.40
  -7  -6   2  669.83   50.69
   7  -6  -2  657.73   46.20
   7  -6  -2  698.63   35.30
  -7   6   2  662.53   46.40
   7   6  -2  675.13   40.70
  -7   6   2  624.24   51.39
  -7   6   2  564.14   53.89
   7   6  -2  702.93   44.10
   7   6  -2  736.23   49.70
  -7   6   2  757.92   50.19
  -7   6   2  733.13   55.89
   6  -6  -2  175.28   19.30
   6  -6  -2  183.58   24.20
  -6  -6   2  236.68   26.80
  -6  -6   2  208.88   26.10
  -6  -6   2  159.58   26.30
   6  -6  -2  184.78   25.70
  -6  -6   2  213.88   25.20
   6  -6  -2  183.28   25.70
  -6   6   2  174.88   31.80
  -6   6   2  208.28   30.50
   6   6  -2  165.38   22.00
  -6   6   2  202.68   25.30
   6   6  -2  225.38   27.60
   6   6  -2  193.78   26.00
  -6   6   2  199.78   25.60
   6   6  -2  177.68   21.60
  -6   6   2  167.68   28.90
  -6   6   2  201.18   27.70
   5  -6  -2    3.30   14.90
   5  -6  -2   24.50   17.30
  -5  -6   2   24.00   14.90
   5  -6  -2  -18.20   15.90
  -5  -6   2    5.80   16.20
  -5  -6   2   -4.20   16.40
  -5  -6   2  -19.20   12.40
  -5  -6   2  -36.20   20.50
   5  -6  -2   17.10   12.10
  -5  -6   2    0.90   12.20
  -5   6   2   27.30   19.60
  -5   6   2    3.90   14.00
   5   6  -2   -1.60   15.90
   5   6  -2   -8.00   13.90
   5   6  -2   16.20    7.10
  -5   6   2   -0.70   11.20
   5   6  -2   19.80   17.10
   5   6  -2   16.70   12.60
  -5   6   2    8.80   15.50
   5   6  -2    6.20   13.90
  -5   6   2   -2.00   13.80
   5   6  -2    1.20   12.90
  -5   6   2  -24.20   21.20
  -5   6   2    8.30   14.40
  -4  -6   2  279.77   22.70
   4  -6  -2  232.98   23.20
   4  -6  -2  275.67   29.70
   4  -6  -2  256.27   26.90
  -4  -6   2  241.08   26.80
  -4  -6   2  240.98   23.30
   4  -6  -2  280.47   21.90
  -4  -6   2  244.58   22.70
   4  -6  -2  203.28   24.30
   4  -6  -2  226.18   26.80
  -4  -6   2  259.07   26.80
  -4   6   2  234.78   22.90
   4   6  -2  226.98   26.90
   4   6  -2  249.88   24.20
  -4   6   2  262.47   28.90
  -4   6   2  256.77   26.50
  -4   6   2  253.77   29.10
   4   6  -2  300.57   24.40
   4   6  -2  264.37   27.50
  -4   6   2  248.88   27.20
   4   6  -2  242.68   22.70
  -4   6   2  258.17   25.50
   3  -6  -2 1226.38   44.70
   3  -6  -2 1260.07   47.80
   3  -6  -2 1257.67   44.90
   3  -6  -2 1255.17   43.90
  -3  -6   2 1177.58   48.20
   3  -6  -2 1252.67   46.60
  -3  -6   2 1219.28   46.70
   3  -6  -2 1231.98   48.70
  -3  -6   2 1222.48   41.90
   3  -6  -2 1235.08   47.90
  -3  -6   2 1240.48   47.10
  -3  -6   2 1168.18   44.30
  -3  -6   2 1212.18   43.80
  -3  -6   2 1221.08   41.70
  -3  -6   2 1240.38   47.20
  -3  -6   2 1185.08   44.00
   3   6  -2 1211.08   42.60
  -3   6   2 1300.97   50.09
   3   6  -2 1240.48   47.60
   3   6  -2 1272.67   45.90
  -3   6   2 1207.38   45.60
   3   6  -2 1209.18   46.40
  -3   6   2 1318.87   48.40
   3   6  -2 1296.77   44.40
   3   6  -2 1234.98   49.20
  -3   6   2 1294.47   44.10
  -3   6   2 1165.88   46.80
  -3   6   2 1183.38   43.90
  -3   6   2 1202.18   45.90
   3   6  -2 1177.98   45.60
  -3   6   2 1171.68   46.10
   2  -6  -2   63.89   12.50
   2  -6  -2   60.29   13.30
  -2  -6   2   62.29   14.00
  -2  -6   2   65.79   14.40
  -2  -6   2   66.69   11.60
  -2  -6   2   78.19   14.20
  -2  -6   2   60.89   12.60
   2  -6  -2   98.49   16.10
  -2  -6   2   66.69   13.40
  -2  -6   2   55.79   11.80
   2  -6  -2   51.49   13.90
  -2  -6   2   85.29   14.70
   2  -6  -2   45.80   13.40
   2  -6  -2   34.20   12.50
   2  -6  -2   61.89   15.30
  -2  -6   2   31.10   13.40
   2  -6  -2   35.80   11.40
   2   6  -2   77.89   12.80
   2   6  -2   54.59   12.60
   2   6  -2   42.60   12.80
  -2   6   2   52.69   12.90
  -2   6   2   48.00   11.30
  -2   6   2   67.49   13.10
   2   6  -2   92.79   12.90
  -2   6   2   58.09   12.40
  -2   6   2   15.40   12.20
   2   6  -2   59.49   13.70
  -2   6   2   52.69   13.10
  -2   6   2   51.69   14.90
  -2   6   2   88.39   14.80
   2   6  -2   57.49   12.40
   2   6  -2   37.60   13.10
  -1  -6   2 2898.01   85.29
  -1  -6   2 2818.42   78.69
   1  -6  -2 2740.83   77.09
   1  -6  -2 2742.03   79.49
   1  -6  -2 2862.51   79.69
  -1  -6   2 2676.73   75.79
   1  -6  -2 2707.43   77.59
   1  -6  -2 2834.42   78.99
  -1  -6   2 2803.02   80.99
  -1  -6   2 2814.62   77.79
  -1  -6   2 2873.41   75.99
   1  -6  -2 2889.81   77.79
   1  -6  -2 2791.02   81.19
  -1  -6   2 2866.81   76.59
   1  -6  -2 2842.62   81.39
  -1  -6   2 2883.71   80.09
   1  -6  -2 2869.81   76.59
   1   6  -2 2889.61   76.29
  -1   6   2 2869.01   76.69
  -1   6   2 2731.43   77.19
  -1   6   2 2990.70   79.69
   1   6  -2 2670.43   80.89
   1   6  -2 2791.52   79.59
  -1   6   2 2796.32   74.89
  -1   6   2 2724.53   81.69
   1   6  -2 2702.33   75.99
  -1   6   2 2799.12   80.39
  -1   6   2 2791.22   78.79
   1   6  -2 2602.94   75.89
  -1   6   2 2892.71   79.99
   1   6  -2 2660.33   78.99
   1   6  -2 3043.30   79.79
   0  -6   2   23.40   11.80
   0  -6  -2    9.20   10.30
   0  -6   2   10.70   11.10
   0  -6   2   14.80   11.40
   0  -6   2   25.10    9.40
   0  -6   2   37.60   11.50
   0  -6   2   22.90   11.40
   0  -6   2   38.20    9.70
   0  -6  -2   15.60   10.60
   0  -6  -2   -2.20   12.30
   0  -6  -2   30.20   11.60
   0  -6  -2   19.70    9.40
   0  -6   2   20.20   11.70
   0  -6  -2    7.60   10.00
   0  -6  -2   17.40   10.00
   0  -6  -2   19.70   12.50
   0   6   2   25.10   10.70
   0   6  -2   10.60    9.60
   0   6   2   30.40   11.10
   0   6  -2   20.40    9.50
   0   6  -2   15.70    9.50
   0   6  -2   21.90   12.70
   0   6   2   15.10   10.10
   0   6  -2   18.30    9.10
   0   6   2   22.90    9.90
   0   6   2   -4.30   10.30
   0   6  -2   10.50    9.70
   0   6  -2   20.90   11.80
   0   6   2   36.20    9.50
   0   6   2    4.90    8.90
   0   6   2   26.50   10.60
   1  -6   2 4001.00   94.39
   1  -6   2 3991.30  103.99
   1  -6   2 4098.49  108.59
  -1  -6  -2 3906.01  103.19
   1  -6   2 4016.40  104.29
  -1  -6  -2 4186.28  104.39
   1  -6   2 3950.50  104.69
  -1  -6  -2 4178.38  105.99
   1  -6   2 3974.80  100.19
   1  -6   2 3979.20  100.49
  -1  -6  -2 3953.20  100.49
  -1  -6  -2 4011.60  108.79
  -1  -6  -2 4104.39  108.99
  -1  -6  -2 4140.39  103.79
  -1  -6  -2 3874.41  105.39
   1  -6   2 4064.59  108.69
   1  -6   2 3907.21  102.99
   1   6   2 3976.40   94.69
   1   6   2 4032.20  107.29
   1   6   2 4089.39  107.99
  -1   6  -2 4045.10  105.49
   1   6   2 4054.09  101.99
   1   6   2 3977.60  104.89
   1   6   2 3925.41  102.69
  -1   6  -2 4072.19  103.59
  -1   6  -2 3871.11  105.29
   1   6   2 4161.48  101.69
  -1   6  -2 3733.93  107.59
  -1   6  -2 4068.89  105.89
  -1   6  -2 3958.90  101.39
  -1   6  -2 4224.48  105.49
  -2  -6  -2   14.80   11.60
  -2  -6  -2   -5.60    9.10
  -2  -6  -2   12.50   13.40
   2  -6   2   12.10    9.70
   2  -6   2   20.00   11.10
  -2  -6  -2    6.00   10.70
  -2  -6  -2    4.20   10.80
  -2  -6  -2   -5.90   10.60
   2  -6   2    3.90    5.10
   2  -6   2    6.80   11.50
  -2  -6  -2   11.40   10.10
   2  -6   2    6.40    8.10
   2  -6   2    1.00   11.30
  -2   6  -2    6.80    8.60
  -2   6  -2    2.10   12.30
   2   6   2   12.40    9.10
  -2   6  -2   -4.30    9.50
  -2   6  -2   23.30    9.90
   2   6   2   10.00    4.00
   2   6   2   12.50   12.00
  -2   6  -2   12.00   12.30
   2   6   2   -2.00    9.80
  -2   6  -2   18.30    9.80
   2   6   2    1.70   11.70
   2   6   2   -1.60    8.40
  -2   6  -2    4.30   10.10
   2   6   2    9.70    8.00
   2   6   2   36.90   13.50
   2   6   2   17.00    9.50
   3  -6   2 2393.56   62.89
   3  -6   2 2516.45   63.29
  -3  -6  -2 2539.45   71.19
   3  -6   2 2381.26   68.19
   3  -6   2 2467.45   72.89
  -3  -6  -2 2403.96   72.19
   3  -6   2 2460.95   62.89
   3  -6   2 2407.76   76.39
  -3  -6  -2 2537.25   75.69
  -3  -6  -2 2396.46   74.79
  -3  -6  -2 2490.15   73.59
  -3  -6  -2 2535.85   73.49
   3  -6   2 2482.75   78.39
   3  -6   2 2435.36   77.09
   3  -6   2 2467.95   70.79
   3   6   2 2528.85   76.59
   3   6   2 2467.15   71.99
  -3   6  -2 2490.95   70.99
  -3   6  -2 2476.85   70.39
   3   6   2 2415.76   67.99
  -3   6  -2 2541.95   72.89
  -3   6  -2 2577.74   69.89
  -3   6  -2 2466.95   78.79
  -3   6  -2 2460.65   77.49
  -3   6  -2 2486.55   72.59
   3   6   2 2529.15   63.49
   3   6   2 2474.95   66.59
  -4  -6  -2    8.60   11.90
  -4  -6  -2   14.00   14.10
   4  -6   2    5.20    8.40
   4  -6   2   11.60   12.30
   4  -6   2   24.80   16.10
  -4  -6  -2   -5.70   11.00
  -4  -6  -2  -13.10   10.90
   4  -6   2   10.10    9.10
   4   6   2   11.20    9.90
  -4   6  -2    0.30   15.30
   4   6   2  -42.20   17.20
  -4   6  -2  -15.80   14.50
   4   6   2    2.80   10.20
  -4   6  -2   10.10   10.00
   4   6   2   26.30   15.90
  -4   6  -2   -5.10   11.70
  -4   6  -2    0.70   14.70
  -4   6  -2    6.10   11.50
   4   6   2  -11.60   13.80
   5  -6   2  970.70   36.90
   5  -6   2 1123.59   41.30
  -5  -6  -2 1071.39   47.20
  -5  -6  -2 1023.90   50.19
   5  -6   2 1045.90   48.80
  -5  -6  -2  927.21   43.60
   5  -6   2 1048.80   50.39
  -5  -6  -2 1084.29   43.10
  -5  -6  -2  991.90   44.50
   5   6   2 1032.30   43.00
  -5   6  -2 1035.20   42.00
   5   6   2 1037.90   31.90
  -5   6  -2 1039.50   46.20
  -5   6  -2 1129.19   38.40
  -5   6  -2 1051.39   44.30
  -5   6  -2 1037.50   52.69
   5   6   2 1012.40   49.10
   5   6   2 1091.29   52.79
  -5   6  -2 1045.10   52.19
  -5   6  -2 1011.50   43.20
   6  -6   2  161.78   17.90
  -6  -6  -2  170.08   30.90
   6  -6   2  188.88   30.20
  -6  -6  -2  210.08   25.00
   6  -6   2  237.28   30.20
  -6  -6  -2  195.18   22.10
  -6  -6  -2  205.48   24.90
  -6   6  -2  194.48   23.50
  -6   6  -2  248.18   33.50
   6   6   2  190.68   23.10
   6   6   2  159.38   26.00
  -6   6  -2  235.18   28.50
  -6   6  -2  180.08   31.00
  -6   6  -2  153.78   20.80
  -6   6  -2  198.98   25.30
  -6   6  -2  205.68   17.90
  -7  -6  -2   83.39   21.50
  -7  -6  -2   49.50   46.00
  -7  -6  -2   53.39   23.60
   7  -6   2   38.90   19.60
   7  -6   2  102.39   29.70
  -7   6  -2   74.09   24.80
  -7   6  -2   30.10   19.90
  -7   6  -2   77.59   21.30
  -7   6  -2   63.69   29.90
   7   6   2   63.19   25.60
  -7   6  -2   79.59   41.10
  -8  -7   2  288.87   40.50
   8  -7  -2  282.47   31.50
  -8  -7   2  332.17   41.30
  -8  -7   2  355.56   46.60
   8  -7  -2  308.07   37.30
   8  -7  -2  378.86   44.70
  -8   7   2  297.37   40.30
  -8   7   2  298.17   43.10
   8   7  -2  280.57   42.20
  -8   7   2  298.57   47.40
   8   7  -2  245.68   35.00
   8   7  -2  370.26   45.00
  -8   7   2  322.97   48.10
   7  -7  -2  112.79   28.40
  -7  -7   2  165.88   22.50
  -7  -7   2  146.29   34.10
   7  -7  -2  121.19   19.90
  -7  -7   2  128.79   32.70
  -7  -7   2  118.29   27.90
   7  -7  -2  116.69   27.00
  -7   7   2  140.19   27.50
   7   7  -2  136.99   26.40
  -7   7   2  106.59   27.40
  -7   7   2  151.38   33.20
   7   7  -2  118.29   32.40
  -7   7   2  146.69   34.10
  -7   7   2  116.99   36.60
   7   7  -2  130.59   23.20
   6  -7  -2   13.80   17.90
  -6  -7   2    8.30   17.50
  -6  -7   2   28.70   20.60
   6  -7  -2   -0.20   23.70
   6  -7  -2   14.70   14.50
  -6  -7   2   33.40   15.00
  -6  -7   2   20.10   19.10
   6  -7  -2   30.60   22.10
   6   7  -2    4.70    5.40
   6   7  -2   22.30   17.40
   6   7  -2    6.50   17.40
  -6   7   2    6.00   21.20
  -6   7   2   12.60   22.20
   6   7  -2   21.00   16.10
  -6   7   2   21.80   23.70
  -6   7   2   17.30   18.30
   6   7  -2   14.60   21.20
  -6   7   2  -11.60   19.20
   5  -7  -2  279.27   31.60
   5  -7  -2  223.18   25.30
  -5  -7   2  251.47   26.60
  -5  -7   2  250.77   29.40
   5  -7  -2  219.18   24.30
  -5  -7   2  250.07   30.10
   5  -7  -2  229.78   25.40
  -5  -7   2  280.67   25.10
  -5  -7   2  212.68   25.60
  -5   7   2  258.17   28.20
  -5   7   2  282.57   29.90
   5   7  -2  250.17   16.70
   5   7  -2  257.67   28.50
   5   7  -2  232.28   25.90
  -5   7   2  291.67   32.90
  -5   7   2  246.08   30.50
   5   7  -2  244.78   26.20
  -5   7   2  269.67   30.30
   5   7  -2  236.68   30.30
  -4  -7   2  345.47   30.20
   4  -7  -2  295.77   29.50
   4  -7  -2  270.87   27.10
  -4  -7   2  315.07   28.30
   4  -7  -2  302.37   29.50
  -4  -7   2  250.37   29.20
  -4  -7   2  318.57   27.70
   4  -7  -2  224.28   26.20
   4  -7  -2  300.37   25.60
  -4  -7   2  341.97   24.60
  -4   7   2  327.17   32.70
   4   7  -2  312.87   29.20
  -4   7   2  315.47   30.40
  -4   7   2  298.77   31.00
  -4   7   2  292.97   28.80
   4   7  -2  285.37   25.00
   4   7  -2  318.17   28.20
  -4   7   2  305.67   32.00
  -4   7   2  334.77   27.90
  -3  -7   2  190.58   23.30
  -3  -7   2  182.28   20.40
   3  -7  -2  157.78   18.10
  -3  -7   2  164.38   22.60
   3  -7  -2  173.18   21.40
   3  -7  -2  145.09   18.50
  -3  -7   2  166.98   20.90
  -3  -7   2  162.68   19.20
   3  -7  -2  159.58   20.50
   3  -7  -2  147.89   20.60
  -3  -7   2  191.48   23.80
  -3  -7   2  182.28   20.50
   3  -7  -2  184.38   21.00
  -3   7   2  192.38   24.00
  -3   7   2  160.58   20.20
  -3   7   2  172.78   23.80
   3   7  -2  145.59   20.60
  -3   7   2  185.98   21.90
   3   7  -2  135.19   18.00
  -3   7   2  211.78   25.20
   3   7  -2  188.88   20.00
  -3   7   2  157.88   19.60
   3   7  -2  167.18   22.20
   2  -7  -2  498.85   30.90
  -2  -7   2  465.55   28.20
  -2  -7   2  414.16   30.00
   2  -7  -2  476.45   29.70
   2  -7  -2  489.75   31.20
  -2  -7   2  453.25   29.30
  -2  -7   2  470.55   29.60
   2  -7  -2  441.76   29.90
   2  -7  -2  485.35   28.20
  -2  -7   2  643.94   53.19
  -2  -7   2  483.45   26.70
  -2  -7   2  541.15   32.00
   2  -7  -2  475.15   30.20
  -2  -7   2  450.95   29.10
   2  -7  -2  531.65   33.50
  -2  -7   2  462.95   29.10
  -2   7   2  476.35   31.30
  -2   7   2  454.55   30.30
  -2   7   2  469.95   33.60
   2   7  -2  525.95   32.10
   2   7  -2  458.05   33.80
  -2   7   2  509.35   39.10
  -2   7   2  415.26   28.20
   2   7  -2  472.45   26.80
   2   7  -2  504.35   29.10
   2   7  -2  509.55   34.00
  -2   7   2  541.05   33.70
  -2   7   2  535.45   30.50
   2   7  -2  532.05   31.90
   2   7  -2  478.65   27.70
  -2   7   2  478.15   29.70
   1  -7  -2  340.27   26.10
   1  -7  -2  371.96   24.60
  -1  -7   2  330.47   23.90
  -1  -7   2  324.27   25.40
   1  -7  -2  363.96   24.50
  -1  -7   2  359.56   26.10
   1  -7  -2  275.37   29.50
  -1  -7   2  338.97   25.50
   1  -7  -2  351.86   28.70
   1  -7  -2  365.26   27.10
  -1  -7   2  315.37   26.00
  -1  -7   2  357.26   23.20
   1  -7  -2  344.67   26.50
   1  -7  -2  379.16   25.00
  -1  -7   2  385.56   24.60
  -1  -7   2  327.47   29.30
   1  -7  -2  311.27   23.30
  -1   7   2  323.17   25.40
  -1   7   2  283.27   23.10
   1   7  -2  383.96   24.20
   1   7  -2  313.87   26.40
  -1   7   2  335.57   28.10
   1   7  -2  317.87   22.80
   1   7  -2  340.77   23.10
   1   7  -2  323.07   26.60
   1   7  -2  284.87   27.60
  -1   7   2  352.86   27.80
  -1   7   2  377.96   27.10
   1   7  -2  322.07   27.70
  -1   7   2  300.47   27.90
  -1   7   2  366.06   25.50
  -1   7   2  335.27   26.60
  -1   7   2  333.57   23.20
   0  -7  -2 1031.00   44.50
   0  -7   2 1053.09   42.50
   0  -7   2 1009.80   37.90
   0  -7  -2  986.30   43.40
   0  -7   2  978.50   40.50
   0  -7   2 1040.00   39.70
   0  -7  -2  998.00   39.00
   0  -7  -2 1040.70   39.50
   0  -7  -2 1077.09   39.50
   0  -7   2 1031.30   38.20
   0  -7   2  945.91   39.90
   0  -7  -2 1029.20   40.10
   0  -7  -2  988.70   42.00
   0  -7  -2 1022.80   42.30
   0  -7   2 1028.40   45.00
   0   7   2 1004.40   40.30
   0   7  -2 1077.59   39.60
   0   7  -2  983.50   43.50
   0   7   2 1050.49   43.80
   0   7  -2 1093.79   42.10
   0   7   2 1105.59   40.70
   0   7  -2  939.81   38.70
   0   7   2 1007.90   39.40
   0   7  -2 1016.80   41.30
   0   7   2 1051.29   38.30
   0   7   2 1063.59   42.30
   0   7   2  993.10   42.10
   0   7  -2 1045.90   43.60
   0   7  -2 1008.10   39.40
   0   7   2 1072.19   41.70
   1  -7   2   63.59   15.50
   1  -7   2   23.70   16.60
   1  -7   2   31.50   15.00
  -1  -7  -2   64.49   13.70
   1  -7   2   49.60   11.90
  -1  -7  -2   40.10   14.70
  -1  -7  -2   50.59   13.70
   1  -7   2   42.80   12.60
  -1  -7  -2   53.09   17.50
  -1  -7  -2   55.99   12.30
   1  -7   2   41.70   14.00
  -1  -7  -2   52.89   15.00
  -1  -7  -2   45.50   14.20
  -1  -7  -2   28.60   13.80
   1  -7   2   36.70   10.40
   1  -7   2   50.59    8.00
   1  -7   2   30.90   13.50
  -1   7  -2   51.69   12.60
  -1   7  -2   42.20   15.00
  -1   7  -2   36.80   15.10
   1   7   2   51.39   14.50
   1   7   2   55.89   13.40
   1   7   2   44.90   15.90
   1   7   2   46.40   12.00
  -1   7  -2   47.10   12.50
  -1   7  -2   41.50   13.00
  -1   7  -2   30.30   15.20
  -1   7  -2   37.90   11.40
   1   7   2   55.19   15.60
   1   7   2   37.70   13.40
   1   7   2   55.19   13.30
   1   7   2   46.70    7.20
   1   7   2   53.99   12.30
   2  -7   2 2189.88   94.99
  -2  -7  -2 2147.39   71.89
  -2  -7  -2 2272.77   69.09
  -2  -7  -2 2144.29   68.99
  -2  -7  -2 2184.38   66.29
   2  -7   2 2040.20   66.79
  -2  -7  -2 2251.67   69.39
   2  -7   2 2252.17   62.79
   2  -7   2 2177.68   70.49
   2  -7   2 2361.16   57.29
   2  -7   2 2282.47   65.99
  -2  -7  -2 2276.57   64.79
   2  -7   2 2248.88   62.09
   2   7   2 2352.16   77.29
  -2   7  -2 2159.38   73.19
   2   7   2 2108.59   69.49
  -2   7  -2 2372.56   69.79
   2   7   2 2254.77   62.99
   2   7   2 2231.48   65.69
  -2   7  -2 2108.49   66.09
   2   7   2 2182.18   72.79
   2   7   2 2263.67   64.49
  -2   7  -2 2193.48   69.09
  -2   7  -2 2242.38   68.79
  -2   7  -2 2101.69   70.19
   2   7   2 2219.88   55.19
  -3  -7  -2   -3.80   18.10
  -3  -7  -2  -12.40   14.90
   3  -7   2   -9.10   11.80
   3  -7   2    2.70    9.20
  -3  -7  -2   12.50   11.80
   3  -7   2   11.90   10.00
  -3  -7  -2   20.90   14.00
   3  -7   2   15.70    9.00
  -3  -7  -2   18.20   11.80
  -3  -7  -2    1.80   15.30
  -3   7  -2    3.80   13.90
  -3   7  -2    5.60   14.90
  -3   7  -2   22.80   13.70
   3   7   2   16.70   11.10
   3   7   2    2.70    9.20
  -3   7  -2    5.40   12.00
   3   7   2   24.80   15.70
   3   7   2    1.00    9.80
   3   7   2   26.30   14.20
  -3   7  -2    6.10   11.70
  -3   7  -2   -5.00   14.50
   4  -7   2 2486.25   61.69
   4  -7   2 2391.36   82.09
  -4  -7  -2 2561.54   80.19
  -4  -7  -2 2419.86   78.89
  -4  -7  -2 2509.05   75.79
   4  -7   2 2405.46   82.39
  -4  -7  -2 2481.85   78.59
   4  -7   2 2500.45   66.89
   4  -7   2 2400.36   71.39
  -4   7  -2 2532.75   78.59
   4   7   2 2482.15   68.89
  -4   7  -2 2369.96   83.69
   4   7   2 2413.86   59.39
   4   7   2 2517.35   86.59
   4   7   2 2296.27   81.79
  -4   7  -2 2472.15   77.09
   4   7   2 2472.35   69.39
  -4   7  -2 2461.75   73.69
  -4   7  -2 2488.55   75.09
  -4   7  -2 2460.65   82.79
  -5  -7  -2   98.89   23.90
  -5  -7  -2   70.59   19.00
   5  -7   2  129.29   23.30
   5  -7   2  146.19   17.70
  -5  -7  -2   96.09   19.60
   5  -7   2   60.09   14.20
  -5  -7  -2  100.19   19.90
   5  -7   2   89.99   23.80
  -5  -7  -2  110.29   27.00
  -5   7  -2  121.09   23.60
  -5   7  -2  148.59   18.80
  -5   7  -2   53.89   15.80
   5   7   2  111.39   22.70
  -5   7  -2   75.49   16.90
  -5   7  -2   91.39   27.00
   5   7   2  101.49   17.00
   5   7   2  100.29   13.20
  -5   7  -2   96.99   23.90
   5   7   2   93.59   16.20
  -6  -7  -2  863.51   57.89
  -6  -7  -2  809.82   49.40
   6  -7   2  794.42   48.30
  -6  -7  -2  841.32   47.00
  -6  -7  -2  907.91   47.70
   6  -7   2  832.02   52.19
  -6   7  -2  770.82   44.90
   6   7   2  858.71   44.30
  -6   7  -2  773.92   57.89
   6   7   2  806.52   50.09
  -6   7  -2  827.52   57.49
  -6   7  -2  836.92   41.60
  -6   7  -2  853.21   45.60
  -7  -7  -2  336.07   43.60
  -7  -7  -2  282.57   40.30
   7  -7   2  295.37   37.70
   7  -7   2  334.57   41.50
  -7   7  -2  285.77   40.20
  -7   7  -2  350.96   41.90
  -7   7  -2  288.57   41.70
  -7   7  -2  290.37   32.10
   7   7   2  244.78   35.70
   7  -8  -2   -4.90   25.70
  -7  -8   2   48.10   23.90
  -7  -8   2   18.90   36.50
   7  -8  -2   18.30   22.60
  -7  -8   2   44.90   44.30
   7  -8  -2   54.59   19.70
  -7  -8   2    8.90   27.90
  -7   8   2  -27.90   28.20
   7   8  -2   70.59   22.60
  -7   8   2  -14.50   29.30
   7   8  -2    8.00   28.50
   7   8  -2   39.30   26.60
  -7   8   2   50.69   27.10
   6  -8  -2 2362.36   83.29
   6  -8  -2 2076.99   86.69
  -6  -8   2 2207.48   85.59
  -6  -8   2 2144.09   66.69
  -6  -8   2 2383.16   90.49
   6  -8  -2 2236.98   72.89
  -6  -8   2 2312.17   83.69
  -6   8   2 2286.27   90.59
   6   8  -2 2219.28   79.99
   6   8  -2 2258.17   55.79
   6   8  -2 2176.48   84.19
  -6   8   2 2324.37   84.29
  -6   8   2 2289.77   94.99
   6   8  -2 2266.57   84.09
  -6   8   2 2177.68   87.69
   6   8  -2 2356.06   75.79
   5  -8  -2    1.70   16.60
   5  -8  -2    0.60   14.10
   5  -8  -2   24.40   18.10
  -5  -8   2   12.10   19.00
  -5  -8   2   -7.70   17.80
  -5  -8   2    7.10   12.70
  -5  -8   2    2.60   16.80
   5  -8  -2   -1.30   14.70
  -5   8   2    2.00   19.50
  -5   8   2   40.50   22.00
   5   8  -2   15.40   15.50
  -5   8   2   19.70   23.20
   5   8  -2   44.90   20.10
  -5   8   2   14.50   18.20
   5   8  -2   14.10   11.30
   5   8  -2    5.20   14.60
  -5   8   2    8.10   16.90
   5   8  -2   -1.50   13.60
   5   8  -2    5.90   15.70
   4  -8  -2 2502.65   76.79
  -4  -8   2 2468.95   80.69
   4  -8  -2 2378.76   83.59
   4  -8  -2 2358.36   80.09
  -4  -8   2 2283.97   77.19
  -4  -8   2 2391.16   81.79
  -4  -8   2 2563.54   78.99
   4  -8  -2 2379.66   76.39
  -4  -8   2 2438.46   70.29
   4   8  -2 2225.28   72.69
  -4   8   2 2336.17   78.69
  -4   8   2 2347.27   81.19
   4   8  -2 2463.35   78.69
   4   8  -2 2455.85   82.29
  -4   8   2 2331.27   84.89
  -4   8   2 2461.25   83.89
  -3  -8   2   54.39   14.50
   3  -8  -2   56.39   17.20
   3  -8  -2   82.69   18.70
   3  -8  -2   55.49   17.40
  -3  -8   2   55.29   16.40
  -3  -8   2  107.99   16.60
   3  -8  -2   51.49   22.00
  -3  -8   2   83.09   19.40
   3  -8  -2   61.49   16.60
  -3   8   2   51.49   17.10
   3   8  -2   51.19   16.10
   3   8  -2   67.29   19.70
  -3   8   2   67.59   19.10
   3   8  -2   64.59   16.10
  -3   8   2   42.80   19.00
  -3   8   2   64.79   17.70
   3   8  -2   76.09   15.60
  -2  -8   2 1103.99   53.59
   2  -8  -2 1168.68   48.40
  -2  -8   2 1155.58   46.40
  -2  -8   2 1150.58   41.70
   2  -8  -2 1072.69   45.50
   2  -8  -2 1087.79   48.30
  -2  -8   2 1121.49   41.50
   2  -8  -2 1158.18   49.50
   2  -8  -2 1151.28   48.90
  -2  -8   2 1036.70   47.40
  -2   8   2 1130.69   52.49
   2   8  -2 1122.19   46.10
  -2   8   2 1134.99   45.90
   2   8  -2 1076.09   42.10
   2   8  -2 1062.49   51.09
  -2   8   2 1146.89   49.90
   2   8  -2 1053.59   47.10
  -2   8   2 1105.29   47.10
   1  -8  -2  311.27   29.90
   1  -8  -2  333.87   27.60
  -1  -8   2  290.87   28.20
  -1  -8   2  269.07   26.40
  -1  -8   2  306.47   30.70
  -1  -8   2  323.57   25.50
  -1  -8   2  282.37   23.40
   1  -8  -2  341.47   26.20
   1  -8  -2  332.17   29.60
   1  -8  -2  314.67   29.10
   1  -8  -2  321.67   26.30
  -1   8   2  274.77   25.40
  -1   8   2  246.48   28.10
  -1   8   2  310.57   26.40
   1   8  -2  302.47   27.30
   1   8  -2  363.76   31.50
  -1   8   2  316.37   28.80
   1   8  -2  315.27   24.00
   1   8  -2  319.77   26.10
   1   8  -2  313.97   30.40
  -1   8   2  322.47   28.00
   0  -8  -2  344.67   26.20
   0  -8  -2  334.47   27.50
   0  -8  -2  365.56   30.50
   0  -8   2  340.67   25.30
   0  -8   2  379.16   28.80
   0  -8   2  331.87   26.50
   0  -8   2  343.97   31.10
   0  -8  -2  334.67   28.20
   0  -8  -2  355.36   31.50
   0  -8  -2  405.26   33.60
   0  -8   2  364.66   25.90
   0  -8   2  310.57   29.20
   0   8   2  336.37   28.50
   0   8  -2  363.76   25.20
   0   8  -2  339.87   25.90
   0   8  -2  365.06   30.00
   0   8  -2  334.17   31.80
   0   8   2  310.97   28.40
   0   8   2  350.26   28.80
   0   8   2  386.96   27.70
   0   8  -2  304.17   26.80
   0   8   2  334.27   27.60
   0   8   2  318.27   26.50
  -1  -8  -2  268.37   28.10
   1  -8   2  282.47   30.90
  -1  -8  -2  235.68   29.00
   1  -8   2  233.88   21.60
   1  -8   2  236.98   16.60
   1  -8   2  258.07   26.30
  -1  -8  -2  275.97   23.90
  -1  -8  -2  257.27   25.60
  -1  -8  -2  277.57   29.30
  -1  -8  -2  212.38   22.70
   1  -8   2  254.87   24.60
   1  -8   2  212.08   23.10
   1  -8   2  310.27   27.00
  -1   8  -2  264.17   25.30
   1   8   2  329.47   29.50
  -1   8  -2  245.88   25.70
  -1   8  -2  219.28   23.40
   1   8   2  268.57   26.40
   1   8   2  215.28   25.20
  -1   8  -2  211.98   24.50
  -1   8  -2  224.38   26.00
   1   8   2  214.68   26.10
   1   8   2  264.37   26.20
   1   8   2  278.37   24.40
   1   8   2  260.67   15.80
  -2  -8  -2   92.29   17.60
  -2  -8  -2   67.29   17.60
   2  -8   2   76.39   15.20
  -2  -8  -2   83.69   33.90
  -2  -8  -2   78.59   18.00
   2  -8   2   64.49   17.80
  -2  -8  -2   94.19   17.00
   2  -8   2   77.89   15.50
   2  -8   2   72.49    9.50
   2  -8   2   77.09   12.80
   2  -8   2   57.59   14.80
  -2  -8  -2   49.60   18.60
  -2   8  -2   69.49   18.60
   2   8   2   95.69   17.90
  -2   8  -2   91.49   19.40
   2   8   2   68.29   16.90
   2   8   2   74.99   15.10
   2   8   2   80.39   20.40
  -2   8  -2   62.29   14.70
   2   8   2   68.09    8.50
  -2   8  -2   49.50   20.30
   2   8   2   73.39   15.20
  -2   8  -2   63.59   14.90
   2   8   2  100.49   17.60
   3  -8   2  434.36   30.30
  -3  -8  -2  491.65   39.50
  -3  -8  -2  420.86   30.70
   3  -8   2  401.26   25.60
  -3  -8  -2  422.66   33.50
   3  -8   2  433.06   33.80
  -3  -8  -2  446.96   36.50
  -3  -8  -2  431.06   31.00
   3  -8   2  436.36   23.30
   3   8   2  480.55   36.60
   3   8   2  419.36   33.20
   3   8   2  444.96   26.10
   3   8   2  449.06   28.60
  -3   8  -2  479.05   34.90
  -3   8  -2  394.66   30.50
  -3   8  -2  403.26   36.00
  -3   8  -2  463.95   31.40
   3   8   2  387.76   30.10
   3   8   2  438.86   15.40
  -3   8  -2  439.96   36.20
   4  -8   2  730.13   27.40
   4  -8   2  675.63   41.80
  -4  -8  -2  718.03   40.60
   4  -8   2  730.53   30.30
   4  -8   2  741.13   28.10
  -4  -8  -2  668.23   43.60
  -4  -8  -2  719.23   40.70
  -4  -8  -2  648.14   50.19
   4  -8   2  714.63   35.80
  -4   8  -2  708.73   39.40
  -4   8  -2  713.43   45.50
  -4   8  -2  653.53   45.10
  -4   8  -2  760.62   40.40
  -4   8  -2  728.43   47.20
   4   8   2  722.33   46.60
   4   8   2  730.33   35.00
  -4   8  -2  744.83   49.60
   4   8   2  724.43   41.80
   4   8   2  725.43   36.20
   4   8   2  749.53   31.20
   4   8   2  729.43   45.80
  -5  -8  -2  285.67   34.30
   5  -8   2  301.77   28.10
  -5  -8  -2  291.67   33.10
  -5  -8  -2  283.97   35.70
   5  -8   2  250.37   35.00
  -5  -8  -2  335.17   41.70
   5  -8   2  246.98   32.20
  -5   8  -2  241.88   28.00
   5   8   2  276.77   26.10
  -5   8  -2  236.48   36.50
  -5   8  -2  179.48   25.60
  -5   8  -2  261.17   34.10
   5   8   2  232.48   31.70
  -6  -8  -2  812.22   51.59
   6  -8   2  704.13   52.09
  -6  -8  -2  862.51   49.40
  -6  -8  -2  797.42   90.39
  -6  -8  -2  752.42   53.19
   6  -8   2  760.92   50.09
  -6   8  -2  824.12   51.29
   6   8   2  749.53   54.29
  -6   8  -2  857.71   48.30
   6   8   2  764.22   33.70
  -6   8  -2  737.83   95.19
  -6   8  -2  910.11   66.59
  -7  -9   2 1028.10   66.79
   7  -9  -2 1051.29   69.69
  -7  -9   2 1187.58   70.69
  -7  -9   2 1141.39   64.09
   7  -9  -2 1101.89   68.19
   7  -9  -2 1148.09   53.19
   7   9  -2 1094.59   63.49
  -7   9   2 1347.27   80.19
   7   9  -2 1198.18   68.59
  -7   9   2 1119.69   76.79
   7   9  -2 1030.70   71.09
  -7   9   2 1242.68   69.49
  -7   9   2 1148.49   68.89
  -6  -9   2   23.60   30.10
  -6  -9   2    7.80   25.70
   6  -9  -2   28.10   20.20
   6  -9  -2   40.40   25.70
  -6  -9   2   -5.10   36.10
   6  -9  -2   36.50   23.60
  -6  -9   2    9.30   17.70
   6   9  -2  -24.20   19.10
   6   9  -2   49.30   27.70
  -6   9   2   49.00   25.60
   6   9  -2    6.70   26.70
  -6   9   2   12.00   30.20
   6   9  -2  -38.30   18.90
   5  -9  -2  906.61   54.29
   5  -9  -2  907.11   47.20
  -5  -9   2  969.60   40.90
   5  -9  -2  938.21   47.20
  -5  -9   2  932.01   50.89
   5  -9  -2  984.90   53.79
  -5  -9   2  938.61   55.19
   5   9  -2  958.30   52.49
  -5   9   2  964.60   66.39
   5   9  -2  964.40   46.00
   5   9  -2  988.20   55.79
   5   9  -2  937.61   52.79
  -5   9   2  949.51   57.39
  -5   9   2  999.70   59.79
  -5   9   2 1005.10   54.89
  -4  -9   2  -20.40   17.20
  -4  -9   2    0.80   17.20
   4  -9  -2   16.30   17.10
   4  -9  -2   -0.80   16.80
  -4  -9   2    6.20   15.50
   4  -9  -2    0.20   15.80
  -4  -9   2   13.10   18.50
   4  -9  -2  -23.40   16.80
  -4  -9   2   17.30   13.90
  -4   9   2   -5.10   20.00
  -4   9   2    6.10   21.30
   4   9  -2   13.70   19.10
   4   9  -2    2.80   15.30
   4   9  -2  -34.80   18.70
   4   9  -2   23.10   17.50
  -4   9   2  -17.40   19.00
  -4   9   2    6.20   18.00
   3  -9  -2 1453.25   59.29
  -3  -9   2 1411.86   56.79
  -3  -9   2 1422.56   53.59
  -3  -9   2 1418.26   51.49
  -3  -9   2 1406.66   59.79
   3  -9  -2 1400.56   60.09
  -3  -9   2 1410.46   56.99
   3  -9  -2 1426.96   59.69
   3  -9  -2 1385.56   55.59
   3   9  -2 1414.06   59.19
   3   9  -2 1329.77   61.69
  -3   9   2 1460.75   57.59
  -3   9   2 1438.26   63.59
  -3   9   2 1440.66   61.59
   3   9  -2 1397.46   55.79
   3   9  -2 1495.05   54.09
   3   9  -2 1449.35   55.69
  -3   9   2 1351.66   59.59
  -2  -9   2    3.90   14.80
  -2  -9   2    2.70   15.20
   2  -9  -2    4.30   14.00
  -2  -9   2    6.60   13.30
   2  -9  -2    1.60   13.90
   2  -9  -2  -16.30   13.70
   2  -9  -2   16.10   16.70
  -2  -9   2   11.10   15.40
  -2  -9   2   15.70   10.90
   2   9  -2   -8.60   12.10
  -2   9   2    2.10   18.10
   2   9  -2   -7.10   13.70
   2   9  -2   16.40   17.20
  -2   9   2   12.10   16.10
   2   9  -2    1.80   14.50
  -2   9   2   14.70   16.60
  -2   9   2  -19.70   14.30
   1  -9  -2  803.02   40.00
   1  -9  -2  734.03   41.50
  -1  -9   2  735.33   36.60
   1  -9  -2  696.43   39.00
  -1  -9   2  775.82   39.80
  -1  -9   2  738.13   38.10
   1  -9  -2  731.23   44.80
  -1  -9   2  739.13   39.90
   1   9  -2  735.13   39.40
   1   9  -2  720.43   41.80
   1   9  -2  755.52   36.40
  -1   9   2  727.93   39.00
  -1   9   2  738.93   42.50
  -1   9   2  705.03   45.00
   1   9  -2  763.42   45.20
  -1   9   2  778.92   40.60
   0  -9   2  183.78   23.70
   0  -9   2  164.58   21.90
   0  -9   2  242.28   21.30
   0  -9  -2  209.18   26.90
   0  -9  -2  174.68   24.80
   0  -9  -2  186.08   21.60
   0  -9   2  139.29   18.70
   0  -9  -2  172.58   22.20
   0  -9   2  151.48   20.80
   0   9   2  191.18   23.90
   0   9   2  161.68   19.50
   0   9   2  202.88   25.60
   0   9  -2  161.88   22.90
   0   9  -2  226.28   27.00
   0   9   2  150.28   20.40
   0   9  -2  202.68   26.00
   0   9  -2  218.08   22.80
  -1  -9  -2  161.08   20.40
   1  -9   2  190.88   23.00
  -1  -9  -2  159.18   23.00
  -1  -9  -2  155.08   24.50
   1  -9   2  128.89   20.90
  -1  -9  -2  129.99   20.80
   1  -9   2  139.29   20.10
   1  -9   2  136.49   18.50
   1  -9   2  194.18   23.20
   1  -9   2  149.19   17.90
   1   9   2  157.58   22.60
  -1   9  -2  191.78   28.40
   1   9   2  172.98   22.80
   1   9   2  154.28   18.10
  -1   9  -2  159.18   21.40
  -1   9  -2  142.59   25.50
   1   9   2  185.38   24.00
   1   9   2  182.38   23.50
  -1   9  -2  171.88   22.20
  -1   9  -2  133.39   22.50
  -1   9  -2  183.08   24.30
   2  -9   2  293.57   32.80
  -2  -9  -2  331.57   32.80
   2  -9   2  292.77   29.30
   2  -9   2  296.87   30.80
  -2  -9  -2  324.97   35.00
   2  -9   2  319.77   29.30
   2  -9   2  330.57   26.70
  -2  -9  -2  332.77   28.20
  -2  -9  -2  307.67   29.60
  -2   9  -2  329.27   39.40
   2   9   2  315.67   33.70
   2   9   2  297.27   17.30
   2   9   2  284.07   31.10
   2   9   2  299.77   32.50
   2   9   2  307.27   32.80
  -2   9  -2  316.47   36.50
  -2   9  -2  302.77   33.20
  -2   9  -2  341.17   30.50
   2   9   2  258.47   27.80
  -2   9  -2  292.57   31.00
  -3  -9  -2    0.90   17.70
  -3  -9  -2    4.90   15.30
   3  -9   2   20.30   15.80
   3  -9   2   49.20   18.40
   3  -9   2   14.40   12.00
  -3  -9  -2   31.90   18.80
  -3  -9  -2   31.40   17.90
  -3   9  -2    0.20   14.00
  -3   9  -2   12.10   19.30
  -3   9  -2    7.20   20.80
   3   9   2   13.90   16.30
   3   9   2    9.80   17.40
   3   9   2   38.80   22.00
   3   9   2   11.40    6.40
  -3   9  -2   26.70   17.40
   3   9   2   13.70   14.90
  -3   9  -2   50.49   25.90
  -4  -9  -2  210.38   26.10
   4  -9   2  167.58   26.20
  -4  -9  -2  178.58   26.20
  -4  -9  -2  176.78   27.70
   4  -9   2  148.39   15.30
   4   9   2  195.38   22.20
  -4   9  -2  152.68   24.90
  -4   9  -2  134.39   32.00
  -4   9  -2  165.48   25.40
   4   9   2  164.98   23.90
  -4   9  -2  140.59   27.40
   5  -9   2  402.36   41.40
  -5  -9  -2  430.56   48.60
  -5  -9  -2  432.96   45.80
  -5  -9  -2  451.95   42.50
   5  -9   2  469.45   37.50
  -5  -9  -2  403.16   43.60
  -5   9  -2  468.25   53.79
   5   9   2  421.76   34.00
  -5   9  -2  445.76   40.30
   5   9   2  489.05   46.10
  -5   9  -2  583.94   55.29
   5   9   2  468.45   45.20
  -5   9  -2  417.16   42.00
  -6  -9  -2  107.49   29.00
   6  -9   2   89.59   26.20
  -6  -9  -2  107.19   29.60
  -6  -9  -2   87.29   33.40
  -6  -9  -2   71.59   25.20
  -6   9  -2  119.49   26.40
  -6   9  -2   90.39   28.50
   6   9   2  126.69   18.20
  -6   9  -2   83.69   36.10
   6   9   2  148.49   32.10
   6 -10  -2  491.25   49.40
  -6 -10   2  537.55   54.49
  -6 -10   2  498.95   37.70
   6 -10  -2  429.36   49.70
  -6 -10   2  485.75   73.09
  -6 -10   2  411.26   49.60
   6 -10  -2  461.25   44.90
  -6  10   2  604.44   57.09
  -6  10   2  563.74   57.39
   6  10  -2  323.57   51.39
  -6  10   2  517.45   54.89
   6  10  -2  473.05   57.39
  -6  10   2  511.55   57.59
   6  10  -2  440.66   44.60
   6  10  -2  384.76   43.70
  -5 -10   2   51.59   25.00
  -5 -10   2   32.20   28.10
   5 -10  -2  -24.70   19.90
   5 -10  -2   28.30   28.00
   5 -10  -2   23.80   21.30
  -5 -10   2   25.40   17.20
   5 -10  -2  -23.80   20.70
  -5  10   2   36.20   29.00
  -5  10   2   -5.60   27.00
   5  10  -2    1.50   19.50
   5  10  -2    8.80   25.50
  -5  10   2    7.70   37.50
  -5  10   2   20.40   28.30
   5  10  -2   29.00   23.90
  -4 -10   2  747.33   44.90
   4 -10  -2  746.23   48.40
   4 -10  -2  670.83   46.60
  -4 -10   2  752.02   45.60
  -4 -10   2  773.12   50.19
   4 -10  -2  683.93   45.90
   4 -10  -2  733.43   51.39
  -4 -10   2  757.32   38.60
  -4 -10   2  766.52   52.69
  -4  10   2  636.84   58.19
  -4  10   2  730.53   55.59
   4  10  -2  722.73   50.19
  -4  10   2  667.63   51.89
   4  10  -2  669.53   42.00
  -4  10   2  652.53   49.80
   4  10  -2  753.22   50.59
  -3 -10   2  409.56   33.70
  -3 -10   2  401.66   38.30
   3 -10  -2  350.86   41.10
   3 -10  -2  397.96   38.70
   3 -10  -2  353.56   36.40
  -3 -10   2  349.96   36.90
  -3 -10   2  375.26   30.60
  -3 -10   2  357.16   33.80
   3 -10  -2  429.66   37.60
   3  10  -2  404.26   44.50
  -3  10   2  347.77   39.50
  -3  10   2  317.77   38.70
   3  10  -2  380.96   36.60
   3  10  -2  368.16   33.60
   3  10  -2  393.46   37.80
  -3  10   2  411.56   39.50
  -3  10   2  287.57   33.50
  -2 -10   2  171.58   25.30
  -2 -10   2  122.19   22.10
   2 -10  -2  156.38   24.20
   2 -10  -2  104.89   22.80
  -2 -10   2  147.79   22.50
  -2 -10   2  195.88   23.20
  -2 -10   2  115.39   19.10
   2 -10  -2  149.59   24.70
   2 -10  -2  134.89   25.50
   2  10  -2  157.98   22.20
  -2  10   2  160.68   25.60
   2  10  -2  168.08   25.70
  -2  10   2  127.49   22.50
  -2  10   2  149.49   25.20
  -2  10   2  129.09   27.40
   2  10  -2  120.29   27.00
   2  10  -2  160.28   26.20
   1 -10  -2 1911.11   69.09
  -1 -10   2 1945.91   67.59
   1 -10  -2 1892.81   75.49
   1 -10  -2 1958.00   74.09
  -1 -10   2 1988.50   67.09
  -1 -10   2 1863.01   70.39
  -1 -10   2 1998.60   60.59
  -1 -10   2 1900.71   71.39
   1 -10  -2 1961.60   71.69
   1  10  -2 1961.40   67.29
  -1  10   2 1914.21   71.59
   1  10  -2 2057.09   74.49
   1  10  -2 1886.01   68.59
  -1  10   2 2011.10   70.89
   1  10  -2 1893.01   76.99
  -1  10   2 1958.20   74.89
   0 -10  -2   28.70   18.30
   0 -10  -2   44.90   17.00
   0 -10   2   12.20   16.80
   0 -10   2    6.60   14.10
   0 -10  -2   14.90   15.80
   0 -10   2   69.89   15.90
   0 -10   2    5.30   14.80
   0 -10  -2   44.20   19.60
   0 -10   2   36.10   17.30
   0  10   2   25.70   17.00
   0  10  -2   63.69   22.60
   0  10  -2   39.80   16.50
   0  10   2   32.40   18.50
   0  10  -2   14.10   15.30
   0  10   2   39.40   20.40
   0  10   2   32.80   11.30
   0  10  -2   22.50   17.80
   1 -10   2 1987.60   76.19
  -1 -10  -2 2123.39   76.79
  -1 -10  -2 2164.08   70.39
  -1 -10  -2 2023.80   71.59
   1 -10   2 2018.80   58.89
  -1 -10  -2 2008.90   78.59
   1 -10   2 2038.60   72.49
   1 -10   2 1948.41   66.39
   1 -10   2 1956.70   70.39
   1  10   2 2088.39   75.09
   1  10   2 2037.90   60.49
  -1  10  -2 2061.09   79.59
   1  10   2 2059.79   70.79
  -1  10  -2 2083.89   76.39
  -1  10  -2 2040.40   72.09
  -1  10  -2 2035.30   74.79
   1  10   2 1987.10   74.69
  -1  10  -2 2091.79   71.69
   2 -10   2  -30.70   25.10
  -2 -10  -2   30.40   17.40
  -2 -10  -2  -11.70   21.20
  -2 -10  -2    3.70   15.80
   2 -10   2   -7.90   16.60
   2 -10   2   30.90   14.40
   2 -10   2  -19.90   15.90
  -2 -10  -2   38.10   21.10
   2 -10   2   -2.70   12.70
   2  10   2    9.20   15.00
  -2  10  -2   -7.70   21.80
   2  10   2   23.10   11.70
  -2  10  -2   42.60   20.40
   2  10   2    1.90   17.60
  -2  10  -2   44.20   21.90
   2  10   2  -14.70   16.70
  -2  10  -2   22.50   17.60
  -3 -10  -2 1313.57   62.29
  -3 -10  -2 1262.97   54.69
  -3 -10  -2 1340.37   66.19
   3 -10   2 1244.38   61.99
   3 -10   2 1290.67   58.29
  -3 -10  -2 1282.97   58.59
   3 -10   2 1338.97   48.60
  -3  10  -2 1456.15   66.89
   3  10   2 1341.27   35.80
   3  10   2 1335.47   61.29
  -3  10  -2 1308.77   58.49
  -3  10  -2 1306.87   62.79
   3  10   2 1308.87   54.79
  -3  10  -2 1318.27   70.49
  -4 -10  -2  160.58   31.80
  -4 -10  -2  130.09   28.30
  -4 -10  -2  153.68   32.80
   4 -10   2  148.09   27.40
   4 -10   2  153.68   26.10
   4 -10   2  122.19   17.90
   4  10   2  117.89   27.50
  -4  10  -2   81.19   33.70
  -4  10  -2  199.68   30.20
  -4  10  -2  167.18   33.90
   4  10   2  114.19   22.90
  -4  10  -2  149.29   27.70
  -5 -10  -2  209.08   35.90
  -5 -10  -2  246.58   33.30
  -5 -10  -2  252.57   40.30
   5 -10   2  207.88   34.40
  -5 -10  -2  240.88   36.80
  -5  10  -2  284.37   34.80
  -5  10  -2  228.38   41.90
  -5  10  -2  215.98   44.20
   5  10   2  242.88   26.30
  -5  10  -2  267.17   37.30
   5  10   2  201.28   33.70
   5  10   2  307.77   41.60
   5 -11  -2   13.70   26.20
  -5 -11   2   39.90   19.00
  -5 -11   2   37.90   29.10
   5 -11  -2   24.90   23.40
  -5 -11   2   34.80   25.70
   5 -11  -2   47.20   30.20
  -5 -11   2   59.89   29.50
   5 -11  -2   31.90   32.30
   5  11  -2   97.59   36.90
  -5  11   2   26.90   29.60
  -5  11   2   45.00   30.80
   5  11  -2   40.50   27.30
  -5  11   2    6.50   30.90
  -5  11   2   15.10   32.70
   5  11  -2   44.30   23.20
   4 -11  -2   46.00   23.00
  -4 -11   2   35.30   31.00
   4 -11  -2   54.49   28.20
  -4 -11   2   21.90   17.90
  -4 -11   2   22.20   23.50
  -4 -11   2   67.39   21.80
   4 -11  -2   67.79   27.20
   4 -11  -2   34.30   23.80
  -4  11   2   65.89   46.90
   4  11  -2   27.90   28.30
   4  11  -2   33.00   40.50
   4  11  -2   10.10   21.70
  -4  11   2   77.99   30.20
   3 -11  -2   61.59   26.00
  -3 -11   2   75.09   28.70
  -3 -11   2  128.69   26.60
   3 -11  -2  125.09   28.80
  -3 -11   2   65.89   20.10
  -3 -11   2   78.69   21.80
   3 -11  -2   29.30   19.50
  -3 -11   2   48.00   17.40
   3 -11  -2   73.09   25.70
  -3  11   2   29.50   27.90
  -3  11   2   47.10   26.20
   3  11  -2   83.29   28.60
   3  11  -2   35.00   20.10
   3  11  -2   52.79   23.40
  -3  11   2   85.79   33.50
  -3  11   2   54.59   24.20
   3  11  -2   59.39   30.70
   2 -11  -2  554.84   41.70
   2 -11  -2  486.15   43.90
   2 -11  -2  632.94   46.60
  -2 -11   2  639.84   45.80
  -2 -11   2  502.25   35.20
  -2 -11   2  565.24   45.60
   2 -11  -2  545.95   50.09
  -2 -11   2  550.64   40.70
  -2 -11   2  601.44   37.90
   2  11  -2  600.74   51.89
  -2  11   2  576.54   48.10
   2  11  -2  519.15   46.50
   2  11  -2  481.75   46.90
  -2  11   2  558.24   47.90
  -2  11   2  668.13   57.49
   2  11  -2  592.74   39.40
  -2  11   2  538.15   48.60
  -1 -11   2   -4.30   20.00
   1 -11  -2   27.40   22.80
  -1 -11   2    0.70   18.50
   1 -11  -2   47.00   19.80
   1 -11  -2    4.30   25.10
   1 -11  -2    9.50   19.70
  -1 -11   2   47.10   21.70
  -1 -11   2   40.70   14.30
  -1 -11   2   54.29   18.40
  -1  11   2   -6.60   21.10
   1  11  -2  -13.10   21.20
   1  11  -2   21.10   17.70
  -1  11   2   23.00   21.30
  -1  11   2   18.80   22.40
  -1  11   2   23.80   15.30
   1  11  -2   39.30   23.70
   1  11  -2   27.60   26.50
   0 -11   2 1169.88   57.99
   0 -11   2 1215.98   58.99
   0 -11  -2 1282.87   63.29
   0 -11   2 1266.57   55.89
   0 -11   2 1288.37   54.99
   0 -11  -2 1239.48   59.29
   0 -11  -2 1140.59   65.69
   0 -11  -2 1293.17   56.19
   0  11   2 1216.18   58.59
   0  11   2 1323.27   60.29
   0  11  -2 1293.67   55.59
   0  11   2 1167.88   60.29
   0  11  -2 1210.58   62.19
   0  11  -2 1328.57   60.19
   0  11   2 1194.08   46.70
   0  11  -2 1272.37   66.19
   1 -11   2   84.19   21.20
  -1 -11  -2   54.59   23.00
   1 -11   2   49.60   24.80
  -1 -11  -2   58.29   20.20
  -1 -11  -2   46.60   25.20
  -1 -11  -2   38.60   29.20
   1 -11   2   58.99   20.40
   1 -11   2   58.39   22.60
   1  11   2   63.69   22.90
   1  11   2   82.29   24.40
   1  11   2   57.99   22.30
   1  11   2  105.99   17.10
  -1  11  -2   67.29   28.40
  -1  11  -2   60.39   20.90
  -1  11  -2   64.09   25.50
  -1  11  -2   51.89   24.10
  -2 -11  -2 1853.01   82.49
  -2 -11  -2 1841.52   67.09
  -2 -11  -2 1716.33   79.49
   2 -11   2 1831.42   77.39
   2 -11   2 1838.92   64.59
   2 -11   2 1829.82   72.79
  -2 -11  -2 1675.33   72.59
  -2  11  -2 1786.72   73.49
  -2  11  -2 1915.21   73.69
   2  11   2 1716.33   74.79
  -2  11  -2 1710.13   76.19
   2  11   2 1817.82   77.09
   2  11   2 1876.21   58.89
   2  11   2 1840.12   71.39
  -2  11  -2 1828.02   77.59
  -2  11  -2 1809.82   82.89
   3 -11   2   32.40   23.00
  -3 -11  -2   40.70   26.00
   3 -11   2   26.80   17.00
   3 -11   2   -7.60   18.10
  -3 -11  -2   29.20   21.90
  -3 -11  -2   14.80   29.90
  -3 -11  -2   25.40   27.20
  -3  11  -2    4.60   25.60
  -3  11  -2  -14.80   30.60
  -3  11  -2   -5.00   27.10
  -3  11  -2   50.39   31.00
   3  11   2   -7.90   25.00
   3  11   2   17.30   24.10
   4 -11   2 1345.77   50.29
  -4 -11  -2 1369.86   69.79
   4 -11   2 1277.07   66.29
   4 -11   2 1384.76   70.99
   4  11   2 1364.66   66.29
   4  11   2 1265.07   69.59
  -4  11  -2 1403.06   69.79
  -4  11  -2 1303.67   70.29
  -4  11  -2 1397.36   80.49
  -4  11  -2 1228.88   79.49
   4 -12  -2 1545.55   69.79
  -4 -12   2 1314.67   66.39
   4 -12  -2 1259.07   69.49
   4 -12  -2 1481.05   83.99
  -4 -12   2 1330.17   70.29
  -4 -12   2 1440.36   58.29
   4 -12  -2 1371.16   77.69
  -4 -12   2 1287.77   74.49
  -4  12   2 1464.75   79.59
   4  12  -2 1292.37   69.89
  -4  12   2 1221.48   75.49
   4  12  -2 1190.08   61.29
   4  12  -2 1338.07   84.09
  -4  12   2 1356.46   77.69
  -4  12   2 1335.17   73.29
  -3 -12   2   85.59   25.60
  -3 -12   2  105.89   23.50
  -3 -12   2  132.29   30.40
  -3 -12   2  117.69   24.80
   3 -12  -2   94.99   35.10
   3 -12  -2  102.19   35.70
  -3 -12   2  141.99   38.40
   3 -12  -2   52.99   21.80
   3 -12  -2   83.59   29.40
   3  12  -2  113.29   28.70
  -3  12   2   71.89   35.50
   3  12  -2   67.99   34.70
  -3  12   2  134.59   34.90
   3  12  -2  105.29   24.80
  -3  12   2   85.29   31.40
   3  12  -2   89.69   35.70
  -3  12   2   93.59   34.60
  -2 -12   2  961.50   89.59
   2 -12  -2 1044.10   67.69
  -2 -12   2 1001.40   49.50
   2 -12  -2 1086.49   72.29
  -2 -12   2 1111.59   70.49
  -2 -12   2  990.90   55.39
   2 -12  -2  937.41   55.09
  -2 -12   2 1057.99   51.99
  -2  12   2 1013.30   67.49
  -2  12   2  889.91   68.39
   2  12  -2  865.81   65.59
  -2  12   2  943.71   70.19
   2  12  -2 1018.20   65.39
   2  12  -2 1026.60   53.29
   1 -12  -2  249.78   39.40
   1 -12  -2  237.18   31.30
  -1 -12   2  415.16   44.90
  -1 -12   2  371.06   38.40
   1 -12  -2  348.47   44.10
  -1 -12   2  346.37   35.20
  -1 -12   2  333.17   31.70
  -1 -12   2  345.77   40.90
  -1  12   2  331.37   42.30
  -1  12   2  324.87   44.50
   1  12  -2  334.37   48.00
   1  12  -2  396.36   51.39
   1  12  -2  310.37   33.30
   1  12  -2  325.77   49.10
  -1  12   2  305.97   35.90
   0 -12  -2  120.59   40.90
   0 -12   2  152.88   27.80
   0 -12   2  204.58   31.30
   0 -12  -2   89.19   22.10
   0 -12   2  130.89   18.60
   0 -12   2  167.18   27.30
   0 -12  -2   26.70   45.60
   0 -12   2  152.18   27.70
   0 -12  -2  111.19   32.20
   0  12  -2  116.79   27.20
   0  12   2   84.79   20.40
   0  12  -2  120.69   41.20
   0  12   2  105.49   31.60
   0  12  -2  126.29   33.10
   0  12   2   94.49   30.40
   0  12   2  172.38   34.10
   0  12  -2  102.19   28.90
  -1 -12  -2  589.64   41.80
   1 -12   2  639.84   51.59
   1 -12   2  522.05   44.00
   1 -12   2  622.64   48.10
  -1 -12  -2  603.94   57.29
   1  12   2  585.44   58.09
  -1  12  -2  511.55   52.49
  -1  12  -2  561.04   51.59
   1  12   2  544.45   53.99
   1  12   2  565.74   51.49
   1  12   2  623.44   34.70
  -2 -12  -2  164.38   38.80
  -2 -12  -2  173.68   36.50
   2 -12   2  198.68   32.90
   2 -12   2  129.09   26.40
   2 -12   2  196.68   30.60
  -2 -12  -2  170.68   27.50
  -2 -12  -2  190.98   32.30
   2  12   2  224.98   41.40
   2  12   2  205.08   35.10
   2  12   2  172.98   48.80
  -2  12  -2  178.38   34.60
  -2  12  -2  171.18   34.20
  -2  12  -2  172.38   41.00
  -3 -12  -2  420.46   42.90
  -3 -12  -2  341.67   41.40
  -3 -12  -2  310.87   38.40
   3 -12   2  370.76   42.90
   3 -12   2  359.66   41.30
   3 -12   2  293.57   31.80
  -3 -12  -2  327.07   46.50
  -3  12  -2  269.67   76.19
   3  12   2  436.66   48.00
  -3  12  -2  320.97   41.80
  -3  12  -2  323.57   42.40
  -3  12  -2  314.77   39.40
  -3  12  -2  397.66   50.99
  -1 -13   2  531.95   48.00
  -1 -13   2  475.85   41.80
  -1 -13   2  590.04   64.99
   1 -13  -2  591.74   55.29
   1 -13  -2  587.64   67.59
  -1 -13   2  678.43   54.99
   1 -13  -2  575.94   48.20
   1 -13  -2  625.24   72.99
   1  13  -2  615.14   53.99
   1  13  -2  628.14   60.79
   1  13  -2  527.85   58.59
  -1  13   2  499.35   55.09
  -1  13   2  660.33   48.60
   1  13  -2  535.65   65.69
  -1  13   2  493.75   64.69
  -1  13   2  592.14   64.49
   0 -13   2   -2.70   21.50
   0 -13   2  110.89   41.50
   0 -13  -2    2.40   19.90
   0 -13  -2   -2.30   28.90
   0 -13  -2    3.90   35.10
   0 -13   2  -16.20   24.90
   0 -13  -2    1.30   29.70
   0  13   2  -39.30   26.10
   0  13   2   20.80   57.59
   0  13  -2    2.50   31.30
   0  13  -2   45.40   34.50
   0  13  -2  -18.00   26.60
   0  13   2   12.10   22.50
   0  13  -2   17.00   31.20
   9   0  -3  288.37   35.80
  -9   0   3  376.16   54.29
  -9   0   3  379.06   48.20
   9   0  -3  358.56   39.60
   9   0  -3  390.26   32.60
  -9   0   3  356.56   40.80
   8   0  -3    2.80   22.20
  -8   0   3   15.10   21.20
  -8   0   3    4.40   17.50
   8   0  -3   17.90   18.80
  -8   0   3   48.70   25.00
   8   0  -3   14.20   14.70
  -8   0   3  -18.70   22.60
   7   0  -3   78.89   16.70
  -7   0   3   92.09   19.00
  -7   0   3   77.89   17.40
  -7   0   3   67.79   21.30
  -7   0   3   89.39   27.10
  -7   0   3   82.99   21.50
   7   0  -3   83.79   19.60
   7   0  -3   96.49   18.50
   7   0  -3   96.69   21.20
  -7   0   3   97.69   20.40
   7   0  -3   92.19   15.10
  -6   0   3  -11.40   16.70
  -6   0   3    1.50   12.30
  -6   0   3    3.80   14.10
   6   0  -3    0.60    5.60
   6   0  -3    9.70    5.60
  -6   0   3  -21.00   12.10
  -6   0   3   16.60   11.70
   6   0  -3  -17.50   11.40
   6   0  -3   -0.70   11.40
  -6   0   3   -5.20   14.30
   6   0  -3    2.80   14.00
   5   0  -3 1499.85   49.40
   5   0  -3 1404.16   46.70
   5   0  -3 1538.45   47.80
  -5   0   3 1628.94   54.59
  -5   0   3 1434.16   51.39
  -5   0   3 1420.36   50.89
  -5   0   3 1482.65   49.40
   5   0  -3 1441.86   52.49
  -5   0   3 1473.75   53.89
   5   0  -3 1387.36   50.39
   5   0  -3 1554.24   49.40
  -5   0   3 1503.15   50.69
   5   0  -3 1391.66   52.69
  -5   0   3 1441.06   52.59
  -5   0   3 1547.15   46.80
   4   0  -3    0.90    9.90
  -4   0   3   14.20    8.80
  -4   0   3  -11.50   10.00
  -4   0   3   12.00    9.50
   4   0  -3    0.50   10.30
   4   0  -3   -9.10    8.00
   4   0  -3    4.50   10.00
  -4   0   3  -15.30    9.20
   4   0  -3   11.90    7.70
  -4   0   3   10.50    7.80
  -4   0   3   -3.20    9.20
  -4   0   3   -8.20   11.10
   4   0  -3   -3.80    8.40
   4   0  -3    8.80   10.60
  -4   0   3   -3.40    9.40
  -3   0   3 6375.86  146.59
  -3   0   3 6435.26  147.29
   3   0  -3 6234.38  150.38
  -3   0   3 5936.81  145.29
   3   0  -3 5818.72  148.29
   3   0  -3 6325.47  148.79
  -3   0   3 5808.52  150.58
  -3   0   3 6173.88  149.19
  -3   0   3 5625.44  153.88
   3   0  -3 5863.21  149.49
   3   0  -3 6503.45  148.99
   3   0  -3 6367.66  145.79
  -3   0   3 6352.96  148.29
   3   0  -3 6159.18  146.59
  -3   0   3 5717.53  154.58
   2   0  -3    4.20    6.50
  -2   0   3    0.10    6.10
  -2   0   3   -2.70    7.10
   2   0  -3    4.30    6.70
  -2   0   3    1.50    6.90
  -2   0   3    9.90    6.70
  -2   0   3   -0.70    7.00
   2   0  -3   -8.60    6.50
   2   0  -3   -2.00    7.00
   2   0  -3    0.20    6.70
  -2   0   3    6.60    5.00
   2   0  -3   15.00    6.80
  -2   0   3   -8.80    7.00
  -2   0   3    5.70    7.20
  -1   0   3 6896.41  162.88
   1   0  -3 6787.82  163.48
  -1   0   3 7139.09  159.28
   1   0  -3 7391.86  163.58
  -1   0   3 6828.62  158.28
  -1   0   3 6747.42  162.98
   1   0  -3 6725.83  161.78
  -1   0   3 7174.38  164.18
   1   0  -3 7046.79  163.08
  -1   0   3 7344.77  162.88
  -1   0   3 7064.79  161.28
   1   0  -3 7247.58  163.48
   1   0  -3 6804.82  158.18
  -1   0   3 6981.40  160.88
  -1   0   3 7265.27  163.28
   1   0  -3 7447.25  161.88
   1   0  -3 6728.53  163.88
   0   0  -3    8.50    3.90
   0   0  -3    4.70    2.90
   0   0   3    0.90    2.10
   0   0  -3    4.80    6.00
   0   0   3    6.10    3.70
   0   0   3    3.10    4.80
   0   0   3   -2.20    2.90
   0   0  -3    7.20    3.70
   0   0  -3    3.20    4.50
   0   0  -3    0.20    3.10
   0   0  -3    0.10    4.10
   0   0  -3    1.50    4.80
   1   0   3 2815.92   65.79
  -1   0  -3 2694.93   62.89
  -1   0  -3 2760.82   63.19
  -1   0  -3 2713.63   66.39
   2   0   3  -18.60    8.70
   2   0   3    4.70    8.20
   2   0   3    6.20    4.50
   3   0   3 1727.73   51.79
  -3   0  -3 1722.43   41.70
  -3   0  -3 1717.93   51.89
  -3   0  -3 1744.33   42.10
   3   0   3 1811.32   54.49
  -3   0  -3 1637.74   46.90
  -4   0  -3    3.70    5.20
  -4   0  -3    3.30    5.60
   4   0   3   15.20   12.40
  -4   0  -3   -1.60    9.40
  -4   0  -3   -3.40    4.30
   4   0   3   -2.70   10.50
  -5   0  -3   34.10    7.40
  -5   0  -3   36.80   14.30
   5   0   3   62.09   13.80
  -5   0  -3   52.29    9.50
   5   0   3   21.30   15.30
  -5   0  -3   36.70    6.50
  -5   0  -3   56.89   10.70
  -5   0  -3   51.49    9.50
   5   0   3   28.20   13.80
  -5   0  -3   38.50    7.40
  -6   0  -3    5.40    8.10
  -6   0  -3  -39.90   18.80
  -6   0  -3   27.00   14.00
   6   0   3   12.80   15.60
  -6   0  -3   12.50    9.10
   6   0   3    3.10   16.30
  -6   0  -3    3.60   18.10
   6   0   3    9.40   14.90
  -6   0  -3   20.30   16.80
  -6   0  -3   10.20    9.20
  -6   0  -3    1.80    9.20
  -7   0  -3  199.88   12.30
  -7   0  -3  180.18   22.10
  -7   0  -3  177.08   11.50
  -7   0  -3  174.38   26.90
  -7   0  -3  211.58   31.90
  -7   0  -3  173.98   21.70
   7   0   3  131.69   21.90
   7   0   3  188.88   22.40
   7   0   3  246.78   32.50
  -8   0  -3   -4.20   18.10
   8   0   3  -10.20   22.50
  -8   0  -3   -6.00   15.70
  -8   0  -3   26.40   32.50
   9  -1  -3  615.94   54.59
   9  -1  -3  640.94   36.00
  -9  -1   3  541.25   60.29
  -9  -1   3  549.25   81.79
  -9  -1   3  593.54   53.49
  -9  -1   3  554.44   54.39
   9  -1  -3  601.24   45.70
  -9   1   3  614.14   83.19
   9   1  -3  614.74   45.80
  -9   1   3  607.74   52.99
  -9   1   3  665.53   55.99
  -9   1   3  536.05   63.59
   9   1  -3  575.14   54.29
   9   1  -3  614.84   37.30
   8  -1  -3  -21.00   22.40
  -8  -1   3    1.20   17.80
  -8  -1   3    4.50   22.40
   8  -1  -3   -5.20   17.40
  -8  -1   3    8.70   23.30
   8  -1  -3  -11.80   14.40
  -8  -1   3   13.50   22.00
   8   1  -3   -2.40   21.10
  -8   1   3   56.49   20.10
  -8   1   3   20.50   23.80
  -8   1   3  -23.60   22.20
   8   1  -3  -15.10   15.30
  -8   1   3   35.70   23.30
   8   1  -3   -3.40   16.80
  -7  -1   3  854.51   49.10
   7  -1  -3  795.52   42.60
  -7  -1   3  810.52   46.60
  -7  -1   3  840.92   46.60
  -7  -1   3  833.92   53.19
   7  -1  -3  845.62   36.50
   7  -1  -3  884.01   39.80
   7  -1  -3  848.42   46.90
  -7  -1   3  810.52   42.00
   7  -1  -3  828.22   40.90
  -7   1   3  818.02   46.00
   7   1  -3  899.41   47.10
   7   1  -3  906.41   40.50
   7   1  -3  883.41   41.70
  -7   1   3  866.81   45.90
  -7   1   3  866.81   50.89
   7   1  -3  851.01   33.20
  -7   1   3  885.21   54.39
  -7   1   3  895.91   43.20
  -7   1   3  915.71   42.20
   7   1  -3  887.11   24.20
   7   1  -3  826.62   42.90
   7   1  -3  877.91   24.50
  -6  -1   3  210.28   24.40
  -6  -1   3  183.78   24.80
  -6  -1   3  177.18   19.40
   6  -1  -3  183.48   22.30
  -6  -1   3  186.08   25.40
   6  -1  -3  190.38   10.10
   6  -1  -3  196.08   20.70
  -6  -1   3  208.98   24.00
   6  -1  -3  189.88   10.50
   6  -1  -3  195.18   24.30
   6  -1  -3  160.18   22.40
  -6  -1   3  188.58   20.60
   6  -1  -3  181.58   22.10
   6   1  -3  209.88   13.90
   6   1  -3  151.08   17.80
  -6   1   3  182.18   23.20
   6   1  -3  171.68   18.90
   6   1  -3  206.68   21.80
   6   1  -3  215.38   27.10
  -6   1   3  204.88   25.70
  -6   1   3  180.38   18.90
  -6   1   3  192.08   23.50
  -6   1   3  163.58   22.00
  -6   1   3  214.78   27.80
   6   1  -3  259.77   24.50
   5  -1  -3  409.56   23.60
  -5  -1   3  386.46   28.20
  -5  -1   3  442.26   27.30
  -5  -1   3  381.46   25.70
   5  -1  -3  362.26   27.10
  -5  -1   3  351.46   24.40
   5  -1  -3  336.37   23.70
  -5  -1   3  344.17   26.40
   5  -1  -3  382.96   16.90
   5  -1  -3  318.07   25.20
  -5  -1   3  395.46   25.80
   5  -1  -3  412.26   24.60
  -5  -1   3  372.66   29.80
   5  -1  -3  405.06   27.90
   5  -1  -3  389.26   28.20
  -5  -1   3  379.56   21.00
   5   1  -3  392.46   28.40
   5   1  -3  353.66   27.40
  -5   1   3  341.37   29.10
   5   1  -3  341.17   23.10
   5   1  -3  342.17   23.90
  -5   1   3  326.87   25.10
  -5   1   3  404.86   24.60
  -5   1   3  338.97   25.70
  -5   1   3  430.26   29.20
   5   1  -3  431.66   29.30
   5   1  -3  390.76   25.20
  -5   1   3  379.36   23.80
  -5   1   3  399.96   28.20
   5   1  -3  324.77   27.20
  -5   1   3  377.16   27.70
   5   1  -3  421.86   24.20
  -4  -1   3  733.53   30.30
   4  -1  -3  664.63   31.20
  -4  -1   3  673.13   31.30
  -4  -1   3  696.93   32.50
   4  -1  -3  704.03   30.60
  -4  -1   3  704.13   31.20
  -4  -1   3  707.63   29.60
   4  -1  -3  696.43   24.40
  -4  -1   3  626.44   28.40
   4  -1  -3  703.23   30.90
   4  -1  -3  635.54   27.60
   4  -1  -3  727.73   28.50
   4  -1  -3  655.13   29.60
  -4  -1   3  739.93   26.70
   4   1  -3  665.83   30.50
  -4   1   3  654.73   32.80
   4   1  -3  685.83   31.20
   4   1  -3  715.03   27.30
   4   1  -3  679.03   29.80
  -4   1   3  736.43   29.00
  -4   1   3  671.13   28.60
  -4   1   3  715.43   31.60
   4   1  -3  638.34   39.40
  -4   1   3  764.62   32.40
  -4   1   3  614.04   31.70
  -4   1   3  729.33   29.70
   4   1  -3  673.73   28.50
   4   1  -3  648.04   29.90
  -4   1   3  730.23   33.50
   4   1  -3  663.13   26.40
  -3  -1   3  999.70   33.20
  -3  -1   3  983.60   34.00
  -3  -1   3  921.71   32.20
   3  -1  -3  997.10   32.60
   3  -1  -3  926.41   34.30
   3  -1  -3  873.31   32.90
  -3  -1   3  892.31   32.80
  -3  -1   3  963.60   34.30
   3  -1  -3  908.81   33.00
   3  -1  -3  877.21   34.50
   3  -1  -3  967.90   35.30
   3  -1  -3  905.11   34.60
  -3  -1   3  944.31   34.10
  -3   1   3  901.41   34.70
  -3   1   3  957.80   32.70
  -3   1   3  996.60   33.70
   3   1  -3 1002.60   32.20
   3   1  -3  919.51   31.30
  -3   1   3  883.61   32.60
  -3   1   3  962.50   32.70
   3   1  -3  926.51   34.70
   3   1  -3  914.71   34.30
  -3   1   3  955.60   33.20
  -3   1   3  965.30   34.70
   3   1  -3  935.21   33.50
   3   1  -3  975.50   33.80
   3   1  -3  954.70   33.90
  -2  -1   3 1179.68   36.80
   2  -1  -3 1199.68   37.00
   2  -1  -3 1170.38   37.80
   2  -1  -3 1101.49   35.10
   2  -1  -3 1201.88   35.10
  -2  -1   3 1136.49   35.50
   2  -1  -3 1162.48   34.10
  -2  -1   3 1162.88   34.90
  -2  -1   3 1175.98   36.60
   2  -1  -3 1062.09   35.20
   2  -1  -3 1112.49   36.50
  -2  -1   3 1183.58   35.90
   2  -1  -3 1164.98   36.80
  -2  -1   3 1074.69   33.40
   2   1  -3 1147.69   34.20
  -2   1   3 1111.39   45.00
   2   1  -3 1126.19   35.00
   2   1  -3 1191.28   36.00
   2   1  -3 1115.09   36.40
  -2   1   3 1165.18   37.20
  -2   1   3 1188.68   37.40
  -2   1   3 1148.09   36.90
  -2   1   3 1136.79   35.80
   2   1  -3 1161.58   36.40
   2   1  -3 1124.79   34.70
  -2   1   3 1205.28   36.80
   2   1  -3 1137.19   36.60
  -2   1   3 1105.49   33.70
  -2   1   3 1137.29   34.60
  -1  -1   3   28.90    6.60
   1  -1  -3   23.60    8.30
   1  -1  -3   26.70    6.50
  -1  -1   3   12.70    6.80
   1  -1  -3   37.70    8.80
  -1  -1   3   24.40    6.40
   1  -1  -3   27.60    6.70
  -1  -1   3   25.80    3.20
  -1  -1   3   34.80    6.20
  -1  -1   3   33.50    8.40
   1  -1  -3   27.60    7.00
   1  -1  -3   30.40    6.10
   1  -1  -3   28.60    7.70
  -1  -1   3   34.00    6.60
  -1  -1   3   30.60    6.10
  -1  -1   3   28.40    6.20
   1  -1  -3   45.60    7.80
  -1   1   3   25.90    6.00
   1   1  -3   25.50    7.30
   1   1  -3   24.40    5.90
   1   1  -3   31.40    8.00
   1   1  -3   17.70    6.50
  -1   1   3   43.00    8.70
   1   1  -3   25.10    6.20
  -1   1   3   27.10    7.20
  -1   1   3   33.20    6.20
  -1   1   3   27.60    6.40
  -1   1   3   39.60    7.40
   1   1  -3   24.40    5.90
  -1   1   3   37.90    7.00
   1   1  -3   33.50    7.10
   1   1  -3   29.90    6.30
   0  -1  -3 3917.71   89.89
   0  -1   3 3706.93   86.19
   0  -1  -3 3935.11   88.99
   0  -1  -3 3763.42   90.59
   0  -1  -3 3855.61   93.19
   0  -1  -3 3741.33   89.09
   0  -1   3 3861.31   89.79
   0  -1  -3 3743.93   90.29
   0  -1   3 3954.70   91.79
   0  -1   3 3819.92   88.79
   0  -1  -3 3704.33   89.09
   0  -1   3 4041.10   91.59
   0  -1   3 3717.93   86.19
   0   1  -3 3767.72   85.19
   0   1   3 3830.62   87.59
   0   1   3 3798.12   89.99
   0   1  -3 3758.52   89.39
   0   1   3 3826.12   92.69
   0   1  -3 3780.12   89.79
   0   1  -3 3883.41   89.29
   0   1  -3 3893.51   88.49
   0   1  -3 3662.43   89.39
   0   1   3 3813.22   87.19
   0   1   3 3710.13   89.59
   0   1  -3 3799.02   88.29
   0   1   3 3924.51   88.99
   0   1  -3 3862.31   91.89
  -1  -1  -3   12.60    3.70
  -1  -1  -3   14.80    3.30
  -1  -1  -3   14.80    5.70
  -1  -1  -3   22.20    3.10
  -1  -1  -3   25.80    4.10
  -1  -1  -3   14.60    7.00
  -1  -1  -3   20.30    4.10
   1  -1   3   32.00    6.70
   1   1   3   39.40    5.40
  -1   1  -3   22.30    3.30
  -1   1  -3   13.30    4.80
   1   1   3   22.20    3.00
   1   1   3   21.30    3.20
   1   1   3   15.30   10.60
  -1   1  -3   25.00    6.20
  -1   1  -3   22.30    3.30
  -2  -1  -3 3248.07   78.19
  -2  -1  -3 3228.58   74.59
   2  -1   3 3307.47   77.49
  -2  -1  -3 3158.38   72.59
   2  -1   3 3155.58   82.79
  -2  -1  -3 3281.27   72.69
  -2  -1  -3 3271.77   74.59
  -2  -1  -3 3076.29   81.19
   2   1   3 3172.18   82.99
  -2   1  -3 3191.48   72.59
  -2   1  -3 3182.58   81.39
  -2   1  -3 3163.88   72.59
   2   1   3 3287.77   84.89
   3  -1   3  964.00   36.40
  -3  -1  -3  914.71   27.60
  -3  -1  -3  976.70   25.30
  -3  -1  -3  953.20   26.50
  -3  -1  -3  966.80   31.60
   3  -1   3  919.31   33.60
  -3  -1  -3  935.11   24.60
  -3  -1  -3  956.70   26.20
   3  -1   3  961.10   28.90
   3   1   3  915.41   35.80
   3   1   3  964.80   36.50
  -3   1  -3  947.71   32.40
  -3   1  -3  943.21   35.80
  -3   1  -3  972.30   25.50
  -3   1  -3  939.41   25.20
  -3   1  -3  926.21   22.70
  -4  -1  -3  824.92   25.70
   4  -1   3  842.42   33.50
  -4  -1  -3  826.72   28.40
  -4  -1  -3  783.32   29.80
  -4  -1  -3  868.51   25.90
  -4  -1  -3  782.32   35.70
  -4  -1  -3  824.52   25.00
  -4  -1  -3  832.92   24.90
   4  -1   3  827.32   31.50
   4  -1   3  851.11   38.70
   4   1   3  850.01   36.30
  -4   1  -3  836.32   26.80
  -4   1  -3  809.82   33.50
  -4   1  -3  827.42   25.80
  -4   1  -3  855.91   24.10
  -4   1  -3  800.72   37.30
  -4   1  -3  814.52   25.10
   4   1   3  805.02   37.90
  -5  -1  -3 1566.44   49.60
  -5  -1  -3 1497.15   43.30
  -5  -1  -3 1470.55   41.50
  -5  -1  -3 1491.85   43.70
  -5  -1  -3 1557.44   38.80
   5  -1   3 1550.14   51.39
  -5  -1  -3 1444.46   55.19
  -5  -1  -3 1547.35   38.30
   5  -1   3 1437.16   56.19
  -5  -1  -3 1424.16   44.10
   5  -1   3 1511.75   49.10
  -5   1  -3 1507.85   38.70
  -5   1  -3 1420.06   55.89
  -5   1  -3 1463.35   53.69
  -5   1  -3 1469.55   43.40
   5   1   3 1607.14   56.09
  -5   1  -3 1472.25   42.00
  -5   1  -3 1528.65   45.60
  -5   1  -3 1535.25   43.50
  -5   1  -3 1505.65   43.00
   5   1   3 1453.65   56.69
  -6  -1  -3   31.70   15.10
   6  -1   3   27.00   15.70
  -6  -1  -3    8.30    5.50
  -6  -1  -3   -4.90   18.00
  -6  -1  -3   11.00    9.70
   6  -1   3   21.70   15.10
  -6  -1  -3   28.10    9.10
   6  -1   3   33.00   17.00
  -6  -1  -3   29.30   11.10
  -6  -1  -3    4.30   16.70
  -6   1  -3   22.50   19.50
  -6   1  -3   18.20   15.90
  -6   1  -3   36.40   14.90
  -6   1  -3    2.90    8.80
  -6   1  -3   32.20   11.40
   6   1   3    1.20   16.40
  -6   1  -3    5.20    9.00
  -6   1  -3    5.60    9.40
   6   1   3   49.99   16.20
  -7  -1  -3 1214.88   45.00
  -7  -1  -3 1239.98   43.70
  -7  -1  -3 1266.97   46.60
  -7  -1  -3 1270.67   61.39
   7  -1   3 1206.28   48.90
   7  -1   3 1219.58   60.69
  -7  -1  -3 1277.57   65.49
  -7   1  -3 1185.98   43.90
   7   1   3 1269.37   54.49
  -7   1  -3 1222.48   64.09
  -7   1  -3 1298.07   59.69
  -7   1  -3 1218.98   44.00
   7   1   3 1172.18   60.49
  -8  -1  -3  294.07   31.00
   8  -1   3  269.87   33.00
   8  -1   3  348.67   41.90
  -8  -1  -3  325.77   45.00
  -8  -1  -3  282.07   33.20
  -8   1  -3  212.58   35.80
   8   1   3  288.07   37.70
  -8   1  -3  275.87   65.69
  -8   1  -3  268.47   29.00
  -8   1  -3  249.38   26.80
  -9  -2   3   36.40   25.30
  -9  -2   3    7.80   25.50
  -9  -2   3   -4.30   17.40
   9  -2  -3   19.30   17.10
   9  -2  -3   10.90   21.90
  -9  -2   3    1.20   35.00
   9  -2  -3   29.80   28.10
  -9  -2   3  -43.80   26.90
  -9   2   3   22.10   25.00
  -9   2   3  -11.30   34.90
   9   2  -3   23.30   29.30
  -9   2   3   -4.90   29.70
   9   2  -3   13.10   20.10
   9   2  -3  -33.10   18.80
  -9   2   3   49.50   30.10
  -8  -2   3 1972.50   79.19
  -8  -2   3 2099.99   82.89
   8  -2  -3 1926.01   74.49
  -8  -2   3 2098.19   87.39
  -8  -2   3 1988.60   72.99
   8  -2  -3 2076.89   64.79
   8  -2  -3 1984.60   78.09
  -8   2   3 2078.79   83.79
  -8   2   3 2079.59   81.09
   8   2  -3 2142.89   76.69
   8   2  -3 1992.60   76.89
  -8   2   3 2044.70   82.19
  -8   2   3 1983.00   74.49
   8   2  -3 1979.90   67.69
  -7  -2   3   35.80   19.30
  -7  -2   3   14.10   15.60
   7  -2  -3   12.90   16.40
   7  -2  -3   -4.00   13.00
   7  -2  -3   22.90   18.40
  -7  -2   3  -12.70   24.80
  -7  -2   3   28.30   19.00
  -7  -2   3  -15.60   17.20
  -7   2   3   -0.20   21.20
  -7   2   3   30.80   25.80
   7   2  -3    0.40   15.80
   7   2  -3   13.70   17.30
   7   2  -3    3.10    8.10
  -7   2   3    4.10   17.30
   7   2  -3   42.10   15.30
  -7   2   3  -17.70   16.70
  -7   2   3   -9.80   17.50
   7   2  -3    7.70   17.20
  -7   2   3   16.30   16.20
  -6  -2   3 3255.07   98.29
  -6  -2   3 3345.07   99.79
  -6  -2   3 3295.27  100.09
   6  -2  -3 3487.45   96.69
   6  -2  -3 3215.38   91.79
  -6  -2   3 3264.57   94.19
   6  -2  -3 3454.35   99.19
   6  -2  -3 3227.58   77.69
   6  -2  -3 3339.97   90.59
   6  -2  -3 3223.98   92.19
   6   2  -3 3296.57   93.89
   6   2  -3 3374.36   92.39
   6   2  -3 3418.86   85.89
  -6   2   3 3359.26  101.19
  -6   2   3 3432.06  100.79
  -6   2   3 3286.57   94.59
   6   2  -3 3360.66   94.79
  -6   2   3 3297.67   99.69
  -6   2   3 3289.87   93.59
   6   2  -3 3374.86   99.09
  -6   2   3 3231.98   99.29
   6   2  -3 3445.06   85.29
   5  -2  -3    5.70   11.70
   5  -2  -3    6.60   10.40
   5  -2  -3   30.10   13.80
  -5  -2   3   13.70   15.40
  -5  -2   3   15.70   13.50
   5  -2  -3    1.10   10.50
  -5  -2   3    3.10   10.30
  -5  -2   3   16.20   13.60
  -5  -2   3   27.20   13.60
   5  -2  -3    3.40   10.30
   5  -2  -3    3.90   13.90
   5  -2  -3   -6.10   12.40
  -5  -2   3   -4.90   12.40
   5  -2  -3    6.90    5.70
  -5  -2   3   -1.90   13.70
  -5   2   3   19.50   11.90
   5   2  -3    8.00   12.20
   5   2  -3    4.20   12.30
  -5   2   3   -4.90   12.20
  -5   2   3   -7.20   14.20
   5   2  -3   19.60   14.00
  -5   2   3    6.10   15.10
   5   2  -3    4.40    8.00
  -5   2   3   10.20   13.00
   5   2  -3    4.60   12.40
  -5   2   3   18.50   13.40
  -5   2   3   -8.70   12.50
  -5   2   3  -13.40   11.90
   5   2  -3   -0.80   10.40
   5   2  -3   22.60   11.70
   5   2  -3    8.30   11.90
   5   2  -3    6.10    7.40
   4  -2  -3 2336.67   73.09
   4  -2  -3 2212.78   75.09
   4  -2  -3 2561.34   68.69
   4  -2  -3 2378.96   69.49
   4  -2  -3 2481.85   73.19
  -4  -2   3 2513.05   69.89
  -4  -2   3 2347.47   71.49
  -4  -2   3 2404.06   68.99
  -4  -2   3 2544.65   73.69
   4  -2  -3 2582.04   72.79
  -4  -2   3 2512.35   71.99
  -4  -2   3 2577.34   71.39
  -4  -2   3 2389.56   71.49
   4  -2  -3 2618.14   69.49
   4  -2  -3 2380.26   64.09
   4   2  -3 2543.25   71.59
   4   2  -3 2421.36   71.59
  -4   2   3 2439.46   69.79
  -4   2   3 2529.55   70.29
   4   2  -3 2581.24   74.39
  -4   2   3 2438.26   71.79
  -4   2   3 2410.66   73.19
   4   2  -3 2494.05   67.79
   4   2  -3 2549.84   66.09
  -4   2   3 2376.56   73.19
   4   2  -3 2479.95   68.19
  -4   2   3 2546.05   72.59
  -4   2   3 2434.96   69.49
   4   2  -3 2526.85   65.89
   4   2  -3 2308.27   69.09
  -4   2   3 2563.04   72.09
   4   2  -3 2459.65   71.19
  -3  -2   3   48.80   10.30
   3  -2  -3   43.50   12.10
   3  -2  -3   51.99   12.10
  -3  -2   3   64.19   10.50
  -3  -2   3   33.10   10.50
   3  -2  -3   36.60    9.90
   3  -2  -3   56.29   11.40
  -3  -2   3   43.70   10.10
   3  -2  -3   46.90    7.90
   3  -2  -3   41.10    9.50
   3  -2  -3   49.00   10.00
  -3  -2   3   78.19   11.70
   3  -2  -3   55.89   11.90
  -3  -2   3   53.59    9.70
  -3   2   3   42.30   10.40
  -3   2   3   33.70    8.90
  -3   2   3   37.90   12.00
   3   2  -3   56.49   11.00
   3   2  -3   42.20    8.10
   3   2  -3   43.00   10.90
   3   2  -3   41.60    9.50
  -3   2   3   50.79   10.60
  -3   2   3   53.59   10.50
  -3   2   3   40.20   10.70
  -3   2   3   46.70   19.50
  -3   2   3   37.30   10.80
   3   2  -3   39.70    9.40
  -2  -2   3   83.69   10.80
  -2  -2   3   66.49    8.80
  -2  -2   3   57.49    9.40
   2  -2  -3   87.89   11.80
   2  -2  -3   73.59   11.20
   2  -2  -3   69.59   10.60
  -2  -2   3   83.09   10.20
   2  -2  -3   63.09    8.80
  -2  -2   3   66.79    9.40
  -2  -2   3   77.19   10.30
  -2  -2   3   73.99    9.30
   2  -2  -3   60.99    9.10
   2  -2  -3   81.59   11.80
   2  -2  -3   67.49   10.00
  -2  -2   3   67.59    9.00
   2   2  -3   52.49    9.50
  -2   2   3   87.39   10.30
   2   2  -3   65.59    9.10
  -2   2   3   49.00   10.30
   2   2  -3   62.59    8.70
  -2   2   3   71.49   10.40
  -2   2   3   44.50    8.20
   2   2  -3   65.49    8.60
   2   2  -3   75.69   10.60
  -2   2   3   83.89   10.80
   2   2  -3  100.99   10.50
   2   2  -3   67.49   10.20
  -2   2   3   62.19    9.30
  -1  -2   3   21.10    6.60
   1  -2  -3    7.20    6.90
  -1  -2   3   13.20    6.00
   1  -2  -3   20.70    8.70
  -1  -2   3   21.00    7.30
  -1  -2   3   20.40    5.30
   1  -2  -3   12.60    6.60
   1  -2  -3   16.20    5.80
   1  -2  -3   11.90    6.60
  -1  -2   3   13.60    5.90
  -1  -2   3   18.20    6.10
   1  -2  -3   14.00    6.70
  -1  -2   3   25.70    7.60
  -1  -2   3   14.90    5.30
   1  -2  -3    1.60    7.30
   1  -2  -3   24.70    6.90
   1  -2  -3   16.80    6.80
  -1   2   3   19.50    4.00
  -1   2   3   17.20    5.50
  -1   2   3   13.00    6.10
  -1   2   3   20.60    6.30
  -1   2   3   20.50    7.40
   1   2  -3   15.00    6.60
   1   2  -3   13.40    6.00
   1   2  -3   17.20    6.50
   1   2  -3   20.60    7.20
   1   2  -3   11.40    5.40
  -1   2   3   10.90    7.00
   1   2  -3   11.60    4.90
  -1   2   3   13.70    6.70
   0  -2   3  669.03   17.90
   0  -2  -3  641.04   16.80
   0  -2   3  665.53   22.90
   0  -2   3  655.43   23.20
   0  -2   3  668.83   21.00
   0  -2  -3  667.63   19.30
   0  -2  -3  622.84   23.60
   0  -2  -3  603.44   22.30
   0  -2  -3  676.53   23.00
   0  -2  -3  681.43   22.60
   0  -2  -3  643.74   21.70
   0  -2  -3  652.13   25.80
   0  -2   3  660.43   18.80
   0  -2   3  650.63   18.80
   0  -2  -3  673.43   21.10
   0  -2   3  667.43   21.20
   0   2  -3  648.84   21.10
   0   2  -3  638.44   20.30
   0   2  -3  647.54   17.60
   0   2  -3  603.64   22.30
   0   2   3  667.03   18.70
   0   2   3  646.84   23.80
   0   2  -3  636.04   17.80
   0   2   3  644.74   21.80
   0   2  -3  626.64   21.30
   0   2   3  683.33   20.40
   0   2   3  683.73   20.80
   0   2  -3  661.53   20.40
   0   2  -3  654.73   23.70
   1  -2   3  148.89   11.80
  -1  -2  -3  139.89    9.50
   1  -2   3  143.49    7.10
  -1  -2  -3  126.09   11.00
  -1  -2  -3  155.58    6.10
  -1  -2  -3  130.19    9.60
  -1  -2  -3  133.69    9.00
  -1  -2  -3  160.18    8.80
  -1  -2  -3  154.48    9.00
  -1  -2  -3  121.09   13.30
   1  -2   3  153.38    7.40
  -1   2  -3  138.89    8.50
  -1   2  -3  149.88   12.60
   1   2   3  134.99   10.10
   1   2   3  158.48   15.90
  -1   2  -3  136.09    8.40
  -1   2  -3  139.09    7.60
  -1   2  -3  145.79   10.60
   1   2   3  132.49   11.00
   2  -2   3 2405.06   65.99
  -2  -2  -3 2214.28   56.89
   2  -2   3 2188.28   62.29
  -2  -2  -3 2231.28   61.79
  -2  -2  -3 2208.98   56.29
   2  -2   3 2324.47   58.69
  -2  -2  -3 2236.58   54.89
  -2  -2  -3 2267.47   56.49
  -2  -2  -3 2375.76   55.49
   2   2   3 2361.76   65.99
  -2   2  -3 2112.39   62.79
   2   2   3 2306.87   63.59
  -2   2  -3 2323.27   56.99
  -2   2  -3 2259.67   54.39
  -2   2  -3 2223.98   54.59
  -2   2  -3 2210.38   53.09
  -2   2  -3 2346.87   53.09
   2   2   3 2244.58   54.39
  -2   2  -3 2182.68   60.49
  -3  -2  -3  222.48   13.30
  -3  -2  -3  220.48   12.90
   3  -2   3  236.18   17.90
   3  -2   3  230.78   20.70
  -3  -2  -3  210.88   12.40
  -3  -2  -3  228.28   15.80
  -3  -2  -3  233.08   12.10
   3  -2   3  242.88   15.60
   3  -2   3  269.27   21.00
  -3  -2  -3  223.98   11.40
  -3  -2  -3  218.18   11.10
   3   2   3  226.28    9.70
  -3   2  -3  225.78   12.80
  -3   2  -3  241.78   19.60
  -3   2  -3  209.98   10.30
   3   2   3  244.58   20.90
  -3   2  -3  221.18   15.20
  -3   2  -3  236.18   11.70
   3   2   3  226.78   20.60
  -3   2  -3  236.28    9.90
   3   2   3  232.98    9.20
  -4  -2  -3 2506.45   59.19
   4  -2   3 2500.65   70.79
  -4  -2  -3 2603.24   65.99
  -4  -2  -3 2649.63   65.49
   4  -2   3 2525.85   77.39
  -4  -2  -3 2474.25   76.39
  -4  -2  -3 2609.54   67.09
  -4  -2  -3 2531.45   64.29
   4  -2   3 2529.65   70.19
  -4  -2  -3 2542.75   68.39
   4   2   3 2575.44   78.69
  -4   2  -3 2625.04   63.19
  -4   2  -3 2438.46   76.19
  -4   2  -3 2524.05   63.49
   4   2   3 2610.04   58.79
  -4   2  -3 2573.64   65.09
  -4   2  -3 2657.03   73.69
   4   2   3 2531.95   76.89
   4   2   3 2565.94   58.89
  -5  -2  -3    5.20   13.70
  -5  -2  -3   27.10    9.40
   5  -2   3   43.80   14.00
  -5  -2  -3   26.20    8.10
  -5  -2  -3   11.80   11.20
   5  -2   3   45.40   16.80
  -5  -2  -3   24.00   10.10
   5  -2   3    1.20   12.50
  -5  -2  -3   35.40    8.80
  -5  -2  -3   30.70    7.90
  -5   2  -3   11.20    7.20
   5   2   3   36.40   16.90
  -5   2  -3   23.50    5.40
   5   2   3   15.10   14.30
  -5   2  -3   23.80   14.70
  -5   2  -3   11.60   12.00
  -5   2  -3   17.50    7.70
  -5   2  -3   27.90    9.70
  -5   2  -3   13.80   12.50
  -5   2  -3   20.90    6.00
  -6  -2  -3 1736.03   53.39
  -6  -2  -3 1705.83   56.89
  -6  -2  -3 1716.03   55.59
   6  -2   3 1749.22   57.89
  -6  -2  -3 1810.12   54.09
   6  -2   3 1750.72   59.09
  -6  -2  -3 1779.82   48.50
  -6  -2  -3 1706.53   55.89
   6  -2   3 1802.32   70.09
  -6  -2  -3 1762.02   67.59
  -6   2  -3 1702.83   54.49
  -6   2  -3 1768.02   52.39
  -6   2  -3 1721.93   63.89
  -6   2  -3 1775.62   52.69
   6   2   3 1780.12   68.69
   6   2   3 1691.03   64.89
  -6   2  -3 1730.93   56.59
  -6   2  -3 1829.42   70.79
   7  -2   3   41.90   18.20
  -7  -2  -3   58.59   15.00
  -7  -2  -3   46.50   14.30
  -7  -2  -3   74.29   16.00
   7  -2   3   67.99   22.20
  -7  -2  -3   84.59   27.00
  -7   2  -3  126.79   29.20
   7   2   3   92.19   21.60
  -7   2  -3   71.59   16.30
   7   2   3   42.90   21.40
  -7   2  -3   62.09   14.70
  -7   2  -3   40.20   22.00
  -8  -2  -3  810.92   44.30
   8  -2   3  843.92   56.59
  -8  -2  -3  763.42   62.59
  -8  -2  -3  772.02   44.90
   8  -2   3  786.42   43.40
   8   2   3  720.43   52.79
  -8   2  -3  767.62   44.30
  -8   2  -3  772.22   59.99
  -9  -3   3  792.82   57.49
  -9  -3   3  698.93   56.29
  -9  -3   3  747.83   61.99
   9  -3  -3  822.62   60.49
  -9  -3   3  784.82   65.09
   9  -3  -3  720.53   38.60
  -9  -3   3  760.32   42.30
   9  -3  -3  772.02   52.69
   9   3  -3  640.74   59.39
  -9   3   3  677.93   62.59
  -9   3   3  752.52   59.49
   9   3  -3  757.52   42.90
  -9   3   3  750.22   59.79
  -9   3   3  681.53   54.49
   9   3  -3  722.23   49.00
  -8  -3   3  -19.70   24.60
   8  -3  -3   -1.50   14.70
  -8  -3   3   19.40   28.60
  -8  -3   3    6.20   25.50
   8  -3  -3   -0.40   22.00
  -8  -3   3  -30.20   14.90
  -8  -3   3   25.70   21.30
   8  -3  -3   26.40   20.60
  -8   3   3   26.50   28.00
   8   3  -3   21.50   18.40
   8   3  -3    5.20   23.10
   8   3  -3  -16.50   19.00
  -8   3   3   10.40   23.30
  -8   3   3   49.50   27.30
  -8   3   3   -3.20   23.40
   7  -3  -3  774.42   42.20
  -7  -3   3  788.12   41.60
   7  -3  -3  800.82   46.70
   7  -3  -3  792.92   38.40
  -7  -3   3  826.32   46.90
  -7  -3   3  734.53   35.10
   7  -3  -3  816.62   43.80
  -7  -3   3  752.52   44.50
  -7   3   3  828.72   57.89
  -7   3   3  801.32   48.70
   7   3  -3  796.72   27.00
  -7   3   3  785.92   44.40
  -7   3   3  801.92   46.60
   7   3  -3  734.63   41.30
   7   3  -3  800.42   42.20
  -7   3   3  759.52   47.80
   7   3  -3  771.02   32.80
   7   3  -3  741.83   39.10
   7   3  -3  782.92   44.70
  -6  -3   3   26.30   13.30
  -6  -3   3    1.90   12.50
   6  -3  -3    1.60   11.80
   6  -3  -3    8.80   14.50
   6  -3  -3    6.90    5.20
   6  -3  -3   -4.50   14.60
  -6  -3   3   25.70   19.60
  -6  -3   3    6.90   12.90
   6  -3  -3    2.40   12.00
  -6  -3   3   -4.40   16.10
   6   3  -3   12.00   13.60
  -6   3   3   19.20   17.20
  -6   3   3    8.00   14.80
   6   3  -3    2.50   15.90
  -6   3   3   18.60   15.50
   6   3  -3    3.40   10.70
   6   3  -3    4.40   13.70
   6   3  -3    2.20    7.70
  -6   3   3    9.10   16.10
  -6   3   3  -29.80   18.40
  -6   3   3    1.20   20.40
   6   3  -3   -4.70   14.50
   6   3  -3   29.70   14.70
   5  -3  -3  981.50   49.70
   5  -3  -3 1032.90   40.00
  -5  -3   3  963.20   42.50
   5  -3  -3  989.20   31.60
  -5  -3   3  966.20   43.90
  -5  -3   3  979.60   44.30
   5  -3  -3  927.51   43.50
   5  -3  -3  926.11   39.70
  -5  -3   3  998.40   42.40
  -5  -3   3 1020.70   38.50
  -5  -3   3  991.20   40.10
   5  -3  -3 1001.80   38.90
   5  -3  -3 1006.20   40.60
   5   3  -3  998.30   40.90
  -5   3   3  989.60   40.70
   5   3  -3 1048.10   39.10
   5   3  -3 1021.50   40.10
   5   3  -3  999.50   44.50
  -5   3   3 1013.70   41.40
  -5   3   3  995.70   43.90
   5   3  -3  999.80   33.70
   5   3  -3 1049.49   45.30
  -5   3   3  970.50   45.00
  -5   3   3 1076.49   47.60
   5   3  -3 1010.00   43.00
   5   3  -3  987.10   36.00
  -5   3   3 1065.29   44.40
  -4  -3   3  440.16   26.00
   4  -3  -3  475.95   26.20
   4  -3  -3  474.15   28.90
   4  -3  -3  477.25   28.40
   4  -3  -3  463.75   28.40
  -4  -3   3  525.15   27.70
   4  -3  -3  513.75   29.10
   4  -3  -3  486.05   26.30
  -4  -3   3  446.96   28.10
  -4  -3   3  467.55   27.20
  -4  -3   3  510.35   27.10
   4  -3  -3  488.45   28.20
  -4  -3   3  505.95   29.20
  -4  -3   3  443.86   24.80
   4  -3  -3  518.05   25.50
   4  -3  -3  495.45   21.40
  -4  -3   3  432.46   25.00
   4   3  -3  417.26   25.90
  -4   3   3  470.45   28.30
   4   3  -3  437.96   25.30
  -4   3   3  449.86   28.50
  -4   3   3  528.45   27.30
   4   3  -3  491.65   27.20
  -4   3   3  487.45   29.90
   4   3  -3  494.05   23.80
  -4   3   3  460.45   28.20
  -4   3   3  465.25   26.40
   4   3  -3  467.35   24.00
   4   3  -3  467.85   21.30
   4   3  -3  469.95   24.60
  -4   3   3  534.85   27.10
   4   3  -3  448.96   26.30
  -4   3   3  421.66   26.10
  -3  -3   3  748.03   28.20
   3  -3  -3  718.53   27.20
  -3  -3   3  713.63   29.50
   3  -3  -3  748.43   33.40
  -3  -3   3  747.53   31.90
   3  -3  -3  794.82   31.80
   3  -3  -3  702.33   29.90
   3  -3  -3  682.83   28.20
   3  -3  -3  729.13   31.80
  -3  -3   3  763.22   30.80
   3  -3  -3  667.63   35.30
   3  -3  -3  725.33   28.90
  -3  -3   3  748.63   31.90
  -3  -3   3  750.32   29.80
   3  -3  -3  768.52   30.80
  -3  -3   3  744.53   28.90
  -3  -3   3  711.53   27.90
  -3   3   3  725.03   29.50
   3   3  -3  760.62   32.10
   3   3  -3  772.22   28.70
   3   3  -3  725.63   30.30
  -3   3   3  673.93   28.60
  -3   3   3  661.13   32.00
   3   3  -3  730.33   26.60
   3   3  -3  750.42   28.60
   3   3  -3  691.03   28.30
  -3   3   3  692.93   28.70
   3   3  -3  742.63   28.70
  -3   3   3  730.63   30.70
  -3   3   3  778.52   31.80
   3   3  -3  683.63   29.10
   2  -3  -3 1526.35   49.90
  -2  -3   3 1654.43   47.60
  -2  -3   3 1670.23   50.99
  -2  -3   3 1666.33   49.30
   2  -3  -3 1676.13   48.00
  -2  -3   3 1613.74   47.20
   2  -3  -3 1726.23   49.40
   2  -3  -3 1674.53   49.00
   2  -3  -3 1704.93   50.39
  -2  -3   3 1602.74   46.70
   2  -3  -3 1718.03   51.39
  -2  -3   3 1728.63   48.90
  -2  -3   3 1673.83   49.40
   2  -3  -3 1647.04   49.20
  -2  -3   3 1676.23   49.60
  -2  -3   3 1626.34   46.00
  -2   3   3 1743.53   48.60
  -2   3   3 1612.24   45.50
   2   3  -3 1638.54   47.00
  -2   3   3 1581.24   48.20
  -2   3   3 1667.63   49.99
  -2   3   3 1742.33   47.70
  -2   3   3 1629.64   50.59
   2   3  -3 1688.93   48.90
  -2   3   3 1700.53   49.90
   2   3  -3 1543.75   53.19
   2   3  -3 1649.83   46.10
   2   3  -3 1539.55   55.19
   2   3  -3 1586.64   54.49
  -1  -3   3 1267.27   39.60
   1  -3  -3 1240.28   41.00
  -1  -3   3 1344.17   39.70
   1  -3  -3 1327.77   42.00
   1  -3  -3 1271.97   38.80
  -1  -3   3 1299.77   35.40
   1  -3  -3 1288.37   41.00
  -1  -3   3 1360.66   39.80
   1  -3  -3 1282.97   40.90
   1  -3  -3 1386.36   39.00
  -1  -3   3 1210.58   36.80
  -1  -3   3 1360.96   42.20
   1  -3  -3 1312.67   40.40
  -1  -3   3 1332.57   35.10
  -1  -3   3 1362.46   39.50
  -1  -3   3 1368.16   39.90
  -1  -3   3 1362.26   37.80
   1  -3  -3 1311.67   40.10
  -1   3   3 1275.97   40.30
   1   3  -3 1338.87   38.30
  -1   3   3 1329.77   40.70
  -1   3   3 1280.17   40.30
   1   3  -3 1264.07   40.00
   1   3  -3 1265.47   40.30
   1   3  -3 1316.17   38.40
   1   3  -3 1308.77   34.30
  -1   3   3 1306.57   40.90
   1   3  -3 1312.97   40.20
  -1   3   3 1437.96   41.50
   1   3  -3 1330.87   39.20
  -1   3   3 1280.17   38.30
  -1   3   3 1307.67   36.70
  -1   3   3 1287.17   35.10
   0  -3   3 1883.01   51.09
   0  -3  -3 1784.02   54.79
   0  -3  -3 1955.90   51.49
   0  -3   3 1890.11   49.30
   0  -3   3 1923.31   47.10
   0  -3   3 1816.82   47.00
   0  -3  -3 1840.02   49.30
   0  -3   3 1892.11   52.09
   0  -3  -3 1839.92   51.39
   0  -3   3 1793.12   52.99
   0  -3  -3 1936.01   46.30
   0  -3  -3 1946.71   52.79
   0  -3  -3 1841.32   51.79
   0  -3   3 1919.61   47.30
   0  -3   3 1824.12   49.00
   0  -3  -3 1881.21   50.39
   0   3  -3 1862.01   49.80
   0   3  -3 1802.02   51.79
   0   3   3 1820.72   48.50
   0   3   3 1907.81   54.29
   0   3  -3 1854.81   52.19
   0   3   3 1879.71   46.70
   0   3   3 1826.12   50.79
   0   3   3 1864.21   48.90
   0   3   3 1871.31   50.79
   0   3   3 1827.22   53.29
   0   3   3 1799.12   45.10
   0   3  -3 1951.50   48.60
   0   3   3 1893.01   52.29
   0   3  -3 1870.21   48.80
   0   3  -3 1856.41   47.10
   0   3  -3 1806.82   49.60
   1  -3   3   73.89    7.30
   1  -3   3   92.19   11.90
   1  -3   3   84.89   10.80
  -1  -3  -3   76.09    9.90
  -1  -3  -3   97.49    9.80
  -1  -3  -3   84.99    8.90
   1  -3   3   75.49   10.30
   1  -3   3   81.99   11.40
  -1  -3  -3   93.19   12.00
   1  -3   3   74.29    4.60
   1  -3   3   85.89    8.40
  -1  -3  -3   72.39    8.80
   1  -3   3   84.29    9.40
  -1  -3  -3   83.79    9.40
  -1   3  -3   74.39   10.60
  -1   3  -3   76.79    7.60
   1   3   3   66.59    8.00
   1   3   3   67.89    7.50
   1   3   3   88.39   12.30
   1   3   3   75.59    9.50
  -1   3  -3   88.59    9.10
  -1   3  -3   67.19    8.60
   1   3   3   70.79    8.60
   1   3   3  110.89   14.30
   1   3   3   75.59    7.80
  -1   3  -3   72.99    8.50
  -1   3  -3   80.09    9.10
  -2  -3  -3 1771.12   46.80
  -2  -3  -3 1789.82   48.30
  -2  -3  -3 1782.42   46.70
   2  -3   3 1725.83   52.09
  -2  -3  -3 1658.83   48.00
  -2  -3  -3 1764.72   53.29
  -2  -3  -3 1782.32   46.70
   2  -3   3 1755.72   49.80
   2  -3   3 1756.72   52.89
   2  -3   3 1828.42   44.10
   2  -3   3 1829.52   44.60
  -2   3  -3 1648.44   51.19
  -2   3  -3 1754.72   51.09
   2   3   3 1811.62   53.19
   2   3   3 1803.62   54.29
  -2   3  -3 1823.72   44.80
   2   3   3 1799.12   47.10
   2   3   3 1772.42   55.99
  -2   3  -3 1718.53   53.39
   2   3   3 1857.61   46.70
  -2   3  -3 1778.52   46.70
   2   3   3 1854.01   47.20
  -2   3  -3 1816.92   45.70
   3  -3   3 1356.16   32.50
   3  -3   3 1407.26   42.50
  -3  -3  -3 1345.27   44.20
  -3  -3  -3 1332.47   33.60
  -3  -3  -3 1347.57   39.90
  -3  -3  -3 1359.96   40.60
  -3  -3  -3 1389.76   35.00
   3  -3   3 1372.86   45.20
  -3  -3  -3 1274.07   43.60
  -3  -3  -3 1353.06   38.30
   3  -3   3 1345.87   47.00
  -3  -3  -3 1374.86   38.70
   3  -3   3 1316.17   34.20
  -3   3  -3 1350.06   37.30
  -3   3  -3 1366.06   36.30
   3   3   3 1340.87   48.70
  -3   3  -3 1321.97   39.30
   3   3   3 1406.76   47.70
  -3   3  -3 1333.07   38.00
   3   3   3 1355.06   44.70
   3   3   3 1304.27   36.80
  -3   3  -3 1383.66   48.40
  -4  -3  -3  628.34   24.50
   4  -3   3  621.74   34.20
  -4  -3  -3  601.74   28.10
   4  -3   3  610.54   32.60
   4  -3   3  560.84   29.20
  -4  -3  -3  578.74   24.80
  -4  -3  -3  658.63   34.30
  -4  -3  -3  625.14   21.80
  -4  -3  -3  601.24   25.00
  -4  -3  -3  591.94   24.00
  -4   3  -3  623.74   22.60
  -4   3  -3  515.85   32.20
  -4   3  -3  607.34   22.50
   4   3   3  574.74   34.40
   4   3   3  651.33   22.40
   4   3   3  670.93   35.30
  -4   3  -3  605.04   23.70
  -4   3  -3  599.34   28.50
  -4   3  -3  628.04   24.30
  -4   3  -3  567.34   34.40
   4   3   3  615.74   21.20
  -4   3  -3  589.44   33.20
  -5  -3  -3 2848.11   78.89
  -5  -3  -3 3092.49   85.79
   5  -3   3 2924.71   91.89
   5  -3   3 2899.81   83.89
  -5  -3  -3 2793.92   89.79
  -5  -3  -3 2774.82   77.39
  -5  -3  -3 2961.00   78.19
  -5  -3  -3 2945.81   75.49
   5  -3   3 2848.71   79.09
  -5   3  -3 2831.02   82.09
   5   3   3 2882.01   91.49
  -5   3  -3 2932.41   90.49
   5   3   3 2948.10   90.79
   5   3   3 2899.51   71.19
  -5   3  -3 2984.70   71.29
  -5   3  -3 2938.91   76.39
  -5   3  -3 2889.01   83.39
   5   3   3 2922.11   70.89
  -5   3  -3 2860.71   75.69
  -5   3  -3 3009.50   77.79
  -5   3  -3 2886.71   76.79
  -6  -3  -3   10.20   12.30
  -6  -3  -3   15.80   15.70
   6  -3   3   -8.30   18.30
   6  -3   3    1.10   17.00
  -6  -3  -3   14.80   10.40
  -6  -3  -3   -5.90   10.90
  -6  -3  -3   37.40   18.00
  -6   3  -3   -4.40   20.00
   6   3   3   18.10   16.10
  -6   3  -3   13.80   15.40
  -6   3  -3   -5.40   10.10
  -6   3  -3  -29.10   17.80
  -6   3  -3   19.60   17.30
   6   3   3  -19.70   16.10
  -6   3  -3   29.10   18.80
  -6   3  -3   20.10   10.80
   7  -3   3 1673.43   72.89
  -7  -3  -3 1623.24   75.19
  -7  -3  -3 1679.03   56.39
  -7  -3  -3 1572.24   56.69
   7  -3   3 1564.24   60.49
   7   3   3 1533.95   69.79
  -7   3  -3 1589.14   53.39
   7   3   3 1582.64   66.99
  -7   3  -3 1615.34   57.89
  -7   3  -3 1656.23   57.09
  -7   3  -3 1744.23   66.29
  -7   3  -3 1621.54   74.09
   8  -3   3  127.59   31.20
  -8  -3  -3  157.38   36.90
  -8  -3  -3  102.99   25.80
  -8  -3  -3  141.69   23.60
   8  -3   3  140.29   23.80
  -8   3  -3  164.28   25.10
  -8   3  -3   77.49   44.60
   8   3   3  100.89   28.40
  -8   3  -3  150.48   32.40
  -8   3  -3  127.59   22.10
   9  -4  -3  239.98   36.30
  -9  -4   3  269.87   27.60
  -9  -4   3  330.37   42.30
  -9  -4   3  306.27   46.80
  -9  -4   3  296.27   41.90
   9  -4  -3  313.97   33.10
  -9  -4   3  258.57   58.29
  -9   4   3  316.07   45.20
  -9   4   3  256.27   37.00
   9   4  -3  343.87   41.50
   9   4  -3  256.47   34.70
  -9   4   3  222.68   43.30
   9   4  -3  260.67   42.00
   8  -4  -3  195.88   30.00
  -8  -4   3  172.68   33.70
  -8  -4   3  158.88   20.00
  -8  -4   3  116.59   28.40
  -8  -4   3  132.39   27.20
   8  -4  -3  166.78   29.30
   8  -4  -3  147.79   20.80
  -8   4   3  108.69   27.40
  -8   4   3  140.59   31.50
   8   4  -3  169.08   23.90
  -8   4   3  181.48   30.70
   8   4  -3  134.99   24.90
  -8   4   3  169.58   32.40
   8   4  -3  193.98   31.20
  -7  -4   3    0.90   18.80
   7  -4  -3   -0.70   19.20
  -7  -4   3    1.70   13.20
   7  -4  -3   25.30   15.00
  -7  -4   3   -5.20   19.60
  -7  -4   3   -5.50   15.30
   7  -4  -3   -6.30   20.00
   7  -4  -3   18.60   19.20
   7   4  -3   20.80   15.40
  -7   4   3   30.10   18.50
  -7   4   3    9.90   18.40
   7   4  -3   10.20   18.40
   7   4  -3    3.00   16.10
   7   4  -3   -0.10    6.30
  -7   4   3   -6.70   18.60
   7   4  -3   45.80   17.80
  -7   4   3  -23.30   19.60
   6  -4  -3   76.19    8.80
  -6  -4   3   66.69   14.30
  -6  -4   3   95.89   25.50
  -6  -4   3   49.70   15.80
   6  -4  -3   86.09   19.10
   6  -4  -3   77.79   16.70
  -6  -4   3   55.19   17.00
   6  -4  -3   80.09   18.50
  -6  -4   3   51.89   19.30
   6  -4  -3   52.99   18.70
  -6   4   3   65.29   18.20
   6   4  -3   55.69    9.40
  -6   4   3   36.70   18.00
   6   4  -3   53.69   16.80
   6   4  -3   24.70   15.20
   6   4  -3   30.30   14.20
   6   4  -3   69.69   18.10
  -6   4   3   52.89   19.40
   6   4  -3   37.50   17.60
  -6   4   3   84.69   21.50
  -6   4   3   10.10   23.50
   6   4  -3   78.99   17.30
   5  -4  -3  928.61   43.90
  -5  -4   3  912.61   42.70
  -5  -4   3  923.81   36.70
  -5  -4   3  913.31   43.10
   5  -4  -3  927.41   38.50
  -5  -4   3  875.91   42.60
   5  -4  -3  918.31   40.50
  -5  -4   3  884.91   39.30
   5  -4  -3  904.11   30.80
   5  -4  -3  901.71   40.50
   5  -4  -3  873.01   37.70
  -5  -4   3  870.21   40.90
  -5   4   3  912.21   40.60
  -5   4   3  922.51   43.00
  -5   4   3  892.91   43.00
   5   4  -3  886.31   39.90
  -5   4   3  850.01   43.70
  -5   4   3  808.62   40.00
   5   4  -3  912.21   39.40
   5   4  -3  908.61   40.10
   5   4  -3  902.21   31.20
   5   4  -3  904.71   43.10
   5   4  -3  908.81   37.00
   5   4  -3  978.40   38.50
  -5   4   3  862.31   43.30
   4  -4  -3   14.20   12.70
   4  -4  -3    4.70   11.90
  -4  -4   3   24.10   12.30
  -4  -4   3   23.20   14.50
  -4  -4   3   -8.00   11.80
   4  -4  -3   -0.60   13.20
   4  -4  -3   21.30   10.40
   4  -4  -3   14.40   14.50
  -4  -4   3   12.20   11.10
   4  -4  -3   26.50   14.20
   4  -4  -3  -11.50    9.90
  -4  -4   3    8.80   10.20
  -4  -4   3   11.10   11.90
  -4  -4   3   -3.80   11.10
   4  -4  -3    1.40   11.70
   4  -4  -3   -5.20   10.50
  -4  -4   3   31.40   12.00
   4   4  -3   20.00   11.80
  -4   4   3   -9.90   13.00
  -4   4   3   15.90   12.30
  -4   4   3   14.90   12.00
   4   4  -3    9.70   10.70
   4   4  -3   21.50   11.20
  -4   4   3   29.50   14.20
   4   4  -3   13.70   11.80
   4   4  -3   -7.90   10.80
  -4   4   3   23.80   11.70
   4   4  -3   33.70   12.60
  -4   4   3   37.90   14.50
  -4   4   3    1.90   11.40
   4   4  -3   10.60    7.10
  -4   4   3   -5.00   11.80
   4   4  -3    5.50   12.80
  -3  -4   3 2857.21   80.99
  -3  -4   3 3015.80   79.89
   3  -4  -3 2824.42   78.19
   3  -4  -3 2965.10   82.29
  -3  -4   3 2977.80   79.69
  -3  -4   3 3000.60   83.79
   3  -4  -3 3007.20   82.99
   3  -4  -3 2995.60   82.89
  -3  -4   3 2881.91   78.99
   3  -4  -3 2938.71   78.89
  -3  -4   3 3016.50   83.29
   3  -4  -3 2925.01   82.49
  -3  -4   3 2949.21   78.89
   3  -4  -3 2648.24   83.69
  -3  -4   3 2927.01   81.39
  -3  -4   3 2849.81   77.79
   3  -4  -3 2923.01   80.29
  -3   4   3 3028.30   82.09
   3   4  -3 2878.41   80.29
  -3   4   3 2816.92   82.89
  -3   4   3 2845.82   82.29
  -3   4   3 2865.91   79.09
  -3   4   3 2936.21   79.69
   3   4  -3 2783.72   79.89
  -3   4   3 3003.10   82.69
   3   4  -3 2939.31   79.59
  -3   4   3 3067.89   79.09
   3   4  -3 3014.20   78.39
  -3   4   3 2902.61   80.39
   3   4  -3 2830.42   81.59
  -3   4   3 2985.00   79.39
   3   4  -3 2969.60   81.09
   2  -4  -3   24.80   10.60
  -2  -4   3   15.50    8.40
   2  -4  -3   20.90   10.40
  -2  -4   3    3.90    6.10
   2  -4  -3   18.00    8.80
  -2  -4   3   13.90    8.50
  -2  -4   3   24.20    8.30
  -2  -4   3   11.30   10.10
  -2  -4   3   24.80    9.50
   2  -4  -3   12.00    8.80
   2  -4  -3   24.40   10.30
   2  -4  -3   19.10   10.10
   2  -4  -3   24.90    9.20
  -2  -4   3   21.70    9.50
   2  -4  -3   20.80   10.60
  -2  -4   3   24.70    9.90
  -2   4   3    7.30    9.50
  -2   4   3   19.00   12.10
  -2   4   3    9.40    7.90
   2   4  -3   12.80    8.80
   2   4  -3   19.20    9.40
  -2   4   3   49.20   10.50
   2   4  -3    9.90    9.50
  -2   4   3   17.00    9.20
  -2   4   3   10.10   10.70
  -2   4   3   10.70    7.20
  -2   4   3   18.40    8.70
   2   4  -3   11.90    7.90
  -2   4   3   19.50    7.20
  -1  -4   3 8035.90  183.38
   1  -4  -3 7843.22  186.58
  -1  -4   3 8189.18  186.48
  -1  -4   3 7428.56  183.18
  -1  -4   3 7866.21  180.58
  -1  -4   3 7808.52  183.68
   1  -4  -3 7264.57  185.08
  -1  -4   3 7413.36  180.98
   1  -4  -3 8082.09  185.88
   1  -4  -3 7981.80  185.78
   1  -4  -3 7960.90  183.18
   1  -4  -3 7392.16  185.98
  -1  -4   3 7534.05  177.28
  -1  -4   3 8142.59  182.18
  -1  -4   3 7944.71  186.98
   1  -4  -3 7482.55  183.68
   1  -4  -3 7385.16  185.38
  -1   4   3 7977.10  182.58
  -1   4   3 7935.81  185.38
   1   4  -3 7540.15  184.48
  -1   4   3 7470.05  179.88
  -1   4   3 8033.50  180.28
  -1   4   3 7434.06  182.18
  -1   4   3 7737.23  185.78
   1   4  -3 7683.63  184.18
   1   4  -3 7610.74  185.78
  -1   4   3 7927.81  185.28
  -1   4   3 7532.25  186.08
  -1   4   3 7896.71  186.08
   1   4  -3 8123.19  186.08
   1   4  -3 8229.78  182.78
   1   4  -3 7735.53  184.68
  -1   4   3 7933.01  184.78
   0  -4  -3   -1.40    6.40
   0  -4   3    6.70    8.20
   0  -4  -3    2.90    5.10
   0  -4   3   10.70    5.60
   0  -4   3    6.20    6.10
   0  -4  -3    8.00    8.70
   0  -4  -3    2.30    7.50
   0  -4   3  -10.00    5.50
   0  -4  -3    2.40    8.70
   0  -4   3    1.10    9.70
   0  -4   3    8.60    5.50
   0  -4   3   17.10    8.50
   0  -4  -3   -5.30    6.70
   0  -4  -3    5.50    6.60
   0  -4   3   -4.00    5.00
   0  -4  -3   -7.10    6.00
   0   4   3   12.30    8.80
   0   4  -3   -7.10    6.70
   0   4  -3   -4.90    5.30
   0   4   3   10.50    7.20
   0   4   3   10.90    6.20
   0   4  -3   10.30    8.80
   0   4  -3    0.80    5.50
   0   4   3   19.80    8.20
   0   4  -3   -2.10    5.80
   0   4   3    5.20    5.30
   0   4  -3   -4.20    8.60
   0   4   3   -8.70    7.90
   0   4  -3    5.10    6.90
   0   4   3   18.40    4.40
   0   4  -3    6.60    6.60
  -1  -4  -3 5698.03  139.19
   1  -4   3 5681.13  143.39
  -1  -4  -3 5900.21  137.79
   1  -4   3 5800.02  134.19
   1  -4   3 5682.03  141.29
  -1  -4  -3 6082.59  144.49
   1  -4   3 5664.53  137.79
  -1  -4  -3 5965.00  138.79
   1  -4   3 5739.93  141.39
  -1  -4  -3 5799.92  138.79
   1  -4   3 5950.70  143.69
  -1  -4  -3 5867.21  155.58
  -1  -4  -3 5901.61  140.49
   1  -4   3 5609.54  133.69
   1  -4   3 5812.92  137.79
   1   4   3 5941.61  139.79
  -1   4  -3 5728.23  137.29
   1   4   3 5966.00  144.89
  -1   4  -3 6099.39  137.49
  -1   4  -3 6023.90  142.39
  -1   4  -3 5655.03  138.99
  -1   4  -3 5956.90  148.59
   1   4   3 6162.48  140.79
  -1   4  -3 5676.33  139.79
   1   4   3 5731.73  136.69
   1   4   3 5664.23  138.29
  -1   4  -3 5976.50  138.79
   1   4   3 5965.00  136.89
   1   4   3 5730.33  139.89
   1   4   3 5712.73  144.99
   2  -4   3   27.50    6.50
  -2  -4  -3   12.10    6.50
   2  -4   3   32.80   10.70
   2  -4   3   23.00   10.20
   2  -4   3   16.70    5.30
   2  -4   3   24.30    8.60
  -2  -4  -3    8.20    7.10
  -2  -4  -3   16.10   10.00
  -2  -4  -3   14.90    7.70
   2  -4   3   22.50   11.80
  -2  -4  -3   21.30    6.40
  -2  -4  -3   24.60    8.00
  -2  -4  -3   23.40    7.50
   2   4   3   20.50    5.40
  -2   4  -3   17.50    6.60
  -2   4  -3   43.90    9.90
   2   4   3   20.30    5.60
  -2   4  -3   20.20    4.20
  -2   4  -3   27.10   11.90
   2   4   3   12.50    9.40
   2   4   3   16.00    6.40
  -2   4  -3   25.50    7.20
   2   4   3   31.00    7.30
  -2   4  -3   21.40    6.70
   2   4   3   17.40    6.80
  -2   4  -3   24.70    6.70
   2   4   3   22.60   12.00
  -3  -4  -3  697.93   25.80
   3  -4   3  683.73   23.00
   3  -4   3  680.23   21.70
   3  -4   3  686.13   33.30
   3  -4   3  650.53   30.60
  -3  -4  -3  673.53   31.50
  -3  -4  -3  646.64   26.20
   3  -4   3  679.23   29.60
  -3  -4  -3  720.03   30.70
  -3  -4  -3  622.14   26.80
  -3  -4  -3  664.33   27.40
  -3   4  -3  667.23   23.90
  -3   4  -3  667.23   32.20
   3   4   3  640.94   25.00
  -3   4  -3  627.34   25.60
  -3   4  -3  642.04   34.10
  -3   4  -3  680.73   25.10
  -3   4  -3  727.23   25.00
   3   4   3  703.73   25.60
  -3   4  -3  685.83   25.30
   3   4   3  717.93   34.50
  -3   4  -3  702.13   27.60
   3   4   3  658.23   35.00
   3   4   3  720.43   32.20
  -4  -4  -3  142.19   14.60
  -4  -4  -3  127.69   15.90
  -4  -4  -3  137.49   16.10
  -4  -4  -3  113.99   18.10
   4  -4   3  121.89    9.80
   4  -4   3  121.09    8.90
   4  -4   3  163.08   21.10
  -4  -4  -3  127.29    8.30
  -4  -4  -3  151.88   19.50
  -4  -4  -3  119.19   16.20
  -4   4  -3  173.48   15.90
  -4   4  -3  143.99   20.90
  -4   4  -3  134.49   15.10
  -4   4  -3  123.59   14.00
  -4   4  -3  137.59   15.20
   4   4   3  119.99   16.70
  -4   4  -3  134.99   19.80
   4   4   3  100.79   22.30
  -4   4  -3  118.89   12.40
  -4   4  -3  110.39   16.00
   4   4   3  118.19   12.00
  -5  -4  -3   38.60    8.90
  -5  -4  -3   26.50   18.90
  -5  -4  -3   45.00   12.30
   5  -4   3   49.50   18.40
   5  -4   3   37.70   17.40
  -5  -4  -3   33.80   12.10
  -5  -4  -3   28.30   16.00
  -5  -4  -3   30.80   13.60
  -5  -4  -3   42.60   11.40
   5   4   3   34.90   17.40
   5   4   3   41.70    9.80
  -5   4  -3   55.69   14.10
  -5   4  -3   34.90   13.50
  -5   4  -3   10.40   23.20
  -5   4  -3   27.30   10.30
  -5   4  -3   32.40   12.80
  -5   4  -3   55.79   18.70
  -5   4  -3   12.00   16.70
  -5   4  -3   42.50   11.00
   5   4   3   61.59   10.80
  -5   4  -3   51.49   11.20
   5   4   3   -0.90   15.70
  -6  -4  -3  106.89   16.70
  -6  -4  -3  116.09   18.10
  -6  -4  -3   70.69   16.20
  -6  -4  -3   70.99   23.00
  -6  -4  -3  101.89   15.70
  -6  -4  -3   93.39   15.00
   6  -4   3   81.99   17.20
   6  -4   3   72.29   23.00
   6   4   3   90.69   23.40
  -6   4  -3   54.49   21.50
  -6   4  -3   67.89   15.60
   6   4   3  118.39   12.40
   6   4   3   75.79   20.30
  -6   4  -3   92.49   18.60
  -6   4  -3   62.79   14.00
  -6   4  -3   59.89   16.70
  -6   4  -3  125.89   24.80
   7  -4   3  128.39   21.60
   7  -4   3  162.48   30.00
  -7  -4  -3  174.38   32.70
  -7  -4  -3  234.28   28.50
  -7  -4  -3  237.68   26.60
  -7  -4  -3  250.47   30.80
  -7   4  -3  219.98   38.40
  -7   4  -3  172.78   25.90
   7   4   3  178.68   30.20
  -7   4  -3  193.78   20.80
  -7   4  -3  277.87   30.30
  -7   4  -3  223.18   38.20
  -8  -4  -3   60.49   24.80
   8  -4   3   67.79   21.20
   8  -4   3   86.49   30.20
  -8  -4  -3   71.09   33.20
  -8  -4  -3   13.20   27.10
  -8   4  -3   97.49   37.40
   8   4   3   66.09   28.70
  -8   4  -3   45.30   24.80
  -8   4  -3   61.59   28.40
  -8   4  -3   52.59   19.00
  -8   4  -3   75.79   34.80
   8  -5  -3   -5.70   20.90
   8  -5  -3   -2.50   24.10
  -8  -5   3   36.20   31.30
   8  -5  -3   21.60   17.30
  -8  -5   3   32.80   28.90
  -8  -5   3  -34.10   29.30
  -8  -5   3  -16.20   16.50
   8   5  -3   20.20   18.50
   8   5  -3    0.60   26.50
  -8   5   3   -8.50   26.20
  -8   5   3   -9.40   29.00
   8   5  -3    2.80   19.60
  -8   5   3  -29.40   30.10
  -7  -5   3  161.68   25.10
  -7  -5   3  163.98   28.80
  -7  -5   3  164.28   19.50
  -7  -5   3  150.68   27.60
   7  -5  -3  154.08   36.00
   7  -5  -3  189.28   27.30
   7  -5  -3  169.38   21.40
   7  -5  -3  147.39   28.20
   7   5  -3  144.99   23.50
  -7   5   3  145.99   24.40
   7   5  -3  135.29    9.70
  -7   5   3  139.89   26.30
  -7   5   3  184.38   32.40
   7   5  -3  102.29   41.90
   7   5  -3  179.88   28.70
   7   5  -3  130.79   22.20
  -6  -5   3   53.09   14.60
  -6  -5   3   62.09   19.50
   6  -5  -3   80.29   18.50
   6  -5  -3   16.10   19.90
   6  -5  -3   98.89   21.30
  -6  -5   3   90.69   18.60
   6  -5  -3   95.29   17.90
  -6  -5   3   75.19   20.60
   6  -5  -3   73.99   10.70
   6   5  -3   87.09   18.40
  -6   5   3   69.69   21.60
   6   5  -3   76.59   18.70
  -6   5   3   40.20   21.20
   6   5  -3   68.69   18.00
  -6   5   3   53.09   44.90
   6   5  -3   73.19   20.00
  -6   5   3   74.09   19.00
   6   5  -3   77.79   10.80
   6   5  -3   38.20   19.00
  -5  -5   3  321.97   24.80
  -5  -5   3  364.36   29.00
  -5  -5   3  347.07   27.60
   5  -5  -3  288.67   29.30
  -5  -5   3  303.17   30.40
   5  -5  -3  366.86   29.80
   5  -5  -3  371.26   27.90
   5  -5  -3  318.77   28.20
   5  -5  -3  321.27   22.10
  -5  -5   3  364.46   34.30
  -5  -5   3  344.27   31.30
   5   5  -3  248.98   28.00
   5   5  -3  318.67   28.70
   5   5  -3  316.97   21.00
   5   5  -3  340.77   30.80
  -5   5   3  328.87   29.10
  -5   5   3  347.07   32.50
   5   5  -3  340.87   27.50
   5   5  -3  354.76   29.20
   5   5  -3  322.97   27.70
  -5   5   3  327.67   28.50
  -5   5   3  443.76   35.70
   4  -5  -3  499.15   31.20
  -4  -5   3  599.44   35.70
   4  -5  -3  590.64   34.50
   4  -5  -3  573.14   31.80
   4  -5  -3  611.64   43.10
  -4  -5   3  626.54   31.70
   4  -5  -3  577.84   31.60
  -4  -5   3  518.45   29.70
  -4  -5   3  585.74   28.50
  -4  -5   3  542.55   30.80
   4  -5  -3  578.34   35.60
  -4  -5   3  551.04   32.50
   4  -5  -3  579.04   30.60
  -4   5   3  584.14   34.50
  -4   5   3  533.85   34.80
  -4   5   3  540.25   31.10
   4   5  -3  573.14   31.00
  -4   5   3  555.54   36.90
   4   5  -3  490.25   29.30
  -4   5   3  507.65   33.20
  -4   5   3  541.75   30.80
  -4   5   3  573.54   33.20
   4   5  -3  585.14   31.00
   4   5  -3  544.35   26.30
   4   5  -3  559.34   33.20
  -4   5   3  573.84   34.20
   4   5  -3  560.04   30.10
   4   5  -3  567.44   30.20
   4   5  -3  551.44   34.10
   3  -5  -3  603.14   32.90
  -3  -5   3  622.74   32.70
  -3  -5   3  606.74   28.40
  -3  -5   3  607.24   30.50
  -3  -5   3  568.34   28.40
   3  -5  -3  512.35   32.10
  -3  -5   3  628.84   29.40
   3  -5  -3  566.14   29.50
   3  -5  -3  595.24   32.20
   3  -5  -3  620.94   32.20
  -3  -5   3  615.64   31.00
  -3  -5   3  538.25   30.40
  -3  -5   3  630.24   33.00
   3  -5  -3  565.64   29.40
   3  -5  -3  621.74   32.40
   3  -5  -3  615.84   29.80
   3   5  -3  623.64   30.40
   3   5  -3  619.14   29.90
  -3   5   3  624.54   28.30
  -3   5   3  557.24   29.10
   3   5  -3  629.44   29.20
  -3   5   3  597.64   30.40
  -3   5   3  608.44   32.90
   3   5  -3  610.04   30.10
   3   5  -3  595.54   32.20
  -3   5   3  585.54   33.80
  -3   5   3  555.04   29.60
  -3   5   3  594.04   31.90
   3   5  -3  557.34   29.10
   3   5  -3  618.94   32.20
  -3   5   3  598.04   30.70
   2  -5  -3 2943.71   83.19
  -2  -5   3 3068.79   84.49
  -2  -5   3 2920.71   78.99
   2  -5  -3 2971.10   83.69
   2  -5  -3 2955.30   81.89
  -2  -5   3 3022.10   80.19
   2  -5  -3 2907.11   83.69
  -2  -5   3 3077.29   90.79
   2  -5  -3 2947.61   83.79
  -2  -5   3 2996.20   84.19
   2  -5  -3 3148.39   81.19
  -2  -5   3 3091.09   79.89
  -2  -5   3 3068.99   83.09
   2  -5  -3 2926.01   82.89
  -2  -5   3 2972.00   76.89
  -2  -5   3 2887.21   79.49
   2  -5  -3 3036.80   83.69
  -2  -5   3 3013.50   79.99
   2   5  -3 3105.79   83.59
   2   5  -3 3209.08   83.59
   2   5  -3 2972.60   81.29
  -2   5   3 2982.20   81.79
   2   5  -3 2902.41   83.39
   2   5  -3 2903.01   80.59
  -2   5   3 2844.82   80.49
  -2   5   3 2687.93   84.89
  -2   5   3 3006.70   84.89
  -2   5   3 3040.70   83.79
  -2   5   3 2932.71   82.79
   2   5  -3 2928.51   79.39
   2   5  -3 2832.52   84.29
  -2   5   3 3004.20   85.69
  -2   5   3 3021.30   80.49
   1  -5  -3  467.35   22.80
  -1  -5   3  499.25   22.70
   1  -5  -3  519.25   21.70
   1  -5  -3  513.75   25.60
  -1  -5   3  504.65   22.60
  -1  -5   3  478.65   24.30
   1  -5  -3  472.65   26.10
  -1  -5   3  502.45   26.10
   1  -5  -3  482.45   26.30
   1  -5  -3  446.56   26.20
   1  -5  -3  460.85   24.40
  -1  -5   3  457.15   23.50
  -1  -5   3  501.05   26.60
  -1  -5   3  483.65   24.30
  -1  -5   3  482.75   17.80
   1  -5  -3  463.15   27.30
   1  -5  -3  457.05   25.20
   1   5  -3  458.25   22.70
  -1   5   3  516.25   24.90
  -1   5   3  479.55   24.40
  -1   5   3  478.65   25.30
  -1   5   3  476.15   21.70
  -1   5   3  492.55   25.20
  -1   5   3  467.75   22.80
   1   5  -3  473.85   25.30
  -1   5   3  464.65   24.40
   1   5  -3  480.65   24.30
  -1   5   3  436.86   26.40
   1   5  -3  449.95   27.30
   1   5  -3  500.65   24.40
   1   5  -3  526.55   26.20
   1   5  -3  447.66   26.40
  -1   5   3  396.26   25.80
   0  -5   3 2942.91   69.09
   0  -5  -3 3093.69   79.99
   0  -5  -3 3263.67   83.79
   0  -5   3 3237.08   77.89
   0  -5  -3 2961.80   82.29
   0  -5   3 3025.40   83.49
   0  -5  -3 3128.79   77.59
   0  -5   3 2841.72   79.19
   0  -5   3 2941.51   80.29
   0  -5  -3 3124.39   84.29
   0  -5  -3 3093.99   82.09
   0  -5   3 3051.59   84.19
   0  -5  -3 2979.40   81.29
   0  -5   3 3080.89   78.89
   0  -5   3 3129.79   80.69
   0  -5  -3 2947.21   84.89
   0   5   3 3127.99   79.19
   0   5   3 3001.10   80.59
   0   5  -3 3073.89   79.09
   0   5  -3 3022.60   83.89
   0   5   3 3014.30   79.29
   0   5   3 3130.99   84.79
   0   5   3 3048.29   81.69
   0   5  -3 3038.10   78.39
   0   5  -3 3048.90   82.89
   0   5  -3 2974.10   81.19
   0   5  -3 2994.60   78.49
   0   5   3 2909.71   77.79
   0   5   3 3090.79   83.59
   0   5  -3 2852.91   85.29
   0   5  -3 3013.90   81.89
   0   5   3 3094.89   82.09
  -1  -5  -3  161.08   18.70
  -1  -5  -3  174.18   17.00
  -1  -5  -3  129.59   14.80
  -1  -5  -3  199.88   15.10
  -1  -5  -3  155.78   16.90
  -1  -5  -3  151.08   16.50
   1  -5   3  163.18   19.10
   1  -5   3  148.19   13.40
   1  -5   3  184.28   19.80
  -1  -5  -3  156.78   17.30
   1  -5   3  171.18   18.90
  -1  -5  -3  161.68   19.50
   1  -5   3  172.18   12.80
   1  -5   3  189.98   16.20
   1  -5   3  173.98   15.00
  -1   5  -3  129.19   15.90
   1   5   3  174.78   14.20
  -1   5  -3  178.78   16.30
   1   5   3  180.98   14.70
   1   5   3  156.68   19.80
  -1   5  -3  189.78   21.10
   1   5   3  169.18   17.60
   1   5   3  155.98   15.00
   1   5   3  170.98   16.10
  -1   5  -3  203.38   15.00
   1   5   3  119.19   14.70
  -1   5  -3  179.08   18.00
  -1   5  -3  166.68   16.90
   1   5   3  180.08   19.50
  -1   5  -3  153.38   15.50
  -2  -5  -3 2849.22   85.99
   2  -5   3 2982.80   70.19
   2  -5   3 2985.40   80.89
  -2  -5  -3 2967.20   78.39
  -2  -5  -3 3110.29   85.89
  -2  -5  -3 2943.11   80.69
   2  -5   3 2943.61   83.09
   2  -5   3 3079.89   80.79
  -2  -5  -3 3030.40   79.59
   2  -5   3 2897.91   69.69
   2  -5   3 2979.50   83.99
  -2  -5  -3 2926.11   74.79
  -2  -5  -3 2901.01   77.99
   2  -5   3 2914.81   75.89
  -2  -5  -3 2925.51   84.49
  -2   5  -3 3024.60   77.19
   2   5   3 2892.31   83.49
   2   5   3 2933.91   78.59
  -2   5  -3 3005.40   80.89
  -2   5  -3 2923.31   84.89
   2   5   3 2941.71   74.39
  -2   5  -3 3049.29   76.49
  -2   5  -3 2899.21   78.29
   2   5   3 3001.80   76.49
   2   5   3 2951.50   78.49
   2   5   3 2975.40   86.79
   2   5   3 2859.91   74.99
  -2   5  -3 2984.00   77.89
   3  -5   3  415.86   19.30
   3  -5   3  408.66   27.10
   3  -5   3  424.16   28.80
  -3  -5  -3  410.56   26.60
   3  -5   3  398.06   20.60
   3  -5   3  378.36   25.50
  -3  -5  -3  423.86   23.70
  -3  -5  -3  383.56   22.90
   3  -5   3  430.26   27.00
  -3  -5  -3  391.26   26.30
  -3  -5  -3  379.56   23.70
  -3   5  -3  406.76   21.40
   3   5   3  368.76   28.10
  -3   5  -3  403.86   16.90
  -3   5  -3  363.26   20.70
   3   5   3  401.26   27.40
   3   5   3  410.16   21.40
   3   5   3  410.46   16.60
  -3   5  -3  379.96   21.80
   3   5   3  378.76   29.30
   3   5   3  412.06   16.90
  -3   5  -3  430.56   24.00
  -3   5  -3  420.46   22.20
  -3   5  -3  390.46   27.70
   3   5   3  385.96   17.00
   3   5   3  423.06   22.10
  -3   5  -3  411.86   30.20
  -4  -5  -3  785.12   34.30
  -4  -5  -3  801.12   36.10
  -4  -5  -3  738.13   32.00
  -4  -5  -3  710.13   33.40
  -4  -5  -3  758.32   38.80
   4  -5   3  662.93   45.00
   4  -5   3  798.92   39.40
   4  -5   3  760.32   25.40
   4  -5   3  769.82   27.60
  -4  -5  -3  729.73   33.50
  -4   5  -3  742.03   31.70
  -4   5  -3  751.32   31.80
  -4   5  -3  709.23   30.60
  -4   5  -3  802.22   42.00
   4   5   3  710.73   30.50
  -4   5  -3  691.33   37.80
   4   5   3  710.93   38.30
  -4   5  -3  760.02   28.50
   4   5   3  770.62   40.60
  -4   5  -3  754.02   31.80
   4   5   3  739.53   33.80
  -4   5  -3  743.13   32.90
   4   5   3  686.93   39.80
   5  -5   3 1008.50   29.40
  -5  -5  -3  985.20   48.10
  -5  -5  -3  974.60   39.90
   5  -5   3 1024.70   51.99
   5  -5   3 1051.59   31.30
  -5  -5  -3 1026.30   41.90
  -5  -5  -3 1014.10   26.20
  -5  -5  -3  948.81   49.99
   5  -5   3 1054.39   47.30
  -5  -5  -3  996.20   42.20
  -5   5  -3 1067.59   40.90
  -5   5  -3 1041.40   35.60
  -5   5  -3  990.50   52.09
  -5   5  -3 1054.99   40.50
   5   5   3  995.60   50.39
   5   5   3  981.10   48.50
  -5   5  -3 1002.20   49.40
   5   5   3 1056.69   42.30
  -5   5  -3 1039.50   52.59
  -5   5  -3  954.80   38.80
   5   5   3  920.11   46.70
  -6  -5  -3  -17.00   19.00
   6  -5   3    7.70   21.60
  -6  -5  -3    3.90   13.30
  -6  -5  -3   11.50    9.30
  -6  -5  -3   12.30   20.20
   6  -5   3    4.00   15.90
  -6  -5  -3    8.60   13.80
  -6  -5  -3   -6.00   12.50
   6   5   3    7.30   12.70
  -6   5  -3   16.20    7.80
  -6   5  -3   21.90   22.60
  -6   5  -3    1.10   14.70
  -6   5  -3   -3.60   15.60
   6   5   3   22.00   19.70
  -6   5  -3   15.50   13.40
  -6   5  -3   -7.70   13.70
  -6   5  -3   -1.60   19.80
   6   5   3   20.10   17.80
   7  -5   3  598.44   42.80
  -7  -5  -3  691.03   48.30
  -7  -5  -3  737.23   41.10
  -7  -5  -3  740.03   37.30
  -7  -5  -3  673.63   55.69
   7  -5   3  632.04   51.59
  -7   5  -3  592.24   61.99
  -7   5  -3  731.63   41.50
  -7   5  -3  683.73   44.60
  -7   5  -3  531.75   55.59
   7   5   3  675.23   51.79
  -7   5  -3  644.44   37.60
  -8  -6   3 1577.84   85.99
   8  -6  -3 1468.55   57.09
  -8  -6   3 1635.84   56.49
   8  -6  -3 1438.66   68.39
   8  -6  -3 1636.24   74.79
  -8  -6   3 1468.25   75.39
  -8  -6   3 1560.84   80.59
  -8   6   3 1633.24   78.29
   8   6  -3 1503.05   69.29
  -8   6   3 1525.65   78.19
   8   6  -3 1555.14   68.29
   8   6  -3 1550.14   75.49
  -8   6   3 1505.15   74.79
  -8   6   3 1639.54   80.79
   7  -6  -3   23.70   16.60
  -7  -6   3    4.10   23.70
  -7  -6   3   35.20   24.90
  -7  -6   3   32.40   14.70
  -7  -6   3   14.60   20.70
   7  -6  -3   26.80   20.70
   7  -6  -3   58.89   23.60
  -7   6   3  -19.00   23.80
   7   6  -3   14.50   19.00
  -7   6   3  -13.70   22.60
   7   6  -3   48.00   19.80
  -7   6   3    9.60   22.80
  -7   6   3   14.70   23.00
  -7   6   3   19.60   28.10
   7   6  -3   -6.40   19.50
   7   6  -3  -14.40   23.30
   6  -6  -3 2022.60   68.69
  -6  -6   3 2156.78   73.19
  -6  -6   3 2067.49   76.69
  -6  -6   3 2082.09   76.29
   6  -6  -3 2146.79   75.29
   6  -6  -3 2142.89   75.99
  -6  -6   3 2091.29   63.79
   6   6  -3 2225.38   58.29
   6   6  -3 2101.89   74.89
  -6   6   3 2093.19   77.79
  -6   6   3 2113.49   80.39
   6   6  -3 2086.89   72.59
  -6   6   3 2085.69   75.19
  -6   6   3 2189.68   79.69
   6   6  -3 2125.69   77.89
   6   6  -3 2089.49   73.09
  -6   6   3 2166.68   78.89
   5  -6  -3  132.09   22.20
  -5  -6   3  101.99   20.40
  -5  -6   3  146.89   20.60
   5  -6  -3  173.88   23.00
   5  -6  -3  154.48   18.40
  -5  -6   3  185.78   18.90
  -5  -6   3  103.69   19.70
   5  -6  -3  108.69   18.00
   5  -6  -3  162.98   22.50
   5   6  -3  135.69   15.50
  -5   6   3  140.89   23.80
  -5   6   3  171.68   22.90
  -5   6   3  145.69   23.70
   5   6  -3  169.68   21.40
  -5   6   3  149.09   22.20
   5   6  -3  141.89   21.00
  -5   6   3  145.79   22.60
   5   6  -3  138.09   22.40
   5   6  -3  142.19   21.10
  -4  -6   3 2016.90   67.69
  -4  -6   3 2002.60   63.39
   4  -6  -3 2051.39   64.69
   4  -6  -3 1906.51   67.49
  -4  -6   3 2004.70   60.09
   4  -6  -3 2047.60   64.99
   4  -6  -3 2027.90   63.29
  -4  -6   3 2237.68   89.39
  -4  -6   3 1986.50   64.89
  -4  -6   3 1957.80   63.79
  -4   6   3 1958.50   69.49
  -4   6   3 1949.70   68.89
   4   6  -3 2038.00   67.29
   4   6  -3 1978.10   65.09
   4   6  -3 1960.10   67.49
   4   6  -3 1924.41   64.09
  -4   6   3 1951.30   69.99
  -4   6   3 1981.30   66.29
  -4   6   3 2026.30   65.89
  -4   6   3 2000.00   62.39
  -3  -6   3  196.38   19.30
  -3  -6   3  192.48   23.10
   3  -6  -3  166.88   22.20
  -3  -6   3  194.78   21.50
  -3  -6   3  166.88   20.20
   3  -6  -3  169.98   21.20
   3  -6  -3  145.59   17.50
  -3  -6   3  169.68   20.50
   3  -6  -3  180.68   21.50
  -3  -6   3  189.08   27.50
   3  -6  -3  168.48   23.90
  -3  -6   3  202.18   24.10
   3  -6  -3  182.58   22.20
   3  -6  -3  188.78   23.10
   3  -6  -3  153.98   18.40
  -3  -6   3  195.78   23.30
  -3  -6   3  273.77   24.90
  -3  -6   3  183.58   20.30
  -3   6   3  149.19   18.60
  -3   6   3  227.28   23.40
   3   6  -3  181.48   19.50
   3   6  -3  178.58   21.20
   3   6  -3  229.68   25.20
  -3   6   3  178.08   21.80
   3   6  -3  160.08   19.70
  -3   6   3  144.89   21.00
  -3   6   3  185.48   24.90
  -3   6   3  158.18   21.00
  -3   6   3  197.28   23.30
   3   6  -3  186.48   21.70
   3   6  -3  186.48   22.40
   3   6  -3  167.98   22.30
   2  -6  -3  163.38   19.30
   2  -6  -3  147.29   19.90
  -2  -6   3  180.58   19.70
   2  -6  -3  174.58   21.00
  -2  -6   3  184.18   18.50
  -2  -6   3  185.78   20.20
  -2  -6   3  143.69   18.10
   2  -6  -3  148.89   18.30
   2  -6  -3  185.48   21.00
  -2  -6   3  228.18   20.50
  -2  -6   3  171.78   17.70
   2  -6  -3  182.58   23.60
   2  -6  -3  186.88   23.00
   2  -6  -3  142.29   18.00
  -2  -6   3  206.88   24.40
  -2  -6   3  170.28   21.00
   2   6  -3  169.08   19.70
   2   6  -3  162.08   19.80
   2   6  -3  134.69   17.80
  -2   6   3  220.58   21.10
  -2   6   3  170.48   18.80
   2   6  -3  216.98   22.50
  -2   6   3  210.48   24.90
  -2   6   3  194.28   22.40
  -2   6   3  162.98   19.80
   2   6  -3  194.18   24.20
  -2   6   3  181.68   20.40
   2   6  -3  149.99   19.40
  -2   6   3  190.08   21.20
   2   6  -3  174.18   19.50
  -2   6   3  150.48   19.80
  -2   6   3  174.78   20.50
   1  -6  -3  280.07   24.50
  -1  -6   3  252.97   21.10
   1  -6  -3  275.27   20.20
  -1  -6   3  247.68   21.50
  -1  -6   3  274.17   14.00
  -1  -6   3  277.17   21.00
  -1  -6   3  261.07   22.30
   1  -6  -3  284.47   24.00
   1  -6  -3  254.77   21.50
   1  -6  -3  254.77   25.20
   1  -6  -3  267.17   21.30
  -1  -6   3  294.67   25.60
   1  -6  -3  293.47   19.50
   1  -6  -3  268.97   23.20
  -1  -6   3  261.97   20.70
   1  -6  -3  229.48   22.20
  -1  -6   3  248.18   23.00
  -1  -6   3  310.37   21.00
   1   6  -3  246.28   20.30
  -1   6   3  294.47   24.00
  -1   6   3  265.27   24.00
   1   6  -3  276.87   23.80
   1   6  -3  301.77   22.80
   1   6  -3  222.08   24.60
  -1   6   3  289.97   24.10
  -1   6   3  274.77   20.60
  -1   6   3  309.17   23.60
   1   6  -3  286.77   19.90
   1   6  -3  280.37   22.10
  -1   6   3  295.17   21.70
  -1   6   3  301.67   20.90
  -1   6   3  242.88   22.50
  -1   6   3  240.68   23.50
   1   6  -3  293.27   21.00
   0  -6   3  734.43   30.20
   0  -6   3  699.23   28.90
   0  -6   3  696.13   19.50
   0  -6  -3  684.93   34.10
   0  -6   3  671.73   30.70
   0  -6   3  673.13   33.40
   0  -6  -3  654.23   31.60
   0  -6  -3  704.53   28.70
   0  -6  -3  670.83   31.70
   0  -6   3  712.03   27.90
   0  -6  -3  703.33   30.20
   0  -6  -3  707.03   30.90
   0  -6  -3  670.73   29.30
   0  -6   3  720.83   30.90
   0  -6   3  688.93   35.20
   0  -6  -3  703.83   36.20
   0  -6  -3  734.03   32.20
   0  -6   3  695.23   29.60
   0   6  -3  742.63   33.40
   0   6   3  673.93   31.90
   0   6   3  691.03   33.00
   0   6   3  732.43   33.50
   0   6  -3  680.93   30.80
   0   6   3  649.43   33.10
   0   6  -3  653.23   29.10
   0   6   3  646.14   29.60
   0   6  -3  669.93   30.60
   0   6   3  675.23   30.00
   0   6   3  729.13   31.20
   0   6  -3  663.73   33.70
   0   6   3  668.83   28.90
   0   6  -3  696.63   30.20
   0   6  -3  754.62   32.20
   0   6  -3  671.23   29.50
  -1  -6  -3  464.65   24.80
   1  -6   3  453.25   27.10
   1  -6   3  450.05   25.10
  -1  -6  -3  438.76   26.30
   1  -6   3  486.55   28.60
   1  -6   3  453.05   24.30
   1  -6   3  429.26   21.40
  -1  -6  -3  432.86   29.30
  -1  -6  -3  473.65   30.30
  -1  -6  -3  425.06   24.20
  -1  -6  -3  454.05   27.70
  -1  -6  -3  464.05   27.40
   1  -6   3  406.66   22.80
   1  -6   3  391.36   25.90
  -1  -6  -3  453.65   26.70
  -1  -6  -3  432.56   25.50
   1  -6   3  428.06   22.40
   1   6   3  442.06   13.90
  -1   6  -3  442.76   25.40
  -1   6  -3  479.35   25.20
   1   6   3  445.56   28.40
   1   6   3  521.05   29.60
  -1   6  -3  431.56   26.70
   1   6   3  487.95   26.00
   1   6   3  435.96   24.20
   1   6   3  453.25   23.30
   1   6   3  465.05   23.60
  -1   6  -3  420.66   28.20
   1   6   3  408.86   24.00
  -1   6  -3  456.05   23.50
   1   6   3  423.46   23.70
  -1   6  -3  415.76   23.50
  -2  -6  -3 1711.33   59.29
  -2  -6  -3 1762.12   55.89
   2  -6   3 1603.24   53.99
  -2  -6  -3 1711.83   60.49
  -2  -6  -3 1685.43   53.59
   2  -6   3 1720.73   51.29
   2  -6   3 1663.33   45.60
  -2  -6  -3 1713.53   53.69
   2  -6   3 1741.03   55.59
  -2  -6  -3 1774.12   53.49
   2  -6   3 1691.33   58.89
  -2  -6  -3 1591.84   53.79
   2   6   3 1733.93   49.80
  -2   6  -3 1786.42   52.29
  -2   6  -3 1613.84   52.99
  -2   6  -3 1755.22   56.59
   2   6   3 1761.92   50.39
  -2   6  -3 1611.54   59.19
   2   6   3 1700.33   49.99
   2   6   3 1740.03   54.09
   2   6   3 1590.14   58.89
  -2   6  -3 1755.62   57.29
   2   6   3 1705.03   61.09
   2   6   3 1726.53   53.89
  -2   6  -3 1659.93   59.59
   3  -6   3   96.99   16.20
  -3  -6  -3   96.29   17.70
   3  -6   3  108.69   14.70
  -3  -6  -3  106.49   16.10
  -3  -6  -3   87.39   14.50
   3  -6   3  131.69   23.90
   3  -6   3   60.89   15.50
  -3  -6  -3  104.39   14.90
  -3  -6  -3   98.59   18.40
   3  -6   3  114.89   14.70
   3  -6   3   86.79   19.70
   3   6   3  107.39   15.90
   3   6   3   71.09   13.10
   3   6   3   83.09   11.90
  -3   6  -3   97.29   16.30
   3   6   3  100.69   19.50
  -3   6  -3   93.89   13.60
  -3   6  -3  105.59   14.90
  -3   6  -3   76.99   18.10
  -3   6  -3   72.39   12.60
  -3   6  -3   80.79   13.80
   3   6   3   90.79   19.50
  -3   6  -3  100.49   18.40
   3   6   3   89.29   10.50
  -4  -6  -3 1748.43   59.49
  -4  -6  -3 1813.82   62.39
   4  -6   3 1783.22   64.39
   4  -6   3 1792.42   66.19
  -4  -6  -3 1807.72   57.39
  -4  -6  -3 1887.01   61.89
  -4   6  -3 1790.62   56.89
  -4   6  -3 1765.32   67.19
  -4   6  -3 1818.92   50.79
   4   6   3 1815.22   57.39
  -4   6  -3 1771.22   65.49
  -4   6  -3 1779.92   57.99
   4   6   3 1772.72   46.50
   4   6   3 1756.22   66.39
  -4   6  -3 1807.32   58.59
  -4   6  -3 1692.03   55.79
   4   6   3 1784.92   68.69
  -5  -6  -3   30.40   18.70
  -5  -6  -3    2.10   13.10
  -5  -6  -3   18.80   14.40
   5  -6   3   24.40   20.80
  -5  -6  -3   20.60   19.30
   5  -6   3   25.30   10.00
  -5  -6  -3    8.70   14.40
   5  -6   3   25.00   14.60
  -5   6  -3   45.30   13.50
  -5   6  -3    2.10   18.90
  -5   6  -3    0.20   15.50
   5   6   3    4.60   17.10
  -5   6  -3   -5.10   13.70
  -5   6  -3   13.10   13.60
   5   6   3   27.00   20.00
   5   6   3   18.00   12.40
  -5   6  -3   25.40   18.80
  -6  -6  -3  922.91   46.00
  -6  -6  -3  852.51   44.40
  -6  -6  -3  862.21   59.09
   6  -6   3  859.41   54.09
  -6  -6  -3  953.10   45.10
   6  -6   3  931.61   49.90
  -6   6  -3  959.10   60.89
   6   6   3  856.81   51.89
  -6   6  -3  916.91   43.40
   6   6   3  990.70   55.79
  -6   6  -3  897.41   42.20
  -6   6  -3  907.71   42.50
  -6   6  -3  912.51   57.19
  -7  -6  -3  -10.40   26.10
  -7  -6  -3   -2.60   21.90
   7  -6   3  -11.60   17.50
  -7  -6  -3   -7.70   19.00
   7  -6   3   -9.60   24.80
  -7   6  -3   20.30   35.70
  -7   6  -3  -11.80   21.60
  -7   6  -3   -4.40   19.60
  -7   6  -3    8.70   21.30
   7   6   3    3.30   23.60
  -7   6  -3   12.50   31.20
   8  -7  -3    1.60   29.80
   8  -7  -3   13.10   22.60
   8  -7  -3   -9.70   22.30
  -8  -7   3    1.90   31.40
  -8  -7   3   -4.10   28.30
  -8  -7   3   -8.00   21.80
  -8  -7   3  -48.00   25.40
  -8   7   3  -31.80   29.50
   8   7  -3  -33.50   26.00
   8   7  -3  -19.20   32.00
  -8   7   3  -32.20   30.60
   8   7  -3  -25.40   21.40
  -8   7   3    3.30   32.70
  -8   7   3   15.00   45.10
  -8   7   3    9.10   29.20
  -7  -7   3  992.70   57.29
   7  -7  -3 1008.60   55.79
  -7  -7   3  957.10   62.59
  -7  -7   3  903.21   63.29
  -7  -7   3 1124.19   42.60
   7  -7  -3 1048.70   59.29
   7  -7  -3 1010.80   48.30
  -7   7   3  938.71   60.79
  -7   7   3 1088.49   68.69
   7   7  -3 1014.60   53.29
  -7   7   3 1002.30   62.09
   7   7  -3 1020.10   55.69
   7   7  -3 1039.40   64.09
  -7   7   3  978.10   64.69
  -7   7   3  911.91   64.09
   7   7  -3  896.91   52.09
   6  -7  -3   36.20   17.50
   6  -7  -3    1.90   14.40
  -6  -7   3   40.90   22.20
   6  -7  -3   49.20   18.90
  -6  -7   3   30.20   18.20
  -6  -7   3   35.50   20.80
  -6  -7   3   41.20   15.70
   6  -7  -3   36.60   20.60
  -6   7   3   49.10   21.90
   6   7  -3   26.90   19.40
   6   7  -3   36.20   18.50
  -6   7   3   35.50   25.10
   6   7  -3   30.50   21.10
  -6   7   3   36.90   23.40
  -6   7   3   42.10   23.20
   6   7  -3   25.20   19.60
   5  -7  -3  999.70   48.70
   5  -7  -3  938.11   44.80
  -5  -7   3  957.40   38.80
  -5  -7   3  925.01   49.70
  -5  -7   3 1017.30   46.00
  -5  -7   3  985.50   47.90
   5  -7  -3  872.61   40.70
  -5   7   3  954.20   53.19
   5   7  -3  910.11   46.70
   5   7  -3  946.01   38.80
  -5   7   3  970.50   47.20
  -5   7   3 1007.10   52.59
   5   7  -3 1023.20   46.20
  -5   7   3  957.90   49.40
   5   7  -3  964.00   46.00
   5   7  -3  932.71   50.39
  -4  -7   3   69.19   15.70
  -4  -7   3   32.60   16.10
  -4  -7   3   38.00   16.60
   4  -7  -3   38.00   15.60
  -4  -7   3   53.99   15.60
   4  -7  -3   63.99   16.80
  -4  -7   3   39.80   13.20
   4  -7  -3   53.69   16.80
   4   7  -3   64.99   18.00
  -4   7   3   37.40   16.60
   4   7  -3   46.00   14.30
   4   7  -3   63.39   16.80
  -4   7   3   47.30   20.60
  -4   7   3   23.30   18.30
  -4   7   3   60.69   18.10
  -4   7   3   57.69   17.30
   3  -7  -3  729.33   36.80
   3  -7  -3  667.93   38.40
  -3  -7   3  722.33   38.70
  -3  -7   3  739.23   39.10
   3  -7  -3  741.73   36.90
  -3  -7   3  763.22   33.90
   3  -7  -3  816.82   43.50
  -3  -7   3  735.13   33.80
  -3  -7   3  769.32   39.80
  -3   7   3  727.43   40.40
   3   7  -3  760.72   36.00
  -3   7   3  761.32   36.80
  -3   7   3  727.13   38.80
   3   7  -3  776.52   39.70
   3   7  -3  740.03   36.70
  -3   7   3  706.83   41.00
  -3   7   3  733.93   37.40
   3   7  -3  709.33   40.00
   2  -7  -3  417.86   33.30
   2  -7  -3  461.85   29.00
   2  -7  -3  449.46   31.80
  -2  -7   3  440.46   29.10
  -2  -7   3  417.06   29.50
  -2  -7   3  459.05   29.80
  -2  -7   3  434.86   23.70
   2  -7  -3  449.36   29.60
  -2  -7   3  444.26   29.50
  -2  -7   3  446.76   26.90
   2  -7  -3  425.36   31.00
   2  -7  -3  384.56   33.80
  -2  -7   3  388.26   26.10
  -2   7   3  389.46   30.90
  -2   7   3  399.26   27.50
   2   7  -3  436.66   32.80
   2   7  -3  411.76   30.00
   2   7  -3  408.96   26.70
  -2   7   3  435.96   30.40
  -2   7   3  424.76   26.50
   2   7  -3  421.66   29.60
  -2   7   3  468.15   34.90
   2   7  -3  424.76   27.30
  -2   7   3  517.65   32.50
  -2   7   3  461.65   28.00
  -2   7   3  402.06   34.00
   1  -7  -3  115.59   18.90
  -1  -7   3   96.39   15.50
   1  -7  -3  108.09   18.80
   1  -7  -3  130.09   37.10
   1  -7  -3  148.79   18.70
   1  -7  -3   85.89   14.80
  -1  -7   3  107.39   11.90
   1  -7  -3   87.49   15.90
   1  -7  -3   94.49   14.50
  -1  -7   3  103.79   14.50
  -1  -7   3  109.59   16.40
  -1  -7   3   88.99   15.60
   1  -7  -3   87.19   18.10
  -1  -7   3   99.29   17.40
  -1  -7   3   89.79   14.50
  -1   7   3   62.69   15.20
  -1   7   3   91.79   18.10
   1   7  -3  111.49   17.30
  -1   7   3   70.49   14.20
  -1   7   3  101.59   16.80
   1   7  -3   80.49   15.40
  -1   7   3   88.39   14.60
  -1   7   3   89.59   15.80
   1   7  -3  113.49   16.20
   1   7  -3  113.29   19.00
  -1   7   3   71.69   17.50
  -1   7   3   89.69   18.90
   1   7  -3   71.19   14.00
  -1   7   3  113.89   16.60
   0  -7  -3  550.64   33.70
   0  -7  -3  537.15   27.90
   0  -7   3  545.95   17.60
   0  -7  -3  582.74   42.00
   0  -7  -3  588.64   28.70
   0  -7  -3  491.45   28.30
   0  -7  -3  517.65   34.00
   0  -7   3  544.75   26.50
   0  -7   3  517.35   26.70
   0  -7   3  509.75   30.30
   0  -7  -3  512.95   30.40
   0  -7   3  566.74   30.20
   0  -7   3  518.65   28.90
   0  -7   3  494.45   27.30
   0   7  -3  447.56   32.30
   0   7   3  538.05   31.30
   0   7   3  500.45   27.80
   0   7   3  533.75   30.50
   0   7   3  520.95   28.30
   0   7  -3  575.94   31.30
   0   7   3  513.15   28.70
   0   7  -3  497.75   28.40
   0   7   3  490.25   30.70
   0   7  -3  514.35   28.60
   0   7  -3  561.94   33.10
   0   7  -3  500.65   29.70
   0   7  -3  521.55   33.70
  -1  -7  -3  115.59   16.00
  -1  -7  -3   69.49   15.40
  -1  -7  -3  137.49   18.20
  -1  -7  -3  121.99   19.70
   1  -7   3  137.89   16.90
  -1  -7  -3  128.19   15.80
  -1  -7  -3  114.99   15.80
   1  -7   3  105.19   16.20
   1  -7   3  161.08   19.00
   1  -7   3   92.39   15.90
   1  -7   3  115.19   13.80
  -1   7  -3  119.59   20.10
   1   7   3  111.59    9.00
   1   7   3   96.69   14.20
  -1   7  -3   97.69   16.10
   1   7   3  104.79   15.00
  -1   7  -3  133.69   18.30
  -1   7  -3  110.99   16.30
  -1   7  -3   82.09   13.80
   1   7   3  131.19   17.10
  -1   7  -3  129.69   17.90
  -1   7  -3  106.29   18.50
   1   7   3  101.99   18.70
   1   7   3   99.19   14.20
  -2  -7  -3  602.34   30.40
   2  -7   3  627.44   29.50
   2  -7   3  612.94   33.50
   2  -7   3  651.73   34.30
  -2  -7  -3  638.34   33.60
  -2  -7  -3  680.93   34.70
  -2  -7  -3  612.84   31.80
   2  -7   3  615.64   35.70
  -2  -7  -3  662.33   34.60
  -2  -7  -3  651.43   37.00
   2   7   3  676.03   29.60
   2   7   3  632.74   29.70
  -2   7  -3  597.24   35.60
   2   7   3  637.84   35.50
  -2   7  -3  636.24   33.00
   2   7   3  689.23   38.30
  -2   7  -3  617.04   30.90
  -2   7  -3  631.84   38.90
  -2   7  -3  665.73   35.10
   2   7   3  670.13   29.70
  -2   7  -3  585.74   32.00
  -3  -7  -3 1475.35   53.89
  -3  -7  -3 1476.15   51.69
   3  -7   3 1542.15   54.69
   3  -7   3 1502.05   39.50
   3  -7   3 1434.16   47.80
   3  -7   3 1510.55   58.59
  -3  -7  -3 1484.75   58.19
  -3  -7  -3 1477.35   55.49
  -3  -7  -3 1586.04   55.69
   3   7   3 1487.85   52.19
   3   7   3 1550.94   62.09
  -3   7  -3 1445.36   52.79
   3   7   3 1510.55   47.30
  -3   7  -3 1451.05   55.19
  -3   7  -3 1482.95   56.69
   3   7   3 1419.66   46.40
   3   7   3 1506.95   45.30
  -3   7  -3 1491.45   51.19
  -3   7  -3 1465.85   59.89
  -3   7  -3 1445.96   52.19
  -4  -7  -3  115.29   19.00
  -4  -7  -3   86.19   19.40
  -4  -7  -3  150.88   24.40
   4  -7   3  145.59   15.80
   4  -7   3  119.49   24.20
  -4  -7  -3  144.09   20.10
   4  -7   3  124.69   22.10
  -4   7  -3  147.39   20.00
   4   7   3  147.99   14.80
   4   7   3  144.09   13.50
  -4   7  -3  150.98   24.60
   4   7   3   83.39   21.10
  -4   7  -3  128.59   18.10
   4   7   3  163.58   24.40
   4   7   3  124.49   17.70
  -4   7  -3  120.59   17.80
  -4   7  -3  120.09   22.80
  -4   7  -3  141.29   20.20
   5  -7   3 1850.11   61.49
  -5  -7  -3 1762.42   66.29
   5  -7   3 1830.92   71.39
   5  -7   3 1826.62   76.99
  -5  -7  -3 1880.41   65.09
  -5  -7  -3 1823.32   74.19
  -5  -7  -3 1769.02   67.29
  -5  -7  -3 1822.52   75.19
  -5   7  -3 1813.32   62.89
  -5   7  -3 1713.53   67.29
   5   7   3 1924.01   77.89
   5   7   3 1784.12   73.19
  -5   7  -3 1794.52   64.79
  -5   7  -3 1898.01   74.09
  -5   7  -3 1786.92   78.19
   5   7   3 1742.03   61.49
  -5   7  -3 1849.81   62.89
  -6  -7  -3    1.60   19.20
  -6  -7  -3   20.50   19.50
   6  -7   3   30.50   24.10
   6  -7   3    3.80   17.70
  -6  -7  -3   21.60   21.50
  -6  -7  -3    6.00   28.00
  -6   7  -3   56.59   17.90
  -6   7  -3   12.20   19.10
   6   7   3   10.10   22.10
  -6   7  -3    7.20   30.90
  -6   7  -3   29.20   29.80
  -6   7  -3   19.50   19.50
   7  -7   3 1111.59   60.59
  -7  -7  -3 1119.49   58.19
   7  -7   3 1124.09   65.59
  -7  -7  -3 1101.39   69.29
  -7  -7  -3 1087.59   55.79
  -7   7  -3 1231.88   55.99
  -7   7  -3 1032.30   71.79
  -7   7  -3 1033.70   76.69
  -7   7  -3  887.51   81.69
   7   7   3 1103.49   63.99
  -7   7  -3 1129.39   59.09
   7  -8  -3  -43.90   21.40
  -7  -8   3   20.70   45.40
  -7  -8   3   -7.50   18.10
   7  -8  -3   18.60   23.10
  -7  -8   3   -9.50   29.40
  -7  -8   3   37.30   28.40
   7  -8  -3   -6.20   28.70
  -7   8   3   26.50   26.40
   7   8  -3   11.50   26.00
  -7   8   3   24.30   31.90
   7   8  -3   38.70   30.00
   7   8  -3  -21.10   22.40
   7   8  -3    7.70   19.80
  -7   8   3  -19.90   28.80
  -7   8   3  -61.59   37.50
   6  -8  -3  212.48   28.30
  -6  -8   3  235.48   23.50
  -6  -8   3  211.68   30.60
  -6  -8   3  223.38   31.30
   6  -8  -3  234.38   25.00
  -6  -8   3  219.98   35.60
   6  -8  -3  275.47   36.20
  -6   8   3  225.88   35.20
   6   8  -3  242.28   32.10
   6   8  -3  232.18   31.10
   6   8  -3  274.17   24.70
  -6   8   3  199.78   32.20
   6   8  -3  237.68   29.40
  -6   8   3  204.38   34.90
   6   8  -3  169.88   28.90
  -6   8   3  180.98   38.40
   5  -8  -3  610.14   39.40
   5  -8  -3  674.53   38.70
  -5  -8   3  690.33   43.20
  -5  -8   3  632.24   35.20
  -5  -8   3  645.24   43.20
  -5  -8   3  658.03   45.30
   5  -8  -3  662.03   45.50
   5  -8  -3  683.03   44.80
  -5   8   3  742.73   48.60
   5   8  -3  701.83   41.30
  -5   8   3  664.23   45.40
   5   8  -3  709.13   33.60
   5   8  -3  669.93   42.50
   5   8  -3  719.33   47.80
   5   8  -3  629.74   40.90
  -5   8   3  714.03   52.29
  -5   8   3  726.63   43.60
  -4  -8   3  114.19   17.60
  -4  -8   3  103.49   18.90
   4  -8  -3  150.18   24.20
   4  -8  -3  125.59   22.60
  -4  -8   3  109.19   21.90
  -4  -8   3  134.39   21.40
   4  -8  -3  111.09   20.10
  -4  -8   3  120.09   20.40
   4  -8  -3  134.59   21.40
  -4   8   3  127.89   22.40
  -4   8   3  135.29   23.20
   4   8  -3   97.19   20.00
   4   8  -3  128.99   21.60
  -4   8   3  144.99   25.00
  -4   8   3  129.89   26.30
   4   8  -3  100.69   22.50
  -3  -8   3 2763.42   80.89
   3  -8  -3 2800.42   89.49
  -3  -8   3 2868.51   88.49
  -3  -8   3 2754.82   79.79
  -3  -8   3 2875.61   88.59
   3  -8  -3 2772.92   89.19
   3  -8  -3 2771.82   86.89
   3  -8  -3 2808.72   84.99
   3   8  -3 2809.42   89.39
   3   8  -3 2802.12   83.99
  -3   8   3 2815.22   92.89
   3   8  -3 2713.43   85.49
   3   8  -3 2658.93   90.59
  -3   8   3 2804.72   86.79
  -3   8   3 2729.43   85.69
  -3   8   3 2811.02   90.29
   2  -8  -3  145.69   23.20
  -2  -8   3  124.39   19.40
  -2  -8   3  155.78   18.30
   2  -8  -3  135.29   20.00
   2  -8  -3  174.88   23.70
   2  -8  -3  152.68   21.40
  -2  -8   3  150.88   18.70
  -2  -8   3  166.28   22.30
  -2  -8   3  154.68   21.10
  -2  -8   3  127.39   18.60
  -2   8   3  103.09   21.10
  -2   8   3  118.29   18.90
  -2   8   3  107.09   19.90
   2   8  -3  170.48   24.40
   2   8  -3  171.98   20.20
  -2   8   3  153.38   20.70
   2   8  -3  153.68   20.40
  -2   8   3  175.78   19.40
   2   8  -3  175.18   22.50
  -1  -8   3 2934.21   86.99
   1  -8  -3 3060.49   94.69
   1  -8  -3 3067.19   92.79
  -1  -8   3 3241.88   94.99
  -1  -8   3 3085.09   86.49
   1  -8  -3 3014.90   88.89
   1  -8  -3 3159.48   90.79
   1  -8  -3 3020.70   86.69
  -1  -8   3 3122.79   88.09
  -1  -8   3 3079.29   78.39
  -1  -8   3 2987.00   89.29
  -1  -8   3 3101.79   90.49
   1   8  -3 3010.90   88.19
  -1   8   3 3087.59   88.59
  -1   8   3 3040.20   88.99
   1   8  -3 3018.20   88.19
   1   8  -3 2898.91   93.49
   1   8  -3 3076.09   91.59
   1   8  -3 2887.61   90.09
  -1   8   3 2978.20   95.99
  -1   8   3 3089.19   87.39
  -1   8   3 3166.58   94.29
   0  -8   3   30.20   14.20
   0  -8   3    3.00   12.50
   0  -8  -3    0.10   12.40
   0  -8   3   17.20    7.20
   0  -8  -3   -5.40   13.40
   0  -8   3   27.70   12.90
   0  -8  -3    0.20   16.00
   0  -8   3   14.70    5.60
   0  -8  -3    2.40   11.90
   0  -8  -3   42.00   18.10
   0  -8   3   22.50   14.00
   0  -8   3   -8.20   16.80
   0  -8  -3    4.50   16.00
   0  -8   3   29.00   12.90
   0   8  -3    8.30   12.80
   0   8   3   18.40   13.10
   0   8  -3   25.70   16.90
   0   8   3   -4.50   14.20
   0   8   3   44.20   15.50
   0   8   3    9.20   12.60
   0   8  -3   11.10   16.50
   0   8  -3   19.90   12.40
   0   8  -3   -0.60   12.40
   0   8   3   16.50   13.70
   0   8   3   32.70   17.80
   1  -8   3 1456.85   58.19
   1  -8   3 1472.15   54.29
   1  -8   3 1502.45   53.59
  -1  -8  -3 1504.15   61.49
  -1  -8  -3 1474.45   50.59
  -1  -8  -3 1553.84   54.79
   1  -8   3 1477.65   56.69
  -1  -8  -3 1520.95   59.29
  -1  -8  -3 1399.96   52.89
   1  -8   3 1479.95   48.80
  -1  -8  -3 1468.45   56.29
   1  -8   3 1560.64   51.39
  -1   8  -3 1506.05   60.09
   1   8   3 1548.25   52.69
   1   8   3 1526.25   40.70
  -1   8  -3 1598.44   57.99
   1   8   3 1442.56   52.49
   1   8   3 1623.24   58.29
  -1   8  -3 1481.25   55.39
   1   8   3 1522.95   54.19
  -1   8  -3 1543.45   56.89
   1   8   3 1441.56   54.39
  -1   8  -3 1567.04   55.69
  -1   8  -3 1495.85   52.79
  -2  -8  -3  366.36   35.60
   2  -8   3  352.26   29.80
  -2  -8  -3  377.76   30.90
   2  -8   3  342.27   27.60
  -2  -8  -3  394.06   27.30
   2  -8   3  366.36   26.10
   2  -8   3  358.46   24.10
  -2  -8  -3  372.56   33.90
  -2  -8  -3  423.36   34.30
  -2  -8  -3  354.46   28.50
   2  -8   3  366.26   22.60
   2  -8   3  365.46   31.30
  -2   8  -3  342.77   28.10
  -2   8  -3  311.07   34.40
   2   8   3  322.67   25.10
   2   8   3  323.37   27.40
   2   8   3  321.07   28.10
  -2   8  -3  326.37   29.60
  -2   8  -3  346.07   29.80
  -2   8  -3  346.87   28.50
   2   8   3  330.47   32.40
   2   8   3  371.36   30.30
   2   8   3  336.47   28.70
   3  -8   3  545.05   38.60
  -3  -8  -3  596.74   36.20
  -3  -8  -3  555.14   35.00
  -3  -8  -3  523.65   41.40
   3  -8   3  583.04   35.50
   3  -8   3  509.95   29.70
  -3  -8  -3  574.94   40.90
   3  -8   3  542.15   23.60
  -3   8  -3  522.15   38.90
   3   8   3  554.64   29.30
  -3   8  -3  553.54   32.60
  -3   8  -3  549.65   34.10
   3   8   3  549.05   30.00
  -3   8  -3  607.74   38.20
   3   8   3  575.44   40.50
  -3   8  -3  577.64   43.40
   3   8   3  562.74   32.10
  -4  -8  -3  237.58   29.10
   4  -8   3  199.68   23.70
  -4  -8  -3  259.77   31.10
   4  -8   3  220.88   29.10
  -4  -8  -3  199.48   24.10
  -4  -8  -3  196.98   28.00
   4   8   3  208.68   30.10
  -4   8  -3  230.28   24.20
   4   8   3  217.88   28.30
   4   8   3  222.58   16.60
   4   8   3  188.98   30.10
  -4   8  -3  240.88   29.60
  -4   8  -3  220.38   29.60
   4   8   3  238.48   25.10
   4   8   3  239.28   23.10
  -4   8  -3  182.58   22.30
  -4   8  -3  216.48   33.10
  -5  -8  -3    9.00   25.80
  -5  -8  -3   21.00   20.20
   5  -8   3    6.30   20.50
   5  -8   3    7.20   20.90
  -5  -8  -3   15.30   18.70
   5  -8   3   -2.00   17.70
  -5  -8  -3   -7.40   19.60
   5   8   3   48.10   24.60
   5   8   3   33.20   22.10
   5   8   3   17.70   18.60
  -5   8  -3   40.50   19.30
  -5   8  -3   27.90   18.50
  -5   8  -3   11.50   28.60
  -5   8  -3  -39.30   23.30
  -6  -8  -3  159.58   35.60
   6  -8   3  214.48   35.10
  -6  -8  -3  196.38   30.70
  -6  -8  -3  208.38   30.40
   6  -8   3  214.28   30.90
  -6  -8  -3  236.48   38.20
   6   8   3  207.28   34.30
  -6   8  -3  275.77   39.80
  -6   8  -3  243.48   31.70
  -6   8  -3  182.48   37.70
  -6   8  -3  232.68   29.20
  -7  -9   3  153.08   36.50
  -7  -9   3  114.69   33.60
   7  -9  -3  159.38   38.30
  -7  -9   3  137.59   33.40
   7  -9  -3   86.99   30.00
   7  -9  -3  112.09   30.70
  -7   9   3   66.89   35.40
  -7   9   3  180.88   41.20
   7   9  -3   62.09   27.50
  -7   9   3  132.39   38.20
   7   9  -3  102.69   32.20
   7   9  -3  129.79   41.00
  -7   9   3  120.29   35.20
  -6  -9   3  100.39   42.70
   6  -9  -3   48.70   21.60
  -6  -9   3  101.19   20.10
   6  -9  -3   83.59   26.20
  -6  -9   3  118.89   35.50
   6  -9  -3  151.88   32.00
   6  -9  -3   90.59   27.50
  -6  -9   3  108.99   32.10
  -6   9   3  110.09   34.40
   6   9  -3   90.19   30.10
   6   9  -3   87.69   28.20
   6   9  -3  126.09   27.70
   6   9  -3   82.69   25.50
   6   9  -3   60.59   28.10
  -6   9   3  150.08   32.80
  -5  -9   3   47.50   16.70
   5  -9  -3   45.30   22.00
   5  -9  -3   28.60   19.70
  -5  -9   3   67.29   27.30
   5  -9  -3   57.49   20.80
   5  -9  -3   56.39   23.60
  -5  -9   3   48.80   23.60
  -5  -9   3   36.50   20.20
  -5   9   3   49.99   32.20
  -5   9   3   32.30   25.10
   5   9  -3   52.19   20.20
   5   9  -3   49.50   23.90
   5   9  -3   15.70   15.60
  -5   9   3   49.30   27.70
  -5   9   3   33.10   23.40
   5   9  -3   37.40   23.20
   5   9  -3   59.49   22.30
   4  -9  -3  481.35   37.70
   4  -9  -3  531.65   40.20
   4  -9  -3  537.25   42.40
  -4  -9   3  552.84   39.00
  -4  -9   3  502.45   37.80
   4  -9  -3  530.15   41.00
  -4  -9   3  450.35   35.80
  -4  -9   3  469.05   32.40
  -4  -9   3  597.64   42.90
   4   9  -3  565.74   40.90
  -4   9   3  554.44   41.50
  -4   9   3  489.65   44.50
   4   9  -3  541.05   37.10
  -4   9   3  486.35   43.90
  -4   9   3  531.75   40.50
   4   9  -3  471.45   40.10
   3  -9  -3   40.90   19.60
  -3  -9   3   57.89   15.60
   3  -9  -3   55.59   20.20
  -3  -9   3   56.59   16.00
   3  -9  -3   41.90   16.90
   3  -9  -3   27.60   17.60
  -3  -9   3   57.09   19.50
  -3  -9   3   49.99   18.70
   3   9  -3   40.60   19.20
   3   9  -3   58.39   18.00
  -3   9   3    6.80   16.90
   3   9  -3   59.09   21.40
  -3   9   3   27.40   18.70
   3   9  -3   10.30   17.80
  -3   9   3   21.20   17.90
  -3   9   3   29.50   20.90
   2  -9  -3 1243.18   53.79
  -2  -9   3 1331.57   55.69
   2  -9  -3 1279.47   53.69
   2  -9  -3 1284.97   57.49
   2  -9  -3 1302.67   57.19
  -2  -9   3 1248.78   49.20
  -2  -9   3 1309.87   46.20
  -2  -9   3 1242.58   52.69
  -2  -9   3 1305.77   56.09
  -2   9   3 1275.17   60.29
   2   9  -3 1271.77   56.09
   2   9  -3 1335.17   53.99
  -2   9   3 1233.48   53.29
   2   9  -3 1162.48   56.89
  -2   9   3 1289.37   54.19
  -2   9   3 1280.77   48.00
  -2   9   3 1270.57   57.09
   2   9  -3 1361.46   52.39
   1  -9  -3  -12.60   14.70
  -1  -9   3   19.50   15.70
   1  -9  -3  -19.30   15.00
  -1  -9   3    5.30   13.00
   1  -9  -3   -2.90   13.50
  -1  -9   3   -1.70   15.00
   1  -9  -3   17.50   14.90
  -1  -9   3    6.40   16.80
  -1  -9   3   27.40   14.20
   1   9  -3   14.30   14.40
  -1   9   3   -4.80   13.50
   1   9  -3    7.80   14.60
  -1   9   3   12.20   16.50
  -1   9   3   38.80   16.10
  -1   9   3   10.00   14.00
   1   9  -3   15.60   18.50
   1   9  -3   15.80   14.50
   0  -9  -3 3299.57  104.19
   0  -9   3 3250.47   92.49
   0  -9  -3 3227.88   96.29
   0  -9  -3 3180.98   99.69
   0  -9   3 3495.95   82.69
   0  -9  -3 3359.76   94.99
   0  -9   3 3126.89   94.69
   0  -9   3 3337.67   80.59
   0  -9   3 3223.58   96.89
   0  -9   3 3199.08  101.19
   0   9  -3 3312.47   97.29
   0   9   3 3449.16   90.79
   0   9  -3 3230.88   98.59
   0   9  -3 3109.49   95.09
   0   9   3 3325.67   96.19
   0   9   3 3293.07   97.09
   0   9   3 3085.29  103.39
   0   9   3 3320.87  100.99
   0   9  -3 3190.18  102.39
   1  -9   3   12.00   15.40
   1  -9   3   12.10   14.50
   1  -9   3   -3.20   17.80
  -1  -9  -3   -3.40   18.20
   1  -9   3    3.10   14.80
   1  -9   3  -11.30   11.60
  -1  -9  -3   -3.20   14.20
   1  -9   3   -6.20    4.60
  -1  -9  -3   11.50   15.70
  -1  -9  -3  -12.20   14.30
   1   9   3    7.10    7.10
  -1   9  -3   34.20   22.40
  -1   9  -3   -3.50   13.80
   1   9   3   15.20   15.20
   1   9   3   -6.50   15.00
   1   9   3   14.00   14.40
  -1   9  -3  -17.60   16.10
  -1   9  -3  -12.10   15.10
  -1   9  -3   -3.00   14.30
   1   9   3   -2.40   15.70
  -1   9  -3    5.20   14.20
   2  -9   3 1488.05   62.79
  -2  -9  -3 1557.54   61.49
  -2  -9  -3 1496.25   64.69
   2  -9   3 1502.45   58.69
  -2  -9  -3 1551.54   58.59
  -2  -9  -3 1540.25   53.09
   2  -9   3 1528.95   50.09
   2  -9   3 1582.94   53.39
  -2   9  -3 1527.45   65.49
  -2   9  -3 1591.84   63.19
  -2   9  -3 1469.55   57.79
   2   9   3 1518.15   55.09
   2   9   3 1570.84   60.39
  -2   9  -3 1528.95   59.49
   2   9   3 1574.54   60.69
  -2   9  -3 1534.25   61.39
   2   9   3 1401.26   55.99
   2   9   3 1438.86   57.29
   2   9   3 1478.25   63.29
   3  -9   3   24.10   17.60
  -3  -9  -3   32.00   20.00
  -3  -9  -3   33.10   18.30
  -3  -9  -3   41.60   18.00
   3  -9   3   13.50   18.30
   3   9   3   58.59   20.90
   3   9   3   55.29   20.30
  -3   9  -3    6.40   22.30
  -3   9  -3    3.30   24.90
  -3   9  -3   14.10   20.10
  -3   9  -3   38.10   17.40
  -3   9  -3   21.10   17.10
   3   9   3   27.50   19.20
   3   9   3   49.50   19.10
   3   9   3   18.10   15.20
   4  -9   3  490.45   34.20
  -4  -9  -3  436.26   37.90
   4  -9   3  461.75   42.00
  -4  -9  -3  502.25   46.10
  -4  -9  -3  450.95   41.80
  -4   9  -3  484.85   39.10
   4   9   3  510.55   41.80
   4   9   3  429.96   44.00
  -4   9  -3  425.96   49.70
   4   9   3  508.05   33.10
  -4   9  -3  486.05   41.10
  -4   9  -3  455.15   43.80
   4   9   3  522.45   43.50
  -5  -9  -3  190.78   32.80
   5  -9   3  189.68   28.40
  -5  -9  -3  181.38   29.60
  -5   9  -3  174.18   30.50
   5   9   3  169.48   30.20
  -5   9  -3  167.18   26.20
   5   9   3  208.38   23.40
  -5   9  -3  182.78   39.70
  -6  -9  -3    5.10   30.20
  -6  -9  -3   -5.10   22.60
  -6  -9  -3   -2.20   29.20
   6  -9   3   29.90   22.70
  -6  -9  -3  -13.00   31.10
  -6   9  -3   11.40   26.10
   6   9   3  -12.30   23.30
  -6   9  -3   26.60   24.00
  -6   9  -3   33.30   37.40
  -6   9  -3   14.80   33.90
   6 -10  -3 1194.58   90.79
  -6 -10   3 1392.36   75.09
   6 -10  -3 1437.46   78.59
  -6 -10   3 1290.87   70.19
   6 -10  -3 1354.56   63.19
  -6 -10   3 1349.36   55.59
  -6 -10   3 1406.96   74.59
   6 -10  -3 1540.65   78.59
  -6  10   3 1449.85   84.69
  -6  10   3 1403.06   79.69
  -6  10   3 1368.16   73.29
   6  10  -3 1458.45   70.99
   6  10  -3 1443.56   67.69
   6  10  -3 1385.96   83.39
   6  10  -3 1474.05   69.69
  -6  10   3 1437.16   81.19
   5 -10  -3   61.39   25.50
   5 -10  -3   56.79   23.70
  -5 -10   3   38.90   27.20
   5 -10  -3   33.60   22.50
   5 -10  -3   83.39   29.50
  -5 -10   3   61.39   19.00
  -5 -10   3   60.69   26.30
  -5  10   3   73.39   34.50
  -5  10   3   61.29   29.40
   5  10  -3   53.89   27.70
  -5  10   3   69.99   30.80
   5  10  -3   60.69   23.90
   5  10  -3   37.30   28.00
   4 -10  -3  799.92   49.90
   4 -10  -3  749.23   53.39
  -4 -10   3  716.43   51.49
   4 -10  -3  795.52   51.39
  -4 -10   3  747.13   49.99
  -4 -10   3  777.02   48.60
   4 -10  -3  842.62   51.79
  -4 -10   3  702.33   44.80
  -4 -10   3  816.82   41.00
   4  10  -3  749.92   45.90
  -4  10   3  754.02   60.09
  -4  10   3  727.33   52.69
  -4  10   3  794.72   59.69
  -4  10   3  790.22   52.49
   4  10  -3  744.73   52.39
   4  10  -3  790.52   53.19
   3 -10  -3  358.26   39.40
  -3 -10   3  310.17   30.50
   3 -10  -3  312.17   40.00
  -3 -10   3  368.56   34.90
   3 -10  -3  330.97   38.50
  -3 -10   3  348.87   30.60
   3 -10  -3  349.27   34.80
  -3 -10   3  319.07   36.70
  -3  10   3  333.17   39.10
   3  10  -3  386.06   38.10
  -3  10   3  333.57   40.70
   3  10  -3  348.27   35.70
  -3  10   3  393.86   37.80
   3  10  -3  338.37   38.20
  -3  10   3  364.86   42.60
   3  10  -3  336.67   39.10
   2 -10  -3   52.69   18.40
  -2 -10   3   66.89   17.70
  -2 -10   3   35.90   17.10
  -2 -10   3   65.09   14.80
   2 -10  -3   28.10   21.60
  -2 -10   3   50.49   20.20
   2 -10  -3   55.99   22.00
   2 -10  -3   55.99   22.20
  -2 -10   3   68.79   20.90
   2  10  -3   51.79   23.90
  -2  10   3   85.19   25.20
   2  10  -3   47.70   19.40
   2  10  -3   38.00   20.10
  -2  10   3   67.29   20.00
  -2  10   3   56.69   20.70
   2  10  -3   54.19   18.20
  -2  10   3   72.19   23.50
  -1 -10   3  473.85   37.20
  -1 -10   3  448.66   33.40
   1 -10  -3  499.95   41.40
   1 -10  -3  482.65   36.60
  -1 -10   3  457.15   37.40
   1 -10  -3  511.15   40.70
   1 -10  -3  454.85   37.40
  -1 -10   3  397.46   33.30
  -1  10   3  468.65   38.00
   1  10  -3  489.85   38.60
   1  10  -3  498.15   43.10
  -1  10   3  545.65   38.70
   1  10  -3  481.05   35.80
   1  10  -3  477.25   35.00
  -1  10   3  503.55   39.70
   0 -10   3  263.77   31.80
   0 -10   3  251.57   16.40
   0 -10  -3  193.98   26.40
   0 -10  -3  260.17   28.20
   0 -10   3  266.67   30.90
   0 -10  -3  212.78   28.30
   0 -10  -3  197.98   30.10
   0 -10   3  218.48   25.90
   0 -10   3  271.47   29.00
   0  10  -3  272.17   34.60
   0  10  -3  187.68   24.40
   0  10   3  208.58   22.40
   0  10   3  275.77   29.40
   0  10   3  255.77   28.50
   0  10  -3  236.18   26.90
   0  10   3  246.88   29.00
   0  10   3  232.08   27.00
   0  10  -3  257.77   33.40
  -1 -10  -3  632.84   44.30
  -1 -10  -3  650.73   40.60
   1 -10   3  652.33   42.10
   1 -10   3  727.63   36.90
  -1 -10  -3  774.32   48.00
   1 -10   3  666.43   40.40
   1 -10   3  650.53   19.40
   1 -10   3  712.83   58.19
  -1 -10  -3  664.83   49.50
   1 -10   3  691.23   40.30
   1  10   3  717.33   45.40
   1  10   3  689.03   28.70
   1  10   3  645.14   42.10
  -1  10  -3  696.73   40.80
   1  10   3  799.12   46.00
  -1  10  -3  688.23   44.60
  -1  10  -3  675.13   40.50
  -1  10  -3  638.14   49.20
   1  10   3  700.53   40.20
  -2 -10  -3  748.33   39.70
  -2 -10  -3  781.42   51.19
   2 -10   3  727.03   43.60
   2 -10   3  733.53   47.70
   2 -10   3  709.73   37.00
  -2 -10  -3  681.53   46.90
   2 -10   3  722.53   43.70
  -2 -10  -3  770.72   45.90
   2  10   3  791.72   47.40
  -2  10  -3  740.23   46.30
  -2  10  -3  727.73   43.40
  -2  10  -3  741.43   47.50
   2  10   3  722.43   47.50
  -2  10  -3  717.33   51.39
   2  10   3  720.73   46.40
   2  10   3  723.93   40.50
  -2  10  -3  706.03   46.90
   3 -10   3  406.76   40.00
  -3 -10  -3  370.56   42.00
   3 -10   3  408.76   44.10
  -3 -10  -3  399.06   40.20
  -3 -10  -3  397.36   46.00
  -3  10  -3  313.17   35.40
   3  10   3  352.16   40.30
  -3  10  -3  440.56   43.00
   3  10   3  413.96   34.50
  -3  10  -3  340.27   44.60
   3  10   3  356.56   42.40
  -3  10  -3  356.16   41.60
   4 -10   3  635.04   48.80
   4 -10   3  718.13   54.39
  -4 -10  -3  666.73   52.29
  -4 -10  -3  621.74   56.29
  -4  10  -3  654.63   52.89
  -4  10  -3  614.04   56.49
   4  10   3  574.84   49.20
   4  10   3  710.23   49.99
  -4  10  -3  639.04   48.30
   4  10   3  648.14   40.20
  -5 -10  -3   11.70   26.60
  -5 -10  -3   13.60   28.40
  -5 -10  -3   -1.50   29.80
   5 -10   3   43.30   23.50
  -5 -10  -3   -6.10   33.80
   5  10   3   -3.80   19.30
  -5  10  -3   29.10   28.50
   5  10   3   20.10   24.80
  -5  10  -3  -17.20   21.70
  -5  10  -3   -4.30   32.40
   5 -11  -3  706.83   67.29
  -5 -11   3  696.23   54.99
   5 -11  -3  638.64   53.29
   5 -11  -3  701.63   54.09
   5 -11  -3  724.93   62.49
  -5 -11   3  746.23   42.20
  -5 -11   3  677.73   61.39
  -5 -11   3  753.12   58.39
  -5  11   3  718.53   90.69
   5  11  -3  723.23   67.79
  -5  11   3  722.33   64.69
   5  11  -3  701.53   59.09
  -5  11   3  698.83   63.69
  -5  11   3  663.43   57.59
   5  11  -3  779.02   54.99
   4 -11  -3    8.60   30.00
  -4 -11   3   23.10   17.50
   4 -11  -3  -10.70   27.60
  -4 -11   3   52.69   27.10
   4 -11  -3   51.79   23.10
  -4 -11   3   16.30   28.10
  -4 -11   3   58.49   21.90
  -4 -11   3   19.10   21.70
  -4  11   3   31.20   45.60
  -4  11   3   16.70   31.10
   4  11  -3   37.10   23.40
  -4  11   3   29.60   32.60
  -4  11   3   55.29   32.10
   4  11  -3   -7.90   31.50
   4  11  -3   21.60   33.10
  -3 -11   3  407.96   38.30
  -3 -11   3  285.87   34.70
   3 -11  -3  495.65   51.09
  -3 -11   3  399.26   47.50
   3 -11  -3  452.95   46.40
   3 -11  -3  367.56   39.70
  -3 -11   3  325.37   33.60
   3 -11  -3  411.46   50.39
  -3  11   3  408.46   47.50
   3  11  -3  438.06   50.59
   3  11  -3  493.95   41.20
  -3  11   3  462.85   48.30
   3  11  -3  394.66   47.00
   3  11  -3  341.47   44.30
  -3  11   3  428.56   53.49
  -3  11   3  402.66   48.40
  -2 -11   3   52.29   18.30
   2 -11  -3   31.40   26.40
  -2 -11   3   16.70   22.80
   2 -11  -3   80.59   21.70
  -2 -11   3   32.80   14.90
   2 -11  -3   51.99   27.10
   2 -11  -3   25.50   24.40
  -2 -11   3   43.50   19.30
   2  11  -3   15.60   24.70
  -2  11   3   51.19   25.20
  -2  11   3   84.29   33.30
   2  11  -3   50.69   26.00
  -2  11   3   49.70   26.20
   2  11  -3   49.99   19.00
   2  11  -3   42.50   30.80
  -2  11   3   65.09   23.40
   1 -11  -3  134.69   27.10
  -1 -11   3  142.89   24.30
  -1 -11   3  153.18   18.60
  -1 -11   3   95.19   21.30
   1 -11  -3  156.78   29.60
  -1 -11   3  161.48   27.10
  -1 -11   3  154.38   26.70
   1 -11  -3  137.99   24.20
   1 -11  -3  132.19   31.80
   1  11  -3  137.69   27.70
   1  11  -3  129.19   22.90
  -1  11   3  164.88   29.70
  -1  11   3  151.18   27.30
  -1  11   3  124.89   27.90
   1  11  -3  161.88   34.70
   1  11  -3  147.29   30.40
   0 -11  -3   70.59   30.80
   0 -11   3   57.09   10.60
   0 -11   3   48.90   19.00
   0 -11  -3   35.60   25.40
   0 -11   3   73.79   23.80
   0 -11  -3   67.09   20.40
   0 -11   3   31.00   19.40
   0 -11  -3   48.60   23.70
   0 -11   3   41.70   20.10
   0  11  -3   41.50   24.10
   0  11   3   68.19   15.00
   0  11   3   47.60   22.80
   0  11   3   57.39   24.40
   0  11  -3   90.99   31.80
   0  11  -3   62.19   21.40
   0  11  -3   65.89   26.00
   0  11   3   55.49   23.40
   1 -11   3   43.90   19.20
   1 -11   3   42.30   24.40
  -1 -11  -3   57.49   29.40
   1 -11   3   23.60   17.60
  -1 -11  -3   53.59   19.80
  -1 -11  -3   24.50   28.50
  -1 -11  -3   28.50   22.70
   1 -11   3    1.50   17.40
   1  11   3   46.80   22.20
  -1  11  -3    3.60   23.30
   1  11   3   45.20   15.00
  -1  11  -3   75.69   32.20
   1  11   3   42.60   23.60
  -1  11  -3    7.00   20.80
   1  11   3   20.00   22.50
  -1  11  -3   60.29   23.50
  -2 -11  -3  109.99   23.10
  -2 -11  -3   36.70   25.20
   2 -11   3   31.10   19.40
  -2 -11  -3   54.19   31.80
  -2 -11  -3   76.89   28.60
   2 -11   3   66.39   22.90
   2  11   3   62.09   24.70
  -2  11  -3   75.79   26.80
   2  11   3   74.49   25.80
  -2  11  -3   68.79   26.30
  -2  11  -3   61.69   25.50
   2  11   3   77.19   26.50
  -2  11  -3   84.89   27.60
  -2  11  -3   21.40   34.00
  -3 -11  -3  852.61   59.89
   3 -11   3  920.51   57.49
  -3 -11  -3 1009.80   60.19
   3 -11   3  898.71   53.79
  -3  11  -3  914.71   65.29
  -3  11  -3  915.91   58.99
   3  11   3  896.21   52.99
  -3  11  -3  969.30   61.09
   3  11   3  908.41   59.79
  -3  11  -3 1058.09   72.89
  -4 -11  -3  141.19   36.30
  -4 -11  -3  137.09   31.40
   4 -11   3  166.38   33.10
  -4 -11  -3  125.69   33.40
   4  11   3  107.29   33.50
  -4  11  -3  138.69   31.60
  -4  11  -3  198.68   43.40
  -4  11  -3  113.49   32.60
   4  11   3  134.09   34.90
  -4  11  -3  169.88   45.70
   4  11   3  133.89   28.90
  -3 -12   3  948.21   56.49
   3 -12  -3  990.80   61.59
   3 -12  -3  924.81   56.79
  -3 -12   3  934.51   51.29
  -3 -12   3 1026.70   68.09
   3 -12  -3 1035.90   70.59
   3 -12  -3  875.11  106.29
  -3 -12   3  993.00   52.39
  -3  12   3  980.30   67.69
   3  12  -3  917.91   68.79
   3  12  -3  942.01   61.49
   3  12  -3  950.20   61.69
  -3  12   3  877.21   61.69
  -3  12   3  959.80   68.99
  -3  12   3 1010.70   69.99
  -2 -12   3   25.50   18.90
  -2 -12   3   23.10   20.30
   2 -12  -3   61.19   30.00
  -2 -12   3   53.29   22.00
   2 -12  -3   50.79   21.50
   2 -12  -3    1.00   52.79
  -2 -12   3   47.90   32.70
   2 -12  -3    9.00   26.60
   2  12  -3  107.39   35.20
  -2  12   3   36.60   25.40
   2  12  -3   23.40   26.20
  -2  12   3   63.39   32.00
   2  12  -3   49.70   46.50
   2  12  -3   57.09   24.40
  -2  12   3   52.99   32.90
  -1 -12   3 1076.39   61.99
  -1 -12   3 1187.88   62.49
  -1 -12   3 1226.08   66.29
  -1 -12   3 1223.28   58.09
  -1 -12   3 1181.78   45.70
   1 -12  -3 1244.88   69.99
   1 -12  -3 1129.39   67.59
   1 -12  -3 1250.67   59.69
  -1  12   3 1232.38   66.99
   1  12  -3 1108.99   89.39
   1  12  -3 1220.48   64.99
  -1  12   3 1193.58   52.09
   1  12  -3 1165.58   85.99
  -1  12   3  927.71   89.19
  -1  12   3 1265.47   74.49
   1  12  -3  918.21   85.19
   0 -12   3   -6.50   21.80
   0 -12   3    3.20   17.90
   0 -12   3    3.00   19.50
   0 -12  -3   55.39   20.40
   0 -12  -3   -3.80   29.20
   0 -12  -3  -28.30   34.40
   0 -12   3   21.10   25.20
   0 -12  -3  -31.50   26.90
   0  12  -3  -26.00   27.00
   0  12   3   15.10   28.10
   0  12  -3   18.40   36.00
   0  12   3   -4.90   16.20
   0  12   3   32.90   27.30
   1 -12   3  827.12   58.59
  -1 -12  -3  874.01   48.20
   1 -12   3  828.72   54.19
   1 -12   3  837.42   72.89
  -1 -12  -3  920.41   66.29
  -1 -12  -3  794.82   71.79
  -1 -12  -3  964.20   60.89
   1  12   3  872.91   62.19
  -1  12  -3  866.11   66.39
   1  12   3  935.21   64.69
   1  12   3  897.71   66.29
  -1  12  -3  846.22   59.99
  -1  12  -3  881.61   58.49
  -2 -12  -3  144.99   35.10
  -2 -12  -3  162.58   33.70
  -2 -12  -3  202.48   28.10
   2 -12   3  184.28   31.60
  -2 -12  -3  132.99   33.40
   2 -12   3  146.59   34.00
  -2  12  -3  128.09   37.90
  -2  12  -3  151.98   31.90
  -2  12  -3  139.99   33.60
   2  12   3  185.98   40.40
   2  12   3  174.98   35.30
   2  12   3  100.89   31.50
  -9   0   4   -8.70   27.60
   9   0  -4   29.50   21.40
  -9   0   4  -38.10   26.80
   9   0  -4  -17.60   28.30
  -9   0   4   12.70   27.00
   9   0  -4   37.90   21.60
   8   0  -4 1773.42   65.19
  -8   0   4 1851.41   70.29
  -8   0   4 1830.42   79.29
   8   0  -4 1764.42   68.19
   8   0  -4 1830.32   75.09
  -8   0   4 1748.72   76.09
  -8   0   4 1825.72   75.89
   8   0  -4 1726.33   59.19
   7   0  -4   37.50   16.10
   7   0  -4  -17.90   15.10
  -7   0   4    1.70   18.70
  -7   0   4   20.30   17.40
   7   0  -4    4.10   11.60
  -7   0   4   16.10   16.10
   7   0  -4   -7.40    8.10
  -7   0   4    4.10   18.50
   7   0  -4    2.40    8.10
   7   0  -4  -25.00   22.70
  -7   0   4   -9.60   16.20
   7   0  -4   -3.70   17.30
   6   0  -4 1597.94   55.29
   6   0  -4 1536.35   60.39
   6   0  -4 1551.14   56.79
  -6   0   4 1644.54   64.79
  -6   0   4 1675.23   64.79
   6   0  -4 1639.34   54.19
  -6   0   4 1584.54   58.49
  -6   0   4 1607.74   61.19
  -6   0   4 1703.33   57.59
   6   0  -4 1716.03   56.09
  -6   0   4 1670.13   54.89
  -5   0   4  -21.10   13.90
   5   0  -4  -14.70   13.00
  -5   0   4   -1.10   12.70
  -5   0   4   15.80   10.90
  -5   0   4   -1.30   10.70
   5   0  -4   -0.20   12.70
   5   0  -4    2.00   10.30
  -5   0   4   18.50   13.50
   5   0  -4   11.40   12.90
   5   0  -4    1.80   13.70
   5   0  -4    2.10   10.60
  -5   0   4    3.30   12.40
  -5   0   4  -30.90   14.90
  -5   0   4    4.50   14.40
   5   0  -4   20.00   12.80
   4   0  -4  195.98   16.80
   4   0  -4  187.98   19.90
   4   0  -4  141.39   16.70
  -4   0   4  179.68   18.70
   4   0  -4  207.18   22.80
  -4   0   4  127.29   17.10
   4   0  -4  202.58   20.30
  -4   0   4  215.28   21.50
  -4   0   4  178.18   18.20
  -4   0   4  184.38   22.00
  -4   0   4  177.28   18.30
  -4   0   4  185.28   17.50
   4   0  -4  195.58   21.30
   4   0  -4  196.58   17.40
   4   0  -4  204.28   21.20
  -4   0   4  175.28   21.50
  -3   0   4   -5.70    7.00
   3   0  -4   10.90   13.30
   3   0  -4    7.10    8.60
   3   0  -4   13.90    7.90
  -3   0   4    2.30    8.70
  -3   0   4    2.60    9.10
  -3   0   4    1.30    6.00
  -3   0   4   18.40    9.00
   3   0  -4  -25.30    8.50
   3   0  -4   -4.50    8.60
   3   0  -4    8.60    8.50
  -3   0   4    4.50    9.20
   2   0  -4 1474.15   44.60
  -2   0   4 1370.26   37.60
   2   0  -4 1445.16   43.10
   2   0  -4 1311.87   41.40
   2   0  -4 1280.37   47.60
  -2   0   4 1396.76   42.80
  -2   0   4 1487.15   41.70
  -2   0   4 1368.66   38.70
  -2   0   4 1336.87   43.00
   2   0  -4 1416.06   41.40
  -2   0   4 1474.15   44.50
  -2   0   4 1365.76   40.70
   2   0  -4 1403.96   43.50
  -2   0   4 1439.86   43.40
  -2   0   4 1414.36   42.90
   1   0  -4    2.80    5.60
   1   0  -4    3.70    6.00
   1   0  -4    0.10    6.00
   1   0  -4   -7.50    6.60
  -1   0   4   -2.80    6.90
   1   0  -4    1.60    3.20
  -1   0   4    4.40    7.30
  -1   0   4    2.60    4.90
  -1   0   4    2.60    5.50
   1   0  -4   -0.40    6.20
  -1   0   4    2.10    8.20
   1   0  -4    5.00    6.80
   1   0  -4    5.60    6.00
  -1   0   4    3.80    3.60
  -1   0   4   -9.70    5.30
  -1   0   4    5.40    3.30
  -1   0   4   17.20    5.40
   0   0   4 7805.42  169.78
   0   0  -4 7101.59  165.98
   0   0  -4 7297.17  167.88
   0   0  -4 7174.88  164.18
   0   0   4 7102.59  166.78
   0   0  -4 7643.04  166.28
   0   0   4 7679.33  168.98
   0   0  -4 7081.39  168.08
   0   0  -4 7179.48  164.18
   0   0  -4 7127.49  171.78
   0   0   4 7224.28  173.98
   0   0  -4 7145.38  168.68
  -1   0  -4    4.30    4.10
  -1   0  -4    3.10    2.20
  -1   0  -4   -8.80    6.10
  -1   0  -4    1.40    4.70
   1   0   4   -7.90    5.80
   1   0   4    9.10    9.50
  -1   0  -4    1.20    2.10
  -1   0  -4    2.40    3.20
  -1   0  -4   -3.70    3.10
   2   0   4 4008.90  101.99
   2   0   4 3957.90  103.79
   2   0   4 4063.89   94.89
  -3   0  -4   -5.70    6.70
   3   0   4  -13.30   11.10
   3   0   4   13.10    6.70
   3   0   4   12.20   10.50
  -4   0  -4 1683.43   49.50
  -4   0  -4 1729.13   41.60
  -4   0  -4 1708.43   41.00
   4   0   4 1622.44   55.39
  -4   0  -4 1679.13   41.10
  -4   0  -4 1647.44   42.00
   4   0   4 1673.43   58.89
  -4   0  -4 1599.44   54.49
  -5   0  -4   12.10   14.10
  -5   0  -4    0.80    6.20
   5   0   4   -4.90   12.30
   5   0   4  -12.60   15.30
  -5   0  -4    1.80    5.10
  -5   0  -4   -0.80    5.70
  -5   0  -4   -3.70    7.80
  -5   0  -4   -7.90    7.30
   5   0   4   13.90   15.30
  -6   0  -4 1088.89   35.00
   6   0   4 1090.19   53.49
  -6   0  -4 1058.49   33.60
  -6   0  -4 1062.29   52.59
  -6   0  -4 1067.29   30.90
  -6   0  -4 1065.29   39.70
  -6   0  -4 1067.89   34.20
  -6   0  -4 1106.99   35.80
   6   0   4 1083.39   48.10
  -6   0  -4 1121.19   38.40
  -6   0  -4 1117.09   52.69
  -7   0  -4    6.20    7.10
   7   0   4   -2.60   18.50
  -7   0  -4    1.10   22.10
  -7   0  -4   -9.70   10.40
   7   0   4   -5.80   19.30
  -7   0  -4   16.80   24.60
  -7   0  -4   -9.10   18.20
  -7   0  -4   -0.10   10.60
   8   0   4  135.39   31.70
  -8   0  -4  133.59   35.50
  -8   0  -4  199.18   24.90
  -8   0  -4  157.28   37.70
   9  -1  -4  397.66   43.40
  -9  -1   4  385.66   50.49
  -9  -1   4  328.67   41.30
  -9  -1   4  327.27   43.10
   9  -1  -4  271.57   34.20
   9  -1  -4  357.96   39.00
  -9   1   4  265.27   69.89
   9   1  -4  335.97   39.00
   9   1  -4  410.96   41.20
   9   1  -4  264.37   37.80
  -9   1   4  401.16   48.80
  -9   1   4  353.26   41.10
  -9   1   4  423.96   54.69
   8  -1  -4   42.20   22.40
  -8  -1   4   53.09   21.10
   8  -1  -4   71.49   19.20
  -8  -1   4   59.39   27.40
   8  -1  -4   53.79   19.70
  -8  -1   4   46.30   27.00
  -8  -1   4   85.59   26.70
   8   1  -4   39.80   15.50
   8   1  -4   47.50   26.50
   8   1  -4   56.39   19.10
  -8   1   4   61.49   25.00
  -8   1   4   81.59   22.50
  -8   1   4   29.50   24.40
  -8   1   4   51.49   27.70
   8   1  -4   81.39   20.40
   7  -1  -4  665.23   38.60
  -7  -1   4  614.94   42.00
  -7  -1   4  646.84   46.70
   7  -1  -4  656.33   21.40
   7  -1  -4  662.03   35.10
   7  -1  -4  758.22   44.60
  -7  -1   4  670.13   40.10
  -7  -1   4  647.04   39.80
   7  -1  -4  641.74   37.80
   7  -1  -4  665.73   21.70
   7   1  -4  655.03   30.80
   7   1  -4  699.93   37.90
  -7   1   4  661.63   40.70
   7   1  -4  671.23   42.70
  -7   1   4  664.13   45.00
   7   1  -4  673.23   33.60
  -7   1   4  696.03   43.40
  -7   1   4  688.83   42.90
  -7   1   4  604.24   42.70
   7   1  -4  721.73   39.10
   6  -1  -4  491.65   29.80
  -6  -1   4  496.65   34.90
   6  -1  -4  512.95   32.60
  -6  -1   4  448.26   34.80
   6  -1  -4  445.76   28.70
   6  -1  -4  478.45   32.20
  -6  -1   4  448.26   30.10
   6  -1  -4  499.35   21.50
  -6  -1   4  443.56   32.00
  -6  -1   4  512.35   37.70
   6  -1  -4  466.25   33.90
   6   1  -4  457.95   31.90
  -6   1   4  479.35   32.00
   6   1  -4  481.95   30.80
  -6   1   4  454.05   38.10
  -6   1   4  480.25   35.70
  -6   1   4  419.96   31.20
  -6   1   4  538.75   32.90
   6   1  -4  489.35   34.00
  -6   1   4  504.55   35.40
   6   1  -4  395.46   23.20
   6   1  -4  516.05   28.00
  -5  -1   4  542.65   32.20
   5  -1  -4  569.94   36.30
   5  -1  -4  565.44   35.00
  -5  -1   4  569.74   34.60
   5  -1  -4  564.54   24.40
  -5  -1   4  572.24   34.50
   5  -1  -4  534.75   30.90
  -5  -1   4  540.85   31.10
   5  -1  -4  586.94   30.50
   5  -1  -4  600.54   29.10
  -5  -1   4  597.04   27.90
  -5  -1   4  555.54   30.30
  -5  -1   4  553.04   29.90
   5  -1  -4  548.55   34.10
   5  -1  -4  620.34   30.50
  -5  -1   4  504.05   31.50
   5   1  -4  573.94   34.40
   5   1  -4  553.64   34.50
  -5   1   4  598.24   32.80
   5   1  -4  564.14   31.10
  -5   1   4  571.64   31.50
   5   1  -4  562.84   28.00
  -5   1   4  502.75   32.70
  -5   1   4  635.94   34.10
  -5   1   4  588.84   31.40
   5   1  -4  573.54   33.40
  -5   1   4  548.45   33.50
  -5   1   4  571.94   30.70
   5   1  -4  568.44   32.30
   5   1  -4  637.94   30.40
  -5   1   4  583.34   33.80
  -4  -1   4 2010.00   59.69
  -4  -1   4 2048.30   59.09
  -4  -1   4 2124.89   63.69
  -4  -1   4 2020.60   61.69
   4  -1  -4 1999.40   61.09
  -4  -1   4 2120.79   58.89
   4  -1  -4 2012.70   64.19
  -4  -1   4 2049.99   63.59
   4  -1  -4 2019.20   61.79
   4  -1  -4 2097.39   60.49
  -4  -1   4 2102.79   62.79
   4  -1  -4 2015.70   63.79
  -4  -1   4 2037.40   60.49
   4  -1  -4 2195.48   64.99
  -4  -1   4 1983.80   62.99
   4  -1  -4 2011.00   56.59
   4   1  -4 2057.89   62.79
  -4   1   4 1908.71   66.19
  -4   1   4 2060.29   60.59
  -4   1   4 1922.71   63.69
   4   1  -4 1936.61   61.59
  -4   1   4 2133.59   61.49
   4   1  -4 1858.01   55.29
  -4   1   4 1965.10   63.59
  -4   1   4 1999.20   61.89
  -4   1   4 2065.89   61.69
   4   1  -4 2023.80   63.79
  -4   1   4 2126.89   63.99
   4   1  -4 1946.51   63.69
   4   1  -4 1929.91   59.29
   4   1  -4 1999.40   59.09
   4   1  -4 1949.20   62.39
  -3  -1   4  114.39   11.50
   3  -1  -4   86.89   13.10
  -3  -1   4  114.39   15.60
  -3  -1   4   92.39   17.40
  -3  -1   4  131.79   14.80
   3  -1  -4  109.39   14.40
   3  -1  -4  115.79   14.40
  -3  -1   4  129.69   16.40
   3  -1  -4  112.19   14.90
  -3  -1   4  139.29   14.50
  -3  -1   4   98.99   13.70
  -3  -1   4  100.69   12.20
   3  -1  -4  142.09   14.50
  -3   1   4  105.79   12.50
  -3   1   4  148.29   16.20
   3   1  -4   65.99   14.40
  -3   1   4  123.19   15.10
   3   1  -4  133.69   15.90
  -3   1   4   95.89   14.70
   3   1  -4  112.19   22.00
  -3   1   4  123.29   13.20
   3   1  -4  138.39   15.80
  -3   1   4  107.69   13.00
   3   1  -4  103.19   12.20
  -3   1   4   81.49   14.10
   3   1  -4  101.29   13.90
   2  -1  -4 3191.18   81.29
  -2  -1   4 3012.40   72.39
  -2  -1   4 2769.02   79.89
  -2  -1   4 3066.19   79.19
   2  -1  -4 3101.19   75.59
  -2  -1   4 3121.89   76.49
  -2  -1   4 3151.78   77.59
  -2  -1   4 3110.89   78.79
  -2  -1   4 3210.78   80.39
  -2  -1   4 3130.09   79.59
   2  -1  -4 2929.41   78.19
   2  -1  -4 3238.08   78.39
   2  -1  -4 2987.50   78.89
  -2   1   4 3168.38   80.49
   2   1  -4 2777.92   83.49
   2   1  -4 3075.09   78.19
  -2   1   4 2948.30   79.59
   2   1  -4 2870.31   80.39
  -2   1   4 2842.82   78.89
  -2   1   4 3045.80   77.59
  -2   1   4 3082.39   80.19
   2   1  -4 2942.11   77.59
  -2   1   4 2996.60   75.29
   2   1  -4 3182.08   77.49
   2   1  -4 2624.34   84.99
  -2   1   4 3125.99   78.59
  -1  -1   4  161.18   13.70
  -1  -1   4  114.59   11.40
  -1  -1   4  122.89   12.90
   1  -1  -4  138.39   14.00
  -1  -1   4  149.99   11.80
  -1  -1   4  138.79   10.40
  -1  -1   4  144.29   10.30
   1  -1  -4  140.49   13.10
   1  -1  -4  163.98   15.30
   1  -1  -4  137.19    9.80
  -1  -1   4  141.09   10.40
  -1  -1   4  133.19   12.20
   1  -1  -4  140.69   11.70
   1  -1  -4  131.49   12.10
   1  -1  -4  136.99   12.80
   1  -1  -4  109.29   12.00
  -1   1   4  135.79   10.20
   1   1  -4  151.88   11.90
  -1   1   4  140.59   10.80
   1   1  -4  131.39   12.30
   1   1  -4  162.58   12.50
  -1   1   4  137.39   11.90
   1   1  -4  136.69   10.60
  -1   1   4  152.98   16.60
   1   1  -4  154.18   12.40
  -1   1   4  132.69   11.00
   1   1  -4  154.08   13.40
   1   1  -4  129.29   11.00
  -1   1   4  147.09    6.30
   1   1  -4  161.78   14.70
  -1   1   4  148.19   12.90
  -1   1   4  143.19   14.30
  -1   1   4  151.08   13.10
   0  -1  -4 3057.89   76.79
   0  -1  -4 3235.98   76.39
   0  -1   4 3275.17   76.79
   0  -1  -4 3213.38   77.99
   0  -1  -4 3195.08   76.79
   0  -1  -4 3122.29   78.29
   0  -1   4 3274.47   79.19
   0  -1   4 2985.80   82.49
   0  -1   4 3284.77   79.39
   0  -1  -4 3122.69   81.49
   0  -1  -4 3255.77   76.09
   0   1   4 3200.78   81.09
   0   1  -4 3048.69   76.99
   0   1   4 3259.67   84.29
   0   1   4 3103.99   76.59
   0   1   4 3210.38   72.99
   0   1   4 3249.97   76.79
   0   1   4 3023.70   78.59
   0   1  -4 3224.18   77.49
   0   1  -4 3194.58   77.19
   0   1  -4 3091.99   76.19
   0   1  -4 3148.89   79.79
   0   1  -4 3203.38   75.59
   0   1  -4 3211.08   75.69
   0   1   4 3141.59   72.79
  -1  -1  -4 2822.92   78.79
  -1  -1  -4 2892.61   68.59
  -1  -1  -4 2777.92   74.79
   1  -1   4 2935.31   78.59
  -1  -1  -4 2929.51   68.09
  -1  -1  -4 2927.81   70.59
  -1  -1  -4 2850.81   69.99
   1  -1   4 2980.20   73.09
  -1  -1  -4 2896.71   70.29
  -1   1  -4 2875.01   66.79
   1   1   4 2996.80   71.09
  -1   1  -4 3018.70   67.19
  -1   1  -4 2936.71   74.29
   1   1   4 3002.70   79.89
   1   1   4 2930.81   66.99
  -1   1  -4 2989.30   69.09
   1   1   4 3057.59   67.29
  -1   1  -4 2892.91   70.79
  -1   1  -4 2834.32   68.79
  -1   1  -4 2951.10   72.99
  -2  -1  -4  108.89    5.30
  -2  -1  -4  102.79    6.80
  -2  -1  -4  104.89    5.50
   2  -1   4  132.89   16.10
  -2  -1  -4  101.59    8.90
  -2  -1  -4  111.69   11.80
   2  -1   4  102.39   11.70
  -2  -1  -4  110.99    7.00
   2  -1   4  116.19   14.80
  -2   1  -4   98.29    4.80
  -2   1  -4   98.49    4.80
  -2   1  -4   98.49   12.40
  -2   1  -4  114.89   12.40
   2   1   4  119.69   14.50
   2   1   4   94.49   13.50
   2   1   4  143.29   10.10
  -3  -1  -4 4017.50   95.09
   3  -1   4 4196.48   98.69
   3  -1   4 4266.47  108.69
   3  -1   4 4195.98  106.89
  -3  -1  -4 4164.68  100.29
  -3  -1  -4 4138.49   94.69
  -3  -1  -4 4074.19   93.29
  -3  -1  -4 4026.30   92.99
   3   1   4 4250.97  109.99
  -3   1  -4 4007.30  106.99
  -3   1  -4 3874.61  108.49
   3   1   4 3979.00   93.59
   3   1   4 4030.50  107.79
  -4  -1  -4   17.80    6.50
  -4  -1  -4    7.40    6.70
   4  -1   4   -2.90   13.50
   4  -1   4   21.10   12.00
  -4  -1  -4    8.80    5.80
  -4  -1  -4   17.30    4.80
   4  -1   4   22.90   11.50
  -4  -1  -4   18.90    5.00
  -4  -1  -4   17.70   11.90
  -4  -1  -4  -11.80   10.30
  -4   1  -4    5.10   11.20
   4   1   4   25.70   12.70
  -4   1  -4   19.40    4.70
  -4   1  -4   17.90    8.30
  -4   1  -4   13.80    3.70
  -4   1  -4   10.10    4.30
  -4   1  -4    6.00   12.10
   4   1   4   24.20   14.30
  -5  -1  -4 1219.78   35.30
  -5  -1  -4 1119.09   49.30
   5  -1   4 1262.17   52.19
  -5  -1  -4 1163.58   34.40
   5  -1   4 1193.88   42.80
  -5  -1  -4 1248.68   37.20
  -5  -1  -4 1165.98   36.50
   5  -1   4 1150.48   46.70
  -5   1  -4 1188.38   33.60
  -5   1  -4 1237.68   36.80
  -5   1  -4 1232.48   35.70
   5   1   4 1210.68   52.19
  -5   1  -4 1254.27   51.69
  -5   1  -4 1210.38   34.60
  -5   1  -4 1210.48   48.20
   6  -1   4  541.25   32.20
  -6  -1  -4  512.95   22.70
  -6  -1  -4  491.95   39.80
   6  -1   4  548.15   34.30
  -6  -1  -4  511.75   24.10
  -6  -1  -4  481.95   29.00
  -6  -1  -4  520.75   21.80
   6  -1   4  509.25   40.10
  -6  -1  -4  599.14   38.90
  -6  -1  -4  526.05   25.10
  -6   1  -4  449.56   29.20
  -6   1  -4  546.95   22.10
  -6   1  -4  524.75   41.20
   6   1   4  523.65   39.80
  -6   1  -4  531.05   38.20
  -6   1  -4  508.05   16.30
  -6   1  -4  522.25   23.30
   6   1   4  459.55   34.70
  -6   1  -4  517.25   16.10
  -6   1  -4  516.95   29.90
   7  -1   4  386.56   39.30
   7  -1   4  345.57   34.70
  -7  -1  -4  342.97   23.70
  -7  -1  -4  345.27   32.60
  -7  -1  -4  360.06   46.10
  -7  -1  -4  346.07   22.70
  -7  -1  -4  346.17   41.50
   7  -1   4  453.65   35.40
   7   1   4  302.27   38.30
  -7   1  -4  370.06   43.20
  -7   1  -4  375.56   38.00
   7   1   4  378.76   36.10
  -7   1  -4  360.56   21.80
  -8  -1  -4  534.05   57.79
  -8  -1  -4  469.95   31.10
   8  -1   4  493.25   51.49
  -8   1  -4  413.56   44.90
  -8   1  -4  617.64   62.49
   8   1   4  421.86   48.60
   9  -2  -4   57.39   24.60
  -9  -2   4   29.50   26.60
  -9  -2   4   41.30   30.90
  -9  -2   4   20.20   19.50
  -9  -2   4  -12.70   29.90
   9  -2  -4  -15.20   30.10
   9  -2  -4   24.80   29.70
   9   2  -4   20.50   21.30
  -9   2   4   39.10   32.30
  -9   2   4   31.00   29.50
   9   2  -4   18.10   23.80
  -9   2   4   -3.10   23.80
   9   2  -4    2.00   31.20
  -9   2   4   -0.10   30.20
   8  -2  -4   31.70   19.70
  -8  -2   4    6.90   26.30
   8  -2  -4    2.70   17.80
  -8  -2   4  -36.10   21.70
  -8  -2   4   -8.80   24.70
   8  -2  -4   21.90   23.60
  -8  -2   4   -2.60   20.40
  -8   2   4  -11.90   24.60
   8   2  -4    1.70   19.50
  -8   2   4  -20.50   24.30
  -8   2   4   -7.30   23.40
   8   2  -4   -6.80   21.60
   8   2  -4   23.50   18.00
  -8   2   4  -12.80   20.00
   8   2  -4   32.80   14.00
  -7  -2   4  926.81   47.60
  -7  -2   4  893.51   48.40
  -7  -2   4  893.21   45.70
   7  -2  -4  904.81   42.50
   7  -2  -4  969.10   49.60
   7  -2  -4  944.11   44.60
   7  -2  -4  919.81   25.40
  -7  -2   4  910.21   49.80
   7  -2  -4  871.11   44.00
  -7   2   4  964.60   49.20
  -7   2   4  845.22   48.70
  -7   2   4  909.01   52.09
   7   2  -4  946.61   44.80
   7   2  -4  931.81   37.60
   7   2  -4  954.00   49.00
   7   2  -4  921.41   35.60
   7   2  -4  918.81   44.80
  -7   2   4  840.72   45.40
   6  -2  -4   19.10   15.40
  -6  -2   4    0.90   15.40
   6  -2  -4    7.30   12.90
   6  -2  -4   10.50    7.20
  -6  -2   4   39.70   21.90
   6  -2  -4   -0.90   15.30
  -6  -2   4  -15.30   11.70
  -6  -2   4    2.40   15.60
   6  -2  -4   -5.10   13.10
  -6  -2   4    0.90   14.20
   6  -2  -4   -9.10   14.20
  -6   2   4   -3.80   15.50
   6   2  -4  -13.20   13.20
  -6   2   4   -6.70   14.80
  -6   2   4   31.10   17.90
   6   2  -4    5.90   10.60
   6   2  -4   -0.60   16.60
  -6   2   4  -18.10   19.70
  -6   2   4    0.90   15.80
   6   2  -4   -4.80   13.40
   6   2  -4  -19.20   10.60
   6   2  -4   13.00   14.90
   6   2  -4    4.80   13.60
  -6   2   4   12.20   14.70
  -5  -2   4 3726.73  108.69
  -5  -2   4 3919.31  109.29
  -5  -2   4 3970.30  109.99
   5  -2  -4 4013.40  103.19
   5  -2  -4 3987.40  104.49
  -5  -2   4 3753.12  107.29
   5  -2  -4 4568.74  144.19
   5  -2  -4 3856.11  106.49
  -5  -2   4 3784.92  108.79
   5  -2  -4 3916.21   98.99
   5  -2  -4 3767.62  110.19
   5  -2  -4 3804.12  105.79
  -5  -2   4 3844.82  104.49
   5   2  -4 4060.79  104.59
   5   2  -4 3874.21  109.79
  -5   2   4 3923.11  111.49
  -5   2   4 4050.09  111.59
   5   2  -4 3940.21  111.39
   5   2  -4 3934.91  108.89
  -5   2   4 3917.41  110.89
   5   2  -4 3950.70  102.29
  -5   2   4 3704.73  106.89
   5   2  -4 3834.42  106.79
   5   2  -4 4039.80  100.79
   5   2  -4 4086.79  109.19
  -5   2   4 3776.42  105.39
   5   2  -4 3692.83  107.39
  -5   2   4 3928.91  106.19
   4  -2  -4  159.68   15.60
  -4  -2   4  153.58   17.70
   4  -2  -4  167.38   17.50
  -4  -2   4  151.28   16.60
  -4  -2   4  198.48   21.00
   4  -2  -4  119.39   18.20
   4  -2  -4  149.99   18.00
   4  -2  -4  116.39   15.80
   4  -2  -4  118.99   17.60
   4  -2  -4  133.99   18.90
  -4  -2   4  135.69   18.20
  -4  -2   4  200.08   21.80
  -4  -2   4  139.79   17.50
   4  -2  -4  201.18   22.90
  -4  -2   4  140.79   17.60
  -4   2   4  128.89   16.20
   4   2  -4  159.88   17.90
  -4   2   4  108.99   16.70
   4   2  -4  125.49   17.90
  -4   2   4  165.88   20.10
  -4   2   4  160.98   18.40
   4   2  -4  109.59   15.40
   4   2  -4  150.58   18.00
  -4   2   4  154.48   18.20
  -4   2   4  135.69   17.90
   4   2  -4  116.09   16.00
   4   2  -4  137.39   16.40
  -4   2   4  138.69   16.20
  -4   2   4  138.59   16.30
   4   2  -4  126.79   17.90
  -3  -2   4 6262.37  156.58
  -3  -2   4 6572.54  155.88
   3  -2  -4 6038.60  157.88
  -3  -2   4 6283.07  154.98
  -3  -2   4 6594.04  154.78
   3  -2  -4 6665.13  154.48
   3  -2  -4 6402.46  157.48
   3  -2  -4 6217.58  154.98
  -3  -2   4 6448.65  155.48
  -3  -2   4 5847.02  162.58
   3  -2  -4 6512.45  157.98
  -3  -2   4 6375.56  156.98
  -3  -2   4 6272.27  153.08
   3  -2  -4 6193.18  154.98
   3  -2  -4 6600.64  154.48
  -3   2   4 6537.25  154.88
   3   2  -4 6048.49  154.38
   3   2  -4 6561.84  153.48
  -3   2   4 5980.10  158.18
  -3   2   4 6206.78  157.18
  -3   2   4 6498.35  158.18
   3   2  -4 6392.26  154.98
   3   2  -4 6749.92  155.18
  -3   2   4 6577.54  155.48
  -3   2   4 6213.28  157.88
   3   2  -4 6275.67  156.48
  -3   2   4 6188.08  153.48
  -3   2   4 6551.94  156.38
  -3   2   4 6089.49  152.88
   3   2  -4 6666.43  156.48
  -2  -2   4    4.80    6.60
   2  -2  -4   -5.20    9.40
  -2  -2   4   14.50    7.20
  -2  -2   4    5.10    8.00
   2  -2  -4    4.50    6.80
   2  -2  -4   -0.30    6.80
   2  -2  -4   29.40   10.70
  -2  -2   4    5.50    8.00
   2  -2  -4   19.80    8.60
  -2  -2   4    6.20    6.80
  -2  -2   4   -2.60    6.20
  -2  -2   4    2.10    7.30
   2  -2  -4    9.70    9.20
   2  -2  -4    2.30    6.90
   2  -2  -4   -4.00   12.80
   2  -2  -4    0.60   10.00
  -2  -2   4    9.80    8.00
  -2   2   4   13.60    7.60
  -2   2   4    0.40    8.10
  -2   2   4    9.20    7.00
  -2   2   4   21.30    9.70
   2   2  -4   12.30    7.20
   2   2  -4    8.30    7.20
  -2   2   4    5.10    7.70
  -2   2   4   -0.10    7.70
   2   2  -4   13.10    8.80
  -2   2   4    3.10   10.00
  -2   2   4   16.80    9.10
   2   2  -4    8.40    7.30
  -2   2   4   -0.70    7.30
   2   2  -4   16.70    8.80
   1  -2  -4 3742.93   98.79
  -1  -2   4 4191.58   96.79
  -1  -2   4 4099.39  100.69
  -1  -2   4 4062.59   99.99
  -1  -2   4 3951.60   96.39
  -1  -2   4 4025.20   98.89
  -1  -2   4 3929.81   90.79
   1  -2  -4 4111.69  103.09
  -1  -2   4 4007.60   96.69
  -1  -2   4 4291.07   99.59
   1  -2  -4 4165.58   98.59
  -1  -2   4 4248.38  103.69
  -1  -2   4 3965.40   98.99
   1  -2  -4 4036.70   98.49
   1  -2  -4 4147.98  100.89
   1  -2  -4 4018.50   98.29
   1   2  -4 3940.31   99.69
   1   2  -4 4187.18   96.69
  -1   2   4 3838.12   97.19
  -1   2   4 4125.59   97.79
  -1   2   4 4139.49  102.59
  -1   2   4 4065.79  102.89
   1   2  -4 3912.01   98.79
  -1   2   4 4205.58   98.39
   1   2  -4 3880.11   97.99
  -1   2   4 4181.38  100.89
  -1   2   4 3914.51   91.49
   1   2  -4 4047.00   97.79
  -1   2   4 3844.62   98.29
   0  -2  -4   88.89   10.40
   0  -2  -4   92.69   10.60
   0  -2  -4   71.39    9.20
   0  -2   4  106.29   12.80
   0  -2   4   89.19   10.60
   0  -2  -4   87.89    8.50
   0  -2   4   76.19    5.80
   0  -2   4  106.39   12.10
   0  -2   4   88.49    6.10
   0  -2  -4   51.39   13.30
   0  -2  -4   86.99   10.00
   0  -2  -4   80.29    9.20
   0  -2   4   82.59    8.70
   0  -2   4   70.19    8.40
   0  -2   4   86.79   11.80
   0  -2  -4   81.49   11.10
   0   2   4   88.59    7.80
   0   2   4   67.59    8.50
   0   2  -4   71.89    4.70
   0   2   4   91.69    9.70
   0   2  -4   65.69    7.70
   0   2   4   86.99    7.80
   0   2  -4   84.89   10.70
   0   2  -4   85.59    7.70
   0   2  -4   75.79    9.10
   0   2  -4   66.19   11.50
   0   2  -4   71.39    8.20
   0   2   4   74.79   12.10
   0   2   4   71.99   10.40
   0   2   4   85.79    8.10
   1  -2   4  939.51   32.80
  -1  -2  -4  931.71   27.60
  -1  -2  -4  927.11   25.30
  -1  -2  -4  930.11   32.00
  -1  -2  -4  943.31   29.30
  -1  -2  -4  981.90   26.20
  -1  -2  -4  959.80   27.20
   1  -2   4  955.20   34.30
   1  -2   4 1005.10   24.60
   1  -2   4  954.60   31.40
  -1  -2  -4  934.81   35.20
   1  -2   4  989.00   24.30
  -1   2  -4  975.30   28.00
  -1   2  -4  965.90   25.60
  -1   2  -4  939.71   25.60
  -1   2  -4  845.72   35.10
   1   2   4  961.30   27.20
  -1   2  -4  945.31   27.10
  -1   2  -4  926.61   26.90
   1   2   4  948.51   36.20
  -1   2  -4  941.21   31.30
   1   2   4  989.60   31.60
  -2  -2  -4    4.20    4.20
   2  -2   4    5.30    7.00
  -2  -2  -4    2.30    3.40
  -2  -2  -4    1.90    4.50
  -2  -2  -4    7.40    4.20
   2  -2   4   -6.10    9.90
   2  -2   4    9.40   10.00
   2  -2   4    0.20    8.80
  -2  -2  -4    5.90    8.40
  -2  -2  -4    1.10    6.30
  -2  -2  -4   12.20    6.30
   2   2   4   11.10    2.80
   2   2   4    4.90    3.30
  -2   2  -4    0.60    3.30
  -2   2  -4    2.20    9.60
   2   2   4   -3.00   10.40
   2   2   4    0.70   10.00
  -2   2  -4    1.30    4.90
  -2   2  -4    8.90    3.20
  -2   2  -4    5.70    6.80
   2   2   4    8.10    5.20
  -2   2  -4    0.40    3.30
  -3  -2  -4   98.39    9.10
   3  -2   4  105.79   12.60
  -3  -2  -4  104.39    9.60
  -3  -2  -4   91.09   11.10
   3  -2   4   84.09   15.30
  -3  -2  -4   89.09   13.20
  -3  -2  -4  106.09    9.80
   3  -2   4  105.89   13.80
   3  -2   4  110.99   14.10
   3   2   4   98.29   16.40
  -3   2  -4  117.69   17.60
  -3   2  -4   97.09    7.00
  -3   2  -4  104.49   12.30
  -3   2  -4  110.39    6.50
  -3   2  -4   88.99   15.40
   3   2   4  174.28   20.30
  -3   2  -4   98.79    8.40
  -4  -2  -4   47.00    7.10
  -4  -2  -4   52.39    8.60
   4  -2   4   59.79   13.20
  -4  -2  -4   42.50    7.50
   4  -2   4   40.60   13.20
  -4  -2  -4   42.50    6.90
   4  -2   4   40.20   15.20
  -4  -2  -4   53.09    8.50
  -4   2  -4   46.50    6.30
  -4   2  -4   42.60    6.30
  -4   2  -4   42.50    6.80
  -4   2  -4   33.70   14.00
   4   2   4   56.29   15.50
   4   2   4   45.70   16.40
  -4   2  -4   43.00    7.50
   5  -2   4  530.05   36.30
  -5  -2  -4  561.34   27.70
  -5  -2  -4  590.84   23.80
  -5  -2  -4  587.64   39.70
  -5  -2  -4  550.64   24.50
  -5  -2  -4  579.74   24.90
   5  -2   4  557.54   30.60
   5  -2   4  607.54   32.70
  -5  -2  -4  517.25   36.30
  -5  -2  -4  553.04   23.20
   5   2   4  553.64   36.40
  -5   2  -4  577.24   23.20
  -5   2  -4  575.04   22.50
  -5   2  -4  556.94   21.10
   5   2   4  526.05   35.10
  -5   2  -4  546.25   22.80
  -5   2  -4  554.54   21.00
  -5   2  -4  540.25   31.50
  -5   2  -4  524.75   35.50
  -6  -2  -4   15.90    9.10
  -6  -2  -4   -9.20   16.50
  -6  -2  -4   21.30   14.80
   6  -2   4   28.30   19.60
   6  -2   4    8.20   15.50
  -6  -2  -4   25.70   10.40
  -6  -2  -4   16.90   16.30
  -6  -2  -4   24.90   11.30
  -6  -2  -4   25.20   17.90
   6  -2   4   -7.40   16.60
  -6   2  -4   16.30   10.80
  -6   2  -4   22.00   15.20
  -6   2  -4    4.20   17.70
   6   2   4   12.80   17.70
  -6   2  -4    8.80   14.90
   6   2   4   14.20   16.00
  -6   2  -4   32.00   20.00
  -6   2  -4    9.00    8.10
  -6   2  -4   15.90    8.50
  -7  -2  -4  309.97   39.60
  -7  -2  -4  303.37   26.10
   7  -2   4  318.17   39.30
  -7  -2  -4  334.97   30.60
  -7   2  -4  281.07   21.20
  -7   2  -4  302.97   30.00
  -7   2  -4  332.27   41.00
   7   2   4  251.57   34.30
   7   2   4  337.47   37.00
  -7   2  -4  287.37   21.40
  -7   2  -4  298.47   32.60
  -8  -2  -4  -24.20   30.40
  -8  -2  -4   16.30   18.30
   8  -2   4   -5.40   21.70
  -8  -2  -4    6.40   31.40
   8  -2   4   30.30   27.40
  -8  -2  -4    6.00   31.40
  -8   2  -4   12.90   31.70
  -8   2  -4    8.40   14.30
   8   2   4   40.20   28.40
  -8   2  -4   29.00   32.70
  -9  -3   4  218.88   46.20
  -9  -3   4  279.07   41.70
   9  -3  -4  328.27   43.90
   9  -3  -4  305.47   32.20
  -9  -3   4  285.97   33.10
   9  -3  -4  350.66   39.50
  -9  -3   4  275.67   43.70
  -9  -3   4  267.57   43.80
   9   3  -4  362.86   44.20
  -9   3   4  306.77   41.30
   9   3  -4  277.57   35.20
  -9   3   4  312.07   44.30
  -9   3   4  286.57   42.40
   9   3  -4  269.07   33.80
   8  -3  -4  101.79   23.70
  -8  -3   4  113.79   29.60
   8  -3  -4   93.99   27.00
  -8  -3   4   69.29   26.20
   8  -3  -4   99.49   22.00
  -8  -3   4   68.99   30.40
  -8  -3   4   93.69   19.50
  -8  -3   4   98.69   24.90
  -8   3   4  112.59   25.90
  -8   3   4   99.19   31.50
   8   3  -4   75.19   22.00
  -8   3   4  124.39   34.10
  -8   3   4  130.89   33.20
   8   3  -4   90.39   27.20
   8   3  -4   73.69   21.90
   7  -3  -4  291.77   30.60
  -7  -3   4  355.46   28.20
  -7  -3   4  308.47   35.10
   7  -3  -4  312.67   31.20
  -7  -3   4  303.47   32.80
   7  -3  -4  227.28   29.90
   7  -3  -4  284.57   14.10
   7  -3  -4  310.37   32.20
  -7  -3   4  326.67   36.10
   7   3  -4  245.28   29.50
   7   3  -4  300.47   31.20
   7   3  -4  304.87   31.20
   7   3  -4  316.07   28.40
  -7   3   4  304.87   35.10
  -7   3   4  303.07   36.70
  -7   3   4  246.58   30.50
  -7   3   4  306.07   33.50
   6  -3  -4  639.04   36.50
  -6  -3   4  681.33   34.00
   6  -3  -4  653.23   35.90
  -6  -3   4  654.03   41.50
  -6  -3   4  631.74   38.60
   6  -3  -4  652.33   25.40
   6  -3  -4  658.43   41.90
   6  -3  -4  630.24   36.00
   6  -3  -4  609.64   36.50
  -6  -3   4  616.04   34.70
  -6   3   4  626.74   40.40
   6   3  -4  689.93   36.00
  -6   3   4  683.53   50.19
  -6   3   4  629.44   40.20
  -6   3   4  688.33   38.00
   6   3  -4  579.74   36.40
   6   3  -4  658.73   39.80
   6   3  -4  628.34   32.70
   6   3  -4  591.34   37.10
  -6   3   4  685.23   41.70
  -5  -3   4  230.48   22.60
  -5  -3   4  236.28   27.20
  -5  -3   4  218.88   22.80
   5  -3  -4  194.78   20.90
  -5  -3   4  213.78   25.60
  -5  -3   4  262.37   30.90
  -5  -3   4  165.38   21.90
   5  -3  -4  219.18   23.10
   5  -3  -4  261.67   27.00
   5  -3  -4  201.28   24.00
   5  -3  -4  222.68   23.20
  -5   3   4  213.18   24.20
   5   3  -4  234.58   21.90
   5   3  -4  213.88   25.70
  -5   3   4  208.18   25.60
  -5   3   4  212.08   25.20
  -5   3   4  190.18   23.30
   5   3  -4  221.08   24.70
  -5   3   4  241.18   27.40
   5   3  -4  265.87   22.60
   5   3  -4  191.28   22.00
   5   3  -4  189.88   20.10
   5   3  -4  240.28   27.90
  -5   3   4  238.28   28.90
   5   3  -4  251.27   23.50
  -5   3   4  188.68   23.20
  -4  -3   4 1589.54   51.69
  -4  -3   4 1469.85   49.40
   4  -3  -4 1500.85   49.30
   4  -3  -4 1519.25   53.19
  -4  -3   4 1531.95   49.60
   4  -3  -4 1551.14   54.59
  -4  -3   4 1570.94   53.39
   4  -3  -4 1509.25   52.09
   4  -3  -4 1595.94   49.40
  -4  -3   4 1628.04   55.09
  -4  -3   4 1419.16   52.39
  -4  -3   4 1553.04   51.69
   4  -3  -4 1479.35   54.19
   4  -3  -4 1488.85   54.29
   4  -3  -4 1561.34   51.29
   4  -3  -4 1514.55   51.59
  -4  -3   4 1489.25   52.09
  -4   3   4 1508.25   52.29
   4   3  -4 1514.85   49.30
   4   3  -4 1494.35   47.90
   4   3  -4 1525.45   52.09
   4   3  -4 1562.84   52.99
   4   3  -4 1579.54   51.29
   4   3  -4 1547.85   54.79
   4   3  -4 1518.75   52.99
   4   3  -4 1488.65   47.50
  -4   3   4 1554.54   48.80
  -4   3   4 1450.55   54.09
  -4   3   4 1498.05   52.79
  -4   3   4 1490.05   53.19
  -4   3   4 1486.45   54.09
   4   3  -4 1543.15   49.30
  -4   3   4 1487.25   51.09
  -4   3   4 1553.44   51.29
  -4   3   4 1580.64   54.79
   3  -3  -4   62.59   12.90
  -3  -3   4   61.79   12.50
  -3  -3   4   54.09   11.90
   3  -3  -4   78.79   13.60
  -3  -3   4   46.20   13.90
  -3  -3   4   47.80   11.30
   3  -3  -4   61.09   14.30
  -3  -3   4   49.20   12.60
  -3  -3   4   58.29   12.60
   3  -3  -4   81.79   13.50
  -3  -3   4   55.59   12.20
   3  -3  -4   51.49   13.50
   3  -3  -4   75.59   14.10
   3  -3  -4   64.49   13.80
   3  -3  -4   34.00   10.70
  -3  -3   4   64.19   12.30
  -3   3   4   60.09   12.30
   3   3  -4   52.19   11.90
   3   3  -4   52.59   12.70
   3   3  -4   85.29   13.90
  -3   3   4   63.49   13.30
  -3   3   4   99.89   15.00
  -3   3   4   41.60   11.50
  -3   3   4   38.90   10.90
   3   3  -4   44.20   10.40
  -3   3   4   65.79   15.10
   3   3  -4   60.19   10.40
  -3   3   4   68.49   16.00
   3   3  -4   55.09   11.20
   3   3  -4   68.39   13.00
  -3   3   4   52.59   12.00
  -2  -3   4 4081.49   99.79
  -2  -3   4 4058.29  105.49
   2  -3  -4 4011.40  105.09
  -2  -3   4 3848.61  104.19
   2  -3  -4 4124.49  108.49
   2  -3  -4 4066.09  102.59
  -2  -3   4 4187.88  103.69
  -2  -3   4 4108.49  103.39
  -2  -3   4 4101.59  103.09
  -2  -3   4 4075.69  106.49
  -2  -3   4 4167.98  100.89
   2  -3  -4 4047.29  104.79
   2  -3  -4 4125.39  105.79
   2  -3  -4 3682.33  105.59
   2  -3  -4 4213.68  102.59
  -2  -3   4 4112.39  103.29
  -2   3   4 4100.69  104.89
   2   3  -4 3744.83  110.49
  -2   3   4 4298.97  105.99
   2   3  -4 4021.80  102.19
   2   3  -4 3819.02  103.29
  -2   3   4 4115.19  100.89
  -2   3   4 3970.30   97.19
  -2   3   4 3976.30  102.29
   2   3  -4 4176.38  103.99
   2   3  -4 4173.88  101.99
   2   3  -4 3647.84  108.99
  -2   3   4 4064.79  101.39
   1  -3  -4  147.89   13.30
   1  -3  -4  164.68   16.90
  -1  -3   4  143.39   10.20
  -1  -3   4  160.58   14.70
  -1  -3   4  157.48   14.60
  -1  -3   4  143.59   11.80
  -1  -3   4  160.08   13.50
  -1  -3   4  146.09   14.00
   1  -3  -4  161.78   17.40
  -1  -3   4  149.69   12.10
   1  -3  -4  128.69   15.20
  -1  -3   4  148.99   17.10
  -1  -3   4  139.99   14.80
   1  -3  -4  140.49   14.60
  -1  -3   4  148.49    8.70
   1  -3  -4  138.69   15.10
   1  -3  -4  161.88   14.70
   1  -3  -4  153.28   14.30
   1   3  -4  137.69   14.40
   1   3  -4  149.19   14.30
  -1   3   4  167.68   11.90
  -1   3   4  149.59   16.70
  -1   3   4  176.88   15.60
  -1   3   4  143.69   13.60
   1   3  -4  135.89   13.50
   1   3  -4  148.29   15.80
  -1   3   4  152.78   19.50
  -1   3   4  151.98   14.20
  -1   3   4  179.68   15.70
  -1   3   4  136.19    8.50
   1   3  -4  155.38    9.80
  -1   3   4  146.59   14.10
   1   3  -4  158.58   13.50
   1   3  -4  133.49   12.50
   0  -3  -4 2378.56   64.29
   0  -3  -4 2370.06   63.89
   0  -3  -4 2417.56   63.29
   0  -3  -4 2415.46   55.79
   0  -3  -4 2215.88   69.79
   0  -3   4 2450.55   66.99
   0  -3   4 2383.06   57.69
   0  -3  -4 2294.07   63.89
   0  -3   4 2454.95   64.79
   0  -3   4 2402.86   57.19
   0  -3  -4 2474.85   73.69
   0  -3   4 2292.77   61.29
   0  -3   4 2305.67   57.69
   0  -3  -4 2393.16   61.59
   0  -3   4 2351.26   63.59
   0  -3   4 2401.26   61.09
   0   3  -4 2343.57   57.09
   0   3   4 2321.97   62.79
   0   3   4 2447.06   60.69
   0   3   4 2504.25   65.69
   0   3   4 2319.37   67.49
   0   3  -4 2315.37   64.19
   0   3  -4 2352.56   54.49
   0   3   4 2383.56   59.99
   0   3  -4 2400.56   62.29
   0   3   4 2473.25   63.29
   0   3   4 2303.47   57.29
   0   3  -4 2326.07   60.59
   0   3  -4 2323.07   65.99
   0   3  -4 2478.75   60.89
   0   3  -4 2314.67   62.79
  -1  -3  -4  727.33   21.90
   1  -3   4  696.83   29.10
  -1  -3  -4  714.33   27.00
   1  -3   4  730.63   28.00
   1  -3   4  688.33   21.60
  -1  -3  -4  683.33   25.80
  -1  -3  -4  736.73   28.60
  -1  -3  -4  680.83   23.40
  -1  -3  -4  701.93   24.10
  -1  -3  -4  690.03   24.80
   1  -3   4  690.23   27.60
   1  -3   4  722.03   29.80
   1   3   4  743.93   27.10
  -1   3  -4  693.93   24.40
   1   3   4  727.43   19.60
  -1   3  -4  701.93   22.50
   1   3   4  724.43   24.70
   1   3   4  690.13   31.50
  -1   3  -4  690.93   23.50
  -1   3  -4  622.84   31.80
   1   3   4  739.23   20.00
  -1   3  -4  686.23   23.70
  -1   3  -4  728.03   22.60
  -1   3  -4  665.83   32.10
   1   3   4  684.83   23.80
  -2  -3  -4  849.72   30.00
  -2  -3  -4  920.11   27.50
  -2  -3  -4  868.71   35.00
  -2  -3  -4  864.91   29.50
  -2  -3  -4  886.31   28.60
   2  -3   4  902.11   33.10
   2  -3   4  842.62   33.50
  -2  -3  -4  882.31   27.40
   2  -3   4  914.51   34.40
  -2  -3  -4  851.71   33.20
   2  -3   4  866.81   31.90
   2   3   4  866.31   26.60
  -2   3  -4  827.72   30.90
  -2   3  -4  874.51   24.90
   2   3   4  839.32   23.70
   2   3   4  837.72   36.40
  -2   3  -4  848.82   35.40
  -2   3  -4  870.31   25.40
  -2   3  -4  888.21   27.10
   2   3   4  858.11   35.00
  -2   3  -4  875.01   31.10
  -2   3  -4  868.61   26.30
   3  -3   4 2142.99   61.69
   3  -3   4 2222.08   60.89
   3  -3   4 2183.28   63.59
  -3  -3  -4 2113.49   55.79
  -3  -3  -4 2185.08   56.29
  -3  -3  -4 2071.39   57.49
  -3  -3  -4 2165.48   61.89
  -3  -3  -4 2160.68   49.80
  -3  -3  -4 2195.68   57.29
  -3  -3  -4 2145.59   55.39
  -3  -3  -4 2188.28   64.39
   3  -3   4 2208.48   67.09
  -3  -3  -4 2156.58   49.50
  -3   3  -4 2150.28   57.39
  -3   3  -4 1981.10   57.39
   3   3   4 2149.78   69.19
   3   3   4 2151.88   52.49
  -3   3  -4 2128.89   66.79
   3   3   4 2118.89   66.19
  -3   3  -4 2193.68   54.99
   3   3   4 2133.99   52.59
  -3   3  -4 1849.42   68.29
  -3   3  -4 2171.98   53.29
  -3   3  -4 2175.98   53.99
  -4  -3  -4   38.50    7.00
   4  -3   4   76.09   14.30
  -4  -3  -4   37.80    9.60
   4  -3   4   62.29   12.80
  -4  -3  -4   56.89   13.30
  -4  -3  -4   32.30    5.40
   4  -3   4   13.10   11.50
   4  -3   4   21.70   25.00
  -4  -3  -4   40.90    7.70
  -4  -3  -4   57.79   10.20
  -4  -3  -4   55.69    9.10
  -4  -3  -4   37.20   15.30
  -4   3  -4   45.80   16.80
  -4   3  -4   35.70    7.40
  -4   3  -4   39.50   14.20
  -4   3  -4   45.20    8.30
   4   3   4   58.59   16.90
  -4   3  -4   44.20    8.30
  -4   3  -4   51.19    8.00
  -4   3  -4   41.30   11.80
  -5  -3  -4 1177.08   53.69
  -5  -3  -4 1160.88   41.10
  -5  -3  -4 1163.18   43.00
   5  -3   4 1197.98   46.80
  -5  -3  -4 1239.98   40.50
   5  -3   4 1267.77   45.60
   5  -3   4 1134.69   51.59
  -5  -3  -4 1209.88   39.90
  -5  -3  -4 1233.48   39.10
   5   3   4 1284.27   54.99
  -5   3  -4 1163.48   36.90
  -5   3  -4 1240.78   39.00
  -5   3  -4 1178.28   37.00
  -5   3  -4 1274.17   45.90
  -5   3  -4 1275.07   39.20
  -5   3  -4 1173.58   37.50
  -5   3  -4 1138.99   52.69
   5   3   4 1227.18   53.09
  -5   3  -4 1186.58   52.69
  -6  -3  -4  398.26   24.70
   6  -3   4  341.37   32.20
  -6  -3  -4  413.26   26.90
   6  -3   4  419.06   38.40
   6  -3   4  420.06   38.70
  -6  -3  -4  401.46   28.20
  -6  -3  -4  421.66   38.80
  -6  -3  -4  415.26   26.00
  -6   3  -4  452.45   22.50
  -6   3  -4  395.46   22.50
  -6   3  -4  342.87   32.60
   6   3   4  400.66   36.80
  -6   3  -4  423.16   39.80
  -6   3  -4  443.76   25.70
  -6   3  -4  348.57   31.10
  -6   3  -4  409.16   38.90
   6   3   4  373.16   36.10
   7  -3   4  312.17   40.30
   7  -3   4  266.37   32.10
  -7  -3  -4  303.27   28.00
  -7  -3  -4  332.77   42.20
  -7  -3  -4  350.56   30.50
   7   3   4  270.27   37.10
   7   3   4  354.76   40.40
  -7   3  -4  272.57   40.30
  -7   3  -4  266.27   40.30
  -7   3  -4  291.27   22.40
  -7   3  -4  302.07   38.00
  -7   3  -4  301.57   36.30
  -9  -4   4   63.19   36.20
  -9  -4   4   -9.00   28.40
   9  -4  -4  -14.80   22.20
   9  -4  -4   29.20   26.20
  -9  -4   4    7.50   28.70
  -9  -4   4    4.50   28.40
  -9  -4   4   60.69   21.10
   9  -4  -4  -43.40   33.70
  -9   4   4    8.60   30.40
   9   4  -4   -4.50   28.30
  -9   4   4  -41.50   27.00
  -9   4   4   45.00   33.80
   9   4  -4   26.70   22.70
  -9   4   4  -10.60   29.20
   9   4  -4   26.30   32.80
   8  -4  -4 1936.41   77.09
  -8  -4   4 2085.59   67.69
   8  -4  -4 2116.99   72.29
  -8  -4   4 2029.20   85.89
  -8  -4   4 2014.30   79.89
  -8  -4   4 2050.09   88.79
   8  -4  -4 2032.80   82.19
   8   4  -4 2061.49   75.79
   8   4  -4 1936.81   53.49
   8   4  -4 1991.20   75.59
  -8   4   4 1989.20   86.69
  -8   4   4 1980.60   81.29
  -8   4   4 1935.61   86.39
  -8   4   4 2004.00   88.59
   8   4  -4 2053.99   86.89
  -7  -4   4   22.20   19.10
   7  -4  -4  -15.50   17.80
  -7  -4   4   24.60   14.80
   7  -4  -4   23.60   20.00
   7  -4  -4   14.90    8.00
   7  -4  -4    7.70   16.60
  -7  -4   4   15.60   21.80
  -7  -4   4   11.00   16.50
  -7   4   4   -8.70   20.50
   7   4  -4   15.30   18.20
  -7   4   4    6.60   21.00
   7   4  -4   10.90   17.20
   7   4  -4  -37.00   17.80
   7   4  -4    7.30   12.70
   7   4  -4  -12.90   19.00
  -7   4   4   -9.40   17.00
   7   4  -4   25.50   19.00
  -7   4   4    6.00   20.20
  -6  -4   4  903.71   46.60
  -6  -4   4  856.61   46.90
  -6  -4   4  812.32   41.90
  -6  -4   4  850.41   37.10
   6  -4  -4  867.01   46.30
   6  -4  -4  853.11   42.00
   6  -4  -4  877.41   43.30
   6  -4  -4  836.22   44.40
   6   4  -4  857.51   44.40
  -6   4   4  798.62   46.50
  -6   4   4  833.92   43.70
  -6   4   4  861.91   48.30
  -6   4   4  780.82   46.10
   6   4  -4  845.32   46.50
  -6   4   4  745.23   38.80
   6   4  -4  917.51   43.40
   6   4  -4  833.92   40.20
  -5  -4   4   40.10   15.80
   5  -4  -4   81.59   16.70
  -5  -4   4   76.19   20.60
   5  -4  -4   57.59   15.70
   5  -4  -4   76.09   18.00
  -5  -4   4   53.19   14.00
  -5  -4   4   50.19   15.70
   5  -4  -4   70.29   16.70
   5  -4  -4   52.39   18.10
   5  -4  -4   81.19   13.00
  -5  -4   4   59.39   15.30
   5   4  -4   51.29   16.60
   5   4  -4   58.79   15.30
  -5   4   4   52.99   17.60
  -5   4   4   54.59   15.60
   5   4  -4   78.49   15.90
  -5   4   4   49.50   20.50
  -5   4   4   77.59   18.20
  -5   4   4   93.69   15.60
  -5   4   4   80.79   19.50
   5   4  -4   53.79   16.50
   5   4  -4   78.49   16.70
  -4  -4   4    8.60   12.70
   4  -4  -4    0.10   10.80
  -4  -4   4   21.50   15.90
   4  -4  -4   13.60   14.60
   4  -4  -4    2.20   12.00
  -4  -4   4   -0.40   10.40
  -4  -4   4   14.80   11.90
   4  -4  -4   12.40   14.90
   4  -4  -4  -15.60   12.70
   4  -4  -4    8.30   14.50
   4  -4  -4    7.60   16.10
  -4  -4   4   28.20   13.30
  -4  -4   4    0.00   13.60
  -4  -4   4    3.90   11.60
  -4  -4   4    1.50   13.60
   4  -4  -4   14.50   12.90
  -4   4   4   17.10   13.60
  -4   4   4   -0.70   15.30
   4   4  -4   -4.60   11.60
   4   4  -4  -13.80   11.30
  -4   4   4  -16.00   10.90
  -4   4   4   -5.90   13.00
   4   4  -4    2.70   12.30
  -4   4   4    4.30   12.90
  -4   4   4    7.80   13.10
   4   4  -4   -0.80   11.20
   4   4  -4    1.80   11.30
  -4   4   4   17.10   13.90
  -4   4   4   -2.40   13.60
   4   4  -4   -4.00   10.90
   4   4  -4   36.80   13.10
  -4   4   4   25.40   13.70
   4   4  -4   -9.30   13.80
  -3  -4   4  321.77   24.20
   3  -4  -4  262.57   24.50
   3  -4  -4  312.27   23.90
  -3  -4   4  287.97   22.90
  -3  -4   4  263.27   23.10
  -3  -4   4  332.57   21.30
   3  -4  -4  319.37   24.10
  -3  -4   4  289.67   21.10
  -3  -4   4  282.47   24.00
  -3  -4   4  280.17   21.50
   3  -4  -4  240.48   24.10
   3  -4  -4  291.47   21.50
   3  -4  -4  277.17   22.40
   3  -4  -4  229.78   22.20
  -3  -4   4  289.37   21.50
   3  -4  -4  306.17   24.30
  -3  -4   4  300.77   23.60
  -3   4   4  288.17   22.50
   3   4  -4  268.07   21.60
   3   4  -4  288.77   25.00
  -3   4   4  290.67   24.00
  -3   4   4  270.87   23.50
  -3   4   4  241.18   24.20
   3   4  -4  291.97   24.20
  -3   4   4  246.68   21.50
   3   4  -4  291.37   24.40
   3   4  -4  360.36   24.40
  -3   4   4  294.27   21.60
   3   4  -4  310.37   22.30
   3   4  -4  338.07   21.40
  -3   4   4  262.67   21.10
  -3   4   4  285.37   21.00
   3   4  -4  292.97   19.60
  -2  -4   4  845.82   29.50
   2  -4  -4  860.51   35.70
   2  -4  -4  913.01   36.80
  -2  -4   4  868.11   31.90
   2  -4  -4  831.52   34.00
  -2  -4   4  858.51   29.30
  -2  -4   4  861.01   34.00
  -2  -4   4  857.81   34.30
  -2  -4   4  838.62   34.70
  -2  -4   4  904.11   37.70
   2  -4  -4  896.31   36.90
   2  -4  -4  836.92   34.80
   2  -4  -4  844.52   32.20
  -2  -4   4  879.71   34.20
   2  -4  -4  861.61   36.40
  -2  -4   4  840.12   31.60
   2  -4  -4  869.61   34.50
  -2   4   4  872.61   29.10
  -2   4   4  836.12   39.80
   2   4  -4  912.21   33.80
   2   4  -4  833.42   35.40
  -2   4   4  834.12   33.60
  -2   4   4  878.61   35.10
   2   4  -4  858.31   33.60
   2   4  -4  803.12   33.90
   2   4  -4  859.41   32.40
  -2   4   4  855.51   35.50
  -2   4   4  887.41   32.90
  -2   4   4  801.42   32.90
  -2   4   4  897.71   31.50
  -2   4   4  834.12   35.80
   2   4  -4  870.91   36.30
   1  -4  -4  533.75   28.40
  -1  -4   4  550.94   24.50
  -1  -4   4  545.35   26.40
  -1  -4   4  576.44   22.90
   1  -4  -4  516.85   25.60
   1  -4  -4  556.04   29.00
   1  -4  -4  535.05   25.90
  -1  -4   4  539.25   20.10
   1  -4  -4  531.05   26.10
  -1  -4   4  524.95   26.20
  -1  -4   4  545.55   22.20
   1  -4  -4  570.64   28.90
   1  -4  -4  542.35   24.60
  -1  -4   4  496.65   23.30
   1  -4  -4  525.85   26.70
  -1  -4   4  572.74   27.70
  -1  -4   4  524.55   18.20
   1   4  -4  553.84   24.90
   1   4  -4  526.45   25.70
  -1   4   4  561.04   28.10
  -1   4   4  561.24   25.30
  -1   4   4  531.15   26.90
  -1   4   4  567.04   26.20
  -1   4   4  597.84   24.10
  -1   4   4  528.35   19.40
   1   4  -4  580.14   31.10
  -1   4   4  523.35   26.60
  -1   4   4  546.15   22.30
  -1   4   4  566.14   27.30
   1   4  -4  537.45   23.10
   1   4  -4  544.05   25.80
   1   4  -4  556.44   26.80
   0  -4   4 1841.62   47.20
   0  -4  -4 1822.92   45.80
   0  -4  -4 1709.63   52.79
   0  -4  -4 1803.92   54.19
   0  -4  -4 1728.83   56.79
   0  -4   4 1800.72   54.09
   0  -4  -4 1757.72   54.19
   0  -4   4 1810.72   55.99
   0  -4   4 1822.22   50.79
   0  -4   4 1791.22   53.29
   0  -4   4 1789.92   50.39
   0  -4   4 1825.72   47.20
   0  -4  -4 1860.61   51.19
   0  -4   4 1808.52   46.90
   0   4  -4 1722.63   51.49
   0   4   4 1786.12   56.59
   0   4  -4 1736.03   49.60
   0   4  -4 1870.11   60.59
   0   4  -4 1805.22   47.20
   0   4   4 1774.52   49.99
   0   4   4 1792.32   56.39
   0   4   4 1813.92   52.89
   0   4   4 1750.02   51.89
   0   4   4 1801.62   44.70
   0   4  -4 1854.81   51.99
   0   4  -4 1800.72   49.90
   0   4  -4 1795.32   54.49
   0   4   4 1745.43   51.79
   0   4   4 1761.52   52.99
   0   4   4 1759.62   46.50
   1  -4   4    9.40    2.80
   1  -4   4    3.00    6.00
   1  -4   4    4.20    9.80
  -1  -4  -4    7.80    6.30
  -1  -4  -4    1.70   10.90
  -1  -4  -4   13.80    8.60
   1  -4   4   12.60    6.10
   1  -4   4    8.90    9.30
   1  -4   4    2.60   10.00
   1  -4   4   15.60    5.50
  -1  -4  -4    7.40    7.20
  -1  -4  -4   10.40    7.50
   1  -4   4  -20.10    8.60
   1  -4   4    0.90   10.00
  -1  -4  -4   12.20   10.70
  -1  -4  -4    4.30    7.70
  -1  -4  -4    2.30    5.40
  -1   4  -4  -14.70    8.10
  -1   4  -4   14.20   10.90
   1   4   4    4.60   11.30
   1   4   4   27.40    8.70
   1   4   4    8.50    6.80
  -1   4  -4   10.30    7.00
  -1   4  -4    4.20    5.70
   1   4   4   14.30   10.70
  -1   4  -4   15.00    6.80
   1   4   4    5.40    5.00
   1   4   4   -0.40    7.70
  -1   4  -4   10.90    6.40
   1   4   4    6.90    5.40
  -1   4  -4    8.50    7.40
  -2  -4  -4 2466.05   69.89
   2  -4   4 2573.54   63.99
   2  -4   4 2655.63   64.89
  -2  -4  -4 2700.83   70.39
   2  -4   4 2709.43   75.59
  -2  -4  -4 2632.34   76.99
  -2  -4  -4 2658.83   68.89
   2  -4   4 2489.75   71.79
   2  -4   4 2559.74   71.49
  -2  -4  -4 2688.83   69.49
   2  -4   4 2656.33   74.99
  -2  -4  -4 2723.93   68.59
  -2  -4  -4 2631.64   68.89
  -2   4  -4 2663.93   66.49
  -2   4  -4 2476.85   75.39
   2   4   4 2599.44   79.39
   2   4   4 2644.44   68.59
   2   4   4 2711.13   77.19
   2   4   4 2686.23   75.79
  -2   4  -4 2583.14   68.09
   2   4   4 2608.24   68.09
  -2   4  -4 2603.54   67.59
   2   4   4 2647.94   68.59
  -2   4  -4 2650.53   66.79
   3  -4   4   25.90   12.20
   3  -4   4   16.00   13.90
  -3  -4  -4   11.30   11.90
  -3  -4  -4   20.80    8.40
  -3  -4  -4   24.90    9.10
  -3  -4  -4   34.60   11.50
   3  -4   4   30.90   12.70
  -3  -4  -4   31.10    9.50
  -3  -4  -4   35.20    8.10
   3  -4   4   33.80   13.10
  -3  -4  -4   37.20    7.10
  -3   4  -4   35.20    6.80
  -3   4  -4   32.40    7.80
   3   4   4   47.60   15.30
   3   4   4    9.60   14.30
  -3   4  -4   31.00    7.10
  -3   4  -4   38.10    7.60
  -3   4  -4   17.20   10.90
  -3   4  -4    8.30   12.60
   3   4   4   24.30    7.90
  -3   4  -4   11.30    7.30
  -3   4  -4   39.90   13.20
  -4  -4  -4 2114.69   60.19
  -4  -4  -4 2123.49   66.79
   4  -4   4 2053.59   60.99
  -4  -4  -4 2234.48   61.39
  -4  -4  -4 2131.39   61.59
   4  -4   4 2035.10   69.99
   4  -4   4 2098.79   67.29
   4  -4   4 2094.99   63.19
  -4  -4  -4 2101.59   65.99
   4   4   4 2107.89   54.89
   4   4   4 2139.59   74.49
  -4   4  -4 2152.48   61.89
  -4   4  -4 2034.20   57.39
   4   4   4 2109.79   55.19
   4   4   4 2155.98   71.99
  -4   4  -4 2125.69   56.99
  -4   4  -4 2116.29   58.29
  -4   4  -4 2060.39   68.49
  -4   4  -4 2169.98   59.39
  -4   4  -4 2062.99   57.39
  -4   4  -4 2042.90   71.49
  -5  -4  -4   -0.90    5.30
   5  -4   4   22.30   16.80
   5  -4   4    4.50   16.00
  -5  -4  -4  -11.40    9.80
   5  -4   4   10.40   18.10
  -5  -4  -4   -7.20   10.10
  -5  -4  -4   16.30   16.90
  -5  -4  -4  -18.10   11.60
  -5   4  -4   -4.00    9.80
   5   4   4   14.50   16.20
  -5   4  -4   -1.00   17.50
  -5   4  -4   31.40   18.70
  -5   4  -4   13.40    8.30
  -5   4  -4   -6.10   11.90
  -5   4  -4    8.00   11.30
  -5   4  -4   17.40   10.50
   5   4   4    5.30   16.60
  -5   4  -4   -8.10   12.70
  -6  -4  -4  881.21   39.00
  -6  -4  -4  882.71   53.99
   6  -4   4  904.31   51.89
  -6  -4  -4  904.71   39.40
   6  -4   4  884.01   44.10
  -6  -4  -4  881.21   37.90
  -6  -4  -4  842.82   38.60
  -6  -4  -4  836.52   39.20
  -6   4  -4  919.31   52.89
  -6   4  -4  874.11   27.00
   6   4   4  917.61   52.49
   6   4   4  910.11   51.39
  -6   4  -4  910.41   38.20
  -6   4  -4  827.22   35.10
  -6   4  -4  863.61   33.50
  -6   4  -4  889.31   42.30
  -6   4  -4  815.42   52.69
  -6   4  -4  849.22   26.70
  -7  -4  -4   41.90   31.00
  -7  -4  -4   74.49   16.80
  -7  -4  -4    4.40   16.30
   7  -4   4   68.89   19.60
   7  -4   4   48.80   24.40
  -7  -4  -4   42.70   18.70
  -7   4  -4   20.00   32.20
   7   4   4   26.10   22.00
  -7   4  -4   41.80   34.80
  -7   4  -4   45.70   12.90
   7   4   4   46.30   23.30
  -7   4  -4  -12.90   18.40
  -7   4  -4   16.60   20.80
   8  -5  -4   59.19   24.00
   8  -5  -4   96.49   31.10
  -8  -5   4   45.90   26.30
   8  -5  -4   72.59   23.30
  -8  -5   4   81.59   19.50
  -8  -5   4   48.90   32.40
  -8   5   4   35.50   25.80
   8   5  -4   41.90   21.60
  -8   5   4   75.59   30.60
   8   5  -4   68.39   30.40
  -8   5   4  124.49   43.30
   8   5  -4   41.90   26.10
   7  -5  -4  497.95   42.80
   7  -5  -4  444.16   23.00
   7  -5  -4  486.85   38.40
  -7  -5   4  522.55   41.70
   7  -5  -4  486.45   36.40
  -7  -5   4  501.15   45.70
  -7  -5   4  557.34   32.50
  -7  -5   4  493.45   44.60
  -7   5   4  474.85   45.40
  -7   5   4  505.55   41.80
  -7   5   4  436.26   44.90
  -7   5   4  503.65   47.60
   7   5  -4  473.35   43.40
   7   5  -4  485.05   40.80
   7   5  -4  466.85   37.40
   7   5  -4  456.15   40.20
   6  -5  -4  300.17   33.10
   6  -5  -4  278.37   32.00
   6  -5  -4  270.67   30.20
  -6  -5   4  322.87   30.10
  -6  -5   4  335.87   26.60
   6  -5  -4  264.37   32.70
  -6  -5   4  301.37   33.30
  -6  -5   4  261.17   33.70
  -6   5   4  278.87   34.10
   6   5  -4  236.98   28.70
  -6   5   4  338.27   36.30
   6   5  -4  281.37   31.90
   6   5  -4  381.26   33.50
   6   5  -4  325.47   29.60
  -6   5   4  323.97   34.00
   5  -5  -4  558.14   33.50
   5  -5  -4  557.04   29.90
   5  -5  -4  500.05   34.10
  -5  -5   4  565.34   34.90
  -5  -5   4  572.34   38.80
   5  -5  -4  526.05   36.70
   5  -5  -4  592.44   36.80
  -5  -5   4  598.24   34.70
  -5  -5   4  603.14   31.10
  -5   5   4  615.14   36.50
   5   5  -4  578.34   34.00
   5   5  -4  561.54   37.30
  -5   5   4  578.84   39.60
   5   5  -4  568.64   28.20
  -5   5   4  577.84   36.00
   5   5  -4  605.84   33.20
  -5   5   4  535.15   38.20
   5   5  -4  557.14   35.00
   5   5  -4  508.15   36.10
   4  -5  -4  308.87   24.70
   4  -5  -4  343.67   28.40
  -4  -5   4  273.47   27.20
  -4  -5   4  265.77   22.80
  -4  -5   4  217.98   25.80
   4  -5  -4  276.97   26.70
  -4  -5   4  312.67   33.40
   4  -5  -4  322.77   28.40
  -4  -5   4  315.37   25.00
  -4  -5   4  326.17   25.20
   4  -5  -4  261.47   24.80
   4   5  -4  312.07   25.90
   4   5  -4  283.47   25.30
   4   5  -4  298.37   28.80
  -4   5   4  284.27   25.00
  -4   5   4  289.37   27.90
  -4   5   4  294.87   28.50
   4   5  -4  286.17   26.90
  -4   5   4  272.77   24.70
   4   5  -4  273.27   26.20
  -4   5   4  304.67   31.50
  -4   5   4  247.08   25.80
   4   5  -4  293.67   22.00
  -3  -5   4   88.79   15.80
   3  -5  -4  108.89   18.10
   3  -5  -4   92.99   18.40
  -3  -5   4   97.39   18.00
   3  -5  -4  110.39   15.70
   3  -5  -4  134.09   16.70
  -3  -5   4  137.59   16.40
  -3  -5   4  167.88   18.10
  -3  -5   4  124.19   18.30
   3  -5  -4   98.79   16.90
   3  -5  -4  127.49   18.70
  -3  -5   4  135.29   19.20
   3  -5  -4  118.69   16.40
   3  -5  -4  124.09   19.10
  -3  -5   4  139.99   16.80
  -3  -5   4  113.99   15.00
   3   5  -4  127.49   18.80
  -3   5   4  136.49   16.20
  -3   5   4  114.39   17.80
   3   5  -4  103.89   15.80
   3   5  -4  109.89   16.60
  -3   5   4  153.28   19.30
   3   5  -4  186.58   23.10
  -3   5   4  123.69   16.50
   3   5  -4   98.89   17.40
  -3   5   4  139.89   17.80
   3   5  -4  111.19   16.10
  -3   5   4   95.69   17.80
  -3   5   4  123.89   16.30
  -3   5   4   98.09   18.50
   3   5  -4  120.99   16.10
  -2  -5   4  829.62   33.90
  -2  -5   4  779.72   28.40
  -2  -5   4  774.82   36.10
  -2  -5   4  773.62   34.00
  -2  -5   4  820.92   33.50
   2  -5  -4  860.61   36.90
  -2  -5   4  786.92   35.90
  -2  -5   4  796.62   31.90
  -2  -5   4  716.03   30.50
   2  -5  -4  796.62   36.20
   2  -5  -4  804.92   37.80
   2  -5  -4  782.62   35.90
  -2  -5   4  819.72   30.40
   2  -5  -4  730.93   33.10
   2  -5  -4  802.12   36.50
   2  -5  -4  774.82   33.10
  -2  -5   4  821.42   34.50
   2  -5  -4  727.13   35.60
  -2   5   4  796.82   35.70
  -2   5   4  766.82   35.80
   2   5  -4  712.53   34.90
   2   5  -4  857.11   37.30
  -2   5   4  794.02   33.50
  -2   5   4  824.12   30.90
  -2   5   4  853.81   36.30
  -2   5   4  809.52   35.90
  -2   5   4  724.83   32.90
   2   5  -4  790.42   35.00
   2   5  -4  786.12   33.70
  -2   5   4  802.42   32.60
  -2   5   4  835.22   36.50
   2   5  -4  882.21   35.70
   2   5  -4  791.92   32.90
  -2   5   4  792.42   29.60
   2   5  -4  737.53   32.20
   1  -5  -4  369.76   22.60
  -1  -5   4  367.06   20.20
   1  -5  -4  346.67   24.40
  -1  -5   4  382.46   20.30
   1  -5  -4  370.06   24.30
  -1  -5   4  369.76   24.70
  -1  -5   4  382.56   15.30
   1  -5  -4  395.86   27.30
   1  -5  -4  345.87   24.30
   1  -5  -4  401.76   25.20
  -1  -5   4  389.86   20.80
  -1  -5   4  410.36   23.10
  -1  -5   4  402.56   23.70
   1  -5  -4  416.56   26.50
  -1  -5   4  354.26   25.00
  -1  -5   4  379.46   25.50
   1  -5  -4  389.76   24.00
   1   5  -4  380.76   24.50
  -1   5   4  386.16   18.50
  -1   5   4  365.16   22.60
  -1   5   4  401.76   24.80
   1   5  -4  378.26   22.00
  -1   5   4  370.36   29.70
  -1   5   4  373.86   26.60
  -1   5   4  437.26   18.90
  -1   5   4  405.66   24.20
   1   5  -4  387.46   21.40
  -1   5   4  416.16   22.60
   1   5  -4  375.46   26.00
   1   5  -4  398.16   26.70
  -1   5   4  406.06   26.90
  -1   5   4  431.36   25.80
   1   5  -4  361.16   23.70
   1   5  -4  379.76   24.10
   0  -5   4  651.43   24.80
   0  -5  -4  643.04   28.20
   0  -5   4  690.73   31.90
   0  -5  -4  662.33   23.70
   0  -5  -4  608.34   30.10
   0  -5  -4  623.24   33.30
   0  -5   4  665.13   30.00
   0  -5   4  617.04   26.40
   0  -5  -4  667.63   30.40
   0  -5  -4  685.93   28.90
   0  -5   4  635.84   27.20
   0  -5   4  652.73   31.50
   0  -5   4  695.73   27.20
   0  -5  -4  714.43   32.30
   0  -5   4  671.53   25.40
   0   5   4  697.43   27.60
   0   5   4  688.43   32.20
   0   5   4  646.44   26.90
   0   5  -4  649.04   32.30
   0   5   4  661.93   28.70
   0   5  -4  676.73   26.60
   0   5  -4  641.54   28.80
   0   5   4  616.74   23.80
   0   5   4  648.64   20.60
   0   5  -4  673.73   25.50
   0   5   4  660.93   29.70
   0   5  -4  650.83   27.60
   0   5  -4  644.04   30.10
   0   5   4  651.03   33.40
   0   5   4  693.53   30.20
   0   5  -4  657.13   31.30
  -1  -5  -4 2473.65   71.89
  -1  -5  -4 2464.15   76.39
   1  -5   4 2516.15   62.79
  -1  -5  -4 2654.73   78.79
   1  -5   4 2655.13   69.29
   1  -5   4 2561.24   68.59
  -1  -5  -4 2533.45   71.19
  -1  -5  -4 2606.64   67.79
   1  -5   4 2570.34   72.99
  -1  -5  -4 2657.13   76.69
   1  -5   4 2562.14   75.59
   1  -5   4 2548.84   68.49
   1  -5   4 2620.74   62.99
   1  -5   4 2577.04   75.69
  -1  -5  -4 2587.04   70.29
   1   5   4 2479.15   70.79
   1   5   4 2564.34   71.59
   1   5   4 2628.54   78.29
  -1   5  -4 2518.65   70.49
   1   5   4 2541.45   67.59
  -1   5  -4 2616.24   75.19
  -1   5  -4 2661.53   74.99
  -1   5  -4 2534.85   75.89
  -1   5  -4 2566.14   69.39
  -1   5  -4 2635.94   70.09
   1   5   4 2589.14   67.19
  -1   5  -4 2636.84   68.39
   1   5   4 2634.74   77.49
   1   5   4 2598.94   71.29
  -2  -5  -4  631.84   34.30
  -2  -5  -4  619.44   28.00
  -2  -5  -4  615.54   27.80
  -2  -5  -4  628.84   30.40
   2  -5   4  634.74   27.70
   2  -5   4  634.14   32.10
  -2  -5  -4  600.74   25.40
   2  -5   4  638.24   30.40
  -2  -5  -4  615.94   32.90
  -2  -5  -4  576.44   27.10
  -2  -5  -4  640.04   26.60
   2  -5   4  660.83   32.70
   2  -5   4  635.04   29.20
   2  -5   4  594.84   22.90
   2   5   4  538.05   32.30
  -2   5  -4  547.45   25.10
  -2   5  -4  583.74   26.00
   2   5   4  646.14   27.30
  -2   5  -4  633.14   34.40
   2   5   4  661.43   26.40
  -2   5  -4  638.74   25.60
   2   5   4  574.64   33.00
  -2   5  -4  586.54   32.70
   2   5   4  623.84   21.50
   2   5   4  613.84   26.20
  -2   5  -4  584.44   24.30
   2   5   4  601.94   21.40
  -2   5  -4  640.74   32.10
   3  -5   4 2503.55   76.49
   3  -5   4 2554.64   62.39
  -3  -5  -4 2578.54   63.79
  -3  -5  -4 2560.94   76.99
  -3  -5  -4 2473.55   70.09
   3  -5   4 2558.34   73.09
   3  -5   4 2351.86   67.09
   3  -5   4 2393.76   76.29
  -3  -5  -4 2588.24   72.29
  -3  -5  -4 2589.44   71.09
  -3  -5  -4 2362.86   70.49
   3  -5   4 2473.25   63.19
  -3   5  -4 2484.35   68.49
  -3   5  -4 2360.76   73.69
   3   5   4 2489.45   68.09
  -3   5  -4 2380.56   78.39
   3   5   4 2326.47   97.39
  -3   5  -4 2483.35   66.59
  -3   5  -4 2653.13   67.09
  -3   5  -4 2418.96   67.49
   3   5   4 2567.54   68.39
  -3   5  -4 2504.35   72.39
   3   5   4 2518.35   81.49
   3   5   4 2327.07   76.89
   4  -5   4   18.10   12.20
  -4  -5  -4   -0.30   10.10
   4  -5   4    6.70   12.70
  -4  -5  -4   -4.40   11.30
   4  -5   4   11.60   15.90
  -4  -5  -4    3.30   13.00
  -4  -5  -4   36.80   18.40
  -4  -5  -4    8.20   10.30
  -4   5  -4    8.50   16.00
   4   5   4   -9.40   14.40
  -4   5  -4   19.20    8.10
   4   5   4   24.40   11.40
  -4   5  -4   10.40   12.90
  -4   5  -4   15.20   15.60
  -4   5  -4   -1.30   10.10
  -4   5  -4   -4.90   15.40
   4   5   4   -4.50   14.90
  -4   5  -4   -8.90   11.80
  -4   5  -4   10.00    8.90
   5  -5   4 2027.40   76.59
   5  -5   4 2035.70   72.29
  -5  -5  -4 2116.29   68.99
  -5  -5  -4 2144.69   66.39
  -5  -5  -4 2090.19   77.89
  -5  -5  -4 2011.10   64.89
  -5  -5  -4 2065.19   63.89
   5   5   4 2068.39   77.89
  -5   5  -4 2075.99   61.69
  -5   5  -4 2198.38   63.79
   5   5   4 2110.49   57.89
  -5   5  -4 2041.40   75.39
  -5   5  -4 2060.79   77.79
  -5   5  -4 2092.29   61.79
   5   5   4 2063.89   77.19
  -5   5  -4 2089.29   62.59
  -6  -5  -4  228.48   29.30
   6  -5   4  218.48   31.50
  -6  -5  -4  186.28   22.40
   6  -5   4  250.27   30.20
  -6  -5  -4  140.59   29.60
  -6  -5  -4  190.58   21.80
  -6   5  -4  184.98   19.70
  -6   5  -4  202.28   26.90
  -6   5  -4  208.98   22.10
  -6   5  -4  234.18   23.10
  -6   5  -4  205.08   34.60
   6   5   4  192.18   30.80
  -6   5  -4  189.08   31.70
   6   5   4  191.98   29.40
  -7  -5  -4  547.85   40.10
   7  -5   4  560.74   49.80
  -7  -5  -4  524.25   37.40
   7  -5   4  481.95   41.70
  -7  -5  -4  599.44   56.49
   7   5   4  563.94   48.50
  -7   5  -4  527.25   40.00
  -7   5  -4  556.24   34.40
  -7   5  -4  590.04   69.59
  -7   5  -4  503.95   58.69
  -7   5  -4  595.34   45.10
   7   5   4  570.04   48.30
   8  -6  -4   84.09   31.10
   8  -6  -4   85.89   24.80
  -8  -6   4   80.49   20.50
  -8  -6   4  143.69   32.40
   8  -6  -4   47.70   26.50
  -8  -6   4  146.29   33.50
  -8  -6   4   83.89   38.30
   8   6  -4   91.19   30.70
  -8   6   4   63.69   39.50
  -8   6   4   90.09   29.50
  -8   6   4   73.69   33.20
   8   6  -4  128.09   29.30
   8   6  -4   71.49   31.10
   7  -6  -4  803.62   47.70
  -7  -6   4  817.32   39.90
  -7  -6   4  794.02   57.19
   7  -6  -4  793.12   46.00
  -7  -6   4  834.82   57.89
  -7  -6   4  813.22   51.89
   7  -6  -4  766.72   54.79
  -7   6   4  745.23   55.89
   7   6  -4  917.41   56.89
  -7   6   4  838.02   55.59
  -7   6   4  744.73   61.59
  -7   6   4  862.21   53.69
   7   6  -4  795.72   47.00
   7   6  -4  737.83   49.99
  -7   6   4  846.42   60.09
   7   6  -4  826.12   48.90
   6  -6  -4  235.28   25.30
   6  -6  -4  201.08   27.50
   6  -6  -4  248.28   30.20
  -6  -6   4  191.38   26.20
  -6  -6   4  203.98   27.30
   6  -6  -4  214.38   26.10
  -6  -6   4  171.88   24.30
  -6  -6   4  191.18   21.60
   6   6  -4  193.28   23.70
   6   6  -4  220.78   30.40
   6   6  -4  212.98   26.10
   6   6  -4  209.18   27.20
  -6   6   4  204.68   30.30
  -6   6   4  248.08   31.10
  -6   6   4  159.88   24.30
   6   6  -4  197.38   25.70
  -6   6   4  223.08   28.80
  -6   6   4  230.48   32.20
  -5  -6   4 3054.09   85.89
  -5  -6   4 2998.90   95.39
  -5  -6   4 2993.90   90.79
   5  -6  -4 2993.10   85.69
  -5  -6   4 2917.81   89.69
   5  -6  -4 2883.31   93.89
   5  -6  -4 3065.99   95.59
   5  -6  -4 3028.10   90.39
   5   6  -4 3054.39   84.29
  -5   6   4 3000.50   96.49
  -5   6   4 2915.21   91.59
   5   6  -4 3091.69   93.09
   5   6  -4 2932.81   91.79
   5   6  -4 3029.20   95.39
  -5   6   4 3054.69   92.19
   5   6  -4 3046.30   91.49
  -5   6   4 3053.49   97.59
  -4  -6   4   16.40   11.70
  -4  -6   4    7.20   12.60
   4  -6  -4    4.10   11.50
   4  -6  -4  -18.20   13.70
   4  -6  -4  -20.10   13.00
  -4  -6   4    0.80   12.50
   4  -6  -4    6.50   14.80
  -4  -6   4   15.00   14.00
  -4   6   4    4.00   15.30
   4   6  -4   -2.50   10.50
  -4   6   4   11.80   17.50
  -4   6   4   15.40   12.40
   4   6  -4    6.50   14.50
   4   6  -4    4.60   12.40
  -4   6   4    3.70   13.50
   4   6  -4    1.80   12.80
   3  -6  -4 3153.28   96.59
   3  -6  -4 3075.79   91.69
  -3  -6   4 3032.00   89.39
  -3  -6   4 3253.27   87.59
  -3  -6   4 3195.68   91.39
  -3  -6   4 3209.78   88.69
   3  -6  -4 3182.88   94.89
  -3  -6   4 3322.57   93.99
  -3  -6   4 3126.19   89.39
  -3  -6   4 3244.18   95.29
  -3  -6   4 3251.17   89.39
   3  -6  -4 3188.48   92.99
   3  -6  -4 3058.49   94.19
   3   6  -4 3227.08   92.09
  -3   6   4 3257.97   85.29
  -3   6   4 3152.88   94.79
  -3   6   4 3190.08   95.79
  -3   6   4 3300.77   89.89
  -3   6   4 3698.33  107.59
  -3   6   4 3143.09   88.49
  -3   6   4 3229.98   92.09
   3   6  -4 3277.17   92.29
  -3   6   4 3225.88   91.99
   3   6  -4 3210.08   96.59
   3   6  -4 3106.89   93.99
   3   6  -4 3278.07   93.79
   2  -6  -4   18.00   15.80
  -2  -6   4   49.20   13.30
  -2  -6   4   26.90   13.00
  -2  -6   4   57.59   13.70
   2  -6  -4   31.50   13.70
  -2  -6   4   47.10   15.40
  -2  -6   4   45.20   12.50
  -2  -6   4   44.70    8.20
   2  -6  -4   33.50   12.50
   2  -6  -4   51.79   15.40
  -2  -6   4   41.30   14.20
   2  -6  -4   31.10   13.40
   2  -6  -4   20.50   13.50
   2  -6  -4   53.59   17.80
  -2  -6   4   45.20   11.90
   2  -6  -4   57.49   16.70
  -2  -6   4   53.49   14.20
  -2   6   4   59.09   15.80
   2   6  -4   29.30   15.30
  -2   6   4   63.09   14.20
   2   6  -4   56.69   12.80
   2   6  -4   18.80   13.40
  -2   6   4   47.90   15.20
   2   6  -4   51.39   14.20
  -2   6   4   40.00   11.50
  -2   6   4   53.99   15.30
   2   6  -4   32.60   13.30
   2   6  -4   55.19   16.20
  -2   6   4   21.90   10.90
   2   6  -4   40.20   13.30
  -2   6   4   52.09   15.70
  -2   6   4  100.99   15.40
  -2   6   4    7.10   13.20
  -2   6   4   49.50   13.50
   1  -6  -4 2223.88   68.09
  -1  -6   4 2137.69   53.79
  -1  -6   4 2015.20   64.69
  -1  -6   4 2156.68   68.49
   1  -6  -4 2100.59   67.19
  -1  -6   4 2120.19   65.19
   1  -6  -4 2125.09   64.69
   1  -6  -4 2100.29   68.19
   1  -6  -4 2192.38   68.89
  -1  -6   4 2233.28   62.29
  -1  -6   4 2144.69   68.29
  -1  -6   4 2149.39   64.29
   1  -6  -4 2161.28   67.79
   1  -6  -4 2183.28   70.19
   1  -6  -4 2024.10   63.39
  -1  -6   4 2250.47   61.99
  -1  -6   4 2077.99   61.29
  -1   6   4 2144.29   66.19
  -1   6   4 2122.09   69.09
   1   6  -4 2159.68   66.39
   1   6  -4 2155.88   68.79
  -1   6   4 2092.99   68.19
  -1   6   4 2156.98   65.79
   1   6  -4 2068.79   68.39
  -1   6   4 2150.48   63.39
   1   6  -4 2266.17   66.19
  -1   6   4 2091.09   63.69
   1   6  -4 2110.89   65.99
  -1   6   4 2070.59   66.99
   1   6  -4 2126.69   63.69
   1   6  -4 2152.18   63.19
  -1   6   4 2175.18   69.29
  -1   6   4 2223.58   58.49
   0  -6   4  179.88   16.40
   0  -6   4  205.88   17.70
   0  -6  -4  170.98   20.50
   0  -6  -4  163.38   20.20
   0  -6   4  149.29   16.20
   0  -6   4  135.09   19.40
   0  -6  -4  176.08   21.60
   0  -6   4  173.08   19.20
   0  -6  -4  124.39   15.30
   0  -6  -4  169.68   21.30
   0  -6  -4  190.18   20.40
   0  -6  -4  182.78   22.20
   0  -6   4  173.98   16.50
   0  -6   4  170.18   20.00
   0  -6   4  177.78   21.50
   0  -6  -4  211.88   19.80
   0  -6  -4  179.28   21.40
   0   6  -4  174.48   18.70
   0   6  -4  163.38   19.50
   0   6   4  165.78   21.20
   0   6   4  131.59   20.30
   0   6  -4  177.68   18.80
   0   6   4  160.98   20.80
   0   6   4  167.38   18.20
   0   6   4  156.48   15.60
   0   6  -4  190.98   20.60
   0   6   4  160.38   11.20
   0   6  -4  147.29   18.90
   0   6   4  158.88   20.60
   0   6  -4  147.99   18.60
   0   6   4  146.59   18.00
   0   6   4  192.28   18.80
   0   6  -4  151.08   19.40
  -1  -6  -4  669.53   31.30
   1  -6   4  611.34   23.30
  -1  -6  -4  574.94   28.20
   1  -6   4  622.74   22.90
  -1  -6  -4  674.23   27.00
  -1  -6  -4  593.74   31.00
   1  -6   4  579.14   28.30
   1  -6   4  613.04   33.60
  -1  -6  -4  581.84   30.30
   1  -6   4  609.34   26.60
  -1  -6  -4  574.34   34.80
  -1  -6  -4  602.44   35.10
   1  -6   4  644.04   31.70
   1  -6   4  586.24   32.40
   1  -6   4  601.44   27.60
  -1  -6  -4  592.34   29.40
   1   6   4  593.64   33.60
  -1   6  -4  618.04   28.60
   1   6   4  656.43   27.10
  -1   6  -4  635.34   31.90
   1   6   4  600.54   26.80
  -1   6  -4  617.84   27.90
  -1   6  -4  581.44   28.90
  -1   6  -4  625.54   30.40
   1   6   4  597.54   36.50
  -1   6  -4  591.24   33.10
   1   6   4  594.44   29.30
   1   6   4  586.04   31.10
  -1   6  -4  592.54   28.50
   1   6   4  614.14   28.90
  -1   6  -4  594.14   34.10
   1   6   4  561.54   32.40
  -2  -6  -4  506.75   33.30
  -2  -6  -4  511.35   33.10
  -2  -6  -4  528.65   29.00
  -2  -6  -4  491.95   27.50
  -2  -6  -4  498.15   25.20
   2  -6   4  515.45   28.40
   2  -6   4  493.05   29.00
   2  -6   4  565.54   28.70
   2  -6   4  503.05   23.50
  -2  -6  -4  498.75   28.10
  -2  -6  -4  525.35   27.10
   2   6   4  490.65   22.70
   2   6   4  497.55   25.40
   2   6   4  486.05   34.80
   2   6   4  506.25   26.30
  -2   6  -4  482.25   29.30
  -2   6  -4  497.55   26.70
  -2   6  -4  530.45   33.40
  -2   6  -4  509.05   33.40
   2   6   4  556.94   23.30
  -2   6  -4  488.15   27.20
  -2   6  -4  503.45   26.70
   3  -6   4   -3.10   10.90
  -3  -6  -4   26.00   15.00
  -3  -6  -4   28.50   13.40
   3  -6   4    5.90   12.40
  -3  -6  -4   18.50   14.00
   3  -6   4   30.10   13.50
  -3  -6  -4   22.30   11.90
  -3  -6  -4   12.40   11.50
   3  -6   4   -1.30   14.60
  -3   6  -4    6.50   16.00
   3   6   4   12.70   15.80
  -3   6  -4   -7.90   14.40
   3   6   4   14.70   15.20
   3   6   4   15.90    9.40
   3   6   4   28.80   11.00
  -3   6  -4    8.60   10.20
   3   6   4   12.30    6.30
  -3   6  -4   36.00   17.20
  -3   6  -4   -8.30   12.90
  -3   6  -4   23.00   10.80
  -3   6  -4   18.20   14.20
   3   6   4   24.80    9.30
   4  -6   4  169.68   26.30
   4  -6   4  170.38   17.70
  -4  -6  -4  193.48   24.40
  -4  -6  -4  189.98   23.10
  -4  -6  -4  174.28   31.20
  -4  -6  -4  152.88   18.50
  -4  -6  -4  156.88   18.00
   4  -6   4  169.58   20.70
   4  -6   4  156.08   21.70
   4  -6   4  175.28   13.60
  -4   6  -4  185.68   23.00
   4   6   4  170.08   23.60
   4   6   4  165.58   26.10
  -4   6  -4  194.28   20.90
  -4   6  -4  148.49   16.80
   4   6   4  181.18   20.50
  -4   6  -4  174.08   27.60
  -4   6  -4  214.18   26.40
  -4   6  -4  170.18   20.50
  -5  -6  -4  196.98   23.90
  -5  -6  -4  307.27   31.90
  -5  -6  -4  213.98   26.20
   5  -6   4  178.88   27.00
  -5  -6  -4  240.98   25.60
   5  -6   4  264.57   29.40
  -5   6  -4  256.67   25.20
  -5   6  -4  204.78   22.60
  -5   6  -4  249.48   24.90
  -5   6  -4  255.37   33.40
   5   6   4  254.97   33.80
   5   6   4  252.77   31.30
  -5   6  -4  225.18   27.30
  -5   6  -4  208.28   29.40
  -6  -6  -4   41.10   20.20
  -6  -6  -4   14.40   18.80
  -6  -6  -4    5.60   26.70
  -6  -6  -4   37.10   19.90
   6  -6   4   34.70   17.90
   6  -6   4   64.39   27.60
   6   6   4   22.60   22.20
  -6   6  -4   53.39   27.20
  -6   6  -4   49.99   16.30
   6   6   4   36.70   24.10
  -6   6  -4   22.10   28.10
  -6   6  -4   38.80   17.70
  -6   6  -4   33.40   17.10
  -7  -6  -4  432.86   42.10
  -7  -6  -4  338.17   56.09
  -7  -6  -4  388.06   46.30
   7  -6   4  372.56   47.10
   7  -6   4  324.17   36.90
  -7   6  -4  332.97   36.60
  -7   6  -4  402.36   44.00
   7   6   4  415.26   46.40
   7   6   4  389.06   46.70
  -7   6  -4  450.55   41.80
  -7   6  -4  348.17   48.20
  -8  -7   4   98.39   32.10
   8  -7  -4   81.99   37.70
   8  -7  -4  139.29   29.90
  -8  -7   4   69.59   32.10
  -8  -7   4   88.99   36.70
   8  -7  -4  106.99   26.80
  -8  -7   4  128.79   23.60
  -8   7   4   74.19   36.50
   8   7  -4   88.99   27.60
  -8   7   4   77.39   35.10
   8   7  -4  115.29   39.40
  -8   7   4   84.69   33.70
  -8   7   4   61.19   33.80
  -8   7   4  136.59   37.80
   8   7  -4   82.89   38.10
   7  -7  -4  146.29   20.70
  -7  -7   4  146.59   34.20
  -7  -7   4  159.78   35.20
  -7  -7   4  171.18   23.10
  -7  -7   4  135.19   29.90
   7  -7  -4  221.08   36.00
   7  -7  -4  156.68   28.20
   7   7  -4  151.28   27.00
  -7   7   4  200.38   38.10
  -7   7   4  152.18   35.20
   7   7  -4  153.48   32.40
   7   7  -4  134.59   30.70
  -7   7   4  171.48   38.90
   7   7  -4  178.58   31.30
  -7   7   4  161.78   33.20
   6  -7  -4  787.92   50.19
  -6  -7   4  842.02   52.99
  -6  -7   4  678.53   44.60
  -6  -7   4  669.83   37.30
   6  -7  -4  722.43   38.10
  -6  -7   4  818.42   47.40
   6  -7  -4  655.03   42.80
   6   7  -4  682.03   45.20
   6   7  -4  672.23   47.80
  -6   7   4  734.63   49.10
  -6   7   4  741.43   52.99
  -6   7   4  730.33   46.60
   6   7  -4  745.63   52.99
   6   7  -4  668.13   35.10
  -6   7   4  717.23   55.79
   6   7  -4  717.83   42.70
  -5  -7   4   64.89   19.00
  -5  -7   4  111.59   24.60
   5  -7  -4   86.19   22.30
  -5  -7   4   67.69   19.00
   5  -7  -4   96.99   20.90
   5  -7  -4   77.09   18.40
  -5  -7   4  117.69   19.20
  -5   7   4   55.29   21.10
   5   7  -4   77.29   19.90
   5   7  -4   92.09   15.50
   5   7  -4   82.09   20.20
   5   7  -4  117.29   20.80
  -5   7   4  127.79   26.10
  -5   7   4  101.29   25.40
  -5   7   4   62.09   20.10
   5   7  -4  110.19   24.20
  -4  -7   4 2197.38   76.09
  -4  -7   4 2142.59   70.99
   4  -7  -4 2143.49   77.29
   4  -7  -4 2131.39   76.49
   4  -7  -4 2122.69   71.59
  -4  -7   4 2138.29   68.09
  -4  -7   4 2226.38   70.09
  -4  -7   4 2214.18   75.29
   4  -7  -4 2250.07   73.89
   4   7  -4 2150.68   72.69
   4   7  -4 2162.38   73.99
  -4   7   4 2210.28   80.49
  -4   7   4 2267.17   79.29
  -4   7   4 2180.98   73.99
   4   7  -4 2231.58   77.29
  -4   7   4 2253.27   72.69
   3  -7  -4    7.80   13.60
   3  -7  -4    5.90   13.80
  -3  -7   4    5.80   12.20
  -3  -7   4   16.20   11.80
   3  -7  -4   14.20   14.60
  -3  -7   4    3.90   12.50
  -3  -7   4   -7.40   16.60
  -3  -7   4   -4.70   12.40
  -3  -7   4   15.10   14.00
   3  -7  -4   23.20   16.30
  -3   7   4   10.10   17.50
   3   7  -4    7.40   12.60
  -3   7   4   -0.30   12.40
  -3   7   4   -4.00   13.90
   3   7  -4   -4.10   12.80
  -3   7   4   -1.00   13.20
  -3   7   4  -25.30   16.00
   3   7  -4    5.50   15.10
   3   7  -4   -7.90   14.80
  -2  -7   4 2317.37   73.69
   2  -7  -4 2645.44   88.29
  -2  -7   4 2492.45   78.59
  -2  -7   4 2370.76   71.49
  -2  -7   4 2340.07   72.19
  -2  -7   4 2430.96   72.29
   2  -7  -4 2408.56   74.79
  -2  -7   4 2368.66   74.79
   2  -7  -4 2381.26   78.29
   2  -7  -4 2460.75   78.79
  -2  -7   4 2435.96   72.89
   2  -7  -4 2474.25   78.09
   2   7  -4 2420.96   73.99
  -2   7   4 2460.15   72.29
  -2   7   4 2381.36   69.89
  -2   7   4 2496.45   72.19
   2   7  -4 2375.06   74.69
   2   7  -4 2465.25   77.59
  -2   7   4 2426.06   79.89
  -2   7   4 2342.97   73.99
   2   7  -4 2472.25   78.19
  -2   7   4 2482.35   78.19
   2   7  -4 2392.36   79.29
  -1  -7   4   35.10   11.60
  -1  -7   4   25.70   13.20
   1  -7  -4   42.30   17.40
   1  -7  -4   26.30   12.30
  -1  -7   4   11.70   12.70
   1  -7  -4   19.20   13.20
   1  -7  -4   28.60   14.00
  -1  -7   4   34.80   13.40
   1  -7  -4   26.50   14.30
  -1  -7   4   37.60    6.30
   1  -7  -4   20.50   14.90
  -1  -7   4   31.40   13.60
  -1  -7   4   35.00   12.90
   1   7  -4   24.90   11.50
  -1   7   4   16.10   13.60
  -1   7   4   23.30   11.10
  -1   7   4   45.00   15.10
   1   7  -4   38.10   13.20
   1   7  -4   26.30   13.30
  -1   7   4   22.60    9.80
  -1   7   4   26.80   12.50
  -1   7   4   15.50   15.40
  -1   7   4   33.00   14.20
  -1   7   4   12.80   20.10
   1   7  -4   18.70   14.30
   1   7  -4   22.70   15.20
   0  -7  -4 1960.90   65.59
   0  -7  -4 1887.41   62.49
   0  -7   4 1921.81   66.79
   0  -7   4 1913.01   56.89
   0  -7   4 2007.90   60.59
   0  -7  -4 2007.70   59.49
   0  -7  -4 1993.50   63.79
   0  -7  -4 1857.21   67.29
   0  -7  -4 1945.11   65.09
   0  -7   4 2008.60   58.39
   0  -7  -4 1982.00   58.09
   0  -7   4 1900.21   61.59
   0   7  -4 1887.01   63.59
   0   7   4 1969.20   64.99
   0   7   4 1900.11   59.99
   0   7  -4 1974.50   66.89
   0   7  -4 1976.00   61.39
   0   7  -4 1792.72   62.19
   0   7   4 1982.70   59.99
   0   7   4 1996.30   51.39
   0   7  -4 1998.90   63.39
   0   7   4 1823.42   61.79
   0   7   4 1976.10   64.29
  -1  -7  -4  453.35   25.90
   1  -7   4  448.06   28.20
  -1  -7  -4  428.16   26.40
  -1  -7  -4  450.85   31.10
   1  -7   4  358.56   27.70
   1  -7   4  418.96   30.30
   1  -7   4  418.06   24.40
  -1  -7  -4  378.16   26.70
   1  -7   4  406.16   21.30
  -1  -7  -4  358.66   32.10
  -1  -7  -4  345.47   27.70
  -1  -7  -4  416.66   27.00
   1  -7   4  332.27   22.80
   1   7   4  456.45   30.00
  -1   7  -4  398.06   28.50
   1   7   4  426.76   25.90
   1   7   4  401.96   25.90
  -1   7  -4  375.86   30.40
   1   7   4  412.76   29.10
  -1   7  -4  393.26   26.20
  -1   7  -4  423.16   26.10
  -1   7  -4  398.26   27.10
  -1   7  -4  382.36   28.90
   1   7   4  394.76   24.10
   2  -7   4  329.17   28.40
   2  -7   4  423.16   17.20
  -2  -7  -4  372.66   26.90
  -2  -7  -4  447.16   35.10
   2  -7   4  402.46   31.30
   2  -7   4  404.56   28.00
   2  -7   4  452.45   23.40
  -2  -7  -4  481.65   30.30
   2  -7   4  411.96   28.30
  -2  -7  -4  374.56   27.50
  -2  -7  -4  452.75   32.10
   2   7   4  440.56   34.80
  -2   7  -4  410.06   34.00
   2   7   4  407.76   26.90
  -2   7  -4  428.56   29.70
  -2   7  -4  412.26   27.50
  -2   7  -4  406.66   26.70
   2   7   4  417.86   25.10
  -2   7  -4  424.86   27.80
   2   7   4  409.56   26.90
   2   7   4  432.16   23.60
   3  -7   4  935.81   46.10
   3  -7   4  869.61   42.00
   3  -7   4  950.30   45.50
  -3  -7  -4  934.21   40.90
  -3  -7  -4  917.91   43.10
   3  -7   4  931.01   34.20
  -3  -7  -4  917.51   44.10
  -3  -7  -4  885.81   41.60
  -3  -7  -4  857.01   46.00
   3   7   4  982.80   40.00
  -3   7  -4  947.81   40.70
  -3   7  -4  974.50   38.30
  -3   7  -4  906.71   38.70
   3   7   4  868.21   49.10
   3   7   4  919.81   32.90
  -3   7  -4  922.71   48.20
   3   7   4  955.80   32.70
   3   7   4  931.91   47.10
  -3   7  -4  876.81   43.90
   3   7   4  950.40   35.20
   4  -7   4   24.10   21.40
  -4  -7  -4   18.80   18.10
  -4  -7  -4   10.60   13.30
   4  -7   4   21.90   15.20
  -4  -7  -4    5.80   14.60
   4  -7   4   -4.00   10.10
  -4  -7  -4   -9.20   18.90
  -4   7  -4   13.90   20.80
   4   7   4   31.20   18.80
  -4   7  -4   25.70   23.10
   4   7   4   10.60   12.90
  -4   7  -4   19.50   18.70
  -4   7  -4    8.10   11.80
  -4   7  -4   28.80   19.50
   4   7   4  -12.60   17.30
  -4   7  -4   22.40   13.60
  -5  -7  -4  355.06   34.50
   5  -7   4  432.06   37.90
  -5  -7  -4  406.76   37.70
   5  -7   4  397.66   41.00
  -5  -7  -4  391.66   35.00
   5   7   4  466.45   41.40
  -5   7  -4  415.16   31.40
  -5   7  -4  382.96   32.00
  -5   7  -4  379.06   44.70
   5   7   4  409.36   41.60
  -5   7  -4  400.46   40.50
   5   7   4  297.37   30.50
   6  -7   4  536.35   43.20
   6  -7   4  576.44   46.70
  -6  -7  -4  577.14   44.20
  -6  -7  -4  676.33   55.09
  -6  -7  -4  555.14   46.20
  -6  -7  -4  461.25   41.60
   6   7   4  612.84   51.99
  -6   7  -4  530.35   39.60
  -6   7  -4  513.25   40.60
   6   7   4  473.65   45.80
  -6   7  -4  504.05   57.59
  -7  -8   4  170.48   31.90
  -7  -8   4  154.08   34.60
   7  -8  -4  159.68   34.20
  -7  -8   4  179.68   23.50
  -7  -8   4  227.58   39.50
   7  -8  -4  111.39   29.50
   7  -8  -4  128.09   22.60
  -7   8   4  174.68   35.10
  -7   8   4  157.68   38.40
  -7   8   4  134.19   33.50
   7   8  -4  187.88   34.40
   7   8  -4  165.88   29.20
  -7   8   4  174.28   37.70
   7   8  -4  168.08   47.50
  -6  -8   4  822.82   51.39
   6  -8  -4  753.52   43.40
  -6  -8   4  719.03   49.10
  -6  -8   4  801.12   41.00
  -6  -8   4  801.82   60.89
   6  -8  -4  659.23   49.20
   6  -8  -4  810.12   53.89
   6   8  -4  677.13   46.70
   6   8  -4  701.13   45.80
   6   8  -4  714.83   52.69
  -6   8   4  742.23   54.69
  -6   8   4  693.43   53.89
  -6   8   4  740.03   59.79
   6   8  -4  723.33   36.90
   6   8  -4  820.32   55.19
  -6   8   4  851.21   59.19
   5  -8  -4  120.99   23.90
  -5  -8   4  145.09   26.20
  -5  -8   4  139.69   24.00
  -5  -8   4  111.29   22.70
   5  -8  -4  174.08   29.30
   5  -8  -4  156.88   23.30
  -5  -8   4  167.38   22.80
   5   8  -4  162.68   28.80
  -5   8   4  120.29   26.10
   5   8  -4   91.39   20.20
   5   8  -4  126.19   24.40
   5   8  -4  140.49   18.50
  -5   8   4  140.69   27.60
  -5   8   4  145.99   30.70
   5   8  -4  155.08   25.00
  -5   8   4  138.89   25.10
  -4  -8   4    8.90   15.90
   4  -8  -4   21.40   18.00
  -4  -8   4   18.10   14.90
  -4  -8   4   12.30   14.60
  -4  -8   4   15.60   16.80
  -4  -8   4   12.70   17.80
   4  -8  -4   35.80   18.50
   4  -8  -4   44.00   20.60
   4   8  -4   12.30   18.50
   4   8  -4   46.00   18.40
   4   8  -4   19.20   16.30
  -4   8   4   15.20   16.50
  -4   8   4   14.40   17.10
  -4   8   4   22.00   19.80
  -4   8   4  -10.80   17.60
   3  -8  -4  486.55   37.10
   3  -8  -4  468.15   36.20
  -3  -8   4  453.75   34.70
  -3  -8   4  468.65   32.50
  -3  -8   4  482.25   29.00
  -3  -8   4  464.65   30.70
   3  -8  -4  458.55   35.80
  -3  -8   4  419.36   34.20
   3  -8  -4  478.75   35.70
  -3   8   4  451.75   37.20
   3   8  -4  513.55   35.50
   3   8  -4  444.96   35.60
  -3   8   4  475.55   31.40
   3   8  -4  484.55   40.40
  -3   8   4  511.05   38.20
   3   8  -4  444.36   33.30
  -3   8   4  502.25   33.10
  -3   8   4  493.65   34.70
  -2  -8   4  638.54   36.70
   2  -8  -4  538.35   34.80
   2  -8  -4  584.04   39.30
   2  -8  -4  655.53   37.00
  -2  -8   4  575.84   38.80
  -2  -8   4  641.14   38.90
  -2  -8   4  665.23   34.50
  -2  -8   4  609.24   33.60
   2  -8  -4  573.24   39.10
  -2  -8   4  612.04   29.00
  -2   8   4  660.43   43.10
  -2   8   4  660.53   35.80
  -2   8   4  663.33   39.40
   2   8  -4  572.74   37.00
  -2   8   4  767.92   36.00
  -2   8   4  591.04   35.70
  -2   8   4  579.24   33.90
   2   8  -4  677.43   35.90
   2   8  -4  635.64   36.20
   2   8  -4  612.84   41.30
  -1  -8   4  442.06   29.60
  -1  -8   4  426.86   18.10
  -1  -8   4  395.76   29.90
   1  -8  -4  450.35   33.60
   1  -8  -4  441.06   31.10
  -1  -8   4  435.86   31.50
   1  -8  -4  413.76   34.10
   1  -8  -4  383.56   30.60
  -1  -8   4  390.66   31.50
  -1  -8   4  458.05   27.60
  -1  -8   4  410.06   32.20
  -1   8   4  416.86   31.80
  -1   8   4  420.66   31.20
  -1   8   4  448.66   25.10
   1   8  -4  460.15   33.40
   1   8  -4  393.16   32.80
   1   8  -4  394.66   29.30
  -1   8   4  435.76   30.80
   1   8  -4  456.95   32.50
  -1   8   4  371.56   27.60
   1   8  -4  491.45   37.50
   0  -8   4 1650.13   53.29
   0  -8   4 1681.03   55.79
   0  -8  -4 1848.02   58.19
   0  -8  -4 1685.93   64.19
   0  -8   4 1687.93   59.99
   0  -8  -4 1741.33   60.69
   0  -8   4 1686.23   63.49
   0  -8  -4 1774.72   57.49
   0  -8   4 1736.73   59.39
   0  -8  -4 1729.73   66.99
   0  -8  -4 1684.13   62.29
   0  -8   4 1762.52   59.59
   0   8  -4 1680.63   61.09
   0   8  -4 1698.93   61.19
   0   8  -4 1673.03   58.09
   0   8  -4 1747.63   63.49
   0   8   4 1699.63   49.70
   0   8   4 1689.63   57.49
   0   8   4 1643.34   58.49
   0   8   4 1703.63   57.09
   0   8  -4 1643.44   65.09
   0   8   4 1642.24   64.99
   0   8   4 1742.23   61.59
   1  -8   4   71.89   16.70
  -1  -8  -4   58.69   17.80
  -1  -8  -4   90.59   17.80
   1  -8   4   65.99   11.70
  -1  -8  -4    5.80   22.00
  -1  -8  -4   37.70   18.80
   1  -8   4   30.60   15.60
   1  -8   4   61.89   13.90
  -1  -8  -4   67.59   16.30
  -1  -8  -4   69.19   16.40
   1   8   4   95.29   18.00
   1   8   4   49.80   19.50
  -1   8  -4   64.09   16.90
   1   8   4   71.69   17.40
   1   8   4   82.09   16.70
  -1   8  -4   67.09   16.20
   1   8   4   54.09   13.50
  -1   8  -4   54.99   14.80
  -1   8  -4   59.19   15.30
  -1   8  -4   56.09   19.40
  -1   8  -4   56.59   19.30
   1   8   4   57.79   17.60
   2  -8   4 1417.36   49.60
  -2  -8  -4 1384.26   59.59
  -2  -8  -4 1321.27   58.79
   2  -8   4 1359.86   40.90
   2  -8   4 1434.56   59.59
  -2  -8  -4 1395.86   55.09
  -2  -8  -4 1345.67   55.59
  -2  -8  -4 1363.56   53.59
   2  -8   4 1404.16   49.20
   2  -8   4 1389.66   54.79
   2  -8   4 1428.46   42.30
   2   8   4 1432.06   49.99
  -2   8  -4 1455.35   54.19
  -2   8  -4 1417.36   52.29
  -2   8  -4 1419.46   54.29
   2   8   4 1346.47   47.20
  -2   8  -4 1519.65   55.59
  -2   8  -4 1437.96   57.29
   2   8   4 1380.36   51.69
   2   8   4 1417.96   60.59
  -2   8  -4 1366.96   59.89
   3  -8   4    5.30   14.90
  -3  -8  -4    8.20   14.00
   3  -8   4    5.70   12.10
  -3  -8  -4   18.60   23.50
  -3  -8  -4  -14.10   16.70
  -3  -8  -4   23.70   16.20
   3  -8   4    7.80   14.60
   3   8   4   -6.60   14.60
  -3   8  -4   33.50   14.90
  -3   8  -4   -4.00   12.40
  -3   8  -4  -15.70   19.10
   3   8   4    4.50   11.20
   3   8   4   -9.30   15.90
  -3   8  -4   36.70   19.50
  -3   8  -4    2.50   18.30
   3   8   4  -13.00   14.00
  -4  -8  -4 1019.90   47.40
  -4  -8  -4  976.60   53.39
   4  -8   4 1041.10   53.39
  -4  -8  -4 1025.00   49.70
  -4   8  -4 1087.59   55.19
  -4   8  -4 1029.10   47.40
  -4   8  -4 1085.79   48.60
   4   8   4 1117.99   59.99
  -4   8  -4 1046.60   61.99
   4   8   4 1090.29   47.10
   4   8   4 1083.89   41.60
   4   8   4  938.51   53.59
  -5  -8  -4  -19.10   19.00
   5  -8   4   41.50   18.60
  -5  -8  -4   -2.60   22.30
   5  -8   4   77.79   24.50
  -5  -8  -4   31.20   19.80
  -5   8  -4   16.20   25.90
  -5   8  -4   77.49   33.00
   5   8   4   25.70   22.60
   5   8   4   26.30   23.00
  -5   8  -4   20.90   17.80
  -5   8  -4   22.90   21.10
  -6  -8  -4  609.94   54.19
   6  -8   4  588.34   49.90
  -6  -8  -4  642.44   46.70
  -6  -8  -4  619.44   50.89
  -6  -8  -4  637.24   59.09
   6  -8   4  598.34   48.00
   6   8   4  614.24   54.09
  -6   8  -4  536.35   63.79
  -6   8  -4  559.54   62.39
  -6   8  -4  675.63   48.70
   6   8   4  583.34   48.70
   6  -9  -4   72.99   27.60
  -6  -9   4   82.29   33.70
   6  -9  -4   54.89   29.90
  -6  -9   4   96.19   19.30
  -6  -9   4   95.69   29.60
  -6  -9   4   58.59   27.80
   6  -9  -4    5.60   25.80
   6  -9  -4   42.20   23.80
   6   9  -4   29.30   17.90
   6   9  -4   39.20   26.10
  -6   9   4   96.89   36.50
   6   9  -4  102.49   26.60
  -6   9   4   93.29   33.90
  -6   9   4  -13.10   51.59
   6   9  -4   92.99   31.90
   5  -9  -4  278.27   36.80
  -5  -9   4  266.07   35.60
  -5  -9   4  274.07   29.00
   5  -9  -4  234.88   32.80
   5  -9  -4  249.38   35.10
  -5  -9   4  294.57   37.40
  -5  -9   4  215.58   30.30
   5  -9  -4  280.97   32.00
   5   9  -4  250.57   29.70
  -5   9   4  263.57   37.90
  -5   9   4  206.78   32.40
  -5   9   4  242.28   32.00
   5   9  -4  222.78   27.70
   5   9  -4  232.38   35.40
   5   9  -4  270.97   35.00
   5   9  -4  252.67   32.10
  -5   9   4  328.87   43.40
   4  -9  -4  172.18   26.80
  -4  -9   4  160.28   21.60
   4  -9  -4  185.28   27.60
  -4  -9   4  175.48   26.60
  -4  -9   4  188.68   28.20
   4  -9  -4  144.79   27.50
  -4  -9   4  159.08   22.10
  -4  -9   4  186.18   29.70
   4  -9  -4  172.98   25.90
   4   9  -4  179.58   25.30
   4   9  -4  136.99   25.00
  -4   9   4  175.78   30.10
   4   9  -4  192.58   29.40
  -4   9   4  168.18   28.30
   4   9  -4  167.18   31.50
  -4   9   4  164.98   31.10
  -4   9   4  165.08   26.40
   3  -9  -4   81.99   19.10
  -3  -9   4   61.39   20.40
   3  -9  -4   91.19   22.70
  -3  -9   4   84.69   16.70
  -3  -9   4   81.09   19.20
   3  -9  -4   81.89   22.30
  -3  -9   4   79.49   19.10
   3  -9  -4   90.79   21.00
  -3  -9   4   94.29   18.20
  -3   9   4   71.79   23.50
  -3   9   4   81.69   21.40
  -3   9   4  119.09   24.50
  -3   9   4   64.49   19.30
   3   9  -4   86.89   21.50
   3   9  -4   99.89   20.90
   3   9  -4   77.09   24.60
   3   9  -4  101.99   22.40
  -3   9   4   73.29   21.20
  -2  -9   4  321.47   28.50
  -2  -9   4  249.97   30.10
   2  -9  -4  279.37   29.50
   2  -9  -4  333.47   35.60
  -2  -9   4  265.47   28.60
   2  -9  -4  311.47   35.90
   2  -9  -4  261.57   30.50
  -2  -9   4  286.47   31.50
  -2   9   4  224.88   30.60
  -2   9   4  260.27   33.30
  -2   9   4  297.37   30.00
   2   9  -4  269.87   34.40
   2   9  -4  283.17   30.60
   2   9  -4  308.87   30.20
  -2   9   4  305.37   31.80
  -2   9   4  312.47   34.50
   2   9  -4  231.18   30.60
  -2   9   4  302.37   30.10
   1  -9  -4  336.87   29.00
  -1  -9   4  291.57   31.00
   1  -9  -4  222.08   26.00
   1  -9  -4  320.27   34.50
  -1  -9   4  317.07   29.90
  -1  -9   4  286.37   27.40
   1  -9  -4  316.57   34.50
  -1  -9   4  307.47   28.40
  -1  -9   4  266.97   16.20
  -1   9   4  300.07   34.00
  -1   9   4  328.77   31.40
  -1   9   4  266.87   27.40
   1   9  -4  319.37   33.10
   1   9  -4  278.47   29.50
  -1   9   4  301.07   30.60
   1   9  -4  321.67   36.70
  -1   9   4  337.27   28.00
   1   9  -4  271.67   30.20
   0  -9   4  314.37   29.30
   0  -9  -4  304.87   30.10
   0  -9   4  365.76   33.70
   0  -9  -4  293.47   28.50
   0  -9  -4  276.77   33.70
   0  -9   4  294.17   25.90
   0  -9   4  297.47   30.90
   0  -9   4  334.47   31.80
   0  -9  -4  267.87   28.10
   0  -9  -4  305.67   32.50
   0   9   4  346.07   20.90
   0   9  -4  312.87   31.90
   0   9  -4  248.68   36.10
   0   9   4  316.37   28.10
   0   9   4  308.17   32.60
   0   9  -4  310.67   36.80
   0   9   4  298.47   29.70
   0   9  -4  305.77   31.30
   0   9   4  300.37   32.40
   0   9  -4  298.17   32.60
   0   9   4  311.97   19.00
   1  -9   4 1430.06   55.39
  -1  -9  -4 1389.86   63.59
   1  -9   4 1325.27   55.49
  -1  -9  -4 1325.17   56.79
   1  -9   4 1357.76   47.00
   1  -9   4 1409.76   61.49
   1  -9   4 1434.26   51.29
  -1  -9  -4 1395.36   51.69
  -1  -9  -4 1396.86   55.99
  -1   9  -4 1493.95   56.59
  -1   9  -4 1361.56   55.19
   1   9   4 1396.46   54.19
   1   9   4 1355.36   59.39
   1   9   4 1600.64   67.69
  -1   9  -4 1332.77   60.99
  -1   9  -4 1355.96   56.59
   1   9   4 1409.06   53.29
   1   9   4 1432.76   58.29
  -1   9  -4 1351.76   56.49
  -1   9  -4 1429.96   62.19
  -2  -9  -4   73.09   19.70
   2  -9   4   30.30   11.10
   2  -9   4   44.90   23.70
   2  -9   4   50.79   17.60
   2  -9   4   37.50   17.90
  -2  -9  -4   51.69   21.50
   2  -9   4   15.20   21.80
  -2  -9  -4   58.19   19.30
   2   9   4   78.69   21.20
   2   9   4   54.29   21.10
  -2   9  -4   76.39   24.00
  -2   9  -4   39.10   18.90
  -2   9  -4   91.69   21.40
   2   9   4   61.49   24.10
   2   9   4   29.50   21.00
  -2   9  -4   70.09   18.50
  -2   9  -4   71.79   23.70
  -2   9  -4   62.89   17.60
   2   9   4   36.40   14.60
   3  -9   4 2236.08   86.39
  -3  -9  -4 2440.06   80.69
   3  -9   4 2415.26   74.19
  -3  -9  -4 2294.77   82.39
  -3  -9  -4 2391.56   88.69
   3  -9   4 2293.27   81.39
  -3   9  -4 2435.06   78.59
   3   9   4 2447.26   82.19
   3   9   4 2474.85   71.69
  -3   9  -4 2477.15   83.69
  -3   9  -4 2471.45   92.79
  -3   9  -4 2395.56   81.19
   3   9   4 2332.27   89.59
  -4  -9  -4   13.40   19.20
  -4  -9  -4    2.80   24.30
  -4  -9  -4   -1.20   20.80
   4  -9   4    4.70   18.20
   4   9   4  -19.60   20.20
   4   9   4    8.50   23.00
  -4   9  -4   -6.70   20.50
   4   9   4    4.00   13.10
   4   9   4  -25.90   21.80
  -4   9  -4  -22.40   18.20
  -4   9  -4   15.00   21.90
  -4   9  -4   11.70   26.80
  -5  -9  -4 1217.18   62.59
   5  -9   4 1227.98   64.09
  -5  -9  -4 1339.17   71.59
  -5  -9  -4 1137.99   62.69
  -5   9  -4 1304.17   74.49
  -5   9  -4 1321.47   76.39
   5   9   4 1280.17   69.99
   5   9   4 1138.19   64.89
  -5   9  -4 1280.87   57.29
  -6 -10   4   72.99   31.00
   6 -10  -4   75.79   28.80
   6 -10  -4   55.59   25.00
  -6 -10   4   44.00   30.20
   6 -10  -4   21.50   36.30
  -6 -10   4   77.69   21.20
   6 -10  -4   69.59   27.20
  -6 -10   4   59.79   32.30
  -6  10   4  107.69   38.60
   6  10  -4   47.10   38.50
  -6  10   4   25.40   31.20
   6  10  -4   75.79   31.80
  -6  10   4   34.70   30.10
   6  10  -4   51.99   32.50
   6  10  -4  106.79   36.40
   6  10  -4   70.89   26.10
   5 -10  -4 1151.58   70.79
  -5 -10   4 1108.79   62.99
   5 -10  -4 1059.19   71.59
  -5 -10   4 1189.58   52.39
   5 -10  -4 1247.28   63.29
   5 -10  -4 1269.37   66.59
  -5 -10   4 1208.28   70.29
  -5 -10   4 1175.68   60.39
   5  10  -4 1124.09   51.49
   5  10  -4 1211.18   62.19
  -5  10   4 1209.98   72.79
   5  10  -4 1142.99   73.09
  -5  10   4 1172.68   68.99
  -5  10   4 1068.59   72.29
   5  10  -4 1285.57   75.99
  -4 -10   4    8.40   23.90
   4 -10  -4   21.90   25.10
  -4 -10   4   32.50   20.60
   4 -10  -4   32.50   21.90
   4 -10  -4   50.59   28.60
  -4 -10   4   26.80   22.60
  -4 -10   4   70.19   19.00
  -4 -10   4   40.10   19.40
   4 -10  -4   66.89   24.40
   4  10  -4  -10.60   28.90
  -4  10   4   45.30   26.20
   4  10  -4   30.40   20.60
  -4  10   4   17.40   28.50
   4  10  -4   32.80   24.60
   4  10  -4   39.10   28.90
  -4  10   4   21.80   21.70
  -4  10   4   69.49   30.80
   3 -10  -4 2014.30   78.49
  -3 -10   4 1908.11   76.59
  -3 -10   4 2101.59   75.29
  -3 -10   4 1976.80   65.79
   3 -10  -4 2053.89   80.59
   3 -10  -4 2007.50   80.99
   3 -10  -4 1950.30   77.49
  -3 -10   4 2060.69   71.39
  -3 -10   4 2111.39   78.79
   3  10  -4 1935.81   78.19
   3  10  -4 2034.90   86.19
  -3  10   4 1975.90   77.89
   3  10  -4 2043.50   75.19
  -3  10   4 1979.10   74.89
  -3  10   4 2009.30   86.99
  -3  10   4 2091.09   82.99
   3  10  -4 2045.30   82.49
   2 -10  -4   39.30   21.30
   2 -10  -4   31.80   19.30
  -2 -10   4   28.90   16.60
   2 -10  -4    9.20   20.70
  -2 -10   4   35.20   18.20
   2 -10  -4   38.30   24.10
  -2 -10   4   61.99   19.90
  -2 -10   4   31.70   19.60
  -2 -10   4   45.70   14.40
   2  10  -4   21.30   17.00
  -2  10   4   -3.60   18.10
   2  10  -4   30.50   18.90
  -2  10   4   59.09   22.10
   2  10  -4   16.40   22.10
  -2  10   4   67.09   22.30
  -2  10   4   37.80   25.10
  -2  10   4   56.89   22.70
   2  10  -4   46.20   25.00
  -1 -10   4 1273.27   59.59
  -1 -10   4 1291.07   37.60
   1 -10  -4 1206.78   63.39
   1 -10  -4 1210.88   61.59
  -1 -10   4 1229.18   50.89
  -1 -10   4 1241.88   55.89
  -1 -10   4 1172.18   52.49
   1 -10  -4 1199.58   56.49
   1 -10  -4 1239.18   53.09
   1  10  -4 1226.28   63.49
   1  10  -4 1182.58   53.99
  -1  10   4 1183.68   52.69
  -1  10   4 1126.09   49.30
   1  10  -4 1160.88   58.29
   1  10  -4 1127.19   53.59
  -1  10   4 1179.98   55.69
  -1  10   4 1238.88   59.79
  -1  10   4 1170.78   53.39
   0 -10  -4  224.78   27.90
   0 -10  -4  247.78   30.60
   0 -10   4  158.48   20.80
   0 -10   4  164.88   23.20
   0 -10   4  177.98   26.50
   0 -10   4  201.48   26.10
   0 -10  -4  232.48   34.80
   0 -10  -4  235.28   31.30
   0  10  -4  139.09   28.90
   0  10   4  199.88   20.30
   0  10   4  221.28   24.10
   0  10   4  230.88   27.00
   0  10  -4  145.89   25.70
   0  10  -4  215.78   25.40
   0  10   4  186.68   27.90
   0  10   4  232.88   28.40
   0  10   4  189.48   25.70
   0  10  -4  158.58   27.20
   1 -10   4  190.48   25.50
  -1 -10  -4  211.58   28.60
  -1 -10  -4  148.79   31.80
   1 -10   4  169.38   27.10
  -1 -10  -4  181.58   26.40
   1 -10   4  215.98   21.50
  -1 -10  -4  204.68   23.80
   1 -10   4  209.98   26.50
  -1  10  -4  165.38   26.40
  -1  10  -4  209.48   27.20
   1  10   4  230.18   27.20
   1  10   4  210.98   29.00
   1  10   4  213.68   28.90
   1  10   4  170.18   22.20
  -1  10  -4  203.98   27.40
  -1  10  -4  165.98   31.00
   1  10   4  191.48   10.50
  -2 -10  -4  232.68   35.30
   2 -10   4  278.97   34.00
   2 -10   4  261.47   30.60
  -2 -10  -4  295.97   31.80
   2 -10   4  298.57   25.30
  -2 -10  -4  256.47   34.60
   2 -10   4  301.57   33.90
  -2  10  -4  342.97   36.70
   2  10   4  261.27   31.20
   2  10   4  287.97   35.50
  -2  10  -4  231.68   37.10
   2  10   4  256.17   29.60
  -2  10  -4  271.47   29.20
  -2  10  -4  304.47   39.00
  -2  10  -4  245.18   32.80
   3 -10   4   33.90   21.50
  -3 -10  -4   39.50   24.60
   3 -10   4   -7.30   19.60
  -3 -10  -4   -7.50   27.40
   3 -10   4   19.90   18.50
  -3 -10  -4  -14.70   24.00
  -3  10  -4   34.80   22.90
   3  10   4  -15.40   23.00
  -3  10  -4   39.60   21.40
   3  10   4    6.20   18.10
  -3  10  -4   15.40   28.90
  -3  10  -4   53.09   26.60
  -3  10  -4    7.00   23.30
   3  10   4   31.30   25.40
   4 -10   4  378.56   41.20
  -4 -10  -4  341.17   37.70
  -4 -10  -4  299.67   43.60
  -4 -10  -4  356.16   41.70
  -4  10  -4  291.47   39.30
  -4  10  -4  265.17   35.80
   4  10   4  268.87   35.30
   4  10   4  353.66   32.70
  -4  10  -4  394.56   44.10
   4  10   4  370.06   41.10
   4  10   4  285.27   38.90
  -4  10  -4  325.27   42.10
   5 -11  -4  -10.80   23.90
  -5 -11   4   -6.20   27.70
  -5 -11   4   19.60   27.60
   5 -11  -4  -19.50   33.20
   5 -11  -4   23.30   37.90
   5 -11  -4   43.50   29.00
  -5  11   4  -14.00   28.10
  -5  11   4   18.30   30.60
   5  11  -4   33.70   28.60
  -5  11   4   52.09   54.39
   4 -11  -4 1217.38   64.59
  -4 -11   4 1173.18   61.19
  -4 -11   4 1234.88   57.29
  -4 -11   4 1199.68   72.09
   4 -11  -4 1213.68   77.49
   4 -11  -4 1237.38   72.19
  -4 -11   4 1173.78   62.49
   4 -11  -4 1135.19   62.69
  -4 -11   4 1094.09   54.19
   4  11  -4 1179.08   73.99
   4  11  -4 1173.78   74.99
   4  11  -4 1231.48   66.29
  -4  11   4 1206.68   67.09
  -4  11   4 1211.38   68.79
   4  11  -4 1085.49   62.69
  -4  11   4 1156.18   72.19
   3 -11  -4   -2.80   19.40
  -3 -11   4   54.69   21.00
  -3 -11   4   30.80   19.40
   3 -11  -4   38.00   33.20
  -3 -11   4   23.30   25.70
  -3 -11   4   28.70   18.10
   3 -11  -4   96.79   41.70
  -3 -11   4   47.80   25.90
   3 -11  -4   55.99   32.50
  -3  11   4   22.60   33.90
   3  11  -4  130.49   30.60
   3  11  -4   23.30   25.10
   3  11  -4   47.40   39.90
  -3  11   4   48.70   25.90
  -2 -11   4 1457.05   52.69
  -2 -11   4 1546.85   69.09
   2 -11  -4 1608.14   77.59
   2 -11  -4 1623.04   79.19
  -2 -11   4 1511.85   62.89
  -2 -11   4 1649.93   66.09
  -2 -11   4 1510.65   68.69
   2 -11  -4 1491.15   69.79
   2 -11  -4 1517.25   67.79
   2  11  -4 1547.95   67.49
  -2  11   4 1601.74   67.19
   2  11  -4 1454.95   72.99
  -2  11   4 1502.05   70.59
  -2  11   4 1645.74   76.79
   2  11  -4 1500.65   75.59
   2  11  -4 1557.24   68.69
  -1 -11   4  -18.80   16.00
  -1 -11   4  -44.40   19.10
   1 -11  -4   -2.50   18.20
  -1 -11   4   31.00   20.00
  -1 -11   4   -1.20    9.30
   1 -11  -4   39.70   30.50
   1 -11  -4   25.70   27.70
  -1 -11   4  -16.60   19.90
   1 -11  -4   20.90   21.90
   1  11  -4   -4.50   21.40
   1  11  -4   32.10   25.70
  -1  11   4  -11.00   20.20
  -1  11   4   36.40   24.70
   1  11  -4   24.00   24.40
  -1  11   4   15.20   23.00
  -1  11   4    4.10   20.50
   1  11  -4    7.30   25.80
   0 -11   4 1316.57   62.39
   0 -11  -4 1096.49   65.79
   0 -11  -4 1292.77   71.69
   0 -11   4 1273.67   59.09
   0 -11   4 1245.88   53.79
   0 -11  -4 1237.38   55.79
   0 -11  -4 1201.88   61.49
   0 -11   4 1178.28   63.49
   0  11  -4 1242.28   63.89
   0  11   4 1298.37   59.19
   0  11  -4 1313.37   65.19
   0  11  -4 1302.97   70.79
   0  11   4 1263.17   60.59
   0  11  -4 1279.77   63.09
   0  11   4 1185.98   54.99
   0  11   4 1310.17   65.49
   0  11   4 1322.37   63.19
   1 -11   4   12.90   16.00
  -1 -11  -4   24.70   22.90
  -1 -11  -4   33.90   28.90
   1 -11   4   51.69   20.70
  -1 -11  -4   55.79   20.40
   1 -11   4   24.30   20.20
   1 -11   4   22.90   22.40
  -1 -11  -4   18.00   31.10
   1  11   4   78.29   23.60
  -1  11  -4   21.90   29.30
   1  11   4   22.10   22.80
  -1  11  -4   13.50   24.10
   1  11   4   24.20   21.10
   1  11   4   86.29   28.40
  -1  11  -4    4.10   24.00
  -1  11  -4   37.50   27.30
   2 -11   4  410.16   31.70
  -2 -11  -4  400.26   47.10
   2 -11   4  405.26   51.29
  -2 -11  -4  349.37   68.99
   2 -11   4  385.86   40.50
   2 -11   4  356.66   42.90
   2  11   4  366.06   40.30
  -2  11  -4  386.76   46.30
  -2  11  -4  394.16   39.60
   2  11   4  552.34   50.79
  -2  11  -4  427.76   75.99
  -2  11  -4  447.56   62.39
   2  11   4  409.36   45.10
   3 -11   4  137.69   29.20
  -3 -11  -4  232.78   39.90
  -3 -11  -4  225.68   36.20
  -3  11  -4  244.88   36.60
  -3  11  -4  247.08   40.70
  -3  11  -4  261.67   37.30
   3  11   4  257.67   38.00
   3  11   4  203.68   37.90
   3  11   4  244.78   34.50
  -3  11  -4  218.58   32.00
  -3  11  -4  264.77   42.30
  -3 -12   4  695.23   51.29
  -3 -12   4  632.74   52.49
   3 -12  -4  558.84   56.19
  -3 -12   4  589.64   63.89
   3 -12  -4  500.05   47.70
  -3 -12   4  586.84   55.89
   3 -12  -4  532.65   61.49
  -3 -12   4  601.94   44.80
   3  12  -4  645.74   66.79
  -3  12   4  650.43   62.89
   3  12  -4  581.04   57.39
  -3  12   4  694.73   66.29
   3  12  -4  482.75   51.79
  -3  12   4  550.44   55.99
  -3  12   4  665.93   61.39
   3  12  -4  570.14   59.29
  -2 -12   4  234.38   38.00
   2 -12  -4  230.98   41.80
  -2 -12   4  183.68   29.60
   2 -12  -4  303.27   39.20
  -2 -12   4  278.37   49.50
   2 -12  -4  181.08   30.60
  -2 -12   4  190.18   31.10
   2  12  -4  213.38   43.30
  -2  12   4  209.08   43.10
   2  12  -4  280.37   36.70
  -2  12   4  196.38   35.30
  -2  12   4  196.48   35.80
   2  12  -4  236.68   39.10
   2  12  -4  205.88   33.00
   1 -12  -4  646.54   76.89
   1 -12  -4  771.52   54.99
  -1 -12   4  642.44   54.09
  -1 -12   4  615.94   53.99
  -1 -12   4  639.34   49.90
   1 -12  -4  694.63   47.30
   1 -12  -4  669.03   63.09
  -1  12   4  705.73   52.39
   1  12  -4  587.74   54.99
  -1  12   4  552.04   63.49
  -1  12   4  668.03   54.39
   1  12  -4  585.34   56.39
   1  12  -4  646.04   56.49
  -1  12   4  648.04   39.80
   1  12  -4  597.64   53.59
   0 -12  -4  445.26   47.80
   0 -12   4  415.56   42.70
   0 -12   4  498.15   50.29
   0 -12  -4  465.05   57.79
   0 -12  -4  461.85   40.90
   0 -12  -4  485.55   56.29
   0 -12   4  386.66   38.80
   0 -12   4  401.46   42.60
   0  12   4  425.86   50.89
   0  12  -4  465.95   67.89
   0  12  -4  397.26   49.70
   0  12   4  520.65   58.99
   0  12  -4  358.56   53.39
   0  12   4  447.46   68.79
   0  12  -4  455.85   56.99
  -1 -12  -4   65.49   33.50
  -1 -12  -4   70.19   24.10
  -1 -12  -4   49.60   29.20
   1 -12   4   84.69   24.70
  -1 -12  -4   80.99   30.60
   1 -12   4   70.59   25.70
   1 -12   4   56.69   29.00
   1 -12   4   60.59   24.70
   1  12   4  114.49   32.40
  -1  12  -4   85.39   30.50
  -1  12  -4   76.89   34.40
  -1  12  -4  102.69   49.80
  -1  12  -4  136.99   30.60
   1  12   4   73.79   31.20
   2 -12   4  724.33   55.59
  -2 -12  -4  746.63   60.89
  -2 -12  -4  835.22   68.79
  -2 -12  -4  857.11   60.89
   2 -12   4  731.73   43.30
  -2  12  -4  802.22   58.29
  -2  12  -4  780.42   57.69
   2  12   4  773.42   61.09
  -2  12  -4  762.62   59.39
   2  12   4  832.82   62.39
  -2  12  -4  819.72   69.49
  -9   0   5  904.21   63.49
   9   0  -5  895.11   58.79
   9   0  -5  921.01   68.39
   9   0  -5  802.82   48.30
  -9   0   5  967.60   66.59
   8   0  -5   28.40   24.30
   8   0  -5    1.90   17.30
   8   0  -5   14.80   17.60
   8   0  -5   21.20    8.40
  -8   0   5   10.10   27.10
   8   0  -5   -8.80   19.90
  -8   0   5  -13.70   21.00
  -8   0   5   -3.70   23.80
  -8   0   5   60.89   23.70
  -7   0   5 3160.68  104.39
   7   0  -5 3137.99  103.79
   7   0  -5 3289.17   84.59
   7   0  -5 3179.38   93.49
   7   0  -5 3300.67   97.79
   7   0  -5 3083.69  102.59
  -7   0   5 3236.78  100.29
  -7   0   5 3202.68   97.89
  -7   0   5 3233.88  104.49
   6   0  -5    0.10   14.10
   6   0  -5    8.00   14.30
   6   0  -5    9.70   14.00
  -6   0   5   -4.30   13.10
  -6   0   5   15.80   16.10
  -6   0   5  -14.70   15.00
  -6   0   5   -9.90   14.80
  -6   0   5  -13.70   13.70
   6   0  -5  -10.00   13.60
   5   0  -5 2851.21   95.39
   5   0  -5 2867.51   82.99
  -5   0   5 2862.31   86.99
  -5   0   5 2859.21   86.69
  -5   0   5 2816.42   86.49
  -5   0   5 2917.91   81.89
   5   0  -5 2896.61   87.09
  -5   0   5 2787.72   82.19
   5   0  -5 2841.42   83.89
   5   0  -5 2704.43   85.79
  -5   0   5 2957.90   82.69
   5   0  -5 2837.52   76.49
   5   0  -5 2757.32   81.09
   4   0  -5    4.00   12.30
  -4   0   5   19.30   13.90
  -4   0   5   -4.50   12.00
   4   0  -5   11.50   12.30
   4   0  -5   16.80   12.70
   4   0  -5  -11.60   11.30
  -4   0   5   -1.20   12.80
  -4   0   5    2.40   12.80
   4   0  -5   -8.20   10.60
  -4   0   5   11.20   11.30
  -4   0   5   -1.50    8.60
   4   0  -5    8.00   12.30
   4   0  -5    2.70   10.10
  -4   0   5    8.30   10.40
  -4   0   5    1.90   11.50
   3   0  -5 3546.65   96.69
  -3   0   5 3575.24   93.09
   3   0  -5 3534.65   93.29
   3   0  -5 3534.35   97.49
   3   0  -5 3687.53   96.89
  -3   0   5 3733.63   95.89
  -3   0   5 3599.04   89.59
  -3   0   5 3714.73   93.79
  -3   0   5 3580.94   96.99
  -3   0   5 3660.43   97.09
  -3   0   5 3629.24   95.39
  -3   0   5 3608.34   91.39
  -3   0   5 3465.25   96.89
   3   0  -5 3718.33   96.89
   3   0  -5 3457.25   94.59
   3   0  -5 3355.16   95.39
  -2   0   5   11.10    9.10
   2   0  -5   10.70   14.30
   2   0  -5    0.90    9.60
  -2   0   5    3.80    8.00
  -2   0   5   -5.80    7.50
  -2   0   5    6.70    7.00
  -2   0   5   -6.70    7.40
  -2   0   5   -0.80    5.20
   2   0  -5    6.50    9.20
   2   0  -5   11.90    8.30
  -2   0   5    0.70    4.60
   2   0  -5    7.60    9.40
   2   0  -5   -4.50    9.10
  -2   0   5   -4.60    6.80
  -2   0   5    2.20    9.80
   2   0  -5    0.30    9.30
   1   0  -5  332.67   17.50
   1   0  -5  332.17   11.40
   1   0  -5  321.37   18.90
   1   0  -5  320.87   20.90
   1   0  -5  339.07   19.50
   1   0  -5  322.77   19.00
  -1   0   5  361.06   17.80
  -1   0   5  335.07   12.60
  -1   0   5  359.76   15.10
   1   0  -5  339.07   18.50
  -1   0   5  361.76   15.50
  -1   0   5  364.76   23.10
  -1   0   5  353.76   18.30
  -1   0   5  345.37   17.40
   1   0  -5  323.27   16.70
   0   0  -5    6.10    3.70
   0   0  -5    0.00    3.30
   0   0  -5   10.30    6.50
   0   0   5  -10.60    5.30
   0   0  -5   -3.70    5.00
   0   0  -5    8.00    5.00
   0   0  -5   -1.30    6.00
   0   0  -5   18.80    9.00
   0   0   5    4.60    4.50
   0   0   5   15.50   10.90
   0   0  -5  -13.40    6.20
   0   0   5    2.80    7.30
  -1   0  -5  405.76   15.00
  -1   0  -5  384.16   13.10
   1   0   5  368.86   18.30
  -1   0  -5  389.46   14.90
  -1   0  -5  392.26   13.30
  -1   0  -5  391.26   18.30
  -1   0  -5  404.16   15.70
   1   0   5  387.06   24.30
  -1   0  -5  375.56   21.80
   2   0   5    9.50    7.40
   2   0   5   14.60   11.50
  -2   0  -5    6.50    3.10
  -2   0  -5   -3.10    2.80
   2   0   5    2.10   10.50
  -2   0  -5    8.00    7.20
  -2   0  -5   -2.60    5.40
  -2   0  -5    0.80    8.50
   3   0   5  318.07   24.00
   3   0   5  313.87   25.20
   3   0   5  347.57   16.90
  -3   0  -5  322.67   20.60
  -3   0  -5  292.67   26.30
  -4   0  -5    1.90   12.00
  -4   0  -5    6.10    3.50
  -4   0  -5   -1.90    3.90
  -4   0  -5   -2.60   10.60
   4   0   5    8.30   15.90
   4   0   5   16.60   14.10
  -4   0  -5   -5.50    9.00
  -5   0  -5  705.13   39.20
  -5   0  -5  688.43   23.60
  -5   0  -5  674.73   31.60
   5   0   5  658.53   37.20
  -5   0  -5  732.83   43.60
  -5   0  -5  727.93   45.50
   5   0   5  693.83   40.30
  -5   0  -5  677.23   22.10
  -6   0  -5   -2.70    9.30
  -6   0  -5   -5.50   17.90
  -6   0  -5  -19.90   20.40
  -6   0  -5    7.40   19.10
   6   0   5  -29.50   14.30
   6   0   5  -20.70   19.20
  -6   0  -5  -11.90   12.00
  -6   0  -5   -1.00   15.80
   7   0   5 1430.16   62.19
  -7   0  -5 1535.45   51.09
  -7   0  -5 1572.74   81.49
   7   0   5 1550.04   71.89
  -7   0  -5 1525.45   70.89
  -9  -1   5  201.58   45.60
   9  -1  -5  231.38   29.80
  -9  -1   5  300.37   42.40
  -9  -1   5  280.97   42.80
   9  -1  -5  331.87   44.00
   9  -1  -5  299.17   35.70
   9   1  -5  275.97   36.40
   9   1  -5  299.77   34.10
  -9   1   5  263.17   62.59
  -9   1   5  224.98   38.90
   9   1  -5  226.88   26.30
  -9   1   5  237.68   37.20
   9   1  -5  294.77   42.00
  -8  -1   5  508.15   44.50
  -8  -1   5  444.16   42.90
   8  -1  -5  535.05   38.40
   8  -1  -5  565.84   42.30
   8  -1  -5  477.95   36.70
  -8  -1   5  563.54   54.19
  -8  -1   5  531.15   51.49
   8  -1  -5  475.55   48.30
  -8   1   5  532.65   44.70
   8   1  -5  554.04   25.00
   8   1  -5  447.96   34.00
  -8   1   5  471.85   54.49
  -8   1   5  530.75   48.40
  -8   1   5  435.86   49.99
   8   1  -5  518.75   37.10
   8   1  -5  546.05   50.39
   8   1  -5  479.55   40.50
  -7  -1   5  163.48   27.40
   7  -1  -5  193.38   23.40
  -7  -1   5  104.29   23.70
  -7  -1   5  109.09   21.70
   7  -1  -5  141.79   25.80
   7  -1  -5  135.59   20.80
  -7  -1   5  136.49   22.00
   7  -1  -5  171.48   24.70
   7  -1  -5  115.69   17.30
   7   1  -5  154.38   24.40
  -7   1   5  183.48   28.30
  -7   1   5  138.89   26.20
   7   1  -5  169.98   20.90
  -7   1   5  130.79   24.00
   7   1  -5  187.18   23.90
  -7   1   5  162.08   24.30
   7   1  -5  156.78   25.40
   7   1  -5  185.38   28.60
  -6  -1   5 1447.06   59.79
   6  -1  -5 1534.35   51.79
  -6  -1   5 1482.35   55.19
  -6  -1   5 1485.75   59.89
   6  -1  -5 1450.35   54.09
  -6  -1   5 1492.05   55.89
   6  -1  -5 1350.56   54.69
   6  -1  -5 1468.65   48.10
   6  -1  -5 1466.55   59.29
   6   1  -5 1460.95   58.99
  -6   1   5 1430.76   54.69
  -6   1   5 1429.26   60.49
  -6   1   5 1438.56   58.79
   6   1  -5 1391.56   51.99
  -6   1   5 1490.85   56.99
   6   1  -5 1427.66   55.79
  -6   1   5 1487.65   56.99
   6   1  -5 1450.15   59.89
   6   1  -5 1505.65   50.99
  -5  -1   5   52.99   14.40
   5  -1  -5   24.90   15.00
   5  -1  -5   39.80   14.00
  -5  -1   5   56.59   14.70
  -5  -1   5   56.69   19.60
  -5  -1   5   50.19   17.00
   5  -1  -5   36.90   16.30
  -5  -1   5   46.80   15.80
   5  -1  -5   68.49   14.30
  -5  -1   5   37.50   12.60
   5  -1  -5   52.69   15.40
  -5   1   5   28.10   17.50
  -5   1   5   18.10   12.10
   5   1  -5   58.49   14.80
  -5   1   5   64.59   17.80
   5   1  -5   54.29   16.30
  -5   1   5   58.49   16.00
   5   1  -5   32.80   13.90
  -5   1   5   46.60   14.20
   5   1  -5   62.19   18.00
   5   1  -5   36.90   15.00
   5   1  -5   70.29   14.50
  -5   1   5   57.09   16.60
  -4  -1   5 1979.00   64.79
  -4  -1   5 2035.30   65.39
   4  -1  -5 1871.01   65.39
  -4  -1   5 1991.40   64.69
   4  -1  -5 2000.60   64.19
  -4  -1   5 2060.69   62.49
  -4  -1   5 2095.99   62.49
   4  -1  -5 2115.39   66.49
   4  -1  -5 2055.79   65.79
  -4  -1   5 1996.10   61.39
   4  -1  -5 2047.20   65.69
   4  -1  -5 2040.90   63.39
   4  -1  -5 2189.08   62.89
  -4  -1   5 2008.60   58.69
  -4  -1   5 2054.59   65.59
   4   1  -5 2046.80   64.39
  -4   1   5 2036.40   62.89
   4   1  -5 2074.09   61.19
  -4   1   5 2107.69   65.79
   4   1  -5 1928.01   62.59
   4   1  -5 2013.80   66.09
  -4   1   5 2015.70   63.39
   4   1  -5 2039.60   63.59
  -4   1   5 2032.70   63.89
   4   1  -5 1943.21   64.89
   4   1  -5 2073.99   64.49
  -4   1   5 1905.61   64.49
  -4   1   5 2042.00   61.89
  -4   1   5 2050.69   65.49
  -3  -1   5  119.19   13.80
   3  -1  -5  165.08   21.60
   3  -1  -5  118.39   15.70
   3  -1  -5  125.29   16.80
  -3  -1   5  162.78   18.00
   3  -1  -5  151.28   18.00
   3  -1  -5  151.18   17.20
   3  -1  -5  160.78   15.80
  -3  -1   5  131.69   15.30
  -3  -1   5  131.19   11.90
  -3  -1   5  165.58   18.00
  -3  -1   5  151.68   19.60
  -3  -1   5  148.99   15.60
   3  -1  -5  159.68   18.50
   3   1  -5  145.89   18.10
  -3   1   5  149.39   17.90
  -3   1   5  121.39   16.20
   3   1  -5  144.19   17.60
  -3   1   5  121.99   16.70
  -3   1   5  143.39   17.00
   3   1  -5  124.99   16.20
   3   1  -5  119.59   14.90
  -3   1   5  147.19   15.60
  -3   1   5  129.19   14.70
  -3   1   5  113.79   15.50
  -3   1   5  161.98   14.60
   3   1  -5  150.58   17.20
   3   1  -5  130.79   16.90
   3   1  -5  156.38   18.20
  -2  -1   5  723.13   30.20
   2  -1  -5  773.92   31.30
  -2  -1   5  828.42   31.50
   2  -1  -5  766.72   33.30
  -2  -1   5  813.82   30.70
   2  -1  -5  844.72   33.00
   2  -1  -5  818.82   32.20
   2  -1  -5  852.01   31.00
  -2  -1   5  813.12   30.70
   2  -1  -5  778.22   31.20
   2  -1  -5  751.02   32.20
  -2  -1   5  806.62   28.70
  -2  -1   5  774.32   30.60
  -2  -1   5  823.82   28.40
   2  -1  -5  824.32   26.60
  -2  -1   5  804.32   22.80
  -2   1   5  770.82   26.40
   2   1  -5  769.42   32.20
   2   1  -5  756.42   36.40
   2   1  -5  784.42   29.40
  -2   1   5  800.42   30.40
   2   1  -5  791.42   31.70
  -2   1   5  786.72   34.00
  -2   1   5  811.82   24.40
  -2   1   5  795.02   33.60
  -2   1   5  831.22   32.00
  -2   1   5  771.32   29.30
  -2   1   5  817.02   29.50
   2   1  -5  825.92   30.50
  -2   1   5  845.92   34.10
  -2   1   5  825.72   31.70
  -1  -1   5 3392.86   79.89
  -1  -1   5 3328.27   79.69
   1  -1  -5 3148.59   86.09
  -1  -1   5 3348.06   80.19
  -1  -1   5 3315.77   85.39
  -1  -1   5 3400.16   85.09
   1  -1  -5 3479.25   87.39
  -1  -1   5 3375.66   83.69
   1  -1  -5 3155.38   82.89
   1  -1  -5 3233.78   83.19
  -1  -1   5 3216.38   88.89
   1  -1  -5 3385.66   82.79
   1  -1  -5 3263.67   79.09
   1  -1  -5 3204.18   84.39
  -1  -1   5 3366.16   83.29
   1  -1  -5 3339.87   94.59
  -1   1   5 3241.78   88.69
  -1   1   5 3240.78   79.49
  -1   1   5 3313.77   84.09
   1   1  -5 3163.28   84.59
   1   1  -5 3364.56   84.29
  -1   1   5 3288.47   80.29
   1   1  -5 3209.18   85.19
  -1   1   5 3397.16   82.99
   1   1  -5 3177.98   82.19
  -1   1   5 3170.78   80.19
  -1   1   5 3167.18   83.59
   1   1  -5 3264.97   81.89
   1   1  -5 3095.79   79.59
  -1   1   5 3368.36   87.39
   0  -1   5  501.85   26.90
   0  -1  -5  478.45   24.90
   0  -1  -5  498.25   18.20
   0  -1   5  499.45   18.10
   0  -1  -5  466.95   19.40
   0  -1   5  477.15   22.10
   0  -1  -5  460.75   21.10
   0  -1  -5  488.85   20.30
   0  -1   5  488.05   17.60
   0  -1   5  498.15   23.70
   0  -1  -5  499.85   19.20
   0  -1  -5  479.15   18.50
   0  -1   5  510.25   21.50
   0   1  -5  469.65   18.50
   0   1   5  505.95   22.20
   0   1  -5  486.15   18.30
   0   1  -5  511.95   28.60
   0   1  -5  461.95   22.50
   0   1  -5  497.75   20.60
   0   1  -5  504.05   18.20
   0   1   5  484.45   26.00
   0   1   5  482.95   18.00
   0   1   5  515.05   19.10
   0   1  -5  469.75   18.90
  -1  -1  -5 2619.94   63.49
  -1  -1  -5 2545.75   65.39
  -1  -1  -5 2663.23   62.49
  -1  -1  -5 2637.64   65.29
  -1  -1  -5 2412.56   81.09
   1  -1   5 2714.53   68.39
  -1  -1  -5 2743.43   63.09
   1  -1   5 2601.64   70.29
   1  -1   5 2580.24   74.39
  -1  -1  -5 2502.65   70.99
  -1   1  -5 2600.84   63.49
  -1   1  -5 2637.84   66.69
  -1   1  -5 2637.54   64.39
   1   1   5 2626.74   66.19
   1   1   5 2572.84   75.09
  -1   1  -5 2493.05   69.79
  -1   1  -5 2556.34   63.59
  -1   1  -5 2617.04   61.99
  -1   1  -5 2647.44   61.89
   1   1   5 2706.43   59.89
   1   1   5 2630.74   60.09
  -2  -1  -5    7.10   10.60
  -2  -1  -5    7.40    3.90
  -2  -1  -5    3.80    3.50
  -2  -1  -5    2.00   10.00
   2  -1   5   16.30   10.10
   2  -1   5    4.10    8.00
   2  -1   5    7.30   12.00
   2  -1   5    9.40   10.90
  -2  -1  -5    5.20    5.20
  -2  -1  -5    5.50    4.70
  -2  -1  -5    4.30    4.10
  -2   1  -5   -1.60    7.00
   2   1   5    0.60    6.70
  -2   1  -5    4.90    7.50
  -2   1  -5   11.60    3.30
  -2   1  -5    3.00    2.80
   2   1   5   11.90   11.30
   2   1   5    0.90   11.40
  -2   1  -5   -5.70    6.80
   3  -1   5 2086.59   63.19
  -3  -1  -5 2047.80   47.50
   3  -1   5 2069.49   63.69
  -3  -1  -5 1979.20   53.39
  -3  -1  -5 2035.10   61.99
  -3  -1  -5 2027.70   47.60
  -3  -1  -5 1680.53   52.59
   3  -1   5 2072.59   54.69
   3  -1   5 1964.60   56.29
   3   1   5 2096.39   64.59
  -3   1  -5 2017.30   59.89
  -3   1  -5 1977.80   60.39
   3   1   5 2087.29   50.09
   3   1   5 1989.50   65.19
  -4  -1  -5  834.92   35.80
  -4  -1  -5  814.22   23.20
   4  -1   5  862.61   38.40
   4  -1   5  845.32   34.10
  -4  -1  -5  795.72   37.10
   4  -1   5  839.82   30.20
  -4  -1  -5  858.81   22.90
  -4  -1  -5  836.52   24.60
  -4  -1  -5  876.21   40.10
   4  -1   5  751.82   45.60
  -4   1  -5  861.31   39.70
  -4   1  -5  887.31   37.10
   4   1   5  829.52   45.20
  -5  -1  -5  544.45   20.90
  -5  -1  -5  563.34   22.20
  -5  -1  -5  598.54   38.40
  -5  -1  -5  539.85   19.70
  -5  -1  -5  568.14   18.50
   5  -1   5  602.74   38.80
  -5  -1  -5  568.44   24.20
  -5  -1  -5  593.94   29.10
   5  -1   5  546.45   33.30
   5  -1   5  510.75   30.50
  -5   1  -5  595.64   21.20
  -5   1  -5  602.64   35.00
  -5   1  -5  563.54   19.60
  -5   1  -5  538.15   38.80
   5   1   5  591.24   38.60
   5   1   5  536.75   35.90
  -5   1  -5  568.54   27.70
  -6  -1  -5 1209.18   37.70
  -6  -1  -5 1187.58   33.70
  -6  -1  -5 1159.88   56.99
  -6  -1  -5 1204.88   34.10
   6  -1   5 1290.27   52.29
   6  -1   5 1122.09   56.29
  -6  -1  -5 1272.67   46.80
  -6  -1  -5 1096.79   33.10
  -6  -1  -5 1131.39   34.30
  -6   1  -5 1209.28   54.29
  -6   1  -5 1259.57   37.00
  -6   1  -5 1130.09   57.39
   6   1   5 1195.88   54.99
  -6   1  -5 1179.18   37.80
   6   1   5 1224.08   59.89
  -7  -1  -5   -1.10   31.50
  -7  -1  -5    1.10    9.20
  -7  -1  -5   -5.70   26.90
   7  -1   5   20.30   19.80
   7  -1   5  -15.50   22.60
  -7  -1  -5    4.60   17.90
   7   1   5   28.60   22.60
  -7   1  -5   -2.80   15.70
  -7   1  -5   45.90   31.40
   7   1   5   18.50   19.80
  -7   1  -5   -4.10   23.20
   9  -2  -5   60.99   30.30
  -9  -2   5   51.49   21.30
   9  -2  -5   78.79   33.80
  -9  -2   5   59.39   28.90
  -9  -2   5   34.90   28.30
   9  -2  -5   42.00   23.50
  -9  -2   5   97.09   33.80
   9   2  -5   83.29   27.80
  -9   2   5   68.29   33.10
   9   2  -5   44.10   32.30
  -9   2   5   18.80   28.80
  -9   2   5   37.10   30.70
   9   2  -5   64.89   20.70
  -9   2   5  -37.80   29.90
   9   2  -5   10.80   21.10
   8  -2  -5  542.95   51.79
   8  -2  -5  535.45   38.60
  -8  -2   5  523.45   46.40
   8  -2  -5  528.85   43.00
   8  -2  -5  471.15   39.60
  -8  -2   5  461.95   54.49
  -8  -2   5  489.85   52.39
  -8  -2   5  509.15   46.80
   8   2  -5  518.95   34.30
   8   2  -5  520.85   50.39
   8   2  -5  520.85   43.50
  -8   2   5  528.05   54.59
  -8   2   5  445.36   49.70
   8   2  -5  515.65   37.40
  -8   2   5  594.54   52.19
  -8   2   5  518.65   47.00
   7  -2  -5   59.89   10.70
  -7  -2   5   48.00   21.40
   7  -2  -5   31.10   17.60
  -7  -2   5   32.00   16.60
   7  -2  -5   39.80   18.20
   7  -2  -5   93.59   19.50
   7  -2  -5   68.59   22.80
  -7  -2   5   39.70   19.30
  -7  -2   5   48.50   21.00
  -7   2   5   42.40   19.40
   7   2  -5   44.30   20.90
  -7   2   5   71.49   23.50
   7   2  -5   61.49   16.20
   7   2  -5   60.49   16.90
  -7   2   5   59.49   21.80
   7   2  -5   43.30   18.80
   7   2  -5   74.69   18.70
  -7   2   5   37.60   21.50
   6  -2  -5   -2.10   15.40
  -6  -2   5   23.70   14.80
   6  -2  -5    3.00   15.50
   6  -2  -5   -0.40   13.50
  -6  -2   5    9.50   16.40
   6  -2  -5   24.00   15.90
   6  -2  -5   23.30   11.20
  -6  -2   5    8.10   12.50
  -6  -2   5   42.70   17.30
  -6   2   5   22.50   16.40
  -6   2   5    5.70   14.30
   6   2  -5    6.10   13.40
   6   2  -5   13.90   14.10
   6   2  -5   16.50   12.80
   6   2  -5   10.90   15.50
   6   2  -5   38.70   18.50
  -6   2   5   -1.10   15.60
   6   2  -5   17.70   17.20
  -6   2   5   20.80   17.80
  -5  -2   5  101.89   18.90
  -5  -2   5   51.89   12.80
  -5  -2   5   68.79   16.80
  -5  -2   5   57.79   14.80
   5  -2  -5   43.50   15.10
  -5  -2   5   59.59   18.10
   5  -2  -5   30.60   17.00
  -5  -2   5   12.40   18.50
   5  -2  -5   52.39   15.00
   5  -2  -5   52.89   15.20
   5  -2  -5   43.70   16.60
   5   2  -5   47.40   14.80
  -5   2   5   28.10   18.40
  -5   2   5   33.20   16.50
   5   2  -5   72.39   17.70
   5   2  -5   67.09   14.50
  -5   2   5   65.19   16.70
   5   2  -5   51.29   14.10
  -5   2   5   78.49   15.70
   5   2  -5   43.80   15.90
  -5   2   5   21.80   15.90
  -5   2   5   36.80   16.30
   4  -2  -5 1483.45   46.00
  -4  -2   5 1477.35   53.49
   4  -2  -5 1442.66   54.49
   4  -2  -5 1480.85   53.19
  -4  -2   5 1624.74   53.29
   4  -2  -5 1365.26   56.19
  -4  -2   5 1527.75   54.69
   4  -2  -5 1555.44   51.79
  -4  -2   5 1588.44   51.89
  -4  -2   5 1482.25   52.39
  -4  -2   5 1492.95   49.99
  -4  -2   5 1464.25   52.49
  -4  -2   5 1559.54   47.90
   4  -2  -5 1524.65   50.49
   4  -2  -5 1598.14   55.39
   4  -2  -5 1434.96   51.89
   4  -2  -5 1540.55   56.99
  -4   2   5 1500.15   52.19
   4   2  -5 1469.85   53.29
   4   2  -5 1529.95   52.99
   4   2  -5 1547.25   50.49
  -4   2   5 1507.25   51.49
  -4   2   5 1579.74   55.89
   4   2  -5 1573.04   53.19
  -4   2   5 1522.75   55.99
  -4   2   5 1489.15   50.89
  -4   2   5 1600.64   54.99
   4   2  -5 1487.95   53.79
  -4   2   5 1595.74   52.29
   4   2  -5 1472.65   54.59
  -4   2   5 1554.34   53.09
   4   2  -5 1543.75   51.19
  -4   2   5 1507.35   54.99
   3  -2  -5   34.60   13.40
  -3  -2   5   39.30   11.90
  -3  -2   5   49.60   11.20
   3  -2  -5   40.80   11.90
  -3  -2   5   55.49   12.80
   3  -2  -5   43.50   11.90
  -3  -2   5   44.90   13.30
  -3  -2   5   31.10   11.30
  -3  -2   5   71.59    8.60
   3  -2  -5   56.49   15.00
   3  -2  -5   80.99   14.20
  -3  -2   5   54.69   14.20
   3  -2  -5   42.50   14.00
  -3  -2   5   49.00   13.40
   3  -2  -5   43.10   10.60
   3  -2  -5   66.89   15.50
  -3  -2   5   70.39   12.00
   3  -2  -5   38.70   12.20
  -3   2   5   70.39   14.80
  -3   2   5   42.30   13.30
  -3   2   5   48.20   13.60
  -3   2   5   32.50   12.10
   3   2  -5   39.00   10.00
   3   2  -5   60.09   13.00
  -3   2   5   87.79   13.80
   3   2  -5   47.80   11.70
   3   2  -5   49.30   13.20
   3   2  -5   50.59   13.50
  -3   2   5   43.80   13.60
  -3   2   5   42.20   11.70
  -3   2   5   23.70   10.90
   3   2  -5   59.39   12.40
   3   2  -5   47.70   12.90
   2  -2  -5 2950.20   78.99
  -2  -2   5 3097.19   77.59
  -2  -2   5 3063.79   81.49
  -2  -2   5 2932.41   77.89
  -2  -2   5 2790.12   83.49
   2  -2  -5 2847.02   83.19
   2  -2  -5 3073.19   82.89
   2  -2  -5 2834.32   79.39
  -2  -2   5 2977.70   80.59
   2  -2  -5 2987.10   82.99
  -2  -2   5 2966.90   77.89
   2  -2  -5 2847.42   82.59
   2  -2  -5 3084.29   77.89
  -2  -2   5 3009.00   80.99
   2  -2  -5 2783.32   83.69
  -2  -2   5 3047.79   80.69
  -2  -2   5 2951.20   70.29
   2  -2  -5 3107.59   83.79
   2   2  -5 2990.70   82.09
  -2   2   5 2747.43   85.49
  -2   2   5 2968.00   82.49
   2   2  -5 3074.39   78.29
   2   2  -5 2995.10   79.29
   2   2  -5 3018.90   82.29
  -2   2   5 3021.40   81.39
  -2   2   5 2965.90   77.59
  -2   2   5 3019.10   78.59
   2   2  -5 3093.29   78.29
  -2   2   5 3089.69   83.09
   2   2  -5 3007.60   78.69
  -2   2   5 3074.99   78.99
   2   2  -5 3030.40   81.89
   2   2  -5 3117.99   81.29
  -2   2   5 3075.19   82.49
   1  -2  -5   -3.70    6.70
  -1  -2   5    2.00    9.80
  -1  -2   5   15.30    7.00
   1  -2  -5   -3.10    8.00
  -1  -2   5    4.50    5.20
   1  -2  -5    8.00    6.30
  -1  -2   5    3.10    5.40
  -1  -2   5    2.60    7.30
  -1  -2   5   -0.60    8.30
  -1  -2   5    6.70    6.60
   1  -2  -5    5.40    9.60
   1  -2  -5    4.10    6.20
   1  -2  -5   12.30    7.80
   1  -2  -5    8.00    9.00
   1  -2  -5   -0.90    7.00
   1   2  -5   -1.40    8.10
  -1   2   5   22.40   10.60
   1   2  -5    2.70    9.00
  -1   2   5    5.30    9.40
  -1   2   5   17.00    6.60
   1   2  -5    6.60    6.50
  -1   2   5    6.30    6.20
  -1   2   5    4.20    7.70
   1   2  -5    1.00    6.50
   1   2  -5    2.70    6.70
  -1   2   5    5.20    6.20
  -1   2   5   -2.70    5.70
   1   2  -5    5.60    6.30
   1   2  -5    2.30    6.10
   0  -2  -5 3083.59   77.59
   0  -2   5 3035.80   85.39
   0  -2  -5 3264.97   81.29
   0  -2  -5 3003.50   79.09
   0  -2  -5 3045.10   84.59
   0  -2  -5 3310.17   79.19
   0  -2   5 3248.58   82.49
   0  -2  -5 3113.99   87.69
   0  -2   5 3031.80   83.69
   0  -2   5 3215.38   77.49
   0  -2   5 3113.09   77.49
   0  -2   5 3275.37   84.79
   0   2  -5 3124.39   79.89
   0   2  -5 3268.17   79.49
   0   2  -5 3146.99   79.99
   0   2   5 3271.17   84.49
   0   2   5 3227.88   77.09
   0   2  -5 3268.57   77.39
   0   2  -5 3085.29   77.49
   0   2   5 3232.38   79.79
   0   2   5 3095.39   87.39
   0   2   5 3025.80   78.59
   0   2   5 3129.59   73.99
   0   2  -5 3224.48   77.79
   0   2   5 3109.39   74.19
   1  -2   5   12.00    3.90
   1  -2   5    7.50    2.60
  -1  -2  -5   22.50    8.50
   1  -2   5    8.10    9.50
   1  -2   5   11.40   10.10
  -1  -2  -5   13.00    3.90
  -1  -2  -5    8.60   10.60
  -1  -2  -5   15.40    5.70
  -1  -2  -5    5.20    9.10
   1  -2   5   13.70   11.00
  -1  -2  -5    9.90    5.30
   1  -2   5   15.30   11.30
  -1  -2  -5   10.20    4.50
  -1  -2  -5   -0.40    5.80
  -1  -2  -5   20.00    6.30
  -1   2  -5   14.70    7.80
  -1   2  -5    2.80    9.10
   1   2   5   -5.80   10.80
  -1   2  -5   12.80    6.00
  -1   2  -5   16.40    4.60
   1   2   5   18.40   11.30
   1   2   5   17.60    4.60
   1   2   5   11.30    5.20
  -1   2  -5    8.00    4.80
  -1   2  -5    8.70    6.50
  -1   2  -5   12.50    5.10
   2  -2   5 2426.96   66.59
  -2  -2  -5 2551.54   61.99
   2  -2   5 2447.35   72.19
  -2  -2  -5 2455.75   73.49
   2  -2   5 2593.44   70.99
  -2  -2  -5 2540.05   61.09
   2  -2   5 2534.15   69.09
  -2  -2  -5 2379.96   60.39
  -2   2  -5 2530.25   58.59
  -2   2  -5 2428.26   58.29
  -2   2  -5 2414.66   68.99
   2   2   5 2468.05   75.89
   2   2   5 2498.15   60.89
   2   2   5 2526.55   71.39
  -2   2  -5 2442.56   59.59
  -2   2  -5 2472.95   66.09
  -2   2  -5 2524.45   69.39
  -3  -2  -5   12.60    4.90
  -3  -2  -5    3.50    5.20
  -3  -2  -5   -0.30    7.10
  -3  -2  -5   -1.20    5.80
   3  -2   5   21.90   12.10
  -3  -2  -5    9.90    5.00
   3  -2   5   26.90   11.90
   3  -2   5   -2.00   10.00
  -3  -2  -5    5.90    4.80
   3  -2   5   10.20   12.70
  -3  -2  -5   -2.80   11.40
  -3   2  -5    8.30    8.10
  -3   2  -5    4.50    3.80
  -3   2  -5    2.20    3.40
   3   2   5    8.20   14.00
   3   2   5   23.20   11.60
  -3   2  -5    5.50    3.50
  -3   2  -5   -7.90   10.60
  -4  -2  -5 1108.19   33.20
   4  -2   5 1138.19   42.20
  -4  -2  -5 1105.49   33.40
   4  -2   5 1040.30   42.60
  -4  -2  -5 1142.19   32.60
   4  -2   5 1108.19   46.70
  -4  -2  -5 1080.59   42.80
  -4  -2  -5 1145.19   33.30
  -4  -2  -5 1142.89   35.80
   4  -2   5 1042.80   54.19
  -4  -2  -5 1147.29   32.40
  -4   2  -5 1106.29   29.90
  -4   2  -5 1149.19   46.60
   4   2   5 1093.69   47.80
  -4   2  -5 1117.79   41.40
   4   2   5 1077.39   48.00
  -4   2  -5 1170.78   46.50
  -5  -2  -5   -6.10   15.70
  -5  -2  -5   -0.50   11.30
  -5  -2  -5   -0.40    6.80
  -5  -2  -5    8.40    7.50
   5  -2   5   -1.20   14.20
  -5  -2  -5   15.40    6.30
   5  -2   5   -2.30   14.10
   5  -2   5   28.40   17.20
  -5  -2  -5   20.10   12.30
  -5  -2  -5   -5.00   10.30
  -5  -2  -5   -1.20    6.80
   5   2   5   22.50   14.90
  -5   2  -5   10.90   13.10
  -5   2  -5   29.30   17.30
  -5   2  -5    8.60   10.60
  -5   2  -5    2.40    8.40
  -5   2  -5    1.60    7.30
  -5   2  -5    9.00   15.80
   5   2   5  -11.10   15.70
  -6  -2  -5  403.96   26.60
  -6  -2  -5  354.76   21.50
  -6  -2  -5  338.47   20.10
   6  -2   5  344.37   32.90
   6  -2   5  359.76   35.90
  -6  -2  -5  409.96   41.10
  -6   2  -5  396.76   35.10
  -6   2  -5  417.66   22.70
  -6   2  -5  401.76   40.80
  -6   2  -5  389.36   14.10
   6   2   5  331.07   35.90
  -6   2  -5  421.86   41.60
   6   2   5  422.66   38.00
  -6   2  -5  395.76   20.30
  -7  -2  -5   53.79   30.40
  -7  -2  -5   35.50   12.50
   7  -2   5   56.59   22.30
   7  -2   5    4.80   21.90
  -7   2  -5   74.99   35.40
  -7   2  -5   48.20   24.20
   7   2   5   65.89   23.10
  -7   2  -5   29.30   33.90
   7   2   5   40.30   24.10
   9  -3  -5  338.97   39.50
  -9  -3   5  294.47   41.60
  -9  -3   5  282.57   37.10
   9  -3  -5  317.27   43.60
  -9  -3   5  388.86   53.69
  -9  -3   5  422.16   36.90
  -9  -3   5  353.16   48.50
   9  -3  -5  400.06   45.20
  -9   3   5  296.17   43.90
  -9   3   5  315.37   44.20
   9   3  -5  354.56   38.30
   9   3  -5  246.78   36.30
  -9   3   5  407.66   48.60
  -9   3   5  347.27   40.50
   9   3  -5  398.26   46.60
  -8  -3   5  307.97   42.40
  -8  -3   5  222.48   35.10
   8  -3  -5  306.47   38.80
   8  -3  -5  295.87   35.20
   8  -3  -5  360.56   37.90
  -8  -3   5  348.87   32.00
  -8  -3   5  292.47   38.50
   8  -3  -5  309.37   32.40
  -8  -3   5  295.67   34.80
   8   3  -5  418.96   45.50
  -8   3   5  400.76   47.50
   8   3  -5  310.47   33.30
  -8   3   5  293.17   37.40
   8   3  -5  310.57   29.80
   8   3  -5  334.07   39.60
  -8   3   5  285.27   39.10
  -8   3   5  282.37   36.90
  -8   3   5  370.96   43.30
   7  -3  -5  206.38   24.60
   7  -3  -5  189.68   25.20
  -7  -3   5  176.08   26.20
   7  -3  -5  187.58   24.90
  -7  -3   5  244.68   26.30
   7  -3  -5  204.28   31.10
  -7  -3   5  134.09   27.00
  -7  -3   5  157.38   26.50
  -7  -3   5  190.98   26.40
  -7   3   5  190.18   31.80
   7   3  -5  188.88   20.80
  -7   3   5  152.68   28.60
  -7   3   5  179.28   27.40
  -7   3   5  192.98   26.80
   7   3  -5  122.29   22.20
  -7   3   5  216.58   25.20
   7   3  -5  157.28   27.00
   7   3  -5  203.28   25.70
   7   3  -5  198.88   27.50
   7   3  -5  187.38   28.00
  -6  -3   5  626.54   36.30
  -6  -3   5  674.13   43.30
  -6  -3   5  592.44   39.60
   6  -3  -5  672.63   42.30
  -6  -3   5  610.04   35.10
   6  -3  -5  620.84   35.30
   6  -3  -5  612.04   39.00
   6  -3  -5  577.34   39.00
  -6   3   5  711.33   41.80
   6   3  -5  656.43   34.50
   6   3  -5  624.84   40.20
   6   3  -5  593.64   36.20
   6   3  -5  697.83   34.10
   6   3  -5  649.04   40.60
   6   3  -5  621.54   39.00
  -6   3   5  635.04   42.30
  -6   3   5  702.83   35.50
  -6   3   5  623.24   37.10
  -6   3   5  596.34   40.70
   5  -3  -5   -8.10   13.50
  -5  -3   5    2.60   13.10
   5  -3  -5   11.10   14.40
  -5  -3   5   12.80   12.80
   5  -3  -5    1.90   14.40
   5  -3  -5   19.10   15.70
  -5  -3   5   14.90   12.90
   5  -3  -5    5.20   10.90
  -5  -3   5    2.10   13.40
   5   3  -5   10.30   12.50
  -5   3   5   50.39   16.10
   5   3  -5   -5.30   14.00
  -5   3   5   20.70   15.10
  -5   3   5    8.30   13.10
   5   3  -5    2.60   12.50
   5   3  -5   40.00   15.50
   5   3  -5   12.10   14.90
  -5   3   5   14.20   15.60
  -5   3   5   -5.30   13.30
   5   3  -5    5.80   11.90
   4  -3  -5 1075.09   42.20
  -4  -3   5 1113.79   42.30
  -4  -3   5 1109.29   45.10
   4  -3  -5 1059.19   39.20
   4  -3  -5 1055.79   46.70
  -4  -3   5 1179.98   45.70
   4  -3  -5 1187.08   45.20
  -4  -3   5 1055.99   44.30
  -4  -3   5 1066.39   43.00
   4  -3  -5 1124.59   47.30
   4  -3  -5 1021.20   44.30
   4  -3  -5 1101.29   46.10
   4  -3  -5 1093.49   44.00
   4  -3  -5 1100.49   42.20
  -4  -3   5 1093.59   42.20
  -4  -3   5  981.20   42.80
  -4  -3   5 1064.09   40.90
  -4   3   5 1106.99   45.30
  -4   3   5 1097.39   42.50
   4   3  -5 1010.30   45.00
  -4   3   5 1116.99   41.40
   4   3  -5 1075.79   42.90
   4   3  -5 1085.79   45.60
  -4   3   5 1071.49   46.20
  -4   3   5  996.90   46.10
   4   3  -5 1071.59   41.30
  -4   3   5 1086.19   42.00
  -4   3   5 1135.29   44.70
   4   3  -5 1078.89   37.50
  -4   3   5 1073.89   45.50
   4   3  -5 1091.39   43.10
   4   3  -5 1024.00   43.70
  -4   3   5 1070.39   42.90
   4   3  -5 1090.29   42.80
  -3  -3   5  921.31   34.90
   3  -3  -5  913.71   40.30
  -3  -3   5  949.31   35.00
   3  -3  -5  868.71   41.10
   3  -3  -5  905.01   40.10
   3  -3  -5  972.00   37.10
  -3  -3   5  841.02   36.30
   3  -3  -5  855.51   37.30
  -3  -3   5  898.91   36.10
  -3  -3   5  875.21   35.90
   3  -3  -5  929.61   36.90
  -3  -3   5  894.61   36.80
  -3  -3   5  899.71   35.80
   3  -3  -5  864.81   40.30
   3  -3  -5  864.71   36.80
   3   3  -5  867.01   37.50
  -3   3   5  905.91   39.20
  -3   3   5  854.51   36.10
   3   3  -5  937.01   36.20
  -3   3   5  925.21   35.60
  -3   3   5  934.71   40.10
  -3   3   5  843.12   38.50
   3   3  -5  896.61   38.90
  -3   3   5  922.11   36.00
  -3   3   5  945.61   36.20
   3   3  -5  905.01   38.00
  -3   3   5  910.11   37.10
   3   3  -5  951.20   34.30
   3   3  -5  879.81   36.50
  -2  -3   5 1330.97   41.00
   2  -3  -5 1362.46   46.60
   2  -3  -5 1375.56   48.60
   2  -3  -5 1383.96   43.80
  -2  -3   5 1400.66   49.20
  -2  -3   5 1332.97   43.90
   2  -3  -5 1315.27   45.30
  -2  -3   5 1386.66   45.80
   2  -3  -5 1367.86   47.90
  -2  -3   5 1335.57   45.00
  -2  -3   5 1344.57   44.80
   2  -3  -5 1354.66   44.20
  -2  -3   5 1342.27   42.00
   2  -3  -5 1294.67   47.70
   2  -3  -5 1393.96   49.10
  -2  -3   5 1382.86   41.80
  -2  -3   5 1374.26   45.10
   2   3  -5 1301.07   45.40
   2   3  -5 1251.07   45.70
   2   3  -5 1394.86   45.70
   2   3  -5 1356.76   47.10
  -2   3   5 1312.57   44.50
  -2   3   5 1332.17   42.60
  -2   3   5 1435.26   48.30
  -2   3   5 1323.97   47.40
  -2   3   5 1378.66   43.30
  -2   3   5 1331.07   36.70
   2   3  -5 1201.28   46.80
   2   3  -5 1425.46   45.60
  -2   3   5 1264.67   42.90
   2   3  -5 1408.96   41.20
  -2   3   5 1356.06   46.50
   1  -3  -5 2113.29   60.39
   1  -3  -5 2233.88   59.59
   1  -3  -5 2023.80   61.59
  -1  -3   5 2140.79   55.19
  -1  -3   5 2009.50   60.09
  -1  -3   5 2125.89   48.30
  -1  -3   5 2112.29   58.89
   1  -3  -5 2069.29   63.59
  -1  -3   5 2084.09   60.89
  -1  -3   5 2068.89   54.09
  -1  -3   5 2133.99   59.39
   1  -3  -5 2050.39   64.39
  -1  -3   5 2094.69   63.39
   1  -3  -5 2194.48   64.69
   1  -3  -5 2153.68   59.09
  -1  -3   5 2174.08   59.09
  -1   3   5 2040.60   48.30
   1   3  -5 2107.89   57.69
  -1   3   5 2106.89   60.69
  -1   3   5 2124.69   62.49
  -1   3   5 1981.70   59.79
  -1   3   5 2118.79   56.39
   1   3  -5 2162.48   53.99
   1   3  -5 1951.70   66.09
  -1   3   5 2150.68   60.09
  -1   3   5 2104.99   56.79
   1   3  -5 2101.09   60.29
   1   3  -5 2034.90   61.19
  -1   3   5 2041.50   63.39
   1   3  -5 2142.89   59.79
   1   3  -5 1924.51   61.59
  -1   3   5 2190.08   61.99
   0  -3   5  422.76   18.20
   0  -3   5  419.76   18.30
   0  -3  -5  397.16   21.90
   0  -3   5  408.06   13.20
   0  -3   5  399.06   13.10
   0  -3   5  444.06   25.00
   0  -3  -5  427.56   19.80
   0  -3  -5  400.46   16.10
   0  -3   5  403.36   25.30
   0  -3   5  406.86   21.30
   0  -3  -5  362.96   25.60
   0  -3  -5  420.46   21.50
   0  -3  -5  413.06   21.30
   0  -3  -5  374.56   19.90
   0  -3   5  390.96   22.80
   0   3  -5  413.46   17.90
   0   3  -5  414.46   19.70
   0   3  -5  454.15   23.60
   0   3   5  419.86   19.70
   0   3   5  421.96   26.60
   0   3  -5  347.87   26.30
   0   3   5  431.06   23.40
   0   3   5  400.66   20.80
   0   3   5  403.36   16.10
   0   3   5  414.36   16.80
   0   3   5  379.96   15.40
   0   3  -5  402.06   20.10
   0   3  -5  394.76   13.90
   1  -3   5 3155.58   73.59
  -1  -3  -5 3126.39   72.49
   1  -3   5 3069.59   73.19
  -1  -3  -5 3125.49   82.59
  -1  -3  -5 3037.10   71.29
  -1  -3  -5 2991.40   77.39
  -1  -3  -5 3196.98   79.59
  -1  -3  -5 3161.98   77.19
  -1  -3  -5 2917.21   79.09
   1  -3   5 3041.00   80.29
  -1  -3  -5 3004.20   87.19
   1  -3   5 3050.39   81.59
   1  -3   5 3080.09   85.19
   1  -3   5 3093.49   84.29
  -1  -3  -5 3064.99   82.59
  -1   3  -5 3010.10   71.39
  -1   3  -5 3111.99   76.99
  -1   3  -5 3147.19   75.89
   1   3   5 3097.49   77.59
  -1   3  -5 3013.10   74.69
  -1   3  -5 2965.70   82.99
  -1   3  -5 2972.40   77.59
  -1   3  -5 3041.80   82.19
   1   3   5 3164.58   82.59
   1   3   5 3046.80   88.29
   1   3   5 3049.09   76.59
  -1   3  -5 3012.30   75.29
   1   3   5 3113.29   81.59
  -2  -3  -5  239.68   15.80
   2  -3   5  262.37   21.70
  -2  -3  -5  252.47   15.00
  -2  -3  -5  232.68   14.70
  -2  -3  -5  260.27   15.20
  -2  -3  -5  247.18   22.60
   2  -3   5  238.98   21.40
   2  -3   5  215.08   18.90
   2  -3   5  297.47   22.30
  -2  -3  -5  234.98   15.10
  -2   3  -5  222.18   19.50
  -2   3  -5  247.58   12.40
  -2   3  -5  239.88   12.60
  -2   3  -5  232.48   13.60
   2   3   5  276.57   25.30
  -2   3  -5  250.37   13.10
  -2   3  -5  225.58   12.20
   2   3   5  254.27   12.80
   2   3   5  247.98   14.10
   2   3   5  234.58   22.40
  -2   3  -5  260.97   21.80
  -2   3  -5  246.58   17.10
   2   3   5  233.68   11.70
   3  -3   5 1651.43   51.59
  -3  -3  -5 1602.84   55.29
  -3  -3  -5 1588.84   46.00
   3  -3   5 1615.84   56.19
  -3  -3  -5 1655.93   46.20
  -3  -3  -5 1693.23   50.99
   3  -3   5 1666.13   54.09
  -3  -3  -5 1607.44   44.50
  -3  -3  -5 1605.74   47.10
   3  -3   5 1607.44   53.09
  -3  -3  -5 1662.03   45.40
  -3   3  -5 1636.14   43.10
  -3   3  -5 1620.14   55.79
  -3   3  -5 1654.53   42.20
   3   3   5 1580.64   56.29
  -3   3  -5 1639.94   43.00
  -3   3  -5 1578.04   52.89
  -3   3  -5 1679.33   42.80
  -3   3  -5 1631.94   46.00
   4  -3   5  478.35   32.90
  -4  -3  -5  492.25   19.70
  -4  -3  -5  467.85   22.90
  -4  -3  -5  486.95   17.10
  -4  -3  -5  466.55   32.50
  -4  -3  -5  481.85   22.20
   4  -3   5  462.05   29.30
  -4  -3  -5  508.45   30.60
   4  -3   5  500.35   27.80
  -4  -3  -5  501.55   16.10
  -4  -3  -5  482.25   20.20
   4  -3   5  491.05   29.10
  -4  -3  -5  466.85   22.30
  -4   3  -5  490.55   32.10
   4   3   5  495.55   33.60
  -4   3  -5  487.25   19.70
  -4   3  -5  492.55   18.40
  -4   3  -5  507.95   26.90
  -4   3  -5  498.75   18.80
   4   3   5  506.75   34.30
  -4   3  -5  494.85   33.00
  -4   3  -5  467.05   17.70
   5  -3   5  960.20   42.30
  -5  -3  -5 1022.60   34.20
   5  -3   5  967.30   42.90
   5  -3   5  847.02   47.40
  -5  -3  -5  841.82   36.40
  -5  -3  -5  919.61   33.10
  -5  -3  -5  966.60   49.50
  -5  -3  -5  962.50   41.40
  -5  -3  -5  988.30   31.60
  -5  -3  -5  959.50   34.50
  -5  -3  -5  982.00   28.90
  -5   3  -5  893.21   48.50
  -5   3  -5  959.10   28.30
   5   3   5  982.40   48.80
  -5   3  -5  968.90   31.60
  -5   3  -5  964.50   28.90
  -5   3  -5 1036.50   34.00
  -5   3  -5  956.80   38.30
  -5   3  -5  948.81   41.10
  -5   3  -5  974.20   48.30
   5   3   5 1012.90   50.29
  -6  -3  -5  555.44   31.80
  -6  -3  -5  540.05   27.10
   6  -3   5  482.05   37.60
  -6  -3  -5  575.04   47.10
  -6  -3  -5  562.14   27.20
   6  -3   5  528.75   36.00
   6  -3   5  564.84   44.00
  -6  -3  -5  565.54   32.00
  -6   3  -5  558.64   45.60
   6   3   5  544.95   43.40
  -6   3  -5  588.34   26.90
  -6   3  -5  557.54   44.30
  -6   3  -5  588.64   21.10
  -6   3  -5  557.54   24.50
   6   3   5  515.65   40.90
  -6   3  -5  544.85   21.40
  -6   3  -5  612.34   37.60
  -7  -3  -5   44.30   34.00
   7  -3   5   12.10   22.50
  -7  -3  -5   24.80   19.00
  -7  -3  -5   -9.70   16.50
  -7  -3  -5   16.40   13.70
   7  -3   5  -20.30   19.90
  -7   3  -5   -0.30   22.40
   7   3   5   51.49   23.20
  -7   3  -5   38.80   32.20
  -7   3  -5   97.99   37.80
   7   3   5    4.30   21.90
  -7   3  -5   32.50    9.10
   8  -4  -5   84.19   29.80
   8  -4  -5    6.70   23.60
  -8  -4   5  -32.20   30.00
  -8  -4   5   44.80   26.50
  -8  -4   5   31.10   26.20
  -8  -4   5   19.20   17.30
   8  -4  -5   40.70   20.90
  -8  -4   5   33.00   28.90
   8   4  -5   36.10   20.60
  -8   4   5    3.50   26.20
  -8   4   5   49.80   31.00
   8   4  -5   54.79   27.60
  -8   4   5   34.20   28.60
  -8   4   5  -22.50   27.10
   8   4  -5   23.00   17.70
   8   4  -5   45.70   31.90
  -7  -4   5 2106.79   75.89
   7  -4  -5 2099.39   72.09
   7  -4  -5 2072.89   60.79
   7  -4  -5 2017.80   75.59
   7  -4  -5 2056.79   73.99
  -7  -4   5 1945.81   79.79
  -7  -4   5 2083.39   81.49
   7  -4  -5 2103.29   82.49
  -7  -4   5 2032.00   69.29
   7   4  -5 2007.90   64.69
   7   4  -5 2125.99   71.29
  -7   4   5 2057.89   80.19
  -7   4   5 2179.58   77.99
  -7   4   5 2119.29   84.49
   7   4  -5 2131.69   83.09
   7   4  -5 2018.20   77.99
  -7   4   5 2082.39   81.29
   7   4  -5 1923.41   74.39
   6  -4  -5   -1.40   17.60
  -6  -4   5    1.40   14.90
  -6  -4   5   16.30   13.70
   6  -4  -5    4.10   16.30
   6  -4  -5   17.30   16.90
   6  -4  -5   28.80   13.00
  -6  -4   5   25.70   19.10
  -6  -4   5  -10.70   16.70
   6   4  -5   10.10   17.70
   6   4  -5    9.30   16.60
  -6   4   5    0.90   14.20
  -6   4   5    3.20   18.20
   6   4  -5   17.30   16.60
   6   4  -5  -55.69   19.90
   6   4  -5   21.60   18.60
  -6   4   5  -31.60   16.90
  -6   4   5   10.50   18.10
  -6   4   5   11.40   18.60
   6   4  -5    3.50   13.20
  -5  -4   5 3762.52  105.99
  -5  -4   5 3792.92  104.09
   5  -4  -5 3794.52  103.19
   5  -4  -5 3658.33  109.59
   5  -4  -5 3949.30  103.39
   5  -4  -5 3751.82  112.79
  -5  -4   5 3907.51  111.49
   5  -4  -5 3703.03  107.39
  -5  -4   5 3863.71  108.59
   5   4  -5 3886.31  101.49
  -5   4   5 3815.72  112.59
  -5   4   5 3668.73  108.69
   5   4  -5 3756.92  102.79
  -5   4   5 3942.31  101.59
   5   4  -5 3907.01  109.19
   5   4  -5 3740.33  109.49
  -5   4   5 3854.01  107.19
   5   4  -5 3755.42  112.09
  -5   4   5 3940.41  114.09
   5   4  -5 3736.43  105.99
  -4  -4   5   21.80   16.80
  -4  -4   5   -4.00   12.10
   4  -4  -5    5.20   13.90
  -4  -4   5   19.20   12.90
   4  -4  -5    9.80   14.10
   4  -4  -5   -4.40   16.90
  -4  -4   5   10.50   14.40
   4  -4  -5   21.50   15.70
  -4  -4   5   20.50   12.00
   4  -4  -5    7.90   14.90
   4  -4  -5   12.90   11.70
  -4  -4   5   38.90   12.90
   4   4  -5    7.20   13.00
  -4   4   5   17.50   14.10
  -4   4   5   22.30   17.90
   4   4  -5    8.00   10.90
   4   4  -5   12.30   13.80
   4   4  -5   30.10   13.90
  -4   4   5   -8.20   11.40
  -4   4   5   39.00   14.70
   4   4  -5   -0.80   15.00
  -4   4   5    0.00   14.80
  -4   4   5    1.60   14.00
  -4   4   5   23.40   13.70
   4   4  -5   11.80   12.30
   4   4  -5   22.20   13.80
   4   4  -5   27.10   14.40
  -3  -4   5 1859.51   61.49
   3  -4  -5 2050.29   63.39
  -3  -4   5 1899.91   62.59
  -3  -4   5 1919.21   63.39
  -3  -4   5 1993.10   59.59
   3  -4  -5 1986.30   65.29
   3  -4  -5 1954.30   65.59
  -3  -4   5 1997.60   60.59
   3  -4  -5 1818.42   60.29
   3  -4  -5 2044.20   67.29
   3  -4  -5 1931.91   65.59
  -3  -4   5 2086.59   60.99
   3  -4  -5 2070.39   62.69
  -3  -4   5 2038.90   63.69
  -3  -4   5 1982.20   60.99
   3  -4  -5 1952.40   63.39
   3   4  -5 1910.81   64.19
  -3   4   5 1902.51   59.89
  -3   4   5 1986.50   65.39
  -3   4   5 1824.82   60.19
   3   4  -5 1906.51   60.69
   3   4  -5 1929.41   60.79
  -3   4   5 2018.80   59.89
  -3   4   5 1948.80   56.49
  -3   4   5 1951.00   64.89
   3   4  -5 1957.70   63.89
   3   4  -5 2154.88   59.19
   3   4  -5 1922.11   62.79
   3   4  -5 1956.40   62.19
   3   4  -5 1921.51   62.99
  -3   4   5 2083.19   61.49
  -3   4   5 1937.71   63.09
  -2  -4   5  135.79   13.70
   2  -4  -5  182.28   23.90
   2  -4  -5  169.88   19.90
  -2  -4   5  162.88   20.70
   2  -4  -5  135.19   16.20
  -2  -4   5  149.88   12.20
  -2  -4   5  142.49   16.60
  -2  -4   5  131.09   18.80
   2  -4  -5   95.39   15.20
  -2  -4   5  138.09   16.60
   2  -4  -5  114.09   17.00
   2  -4  -5   95.99   14.80
  -2  -4   5  111.09   14.50
  -2  -4   5  157.28   16.90
  -2  -4   5  128.19   13.70
  -2  -4   5  104.19   13.30
   2  -4  -5  118.09   16.80
   2  -4  -5  115.49   16.10
   2   4  -5  127.59   16.80
  -2   4   5  140.39   16.00
  -2   4   5  134.39   11.30
  -2   4   5  130.49   17.10
   2   4  -5  168.88   19.50
  -2   4   5  156.98   17.70
  -2   4   5   97.39   13.70
   2   4  -5  140.79   16.20
  -2   4   5  152.58   18.70
   2   4  -5  123.09   16.10
  -2   4   5  134.29   15.00
   2   4  -5  139.19   13.30
   2   4  -5  178.48   19.80
  -2   4   5  124.69   16.60
   2   4  -5  148.09   18.80
  -2   4   5  134.39   17.30
  -1  -4   5   63.09   14.00
   1  -4  -5   45.20   11.80
   1  -4  -5   53.09   12.10
   1  -4  -5   29.40   12.80
  -1  -4   5   64.09   11.70
   1  -4  -5   87.19   13.00
  -1  -4   5   77.99    8.80
  -1  -4   5   73.79   14.70
   1  -4  -5   40.50   13.10
  -1  -4   5   84.89    8.50
   1  -4  -5   85.29   13.00
  -1  -4   5   71.49   13.60
   1  -4  -5   77.19   14.10
   1  -4  -5   72.09   15.00
  -1  -4   5   98.49   13.20
  -1  -4   5   71.69   11.30
   1   4  -5   85.09   13.30
  -1   4   5   60.89    9.40
   1   4  -5   55.49   12.70
  -1   4   5   75.69   11.90
   1   4  -5   77.19   11.30
   1   4  -5   66.99   12.70
  -1   4   5   69.09    7.80
  -1   4   5   79.99   14.30
  -1   4   5   95.49   15.70
  -1   4   5   69.69   11.10
  -1   4   5   71.59   13.80
   1   4  -5   59.89   13.10
   1   4  -5   74.99    8.20
  -1   4   5   74.89   11.50
   1   4  -5   75.39   12.30
   0  -4  -5   63.79   10.70
   0  -4  -5   73.39   12.20
   0  -4   5   93.39   10.80
   0  -4   5   95.79   13.40
   0  -4  -5   72.09   13.20
   0  -4   5   79.19    8.60
   0  -4  -5   76.99   14.80
   0  -4  -5   71.49   12.10
   0  -4   5   87.29   14.80
   0  -4  -5   75.89   12.30
   0  -4  -5   72.59   15.00
   0  -4   5   85.09   10.90
   0  -4   5   77.19    8.40
   0  -4   5   82.29    8.60
   0  -4   5   87.59   14.70
   0   4   5   79.49   10.70
   0   4   5   72.29   12.30
   0   4   5   95.59   15.70
   0   4  -5   75.69   13.20
   0   4  -5   60.39   10.80
   0   4  -5   80.79   10.50
   0   4   5  111.79   14.70
   0   4  -5   71.69    9.80
   0   4   5   79.09   10.30
   0   4   5   68.59    9.90
   0   4  -5   94.49   12.10
   0   4  -5   66.19   12.50
   0   4   5   76.59    8.20
   1  -4   5  355.26   24.30
  -1  -4  -5  352.26   19.60
   1  -4   5  312.97   23.80
   1  -4   5  331.87   22.70
  -1  -4  -5  365.46   20.80
  -1  -4  -5  307.87   20.80
   1  -4   5  373.56   16.60
  -1  -4  -5  332.27   14.20
  -1  -4  -5  372.06   24.20
   1  -4   5  324.77   23.40
  -1  -4  -5  366.86   26.70
  -1   4  -5  284.97   23.00
   1   4   5  340.47   13.10
   1   4   5  346.67   18.20
  -1   4  -5  320.27   17.20
  -1   4  -5  315.57   16.80
  -1   4  -5  362.96   18.50
   1   4   5  329.67   13.50
   1   4   5  302.67   21.70
  -1   4  -5  312.07   22.20
   1   4   5  346.67   27.10
   1   4   5  345.27   19.70
  -1   4  -5  304.47   18.70
  -1   4  -5  336.67   18.10
  -2  -4  -5   60.79   11.00
  -2  -4  -5   96.89   17.40
  -2  -4  -5   48.00    9.90
  -2  -4  -5   77.49   13.20
  -2  -4  -5   70.99   11.40
  -2  -4  -5   83.09   10.50
   2  -4   5   75.09   14.00
   2  -4   5   69.99    7.10
   2  -4   5   75.59   14.70
   2  -4   5   89.09   16.10
   2  -4   5   72.99   14.20
  -2  -4  -5   78.49   13.10
  -2  -4  -5   89.59   16.00
   2  -4   5   84.99    7.40
  -2   4  -5   72.19   14.00
  -2   4  -5   64.79    9.00
  -2   4  -5   63.59    8.70
   2   4   5   42.20   14.40
  -2   4  -5   60.59   14.10
  -2   4  -5   63.49    9.60
  -2   4  -5   87.79   16.40
  -2   4  -5   81.09    9.60
   2   4   5   86.89   10.90
   2   4   5   74.59   11.10
   2   4   5   49.00   15.00
  -3  -4  -5  227.38   24.60
  -3  -4  -5  264.07   19.60
  -3  -4  -5  261.37   16.80
  -3  -4  -5  263.47   16.70
  -3  -4  -5  275.57   18.40
   3  -4   5  282.27   22.90
  -3  -4  -5  269.97   18.70
   3  -4   5  299.07   24.60
  -3  -4  -5  314.87   22.70
   3  -4   5  244.78   21.50
   3  -4   5  271.27   27.40
  -3   4  -5  273.27   24.50
   3   4   5  277.17   14.10
   3   4   5  254.37   27.70
  -3   4  -5  249.48   15.60
  -3   4  -5  249.08   14.10
   3   4   5  251.37   25.60
  -3   4  -5  282.57   15.70
  -3   4  -5  276.47   15.90
   3   4   5  277.97   14.90
  -3   4  -5  240.18   26.10
  -3   4  -5  291.17   16.70
  -4  -4  -5  121.49   13.30
  -4  -4  -5  106.89   13.60
  -4  -4  -5  117.19   18.60
  -4  -4  -5  117.19   11.40
   4  -4   5   96.29   19.40
  -4  -4  -5   76.89   14.90
   4  -4   5   85.79   17.40
   4  -4   5  112.39   15.30
   4  -4   5  154.88   18.70
  -4  -4  -5  111.59   18.80
   4   4   5   96.59   19.70
  -4   4  -5  129.59   17.80
  -4   4  -5  132.69   15.10
   4   4   5   88.19   19.80
  -4   4  -5  134.39   13.90
  -4   4  -5  125.19   20.10
  -4   4  -5   76.09   20.80
  -4   4  -5  109.09   13.70
  -4   4  -5  118.29   12.30
  -4   4  -5  106.59   13.30
   5  -4   5  516.65   33.90
  -5  -4  -5  453.15   39.10
   5  -4   5  479.65   38.40
  -5  -4  -5  461.75   32.20
  -5  -4  -5  525.65   27.30
  -5  -4  -5  467.95   27.30
  -5  -4  -5  499.45   30.30
   5  -4   5  541.75   32.50
   5   4   5  465.95   38.70
  -5   4  -5  441.96   40.00
  -5   4  -5  490.25   24.90
  -5   4  -5  538.95   38.80
  -5   4  -5  491.65   30.20
   5   4   5  476.55   37.50
  -5   4  -5  511.25   22.10
  -5   4  -5  489.85   22.80
  -5   4  -5  450.95   27.50
  -5   4  -5  497.75   31.00
   6  -4   5   42.40   22.60
  -6  -4  -5   25.90   12.90
  -6  -4  -5    3.30   24.70
  -6  -4  -5   16.60   16.00
   6  -4   5   32.50   17.70
  -6  -4  -5   13.70   15.50
  -6   4  -5   18.10   13.10
  -6   4  -5  -22.10   15.20
  -6   4  -5   -0.70   15.60
   6   4   5   19.80   20.10
  -6   4  -5   36.30   10.50
   6   4   5   -0.60   20.00
  -6   4  -5   12.00   21.60
  -6   4  -5   32.00   10.00
  -6   4  -5   39.80   27.10
  -7  -4  -5  897.51   44.50
   7  -4   5  917.11   50.09
  -7  -4  -5  914.81   64.49
  -7  -4  -5  945.81   46.60
  -7  -4  -5  906.01   43.90
   7  -4   5  864.41   56.99
  -7   4  -5  985.90   66.89
   7   4   5  918.51   58.19
   7   4   5  840.92   57.09
  -7   4  -5  964.70   33.10
  -7   4  -5  787.12   95.29
  -7   4  -5  908.61   54.09
   8  -5  -5  586.94   57.69
   8  -5  -5  658.13   53.09
  -8  -5   5  725.13   41.40
  -8  -5   5  590.64   78.69
   8  -5  -5  725.93   47.90
  -8  -5   5  732.03   89.99
  -8   5   5  746.33   62.39
   8   5  -5  706.13   42.30
  -8   5   5  716.53   91.59
   8   5  -5  689.53   54.29
   8   5  -5  722.63   58.89
   8   5  -5  719.93   44.90
   7  -5  -5   47.10   22.60
  -7  -5   5   71.79   26.20
   7  -5  -5   66.79   23.70
  -7  -5   5   35.20   16.80
   7  -5  -5   34.70   18.50
  -7  -5   5   72.89   27.30
   7  -5  -5   29.00   14.60
   7  -5  -5   41.40   25.90
  -7  -5   5   13.70   20.60
  -7   5   5   19.60   24.80
   7   5  -5   33.40   24.80
   7   5  -5   71.39   20.10
  -7   5   5   24.90   27.20
  -7   5   5   10.30   23.30
  -7   5   5   29.30   23.60
   7   5  -5   13.10   20.10
   7   5  -5   58.69   23.80
   7   5  -5   23.60   16.90
  -6  -5   5 1432.76   62.79
  -6  -5   5 1383.46   56.29
   6  -5  -5 1368.96   61.29
  -6  -5   5 1491.05   62.09
   6  -5  -5 1424.16   51.29
   6  -5  -5 1393.66   55.69
  -6  -5   5 1495.65   54.99
   6  -5  -5 1299.97   56.69
   6  -5  -5 1515.35   65.09
   6   5  -5 1423.36   59.69
  -6   5   5 1382.06   63.29
   6   5  -5 1393.06   53.59
  -6   5   5 1440.36   63.69
  -6   5   5 1419.66   58.99
   6   5  -5 1384.96   50.49
   6   5  -5 1407.76   60.69
   6   5  -5 1455.45   63.79
  -5  -5   5   45.00   16.10
   5  -5  -5   15.10   16.30
   5  -5  -5   41.10   13.60
  -5  -5   5   19.40   16.10
   5  -5  -5   33.00   17.20
  -5  -5   5   45.00   19.00
  -5  -5   5   15.90   15.20
   5  -5  -5   21.90   17.90
   5   5  -5   18.50   15.60
  -5   5   5   54.89   20.20
   5   5  -5   39.30   18.00
   5   5  -5   47.90   18.50
  -5   5   5   37.00   15.40
  -5   5   5   18.00   15.60
   5   5  -5   33.50   13.00
  -5   5   5   60.49   18.20
  -5   5   5   18.30   17.30
   5   5  -5   48.10   15.60
  -4  -5   5 1824.92   60.89
  -4  -5   5 1942.91   61.39
   4  -5  -5 1880.71   62.39
  -4  -5   5 1925.21   66.69
   4  -5  -5 1882.21   63.59
   4  -5  -5 1870.61   67.89
   4  -5  -5 1912.91   68.59
  -4  -5   5 1852.61   61.59
   4   5  -5 1825.02   64.29
  -4   5   5 1853.51   62.79
  -4   5   5 1848.52   65.89
  -4   5   5 1841.82   66.89
  -4   5   5 1970.10   58.89
   4   5  -5 1805.42   59.29
  -4   5   5 1863.21   59.49
   4   5  -5 1886.81   58.69
   4   5  -5 1829.22   62.89
   4   5  -5 1899.91   66.39
   3  -5  -5  149.99   20.30
  -3  -5   5  119.49   16.90
  -3  -5   5  125.39   20.40
   3  -5  -5  115.99   18.50
   3  -5  -5  133.49   18.30
   3  -5  -5  137.09   20.90
  -3  -5   5  181.28   19.00
  -3  -5   5  158.88   23.10
  -3  -5   5  117.79   18.20
  -3  -5   5  203.78   23.20
  -3  -5   5  121.79   19.00
   3  -5  -5  102.59   20.70
   3  -5  -5  141.79   20.50
  -3  -5   5  119.29   16.60
  -3   5   5  141.79   17.80
   3   5  -5  140.29   19.30
  -3   5   5  130.29   19.20
  -3   5   5  146.99   34.20
   3   5  -5  125.99   19.20
   3   5  -5  132.19   19.20
  -3   5   5  128.09   20.30
  -3   5   5  101.09   15.80
   3   5  -5  174.18   22.00
  -3   5   5  169.98   21.80
   3   5  -5  124.79   17.30
   3   5  -5   82.69   17.80
  -3   5   5  139.19   17.30
  -3   5   5  122.79   16.80
  -2  -5   5 2118.09   62.19
  -2  -5   5 2208.78   58.69
   2  -5  -5 2151.88   70.09
   2  -5  -5 2050.29   64.69
  -2  -5   5 2185.78   58.79
   2  -5  -5 2078.79   68.49
  -2  -5   5 2131.59   65.89
  -2  -5   5 2041.40   66.09
  -2  -5   5 2177.48   66.59
   2  -5  -5 2122.99   69.49
   2  -5  -5 2117.99   65.59
   2  -5  -5 2058.19   68.29
  -2  -5   5 2212.78   65.79
  -2  -5   5 2193.58   70.39
   2  -5  -5 2280.27   70.39
   2  -5  -5 2222.78   67.59
  -2  -5   5 2270.07   63.59
  -2  -5   5 2159.28   67.79
   2   5  -5 2092.79   67.59
  -2   5   5 2149.98   67.79
  -2   5   5 2007.50   67.49
  -2   5   5 2244.28   58.59
   2   5  -5 2074.09   66.59
   2   5  -5 2203.98   67.89
  -2   5   5 2156.58   60.99
   2   5  -5 2119.49   67.59
   2   5  -5 2012.10   67.89
  -2   5   5 2198.08   64.89
   2   5  -5 2151.48   64.39
  -2   5   5 2058.49   67.29
  -2   5   5 2137.19   63.99
   2   5  -5 2039.90   63.89
  -2   5   5 2142.59   68.39
  -2   5   5 2255.37   67.09
  -1  -5   5 1236.18   45.70
  -1  -5   5 1266.97   38.90
  -1  -5   5 1203.88   38.50
   1  -5  -5 1247.98   45.80
   1  -5  -5 1137.19   46.80
   1  -5  -5 1212.48   44.50
   1  -5  -5 1138.79   42.80
   1  -5  -5 1214.48   46.80
   1  -5  -5 1172.68   44.90
   1  -5  -5 1103.39   46.20
  -1  -5   5 1208.08   42.80
  -1  -5   5 1202.98   35.50
  -1  -5   5 1192.08   31.70
  -1  -5   5 1166.28   43.30
  -1  -5   5 1176.68   47.00
   1  -5  -5 1147.09   41.60
  -1  -5   5 1190.58   42.00
   1   5  -5 1113.59   42.70
  -1   5   5 1207.18   44.70
  -1   5   5 1219.78   46.00
  -1   5   5 1135.89   43.40
   1   5  -5 1202.18   45.60
  -1   5   5 1179.38   34.60
  -1   5   5 1200.58   36.40
   1   5  -5 1159.98   40.90
   1   5  -5 1156.58   41.50
  -1   5   5 1139.29   45.40
   1   5  -5 1170.98   44.20
  -1   5   5 1178.38   40.80
  -1   5   5 1174.68   41.00
   1   5  -5 1228.88   43.60
   0  -5  -5  200.38   12.20
   0  -5   5  192.08   16.00
   0  -5   5  205.88   17.60
   0  -5   5  168.38   13.10
   0  -5  -5  198.68   23.10
   0  -5   5  208.88   23.60
   0  -5   5  222.68   13.80
   0  -5  -5  185.88   21.40
   0  -5   5  213.08   22.30
   0  -5   5  184.28   21.10
   0  -5  -5  233.18   19.20
   0  -5  -5  207.98   20.40
   0  -5  -5  197.98   20.70
   0  -5   5  197.28   14.80
   0  -5  -5  195.98   21.90
   0  -5  -5  185.78   22.60
   0   5  -5  184.28   21.10
   0   5  -5  193.58   21.70
   0   5   5  215.88   20.60
   0   5   5  165.18   22.40
   0   5   5  187.28   16.90
   0   5   5  204.58   18.00
   0   5  -5  180.58   18.20
   0   5  -5  189.48   22.50
   0   5   5  178.78   10.40
   0   5   5  195.38   12.50
   0   5  -5  171.38   17.70
   0   5   5  193.28   20.90
   0   5   5  179.78   17.40
  -1  -5  -5 1402.46   39.60
   1  -5   5 1378.76   50.89
   1  -5   5 1378.66   42.30
   1  -5   5 1382.36   47.70
  -1  -5  -5 1349.77   45.10
   1  -5   5 1315.87   46.70
  -1  -5  -5 1297.97   49.80
  -1  -5  -5 1349.27   52.59
   1  -5   5 1417.46   50.69
   1  -5   5 1420.46   41.60
  -1  -5  -5 1383.76   45.90
   1  -5   5 1367.46   41.20
  -1  -5  -5 1420.46   47.80
  -1  -5  -5 1356.06   46.30
   1   5   5 1314.17   39.70
  -1   5  -5 1448.66   45.10
   1   5   5 1437.46   53.19
  -1   5  -5 1447.26   43.40
  -1   5  -5 1377.66   50.69
   1   5   5 1375.56   46.30
  -1   5  -5 1286.57   44.10
   1   5   5 1345.37   45.00
   1   5   5 1391.26   39.80
  -1   5  -5 1360.36   49.30
  -1   5  -5 1346.77   41.80
   1   5   5 1341.97   44.40
  -2  -5  -5  167.68   16.50
   2  -5   5  160.98   19.70
   2  -5   5  184.08   22.60
  -2  -5  -5  163.78   18.10
  -2  -5  -5  157.98   17.80
  -2  -5  -5  156.38   16.40
   2  -5   5  145.39   13.90
   2  -5   5  139.29   11.70
   2  -5   5  128.59   16.40
  -2  -5  -5  145.59   21.00
  -2  -5  -5  171.38   18.60
   2  -5   5  146.29   19.10
  -2  -5  -5  152.48   20.40
   2   5   5  123.09   14.70
  -2   5  -5  124.49   18.40
   2   5   5  145.19   20.30
   2   5   5  145.79   16.00
  -2   5  -5  133.59   15.40
  -2   5  -5  128.59   19.30
   2   5   5  166.08   18.30
  -2   5  -5  150.98   16.70
  -2   5  -5  174.78   14.50
  -2   5  -5  144.29   17.10
  -2   5  -5  140.89   15.80
  -2   5  -5  134.39   17.40
   2   5   5  158.48   19.90
   3  -5   5  429.36   27.10
  -3  -5  -5  353.36   19.40
   3  -5   5  390.06   26.60
  -3  -5  -5  354.06   23.60
  -3  -5  -5  305.37   33.20
  -3  -5  -5  354.36   29.70
  -3  -5  -5  377.86   26.70
  -3  -5  -5  402.16   26.80
  -3  -5  -5  396.46   24.10
   3  -5   5  365.46   32.10
  -3   5  -5  379.96   21.50
  -3   5  -5  385.86   21.50
   3   5   5  378.06   30.00
  -3   5  -5  394.76   20.50
  -3   5  -5  335.87   30.50
   3   5   5  351.36   22.40
  -3   5  -5  369.46   31.30
   3   5   5  382.56   32.20
  -3   5  -5  368.56   28.10
  -3   5  -5  396.76   22.80
  -4  -5  -5  721.93   33.00
  -4  -5  -5  734.33   41.40
  -4  -5  -5  752.82   33.40
   4  -5   5  802.82   43.60
   4  -5   5  746.73   39.30
  -4  -5  -5  702.43   40.20
   4  -5   5  742.83   35.60
  -4  -5  -5  761.72   32.50
   4  -5   5  745.03   35.80
   4   5   5  789.62   47.10
  -4   5  -5  718.43   38.70
  -4   5  -5  754.62   45.30
  -4   5  -5  768.22   31.00
  -4   5  -5  715.03   32.40
  -4   5  -5  758.92   25.30
   4   5   5  777.12   27.30
  -4   5  -5  774.72   30.40
  -4   5  -5  847.02   41.80
  -4   5  -5  751.42   30.40
   4   5   5  758.62   28.10
   4   5   5  754.52   42.60
   5  -5   5  374.86   31.70
  -5  -5  -5  318.27   28.10
  -5  -5  -5  353.76   34.20
  -5  -5  -5  314.37   27.40
   5  -5   5  382.96   36.40
  -5  -5  -5  318.57   27.70
  -5   5  -5  313.27   30.10
  -5   5  -5  310.67   35.20
   5   5   5  375.96   36.20
  -5   5  -5  344.07   31.10
  -5   5  -5  317.17   36.40
   5   5   5  324.87   37.20
  -5   5  -5  368.26   25.00
  -5   5  -5  346.97   22.40
  -5   5  -5  324.47   39.50
  -6  -5  -5 1073.09   46.80
  -6  -5  -5 1022.50   45.70
  -6  -5  -5 1053.39   49.20
  -6  -5  -5 1070.59   64.49
   6  -5   5 1000.30   59.69
   6  -5   5  983.00   50.59
   6   5   5  978.80   57.59
  -6   5  -5 1023.40   44.80
  -6   5  -5  982.80   65.49
  -6   5  -5 1023.80   38.00
   6   5   5 1071.09   62.19
  -6   5  -5 1087.79   45.60
  -6   5  -5 1068.39   59.99
   7  -5   5   10.10   20.90
  -7  -5  -5    7.70   22.60
   7  -5   5   38.20   27.90
  -7  -5  -5    5.50   31.70
  -7  -5  -5  -19.10   19.80
  -7   5  -5   -5.60   31.60
  -7   5  -5   15.60   14.50
  -7   5  -5   33.60   24.80
   7   5   5   49.30   23.50
   7   5   5  -15.70   22.40
  -7   5  -5    2.30   37.50
   8  -6  -5  423.86   46.10
  -8  -6   5  485.65   50.29
   8  -6  -5  331.47   41.70
  -8  -6   5  423.96   36.50
  -8  -6   5  420.46   52.39
   8  -6  -5  529.35   52.39
  -8  -6   5  504.65   56.79
  -8   6   5  368.46   46.80
   8   6  -5  495.85   40.30
   8   6  -5  427.16   48.10
  -8   6   5  459.75   54.69
   8   6  -5  212.58   59.49
  -8   6   5  398.86   49.99
   8   6  -5  528.95   59.99
  -8   6   5  456.25   56.99
  -7  -6   5  112.09   21.00
  -7  -6   5   96.59   33.10
   7  -6  -5   97.99   26.80
   7  -6  -5  112.29   30.00
  -7  -6   5   84.39   27.70
  -7  -6   5   86.99   25.20
   7  -6  -5  105.59   19.10
  -7   6   5  112.99   31.60
  -7   6   5  113.39   32.80
   7   6  -5  100.89   28.60
   7   6  -5  106.39   19.40
   7   6  -5   90.89   29.50
  -7   6   5  119.79   31.10
   7   6  -5  117.19   27.60
  -7   6   5  138.09   30.40
  -7   6   5   56.29   31.50
   7   6  -5  110.39   21.50
  -6  -6   5   12.40   20.20
  -6  -6   5    4.70   15.50
  -6  -6   5   39.30   20.50
   6  -6  -5   34.10   23.30
   6  -6  -5  -13.90   17.70
  -6  -6   5    5.30   19.20
   6  -6  -5   13.80   13.10
   6  -6  -5   16.00   22.30
  -6   6   5   27.20   23.00
  -6   6   5   46.60   20.60
   6   6  -5   22.50   14.80
   6   6  -5   22.20   15.90
   6   6  -5   -2.30   19.30
   6   6  -5   29.50   19.30
  -6   6   5   -4.30   19.30
  -6   6   5   12.10   21.50
   6   6  -5  -15.80   18.10
  -5  -6   5  444.56   30.50
   5  -6  -5  351.36   34.10
   5  -6  -5  377.46   30.30
   5  -6  -5  396.36   38.20
  -5  -6   5  380.26   32.60
  -5  -6   5  447.86   37.50
   5  -6  -5  411.96   39.00
  -5  -6   5  383.36   33.20
   5   6  -5  414.46   35.30
  -5   6   5  384.36   38.70
  -5   6   5  376.36   32.10
   5   6  -5  369.66   28.10
  -5   6   5  361.66   33.90
  -5   6   5  447.96   38.90
   5   6  -5  370.36   35.30
   5   6  -5  384.36   34.80
   5   6  -5  436.36   38.10
   4  -6  -5  618.14   36.10
  -4  -6   5  513.35   33.70
   4  -6  -5  547.05   39.20
  -4  -6   5  582.34   32.80
  -4  -6   5  578.44   33.10
   4  -6  -5  574.14   38.30
   4  -6  -5  634.34   35.90
  -4  -6   5  608.44   37.40
   4   6  -5  576.14   35.40
  -4   6   5  599.94   39.80
  -4   6   5  616.44   36.30
   4   6  -5  649.64   39.10
   4   6  -5  634.14   32.90
   4   6  -5  614.54   39.30
  -4   6   5  651.63   33.00
  -4   6   5  601.04   32.00
  -4   6   5  593.34   39.20
  -3  -6   5  253.17   23.70
  -3  -6   5  261.37   21.60
  -3  -6   5  264.37   26.70
   3  -6  -5  270.47   29.90
  -3  -6   5  214.38   22.80
   3  -6  -5  265.87   25.10
  -3  -6   5  232.08   23.80
   3  -6  -5  233.58   27.20
  -3  -6   5  267.37   29.40
  -3  -6   5  239.68   28.80
   3  -6  -5  232.68   27.60
  -3   6   5  228.28   24.80
  -3   6   5  230.58   27.80
   3   6  -5  231.28   28.60
  -3   6   5  213.18   25.40
  -3   6   5  258.37   22.30
   3   6  -5  261.97   27.30
  -3   6   5  284.47   27.60
   3   6  -5  252.37   25.60
   3   6  -5  221.88   26.70
   3   6  -5  293.87   31.70
  -3   6   5  251.17   26.10
  -2  -6   5 2375.86   71.79
   2  -6  -5 2262.77   75.49
  -2  -6   5 2375.66   62.19
   2  -6  -5 2323.07   72.29
  -2  -6   5 2327.27   68.79
  -2  -6   5 2311.97   76.29
   2  -6  -5 2287.97   75.29
  -2  -6   5 2372.66   65.19
  -2  -6   5 2206.68   66.99
   2  -6  -5 2353.66   76.69
  -2  -6   5 2255.27   69.49
   2  -6  -5 2246.28   74.59
   2  -6  -5 2302.37   75.89
   2   6  -5 2490.65   74.49
  -2   6   5 2325.27   69.89
  -2   6   5 2272.97   73.79
  -2   6   5 2422.06   66.99
   2   6  -5 2319.77   74.69
  -2   6   5 2245.48   69.59
  -2   6   5 2182.08   69.39
  -2   6   5 2276.97   73.89
   2   6  -5 2248.38   69.79
   2   6  -5 2298.57   72.69
  -2   6   5 2309.47   70.29
   2   6  -5 2358.36   74.29
  -1  -6   5    9.80    9.10
   1  -6  -5   31.10   13.30
  -1  -6   5   16.50   11.10
  -1  -6   5   -6.30   15.80
   1  -6  -5   15.00   13.80
  -1  -6   5   12.30   10.60
   1  -6  -5   -0.60   11.80
   1  -6  -5    6.20   15.90
  -1  -6   5    9.30    4.40
  -1  -6   5   18.50    9.60
   1  -6  -5    0.10   11.00
   1  -6  -5   27.00   14.80
  -1   6   5  -10.10   16.50
  -1   6   5    5.90   13.50
  -1   6   5    0.40    6.70
   1   6  -5    7.40   10.80
   1   6  -5   11.80   12.10
  -1   6   5    5.00   12.20
  -1   6   5   43.00   13.60
  -1   6   5    9.80   12.40
   1   6  -5   29.50   13.60
   1   6  -5    0.90   11.10
  -1   6   5    7.50    8.30
  -1   6   5    6.40   10.40
   1   6  -5   -0.80   12.90
   0  -6  -5 2509.45   75.99
   0  -6   5 2596.84   67.59
   0  -6  -5 2460.25   69.09
   0  -6  -5 2547.15   65.29
   0  -6   5 2611.74   79.29
   0  -6  -5 2438.96   77.19
   0  -6   5 2377.76   70.39
   0  -6  -5 2486.75   75.49
   0  -6   5 2502.95   74.29
   0  -6   5 2422.76   65.29
   0  -6   5 2370.66   76.09
   0  -6  -5 2423.56   72.39
   0  -6  -5 2395.96   78.89
   0  -6  -5 2456.75   74.79
   0   6  -5 2451.45   71.09
   0   6   5 2565.64   69.79
   0   6   5 2531.45   77.89
   0   6  -5 2381.46   76.39
   0   6   5 2451.05   65.79
   0   6   5 2450.55   82.39
   0   6  -5 2529.35   73.39
   0   6   5 2475.45   68.79
   0   6  -5 2609.64   73.69
   0   6  -5 2464.05   71.59
   0   6  -5 2482.35   75.69
   0   6   5 2466.15   74.29
   0   6   5 2449.55   60.39
  -1  -6  -5   50.59   10.20
   1  -6   5   20.50   15.10
   1  -6   5   44.20    6.70
  -1  -6  -5   21.90   15.00
  -1  -6  -5   64.09   15.10
   1  -6   5   32.70   11.00
  -1  -6  -5   49.10   13.80
   1  -6   5   33.60    5.90
   1  -6   5   46.90   15.10
  -1  -6  -5   41.50   13.20
   1  -6   5   30.00   12.50
  -1  -6  -5   29.10   11.50
   1  -6   5   52.29   10.10
   1  -6   5   43.10   15.00
  -1   6  -5   49.40   13.50
  -1   6  -5   18.40   11.40
   1   6   5   50.99   12.40
  -1   6  -5   30.90   13.30
  -1   6  -5   24.00   11.30
   1   6   5   57.69   15.40
  -1   6  -5   24.60   14.50
   1   6   5   28.20   17.80
   1   6   5   51.79   11.20
   1   6   5   31.30   10.10
  -1   6  -5   43.10   11.30
   2  -6   5 1699.93   61.49
   2  -6   5 1760.02   58.89
   2  -6   5 1767.52   54.99
  -2  -6  -5 1735.03   57.09
   2  -6   5 1647.74   55.99
  -2  -6  -5 1699.53   63.49
  -2  -6  -5 1667.83   54.79
  -2  -6  -5 1784.42   54.49
  -2  -6  -5 1767.32   53.19
  -2   6  -5 1718.83   53.89
  -2   6  -5 1744.63   54.69
   2   6   5 1745.13   54.29
  -2   6  -5 1710.13   56.99
  -2   6  -5 1766.62   55.09
   2   6   5 1708.53   45.90
  -2   6  -5 1737.13   62.79
  -2   6  -5 1670.13   59.99
   2   6   5 1762.82   54.89
  -2   6  -5 1735.73   55.79
   2   6   5 1618.24   64.19
   3  -6   5   81.89   19.20
   3  -6   5   89.09   17.00
   3  -6   5   79.99    9.50
   3  -6   5   83.49   17.70
  -3  -6  -5   78.19   17.70
   3  -6   5   86.79   11.40
  -3  -6  -5   85.89   19.40
  -3  -6  -5   60.99   14.00
  -3  -6  -5  106.19   17.50
  -3  -6  -5  109.79   15.80
   3  -6   5   89.19   18.40
  -3  -6  -5  100.19   18.00
   3   6   5   93.39   21.30
  -3   6  -5   77.99   20.30
  -3   6  -5   58.89   23.50
  -3   6  -5   78.59   16.70
  -3   6  -5   93.09   15.10
   3   6   5   73.39   13.70
   3   6   5   79.29   20.00
  -3   6  -5   74.59   13.70
  -4  -6  -5  619.34   41.70
   4  -6   5  625.24   35.90
  -4  -6  -5  650.03   33.40
  -4  -6  -5  651.03   34.20
   4  -6   5  602.14   40.40
  -4  -6  -5  608.04   42.20
   4  -6   5  685.33   39.30
  -4   6  -5  631.14   30.80
   4   6   5  559.04   43.30
  -4   6  -5  674.53   32.60
  -4   6  -5  609.94   31.30
  -4   6  -5  635.14   40.00
   4   6   5  669.13   29.80
  -4   6  -5  631.94   42.50
  -4   6  -5  667.03   44.30
   4   6   5  637.74   40.70
  -5  -6  -5  219.58   28.70
   5  -6   5  189.38   26.40
   5  -6   5  233.88   32.60
  -5  -6  -5  211.78   27.40
  -5  -6  -5  239.68   24.10
  -5   6  -5  220.38   21.70
   5   6   5  228.38   33.10
  -5   6  -5  221.78   26.30
  -5   6  -5  187.58   33.70
  -5   6  -5  197.08   21.80
  -5   6  -5  179.58   28.40
   5   6   5  259.77   34.30
  -6  -6  -5  159.28   39.80
   6  -6   5  245.88   37.00
  -6  -6  -5  201.78   27.80
   6  -6   5  225.88   29.10
  -6  -6  -5  204.08   25.10
  -6  -6  -5  217.28   27.40
  -6   6  -5  212.78   24.90
  -6   6  -5  203.08   43.20
  -6   6  -5  241.18   37.50
   6   6   5  167.48   32.60
  -6   6  -5  178.78   21.20
   6   6   5  242.88   35.60
  -7  -7   5  404.86   34.40
  -7  -7   5  309.47   42.40
   7  -7  -5  331.87   39.60
   7  -7  -5  279.37   33.60
   7  -7  -5  276.57   33.00
  -7  -7   5  266.47   41.00
   7   7  -5  334.67   32.00
   7   7  -5  375.26   42.70
   7   7  -5  281.67   33.60
  -7   7   5  305.37   40.20
   7   7  -5  321.37   42.10
  -7   7   5  357.76   65.49
   7   7  -5  288.57   37.50
  -6  -7   5  246.88   32.90
  -6  -7   5  187.08   23.70
   6  -7  -5  255.67   33.10
   6  -7  -5  191.88   28.80
  -6  -7   5  226.68   28.50
  -6  -7   5  181.88   29.50
   6  -7  -5  251.57   31.90
  -6   7   5  220.88   32.80
   6   7  -5  273.07   32.50
   6   7  -5  223.08   31.00
  -6   7   5  215.18   37.10
   6   7  -5  263.37   29.30
  -6   7   5  207.58   34.20
   6   7  -5  213.78   32.00
   6   7  -5  234.98   24.40
  -6   7   5  256.47   30.70
  -5  -7   5   42.60   19.00
   5  -7  -5   49.00   20.00
  -5  -7   5   21.00   16.50
   5  -7  -5  -15.70   18.80
  -5  -7   5   46.10   17.00
  -5  -7   5   32.80   20.40
   5  -7  -5   24.00   17.30
   5  -7  -5   60.39   22.00
   5   7  -5   14.70   18.50
   5   7  -5   64.09   19.10
  -5   7   5   21.90   18.30
  -5   7   5   22.40   21.30
   5   7  -5   22.20   19.60
   5   7  -5   23.40   19.70
  -5   7   5   15.30   19.40
  -5   7   5   37.30   19.90
   5   7  -5   70.89   17.10
   4  -7  -5  405.56   33.30
  -4  -7   5  364.66   36.50
  -4  -7   5  455.65   37.40
  -4  -7   5  425.96   32.80
   4  -7  -5  356.46   35.40
  -4  -7   5  351.06   29.30
  -4  -7   5  369.66   28.30
   4  -7  -5  358.36   34.20
   4  -7  -5  375.56   38.50
  -4   7   5  410.46   36.90
  -4   7   5  436.66   30.60
  -4   7   5  341.07   35.10
   4   7  -5  375.06   33.10
  -4   7   5  380.76   33.80
   4   7  -5  371.06   33.70
   4   7  -5  387.56   36.10
  -4   7   5  386.66   30.10
  -3  -7   5  463.35   31.00
   3  -7  -5  522.25   37.90
   3  -7  -5  530.05   35.80
  -3  -7   5  543.95   35.60
   3  -7  -5  412.96   34.40
  -3  -7   5  467.05   27.50
  -3  -7   5  460.15   31.00
  -3  -7   5  523.05   33.70
   3  -7  -5  469.55   36.40
  -3  -7   5  521.95   34.80
   3   7  -5  479.95   32.80
  -3   7   5  533.15   30.40
  -3   7   5  491.05   35.40
   3   7  -5  468.25   34.50
   3   7  -5  494.35   36.30
   3   7  -5  506.55   37.10
  -3   7   5  481.25   32.10
  -3   7   5  460.95   37.00
  -3   7   5  495.85   34.00
  -3   7   5  522.15   30.40
  -2  -7   5  380.56   30.60
  -2  -7   5  359.96   26.90
   2  -7  -5  351.06   31.70
   2  -7  -5  352.96   33.70
  -2  -7   5  359.46   26.70
  -2  -7   5  375.06   19.50
   2  -7  -5  369.36   33.20
   2  -7  -5  360.66   29.20
  -2  -7   5  369.86   27.10
  -2  -7   5  383.26   31.40
  -2  -7   5  328.97   27.80
   2   7  -5  372.96   30.60
  -2   7   5  339.47   25.80
   2   7  -5  364.36   28.40
  -2   7   5  405.86   30.10
  -2   7   5  286.97   30.30
   2   7  -5  399.06   35.90
   2   7  -5  309.57   32.00
  -2   7   5  354.36   30.00
   2   7  -5  311.17   29.30
  -2   7   5  380.56   29.00
  -2   7   5  398.46   24.80
   1  -7  -5 2450.65   77.19
  -1  -7   5 2482.95   59.19
  -1  -7   5 2543.65   71.79
   1  -7  -5 2598.34   81.39
  -1  -7   5 2548.55   72.99
  -1  -7   5 2457.65   76.49
   1  -7  -5 2439.56   79.59
   1  -7  -5 2547.65   75.49
   1  -7  -5 2616.54   83.29
   1  -7  -5 2498.45   83.39
  -1  -7   5 2542.75   71.59
  -1  -7   5 2532.75   82.29
  -1   7   5 2437.96   79.19
  -1   7   5 2706.43   80.89
   1   7  -5 2544.65   79.99
  -1   7   5 2557.94   76.59
  -1   7   5 2464.05   75.09
   1   7  -5 2473.35   80.79
  -1   7   5 2616.94   68.39
  -1   7   5 2560.44   71.29
   1   7  -5 2541.35   79.89
   1   7  -5 2612.34   79.89
   1   7  -5 2498.35   75.89
   0  -7  -5  158.08   21.00
   0  -7   5  123.09   13.50
   0  -7   5  129.29   20.70
   0  -7   5  150.08   16.90
   0  -7   5  117.69   15.10
   0  -7  -5  128.79   17.90
   0  -7  -5  120.59   19.20
   0  -7   5  131.09   14.40
   0  -7   5  115.99   18.40
   0  -7  -5  115.29   16.70
   0  -7  -5  174.98   18.90
   0  -7  -5  131.49   22.40
   0   7  -5  179.58   22.50
   0   7   5  127.39   24.10
   0   7   5  140.69   15.70
   0   7  -5  117.89   19.50
   0   7   5  149.39   22.70
   0   7   5  133.79   17.40
   0   7   5  136.09   16.40
   0   7   5  127.19   10.80
   0   7  -5  121.89   17.40
   0   7  -5  136.39   19.90
   0   7  -5  126.19   21.80
   1  -7   5 3170.68   85.69
  -1  -7  -5 3141.79   92.09
   1  -7   5 3154.88   91.49
   1  -7   5 3110.09   84.29
  -1  -7  -5 3125.39   98.39
  -1  -7  -5 3239.98   83.09
  -1  -7  -5 3104.29   88.49
  -1  -7  -5 2973.10   81.19
  -1  -7  -5 2973.70   90.09
  -1  -7  -5 3151.98   88.99
   1  -7   5 3078.99   95.09
   1  -7   5 3098.19   77.09
  -1   7  -5 3093.79   85.59
  -1   7  -5 3046.80   89.29
  -1   7  -5 3088.49   87.19
  -1   7  -5 3088.69   95.29
  -1   7  -5 3088.39   88.59
   1   7   5 3012.50   82.49
   1   7   5 3118.99   83.29
  -1   7  -5 3097.49   93.59
   1   7   5 2925.41   88.19
   1   7   5 3137.09   96.99
  -2  -7  -5  -15.70   10.60
   2  -7   5    3.70   15.20
  -2  -7  -5   34.80   15.50
   2  -7   5   15.90   15.50
  -2  -7  -5    3.90   16.80
  -2  -7  -5    1.80   11.30
   2  -7   5   -4.90   12.60
  -2  -7  -5   -3.90   12.40
  -2  -7  -5   -6.20   18.20
   2  -7   5   -0.30    9.10
   2  -7   5    3.90   14.50
   2   7   5   -6.60   10.20
   2   7   5   15.90   15.20
   2   7   5   -5.50   15.50
  -2   7  -5  -12.90   12.60
  -2   7  -5   11.90   12.30
  -2   7  -5   -1.30   10.50
   2   7   5    0.50    9.50
  -2   7  -5    2.00   17.50
  -2   7  -5    7.40   13.80
  -2   7  -5    6.20   11.20
   2   7   5   -4.20   11.10
  -3  -7  -5 2098.29   67.59
  -3  -7  -5 2057.19   71.39
  -3  -7  -5 2043.60   74.99
   3  -7   5 2058.39   74.19
   3  -7   5 2128.39   70.49
   3  -7   5 2114.69   68.29
   3  -7   5 2095.59   57.99
  -3  -7  -5 2128.49   70.09
  -3  -7  -5 2032.70   68.09
  -3   7  -5 2124.59   66.29
  -3   7  -5 2106.59   78.69
   3   7   5 2163.58   81.99
  -3   7  -5 2160.18   65.09
   3   7   5 2117.49   65.29
   3   7   5 2031.20   74.19
  -3   7  -5 2081.19   69.49
  -3   7  -5 2083.49   67.09
   3   7   5 2092.69   61.89
  -4  -7  -5  435.86   33.00
  -4  -7  -5  425.66   33.20
   4  -7   5  460.85   37.20
   4  -7   5  476.65   34.10
   4  -7   5  424.36   37.80
  -4  -7  -5  435.46   40.00
  -4   7  -5  398.86   42.40
   4   7   5  378.76   39.90
  -4   7  -5  441.76   30.00
  -4   7  -5  408.96   33.40
  -4   7  -5  434.76   29.60
  -4   7  -5  445.36   38.80
   4   7   5  459.75   30.30
   4   7   5  441.86   37.10
  -5  -7  -5  542.75   41.70
  -5  -7  -5  489.85   42.90
   5  -7   5  459.75   42.70
  -5  -7  -5  407.36   35.80
   5  -7   5  501.35   39.10
  -5   7  -5  512.95   33.20
   5   7   5  450.35   47.20
  -5   7  -5  444.56   51.59
   5   7   5  439.16   42.20
  -5   7  -5  447.86   44.00
  -5   7  -5  482.35   34.90
   6  -7   5  181.78   29.40
  -6  -7  -5  265.87   34.70
   6  -7   5  190.78   34.60
  -6  -7  -5  164.38   34.60
  -6  -7  -5  166.28   45.40
  -6  -7  -5  268.87   29.90
  -6   7  -5  267.17   34.60
  -6   7  -5  190.98   27.60
   6   7   5  238.18   36.40
  -6   7  -5  182.98   37.50
   6   7   5  229.08   35.40
  -6   7  -5  190.68   42.40
  -7  -8   5 1581.24   60.49
  -7  -8   5 1527.25   71.79
   7  -8  -5 1461.85   62.19
   7  -8  -5 1496.85   81.19
  -7  -8   5 1540.25   78.49
   7  -8  -5 1438.36   78.49
  -7  -8   5 1465.45   76.89
   7   8  -5 1446.56   75.99
   7   8  -5 1372.56   63.09
   7   8  -5 1491.15   87.49
   7   8  -5 1576.24   75.69
  -7   8   5 1433.56   81.09
  -7   8   5 1446.26   74.89
   7   8  -5 1479.05   67.39
  -7   8   5 1361.36   78.59
  -7   8   5 1482.85   78.79
  -6  -8   5   16.80   22.40
  -6  -8   5   19.30   23.70
   6  -8  -5   20.40   20.60
  -6  -8   5   35.50   31.10
   6  -8  -5   62.39   24.60
  -6  -8   5   18.20   16.10
   6  -8  -5   59.69   27.60
  -6   8   5   68.89   27.10
  -6   8   5   26.00   31.30
   6   8  -5   28.60   25.30
  -6   8   5   22.50   28.40
   6   8  -5  -10.00   18.30
   6   8  -5   49.50   29.20
   6   8  -5   21.70   17.50
   6   8  -5   10.00   27.40
  -5  -8   5 1544.35   60.79
   5  -8  -5 1733.23   72.69
  -5  -8   5 1702.63   71.89
   5  -8  -5 1655.83   65.69
  -5  -8   5 1615.24   65.19
  -5  -8   5 1692.13   67.89
   5  -8  -5 1757.92   70.79
  -5   8   5 1665.63   74.59
   5   8  -5 1717.13   60.89
   5   8  -5 1716.13   70.29
  -5   8   5 1657.83   70.19
  -5   8   5 1694.03   74.79
   5   8  -5 1732.03   68.09
  -5   8   5 1732.53   67.79
   5   8  -5 1649.73   73.09
   5   8  -5 1722.93   63.69
   4  -8  -5   91.59   25.70
   4  -8  -5   85.49   21.70
  -4  -8   5   59.69   19.10
  -4  -8   5   70.69   20.00
  -4  -8   5   92.79   22.80
  -4  -8   5   89.39   18.10
  -4  -8   5   58.49   16.60
   4  -8  -5   82.79   22.20
   4  -8  -5   48.00   22.30
  -4   8   5   45.20   19.80
   4   8  -5  118.69   23.70
  -4   8   5   40.20   21.40
   4   8  -5  120.49   23.90
  -4   8   5   76.99   22.80
   4   8  -5   45.90   19.50
  -4   8   5  101.99   20.90
   4   8  -5   63.99   22.30
  -3  -8   5 1508.35   61.79
   3  -8  -5 1407.26   61.19
  -3  -8   5 1510.45   56.69
   3  -8  -5 1502.85   61.69
  -3  -8   5 1518.95   62.99
   3  -8  -5 1469.05   59.59
   3  -8  -5 1568.34   64.79
  -3  -8   5 1434.66   50.19
  -3  -8   5 1347.37   57.39
  -3  -8   5 1484.75   56.49
   3   8  -5 1538.15   60.99
  -3   8   5 1462.55   62.99
   3   8  -5 1441.06   61.59
   3   8  -5 1453.45   64.19
  -3   8   5 1434.76   52.69
  -3   8   5 1456.25   58.69
  -3   8   5 1499.35   54.49
  -3   8   5 1400.36   63.59
   3   8  -5 1518.25   59.09
   2  -8  -5  328.47   34.80
   2  -8  -5  284.77   29.80
  -2  -8   5  312.57   31.60
  -2  -8   5  321.27   30.40
  -2  -8   5  340.37   27.60
   2  -8  -5  247.78   31.40
  -2  -8   5  371.46   32.40
   2  -8  -5  310.17   29.80
  -2  -8   5  266.27   27.10
  -2  -8   5  268.67   18.00
   2  -8  -5  276.47   31.20
   2   8  -5  247.28   32.00
  -2   8   5  278.57   28.20
   2   8  -5  279.77   30.50
   2   8  -5  272.37   30.20
  -2   8   5  273.47   29.70
  -2   8   5  270.37   31.60
   2   8  -5  279.77   29.10
  -2   8   5  236.48   24.60
  -2   8   5  278.87   31.10
  -2   8   5  326.47   28.60
  -1  -8   5  226.28   28.20
   1  -8  -5  227.28   27.70
  -1  -8   5  179.48   22.60
  -1  -8   5  212.98   22.80
   1  -8  -5  213.78   24.20
  -1  -8   5  268.57   28.10
   1  -8  -5  235.58   27.00
   1  -8  -5  220.18   28.50
   1  -8  -5  197.28   25.20
  -1  -8   5  207.88   22.90
  -1  -8   5  213.18   23.20
   1   8  -5  242.88   29.30
   1   8  -5  172.68   22.70
   1   8  -5  168.38   21.10
   1   8  -5  187.98   25.10
  -1   8   5  202.88   21.10
  -1   8   5  219.58   26.70
  -1   8   5  240.28   28.10
   1   8  -5  202.28   25.40
  -1   8   5  225.78   23.70
  -1   8   5  187.48   26.20
   0  -8   5  499.25   26.80
   0  -8   5  464.95   32.60
   0  -8   5  440.66   35.00
   0  -8   5  509.65   31.00
   0  -8  -5  441.66   34.80
   0  -8  -5  510.75   31.50
   0  -8  -5  515.95   34.80
   0  -8  -5  484.05   39.80
   0  -8  -5  614.04   31.70
   0  -8   5  449.86   32.00
   0  -8   5  505.15   31.60
   0  -8  -5  521.65   34.50
   0   8   5  472.85   35.10
   0   8   5  485.85   19.70
   0   8  -5  523.25   38.20
   0   8  -5  578.24   35.20
   0   8  -5  552.04   36.40
   0   8   5  469.45   34.60
   0   8   5  504.65   31.60
   0   8  -5  481.95   32.50
   0   8   5  465.25   36.60
   0   8  -5  565.04   40.40
   0   8   5  534.05   30.40
  -1  -8  -5  121.49   18.00
  -1  -8  -5   88.49   24.50
  -1  -8  -5  138.49   18.00
   1  -8   5   90.59   19.10
   1  -8   5  122.59   13.00
  -1  -8  -5  121.69   21.00
   1  -8   5   77.29   17.90
  -1  -8  -5  134.69   24.10
   1  -8   5  105.99   16.30
  -1  -8  -5   93.39   19.00
   1  -8   5   72.29   18.90
  -1   8  -5  113.49   18.40
   1   8   5  112.39   19.30
   1   8   5  167.38   24.10
   1   8   5  102.69   15.90
  -1   8  -5  131.39   19.50
   1   8   5   96.19   18.40
  -1   8  -5  117.79   18.70
  -1   8  -5   80.19   22.60
  -1   8  -5  111.29   20.10
  -1   8  -5  116.39   20.90
   2  -8   5  170.18   21.50
  -2  -8  -5  213.98   24.20
  -2  -8  -5  160.58   26.00
   2  -8   5  204.58   27.50
  -2  -8  -5  205.88   25.80
  -2  -8  -5  177.38   25.40
   2  -8   5  200.58   28.80
  -2  -8  -5  225.18   30.10
   2  -8   5  188.68   24.10
   2  -8   5  229.78   24.30
   2   8   5  235.08   26.70
  -2   8  -5  150.08   21.00
   2   8   5  153.98   25.90
  -2   8  -5  166.58   25.10
   2   8   5  252.47   25.80
   2   8   5  224.48   21.00
  -2   8  -5  207.58   27.20
  -2   8  -5  226.48   26.80
  -2   8  -5  249.78   26.30
   2   8   5  218.68   30.30
  -2   8  -5  224.18   25.20
   3  -8   5  254.77   33.50
   3  -8   5  271.97   29.90
  -3  -8  -5  261.47   49.99
  -3  -8  -5  241.68   31.00
  -3  -8  -5  313.67   38.90
  -3  -8  -5  282.97   28.40
   3   8   5  249.38   25.50
  -3   8  -5  259.77   34.40
   3   8   5  286.27   37.60
  -3   8  -5  280.17   32.00
  -3   8  -5  255.57   28.10
   3   8   5  235.18   18.80
  -3   8  -5  300.97   29.30
   3   8   5  310.37   30.80
   3   8   5  310.87   32.90
  -3   8  -5  295.87   33.10
  -3   8  -5  284.67   31.70
  -4  -8  -5  125.19   23.20
  -4  -8  -5  108.69   28.50
   4  -8   5  110.39   22.10
   4  -8   5  102.69   21.60
  -4  -8  -5  148.19   27.00
  -4   8  -5   89.69   32.60
  -4   8  -5  117.49   21.70
   4   8   5  109.29   26.30
  -4   8  -5  101.19   20.70
   4   8   5  115.09   28.30
   4   8   5  106.29   20.00
  -4   8  -5  127.19   26.10
  -5  -8  -5  388.06   39.40
   5  -8   5  372.06   39.30
  -5  -8  -5  361.96   57.99
   5  -8   5  434.86   46.10
  -5  -8  -5  343.67   38.80
   5   8   5  356.66   41.80
  -5   8  -5  364.56   37.30
  -5   8  -5  385.16   48.70
  -5   8  -5  323.27   53.79
   5   8   5  381.56   44.80
  -5   8  -5  334.27   37.60
   6  -9  -5 1088.69   73.89
   6  -9  -5 1072.49   59.99
   6  -9  -5 1072.39   69.99
  -6  -9   5 1202.38   54.19
  -6  -9   5 1261.87   64.99
  -6  -9   5 1359.06   67.29
   6   9  -5 1203.98   70.69
  -6   9   5 1255.47   70.19
   6   9  -5 1196.38   53.19
  -6   9   5 1141.69   73.59
   6   9  -5 1220.08   77.29
  -6   9   5 1187.58   64.89
   6   9  -5 1149.89   57.29
  -6   9   5 1339.37   77.79
   6   9  -5 1171.08   65.89
  -5  -9   5    5.20   25.50
   5  -9  -5   20.60   25.20
   5  -9  -5   31.30   21.20
  -5  -9   5   17.10   17.60
  -5  -9   5   -6.40   21.10
  -5  -9   5   18.90   24.00
   5  -9  -5    4.50   26.10
  -5   9   5    8.50   25.40
  -5   9   5   19.80   21.10
   5   9  -5  -23.60   24.10
  -5   9   5   52.39   32.00
   5   9  -5    0.20   26.10
  -5   9   5   18.40   31.20
   5   9  -5   38.80   19.70
   5   9  -5  -19.70   23.30
   5   9  -5   18.40   18.70
   4  -9  -5 1834.92   75.39
   4  -9  -5 1892.91   73.89
  -4  -9   5 1861.61   74.59
  -4  -9   5 1806.92   74.39
   4  -9  -5 1815.82   73.59
   4  -9  -5 1969.40   79.19
  -4  -9   5 1824.12   66.29
  -4  -9   5 1813.82   65.29
  -4  -9   5 1889.11   72.79
   4   9  -5 1857.71   82.39
  -4   9   5 1870.41   77.89
   4   9  -5 1823.92   72.19
  -4   9   5 1791.02   68.99
   4   9  -5 1812.02   76.79
  -4   9   5 1901.71   75.89
   4   9  -5 1743.33   73.09
  -4   9   5 1803.92   78.89
   3  -9  -5    3.40   17.50
   3  -9  -5  -13.50   17.70
  -3  -9   5  -25.00   12.50
  -3  -9   5   -1.20   13.30
   3  -9  -5  -17.90   17.30
  -3  -9   5   19.60   17.90
  -3  -9   5    6.10   16.90
   3  -9  -5   -3.30   19.70
  -3  -9   5    2.60   16.90
  -3   9   5   23.10   22.00
  -3   9   5    7.80   19.60
  -3   9   5   57.09   20.20
  -3   9   5   -6.70   19.00
  -3   9   5    2.70   15.70
   3   9  -5   10.60   20.20
   3   9  -5    3.00   22.10
   3   9  -5   31.50   19.00
   3   9  -5   11.30   19.20
  -2  -9   5  883.81   43.00
   2  -9  -5 1042.30   52.29
  -2  -9   5  829.42   49.00
   2  -9  -5  923.51   48.60
  -2  -9   5  929.11   36.00
  -2  -9   5  972.70   48.10
  -2  -9   5  948.51   45.30
   2  -9  -5 1016.10   50.99
   2  -9  -5 1020.60   56.09
  -2   9   5  991.40   44.40
   2   9  -5 1017.90   47.50
  -2   9   5 1018.40   46.60
   2   9  -5 1041.00   55.29
  -2   9   5  967.20   46.90
  -2   9   5  999.40   48.30
   2   9  -5  920.71   48.00
   2   9  -5  901.81   50.69
  -2   9   5 1022.00   53.89
  -2   9   5 1014.80   55.49
  -1  -9   5  264.97   26.40
   1  -9  -5  249.97   29.30
  -1  -9   5  228.88   28.70
   1  -9  -5  179.38   28.80
   1  -9  -5  285.57   33.90
  -1  -9   5  204.48   25.90
  -1  -9   5  232.58   29.20
   1  -9  -5  304.87   32.10
  -1  -9   5  179.68   28.20
   1   9  -5  232.08   27.80
  -1   9   5  261.57   27.40
  -1   9   5  287.67   30.10
  -1   9   5  234.18   27.70
   1   9  -5  223.48   26.70
  -1   9   5  223.38   20.40
   1   9  -5  306.97   37.20
   1   9  -5  170.98   24.80
  -1   9   5  219.78   26.20
   0  -9  -5  200.48   25.80
   0  -9  -5  236.38   29.00
   0  -9  -5  278.17   32.70
   0  -9  -5  202.88   27.80
   0  -9   5  244.08   32.10
   0  -9   5  198.28   23.40
   0  -9   5  180.28   24.20
   0  -9  -5  192.78   30.80
   0  -9   5  278.67   33.00
   0  -9   5  191.68   23.80
   0  -9   5  245.78   24.60
   0   9  -5  210.18   24.80
   0   9   5  251.87   14.10
   0   9   5  259.77   29.40
   0   9   5  269.97   31.60
   0   9  -5  252.37   28.30
   0   9   5  264.67   27.30
   0   9  -5  245.28   31.00
   0   9   5  195.18   26.40
   0   9   5  240.48   20.60
   0   9  -5  256.57   34.90
   0   9  -5  254.57   28.90
  -1  -9  -5  412.46   35.40
  -1  -9  -5  433.46   43.80
  -1  -9  -5  380.06   35.90
   1  -9   5  394.96   36.10
   1  -9   5  390.46   24.00
  -1  -9  -5  434.16   31.90
  -1  -9  -5  421.16   39.20
   1  -9   5  346.97   29.90
   1  -9   5  385.76   32.80
   1  -9   5  337.67   32.90
   1   9   5  448.06   36.60
  -1   9  -5  416.06   34.50
   1   9   5  382.56   36.90
  -1   9  -5  402.26   45.40
  -1   9  -5  384.56   42.20
  -1   9  -5  397.06   34.40
  -1   9  -5  343.27   35.90
   1   9   5  367.86   30.40
   1   9   5  389.56   40.60
   2  -9   5   94.49   17.70
   2  -9   5   83.59   20.60
  -2  -9  -5   83.99   21.70
   2  -9   5   77.69   21.70
   2  -9   5  162.38   23.50
  -2  -9  -5   71.39   25.70
  -2  -9  -5  124.49   24.30
  -2   9  -5  108.29   28.10
  -2   9  -5   73.79   20.60
   2   9   5  139.89   26.00
   2   9   5   89.29   17.00
  -2   9  -5   90.29   20.20
  -2   9  -5   92.29   24.40
   2   9   5   71.79   24.00
  -2   9  -5   88.69   21.60
   3  -9   5  324.57   35.50
  -3  -9  -5  368.76   41.10
  -3  -9  -5  307.67   36.40
  -3  -9  -5  358.36   36.80
   3  -9   5  303.37   31.30
   3  -9   5  322.37   34.20
   3   9   5  356.86   36.80
   3   9   5  314.77   25.60
  -3   9  -5  324.47   34.90
  -3   9  -5  325.97   36.90
   3   9   5  430.16   43.80
   3   9   5  428.16   41.90
  -3   9  -5  342.67   37.20
  -3   9  -5  344.77   36.60
  -3   9  -5  270.77   40.80
  -4  -9  -5  604.64   46.40
  -4  -9  -5  631.64   57.59
   4  -9   5  554.04   44.40
  -4   9  -5  587.04   45.00
  -4   9  -5  588.34   41.30
   4   9   5  533.95   46.70
  -4   9  -5  622.24   48.20
  -4   9  -5  506.45   49.90
   4   9   5  523.75   49.90
  -5  -9  -5  110.09   28.80
  -5   9  -5  135.99   26.60
  -5   9  -5  161.68   39.30
   5   9   5  119.19   30.90
  -5 -10   5  497.45   44.30
  -5 -10   5  520.75   39.80
   5 -10  -5  504.45   62.29
  -5 -10   5  543.85   58.99
  -5 -10   5  497.05   48.10
   5 -10  -5  516.65   47.90
   5 -10  -5  504.05   52.99
   5 -10  -5  580.14   50.89
  -5  10   5  494.15   53.99
  -5  10   5  415.26   54.29
   5  10  -5  455.55   48.40
   5  10  -5  388.56   47.90
  -5  10   5  423.16   49.00
   5  10  -5  485.45   55.19
   5  10  -5  426.76   41.40
  -4 -10   5  459.45   38.10
  -4 -10   5  512.75   39.90
   4 -10  -5  472.35   55.99
   4 -10  -5  505.95   51.29
   4 -10  -5  458.65   42.80
  -4 -10   5  509.35   47.40
  -4 -10   5  451.95   48.10
   4 -10  -5  508.75   52.09
  -4 -10   5  432.66   42.90
   4  10  -5  430.46   51.59
  -4  10   5  509.45   55.89
   4  10  -5  479.45   49.30
  -4  10   5  436.26   51.79
   4  10  -5  456.45   50.69
  -4  10   5  493.25   59.29
  -4  10   5  494.65   43.30
   4  10  -5  532.15   55.49
   3 -10  -5  148.69   31.30
  -3 -10   5  245.08   33.30
   3 -10  -5  209.28   32.50
  -3 -10   5  177.88   24.60
   3 -10  -5  187.88   26.90
  -3 -10   5  143.69   27.30
   3 -10  -5  267.87   38.90
  -3 -10   5  262.67   32.20
  -3 -10   5  167.08   20.00
   3  10  -5  213.28   37.80
  -3  10   5  177.08   32.10
   3  10  -5  245.88   33.60
   3  10  -5  198.88   33.10
  -3  10   5  207.48   34.70
  -3  10   5  232.18   41.00
  -3  10   5  239.38   29.40
   3  10  -5  238.58   38.90
  -3  10   5  248.88   29.90
  -2 -10   5  769.22   49.50
   2 -10  -5  720.83   55.89
  -2 -10   5  792.92   49.00
  -2 -10   5  781.52   44.50
   2 -10  -5  793.12   51.49
  -2 -10   5  801.52   45.70
   2 -10  -5  804.42   46.20
   2 -10  -5  854.81   56.99
  -2  10   5  812.52   54.49
   2  10  -5  828.82   49.60
   2  10  -5  815.22   49.80
  -2  10   5  845.92   45.50
  -2  10   5  823.32   45.50
   2  10  -5  820.22   54.29
  -2  10   5  777.22   51.19
   2  10  -5  811.62   57.79
  -1 -10   5   46.10   19.80
   1 -10  -5   40.40   24.00
  -1 -10   5   51.79   17.60
   1 -10  -5   61.89   28.70
   1 -10  -5   90.49   20.40
  -1 -10   5   22.30   17.00
   1 -10  -5   97.19   24.60
  -1 -10   5   68.79   20.50
   1  10  -5   28.60   20.70
   1  10  -5   49.70   24.00
   1  10  -5   35.90   21.80
  -1  10   5   36.60   22.50
  -1  10   5   21.90   20.30
   1  10  -5   21.10   25.40
  -1  10   5   92.59   22.30
  -1  10   5   86.09   19.80
   0 -10   5 1122.39   54.69
   0 -10   5 1199.48   60.69
   0 -10  -5 1242.78   52.09
   0 -10  -5 1196.28   58.69
   0 -10  -5 1153.68   67.09
   0 -10   5 1223.88   47.10
   0 -10   5 1198.68   54.49
   0 -10  -5 1220.88   64.09
   0  10   5 1246.98   51.99
   0  10  -5 1219.58   65.29
   0  10  -5 1208.58   59.99
   0  10  -5 1134.69   58.39
   0  10   5 1201.78   58.29
   0  10   5 1278.77   60.39
   0  10   5 1215.78   35.60
   0  10   5 1229.98   53.59
   0  10  -5 1167.58   56.99
  -1 -10  -5   14.10   19.40
   1 -10   5   14.50   21.40
  -1 -10  -5    1.80   24.70
  -1 -10  -5   -9.60   26.80
  -1 -10  -5    2.00   20.70
   1 -10   5  -17.90   16.80
   1 -10   5   24.00   19.10
   1 -10   5   -4.80   13.40
   1  10   5  -14.60   22.10
  -1  10  -5  -17.00   22.40
  -1  10  -5   38.30   22.10
  -1  10  -5    6.40   19.00
  -1  10  -5   21.60   29.20
   1  10   5  -11.30   17.90
   1  10   5  -10.60   15.40
   2 -10   5  776.92   29.10
  -2 -10  -5  835.02   54.69
   2 -10   5  741.33   47.20
  -2 -10  -5  684.03   51.29
  -2 -10  -5  728.43   57.99
   2 -10   5  815.12   51.29
  -2  10  -5  723.23   56.19
  -2  10  -5  775.02   46.80
  -2  10  -5  775.32   60.39
   2  10   5  746.23   52.39
   2  10   5  815.12   52.29
   2  10   5  758.22   40.70
  -2  10  -5  784.12   47.10
  -2  10  -5  732.63   49.70
  -3 -10  -5  109.19   29.60
   3 -10   5   78.09   23.10
  -3 -10  -5  122.09   53.49
  -3 -10  -5   75.69   28.60
   3  10   5  118.99   29.00
  -3  10  -5  109.09   46.40
  -3  10  -5   52.59   29.60
  -3  10  -5  118.59   25.60
   3  10   5   86.49   18.40
  -3  10  -5  111.59   25.90
   3  10   5  189.18   31.50
  -4 -10  -5  316.47   42.20
  -4 -10  -5  438.46   45.60
  -4 -10  -5  383.06   45.40
   4 -10   5  407.86   43.90
  -4  10  -5  509.05   48.10
  -4  10  -5  314.97   40.90
  -4  10  -5  432.46   44.00
   4  10   5  341.67   45.10
   4  10   5  345.87   43.30
  -4  10  -5  390.26   48.50
  -4  10  -5  393.86   45.20
   4 -11  -5   34.90   35.10
   4 -11  -5   52.19   23.90
  -4 -11   5    9.60   24.80
   4 -11  -5  -51.39   26.10
  -4 -11   5  -37.80   20.50
   4 -11  -5   42.90   33.80
  -4 -11   5   37.00   21.70
  -4 -11   5   15.50   22.00
  -4 -11   5   38.60   31.50
  -4  11   5  -22.40   32.90
   4  11  -5    7.90   32.70
   4  11  -5   61.39   34.30
  -4  11   5    9.60   27.20
   4  11  -5   32.40   32.10
   4  11  -5   55.79   29.50
  -4  11   5   -3.20   55.69
  -4  11   5    6.00   29.30
   3 -11  -5  590.84   58.89
  -3 -11   5  548.45   41.30
   3 -11  -5  602.24   53.19
  -3 -11   5  553.44   47.20
   3 -11  -5  584.24   59.39
  -3 -11   5  565.34   53.09
   3 -11  -5  583.64   46.10
  -3 -11   5  526.45   36.20
   3  11  -5  482.95   56.79
  -3  11   5  522.85   47.60
  -3  11   5  535.05   61.59
  -3  11   5  544.65   53.09
   3  11  -5  520.95   50.79
  -3  11   5  433.46   50.49
   3  11  -5  550.04   56.09
  -2 -11   5  100.69   25.60
   2 -11  -5  125.79   34.30
  -2 -11   5   93.89   26.90
   2 -11  -5  158.18   38.40
   2 -11  -5  107.49   23.20
  -2 -11   5  130.29   25.10
  -2 -11   5  133.99   27.10
   2  11  -5   68.69   36.70
  -2  11   5   51.99   28.70
  -2  11   5  120.59   27.20
   2  11  -5  115.29   31.50
  -2  11   5  105.99   26.60
  -2  11   5  135.89   31.60
   2  11  -5   93.59   31.60
   1 -11  -5 1037.60   69.59
   1 -11  -5 1065.29   67.09
   1 -11  -5 1075.79   52.59
  -1 -11   5 1069.59   53.59
  -1 -11   5 1099.19   55.49
  -1 -11   5  979.30   59.09
  -1 -11   5 1089.29   58.19
   1 -11  -5 1063.79   60.89
  -1  11   5 1114.39   55.49
  -1  11   5 1173.78   59.39
   1  11  -5 1053.99   77.59
   1  11  -5 1025.20   67.79
  -1  11   5 1137.49   64.89
   1  11  -5 1001.30   58.99
  -1  11   5 1129.79   55.69
   1  11  -5 1103.49   59.39
   0 -11  -5   94.49   23.10
   0 -11  -5   71.09   56.99
   0 -11   5  147.89   29.70
   0 -11  -5   25.70   28.30
   0 -11   5  122.59   24.40
   0 -11   5   88.49   20.90
   0 -11   5   66.69   24.90
   0 -11  -5   88.09   36.10
   0  11  -5  129.89   33.30
   0  11   5   95.39   29.50
   0  11   5  124.99   28.80
   0  11  -5  116.19   29.80
   0  11   5  137.39   26.60
   0  11  -5  135.89   38.50
   0  11  -5   89.29   42.00
   0  11   5  101.39   24.50
  -1 -11  -5 1438.26   72.59
  -1 -11  -5 1438.96   85.49
   1 -11   5 1501.55   53.99
   1 -11   5 1579.14   73.29
  -1 -11  -5 1607.24   70.19
   1 -11   5 1565.94   67.29
  -1 -11  -5 1463.65   80.69
  -1  11  -5 1590.04   70.89
   1  11   5 1452.05   70.49
  -1  11  -5 1451.75   89.69
   1  11   5 1651.43   65.39
   1  11   5 1614.84   74.99
  -1  11  -5 1353.26   74.29
   2 -11   5   11.20   21.20
  -2 -11  -5   20.40   26.80
   2 -11   5   18.70   14.30
  -2 -11  -5   52.69   29.80
   2 -11   5   48.10   22.80
  -2  11  -5  -14.60   29.50
  -2  11  -5   48.00   29.40
  -2  11  -5   14.00   22.70
   2  11   5    0.00   25.00
   2  11   5   15.20   23.00
  -2  11  -5   47.20   27.50
   2  11   5   36.50   30.10
   2 -12  -5  348.17   41.90
  -2 -12   5  290.27   34.70
   2 -12  -5  285.37   45.00
  -2 -12   5  306.97   40.30
   2 -12  -5  339.47   39.50
  -2 -12   5  391.46   44.90
  -2 -12   5  341.67   34.90
   2 -12  -5  300.57   42.40
   2  12  -5  409.56   46.50
  -2  12   5  377.36   49.50
  -2  12   5  348.87   39.20
   2  12  -5  443.46   54.29
  -2  12   5  402.96   42.70
   2  12  -5  317.87   41.90
   2  12  -5  360.56   48.90
  -1 -12   5    9.30   22.50
   1 -12  -5   29.50   22.10
  -1 -12   5  -13.90   26.60
   1 -12  -5  -44.00   26.20
  -1 -12   5   26.00   30.30
   1 -12  -5   76.69   32.70
  -1 -12   5   12.70   21.30
   1 -12  -5   44.70   32.50
   1  12  -5   50.59   31.50
  -1  12   5   24.80   28.10
   1  12  -5  -20.70   26.60
  -1  12   5   53.09   37.30
   1  12  -5   33.40   27.90
  -1  12   5   31.50   27.70
   1  12  -5  -32.30   32.10
   0 -12  -5  275.47   37.40
   0 -12  -5  335.07   43.30
   0 -12   5  422.46   44.90
   0 -12   5  384.06   45.00
   0 -12  -5  324.27   46.80
   0 -12   5  366.56   44.70
   0 -12  -5  410.96   39.50
   0  12  -5  310.67   39.60
   0  12  -5  339.97   39.40
   0  12  -5  469.05   60.39
   0  12  -5  418.56   50.19
   0  12   5  380.46   45.80
   0  12   5  247.88   33.20
   0  12   5  361.06   38.70
   0  12   5  328.97   46.00
   9   0  -6   30.50   22.80
   9   0  -6   11.90   33.60
  -9   0   6  -39.80   31.30
  -9   0   6   17.10   26.20
  -9   0   6    4.00   27.30
   9   0  -6   60.69   24.60
  -8   0   6   78.19   31.00
  -8   0   6   48.60   27.00
   8   0  -6   72.69   27.30
   8   0  -6   91.09   27.60
   8   0  -6   30.20   20.10
   8   0  -6   76.89   21.80
  -8   0   6   86.89   28.30
  -8   0   6   80.79   28.60
  -7   0   6  -12.20   20.60
   7   0  -6  -22.50   16.50
   7   0  -6   18.70   19.10
   7   0  -6  -13.80   13.90
  -7   0   6   11.60   16.80
  -7   0   6   11.30   16.70
   7   0  -6   -0.90   20.30
   7   0  -6  -17.70   15.80
  -7   0   6   19.00   18.60
   6   0  -6  694.93   34.60
  -6   0   6  809.52   39.50
  -6   0   6  734.33   46.30
  -6   0   6  789.92   41.00
   6   0  -6  729.33   39.40
  -6   0   6  738.93   45.30
   6   0  -6  730.33   41.80
   6   0  -6  797.62   45.70
  -5   0   6    2.20   15.50
  -5   0   6   -1.30   13.30
   5   0  -6   -2.80   12.50
  -5   0   6   -0.40   12.90
   5   0  -6    5.60   12.80
   5   0  -6   -6.50   13.20
  -5   0   6  -12.40   15.00
   5   0  -6   -1.30   13.80
  -5   0   6   -5.30   10.80
   5   0  -6   -8.20   13.20
  -5   0   6   13.70   17.70
  -4   0   6 2522.45   70.39
   4   0  -6 2516.85   77.59
   4   0  -6 2447.96   77.69
   4   0  -6 2612.84   79.49
  -4   0   6 2442.06   78.29
  -4   0   6 2615.84   77.69
  -4   0   6 2524.65   73.89
   4   0  -6 2835.02   81.69
  -4   0   6 2497.15   78.49
   4   0  -6 2507.35   75.99
  -4   0   6 2523.65   78.59
  -4   0   6 2636.04   72.89
  -4   0   6 2618.44   76.19
   4   0  -6 2639.64   81.19
   4   0  -6 2447.35   75.59
  -4   0   6 2482.95   76.89
   3   0  -6    1.70   10.60
   3   0  -6    7.40   10.90
  -3   0   6  -27.50   10.50
  -3   0   6   12.00   10.00
  -3   0   6   -4.80    6.10
  -3   0   6    5.70    9.90
  -3   0   6   -3.10    7.40
  -3   0   6   -9.90   12.10
  -3   0   6   13.70   12.80
   3   0  -6    7.60   10.40
  -3   0   6    2.20   11.70
   3   0  -6   -6.10   10.50
   3   0  -6   10.60   11.50
  -3   0   6   14.90   12.10
   3   0  -6  -28.40    9.90
   3   0  -6    5.80   11.70
  -2   0   6 2168.88   75.19
   2   0  -6 2730.83   74.69
  -2   0   6 2579.04   63.49
   2   0  -6 2532.85   75.99
  -2   0   6 2638.44   77.29
   2   0  -6 2553.04   73.49
   2   0  -6 2653.93   71.29
  -2   0   6 2668.03   73.29
   2   0  -6 2666.33   86.89
   2   0  -6 2584.54   74.99
  -2   0   6 2547.65   72.49
   2   0  -6 2676.43   74.19
  -2   0   6 2619.24   65.29
  -2   0   6 2770.32   73.79
  -2   0   6 2647.94   69.49
   1   0  -6   10.60    9.40
   1   0  -6    1.70    8.10
   1   0  -6   -7.50    7.50
   1   0  -6    2.10    3.40
  -1   0   6    9.20    5.20
  -1   0   6    1.90    3.90
   1   0  -6    8.10   11.10
  -1   0   6    5.40    5.30
   1   0  -6    1.50    8.90
  -1   0   6    3.20    7.30
  -1   0   6    7.60    8.60
  -1   0   6   -4.10    6.00
  -1   0   6    0.90   11.70
   1   0  -6   -4.10    7.90
   1   0  -6   -2.00    6.60
   0   0  -6 3103.49   80.99
   0   0  -6 3212.98   83.69
   0   0  -6 3147.29   86.99
   0   0  -6 3201.78   78.49
   0   0   6 3114.79   82.49
   0   0  -6 3077.59   81.99
   0   0   6 3214.28   77.09
   0   0  -6 3103.89   73.59
   0   0  -6 3201.78   73.79
   0   0   6 3139.49   89.29
   0   0  -6 3024.90   79.59
   0   0  -6 3099.49   78.49
   0   0   6 3183.08   81.39
  -1   0  -6   11.70    5.70
  -1   0  -6   -3.30    4.50
  -1   0  -6    6.50   10.30
  -1   0  -6    4.20    8.30
   1   0   6    8.20   12.70
  -1   0  -6    6.20    5.90
   1   0   6  -19.20   11.10
  -1   0  -6    2.00    5.50
   1   0   6    3.10    8.40
  -1   0  -6    4.40    5.00
  -2   0  -6 1110.39   29.00
   2   0   6 1098.79   45.50
  -2   0  -6 1136.99   28.10
  -2   0  -6 1091.39   28.00
   2   0   6 1176.68   41.30
  -2   0  -6 1036.80   30.40
  -2   0  -6 1055.09   40.50
  -2   0  -6 1059.99   36.70
  -2   0  -6 1116.79   35.30
   2   0   6 1109.69   35.40
  -3   0  -6    4.50   11.30
   3   0   6  -12.30   12.50
  -3   0  -6    4.30    8.90
   3   0   6   -4.50   13.80
   3   0   6   -3.90    9.00
  -3   0  -6    5.20   11.20
  -3   0  -6  -19.00   11.40
  -4   0  -6  465.75   30.80
   4   0   6  441.96   31.20
   4   0   6  470.85   32.60
  -4   0  -6  452.65   25.80
  -4   0  -6  425.76   26.80
  -4   0  -6  484.65   29.80
  -5   0  -6    6.90   15.70
  -5   0  -6   15.60    8.10
  -5   0  -6   18.30   13.30
  -5   0  -6    5.00    6.20
  -5   0  -6    5.90   18.00
   5   0   6   30.60   19.50
   5   0   6    1.40   15.60
  -5   0  -6   18.50   12.90
  -6   0  -6   15.10   14.60
  -6   0  -6  -18.10   19.90
  -6   0  -6   12.80   21.90
  -6   0  -6  -12.00    9.00
   6   0   6  -11.70   17.30
  -6   0  -6    9.80   14.50
   6   0   6   14.40   19.90
   7   0   6   37.70   26.00
  -7   0  -6    8.40   33.40
   7   0   6    0.70   19.90
  -7   0  -6   21.00   32.50
  -9  -1   6  135.49   55.39
  -9  -1   6   23.10   29.90
  -9  -1   6  100.59   36.30
  -9  -1   6   49.30   29.70
   9  -1  -6   55.59   24.90
   9  -1  -6   45.60   25.40
   9  -1  -6   13.80   33.80
  -9   1   6   99.09   34.10
   9   1  -6   87.39   25.00
   9   1  -6   97.09   36.70
  -9   1   6   72.19   32.30
  -9   1   6   75.79   30.30
   9   1  -6   33.40   23.80
  -9   1   6   76.99   41.40
   8  -1  -6  483.15   40.60
  -8  -1   6  435.26   53.39
   8  -1  -6  470.95   35.20
  -8  -1   6  513.15   47.60
   8  -1  -6  464.25   47.30
  -8  -1   6  459.35   43.90
   8  -1  -6  449.26   38.30
   8  -1  -6  419.46   51.69
  -8  -1   6  460.05   49.90
  -8   1   6  436.16   53.69
   8   1  -6  468.55   49.40
   8   1  -6  398.46   38.50
  -8   1   6  507.85   53.39
  -8   1   6  378.36   45.90
   8   1  -6  477.45   49.30
  -8   1   6  421.06   45.30
   8   1  -6  498.25   38.50
   8   1  -6  509.95   34.30
  -7  -1   6  -13.60   17.60
   7  -1  -6   -8.90   20.50
   7  -1  -6   22.80   19.40
  -7  -1   6  -13.00   19.70
  -7  -1   6    0.00   17.40
   7  -1  -6   23.00   15.40
   7  -1  -6   19.80   17.80
  -7  -1   6   25.20   17.60
   7  -1  -6   10.30   17.50
  -7   1   6   30.30   18.40
  -7   1   6   20.50   21.40
   7   1  -6    2.00   16.10
   7   1  -6    1.70   21.30
   7   1  -6  -17.40   15.80
   7   1  -6   24.00   19.70
  -7   1   6   32.10   19.50
  -7   1   6  -12.20   17.50
  -6  -1   6  803.62   45.90
   6  -1  -6  808.42   36.30
   6  -1  -6  746.13   36.20
  -6  -1   6  761.32   39.00
   6  -1  -6  787.42   46.10
  -6  -1   6  822.92   39.50
  -6  -1   6  770.22   45.70
   6  -1  -6  752.02   42.40
   6  -1  -6  734.93   40.70
  -6   1   6  816.82   41.70
   6   1  -6  778.92   40.60
  -6   1   6  721.03   44.70
  -6   1   6  793.12   40.70
   6   1  -6  800.92   47.00
   6   1  -6  770.62   44.10
  -6   1   6  738.23   45.30
   6   1  -6  764.12   34.80
   6   1  -6  769.22   43.60
  -5  -1   6  423.16   32.10
  -5  -1   6  498.05   33.20
  -5  -1   6  482.75   34.00
   5  -1  -6  438.86   34.50
  -5  -1   6  465.05   27.60
   5  -1  -6  476.15   28.90
   5  -1  -6  447.16   35.20
  -5  -1   6  468.25   30.10
   5  -1  -6  508.75   33.40
   5  -1  -6  470.05   32.70
   5   1  -6  418.76   32.70
   5   1  -6  455.75   32.80
   5   1  -6  453.05   34.60
  -5   1   6  449.76   34.80
  -5   1   6  450.65   31.10
  -5   1   6  456.65   28.50
   5   1  -6  388.56   24.20
  -5   1   6  446.16   35.80
   5   1  -6  459.35   30.80
   4  -1  -6  853.21   39.50
  -4  -1   6  809.92   39.10
   4  -1  -6  826.32   39.80
   4  -1  -6  805.12   38.40
  -4  -1   6  820.72   35.60
  -4  -1   6  873.81   39.10
  -4  -1   6  881.11   36.10
   4  -1  -6  779.12   36.50
  -4  -1   6  870.21   45.70
   4  -1  -6  845.22   42.30
   4  -1  -6  827.32   40.70
  -4  -1   6  857.01   40.00
   4  -1  -6  868.31   41.50
  -4  -1   6  809.02   39.20
  -4   1   6  840.62   38.90
  -4   1   6  816.12   41.30
   4   1  -6  863.41   38.30
   4   1  -6  884.21   39.30
  -4   1   6  802.42   39.00
  -4   1   6  915.11   41.30
   4   1  -6  832.22   40.10
  -4   1   6  895.01   38.60
   4   1  -6  787.92   37.30
   4   1  -6  842.12   39.20
  -4   1   6  829.72   36.90
  -4   1   6  802.62   40.90
   4   1  -6  835.52   40.20
   4   1  -6  797.22   40.30
   3  -1  -6 2502.15   71.59
  -3  -1   6 2486.05   73.09
  -3  -1   6 2535.95   73.69
  -3  -1   6 2488.85   63.19
  -3  -1   6 2587.04   74.29
  -3  -1   6 2574.54   70.39
   3  -1  -6 2403.86   75.49
   3  -1  -6 2647.34   75.29
   3  -1  -6 2450.95   76.19
  -3  -1   6 2483.95   73.89
   3  -1  -6 2452.95   75.09
   3  -1  -6 2473.25   73.99
   3  -1  -6 2322.87   72.29
  -3  -1   6 2527.25   69.99
  -3  -1   6 2520.35   68.99
  -3   1   6 2571.34   74.69
   3   1  -6 2507.05   72.19
  -3   1   6 2308.37   73.99
  -3   1   6 2471.45   74.39
   3   1  -6 2482.75   73.69
  -3   1   6 2354.36   68.79
  -3   1   6 2457.75   66.29
   3   1  -6 2478.95   74.69
   3   1  -6 2442.46   75.19
  -3   1   6 2420.66   72.09
   3   1  -6 2453.55   72.29
   3   1  -6 2501.15   71.29
  -3   1   6 2516.45   74.89
  -3   1   6 2538.15   70.69
  -3   1   6 2446.46   74.49
   3   1  -6 2480.45   74.19
  -3   1   6 2452.65   69.69
  -2  -1   6  201.58   19.20
   2  -1  -6  167.68   19.40
  -2  -1   6  188.18   20.90
  -2  -1   6  228.18   19.60
   2  -1  -6  184.98   21.60
   2  -1  -6  200.38   20.30
   2  -1  -6  221.98   14.40
   2  -1  -6  190.08   22.80
  -2  -1   6  198.48    8.40
  -2  -1   6  178.58   19.00
  -2  -1   6  210.28   15.70
   2  -1  -6  178.88   18.50
  -2  -1   6  178.68   17.30
  -2  -1   6  214.48   20.10
   2  -1  -6  189.48   19.20
  -2   1   6  176.58   21.40
   2   1  -6  220.98   20.50
  -2   1   6  193.38   10.60
   2   1  -6  250.87   20.00
   2   1  -6  218.98   18.70
  -2   1   6  195.28   13.30
  -2   1   6  203.38   20.30
  -2   1   6  215.98   17.20
   2   1  -6  189.58   20.10
  -2   1   6  191.78   17.30
  -2   1   6  199.68   20.90
  -2   1   6  213.38   16.90
   2   1  -6  200.18   19.90
  -2   1   6  190.78   17.90
   2   1  -6  186.38   19.60
  -1  -1   6 3129.49   76.69
   1  -1  -6 2981.00   84.39
   1  -1  -6 3095.29   83.09
  -1  -1   6 3050.99   81.29
   1  -1  -6 3263.77   84.39
  -1  -1   6 3148.78   77.59
  -1  -1   6 3113.29   89.19
  -1  -1   6 3219.48   76.69
  -1  -1   6 3146.09   85.09
   1  -1  -6 3135.49   82.59
  -1  -1   6 3197.88   81.79
   1  -1  -6 3266.17   81.79
   1  -1  -6 3200.48   86.69
   1  -1  -6 3267.27   77.09
  -1  -1   6 3057.09   83.49
   1  -1  -6 3019.10   87.29
  -1   1   6 3148.59   77.29
   1   1  -6 3008.50   83.59
  -1   1   6 3220.28   77.79
   1   1  -6 3262.77   81.49
   1   1  -6 3095.79   87.79
  -1   1   6 3205.38   82.19
  -1   1   6 3200.48   82.39
   1   1  -6 3144.69   82.49
   1   1  -6 3081.49   81.19
  -1   1   6 3212.08   87.69
   1   1  -6 3341.47   84.79
   1   1  -6 3079.89   77.79
  -1   1   6 3216.28   83.49
   1   1  -6 3210.68   85.39
  -1   1   6 3097.29   89.49
   0  -1   6   43.90   13.50
   0  -1  -6   74.19   10.20
   0  -1  -6   70.79    8.80
   0  -1  -6   60.19   13.20
   0  -1  -6   51.99    8.70
   0  -1  -6   77.29    9.10
   0  -1   6   29.90   12.60
   0  -1   6   67.29    7.80
   0  -1   6   74.99   13.20
   0  -1  -6   52.59    9.60
   0  -1  -6   61.29    8.20
   0   1  -6   54.39    7.90
   0   1  -6   47.80    9.30
   0   1  -6   66.29   11.00
   0   1   6   64.69   14.80
   0   1  -6   50.99   13.00
   0   1  -6   75.19    9.00
   0   1   6   65.29    8.50
   0   1  -6   49.60    8.90
   0   1  -6   79.39    8.40
   0   1   6   72.99   10.10
   0   1  -6   67.39   13.60
   1  -1   6 2188.28   63.09
  -1  -1  -6 2130.69   58.79
   1  -1   6 2241.48   61.69
  -1  -1  -6 2150.58   65.59
  -1  -1  -6 2270.87   57.29
   1  -1   6 2163.88   62.39
  -1  -1  -6 2147.69   55.99
  -1  -1  -6 2218.58   64.39
  -1  -1  -6 2215.58   53.39
  -1  -1  -6 2319.37   71.09
   1  -1   6 2245.38   69.39
  -1  -1  -6 2242.68   58.59
  -1  -1  -6 2177.48   58.99
   1   1   6 2187.78   70.59
  -1   1  -6 2209.28   55.69
  -1   1  -6 2281.27   66.99
   1   1   6 2244.48   62.09
  -1   1  -6 2265.27   61.19
  -1   1  -6 2236.28   56.69
  -1   1  -6 2302.57   56.19
  -1   1  -6 2162.48   63.69
   1   1   6 2243.68   59.69
  -1   1  -6 2253.57   58.99
  -1   1  -6 2247.08   55.39
   2  -1   6  815.42   30.80
   2  -1   6  866.01   38.90
  -2  -1  -6  875.71   29.40
  -2  -1  -6  853.41   38.90
   2  -1   6  886.21   34.10
   2  -1   6  880.91   36.10
  -2  -1  -6  894.11   25.40
  -2  -1  -6  860.51   35.30
  -2  -1  -6  889.01   26.10
  -2  -1  -6  896.91   29.00
  -2   1  -6  866.41   33.80
  -2   1  -6  890.61   23.60
  -2   1  -6  910.01   23.60
  -2   1  -6  879.01   36.40
  -2   1  -6  908.21   23.00
  -2   1  -6  841.92   26.40
   2   1   6  911.71   36.20
  -2   1  -6  905.21   31.40
   2   1   6  910.61   40.90
   2   1   6  888.81   29.50
  -2   1  -6  802.52   37.10
  -3  -1  -6  706.33   19.30
  -3  -1  -6  707.13   20.20
  -3  -1  -6  687.93   19.30
   3  -1   6  685.33   31.40
  -3  -1  -6  733.63   35.60
   3  -1   6  726.93   35.40
   3  -1   6  698.03   28.10
   3  -1   6  702.33   36.10
  -3  -1  -6  712.73   31.50
  -3  -1  -6  656.13   24.50
   3   1   6  692.03   36.00
  -3   1  -6  635.84   31.40
   3   1   6  712.73   24.70
  -3   1  -6  732.43   33.50
  -3   1  -6  671.13   30.90
  -3   1  -6  680.03   33.10
   4  -1   6 1204.18   42.80
  -4  -1  -6 1189.68   42.80
   4  -1   6 1275.57   51.09
   4  -1   6 1192.98   39.30
  -4  -1  -6 1176.48   47.10
  -4  -1  -6 1290.07   32.80
  -4  -1  -6 1261.07   31.80
  -4   1  -6 1149.19   47.10
  -4   1  -6 1264.07   46.60
   4   1   6 1228.08   52.69
  -4   1  -6 1160.48   43.20
   4   1   6 1207.48   51.79
  -4   1  -6 1194.98   44.60
  -4   1  -6 1228.88   46.60
  -4   1  -6 1133.59   48.30
   5  -1   6   45.00   19.70
  -5  -1  -6   22.70   17.10
  -5  -1  -6   14.70    7.80
  -5  -1  -6   15.90    9.40
  -5  -1  -6   27.80   11.70
   5  -1   6   22.30   16.10
  -5  -1  -6   42.00   13.90
  -5  -1  -6   31.30   17.80
  -5   1  -6   27.50    8.20
   5   1   6   15.80   17.90
  -5   1  -6   36.70    7.20
  -5   1  -6   20.80   17.60
   5   1   6   41.00   16.40
  -5   1  -6   13.10   12.90
  -5   1  -6   35.60   15.70
  -5   1  -6   39.10   13.90
  -5   1  -6    9.40   17.20
   6  -1   6 1368.66   64.09
  -6  -1  -6 1386.56   40.70
   6  -1   6 1338.87   58.49
  -6  -1  -6 1328.97   63.99
  -6  -1  -6 1399.66   48.90
  -6  -1  -6 1353.86   40.80
  -6  -1  -6 1322.27   67.29
   6   1   6 1325.87   62.89
   6   1   6 1315.27   61.29
  -6   1  -6 1395.26   62.29
  -6   1  -6 1295.47   47.60
  -6   1  -6 1329.07   60.09
  -6   1  -6 1332.27   62.79
  -6   1  -6 1322.47   48.80
   7  -1   6  327.07   40.70
   7  -1   6  322.57   36.80
  -7  -1  -6  301.37   39.60
  -7  -1  -6  262.17   44.50
  -7   1  -6  291.07   43.60
  -7   1  -6  295.87   38.40
   7   1   6  219.88   34.50
   7   1   6  237.48   31.40
  -7   1  -6  212.48   34.70
  -9  -2   6 1538.35   65.79
  -9  -2   6 1624.74   76.39
   9  -2  -6 1508.25   87.89
   9  -2  -6 1577.84   71.59
   9  -2  -6 1437.86  105.59
  -9  -2   6 1524.25   83.49
   9  -2  -6 1578.24   67.59
  -9  -2   6 1553.34   81.69
  -9   2   6 1528.65   79.49
  -9   2   6 1459.75   78.59
  -9   2   6 1639.84   75.99
   9   2  -6 1562.04   87.89
   9   2  -6 1494.35   74.59
   9   2  -6 1438.96   63.99
   9   2  -6 1462.15   60.99
  -9   2   6 1620.74   84.59
  -8  -2   6   69.29   26.40
   8  -2  -6   51.09   22.40
   8  -2  -6   62.69   28.90
  -8  -2   6   41.50   26.20
  -8  -2   6   23.70   23.10
  -8  -2   6   34.50   19.00
  -8  -2   6    2.40   26.30
   8  -2  -6   20.50   26.30
   8  -2  -6    0.20   21.70
  -8   2   6   29.40   27.00
   8   2  -6   18.00   26.20
  -8   2   6    1.50   23.50
  -8   2   6    7.60   29.90
   8   2  -6   18.30   18.80
   8   2  -6   -0.90   18.40
   8   2  -6   31.90   26.50
  -8   2   6   42.40   25.20
  -7  -2   6 2401.36   83.39
  -7  -2   6 2459.15   89.19
   7  -2  -6 2359.56   82.09
  -7  -2   6 2464.45   81.89
   7  -2  -6 2550.24   73.99
   7  -2  -6 2600.44   91.69
   7  -2  -6 2410.46   83.99
  -7  -2   6 2418.96   88.89
   7   2  -6 2194.18   77.59
   7   2  -6 2509.35   90.19
   7   2  -6 2489.15   89.19
   7   2  -6 2441.96   78.49
  -7   2   6 2455.05   90.29
   7   2  -6 2473.65   77.89
  -7   2   6 2480.45   84.99
   7   2  -6 2423.36   84.39
  -7   2   6 2549.34   90.29
  -7   2   6 2557.34   85.69
   6  -2  -6   87.69   19.20
  -6  -2   6   35.60   15.80
  -6  -2   6   60.99   19.70
   6  -2  -6   53.49   18.30
   6  -2  -6   38.20   19.60
  -6  -2   6   34.50   18.30
   6  -2  -6   78.49   21.10
   6  -2  -6   51.49   14.90
  -6  -2   6   36.70   16.70
  -6   2   6   42.50   19.80
   6   2  -6   51.79   15.90
   6   2  -6   23.70   18.60
  -6   2   6   50.89   19.50
  -6   2   6   23.90   17.30
   6   2  -6   47.40   20.30
   6   2  -6   51.59   16.40
  -6   2   6   51.79   17.10
   6   2  -6   47.70   19.20
  -5  -2   6 1158.48   55.99
   5  -2  -6 1060.89   44.20
  -5  -2   6 1213.58   50.09
   5  -2  -6 1154.98   52.39
  -5  -2   6 1134.79   49.40
   5  -2  -6 1179.28   42.40
  -5  -2   6 1193.78   43.10
  -5  -2   6 1164.08   46.90
   5  -2  -6 1121.49   49.30
   5  -2  -6 1168.68   50.79
  -5   2   6 1290.47   49.20
   5   2  -6 1132.09   47.90
   5   2  -6 1130.69   50.89
  -5   2   6 1173.48   47.60
  -5   2   6 1148.59   51.49
  -5   2   6 1181.38   46.80
   5   2  -6 1116.69   51.19
   5   2  -6 1172.88   41.10
   5   2  -6 1174.48   47.20
  -5   2   6 1097.29   51.99
  -4  -2   6   21.00   12.10
  -4  -2   6   23.90   13.30
  -4  -2   6   17.00   13.10
  -4  -2   6   26.20   13.80
   4  -2  -6   17.00   11.80
   4  -2  -6   26.40   14.90
  -4  -2   6   26.40   13.70
   4  -2  -6   41.60   15.00
  -4  -2   6   30.50   12.40
   4  -2  -6   24.60   17.50
   4  -2  -6   34.50   15.50
   4   2  -6   62.09   17.20
  -4   2   6   55.79   15.40
  -4   2   6   30.80   17.90
  -4   2   6   21.60   15.50
   4   2  -6   11.70   12.30
   4   2  -6   25.90   14.10
  -4   2   6   33.10   14.30
  -4   2   6   22.80   11.80
  -4   2   6   56.69   16.50
   4   2  -6   17.60   14.00
  -4   2   6   16.50   11.80
   4   2  -6   20.30   13.50
   4   2  -6    9.90   13.40
  -4   2   6   17.90   15.80
  -3  -2   6   11.00    9.40
   3  -2  -6   -7.60   11.00
  -3  -2   6   11.80   13.60
   3  -2  -6   -4.40    9.60
   3  -2  -6   23.70   15.00
   3  -2  -6   13.50   11.80
  -3  -2   6    9.60   10.90
  -3  -2   6   16.70   11.20
  -3  -2   6    4.00   12.50
   3  -2  -6    0.10   12.00
   3  -2  -6   27.40   14.00
   3  -2  -6   19.30   11.50
  -3  -2   6   22.90   11.00
   3  -2  -6   15.40   13.60
  -3  -2   6   11.20    5.60
   3  -2  -6   23.70   13.00
  -3  -2   6    1.80   11.60
  -3  -2   6    0.90   10.10
  -3   2   6    4.30   11.60
  -3   2   6   14.70   13.40
  -3   2   6   16.20   13.00
   3   2  -6   12.10   10.70
  -3   2   6   -1.40    9.40
  -3   2   6    4.00   10.20
  -3   2   6  -20.60   10.20
   3   2  -6   12.40   11.50
   3   2  -6    8.50   12.30
  -3   2   6   29.90   15.20
   3   2  -6    1.00   10.90
   3   2  -6    7.30   11.50
   3   2  -6    5.70   12.40
   3   2  -6    1.90    9.90
  -2  -2   6  166.08   15.80
  -2  -2   6  143.89   16.20
   2  -2  -6  183.48   18.90
  -2  -2   6  150.78   17.50
   2  -2  -6  155.18   19.60
   2  -2  -6  125.89   18.60
   2  -2  -6  137.39   16.40
   2  -2  -6  139.89   15.70
  -2  -2   6  138.99   17.20
  -2  -2   6  125.99   15.50
  -2  -2   6  146.59   15.20
   2  -2  -6  150.18   19.20
   2  -2  -6  115.99   17.80
  -2  -2   6  147.29   15.40
   2  -2  -6  118.49   16.20
   2  -2  -6  148.39   18.80
   2   2  -6  157.98   18.60
   2   2  -6  116.19   16.40
  -2   2   6  165.28   19.80
  -2   2   6  104.59   13.20
  -2   2   6  124.39   14.10
  -2   2   6  151.48   17.20
  -2   2   6  170.18   16.40
  -2   2   6  134.09    8.60
   2   2  -6  130.89   15.60
  -2   2   6  141.09   17.60
   2   2  -6  129.19   16.50
   2   2  -6  148.29   18.30
  -2   2   6  177.38   21.40
   2   2  -6  138.49   15.40
   2   2  -6  132.99   16.40
  -2   2   6  171.38   21.10
  -1  -2   6  159.58   21.80
  -1  -2   6  147.29   17.60
   1  -2  -6  212.38   23.70
   1  -2  -6  190.18   18.50
   1  -2  -6  148.89   18.90
  -1  -2   6  120.99   15.00
  -1  -2   6  176.98   19.20
   1  -2  -6  167.98   18.40
  -1  -2   6  163.78   11.90
  -1  -2   6  176.98   17.60
   1  -2  -6  156.98   18.20
  -1  -2   6  136.69   11.40
   1  -2  -6  142.29   17.60
  -1  -2   6  181.68   14.40
  -1  -2   6  173.98   14.70
   1  -2  -6  172.48   16.30
   1   2  -6  149.49   15.80
  -1   2   6  178.48   17.60
  -1   2   6  135.79   12.90
   1   2  -6  151.08   16.50
   1   2  -6  183.68   19.90
   1   2  -6  124.99   15.40
  -1   2   6  179.48   15.10
   1   2  -6  148.89   14.20
   1   2  -6  149.99   15.30
  -1   2   6  172.38   15.10
  -1   2   6  175.98   21.00
   1   2  -6  175.28   17.00
   1   2  -6  182.38   17.70
  -1   2   6  131.79   17.70
  -1   2   6  178.68   20.90
   0  -2  -6   74.69   10.30
   0  -2  -6   81.59   15.70
   0  -2   6   90.29   14.00
   0  -2  -6   92.99   15.30
   0  -2   6   62.39   12.70
   0  -2  -6   74.49    9.90
   0  -2   6   71.99    8.30
   0  -2  -6   65.59   10.80
   0  -2  -6   66.89   10.30
   0  -2  -6   66.59   10.20
   0  -2   6  106.89   16.80
   0  -2   6   70.39   10.10
   0  -2  -6   87.59   11.20
   0   2  -6   79.29    9.90
   0   2  -6   71.79    9.00
   0   2   6   76.59    9.90
   0   2  -6   70.39    9.50
   0   2  -6   62.69    9.40
   0   2   6   71.69    8.90
   0   2  -6   68.29   10.30
   0   2   6   82.99   16.40
   0   2   6   76.89   13.90
   0   2  -6   96.29   13.90
   0   2   6  105.89   13.50
   0   2  -6   65.09   14.00
   0   2  -6   77.99   10.90
  -1  -2  -6  455.55   26.60
  -1  -2  -6  398.56   18.70
  -1  -2  -6  414.06   19.70
   1  -2   6  393.36   23.00
  -1  -2  -6  379.06   19.90
   1  -2   6  427.96   25.30
  -1  -2  -6  426.26   22.90
   1  -2   6  415.86   27.30
  -1  -2  -6  400.86   27.70
  -1  -2  -6  390.96   17.60
   1  -2   6  425.86   25.40
  -1  -2  -6  418.96   18.70
   1   2   6  422.56   20.90
  -1   2  -6  412.66   17.50
   1   2   6  391.86   28.40
  -1   2  -6  406.36   18.20
  -1   2  -6  405.56   24.20
   1   2   6  425.56   16.00
  -1   2  -6  425.06   17.00
  -1   2  -6  416.36   15.70
   1   2   6  413.16   25.00
  -1   2  -6  460.55   19.60
  -1   2  -6  415.96   17.70
   1   2   6  409.86   15.10
   2  -2   6  -10.90   12.50
  -2  -2  -6   26.10    7.70
  -2  -2  -6   18.20    6.80
  -2  -2  -6   18.10    6.10
  -2  -2  -6   15.10    5.80
  -2  -2  -6   11.60   10.80
  -2  -2  -6    7.80    6.10
  -2  -2  -6   39.90    7.00
   2  -2   6   22.30   11.60
  -2  -2  -6   18.60   12.00
   2  -2   6   31.50   13.10
   2  -2   6   20.50   12.30
  -2   2  -6   26.00    8.80
  -2   2  -6   25.30   11.60
  -2   2  -6   25.30    4.90
  -2   2  -6   16.50    4.50
   2   2   6   13.10   12.60
  -2   2  -6   -9.60    8.80
   2   2   6   -1.90   13.00
   2   2   6    5.50    9.50
  -3  -2  -6 1694.83   45.10
  -3  -2  -6 1685.33   44.30
  -3  -2  -6 1705.63   45.60
  -3  -2  -6 1668.63   44.60
   3  -2   6 1789.92   59.79
   3  -2   6 1657.53   57.39
   3  -2   6 1678.53   50.89
   3  -2   6 1725.83   54.49
  -3  -2  -6 1593.54   58.29
  -3  -2  -6 1675.73   44.40
  -3   2  -6 1613.34   54.59
   3   2   6 1674.83   61.79
  -3   2  -6 1668.13   40.80
  -3   2  -6 1724.73   56.79
   3   2   6 1709.43   58.49
   3   2   6 1649.54   42.40
  -3   2  -6 1733.83   55.29
  -3   2  -6 1704.03   51.49
   4  -2   6   38.20   16.60
  -4  -2  -6   59.39    7.40
   4  -2   6   67.29   16.40
  -4  -2  -6   67.19   13.10
  -4  -2  -6   51.99    7.30
  -4  -2  -6   65.79    9.00
   4  -2   6   46.10   15.40
  -4  -2  -6   47.60   15.30
  -4  -2  -6   49.00    9.70
   4  -2   6   69.39   14.30
  -4   2  -6   67.39   16.40
  -4   2  -6   45.30   16.10
   4   2   6   47.00   18.30
  -4   2  -6   71.59    8.20
   4   2   6   45.50   16.60
  -4   2  -6   15.30   12.50
  -5  -2  -6 1617.44   42.60
  -5  -2  -6 1668.73   51.49
  -5  -2  -6 1555.24   47.70
   5  -2   6 1591.04   65.39
  -5  -2  -6 1709.43   58.29
   5  -2   6 1659.73   56.09
  -5  -2  -6 1602.64   66.29
  -5  -2  -6 1678.43   51.69
   5  -2   6 1628.34   60.19
  -5  -2  -6 1630.44   46.10
  -5  -2  -6 1649.04   47.60
  -5   2  -6 1688.43   55.39
   5   2   6 1625.34   66.19
  -5   2  -6 1682.33   43.10
   5   2   6 1577.04   65.69
  -5   2  -6 1635.94   58.09
  -5   2  -6 1626.34   44.00
  -5   2  -6 1749.53   65.39
  -5   2  -6 1580.24   63.59
  -6  -2  -6   13.10   22.90
  -6  -2  -6   13.00   15.10
  -6  -2  -6   -5.90    6.20
  -6  -2  -6   -1.60   13.60
   6  -2   6   -4.10   19.30
   6  -2   6   -5.10   19.00
   6   2   6  -37.10   17.50
  -6   2  -6  -20.60   18.40
   6   2   6   -2.00   19.70
  -6   2  -6  -32.00   20.30
   7  -2   6  943.11   60.19
   7  -2   6  928.81   51.79
  -7   2  -6  790.32   46.50
   7   2   6  868.61   57.99
  -7   2  -6  883.41   66.39
   7   2   6  856.41   55.89
  -7   2  -6  914.11   57.09
  -7   2  -6  846.42   66.79
   8  -3  -6  962.70   55.79
  -8  -3   6  996.40   57.19
  -8  -3   6  941.81   66.29
   8  -3  -6 1022.50   59.19
   8  -3  -6  918.11   50.19
   8  -3  -6  852.31   60.79
  -8  -3   6  891.41   48.10
  -8  -3   6  970.10   64.49
  -8  -3   6 1006.60   58.39
  -8   3   6 1017.50   66.09
  -8   3   6  969.40   66.29
  -8   3   6  935.61   59.89
   8   3  -6  831.72   56.09
  -8   3   6  998.70   62.39
   8   3  -6  988.80   49.10
   8   3  -6  992.00   60.89
   8   3  -6  979.60   47.20
  -8   3   6 1081.29   53.29
  -7  -3   6  -35.70   16.60
  -7  -3   6   21.00   23.80
  -7  -3   6   -9.60   21.20
   7  -3  -6    9.10   18.90
   7  -3  -6    8.80   18.70
   7  -3  -6   30.00   23.70
  -7  -3   6   15.00   18.70
   7  -3  -6    3.40   20.30
   7  -3  -6   13.80   14.70
  -7  -3   6   12.50   15.90
   7   3  -6   29.40   17.00
  -7   3   6    0.60   22.50
  -7   3   6   -1.90   18.20
   7   3  -6  -14.20   17.20
   7   3  -6   12.90   21.50
  -7   3   6  -15.60   17.80
   7   3  -6   10.70   21.80
   7   3  -6   51.39   23.10
  -7   3   6   24.60   23.20
  -7   3   6   13.90   19.90
   6  -3  -6 1352.06   51.29
  -6  -3   6 1393.56   53.39
   6  -3  -6 1341.97   57.89
   6  -3  -6 1410.16   58.79
   6  -3  -6 1481.05   52.29
  -6  -3   6 1339.17   60.29
   6  -3  -6 1368.86   65.69
  -6  -3   6 1383.46   54.69
  -6  -3   6 1345.17   59.19
  -6  -3   6 1399.26   55.99
   6   3  -6 1410.76   53.69
   6   3  -6 1438.46   50.19
  -6   3   6 1375.66   62.29
  -6   3   6 1387.56   57.89
   6   3  -6 1374.76   61.19
  -6   3   6 1378.26   56.69
  -6   3   6 1465.45   56.19
  -6   3   6 1508.45   64.49
   6   3  -6 1443.66   60.09
   6   3  -6 1398.26   63.29
   5  -3  -6  625.14   39.70
  -5  -3   6  595.84   36.80
  -5  -3   6  565.24   33.20
   5  -3  -6  576.24   37.10
   5  -3  -6  555.34   31.90
   5  -3  -6  581.24   37.60
  -5  -3   6  524.45   32.50
  -5  -3   6  619.74   36.50
   5  -3  -6  552.44   32.90
  -5  -3   6  591.94   30.30
   5   3  -6  563.74   32.30
  -5   3   6  573.14   38.60
  -5   3   6  537.15   38.00
   5   3  -6  553.54   38.30
  -5   3   6  522.15   34.40
  -5   3   6  631.04   36.20
   5   3  -6  593.44   30.60
   5   3  -6  610.84   38.60
   5   3  -6  554.24   35.30
  -5   3   6  610.04   35.10
  -4  -3   6 1144.29   46.60
  -4  -3   6 1132.29   45.10
   4  -3  -6 1142.49   46.70
   4  -3  -6 1101.99   49.00
  -4  -3   6 1131.79   51.49
  -4  -3   6 1146.79   47.80
   4  -3  -6 1136.49   45.30
   4  -3  -6 1105.29   50.99
  -4  -3   6 1168.58   43.80
   4  -3  -6 1171.28   45.90
  -4  -3   6 1110.69   44.80
  -4  -3   6 1133.59   46.90
   4  -3  -6 1141.79   49.40
   4   3  -6 1114.19   48.10
  -4   3   6 1117.49   47.00
  -4   3   6 1120.89   46.50
   4   3  -6 1102.99   44.80
   4   3  -6 1160.28   49.50
  -4   3   6 1035.00   48.30
  -4   3   6 1144.59   44.10
   4   3  -6 1140.79   45.40
  -4   3   6 1145.99   45.00
  -4   3   6 1164.18   49.20
  -4   3   6 1180.58   45.20
   4   3  -6 1135.29   49.80
   4   3  -6 1135.69   45.40
  -3  -3   6  791.72   34.00
  -3  -3   6  823.72   35.30
  -3  -3   6  829.42   35.20
  -3  -3   6  764.82   38.90
   3  -3  -6  809.12   39.70
   3  -3  -6  786.62   38.00
   3  -3  -6  886.71   41.50
   3  -3  -6  882.71   36.50
  -3  -3   6  827.92   26.20
  -3  -3   6  828.92   37.80
  -3  -3   6  857.41   37.40
   3  -3  -6  863.91   39.40
   3  -3  -6  804.72   40.50
   3  -3  -6  805.02   39.50
  -3  -3   6  824.32   34.30
   3  -3  -6  839.02   38.10
   3   3  -6  886.01   39.90
  -3   3   6  851.21   39.40
  -3   3   6  832.02   37.70
   3   3  -6  821.92   35.70
  -3   3   6  789.32   34.90
  -3   3   6  855.61   40.20
   3   3  -6  774.32   37.70
   3   3  -6  801.72   34.60
   3   3  -6  803.92   38.90
  -3   3   6  848.12   35.10
  -3   3   6  758.62   35.60
  -3   3   6  868.81   35.30
  -3   3   6  826.72   40.10
   3   3  -6  833.42   37.20
   3   3  -6  802.82   36.70
   2  -3  -6  111.89   14.40
  -2  -3   6  129.79    6.20
  -2  -3   6  154.78   17.90
   2  -3  -6  132.19   17.60
  -2  -3   6  156.78   16.90
  -2  -3   6  103.09   12.90
   2  -3  -6  129.49   19.00
  -2  -3   6  148.59   16.70
   2  -3  -6  135.99   17.60
   2  -3  -6  144.49   19.80
  -2  -3   6   97.39   13.50
   2  -3  -6  114.99   18.90
  -2  -3   6  150.18   18.70
   2  -3  -6  151.08   16.60
  -2  -3   6  106.59   16.80
  -2  -3   6  134.89    6.60
   2  -3  -6  124.29   16.10
  -2  -3   6  126.89   14.70
  -2  -3   6  126.89   16.00
   2   3  -6  124.19   18.00
   2   3  -6  133.59   15.90
  -2   3   6  120.39   13.80
  -2   3   6  138.09   14.60
   2   3  -6  116.39   17.20
   2   3  -6  100.19   14.50
  -2   3   6  136.89   15.40
  -2   3   6  142.79   18.70
  -2   3   6  136.99    8.60
   2   3  -6  101.99   14.60
  -2   3   6  132.39   18.40
   2   3  -6  121.69   16.20
  -2   3   6  127.49   17.60
   2   3  -6  119.69   15.20
  -2   3   6  137.79   15.70
   1  -3  -6 1293.87   47.80
  -1  -3   6 1276.37   46.90
   1  -3  -6 1250.37   39.50
   1  -3  -6 1226.68   46.90
  -1  -3   6 1264.67   44.30
   1  -3  -6 1206.48   48.50
  -1  -3   6 1262.87   41.20
  -1  -3   6 1293.87   41.80
   1  -3  -6 1188.88   41.50
  -1  -3   6 1173.28   46.00
   1  -3  -6 1160.28   44.10
   1  -3  -6 1335.77   42.30
   1  -3  -6 1330.37   44.90
  -1  -3   6 1267.97   44.90
  -1  -3   6 1251.67   41.70
  -1  -3   6 1307.07   36.90
  -1   3   6 1283.47   43.80
   1   3  -6 1144.19   43.70
  -1   3   6 1294.07   48.10
   1   3  -6 1301.17   37.10
   1   3  -6 1347.87   44.00
   1   3  -6 1256.77   41.90
   1   3  -6 1212.88   41.90
   1   3  -6 1242.58   43.40
  -1   3   6 1336.47   46.70
  -1   3   6 1216.28   38.30
   1   3  -6 1299.67   41.60
  -1   3   6 1248.88   42.30
   0  -3   6  462.75   20.20
   0  -3  -6  485.85   24.20
   0  -3  -6  482.55   28.90
   0  -3   6  478.85   27.90
   0  -3   6  560.64   24.90
   0  -3  -6  499.25   25.20
   0  -3   6  490.55   28.30
   0  -3  -6  466.65   22.90
   0  -3   6  492.15   20.30
   0  -3  -6  465.25   19.40
   0  -3  -6  444.06   29.30
   0  -3   6  433.16   26.80
   0  -3  -6  432.16   24.10
   0   3   6  469.25   23.50
   0   3  -6  480.45   23.00
   0   3  -6  501.65   27.00
   0   3   6  437.96   24.00
   0   3  -6  457.75   21.50
   0   3   6  484.75   31.30
   0   3   6  454.45   16.60
   0   3  -6  449.16   20.70
   0   3  -6  474.45   17.60
   0   3   6  472.55   27.90
   0   3   6  470.75   16.30
   0   3   6  473.55   18.80
   0   3  -6  507.75   23.10
   0   3  -6  459.25   24.40
   0   3   6  456.15   21.30
   1  -3   6 1910.61   59.69
  -1  -3  -6 2037.50   55.89
   1  -3   6 2021.60   48.80
   1  -3   6 1953.20   57.99
  -1  -3  -6 1938.01   56.69
  -1  -3  -6 1905.51   61.49
  -1  -3  -6 1980.70   66.69
  -1  -3  -6 2011.60   55.29
   1  -3   6 2032.40   48.70
  -1  -3  -6 2003.00   50.09
  -1  -3  -6 2001.40   60.19
  -1  -3  -6 2006.40   57.09
   1  -3   6 2095.99   63.29
   1  -3   6 2045.30   64.59
   1   3   6 1972.00   59.59
  -1   3  -6 1976.80   61.89
  -1   3  -6 1944.11   54.89
  -1   3  -6 2023.30   53.39
  -1   3  -6 2077.09   50.49
  -1   3  -6 1917.41   60.29
   1   3   6 2030.00   54.39
   1   3   6 2017.40   67.49
  -1   3  -6 1988.70   50.09
  -1   3  -6 2043.60   54.49
  -2  -3  -6 1165.68   36.00
   2  -3   6 1203.98   46.20
   2  -3   6 1133.99   40.90
  -2  -3  -6 1150.98   29.00
   2  -3   6 1222.68   44.40
  -2  -3  -6 1136.69   35.60
   2  -3   6 1182.38   43.00
  -2  -3  -6 1138.29   47.90
  -2  -3  -6 1199.68   34.50
  -2  -3  -6 1169.88   42.10
  -2  -3  -6 1205.28   37.30
  -2  -3  -6 1036.70   36.00
  -2   3  -6 1171.58   33.20
  -2   3  -6 1131.79   43.70
   2   3   6 1150.08   44.00
  -2   3  -6 1142.19   33.60
   2   3   6 1170.88   28.70
   2   3   6 1162.08   28.60
  -2   3  -6 1184.18   34.40
  -2   3  -6 1145.89   37.10
  -2   3  -6 1103.29   43.00
  -2   3  -6 1156.78   32.80
   2   3   6 1144.59   50.59
   2   3   6 1174.38   34.50
  -2   3  -6 1190.68   33.70
   3  -3   6  489.25   32.40
   3  -3   6  563.74   31.70
   3  -3   6  554.44   30.70
  -3  -3  -6  551.14   23.90
   3  -3   6  550.94   28.40
  -3  -3  -6  525.15   30.10
  -3  -3  -6  521.05   22.30
  -3  -3  -6  575.44   26.70
  -3  -3  -6  544.95   21.70
  -3  -3  -6  551.94   33.50
  -3   3  -6  509.35   18.40
   3   3   6  528.45   35.60
  -3   3  -6  531.65   18.00
  -3   3  -6  507.55   22.60
  -3   3  -6  464.55   27.50
  -3   3  -6  487.15   18.30
  -3   3  -6  540.35   19.50
  -3   3  -6  527.85   32.10
   3   3   6  502.95   32.40
  -3   3  -6  462.25   29.40
  -4  -3  -6 1949.60   66.49
  -4  -3  -6 1977.50   46.90
  -4  -3  -6 1924.81   54.19
   4  -3   6 1894.01   69.49
  -4  -3  -6 1965.50   53.89
   4  -3   6 2064.59   65.39
   4  -3   6 1865.71   59.89
  -4  -3  -6 1939.61   53.79
   4  -3   6 2004.70   66.09
  -4  -3  -6 1937.11   47.00
  -4  -3  -6 1996.40   55.29
  -4  -3  -6 1890.71   62.89
  -4   3  -6 2009.10   47.20
   4   3   6 1993.20   74.09
  -4   3  -6 2124.89   75.09
  -4   3  -6 1917.31   64.79
  -4   3  -6 2049.09   51.09
  -4   3  -6 2004.50   47.10
   4   3   6 1893.41   69.89
  -4   3  -6 1966.60   69.19
  -4   3  -6 1967.50   50.59
   5  -3   6   70.89   21.70
  -5  -3  -6   59.29    9.00
   5  -3   6   46.80   20.80
  -5  -3  -6   35.20   16.90
  -5  -3  -6   64.09   17.50
   5  -3   6   81.29   18.30
  -5  -3  -6   58.89   10.20
  -5  -3  -6   52.39   20.10
  -5  -3  -6   50.89   11.00
  -5  -3  -6   52.79    7.30
  -5  -3  -6   65.79    8.30
  -5  -3  -6   45.50   10.30
  -5   3  -6   27.20   18.10
  -5   3  -6   62.79   10.40
  -5   3  -6   29.10   18.70
   5   3   6   69.69   21.20
   5   3   6   28.70   18.90
  -5   3  -6   28.60   14.20
  -5   3  -6   22.90   19.60
  -6  -3  -6 1063.79   46.50
   6  -3   6  974.20   57.29
   6  -3   6 1112.49   50.69
  -6  -3  -6 1081.29   65.89
  -6  -3  -6 1020.80   34.40
  -6  -3  -6  999.80   35.30
   6  -3   6 1074.79   49.10
  -6   3  -6 1055.69   50.19
   6   3   6 1037.90   58.59
  -6   3  -6 1116.09   58.09
  -6   3  -6 1099.19   62.69
   6   3   6 1040.60   58.49
   7  -3   6  165.68   34.00
   7   3   6  117.99   28.80
  -8  -4   6   61.79   20.10
  -8  -4   6   46.50   32.20
  -8  -4   6   15.90   25.50
   8  -4  -6   17.60   29.10
   8  -4  -6   49.60   21.70
   8  -4  -6   48.00   29.70
   8  -4  -6   19.60   28.20
   8   4  -6   35.20   28.80
  -8   4   6   43.00   33.20
   8   4  -6  -44.60   27.30
   8   4  -6   55.89   21.60
   8   4  -6   40.60   21.40
  -7  -4   6   57.49   20.80
   7  -4  -6   31.70   22.70
  -7  -4   6   62.29   23.40
  -7  -4   6    7.90   17.00
  -7  -4   6   54.99   25.80
   7  -4  -6   21.70   22.60
   7  -4  -6   37.50   16.00
  -7  -4   6   69.69   28.60
   7  -4  -6   23.20   17.70
   7  -4  -6    6.40   20.80
  -7   4   6   25.10   21.60
   7   4  -6   38.70   23.10
  -7   4   6   52.99   21.30
   7   4  -6   16.80   17.30
  -7   4   6   25.40   23.40
  -7   4   6   76.79   27.60
   7   4  -6   37.00   18.60
  -7   4   6    7.60   22.60
   7   4  -6   28.10   23.80
   7   4  -6   63.39   24.50
   6  -4  -6  888.01   41.30
   6  -4  -6  862.41   51.39
  -6  -4   6  820.02   48.70
   6  -4  -6  857.51   47.20
  -6  -4   6  838.52   42.90
  -6  -4   6  888.11   48.80
  -6  -4   6  883.01   44.00
   6  -4  -6  864.11   42.50
   6  -4  -6  899.81   50.89
   6   4  -6  878.61   40.50
  -6   4   6  916.81   46.40
  -6   4   6  966.50   44.50
   6   4  -6  877.81   46.70
   6   4  -6  906.71   50.19
   6   4  -6  889.61   50.79
  -6   4   6  830.52   49.20
  -6   4   6  857.91   52.19
   6   4  -6  848.62   42.20
  -6   4   6  873.41   48.50
  -5  -4   6  100.29   18.80
  -5  -4   6   79.79   19.00
  -5  -4   6   82.59   17.90
  -5  -4   6   77.09   20.30
   5  -4  -6   64.89   21.30
   5  -4  -6   75.89   16.90
   5  -4  -6   63.09   18.30
   5  -4  -6   62.69   19.70
  -5   4   6   36.10   19.20
  -5   4   6   63.49   18.20
   5   4  -6  103.79   19.70
   5   4  -6   86.99   17.00
   5   4  -6   88.89   21.20
  -5   4   6   88.69   18.30
  -5   4   6   61.89   20.80
  -5   4   6   94.59   19.30
   5   4  -6   73.69   19.50
   5   4  -6   67.79   16.40
   4  -4  -6 2263.67   76.89
  -4  -4   6 2154.18   68.29
  -4  -4   6 2236.18   70.39
   4  -4  -6 2245.68   72.49
   4  -4  -6 2191.48   75.29
  -4  -4   6 2161.78   68.59
   4  -4  -6 2239.48   72.79
   4  -4  -6 2231.88   72.79
  -4  -4   6 2168.98   73.09
   4   4  -6 2200.68   62.79
   4   4  -6 2330.27   69.59
  -4   4   6 2318.67   71.89
  -4   4   6 2350.96   69.99
   4   4  -6 2213.08   75.49
  -4   4   6 2231.48   74.99
   4   4  -6 2229.28   77.29
   4   4  -6 2184.48   70.89
  -4   4   6 2130.49   70.19
   4   4  -6 2112.29   72.79
   4   4  -6 2211.58   69.89
  -3  -4   6   55.39   13.50
  -3  -4   6   22.70   12.50
   3  -4  -6   32.10   13.50
   3  -4  -6   46.70   16.10
  -3  -4   6   53.59   14.40
  -3  -4   6   25.80   13.30
  -3  -4   6   12.40   13.80
   3  -4  -6   51.49   16.10
   3  -4  -6   13.30   16.80
   3  -4  -6   31.40   14.80
   3  -4  -6   25.60   15.20
  -3  -4   6   11.20   14.10
  -3   4   6   39.40   15.00
  -3   4   6   25.20   13.50
   3   4  -6   33.10   14.00
  -3   4   6   46.70    8.40
  -3   4   6   25.60   13.20
   3   4  -6   36.50   14.40
  -3   4   6   29.40   15.00
   3   4  -6   14.90   12.90
   3   4  -6   41.00   11.00
  -3   4   6   45.40   13.20
   3   4  -6   33.30   12.70
   3   4  -6   40.70   15.90
   2  -4  -6 3603.44   96.49
  -2  -4   6 3625.04  102.69
  -2  -4   6 3598.44   90.79
  -2  -4   6 3520.65   98.99
   2  -4  -6 3469.25  102.09
  -2  -4   6 3426.86   96.99
   2  -4  -6 3634.34  102.89
  -2  -4   6 3532.15   92.59
   2  -4  -6 3592.24   98.29
  -2  -4   6 3392.36   97.79
  -2  -4   6 3465.25   97.19
  -2  -4   6 3706.53   92.89
  -2  -4   6 3657.93   97.79
   2  -4  -6 3687.73  100.59
   2  -4  -6 3340.57   95.79
   2  -4  -6 3446.66  102.19
   2  -4  -6 3504.25  100.39
  -2  -4   6 3609.74   84.49
   2   4  -6 3727.93   98.99
  -2   4   6 3545.05  101.29
   2   4  -6 3576.94   99.79
  -2   4   6 3710.43   95.69
  -2   4   6 3658.03   85.39
  -2   4   6 3770.12   94.29
   2   4  -6 3783.92   90.79
  -2   4   6 3622.14   94.49
   2   4  -6 3540.25   95.49
   2   4  -6 3536.35   96.59
  -2   4   6 3398.66   99.39
   2   4  -6 3581.44   97.79
  -2   4   6 3595.64   98.89
  -2   4   6 3573.44   97.29
   2   4  -6 3560.24   98.99
  -2   4   6 3620.84  100.39
   1  -4  -6   -5.70   10.60
   1  -4  -6   13.10   11.50
  -1  -4   6   17.40    8.20
  -1  -4   6   25.00   13.50
   1  -4  -6  -11.10   10.10
  -1  -4   6   19.50   10.10
   1  -4  -6    9.70   12.10
   1  -4  -6   -5.80   11.90
   1  -4  -6   14.30   11.20
  -1  -4   6   -0.30   10.60
  -1  -4   6    5.80   10.80
   1  -4  -6   -6.30   12.00
  -1  -4   6    4.90    7.30
   1  -4  -6  -17.30   14.30
   1   4  -6    2.40    9.80
   1   4  -6   13.90   11.40
  -1   4   6   15.10   12.90
  -1   4   6   -3.50    8.80
   1   4  -6   -8.40    9.80
  -1   4   6    7.40    9.20
   1   4  -6    1.90    9.00
   1   4  -6    8.80   11.80
  -1   4   6   -0.10    8.00
  -1   4   6    3.40   14.10
  -1   4   6    2.20    7.50
  -1   4   6    3.10   12.60
   1   4  -6   12.80    9.60
   1   4  -6    1.70    5.10
   0  -4  -6 1165.48   43.10
   0  -4  -6 1217.88   44.30
   0  -4   6 1230.88   29.50
   0  -4   6 1172.08   43.50
   0  -4  -6 1133.79   44.80
   0  -4   6 1186.78   46.20
   0  -4   6 1236.08   47.20
   0  -4  -6 1215.88   41.20
   0  -4  -6 1159.18   48.90
   0  -4   6 1181.98   43.40
   0  -4   6 1188.48   38.20
   0  -4   6 1235.78   38.60
   0   4   6 1218.38   35.90
   0   4  -6 1146.69   40.70
   0   4   6 1169.58   41.20
   0   4  -6 1265.57   40.90
   0   4  -6 1141.69   44.20
   0   4  -6 1178.08   43.60
   0   4   6 1082.39   39.00
   0   4   6 1168.08   45.10
   0   4   6 1228.18   48.80
   0   4  -6 1232.38   39.70
   0   4   6 1194.48   39.90
   0   4   6 1191.98   33.30
   0   4  -6 1136.89   44.70
  -1  -4  -6  136.19   17.70
   1  -4   6  123.29   17.90
  -1  -4  -6  113.19   14.30
   1  -4   6  155.48   17.80
  -1  -4  -6  125.99   15.30
  -1  -4  -6  115.39   13.90
   1  -4   6  134.49   11.20
   1  -4   6  142.19   11.90
  -1  -4  -6  135.89   19.20
   1  -4   6  131.09   19.00
  -1  -4  -6  133.09   15.10
  -1  -4  -6  123.89   19.20
   1  -4   6  104.99   16.10
  -1  -4  -6  135.29    7.90
   1   4   6  140.09   14.40
  -1   4  -6  142.69   11.10
   1   4   6  155.68   16.60
  -1   4  -6  130.09   13.50
  -1   4  -6  117.99   16.70
  -1   4  -6  125.59   15.20
   1   4   6  133.49   17.30
  -1   4  -6  125.39   15.40
   1   4   6  176.98   18.60
  -1   4  -6  133.09   15.20
  -1   4  -6  100.09   15.70
  -2  -4  -6  846.12   38.80
  -2  -4  -6  933.41   42.10
   2  -4   6  941.01   40.40
  -2  -4  -6  920.61   37.60
  -2  -4  -6  896.51   33.80
  -2  -4  -6  915.41   29.90
   2  -4   6  944.61   38.50
   2  -4   6  939.31   37.80
  -2  -4  -6  929.61   33.60
   2  -4   6  949.21   40.60
  -2  -4  -6  944.81   44.50
  -2   4  -6  933.21   32.60
  -2   4  -6  868.91   39.10
   2   4   6  926.31   31.20
  -2   4  -6  886.81   39.70
   2   4   6  956.70   29.50
   2   4   6  910.81   29.30
  -2   4  -6  905.21   31.60
  -2   4  -6  940.61   31.20
  -2   4  -6  968.50   30.50
  -2   4  -6  915.61   30.90
   2   4   6  950.90   40.70
   2   4   6  872.71   43.90
  -3  -4  -6   43.80   13.40
  -3  -4  -6   46.60   12.40
  -3  -4  -6   25.00   10.20
  -3  -4  -6   69.49   11.80
   3  -4   6   35.10   13.70
  -3  -4  -6   37.60   12.40
  -3  -4  -6   47.10   10.60
  -3  -4  -6   56.99   16.70
   3  -4   6   27.30   12.80
   3  -4   6   50.49   15.20
  -3   4  -6   42.50    8.20
  -3   4  -6   47.10    8.60
   3   4   6   29.10   16.90
  -3   4  -6   53.59   16.00
  -3   4  -6   39.50   15.30
  -3   4  -6   36.80    8.20
  -3   4  -6   38.50   13.10
   3   4   6   54.29   17.20
  -3   4  -6   41.20    7.50
  -3   4  -6   42.00    9.80
  -4  -4  -6  433.46   28.40
  -4  -4  -6  481.25   24.50
   4  -4   6  500.65   39.50
  -4  -4  -6  463.65   25.00
  -4  -4  -6  458.15   35.30
   4  -4   6  500.15   35.30
   4  -4   6  496.45   31.10
   4  -4   6  485.15   29.00
  -4  -4  -6  485.05   35.00
  -4  -4  -6  461.65   22.10
  -4   4  -6  453.25   36.30
   4   4   6  491.95   35.40
  -4   4  -6  473.45   21.20
  -4   4  -6  461.15   19.40
  -4   4  -6  454.95   32.30
  -4   4  -6  464.75   20.10
   4   4   6  480.65   38.80
  -4   4  -6  460.95   23.80
  -4   4  -6  432.66   22.40
  -5  -4  -6   64.79   19.60
  -5  -4  -6   56.79   12.90
   5  -4   6   60.89   19.50
   5  -4   6   79.29   19.00
  -5  -4  -6   69.29   12.80
  -5  -4  -6   71.29   15.50
   5  -4   6   95.49   24.20
   5   4   6   59.09   21.40
  -5   4  -6   76.49   23.30
   5   4   6   50.99   22.00
  -5   4  -6   52.99   14.90
  -5   4  -6   62.89   11.90
  -5   4  -6   81.69   21.60
  -5   4  -6   58.99    8.10
  -5   4  -6   65.89    8.80
   6  -4   6   -3.30   19.40
  -6  -4  -6   20.20   12.50
  -6  -4  -6  -15.00   18.40
  -6  -4  -6   25.30   18.90
  -6  -4  -6    4.90   28.40
   6  -4   6   43.60   22.60
  -6   4  -6   17.60   18.50
   6   4   6   14.20   20.90
  -6   4  -6   17.70   29.30
  -6   4  -6    8.50   18.70
  -6   4  -6   12.90   25.00
   6   4   6   28.60   20.80
  -8  -5   6  356.96   37.20
   8  -5  -6  308.77   37.20
   8  -5  -6  328.07   44.50
  -8  -5   6  384.96   40.20
  -8  -5   6  400.66   51.79
  -8  -5   6  365.56   45.30
   8  -5  -6  313.37   44.70
   8   5  -6  311.77   48.20
  -8   5   6  285.57   72.69
   8   5  -6  279.27   40.30
   8   5  -6  423.26   37.30
  -8   5   6  419.76   48.60
   8   5  -6  362.86   37.90
  -8   5   6  307.97   43.60
  -7  -5   6   11.50   24.60
   7  -5  -6   -1.40   23.40
  -7  -5   6   31.70   25.60
   7  -5  -6   29.00   16.60
  -7  -5   6    8.90   17.00
  -7  -5   6   22.70   26.40
   7  -5  -6   52.39   25.20
   7  -5  -6   46.80   26.90
  -7   5   6    5.70   25.70
   7   5  -6    3.50   24.10
  -7   5   6   12.80   28.20
   7   5  -6   81.29   29.20
  -7   5   6   25.30   26.70
   7   5  -6   20.70   26.40
   7   5  -6   45.90   19.90
   7   5  -6   36.60   18.50
  -7   5   6   49.80   29.70
  -6  -5   6  449.76   38.20
   6  -5  -6  489.55   34.00
  -6  -5   6  480.55   40.20
   6  -5  -6  372.36   37.30
   6  -5  -6  461.05   39.90
  -6  -5   6  427.16   35.30
  -6  -5   6  459.65   41.00
   6  -5  -6  450.05   42.40
  -6   5   6  493.15   36.90
   6   5  -6  496.95   41.60
   6   5  -6  395.86   36.50
  -6   5   6  438.96   39.70
   6   5  -6  514.75   43.00
   6   5  -6  387.16   40.00
   6   5  -6  454.95   32.90
  -6   5   6  419.56   43.00
  -6   5   6  424.86   40.00
   5  -5  -6  839.12   49.60
  -5  -5   6  793.32   42.50
  -5  -5   6  775.12   42.80
  -5  -5   6  799.02   41.10
  -5  -5   6  836.02   46.10
   5  -5  -6  871.21   49.50
   5  -5  -6  741.03   44.70
   5  -5  -6  826.02   41.90
   5   5  -6  817.02   36.70
  -5   5   6  815.52   41.10
   5   5  -6  783.22   43.20
  -5   5   6  835.22   43.70
  -5   5   6  821.12   38.30
   5   5  -6  834.32   48.20
   5   5  -6  849.52   40.10
   5   5  -6  841.52   45.30
  -5   5   6  761.22   44.20
   4  -5  -6  429.16   32.20
   4  -5  -6  464.85   37.10
  -4  -5   6  386.76   29.20
  -4  -5   6  422.56   30.10
  -4  -5   6  481.15   33.70
  -4  -5   6  498.95   30.70
   4  -5  -6  436.26   32.30
   4  -5  -6  454.35   37.30
  -4   5   6  557.74   33.90
  -4   5   6  445.96   35.10
  -4   5   6  492.55   33.00
   4   5  -6  428.36   29.30
   4   5  -6  438.16   35.20
   4   5  -6  455.65   28.50
   4   5  -6  439.36   32.60
  -4   5   6  472.15   33.60
  -4   5   6  467.35   27.50
   4   5  -6  443.06   34.50
   3  -5  -6 1687.33   64.19
   3  -5  -6 1660.83   58.59
  -3  -5   6 1582.24   53.49
  -3  -5   6 1704.53   59.89
  -3  -5   6 1651.33   57.09
   3  -5  -6 1632.94   62.59
  -3  -5   6 1602.44   55.59
  -3  -5   6 1700.03   49.00
   3  -5  -6 1600.24   62.59
   3  -5  -6 1562.24   58.99
   3  -5  -6 1697.43   61.89
  -3  -5   6 1691.33   62.69
  -3   5   6 1652.33   56.39
  -3   5   6 1651.13   59.89
   3   5  -6 1647.74   60.39
   3   5  -6 1622.74   59.69
  -3   5   6 1700.63   57.09
   3   5  -6 1647.54   60.59
  -3   5   6 1652.93   58.69
   3   5  -6 1570.24   56.99
  -3   5   6 1647.04   55.49
  -3   5   6 1679.23   58.49
   3   5  -6 1643.34   57.29
   3   5  -6 1628.64   59.49
  -2  -5   6   49.80   17.30
  -2  -5   6   50.89   15.20
  -2  -5   6   53.69   13.20
  -2  -5   6   85.49   16.70
   2  -5  -6   66.29   16.90
   2  -5  -6   66.19   17.70
   2  -5  -6   52.19   14.90
  -2  -5   6   50.39    8.90
   2  -5  -6   63.99   14.50
  -2  -5   6   85.39   18.00
   2  -5  -6   64.79   18.50
  -2  -5   6   72.49   13.10
   2  -5  -6   60.59   17.50
  -2  -5   6   80.29    9.30
   2   5  -6   58.49   13.20
  -2   5   6   60.69   15.10
  -2   5   6   59.99    8.10
   2   5  -6   37.60   13.00
  -2   5   6   84.09   17.00
  -2   5   6   43.10   14.90
  -2   5   6   56.69   13.00
   2   5  -6   57.39   15.00
  -2   5   6   79.69   15.20
   2   5  -6   55.99   15.00
  -2   5   6   80.69   13.10
   2   5  -6   64.79   15.50
   1  -5  -6 2738.13   79.19
   1  -5  -6 2587.34   80.69
  -1  -5   6 2729.63   75.89
   1  -5  -6 2618.44   79.89
  -1  -5   6 2522.65   89.99
  -1  -5   6 2602.84   69.69
   1  -5  -6 2499.85   75.99
  -1  -5   6 2706.03   70.69
  -1  -5   6 2654.43   79.19
   1  -5  -6 2596.14   83.39
  -1  -5   6 2586.74   77.39
   1  -5  -6 2748.53   80.19
  -1  -5   6 2709.43   64.79
  -1   5   6 2655.63   63.99
   1   5  -6 2589.64   77.59
  -1   5   6 2626.54   73.19
  -1   5   6 2683.73   69.19
   1   5  -6 2662.33   78.99
   1   5  -6 2518.95   78.59
   1   5  -6 2609.94   75.79
  -1   5   6 2635.14   81.29
   1   5  -6 2743.43   78.09
  -1   5   6 2571.34   79.59
  -1   5   6 2782.42   74.39
   1   5  -6 2596.64   74.89
   0  -5  -6  199.78   25.20
   0  -5  -6  207.88   23.30
   0  -5   6  203.38   12.00
   0  -5   6  178.78   20.00
   0  -5  -6  213.68   23.90
   0  -5   6  147.39   19.00
   0  -5  -6  190.98   22.70
   0  -5   6  221.68   23.20
   0  -5   6  223.08   18.40
   0  -5   6  212.38   11.50
   0  -5   6  210.98   12.00
   0  -5  -6  181.98   20.70
   0  -5   6  220.58   24.50
   0  -5  -6  213.38   21.70
   0  -5  -6  214.18   22.90
   0   5   6  215.28   24.70
   0   5  -6  239.08   23.90
   0   5  -6  224.78   21.90
   0   5  -6  200.78   20.30
   0   5  -6  219.88   19.30
   0   5   6  216.08   18.80
   0   5   6  210.58   11.80
   0   5   6  194.88   16.80
   0   5  -6  201.58   22.50
   0   5  -6  181.38   23.40
   0   5   6  211.48   24.60
  -1  -5  -6 2796.52   79.89
   1  -5   6 2717.43   93.69
  -1  -5  -6 2985.40   70.09
  -1  -5  -6 2791.12   80.79
   1  -5   6 2901.31   85.49
   1  -5   6 2845.02   74.29
  -1  -5  -6 2873.71   85.49
  -1  -5  -6 2786.62   88.79
  -1  -5  -6 2929.31   82.79
  -1  -5  -6 2867.51   80.49
   1  -5   6 2857.71   83.39
  -1   5  -6 2768.32   78.79
  -1   5  -6 2872.51   84.69
  -1   5  -6 2829.42   77.19
   1   5   6 2953.80   70.09
  -1   5  -6 2822.72   76.89
   1   5   6 2791.42   89.19
  -1   5  -6 2913.81   73.19
   1   5   6 2932.41   83.29
  -1   5  -6 2850.41   85.49
  -1   5  -6 2841.22   78.49
   1   5   6 3130.99   87.89
   1   5   6 2985.60   78.99
   1   5   6 2839.42   68.69
   2  -5   6  328.77   13.40
  -2  -5  -6  397.06   31.60
  -2  -5  -6  330.87   21.60
   2  -5   6  327.57   28.40
  -2  -5  -6  320.37   22.50
  -2  -5  -6  331.87   23.90
   2  -5   6  308.17   27.20
  -2  -5  -6  320.67   29.80
   2  -5   6  337.27   14.10
  -2  -5  -6  296.97   24.40
   2  -5   6  295.47   25.50
   2  -5   6  324.57   27.70
  -2   5  -6  308.27   22.30
  -2   5  -6  314.17   23.20
   2   5   6  330.57   26.20
   2   5   6  322.87   23.80
   2   5   6  330.17   28.00
  -2   5  -6  337.97   20.80
  -2   5  -6  330.37   21.20
   2   5   6  332.77   32.00
  -2   5  -6  365.06   29.20
  -2   5  -6  286.77   27.60
  -2   5  -6  318.97   22.90
  -3  -5  -6  597.34   29.50
  -3  -5  -6  561.54   28.70
  -3  -5  -6  552.94   38.10
  -3  -5  -6  555.14   29.70
   3  -5   6  593.64   36.10
   3  -5   6  527.35   31.50
  -3  -5  -6  523.95   28.20
   3  -5   6  562.74   32.10
   3  -5   6  569.84   35.90
   3   5   6  601.44   41.00
   3   5   6  530.55   35.80
  -3   5  -6  502.55   31.40
  -3   5  -6  567.84   25.70
   3   5   6  548.35   22.60
  -3   5  -6  551.14   25.30
  -3   5  -6  533.75   37.10
  -3   5  -6  545.55   35.00
   3   5   6  527.95   24.70
  -3   5  -6  553.24   25.40
  -3   5  -6  611.14   28.90
  -4  -5  -6  814.82   45.70
  -4  -5  -6  625.64   40.30
   4  -5   6  788.82   39.10
  -4  -5  -6  747.43   34.50
   4  -5   6  738.73   37.40
   4  -5   6  674.63   42.40
   4  -5   6  756.42   40.40
  -4  -5  -6  765.12   27.30
  -4  -5  -6  721.53   34.00
  -4  -5  -6  703.73   33.40
   4   5   6  707.53   46.70
  -4   5  -6  736.03   30.60
  -4   5  -6  773.22   29.50
  -4   5  -6  751.02   30.20
   4   5   6  721.13   43.40
  -4   5  -6  724.33   40.30
  -4   5  -6  696.43   33.90
  -4   5  -6  790.32   47.10
   5  -5   6   13.50   21.10
  -5  -5  -6   23.20   13.10
  -5  -5  -6  -10.20   17.50
  -5  -5  -6   27.70   14.80
   5  -5   6   -0.30   17.70
   5   5   6   -4.20   18.90
  -5   5  -6  -16.30   19.80
  -5   5  -6   -5.40   22.80
  -5   5  -6  -27.00   19.30
  -5   5  -6   -4.50    9.00
   5   5   6   33.00   22.00
  -5   5  -6    1.50   11.20
  -5   5  -6    0.80   11.30
  -6  -5  -6  534.65   34.50
   6  -5   6  512.85   46.30
  -6  -5  -6  530.25   43.60
  -6  -5  -6  506.95   36.80
   6  -5   6  574.34   41.80
  -6  -5  -6  390.06   50.69
  -6   5  -6  439.56   23.00
   6   5   6  523.05   45.10
  -6   5  -6  503.05   43.30
  -6   5  -6  499.15   58.09
   6   5   6  450.15   45.50
  -6   5  -6  469.65   51.69
  -8  -6   6    5.70   26.00
   8  -6  -6  -15.50   36.40
   8  -6  -6   44.40   28.60
  -8  -6   6   56.29   31.90
  -8  -6   6    3.50   18.90
  -8  -6   6  -45.50   27.80
  -8   6   6   41.60   33.30
  -8   6   6   -8.90   27.40
  -8   6   6   17.60   40.20
  -8   6   6   54.29   35.10
  -8   6   6  -17.60   30.40
   8   6  -6   15.40   28.10
   8   6  -6   13.30   33.80
   8   6  -6   31.90   21.90
   8   6  -6   20.60   42.00
   7  -6  -6 1675.73   62.39
  -7  -6   6 1740.63   65.69
  -7  -6   6 1545.75   80.49
  -7  -6   6 1722.73   79.69
   7  -6  -6 1654.83   73.09
  -7  -6   6 1611.14   77.39
   7  -6  -6 1612.84   76.99
   7  -6  -6 1746.63   79.19
  -7   6   6 1692.53   80.49
   7   6  -6 1654.83   76.39
   7   6  -6 1620.24   64.89
  -7   6   6 1523.55   77.29
   7   6  -6 1716.03   62.39
  -7   6   6 1586.74   82.39
  -7   6   6 1783.22   73.99
   7   6  -6 1686.33   80.89
   7   6  -6 1638.84   81.49
   6  -6  -6   25.00   18.10
   6  -6  -6   25.70   21.90
  -6  -6   6   33.30   17.90
  -6  -6   6   26.90   23.00
  -6  -6   6   46.10   22.90
   6  -6  -6   43.00   25.50
  -6  -6   6    7.30   19.90
   6  -6  -6   37.50   22.30
  -6   6   6   34.10   24.50
  -6   6   6   28.40   19.40
   6   6  -6   15.60   17.00
   6   6  -6   60.29   24.60
   6   6  -6   59.29   24.60
  -6   6   6    9.30   21.40
   6   6  -6   50.99   23.70
  -6   6   6   41.10   25.50
   6   6  -6   30.70   18.90
   5  -6  -6  776.62   49.20
   5  -6  -6  787.22   45.20
   5  -6  -6  781.42   49.10
  -5  -6   6  733.63   42.90
  -5  -6   6  778.32   47.00
  -5  -6   6  783.52   40.60
   5  -6  -6  775.52   42.80
  -5  -6   6  745.23   41.80
   5   6  -6  720.03   46.90
  -5   6   6  754.32   47.30
  -5   6   6  768.62   44.80
   5   6  -6  747.73   45.90
  -5   6   6  712.93   48.40
   5   6  -6  817.62   44.70
   5   6  -6  760.92   39.40
  -5   6   6  780.62   41.40
  -5   6   6  839.12   41.10
   5   6  -6  822.82   40.90
   4  -6  -6  127.29   24.70
  -4  -6   6  136.59   20.10
   4  -6  -6  164.98   23.50
   4  -6  -6  142.49   22.20
  -4  -6   6  186.78   22.10
  -4  -6   6  179.48   23.10
   4  -6  -6  166.08   26.00
  -4  -6   6  138.29   21.90
  -4  -6   6  131.89   19.10
   4   6  -6  141.99   23.00
  -4   6   6  206.78   22.90
   4   6  -6  153.68   20.60
  -4   6   6  161.18   22.90
   4   6  -6  109.19   20.60
  -4   6   6  159.08   25.30
  -4   6   6  150.18   18.30
  -4   6   6  181.98   27.10
   4   6  -6  181.68   25.80
  -3  -6   6    6.40   12.00
   3  -6  -6   19.00   16.90
  -3  -6   6   30.20   18.60
  -3  -6   6   18.10   14.50
  -3  -6   6   35.70   12.70
  -3  -6   6   30.10   14.70
   3  -6  -6   -8.50   15.30
   3  -6  -6    4.00   15.20
  -3  -6   6   30.20   16.70
  -3  -6   6   -5.50   13.20
   3  -6  -6   -0.70   13.50
   3   6  -6   39.80   23.00
  -3   6   6   15.80   16.10
   3   6  -6   23.90   16.10
  -3   6   6   39.30   15.40
   3   6  -6    7.20   13.00
  -3   6   6  -26.30   14.60
   3   6  -6   -6.00   15.00
   3   6  -6   25.90   15.30
  -3   6   6    4.20   15.80
  -3   6   6   12.70   13.50
  -3   6   6    9.90   15.00
   2  -6  -6   45.20   16.20
  -2  -6   6   69.19   17.40
  -2  -6   6   82.49   14.40
   2  -6  -6   76.09   18.30
  -2  -6   6   82.99   12.20
   2  -6  -6  112.39   23.70
  -2  -6   6  100.89   16.60
  -2  -6   6   68.99   16.00
  -2  -6   6   91.79   10.50
   2  -6  -6  105.69   20.30
   2  -6  -6  105.99   21.00
  -2  -6   6   95.29   17.10
   2   6  -6   91.69   18.70
   2   6  -6   74.69   19.10
   2   6  -6   54.99   16.60
  -2   6   6   77.29   17.90
  -2   6   6  114.49   20.50
   2   6  -6   72.99   17.10
  -2   6   6   69.89   17.50
  -2   6   6   62.59   13.30
  -2   6   6   69.79   17.90
  -2   6   6  115.99   13.60
  -2   6   6   80.89   16.10
   2   6  -6   87.19   16.10
   1  -6  -6   46.70   18.40
  -1  -6   6   28.90   15.00
   1  -6  -6   60.89   17.00
  -1  -6   6   46.30   12.70
  -1  -6   6   47.10   15.10
  -1  -6   6   47.00   12.30
   1  -6  -6   44.30   14.30
   1  -6  -6   25.90   15.00
   1  -6  -6   40.70   15.70
  -1  -6   6   38.80   10.10
  -1   6   6   46.70   12.60
  -1   6   6   54.69   16.00
   1   6  -6   47.20   15.20
   1   6  -6   31.80   12.40
  -1   6   6   64.99   10.30
   1   6  -6   46.00   16.00
   1   6  -6   30.50   14.90
  -1   6   6   51.69    8.20
  -1   6   6   24.40   14.20
   1   6  -6   51.29   15.10
   0  -6   6  152.88   19.80
   0  -6   6  171.68   14.80
   0  -6  -6  166.88   20.80
   0  -6  -6  135.09   18.60
   0  -6   6  140.79   17.90
   0  -6   6  169.68   15.80
   0  -6   6  177.48   23.00
   0  -6  -6  168.68   24.10
   0  -6  -6  191.18   23.50
   0  -6  -6  206.78   24.00
   0   6   6  218.18   26.10
   0   6   6  186.88   25.30
   0   6  -6  169.88   21.70
   0   6   6  157.98   20.00
   0   6  -6  150.68   20.30
   0   6  -6  149.99   20.20
   0   6  -6  199.68   21.10
   0   6   6  184.98   10.50
   0   6   6  230.78   21.50
   0   6  -6  182.68   20.40
   0   6   6  165.28   18.10
  -1  -6  -6  294.27   25.90
   1  -6   6  290.07   19.10
  -1  -6  -6  269.27   24.20
   1  -6   6  259.97   27.40
  -1  -6  -6  276.37   32.20
  -1  -6  -6  242.18   20.50
   1  -6   6  260.87   27.50
   1  -6   6  254.87   25.90
  -1  -6  -6  287.27   23.90
  -1  -6  -6  299.87   27.50
  -1   6  -6  228.68   27.40
   1   6   6  285.57   30.00
   1   6   6  217.88   23.60
  -1   6  -6  297.97   27.30
  -1   6  -6  290.67   24.00
  -1   6  -6  260.27   23.70
  -1   6  -6  290.37   22.60
  -1   6  -6  240.78   27.40
   1   6   6  231.08   16.70
   1   6   6  287.27   21.30
   2  -6   6  216.78   19.10
  -2  -6  -6  202.88   20.30
  -2  -6  -6  215.08   26.80
   2  -6   6  198.18   21.70
  -2  -6  -6  207.68   23.20
  -2  -6  -6  179.18   22.80
  -2  -6  -6  188.78   22.90
   2  -6   6  238.48   15.40
   2  -6   6  220.18   27.20
   2  -6   6  245.38   27.30
   2   6   6  203.18   21.10
  -2   6  -6  185.88   22.80
  -2   6  -6  204.98   21.20
   2   6   6  226.78   30.40
   2   6   6  246.88   26.40
  -2   6  -6  240.58   21.60
   2   6   6  229.18   27.30
  -2   6  -6  208.18   21.60
  -2   6  -6  184.08   25.10
  -2   6  -6  217.08   21.20
  -3  -6  -6  880.71   39.90
   3  -6   6  904.61   42.60
  -3  -6  -6  990.50   49.70
  -3  -6  -6  979.80   50.19
   3  -6   6  953.20   42.50
   3  -6   6  899.01   46.10
  -3  -6  -6  935.51   38.40
   3  -6   6  850.21   45.50
  -3  -6  -6  952.20   40.20
  -3  -6  -6  938.71   36.30
  -3   6  -6  890.61   48.70
   3   6   6  925.61   46.10
  -3   6  -6  966.50   40.80
  -3   6  -6  900.01   37.50
   3   6   6  893.91   50.49
  -3   6  -6  952.50   47.50
  -3   6  -6  964.00   37.80
  -3   6  -6  889.71   40.70
  -4  -6  -6   62.49   17.00
   4  -6   6   78.59   19.90
   4  -6   6   75.89   20.90
   4  -6   6   85.19   17.80
  -4  -6  -6   66.49   15.50
  -4  -6  -6   66.69   21.10
  -4  -6  -6   85.89   21.50
   4  -6   6   88.29   22.50
  -4   6  -6  116.59   27.00
   4   6   6   53.89   22.10
  -4   6  -6   73.59   22.50
   4   6   6  102.29   22.90
  -4   6  -6   81.49   15.40
  -4   6  -6   68.39   13.50
  -4   6  -6  120.19   21.80
  -4   6  -6   83.59   14.80
   5  -6   6 1259.17   63.99
  -5  -6  -6 1353.86   52.99
  -5  -6  -6 1385.36   61.99
   5  -6   6 1368.86   60.59
  -5  -6  -6 1352.16   54.09
  -5   6  -6 1337.27   62.29
  -5   6  -6 1373.86   72.79
  -5   6  -6 1325.57   50.09
   5   6   6 1317.77   69.39
   5   6   6 1229.58   62.49
  -5   6  -6 1291.27   44.90
   6  -6   6   37.70   25.80
  -6  -6  -6   -2.40   23.80
  -6  -6  -6   19.10   20.80
  -6  -6  -6   14.00   28.10
   6  -6   6  -34.90   19.60
  -6  -6  -6   31.80   24.40
  -6   6  -6   12.40   29.50
  -6   6  -6   -3.00   13.30
   6   6   6   12.00   22.60
  -6   6  -6  -16.70   32.70
   6   6   6   29.60   25.20
   7  -7  -6   12.00   21.30
  -7  -7   6  -20.00   23.70
   7  -7  -6   20.30   33.40
   7  -7  -6   14.80   34.70
  -7  -7   6   33.70   31.90
  -7  -7   6   26.30   18.20
  -7   7   6   34.10   28.10
   7   7  -6   49.20   20.70
   7   7  -6   48.80   22.70
   7   7  -6   31.80   35.50
   7   7  -6    8.20   31.00
  -7   7   6   24.30   36.80
  -7   7   6   21.50   36.10
  -7   7   6   11.50   29.80
   7   7  -6   34.60   28.30
  -6  -7   6 1033.30   56.69
  -6  -7   6  992.70   54.19
   6  -7  -6 1068.59   66.69
   6  -7  -6 1101.49   65.09
   6  -7  -6 1009.80   58.79
  -6  -7   6 1079.69   50.09
  -6  -7   6 1070.69   64.09
   6  -7  -6 1068.59   53.19
   6   7  -6 1017.40   49.00
  -6   7   6 1154.38   64.79
   6   7  -6 1036.80   50.09
   6   7  -6 1005.80   59.09
  -6   7   6  997.30   65.89
  -6   7   6 1027.20   54.69
   6   7  -6 1062.49   62.89
  -6   7   6 1100.19   59.09
   6   7  -6  947.61   58.79
   5  -7  -6   62.49   25.00
   5  -7  -6   85.39   26.80
  -5  -7   6  119.69   21.60
  -5  -7   6  125.89   24.00
   5  -7  -6   73.19   23.50
  -5  -7   6   76.79   18.60
  -5  -7   6   89.99   24.00
   5  -7  -6   67.29   20.70
   5   7  -6   73.09   18.90
  -5   7   6  105.09   24.50
  -5   7   6   50.89   22.00
   5   7  -6   48.80   21.70
   5   7  -6  113.99   25.40
   5   7  -6   63.19   22.00
  -5   7   6  120.49   21.30
   5   7  -6  112.19   22.20
  -5   7   6  100.19   25.50
  -4  -7   6  591.64   41.90
   4  -7  -6  589.44   44.40
  -4  -7   6  559.94   33.70
   4  -7  -6  527.55   39.80
  -4  -7   6  627.84   41.80
  -4  -7   6  562.64   36.50
   4  -7  -6  591.04   42.20
  -4  -7   6  533.45   35.20
   4  -7  -6  589.84   40.10
  -4   7   6  571.04   38.80
  -4   7   6  609.14   33.40
  -4   7   6  559.54   37.30
  -4   7   6  634.84   44.60
   4   7  -6  547.85   41.90
   4   7  -6  607.64   42.10
   4   7  -6  524.45   36.20
   4   7  -6  603.34   40.00
  -4   7   6  534.65   42.00
  -3  -7   6  542.75   36.30
  -3  -7   6  585.04   32.40
  -3  -7   6  479.35   32.90
   3  -7  -6  445.56   38.50
   3  -7  -6  492.65   37.50
  -3  -7   6  454.95   32.10
  -3  -7   6  549.95   39.60
   3  -7  -6  499.25   38.20
  -3  -7   6  478.25   28.90
   3  -7  -6  540.15   39.40
  -3   7   6  514.05   38.50
  -3   7   6  538.05   30.00
   3   7  -6  514.95   38.00
   3   7  -6  497.05   35.50
   3   7  -6  479.45   37.40
  -3   7   6  536.65   41.80
  -3   7   6  488.65   34.40
  -3   7   6  502.15   34.60
   3   7  -6  523.95   37.30
  -3   7   6  460.75   36.20
  -2  -7   6   97.49   18.90
  -2  -7   6  116.49   13.40
  -2  -7   6   92.99   18.80
  -2  -7   6  131.79   20.50
   2  -7  -6   91.89   21.40
   2  -7  -6  108.89   19.60
  -2  -7   6  154.88   17.90
  -2  -7   6   89.19   20.10
  -2  -7   6   89.29   15.40
   2  -7  -6  119.99   23.10
   2  -7  -6   83.89   20.40
   2   7  -6   94.49   21.00
  -2   7   6   99.09   15.80
   2   7  -6  114.89   19.00
  -2   7   6  116.89   19.60
   2   7  -6  100.09   19.80
   2   7  -6  114.39   21.50
  -2   7   6  113.89   14.30
  -2   7   6  185.68   25.00
  -2   7   6  110.69   19.20
   2   7  -6  107.19   24.60
  -2   7   6  114.69   21.40
   1  -7  -6  551.54   40.40
  -1  -7   6  459.35   26.20
  -1  -7   6  462.55   25.20
  -1  -7   6  423.66   30.70
  -1  -7   6  466.65   31.10
  -1  -7   6  473.95   34.80
  -1  -7   6  470.55   29.10
   1  -7  -6  521.45   37.00
   1  -7  -6  523.15   36.40
   1  -7  -6  466.85   33.60
   1  -7  -6  489.45   38.90
   1   7  -6  464.55   32.20
   1   7  -6  454.15   36.50
   1   7  -6  448.46   34.30
   1   7  -6  490.15   36.90
  -1   7   6  426.06   32.80
  -1   7   6  474.05   34.30
  -1   7   6  488.35   23.50
  -1   7   6  478.35   23.70
  -1   7   6  457.95   30.00
   1   7  -6  506.15   31.30
  -1   7   6  451.95   32.50
   0  -7  -6   14.10   14.40
   0  -7   6   35.10   15.80
   0  -7   6   31.70   15.30
   0  -7   6   23.90    9.60
   0  -7   6   44.90   11.80
   0  -7  -6   23.70   15.80
   0  -7   6   10.30   11.20
   0  -7  -6   18.10   14.10
   0  -7  -6  -30.70   18.20
   0  -7   6   -0.10   16.70
   0  -7  -6   27.50   18.60
   0  -7  -6   11.00   12.90
   0   7   6   19.40    5.20
   0   7   6    0.70   16.10
   0   7   6   30.30   16.90
   0   7  -6   23.40   14.10
   0   7  -6   40.50   13.90
   0   7  -6   36.80   15.90
   0   7  -6   62.99   18.80
   0   7   6    3.30   14.70
   0   7  -6   30.70   17.30
   0   7   6   29.50   11.40
  -1  -7  -6  695.73   37.00
   1  -7   6  688.13   38.10
  -1  -7  -6  617.84   44.10
   1  -7   6  664.73   31.50
  -1  -7  -6  648.24   36.90
  -1  -7  -6  640.84   35.70
   1  -7   6  688.53   41.30
   1  -7   6  691.23   31.40
   1  -7   6  632.44   36.00
  -1  -7  -6  683.33   28.90
   1   7   6  724.93   35.80
   1   7   6  678.83   28.10
  -1   7  -6  709.03   39.80
  -1   7  -6  657.33   37.20
   1   7   6  694.33   43.00
  -1   7  -6  664.13   36.30
  -1   7  -6  692.03   35.30
   1   7   6  658.43   34.00
  -1   7  -6  652.63   42.00
  -1   7  -6  678.03   34.00
  -2  -7  -6  878.71   41.20
   2  -7   6  895.21   46.20
   2  -7   6  894.51   42.30
   2  -7   6  862.41   43.00
  -2  -7  -6  849.32   38.70
  -2  -7  -6  903.91   46.70
  -2  -7  -6  886.21   42.10
  -2  -7  -6  877.41   37.40
  -2  -7  -6  874.31   50.29
   2   7   6  935.41   45.60
  -2   7  -6  867.81   45.50
   2   7   6  828.62   45.40
  -2   7  -6  751.72   50.19
  -2   7  -6  838.22   48.30
  -2   7  -6  851.41   38.80
   2   7   6  833.32   48.80
  -2   7  -6  897.41   37.70
   2   7   6  865.81   38.80
  -2   7  -6  926.11   38.50
  -3  -7  -6  194.08   22.40
  -3  -7  -6  118.59   24.40
  -3  -7  -6  103.39   19.10
   3  -7   6  197.18   23.10
  -3  -7  -6  231.18   29.10
   3  -7   6  178.48   25.30
   3  -7   6  157.98   24.10
  -3  -7  -6  167.68   27.60
  -3   7  -6  190.08   23.20
   3   7   6  213.78   27.40
  -3   7  -6  161.78   20.70
   3   7   6  191.78   24.50
   3   7   6  155.68   27.00
  -3   7  -6  209.28   27.00
  -3   7  -6  173.98   19.40
  -3   7  -6  180.18   22.20
  -3   7  -6  209.38   30.10
   4  -7   6 1648.83   63.89
  -4  -7  -6 1802.72   63.29
  -4  -7  -6 1810.22   73.59
   4  -7   6 1625.44   68.09
  -4  -7  -6 1747.43   63.49
   4  -7   6 1804.92   71.39
  -4   7  -6 1721.13   58.99
  -4   7  -6 1649.73   57.09
  -4   7  -6 1576.24   75.19
   4   7   6 1703.93   76.99
  -4   7  -6 1701.63   65.69
   4   7   6 1739.63   73.19
  -4   7  -6 1624.14   73.59
  -5  -7  -6    5.80   21.30
  -5  -7  -6   26.90   19.70
   5  -7   6  -17.80   22.20
  -5  -7  -6    5.90   25.20
   5  -7   6   44.00   20.70
  -5   7  -6   25.20   24.30
  -5   7  -6    2.20   15.90
   5   7   6   -2.60   21.20
  -5   7  -6   10.10   37.70
   5   7   6    4.10   19.70
  -5   7  -6   14.70   18.50
  -7  -8   6  220.18   39.50
   7  -8  -6  266.27   38.20
  -7  -8   6  190.88   39.70
   7  -8  -6  233.68   32.40
  -7  -8   6  195.08   34.60
   7  -8  -6  245.78   48.40
  -7   8   6  182.58   40.10
   7   8  -6  193.18   29.60
   7   8  -6  193.48   28.70
  -7   8   6  215.28   41.30
   7   8  -6  231.18   38.50
  -7   8   6  134.79   32.90
   7   8  -6  191.78   45.90
   7   8  -6  313.17   53.69
  -7   8   6  234.98   42.00
  -6  -8   6  430.46   48.30
   6  -8  -6  517.45   44.90
  -6  -8   6  467.65   47.40
  -6  -8   6  490.75   39.40
  -6  -8   6  469.45   52.99
   6  -8  -6  471.65   55.99
   6   8  -6  527.25   60.89
  -6   8   6  484.45   46.70
   6   8  -6  501.95   74.09
   6   8  -6  544.05   41.60
  -6   8   6  450.65   57.39
   6   8  -6  556.64   39.00
  -6   8   6  607.14   68.99
  -6   8   6  524.85   59.99
   6   8  -6  527.35   54.49
  -5  -8   6   44.10   20.40
  -5  -8   6   43.90   25.50
   5  -8  -6   69.19   27.90
  -5  -8   6   26.80   18.40
   5  -8  -6   47.00   22.70
   5  -8  -6   76.39   28.40
   5  -8  -6   32.80   31.90
  -5  -8   6   44.60   27.00
  -5   8   6   54.09   28.20
  -5   8   6   37.70   30.00
   5   8  -6   15.80   22.40
   5   8  -6   24.90   24.70
   5   8  -6   31.20   26.10
   5   8  -6   51.39   18.90
  -5   8   6   39.20   19.60
   5   8  -6   36.10   19.50
  -5   8   6   43.80   25.90
  -4  -8   6 1197.78   53.09
  -4  -8   6 1270.27   55.89
   4  -8  -6 1235.58   58.09
   4  -8  -6 1270.27   62.99
  -4  -8   6 1224.58   49.50
   4  -8  -6 1196.18   61.89
   4  -8  -6 1274.37   59.49
  -4  -8   6 1275.07   60.59
   4   8  -6 1254.87   58.59
   4   8  -6 1310.97   55.99
  -4   8   6 1233.68   62.59
   4   8  -6 1254.47   62.89
  -4   8   6 1199.88   61.39
   4   8  -6 1178.18   58.79
  -4   8   6 1338.67   59.09
  -4   8   6 1298.77   52.39
  -4   8   6 1306.37   53.09
  -3  -8   6   89.69   22.10
  -3  -8   6   94.59   15.70
  -3  -8   6   71.89   21.20
  -3  -8   6   45.80   18.00
   3  -8  -6   57.29   20.60
  -3  -8   6   66.49   19.60
   3  -8  -6   81.09   22.60
  -3  -8   6   73.59   17.90
   3  -8  -6   60.29   22.10
   3  -8  -6   68.99   23.40
   3   8  -6   80.69   21.10
   3   8  -6   63.69   21.80
  -3   8   6   46.00   21.50
  -3   8   6   38.60   17.90
  -3   8   6   77.29   17.10
   3   8  -6   57.09   19.20
  -3   8   6   66.69   21.60
   3   8  -6   56.29   20.40
  -3   8   6   89.59   19.70
   2  -8  -6 1172.08   59.29
  -2  -8   6 1205.78   53.49
  -2  -8   6 1187.18   47.30
   2  -8  -6 1100.79   50.79
  -2  -8   6 1110.39   49.99
  -2  -8   6 1160.08   35.00
   2  -8  -6 1146.79   55.49
  -2  -8   6 1129.49   45.20
  -2  -8   6 1175.88   54.79
   2  -8  -6 1182.18   55.79
  -2   8   6 1151.08   57.49
   2   8  -6 1171.98   51.99
  -2   8   6 1108.29   49.30
   2   8  -6 1220.78   57.19
   2   8  -6 1139.29   54.59
  -2   8   6 1148.69   54.09
   2   8  -6 1177.28   50.79
  -2   8   6 1163.58   57.69
  -2   8   6 1080.09   46.40
  -2   8   6 1228.98   44.40
  -1  -8   6   28.80   18.20
  -1  -8   6   31.40   17.70
   1  -8  -6   11.90   17.20
  -1  -8   6   18.80   14.10
  -1  -8   6    9.30   12.50
   1  -8  -6   21.90   19.80
  -1  -8   6    0.40   15.00
   1  -8  -6   -2.40   15.70
   1  -8  -6   -6.80   15.50
  -1  -8   6   36.00   16.30
   1  -8  -6   26.80   16.00
  -1   8   6    4.60   13.40
  -1   8   6    9.10   14.50
   1   8  -6   13.70   15.80
   1   8  -6    5.20   17.40
   1   8  -6   24.00   15.80
  -1   8   6   23.50   16.60
   1   8  -6   -1.00   19.20
  -1   8   6   41.60   12.70
   1   8  -6   27.50   22.70
  -1   8   6   36.70   19.60
   0  -8  -6 1190.68   52.09
   0  -8   6 1068.09   44.50
   0  -8   6 1166.68   55.19
   0  -8  -6 1141.09   60.49
   0  -8  -6 1203.58   45.70
   0  -8  -6 1157.38   50.39
   0  -8   6 1125.29   49.80
   0  -8  -6 1149.48   52.39
   0  -8   6 1107.19   38.80
   0  -8  -6 1136.49   56.99
   0  -8   6 1117.59   42.00
   0   8   6 1196.78   51.69
   0   8   6 1139.39   53.79
   0   8  -6 1213.88   49.10
   0   8  -6 1214.48   53.59
   0   8   6 1151.08   45.90
   0   8  -6 1131.79   50.19
   0   8  -6 1167.08   56.09
   0   8   6 1145.49   48.90
   0   8  -6 1158.28   55.99
  -1  -8  -6   42.70   16.20
   1  -8   6   57.89   14.80
  -1  -8  -6   58.89   18.40
   1  -8   6   39.80   16.30
  -1  -8  -6   50.89   24.00
   1  -8   6   65.69   18.00
   1  -8   6   51.59   19.20
  -1  -8  -6   34.50   17.80
  -1  -8  -6   44.30   17.30
   1   8   6   52.89   19.30
  -1   8  -6   39.60   14.90
   1   8   6   65.79   17.00
   1   8   6   50.29   13.20
  -1   8  -6   20.00   23.20
  -1   8  -6   36.70   17.10
   1   8   6   57.29   22.20
  -1   8  -6   70.39   21.50
  -1   8  -6   53.39   20.20
  -2  -8  -6  696.03   38.70
   2  -8   6  624.34   32.20
  -2  -8  -6  573.14   69.59
   2  -8   6  642.74   39.60
  -2  -8  -6  667.13   47.60
  -2  -8  -6  658.13   42.10
   2  -8   6  620.04   43.00
   2  -8   6  725.43   41.60
  -2   8  -6  668.03   45.50
   2   8   6  604.34   45.00
  -2   8  -6  692.13   49.99
   2   8   6  772.22   39.70
   2   8   6  704.03   28.80
   2   8   6  625.54   28.10
  -2   8  -6  650.33   37.60
  -2   8  -6  835.02   52.79
  -2   8  -6  658.33   38.60
  -2   8  -6  717.83   36.10
   3  -8   6  151.08   25.80
  -3  -8  -6  120.89   29.00
   3  -8   6   94.29   20.40
  -3  -8  -6  129.09   24.90
  -3  -8  -6  103.59   21.50
  -3   8  -6  112.19   28.70
   3   8   6  125.99   27.60
  -3   8  -6  130.09   20.60
   3   8   6  140.89   26.90
   3   8   6  115.99   20.10
  -3   8  -6  132.29   31.50
  -3   8  -6  136.09   21.90
  -3   8  -6  120.59   21.80
   4  -8   6  260.57   35.40
  -4  -8  -6  259.37   29.30
  -4  -8  -6  231.28   29.60
  -4  -8  -6  269.47   39.00
   4  -8   6  196.38   27.50
  -4   8  -6  300.47   35.10
  -4   8  -6  235.18   30.40
  -4   8  -6  248.78   28.10
  -4   8  -6  188.48   38.20
   4   8   6  192.28   31.80
   4   8   6  199.28   32.60
  -5  -8  -6  247.78   32.10
   5  -8   6  219.58   32.10
   5  -8   6  256.37   37.80
  -5  -8  -6  256.97   31.40
  -5  -8  -6  172.38   37.90
  -5   8  -6  221.88   34.80
  -5   8  -6  282.97   42.50
  -5   8  -6  187.78   34.80
   5   8   6  272.07   35.90
  -5   8  -6  254.77   31.50
  -5   8  -6  247.88   27.70
   5   8   6  230.58   36.90
   6  -9  -6   91.59   30.70
   6  -9  -6  111.99   33.60
  -6  -9   6   79.09   24.10
  -6  -9   6   77.39   29.20
   6  -9  -6   54.69   36.70
  -6  -9   6  105.29   31.70
  -6   9   6   84.09   31.90
  -6   9   6  126.79   38.30
   6   9  -6  131.39   52.89
  -6   9   6   88.59   33.00
   6   9  -6   32.30   21.70
   6   9  -6   96.99   25.40
   6   9  -6   67.09   31.20
  -6   9   6  110.69   33.10
   5  -9  -6  335.27   37.40
   5  -9  -6  391.46   46.30
  -5  -9   6  439.06   41.40
  -5  -9   6  408.36   52.09
  -5  -9   6  394.56   37.80
   5   9  -6  432.26   36.20
   5   9  -6  488.85   56.59
   5   9  -6  372.66   43.80
   5   9  -6  387.16   65.29
  -5   9   6  380.06   48.20
   5   9  -6  358.16   38.20
  -5   9   6  367.06   44.60
  -5   9   6  388.76   41.80
  -4  -9   6  262.17   32.00
   4  -9  -6  351.96   43.40
  -4  -9   6  295.87   35.60
   4  -9  -6  327.27   36.10
  -4  -9   6  295.97   35.30
  -4  -9   6  263.87   31.20
   4  -9  -6  274.47   36.30
  -4  -9   6  309.07   33.00
   4   9  -6  320.07   41.70
  -4   9   6  333.87   40.60
  -4   9   6  245.48   39.10
   4   9  -6  216.58   32.40
   4   9  -6  247.68   37.40
  -4   9   6  262.37   34.20
   4   9  -6  285.97   34.80
  -4   9   6  277.07   35.00
  -3  -9   6 1539.05   66.79
   3  -9  -6 1474.65   70.49
  -3  -9   6 1529.25   68.29
  -3  -9   6 1461.15   60.89
   3  -9  -6 1579.74   65.59
  -3  -9   6 1526.95   62.09
   3  -9  -6 1477.95   71.69
   3  -9  -6 1559.54   70.39
   3  -9  -6 1549.05   68.39
  -3  -9   6 1525.45   51.89
  -3   9   6 1530.05   71.69
   3   9  -6 1540.25   68.49
  -3   9   6 1580.04   70.59
  -3   9   6 1563.64   65.69
   3   9  -6 1544.65   70.89
  -3   9   6 1579.64   58.29
  -3   9   6 1577.24   67.49
   3   9  -6 1600.24   72.89
   3   9  -6 1569.94   66.19
   2  -9  -6   13.00   23.50
   2  -9  -6   59.89   18.20
  -2  -9   6   73.79   20.40
  -2  -9   6   34.20   17.00
  -2  -9   6   37.70   19.20
   2  -9  -6   56.39   22.60
   2  -9  -6   73.29   26.30
  -2  -9   6   18.40   15.80
  -2  -9   6   62.29    8.40
   2  -9  -6   46.00   22.70
   2   9  -6   24.80   19.20
  -2   9   6   78.39   17.50
  -2   9   6   82.29   24.40
   2   9  -6   59.09   23.50
   2   9  -6   58.39   22.40
  -2   9   6   41.80   20.20
  -2   9   6   35.40   20.60
   2   9  -6   38.70   23.80
  -1  -9   6 2354.86   91.09
   1  -9  -6 2434.56   86.89
   1  -9  -6 2367.56   90.69
   1  -9  -6 2376.26   84.09
  -1  -9   6 2257.17   86.59
  -1  -9   6 2361.16   88.39
  -1  -9   6 2443.36   72.59
   1  -9  -6 2315.07   77.49
  -1  -9   6 2459.15   81.79
   1  -9  -6 2347.97   84.39
  -1  -9   6 2357.26   80.69
  -1   9   6 2385.36   77.99
  -1   9   6 2378.36   82.49
  -1   9   6 2390.06   72.39
   1   9  -6 2411.16   89.29
   1   9  -6 2344.27   80.49
   1   9  -6 2326.77   84.29
  -1   9   6 2559.34   76.99
  -1   9   6 2361.76   84.39
   1   9  -6 2479.65   85.89
   0  -9  -6   37.20   20.50
   0  -9  -6   52.29   24.00
   0  -9   6   52.79   18.30
   0  -9   6   11.30   20.10
   0  -9   6   29.50   13.80
   0  -9  -6   23.30   18.50
   0  -9   6   47.40   20.00
   0  -9  -6   30.80   18.70
   0   9   6   65.79   22.70
   0   9   6   56.19   16.60
   0   9   6   18.50   16.20
   0   9   6   20.10   18.40
   0   9  -6   32.90   18.00
   0   9  -6   13.60   22.20
   0   9  -6   55.69   22.40
   0   9  -6  112.59   42.90
   0   9  -6   14.90   17.20
  -1  -9  -6 1438.56   63.99
   1  -9   6 1435.26   41.30
  -1  -9  -6 1427.66   60.49
   1  -9   6 1324.97   64.09
   1  -9   6 1380.96   52.69
  -1  -9  -6 1383.06   71.49
   1  -9   6 1388.26   59.19
   1  -9   6 1466.85   46.70
   1  -9   6 1345.17   57.39
   1   9   6 1363.26   65.19
   1   9   6 1369.46   49.80
  -1   9  -6 1337.27   64.49
  -1   9  -6 1446.96   56.79
  -1   9  -6 1330.57   59.49
  -1   9  -6 1473.75   69.69
   1   9   6 1372.16   61.69
  -2  -9  -6  181.88   27.20
   2  -9   6  170.88   25.40
   2  -9   6  136.79   26.40
  -2  -9  -6  152.98   35.70
   2  -9   6  143.29   20.20
   2  -9   6  138.99   25.50
  -2  -9  -6  102.39   23.90
   2   9   6  170.18   18.00
   2   9   6  170.18   31.30
  -2   9  -6  118.09   21.90
  -2   9  -6  141.49   34.10
  -2   9  -6  111.99   24.30
  -2   9  -6   92.99   21.40
  -2   9  -6  144.99   27.00
  -3  -9  -6  602.84   55.89
  -3  -9  -6  683.83   54.69
   3  -9   6  637.14   46.70
   3  -9   6  699.83   45.90
  -3  -9  -6  706.83   47.50
  -3   9  -6  705.13   46.70
  -3   9  -6  644.94   43.60
  -3   9  -6  663.63   43.30
   3   9   6  598.04   50.19
  -3   9  -6  623.94   59.49
   3   9   6  564.64   44.80
   4  -9   6  134.59   28.10
  -4  -9  -6  212.88   29.40
   4  -9   6  202.18   33.50
  -4  -9  -6  190.38   32.80
   4   9   6  176.18   32.10
  -4   9  -6  236.58   33.50
   4   9   6  155.88   33.60
  -4   9  -6  207.78   33.90
  -4   9  -6  145.99   37.30
  -4   9  -6  173.08   47.80
  -4   9  -6  196.78   27.80
  -5 -10   6  377.16   37.70
   5 -10  -6  348.57   43.10
  -5 -10   6  262.17   32.40
   5 -10  -6  328.87   42.50
   5 -10  -6  351.06   42.80
  -5 -10   6  349.07   46.40
  -5 -10   6  329.47   37.60
  -5  10   6  334.47   40.80
  -5  10   6  271.87   35.80
   5  10  -6  275.17   34.50
  -5  10   6  357.36   46.40
   5  10  -6  408.66   40.10
   5  10  -6  334.47   41.10
  -5  10   6  336.87   47.10
   5  10  -6  391.46   47.20
   4 -10  -6  300.47   43.20
  -4 -10   6  339.27   40.10
   4 -10  -6  307.67   46.40
  -4 -10   6  327.27   42.90
   4 -10  -6  297.57   40.30
   4 -10  -6  321.17   38.90
  -4 -10   6  238.48   27.10
  -4 -10   6  327.47   35.30
   4  10  -6  298.27   39.20
  -4  10   6  383.36   49.30
   4  10  -6  249.08   50.89
  -4  10   6  273.67   32.30
   4  10  -6  326.47   40.40
   4  10  -6  255.57   58.89
  -4  10   6  271.97   40.50
  -3 -10   6   64.39   17.50
   3 -10  -6   48.30   27.90
  -3 -10   6   53.19   23.80
   3 -10  -6   63.69   29.70
  -3 -10   6   46.40   23.00
   3 -10  -6   34.70   23.20
   3 -10  -6   45.40   30.60
  -3 -10   6   66.79   28.40
  -3 -10   6   45.20   20.00
  -3  10   6   74.69   28.50
   3  10  -6   32.50   30.60
   3  10  -6   52.99   30.70
   3  10  -6   97.09   33.10
  -3  10   6   89.59   31.50
   3  10  -6   80.19   29.30
  -3  10   6   63.89   33.70
  -3  10   6   53.59   21.60
  -3  10   6  119.49   25.00
  -2 -10   6  181.68   29.00
   2 -10  -6  191.88   26.30
   2 -10  -6  152.28   28.00
   2 -10  -6  283.87   42.10
  -2 -10   6  177.78   25.20
  -2 -10   6  209.18   29.10
   2 -10  -6  263.67   36.20
  -2 -10   6  229.88   33.00
  -2  10   6  279.27   35.40
  -2  10   6  177.48   31.90
   2  10  -6  229.28   34.80
  -2  10   6  213.18   32.00
   2  10  -6  224.28   32.40
   2  10  -6  203.18   34.00
   2  10  -6  215.08   31.90
  -2  10   6  209.88   24.90
  -1 -10   6   60.09   20.60
   1 -10  -6   94.69   27.60
  -1 -10   6  110.49   19.30
   1 -10  -6  102.49   21.80
  -1 -10   6  110.59   24.40
   1 -10  -6   32.80   28.50
   1 -10  -6  126.99   31.70
  -1 -10   6   55.79   20.70
  -1  10   6   93.09   22.30
  -1  10   6   57.59   22.10
   1  10  -6  108.39   26.80
  -1  10   6   76.79   20.20
   1  10  -6   72.99   32.00
   1  10  -6   60.29   25.00
  -1  10   6   86.59   25.10
   1  10  -6   83.09   28.60
   0 -10   6  390.56   36.20
   0 -10   6  412.76   30.20
   0 -10  -6  355.86   43.30
   0 -10   6  423.76   41.00
   0 -10  -6  349.37   44.00
   0 -10   6  412.16   40.00
   0 -10  -6  337.37   37.40
   0  10   6  428.66   34.30
   0  10  -6  401.36   43.50
   0  10   6  457.45   38.10
   0  10  -6  387.66   39.60
   0  10  -6  315.07   33.60
   0  10   6  331.87   43.40
   0  10  -6  399.86   50.79
   0  10   6  366.76   41.10
   1 -10   6  189.68   30.50
  -1 -10  -6  172.98   30.60
   1 -10   6  250.17   22.00
   1 -10   6  249.97   30.20
  -1 -10  -6  212.88   34.00
   1 -10   6  251.47   31.70
  -1 -10  -6  204.68   35.50
   1 -10   6  193.38   28.20
  -1  10  -6  251.67   35.90
  -1  10  -6  271.37   31.30
   1  10   6  230.68   25.00
   1  10   6  258.07   30.90
   1  10   6  244.78   35.30
  -1  10  -6  247.68   32.60
  -1  10  -6  232.88   38.30
  -2 -10  -6  202.68   32.30
   2 -10   6  241.68   33.80
  -2 -10  -6  214.88   36.90
   2  10   6  291.87   34.30
  -2  10  -6  178.78   29.50
  -2  10  -6  220.78   34.60
   2  10   6  219.78   32.60
   2  10   6  204.98   22.70
   3 -10   6  558.74   46.80
   3 -10   6  571.24   46.30
  -3 -10  -6  609.64   49.70
  -3 -10  -6  542.05   57.39
  -3 -10  -6  618.04   53.79
  -3  10  -6  601.94   47.00
   3  10   6  560.34   46.40
  -3  10  -6  648.84   49.00
  -3  10  -6  622.14   59.79
   3  10   6  575.64   53.59
  -3  10  -6  560.94   45.50
  -3  10  -6  613.34   58.29
  -3 -11   6   98.99   28.40
  -3 -11   6   95.99   29.30
  -3 -11   6   38.10   30.40
   3 -11  -6   60.69   35.70
   3 -11  -6   18.70   31.80
   3 -11  -6   17.00   29.40
  -3 -11   6   29.00   27.20
   3 -11  -6   53.89   22.90
   3  11  -6   48.70   32.00
   3  11  -6  103.49   30.40
   3  11  -6    1.00   40.90
  -3  11   6    6.10   31.00
  -3  11   6   68.79   29.00
   3  11  -6   70.09   32.50
  -3  11   6   30.20   24.20
  -2 -11   6   20.30   19.20
   2 -11  -6    4.50   32.40
   2 -11  -6   56.99   26.70
   2 -11  -6   57.99   22.80
  -2 -11   6   78.49   37.10
  -2 -11   6   49.20   28.20
   2 -11  -6   67.69   32.80
  -2 -11   6   57.49   27.00
  -2  11   6   34.00   31.40
   2  11  -6   33.80   27.50
   2  11  -6   42.50   26.80
  -2  11   6   57.59   25.20
   2  11  -6   62.79   31.20
  -2  11   6   32.70   23.80
  -2  11   6   56.99   33.40
  -1 -11   6  187.48   27.30
   1 -11  -6  208.88   27.90
   1 -11  -6  162.28   32.80
  -1 -11   6  151.78   31.00
   1 -11  -6  143.89   36.70
  -1 -11   6  174.18   31.00
   1 -11  -6  189.58   34.50
  -1 -11   6  206.48   34.30
   1  11  -6  222.98   40.40
  -1  11   6  192.58   35.10
   1  11  -6  186.88   36.00
  -1  11   6  189.68   30.50
  -1  11   6  214.18   32.60
  -1  11   6  190.08   28.70
   1  11  -6  142.49   39.00
   0 -11  -6  133.79   31.40
   0 -11   6  117.39   21.00
   0 -11   6   72.89   24.60
   0 -11   6  135.49   30.90
   0 -11  -6  129.89   53.79
   0 -11   6  103.49   24.30
   0 -11  -6  135.29   36.80
   0 -11  -6  140.79   25.10
   0  11  -6  138.19   35.00
   0  11   6  129.29   25.90
   0  11   6  180.38   29.90
   0  11   6  208.28   37.20
   0  11  -6  130.59   31.10
   0  11   6  163.58   30.40
   0  11  -6  177.78   33.30
   0  11  -6  159.88   34.20
   1 -11   6  190.28   19.10
   1 -11   6  164.08   29.70
  -1 -11  -6  207.28   43.10
  -1 -11  -6  194.68   33.40
   1 -11   6  201.18   33.30
  -1 -11  -6   84.09   34.60
   1 -11   6  173.98   28.20
   1  11   6  240.38   38.80
  -1  11  -6  198.08   34.40
   1  11   6  203.38   29.00
   1  11   6  175.78   33.60
  -1  11  -6  169.98   30.00
  -1  11  -6  192.18   33.90
  -1  11  -6  210.68   40.70
  -8   0   7   -0.50   23.30
   8   0  -7  -18.10   20.60
   8   0  -7   14.10   17.10
  -8   0   7   15.20   25.30
   8   0  -7   24.00   28.50
  -8   0   7   -0.50   28.90
   8   0  -7  -56.09   20.40
  -8   0   7   19.50   31.00
   8   0  -7  -17.00   24.60
  -7   0   7  381.76   42.50
   7   0  -7  409.56   44.70
  -7   0   7  410.36   35.30
   7   0  -7  380.46   41.20
  -7   0   7  391.46   37.40
  -7   0   7  415.56   45.20
   7   0  -7  398.86   39.50
   7   0  -7  359.06   35.00
   7   0  -7  375.66   32.00
   6   0  -7   11.70   17.20
   6   0  -7    1.60   17.60
  -6   0   7  -14.20   17.00
   6   0  -7  -32.10   16.90
   6   0  -7   -0.10   17.90
  -6   0   7   -4.70   13.50
  -6   0   7    7.10   17.80
  -6   0   7    9.90   15.00
   6   0  -7   -1.00   16.90
   5   0  -7    7.50   16.30
   5   0  -7    5.60   14.50
  -5   0   7   46.20   19.30
   5   0  -7   22.50   15.60
  -5   0   7   36.60   15.90
  -5   0   7   -4.50   11.80
  -5   0   7   36.10   15.90
  -5   0   7   23.20   16.20
   5   0  -7    5.60   17.50
  -4   0   7   36.30   16.20
   4   0  -7   -8.30   14.30
   4   0  -7   -5.00   13.10
   4   0  -7    3.70   18.10
  -4   0   7   -6.30   10.90
   4   0  -7   -3.80   12.70
  -4   0   7  -16.80   13.10
  -4   0   7    9.30   14.10
   4   0  -7    6.10   12.20
  -4   0   7  -20.80   10.70
  -4   0   7   14.40   10.90
   3   0  -7  130.89   19.00
  -3   0   7  107.79   17.90
  -3   0   7  138.89   14.80
  -3   0   7  122.99   15.50
  -3   0   7  110.99   17.80
  -3   0   7   95.79   16.50
  -3   0   7  133.19   12.00
   3   0  -7   98.89   18.10
   3   0  -7   93.49   15.50
  -3   0   7   96.29   14.50
   3   0  -7  124.29   19.90
  -3   0   7   83.49   17.00
   3   0  -7  108.89   19.30
   3   0  -7  154.88   20.50
   3   0  -7   95.39   17.10
   2   0  -7    7.00   11.80
  -2   0   7    8.70   14.70
  -2   0   7   13.10   11.90
   2   0  -7    8.10   11.50
   2   0  -7    5.50   11.50
   2   0  -7   12.40   11.20
  -2   0   7    3.80    8.30
   2   0  -7   -4.10   11.40
  -2   0   7    9.70   11.80
  -2   0   7   -2.00    5.30
   2   0  -7   -3.30   10.10
  -2   0   7   14.70    8.60
   2   0  -7   24.00   12.20
  -2   0   7  -13.60    7.60
   1   0  -7  952.00   37.30
   1   0  -7  951.50   38.40
   1   0  -7  945.51   37.80
  -1   0   7  988.60   27.80
  -1   0   7  965.10   34.10
  -1   0   7  972.80   39.30
   1   0  -7  939.31   40.80
  -1   0   7  989.60   35.30
   1   0  -7  951.80   37.30
  -1   0   7  986.00   28.00
  -1   0   7  931.71   36.40
   1   0  -7  977.00   36.00
   1   0  -7 1025.30   36.80
  -1   0   7 1009.60   43.00
   0   0   7    4.30   13.40
   0   0  -7   -3.30    4.00
   0   0  -7    1.30    7.20
   0   0   7   -8.30    5.20
   0   0  -7   -6.50    8.60
   0   0  -7    4.90   11.50
   0   0   7    3.40    6.20
   0   0  -7    0.60    8.00
   0   0  -7  -13.70   10.90
   0   0  -7   -8.80    6.60
   0   0  -7   -5.20    3.60
   0   0  -7  -11.10    8.90
   0   0   7  -12.80    9.90
  -1   0  -7 1390.06   38.70
  -1   0  -7 1322.17   49.40
  -1   0  -7 1273.17   43.40
  -1   0  -7 1324.37   37.90
   1   0   7 1263.27   42.70
   1   0   7 1310.57   43.70
  -1   0  -7 1343.57   36.60
  -1   0  -7 1323.17   39.20
   1   0   7 1401.16   53.79
  -1   0  -7 1341.57   40.00
  -1   0  -7 1374.66   38.40
  -2   0  -7    5.50    9.90
  -2   0  -7   -2.20    5.20
  -2   0  -7    7.20    5.10
   2   0   7   12.30   13.90
  -2   0  -7  -17.50   10.70
  -2   0  -7   11.10    5.10
   2   0   7    4.30   14.50
   2   0   7   -5.10   11.80
  -2   0  -7   -8.40    7.00
  -2   0  -7    7.80    6.30
  -3   0  -7 2211.08   50.89
   3   0   7 2160.18   69.29
  -3   0  -7 2118.89   51.59
   3   0   7 2157.58   58.59
  -3   0  -7 2108.99   62.39
   3   0   7 2040.20   73.09
  -3   0  -7 2054.19   66.49
  -3   0  -7 2136.49   62.99
  -3   0  -7 2039.70   70.59
  -4   0  -7  -14.90   12.00
  -4   0  -7   -7.10   10.40
  -4   0  -7    8.40   14.00
  -4   0  -7  -13.40   12.00
  -4   0  -7  -11.20   13.80
   4   0   7  -19.50   15.20
   4   0   7   37.30   17.00
  -4   0  -7   -7.80   14.00
   4   0   7   -1.00   12.10
  -5   0  -7 1315.47   56.09
  -5   0  -7 1458.15   51.39
   5   0   7 1417.86   61.69
  -5   0  -7 1417.86   50.59
  -5   0  -7 1398.96   60.09
  -5   0  -7 1417.76   58.99
   5   0   7 1361.66   60.79
  -5   0  -7 1332.67   53.99
  -6   0  -7   -9.90   16.70
  -6   0  -7   -5.70   16.50
  -6   0  -7  -15.20   20.10
  -6   0  -7   26.60   22.40
  -6   0  -7    7.10   16.80
  -6   0  -7   25.00   25.80
   6   0   7   10.00   19.70
   6   0   7   34.50   22.30
   8  -1  -7  656.93   43.70
   8  -1  -7  739.03   39.90
   8  -1  -7  770.92   57.29
   8  -1  -7  609.74   47.40
   8  -1  -7  702.23   59.09
  -8  -1   7  683.73   66.99
  -8  -1   7  682.93   50.79
  -8  -1   7  689.83   60.19
  -8  -1   7  612.34   61.49
  -8   1   7  621.34   51.89
  -8   1   7  608.54   53.29
   8   1  -7  733.63   47.40
   8   1  -7  735.93   55.79
  -8   1   7  632.54   65.29
   8   1  -7  667.43   58.49
  -8   1   7  675.23   58.69
   8   1  -7  555.14   40.00
   7  -1  -7  565.94   35.00
   7  -1  -7  541.75   42.60
   7  -1  -7  441.56   35.40
  -7  -1   7  499.35   47.20
   7  -1  -7  564.94   47.90
  -7  -1   7  419.46   39.50
  -7  -1   7  501.05   47.80
   7  -1  -7  475.75   45.80
  -7  -1   7  498.25   38.70
   7   1  -7  471.35   44.60
  -7   1   7  575.54   41.80
  -7   1   7  501.65   40.00
  -7   1   7  525.65   46.50
   7   1  -7  493.55   39.30
  -7   1   7  618.14   49.50
   7   1  -7  536.35   35.10
   7   1  -7  537.05   44.40
   6  -1  -7  258.27   30.70
   6  -1  -7  232.48   29.40
   6  -1  -7  282.07   33.50
  -6  -1   7  264.97   34.60
   6  -1  -7  281.27   33.10
  -6  -1   7  294.67   27.70
  -6  -1   7  295.77   31.40
  -6  -1   7  335.97   36.80
   6  -1  -7  293.17   28.70
  -6   1   7  311.07   29.10
   6   1  -7  305.37   38.10
   6   1  -7  284.67   32.60
   6   1  -7  334.87   33.70
  -6   1   7  200.58   29.10
  -6   1   7  291.27   31.00
  -6   1   7  228.78   29.30
   6   1  -7  304.37   32.30
   6   1  -7  249.48   27.30
  -5  -1   7  849.02   40.80
   5  -1  -7  821.22   46.40
  -5  -1   7  840.32   43.70
   5  -1  -7  818.82   43.60
  -5  -1   7  879.51   36.00
   5  -1  -7  827.72   43.90
   5  -1  -7  838.12   44.40
  -5  -1   7  849.52   43.80
  -5   1   7  815.72   36.50
   5   1  -7  763.32   43.60
  -5   1   7  802.12   43.90
   5   1  -7  771.52   41.50
  -5   1   7  747.33   45.30
   5   1  -7  757.92   45.50
   5   1  -7  829.12   43.30
  -5   1   7  891.41   40.40
  -5   1   7  792.02   40.40
  -4  -1   7   32.20   14.90
  -4  -1   7   46.50   15.70
  -4  -1   7   31.70   14.10
  -4  -1   7   44.10   13.70
  -4  -1   7   28.40    8.70
   4  -1  -7   35.90   16.30
   4  -1  -7   21.50   15.10
   4  -1  -7   24.80   19.40
  -4  -1   7   32.80   12.50
   4  -1  -7   42.50   17.00
   4  -1  -7   30.30   15.50
  -4   1   7   17.70   13.20
   4   1  -7   15.30   12.30
  -4   1   7   37.80   11.80
   4   1  -7   10.40   16.80
  -4   1   7   25.80   13.10
   4   1  -7   48.40   19.10
   4   1  -7   22.60   15.30
   4   1  -7   19.40   15.20
  -4   1   7   24.70   15.90
   4   1  -7   28.00   14.60
  -4   1   7   56.69   15.90
  -4   1   7   41.60   15.60
   3  -1  -7 2054.89   65.69
   3  -1  -7 2081.99   66.99
  -3  -1   7 2014.40   61.09
   3  -1  -7 1966.90   68.19
  -3  -1   7 2059.39   65.59
   3  -1  -7 1975.00   67.49
  -3  -1   7 1945.71   66.79
   3  -1  -7 2009.10   65.09
  -3  -1   7 2032.50   58.59
  -3  -1   7 2002.50   52.09
  -3  -1   7 2005.30   64.89
  -3  -1   7 2126.99   61.69
   3  -1  -7 1982.20   68.39
   3   1  -7 2000.50   65.99
   3   1  -7 2176.48   68.19
  -3   1   7 2003.60   61.19
   3   1  -7 2036.80   68.29
  -3   1   7 2056.69   64.99
  -3   1   7 2171.98   62.49
   3   1  -7 2023.70   65.29
  -3   1   7 2078.69   68.59
  -3   1   7 2107.39   57.19
   3   1  -7 2065.89   65.79
   3   1  -7 2042.70   67.49
  -3   1   7 2156.58   68.09
  -2  -1   7  137.49   16.50
   2  -1  -7  130.59   17.80
   2  -1  -7   91.99   15.70
  -2  -1   7  108.59   12.40
   2  -1  -7  105.99   16.80
  -2  -1   7  117.29   14.50
  -2  -1   7  138.89   19.00
   2  -1  -7  115.79   15.80
  -2  -1   7  135.99   14.90
  -2  -1   7  121.09   17.50
   2  -1  -7  121.19   12.10
   2  -1  -7   88.89   16.80
  -2  -1   7  118.59   13.00
  -2  -1   7  100.09   15.60
   2  -1  -7  109.59   15.10
   2  -1  -7  143.99   19.80
  -2   1   7  120.59    8.20
   2   1  -7  124.49   17.20
  -2   1   7   98.79   11.20
   2   1  -7  136.59   18.10
  -2   1   7   93.89   14.10
   2   1  -7  105.69   14.80
  -2   1   7  115.39   15.50
  -2   1   7  149.39   20.50
   2   1  -7   83.39   16.10
  -2   1   7  105.29   14.30
   2   1  -7  130.19   17.10
  -2   1   7  100.99   12.40
  -2   1   7  116.59   13.40
   2   1  -7  129.09   16.20
  -2   1   7  114.39   18.60
   2   1  -7   87.69   14.80
   1  -1  -7 1612.54   53.89
   1  -1  -7 1704.73   58.29
  -1  -1   7 1686.63   54.59
   1  -1  -7 1834.82   45.70
  -1  -1   7 1675.43   50.49
   1  -1  -7 1766.22   52.49
   1  -1  -7 1734.23   57.79
  -1  -1   7 1791.42   46.70
  -1  -1   7 1682.23   50.99
  -1  -1   7 1731.83   43.70
  -1  -1   7 1691.83   43.60
  -1  -1   7 1732.73   60.79
   1  -1  -7 1663.93   52.99
  -1  -1   7 1736.13   55.79
   1  -1  -7 1700.63   52.99
   1  -1  -7 1729.23   54.39
   1   1  -7 1664.93   57.99
  -1   1   7 1694.43   44.60
  -1   1   7 1722.43   60.59
   1   1  -7 1764.22   53.69
   1   1  -7 1673.23   52.69
   1   1  -7 1666.83   53.49
  -1   1   7 1690.93   51.19
   1   1  -7 1693.73   51.29
   1   1  -7 1720.33   53.09
  -1   1   7 1722.83   45.00
  -1   1   7 1783.22   53.29
   1   1  -7 1696.13   55.29
   1   1  -7 1703.23   46.60
  -1   1   7 1724.93   52.19
   0  -1   7 1504.55   55.19
   0  -1  -7 1478.55   39.50
   0  -1  -7 1454.05   50.29
   0  -1   7 1355.26   46.90
   0  -1   7 1386.46   38.80
   0  -1  -7 1369.06   51.09
   0  -1  -7 1330.97   44.10
   0  -1  -7 1337.37   43.70
   0  -1   7 1403.86   39.20
   0  -1  -7 1394.66   42.70
   0  -1  -7 1349.56   44.80
   0  -1  -7 1407.86   43.20
   0   1  -7 1396.06   42.10
   0   1   7 1369.66   46.40
   0   1  -7 1411.26   42.60
   0   1  -7 1437.26   39.60
   0   1  -7 1361.26   42.80
   0   1   7 1358.66   53.39
   0   1  -7 1311.47   46.60
   0   1  -7 1302.57   50.19
   0   1   7 1367.76   43.10
   0   1  -7 1427.06   45.40
   0   1  -7 1386.56   44.80
   0   1   7 1446.56   41.00
   1  -1   7  135.59   20.10
  -1  -1  -7  126.79   14.50
  -1  -1  -7  120.79   17.50
  -1  -1  -7  143.79    7.30
  -1  -1  -7  129.79   15.30
   1  -1   7  136.39   17.00
  -1  -1  -7  143.79   14.30
  -1  -1  -7  147.69   13.20
   1  -1   7  137.99   18.00
   1  -1   7  140.79   15.80
  -1  -1  -7  146.79   14.10
  -1  -1  -7  156.68   20.90
  -1  -1  -7  147.79   14.30
  -1   1  -7  116.89   12.90
  -1   1  -7  126.49   10.10
   1   1   7  147.69   16.00
  -1   1  -7  110.69   17.00
   1   1   7  110.69   14.70
  -1   1  -7  135.19   11.50
  -1   1  -7  141.39   13.10
  -1   1  -7  125.39   13.50
  -1   1  -7  125.39   13.70
  -1   1  -7  131.39   15.60
   2  -1   7 2542.95   70.69
   2  -1   7 2370.96   67.49
  -2  -1  -7 2495.45   62.49
  -2  -1  -7 2346.87   72.99
  -2  -1  -7 2431.86   65.99
  -2  -1  -7 2378.96   60.99
  -2  -1  -7 2529.65   61.89
  -2  -1  -7 2377.26   77.69
  -2  -1  -7 2478.25   61.49
  -2  -1  -7 2534.85   61.39
   2  -1   7 2350.66   70.49
  -2   1  -7 2398.66   59.39
  -2   1  -7 2420.16   59.59
  -2   1  -7 2302.57   69.59
   2   1   7 2454.75   65.19
  -2   1  -7 2350.86   66.59
   2   1   7 2419.56   80.09
  -2   1  -7 2445.76   65.19
  -2   1  -7 2431.46   74.29
   2   1   7 2456.05   71.39
  -2   1  -7 2485.75   59.39
  -2   1  -7 2376.36   58.59
  -3  -1  -7   14.30   10.70
   3  -1   7   39.50   15.90
   3  -1   7   37.60   15.90
  -3  -1  -7   22.20   12.70
  -3  -1  -7   38.80    6.40
  -3  -1  -7   30.90   15.80
   3  -1   7   54.09   14.00
   3  -1   7   23.30   15.60
  -3  -1  -7   37.90    7.90
  -3  -1  -7   33.90   10.70
   3   1   7   72.79   17.90
  -3   1  -7   26.20    5.50
  -3   1  -7   15.70   12.10
  -3   1  -7   29.70   11.90
  -3   1  -7   25.30   13.80
  -3   1  -7   17.80   12.60
   3   1   7   29.80   15.50
   3   1   7   45.40   10.90
  -3   1  -7   18.90    4.20
  -4  -1  -7 1507.85   39.50
  -4  -1  -7 1572.74   48.30
   4  -1   7 1267.77   59.39
   4  -1   7 1517.15   59.19
  -4  -1  -7 1418.26   56.89
  -4  -1  -7 1554.64   38.90
  -4  -1  -7 1536.25   52.19
   4  -1   7 1496.35   60.09
  -4   1  -7 1527.65   57.19
   4   1   7 1541.65   61.49
  -4   1  -7 1560.54   53.59
  -4   1  -7 1509.05   55.39
  -4   1  -7 1548.55   54.89
  -4   1  -7 1509.45   55.59
   4   1   7 1599.64   61.49
  -4   1  -7 1500.75   54.69
  -5  -1  -7  318.27   24.90
  -5  -1  -7  307.67   16.70
  -5  -1  -7  315.37   26.90
   5  -1   7  342.27   34.20
  -5  -1  -7  288.57   34.70
   5  -1   7  388.86   36.90
  -5  -1  -7  260.87   30.50
   5   1   7  288.27   33.00
  -5   1  -7  297.17   30.30
  -5   1  -7  326.47   36.10
  -5   1  -7  286.47   29.90
  -5   1  -7  289.87   33.00
  -5   1  -7  324.87   33.50
   5   1   7  335.87   35.60
  -5   1  -7  318.37   29.00
   6  -1   7  374.76   38.40
  -6  -1  -7  357.56   36.70
  -6  -1  -7  399.16   48.00
   6  -1   7  365.06   40.70
  -6  -1  -7  475.25   51.49
  -6  -1  -7  424.86   30.40
  -6   1  -7  427.96   36.10
  -6   1  -7  414.86   35.00
  -6   1  -7  453.05   37.40
   6   1   7  363.26   40.50
  -6   1  -7  382.76   42.10
  -6   1  -7  366.96   47.80
   6   1   7  442.76   43.50
  -6   1  -7  421.26   43.80
   8  -2  -7  791.12   55.19
  -8  -2   7  808.72   52.19
   8  -2  -7  797.32   58.49
  -8  -2   7  829.02   66.29
  -8  -2   7  754.32   48.70
   8  -2  -7  726.13   60.89
   8  -2  -7  798.82   47.30
   8  -2  -7  754.32   41.20
  -8  -2   7  849.52   61.89
  -8   2   7  805.72   62.79
  -8   2   7  790.62   48.40
   8   2  -7  843.02   65.49
   8   2  -7  849.72   43.90
   8   2  -7  754.82   49.70
   8   2  -7  885.51   61.19
  -8   2   7  848.92   58.69
  -7  -2   7   23.40   21.70
   7  -2  -7   52.69   20.00
  -7  -2   7   12.20   24.30
  -7  -2   7   36.20   18.50
   7  -2  -7    6.30   21.90
  -7  -2   7   17.30   23.60
   7  -2  -7  -26.80   22.00
  -7  -2   7   13.90   17.50
   7  -2  -7   -1.80   15.70
   7  -2  -7   28.50   20.50
   7   2  -7    5.00   23.10
   7   2  -7   17.10   19.40
  -7   2   7   20.50   19.70
   7   2  -7   51.19   24.90
  -7   2   7   24.30   21.50
   7   2  -7   38.70   18.50
  -7   2   7   39.90   27.30
  -7   2   7   56.29   19.80
  -7   2   7   27.20   23.20
   7   2  -7   33.30   22.20
  -6  -2   7 2078.29   67.09
  -6  -2   7 2093.49   71.89
   6  -2  -7 2097.69   77.39
  -6  -2   7 2116.79   78.09
  -6  -2   7 2040.90   76.69
   6  -2  -7 2098.99   70.29
   6  -2  -7 1995.20   73.89
  -6  -2   7 2161.08   73.39
   6  -2  -7 2079.39   80.29
   6  -2  -7 2080.59   64.09
   6   2  -7 2026.70   79.09
  -6   2   7 2076.59   71.69
  -6   2   7 2103.09   79.49
   6   2  -7 2088.29   76.69
  -6   2   7 2107.79   72.09
  -6   2   7 2062.19   78.09
   6   2  -7 2085.19   75.39
   6   2  -7 2072.99   72.79
  -6   2   7 2040.20   71.69
   6   2  -7 2043.10   62.19
   5  -2  -7   18.40   18.50
   5  -2  -7  -11.10   14.70
   5  -2  -7   11.00   14.30
  -5  -2   7   12.40   13.60
  -5  -2   7   19.40   14.50
  -5  -2   7    8.60   15.40
  -5  -2   7   18.30   11.60
   5  -2  -7   19.70   18.20
  -5  -2   7   23.60   17.00
  -5   2   7  -10.50   16.30
  -5   2   7    3.30   12.70
   5   2  -7   20.80   16.70
   5   2  -7   23.00   17.70
   5   2  -7   17.80   15.30
  -5   2   7   19.10   13.80
   5   2  -7    4.40   15.60
  -5   2   7   11.70   17.30
  -4  -2   7 1990.80   67.49
  -4  -2   7 1995.60   65.69
  -4  -2   7 1968.70   66.29
   4  -2  -7 2028.00   71.79
  -4  -2   7 2036.20   64.79
   4  -2  -7 1992.40   70.49
  -4  -2   7 2052.69   63.79
   4  -2  -7 2026.00   67.79
   4  -2  -7 1889.61   66.69
   4  -2  -7 1950.50   66.79
  -4  -2   7 2049.59   55.79
  -4  -2   7 2085.89   67.99
   4  -2  -7 1983.60   70.29
   4   2  -7 1909.51   66.29
   4   2  -7 2030.00   67.19
   4   2  -7 2010.40   69.59
   4   2  -7 1992.00   70.09
   4   2  -7 1982.20   70.09
  -4   2   7 2023.70   68.89
  -4   2   7 2106.19   70.29
  -4   2   7 1983.30   71.09
  -4   2   7 2047.00   65.19
  -4   2   7 1955.90   66.09
   4   2  -7 2039.10   68.29
  -4   2   7 2102.19   63.19
  -3  -2   7   18.10   11.80
  -3  -2   7   53.19   13.80
  -3  -2   7   29.60   12.10
   3  -2  -7   43.20   12.80
   3  -2  -7   44.90   14.10
   3  -2  -7   21.70   16.90
  -3  -2   7   45.40    6.40
   3  -2  -7   62.39   14.80
  -3  -2   7   46.60   12.80
  -3  -2   7   48.80   14.90
   3  -2  -7   33.90   14.50
  -3  -2   7   50.09   12.40
   3  -2  -7   46.90   15.60
   3  -2  -7   40.70   14.40
   3   2  -7   53.39   13.60
   3   2  -7   35.40   14.70
  -3   2   7   54.89    8.50
   3   2  -7    7.20   13.50
  -3   2   7   28.90   16.90
   3   2  -7   48.80   15.40
  -3   2   7   48.00   14.50
   3   2  -7   20.30   14.30
  -3   2   7   58.59   12.40
  -3   2   7   46.70   15.40
  -3   2   7   59.19   13.40
   3   2  -7   43.40   13.70
  -3   2   7   33.70   13.80
   2  -2  -7 1435.86   42.20
   2  -2  -7 1353.16   50.99
  -2  -2   7 1293.87   47.80
  -2  -2   7 1281.07   48.00
  -2  -2   7 1357.06   46.90
   2  -2  -7 1302.87   51.69
   2  -2  -7 1362.36   47.40
   2  -2  -7 1267.87   49.40
   2  -2  -7 1315.97   48.10
  -2  -2   7 1356.66   42.50
   2  -2  -7 1269.27   52.19
  -2  -2   7 1397.26   42.40
  -2  -2   7 1399.66   41.70
   2  -2  -7 1289.57   48.40
  -2  -2   7 1346.37   45.70
   2  -2  -7 1296.07   46.20
  -2   2   7 1306.57   40.90
  -2   2   7 1325.37   46.70
  -2   2   7 1222.58   50.29
  -2   2   7 1307.37   42.70
   2   2  -7 1306.17   48.90
   2   2  -7 1301.27   44.80
   2   2  -7 1277.77   45.80
  -2   2   7 1342.77   42.80
  -2   2   7 1326.77   52.89
   2   2  -7 1268.57   50.59
   2   2  -7 1303.47   47.10
   2   2  -7 1242.88   47.90
  -2   2   7 1344.97   45.30
  -2   2   7 1263.07   47.50
   2   2  -7 1323.97   45.70
  -1  -2   7   51.59   14.10
   1  -2  -7   58.79   15.50
   1  -2  -7   25.60   11.00
   1  -2  -7   45.80   12.40
  -1  -2   7   41.30   10.80
  -1  -2   7   54.09   14.90
   1  -2  -7   34.60   15.70
  -1  -2   7   32.70   13.40
   1  -2  -7   32.50    9.40
   1  -2  -7   45.10   16.00
   1  -2  -7   46.70   15.80
  -1  -2   7   46.90    6.50
  -1  -2   7   39.30    9.90
  -1  -2   7   50.89    6.90
  -1  -2   7   31.40    9.80
   1   2  -7   30.00   12.60
  -1   2   7   54.89   10.80
   1   2  -7   49.80   10.70
  -1   2   7   40.30   15.10
   1   2  -7   46.80   11.80
  -1   2   7   30.00   10.20
  -1   2   7   32.70    8.10
  -1   2   7   23.00   13.90
   1   2  -7   59.89   10.10
   1   2  -7   33.90   11.50
  -1   2   7   70.79   12.90
   1   2  -7   42.50   11.20
   1   2  -7   62.69   11.60
  -1   2   7   35.40   13.10
   1   2  -7   34.30   13.90
   0  -2   7 1557.44   52.09
   0  -2  -7 1549.45   55.69
   0  -2  -7 1534.25   49.60
   0  -2  -7 1572.34   49.60
   0  -2  -7 1489.95   48.20
   0  -2  -7 1536.35   54.89
   0  -2  -7 1586.84   45.80
   0  -2   7 1581.14   43.20
   0  -2  -7 1503.55   58.39
   0  -2   7 1540.55   56.09
   0  -2   7 1600.74   46.50
   0  -2  -7 1485.55   47.10
   0  -2   7 1605.74   53.19
   0   2  -7 1591.84   55.79
   0   2  -7 1502.15   47.80
   0   2   7 1552.74   44.80
   0   2  -7 1615.14   48.50
   0   2  -7 1554.54   46.60
   0   2  -7 1481.95   51.59
   0   2  -7 1568.44   46.40
   0   2   7 1533.65   58.19
   0   2   7 1588.14   46.10
   0   2  -7 1643.14   46.90
   0   2  -7 1550.54   46.70
   0   2   7 1517.15   46.20
   1  -2   7   78.59   15.10
  -1  -2  -7   59.69    9.40
  -1  -2  -7   91.89   11.60
   1  -2   7   90.39   17.90
   1  -2   7   63.89   14.80
  -1  -2  -7   70.09   10.70
   1  -2   7   71.79   15.60
  -1  -2  -7   72.39    9.60
  -1  -2  -7   48.30    9.70
  -1  -2  -7   66.89   14.60
  -1  -2  -7   50.29   15.40
  -1  -2  -7   66.99   12.60
  -1   2  -7   47.90    9.70
  -1   2  -7   70.09   13.80
   1   2   7   70.19    7.70
   1   2   7   45.30   14.90
  -1   2  -7   62.39    9.20
   1   2   7   91.49   13.40
  -1   2  -7   61.99   10.10
  -1   2  -7   58.99   11.70
  -1   2  -7   70.59   10.70
  -1   2  -7   71.69    7.50
  -1   2  -7   59.19   15.70
   1   2   7   81.29    8.20
   1   2   7   52.39   15.90
  -1   2  -7   54.39    8.10
   2  -2   7  311.87   24.20
  -2  -2  -7  309.57   18.60
  -2  -2  -7  305.87   15.40
  -2  -2  -7  319.37   25.30
  -2  -2  -7  286.67   16.50
   2  -2   7  258.27   25.70
  -2  -2  -7  290.67   29.10
   2  -2   7  318.27   25.50
  -2  -2  -7  302.47   16.70
  -2  -2  -7  296.17   14.00
  -2  -2  -7  290.17   16.60
   2  -2   7  296.97   27.90
  -2  -2  -7  311.97   17.10
   2   2   7  280.27   19.50
  -2   2  -7  330.87   23.60
  -2   2  -7  288.27   17.70
  -2   2  -7  331.77   24.50
  -2   2  -7  320.37   16.30
  -2   2  -7  291.27   14.20
  -2   2  -7  309.97   13.80
   2   2   7  214.58   28.10
   2   2   7  295.17   25.50
  -2   2  -7  289.77   14.80
   3  -2   7  117.39   20.50
   3  -2   7   96.19   15.90
  -3  -2  -7  156.78   13.60
  -3  -2  -7  128.99   15.50
  -3  -2  -7  132.89   20.90
  -3  -2  -7  138.19   13.10
   3  -2   7   93.69   18.20
  -3  -2  -7  108.99   16.10
   3  -2   7  109.19   18.40
  -3  -2  -7  129.59   11.10
  -3  -2  -7   95.69   11.40
  -3   2  -7   93.79   16.00
  -3   2  -7  100.09   16.80
  -3   2  -7  115.19    9.30
   3   2   7  132.29   22.80
   3   2   7   94.19   11.80
  -3   2  -7  106.29   15.20
   3   2   7  111.09   19.40
  -4  -2  -7   81.69    8.60
   4  -2   7   81.39   18.90
  -4  -2  -7  105.19   12.50
  -4  -2  -7   98.69   10.80
   4  -2   7  108.99   17.00
  -4  -2  -7  102.09   20.30
   4  -2   7  122.09   19.30
  -4  -2  -7   86.89   10.80
   4  -2   7   70.79   21.40
  -4  -2  -7   98.39   12.00
  -4  -2  -7   92.19   15.90
  -4   2  -7   75.59   19.00
  -4   2  -7   95.59    9.90
  -4   2  -7   77.89   16.80
   4   2   7   97.49   21.10
   4   2   7   84.79   19.00
  -4   2  -7   93.89   18.60
  -4   2  -7   89.39    8.80
  -4   2  -7   80.89   15.50
   5  -2   7   51.09   19.50
   5  -2   7   52.49   31.10
   5  -2   7   25.30   21.20
  -5  -2  -7   27.20   10.00
  -5  -2  -7   22.50   17.20
  -5  -2  -7   28.60   20.90
  -5   2  -7   13.10   16.70
   5   2   7   78.59   23.50
  -5   2  -7   15.60   19.10
  -5   2  -7   26.00   16.60
  -5   2  -7   43.70   20.40
   5   2   7   57.69   21.40
  -5   2  -7   41.30   16.80
  -5   2  -7   14.90   16.90
  -6  -2  -7  468.75   41.40
   6  -2   7  501.05   40.00
  -6  -2  -7  497.85   54.39
   6  -2   7  523.35   44.70
  -6   2  -7  491.55   36.40
   6   2   7  523.65   46.60
  -6   2  -7  433.06   42.00
  -6   2  -7  555.84   49.50
  -6   2  -7  441.66   47.80
  -6   2  -7  473.95   37.90
  -6   2  -7  455.35   41.50
   6   2   7  456.05   44.90
  -8  -3   7  481.05   48.30
  -8  -3   7  484.15   41.70
   8  -3  -7  443.56   52.79
   8  -3  -7  468.95   36.00
   8  -3  -7  536.65   60.49
  -8  -3   7  411.26   48.60
  -8  -3   7  414.26   56.29
  -8  -3   7  517.85   77.99
   8  -3  -7  481.85   42.80
  -8   3   7  378.26   44.10
   8   3  -7  502.65   61.49
  -8   3   7  496.55   46.70
   8   3  -7  432.56   35.70
  -8   3   7  451.15   50.09
   8   3  -7  498.95   43.90
  -8   3   7  439.26   52.69
  -7  -3   7  495.75   47.20
  -7  -3   7  367.56   45.70
  -7  -3   7  401.36   35.00
   7  -3  -7  441.56   44.20
   7  -3  -7  410.66   46.90
   7  -3  -7  397.46   44.10
   7  -3  -7  323.57   33.30
  -7  -3   7  382.86   45.60
  -7  -3   7  409.86   35.20
   7   3  -7  365.46   37.00
   7   3  -7  382.76   46.70
   7   3  -7  429.36   33.00
  -7   3   7  334.37   36.30
   7   3  -7  377.86   45.10
  -7   3   7  372.86   39.60
  -7   3   7  395.56   39.80
  -7   3   7  358.06   46.40
  -7   3   7  425.46   51.19
   7   3  -7  351.76   44.80
  -6  -3   7  481.35   40.30
   6  -3  -7  411.16   40.80
  -6  -3   7  439.46   30.90
  -6  -3   7  487.25   34.80
   6  -3  -7  512.35   40.20
   6  -3  -7  529.55   36.70
   6  -3  -7  553.54   45.30
  -6  -3   7  455.35   39.30
  -6  -3   7  484.95   37.20
   6   3  -7  469.15   41.10
  -6   3   7  427.86   37.00
   6   3  -7  544.75   43.40
  -6   3   7  464.55   42.70
   6   3  -7  417.56   35.70
  -6   3   7  484.05   42.60
  -6   3   7  489.85   37.70
   6   3  -7  484.05   31.50
   6   3  -7  496.75   41.30
  -6   3   7  505.75   42.40
   5  -3  -7 1362.06   59.49
   5  -3  -7 1447.36   58.09
  -5  -3   7 1492.25   49.30
  -5  -3   7 1387.76   56.89
  -5  -3   7 1406.56   54.89
   5  -3  -7 1389.76   61.39
   5  -3  -7 1499.05   57.39
  -5  -3   7 1456.35   59.39
  -5  -3   7 1411.66   55.99
   5   3  -7 1486.05   56.79
  -5   3   7 1536.35   57.59
   5   3  -7 1401.86   47.40
  -5   3   7 1383.76   62.39
  -5   3   7 1399.86   60.59
   5   3  -7 1408.86   59.19
  -5   3   7 1365.46   54.79
   5   3  -7 1509.65   62.39
   5   3  -7 1496.45   58.49
  -5   3   7 1453.15   55.09
  -4  -3   7   -8.00   16.50
   4  -3  -7  -17.40   14.50
  -4  -3   7    2.50   12.20
   4  -3  -7   14.60   16.00
  -4  -3   7   13.10   16.40
   4  -3  -7   -4.30   14.60
   4  -3  -7   15.50   15.50
  -4  -3   7    2.90    7.10
  -4  -3   7    3.20   12.80
  -4  -3   7   -3.30   13.80
   4  -3  -7   13.20   16.70
  -4  -3   7   -8.80   13.10
   4   3  -7    8.90   19.70
  -4   3   7   -9.50   12.60
  -4   3   7   -8.20   10.80
   4   3  -7    1.80   14.30
  -4   3   7    1.30   15.60
   4   3  -7   -5.70   13.70
   4   3  -7  -21.60   15.70
   4   3  -7  -23.80   13.80
   4   3  -7    2.60   14.80
  -4   3   7   19.70   15.20
  -3  -3   7 2813.92   66.59
  -3  -3   7 2617.14   76.79
  -3  -3   7 2752.92   91.29
   3  -3  -7 2746.83   86.59
  -3  -3   7 2741.23   78.69
   3  -3  -7 2798.42   83.09
   3  -3  -7 2998.40   80.09
  -3  -3   7 2653.93   79.59
   3  -3  -7 2732.63   87.89
  -3  -3   7 2672.53   78.89
   3  -3  -7 2865.11   86.79
  -3  -3   7 2718.73   82.39
   3  -3  -7 2677.53   86.49
  -3   3   7 2836.02   69.49
   3   3  -7 2719.73   81.29
  -3   3   7 2782.22   84.49
   3   3  -7 2632.74   84.09
  -3   3   7 2942.11   86.19
  -3   3   7 2899.91   81.29
  -3   3   7 2832.92   79.09
   3   3  -7 2882.51   80.29
  -3   3   7 2767.82   78.69
  -3   3   7 2820.72   80.79
   3   3  -7 2840.02   85.39
   3   3  -7 2651.83   83.89
   3   3  -7 2705.73   84.49
   2  -3  -7  159.08   18.90
  -2  -3   7  116.99   13.40
  -2  -3   7  111.99   17.60
   2  -3  -7   97.29   18.60
   2  -3  -7  105.89   17.40
   2  -3  -7  106.59   18.20
   2  -3  -7  100.89   15.00
   2  -3  -7  112.09   20.00
   2  -3  -7  127.19   17.10
  -2  -3   7  129.59   15.80
  -2  -3   7  104.79   14.20
  -2  -3   7  106.59   13.10
  -2   3   7  132.89   14.90
  -2   3   7  123.09   15.70
  -2   3   7  176.08   19.50
   2   3  -7  113.59   16.80
   2   3  -7  116.19   16.20
   2   3  -7   98.79   17.40
   2   3  -7  119.69   15.70
   2   3  -7  120.79   14.50
   2   3  -7   75.49   16.60
  -2   3   7  106.39   18.80
   2   3  -7  104.99   15.00
  -2   3   7  114.69   16.90
   2   3  -7  137.79   19.20
  -2   3   7  120.39   18.40
   1  -3  -7 2624.74   77.39
   1  -3  -7 2477.95   79.39
   1  -3  -7 2688.23   71.69
  -1  -3   7 2640.44   80.29
  -1  -3   7 2519.55   81.09
  -1  -3   7 2585.94   72.19
  -1  -3   7 2603.64   78.19
   1  -3  -7 2637.04   80.59
   1  -3  -7 2669.63   77.49
  -1  -3   7 2633.94   71.89
   1  -3  -7 2492.35   74.29
   1  -3  -7 2544.35   83.09
  -1  -3   7 2652.13   64.69
   1  -3  -7 2609.64   73.39
  -1  -3   7 2623.74   72.39
  -1  -3   7 2685.03   76.89
   1  -3  -7 2603.24   71.49
  -1   3   7 2654.03   68.09
   1   3  -7 2657.23   73.19
   1   3  -7 2504.05   79.19
  -1   3   7 2615.94   82.39
  -1   3   7 2553.14   75.09
   1   3  -7 2662.53   78.19
  -1   3   7 2531.95   79.49
  -1   3   7 2659.13   70.39
   1   3  -7 2546.65   75.49
   1   3  -7 2630.84   73.09
   1   3  -7 2445.66   80.39
   1   3  -7 2464.65   74.49
  -1   3   7 2647.54   73.79
   0  -3   7  743.33   27.00
   0  -3   7  756.12   38.20
   0  -3   7  746.23   31.90
   0  -3  -7  735.33   32.80
   0  -3  -7  788.82   32.70
   0  -3  -7  766.32   40.60
   0  -3  -7  756.82   32.60
   0  -3  -7  754.42   37.90
   0  -3   7  727.93   37.10
   0  -3  -7  773.72   27.70
   0  -3   7  749.82   34.90
   0  -3  -7  779.52   32.00
   0  -3  -7  772.72   33.50
   0   3   7  763.42   31.70
   0   3  -7  746.53   30.40
   0   3   7  754.52   28.40
   0   3   7  757.02   38.40
   0   3   7  682.03   31.40
   0   3  -7  719.73   30.80
   0   3  -7  683.03   36.20
   0   3  -7  804.12   26.40
   0   3   7  771.62   27.10
   0   3  -7  744.63   34.70
   0   3  -7  749.53   30.90
  -1  -3  -7  511.15   31.00
   1  -3   7  473.95   27.10
   1  -3   7  461.05   27.40
  -1  -3  -7  473.35   34.10
  -1  -3  -7  461.55   24.80
   1  -3   7  502.95   30.50
  -1  -3  -7  498.05   19.00
  -1  -3  -7  502.15   27.80
  -1  -3  -7  495.95   24.00
  -1  -3  -7  491.05   24.70
   1  -3   7  519.05   32.90
  -1  -3  -7  488.85   25.50
  -1   3  -7  514.45   30.00
  -1   3  -7  532.65   21.10
   1   3   7  486.55   28.40
  -1   3  -7  514.35   14.40
   1   3   7  472.95   24.70
  -1   3  -7  563.94   28.60
   1   3   7  497.95   34.40
   1   3   7  487.25   19.00
   1   3   7  489.45   21.40
  -1   3  -7  505.85   23.10
  -1   3  -7  494.85   20.20
  -1   3  -7  498.35   22.70
   2  -3   7 2085.99   63.79
  -2  -3  -7 1999.00   57.89
   2  -3   7 2140.39   66.79
  -2  -3  -7 2087.29   73.09
   2  -3   7 2065.09   70.19
   2  -3   7 2176.98   65.69
  -2  -3  -7 2039.00   58.59
  -2  -3  -7 1974.90   66.19
  -2  -3  -7 2110.49   51.19
  -2  -3  -7 2130.99   52.19
  -2  -3  -7 2103.69   57.79
  -2  -3  -7 2039.80   65.39
  -2  -3  -7 2101.89   51.79
  -2  -3  -7 2049.89   58.39
  -2   3  -7 2058.59   54.59
   2   3   7 2024.60   74.19
  -2   3  -7 2163.18   57.09
  -2   3  -7 2145.29   55.89
  -2   3  -7 1997.00   64.39
   2   3   7 2082.19   56.09
  -2   3  -7 2119.49   54.89
  -2   3  -7 2132.69   55.79
  -2   3  -7 2032.60   55.59
   2   3   7 2067.09   66.59
  -2   3  -7 2097.79   66.79
  -2   3  -7 2102.39   54.99
  -3  -3  -7  117.09   14.00
  -3  -3  -7  106.79   11.80
   3  -3   7  114.69   15.40
  -3  -3  -7  151.08   18.60
  -3  -3  -7  134.19   14.50
  -3  -3  -7  151.38   15.90
  -3  -3  -7  123.99   16.90
   3  -3   7  170.48   20.90
  -3  -3  -7  116.79   21.90
  -3   3  -7  125.19   14.40
   3   3   7  123.59   22.60
   3   3   7   76.19   18.80
  -3   3  -7  113.29    9.30
  -3   3  -7  123.69   15.20
  -3   3  -7  100.29   17.90
  -3   3  -7  124.29   16.10
  -3   3  -7  117.09    9.90
  -3   3  -7  110.99   11.80
  -3   3  -7  110.19   19.90
  -4  -3  -7  823.62   40.30
  -4  -3  -7  809.22   44.50
  -4  -3  -7  825.12   35.10
  -4  -3  -7  780.92   27.90
   4  -3   7  839.02   40.20
   4  -3   7  771.52   40.30
  -4  -3  -7  773.92   29.00
   4  -3   7  755.22   43.90
   4  -3   7  773.52   35.60
  -4  -3  -7  792.52   33.10
  -4  -3  -7  799.22   27.80
   4   3   7  766.72   44.00
  -4   3  -7  855.21   27.00
  -4   3  -7  821.12   44.80
   4   3   7  829.92   47.40
  -4   3  -7  802.12   39.40
  -4   3  -7  666.23   48.20
  -4   3  -7  789.52   25.60
  -4   3  -7  819.22   42.60
   5  -3   7  497.55   39.70
  -5  -3  -7  478.55   24.90
  -5  -3  -7  474.65   20.50
  -5  -3  -7  428.66   45.80
   5  -3   7  423.66   35.70
  -5  -3  -7  477.75   38.70
  -5  -3  -7  478.85   27.60
  -5  -3  -7  404.36   27.40
  -5   3  -7  498.15   35.10
  -5   3  -7  471.05   37.50
   5   3   7  459.35   39.30
  -5   3  -7  524.35   33.30
  -5   3  -7  432.56   40.20
   5   3   7  489.65   42.60
  -5   3  -7  425.06   38.50
  -6  -3  -7   83.39   23.80
   6  -3   7  132.99   36.70
  -6  -3  -7  101.59   33.40
   6  -3   7  132.09   28.40
   6  -3   7  129.49   24.40
   6   3   7  126.69   30.00
  -6   3  -7   77.69   34.50
  -6   3  -7  110.89   28.80
  -6   3  -7   65.89   28.10
  -6   3  -7   67.29   24.20
  -6   3  -7  108.59   22.10
   6   3   7  111.09   29.80
   8  -4  -7   -1.50   32.60
  -8  -4   7   19.40   26.70
  -8  -4   7   71.39   23.90
  -8  -4   7   16.40   27.00
  -8  -4   7   52.29   39.30
   8  -4  -7   -3.00   21.40
   8  -4  -7   32.40   19.80
   8  -4  -7   90.29   39.50
   8  -4  -7   35.00   29.80
  -8   4   7   -2.20   30.70
   8   4  -7  -27.20   23.40
  -8   4   7   46.10   27.10
  -8   4   7   25.30   33.90
   8   4  -7   70.49   22.50
   8   4  -7   38.40   37.40
   8   4  -7   49.50   28.70
   8   4  -7   67.59   32.80
  -8   4   7   46.40   28.20
  -8   4   7   57.59   29.20
   7  -4  -7  264.57   36.20
  -7  -4   7  273.27   35.40
  -7  -4   7  239.68   28.10
   7  -4  -7  270.17   27.60
  -7  -4   7  286.07   31.40
   7  -4  -7  254.37   37.80
   7  -4  -7  288.77   38.50
  -7  -4   7  257.07   36.60
  -7  -4   7  266.07   34.00
   7   4  -7  246.88   38.20
   7   4  -7  284.67   29.90
  -7   4   7  202.28   29.90
  -7   4   7  302.47   39.90
  -7   4   7  349.87   37.20
   7   4  -7  251.97   37.20
  -7   4   7  298.77   39.20
   7   4  -7  271.47   34.90
  -7   4   7  256.97   35.60
  -6  -4   7   43.60   20.00
   6  -4  -7   79.89   24.00
  -6  -4   7   42.80   19.90
   6  -4  -7   18.30   20.70
   6  -4  -7   83.69   20.60
  -6  -4   7   58.19   23.80
  -6  -4   7   68.09   20.80
  -6  -4   7   40.50   16.20
   6  -4  -7   61.79   24.40
  -6   4   7   77.89   22.00
   6   4  -7   54.69   23.30
  -6   4   7   52.89   23.60
  -6   4   7   58.49   22.40
   6   4  -7   20.80   20.40
  -6   4   7   55.19   23.50
   6   4  -7   53.99   18.40
   6   4  -7   34.80   20.90
  -6   4   7   56.29   20.90
   6   4  -7   66.49   19.30
  -5  -4   7  105.09   21.20
   5  -4  -7   92.29   22.10
   5  -4  -7  131.89   22.10
  -5  -4   7  105.69   15.90
  -5  -4   7  106.99   22.30
  -5  -4   7  135.19   21.30
  -5  -4   7  100.39   21.60
   5  -4  -7  127.99   26.90
   5  -4  -7  143.79   25.90
   5   4  -7  119.29   21.70
   5   4  -7  122.09   19.30
  -5   4   7  105.89   22.60
   5   4  -7  130.49   22.30
  -5   4   7   94.39   23.10
   5   4  -7   84.99   21.90
  -5   4   7  100.29   20.50
  -5   4   7  103.59   20.20
   5   4  -7  132.99   23.80
   4  -4  -7   37.20   18.10
   4  -4  -7   24.70   18.30
  -4  -4   7   39.70   14.80
  -4  -4   7   42.20   17.30
  -4  -4   7   52.19   16.80
   4  -4  -7   42.40   17.20
  -4  -4   7   39.40   14.60
   4  -4  -7   41.00   16.20
   4  -4  -7   42.80   20.10
  -4  -4   7   39.10   10.60
  -4   4   7   56.29   11.90
   4   4  -7   82.59   19.10
   4   4  -7   39.00   18.30
   4   4  -7   14.90   18.10
  -4   4   7   27.80   16.60
  -4   4   7   57.09   17.60
   4   4  -7   36.60   17.90
   4   4  -7   42.80   16.70
  -4   4   7   45.60   15.10
   4   4  -7   59.99   17.30
   3  -4  -7   25.30   14.90
  -3  -4   7   37.20   14.30
   3  -4  -7   15.70   16.60
  -3  -4   7   29.90    7.30
  -3  -4   7   39.10   12.70
  -3  -4   7   25.00   15.00
   3  -4  -7   17.50   16.30
   3  -4  -7   52.29   20.50
   3  -4  -7   33.60   17.20
   3  -4  -7   33.20   16.40
  -3  -4   7    5.60   14.80
  -3  -4   7   16.00    5.70
  -3  -4   7   27.10   12.10
  -3  -4   7   42.30   16.20
  -3   4   7   53.09   13.50
   3   4  -7   20.50   14.30
   3   4  -7   40.10   15.20
   3   4  -7   15.80   12.60
  -3   4   7   45.80   17.10
   3   4  -7   34.70   17.20
   3   4  -7   36.60   15.90
   3   4  -7   39.10   18.40
  -3   4   7   49.70   15.70
  -3   4   7   37.50   15.10
  -3   4   7   17.40   14.30
  -3   4   7   39.70    7.70
  -3   4   7   13.10   12.10
   2  -4  -7  149.99   18.80
   2  -4  -7  131.59   18.80
  -2  -4   7  158.18   22.30
   2  -4  -7  143.29   19.80
   2  -4  -7   99.09   19.50
  -2  -4   7  113.39   18.40
   2  -4  -7  125.39   21.00
   2  -4  -7  188.38   23.90
  -2  -4   7  128.49   13.80
  -2  -4   7  148.99   17.10
  -2  -4   7  119.09   17.30
  -2  -4   7  160.68   19.40
   2   4  -7  136.09   18.10
   2   4  -7  165.18   19.20
   2   4  -7  138.19   17.40
   2   4  -7  159.78   19.60
  -2   4   7  139.79   18.50
   2   4  -7  118.39   18.60
  -2   4   7  165.38   18.20
  -2   4   7  165.78   21.70
   2   4  -7  130.59   16.40
  -2   4   7  186.58   21.40
  -2   4   7  145.29   16.70
  -2   4   7  178.98   22.40
   2   4  -7  122.79   19.50
   1  -4  -7 1088.09   48.00
   1  -4  -7 1116.99   42.70
   1  -4  -7 1122.29   43.50
  -1  -4   7 1120.49   33.90
   1  -4  -7 1087.09   44.90
  -1  -4   7 1092.09   44.20
  -1  -4   7 1159.48   40.30
   1  -4  -7 1104.19   51.19
  -1  -4   7 1148.19   35.60
  -1  -4   7 1123.99   43.00
   1  -4  -7 1148.89   45.20
   1   4  -7 1082.79   44.80
  -1   4   7 1092.39   37.00
  -1   4   7 1105.39   36.80
  -1   4   7 1088.39   41.10
   1   4  -7 1122.79   43.90
  -1   4   7 1111.29   37.90
   1   4  -7 1154.58   33.60
   1   4  -7 1169.58   44.10
   1   4  -7 1132.89   43.70
   1   4  -7 1134.69   42.30
   1   4  -7 1106.19   43.30
   0  -4  -7   32.30   15.30
   0  -4   7   27.00   13.10
   0  -4   7   12.90   13.30
   0  -4   7   44.00    9.30
   0  -4  -7   26.90   13.50
   0  -4   7   44.80   15.10
   0  -4  -7   54.29   13.80
   0  -4  -7   21.60   15.80
   0  -4  -7   29.00   11.70
   0  -4  -7   28.80   14.80
   0  -4  -7    9.30   14.00
   0  -4   7   21.10   13.90
   0  -4   7    0.50    9.50
   0   4  -7   21.20   10.50
   0   4   7   43.70   16.90
   0   4   7   40.40   14.10
   0   4   7   29.10    6.10
   0   4   7   22.50    9.60
   0   4  -7   36.50   13.90
   0   4  -7   22.30   12.40
   0   4   7   26.50   14.00
   0   4  -7    9.40   12.50
   0   4  -7   29.20    4.50
   0   4  -7   31.90   13.50
   0   4  -7   48.60   12.50
   0   4   7   24.80   16.90
   0   4   7   26.30    6.30
   0   4   7   21.30    7.70
   1  -4   7 2397.76   60.39
   1  -4   7 2527.25   78.99
  -1  -4  -7 2597.74   75.39
   1  -4   7 2478.95   78.39
  -1  -4  -7 2414.46   81.79
  -1  -4  -7 2456.75   75.89
  -1  -4  -7 2486.25   71.79
   1  -4   7 2505.85   71.89
   1  -4   7 2364.26   73.79
   1  -4   7 2518.15   60.79
  -1  -4  -7 2460.05   69.99
  -1  -4  -7 2374.76   70.79
   1   4   7 2514.55   73.19
  -1   4  -7 2400.26   73.29
  -1   4  -7 2502.05   76.79
  -1   4  -7 2515.45   59.19
  -1   4  -7 2548.95   68.59
  -1   4  -7 2396.56   68.19
  -1   4  -7 2470.35   68.49
   1   4   7 2434.06   76.09
  -1   4  -7 2485.45   67.09
   1   4   7 2497.35   83.89
   1   4   7 2453.15   68.39
  -2  -4  -7   43.00   21.20
  -2  -4  -7   29.00   10.30
  -2  -4  -7   31.70   11.10
   2  -4   7   24.50   15.50
   2  -4   7   20.10   12.80
  -2  -4  -7   31.70   12.00
  -2  -4  -7    4.40   15.70
   2  -4   7    2.00   15.00
  -2  -4  -7   30.70    6.90
  -2  -4  -7   38.30   13.10
  -2  -4  -7    7.00   13.40
   2  -4   7   31.30   16.70
   2   4   7   38.30   16.00
   2   4   7   38.10   17.50
   2   4   7   30.10   11.00
  -2   4  -7   20.50    8.30
   2   4   7   43.70    7.30
  -2   4  -7   22.60   14.30
  -2   4  -7   79.79   12.30
  -2   4  -7   28.10    9.10
  -2   4  -7   30.90   13.40
  -2   4  -7   19.50    8.90
   2   4   7   44.30    8.20
  -2   4  -7   33.30    8.50
  -3  -4  -7 1377.96   43.20
  -3  -4  -7 1308.47   46.70
  -3  -4  -7 1321.47   56.79
   3  -4   7 1302.37   53.09
   3  -4   7 1273.77   48.30
  -3  -4  -7 1324.87   43.60
   3  -4   7 1165.68   57.09
  -3  -4  -7 1207.98   52.99
   3  -4   7 1274.67   52.19
  -3  -4  -7 1319.87   43.50
  -3  -4  -7 1284.07   47.00
  -3   4  -7 1328.87   46.20
  -3   4  -7 1264.17   38.10
  -3   4  -7 1198.38   52.39
  -3   4  -7 1318.17   35.10
  -3   4  -7 1263.77   52.49
   3   4   7 1313.97   59.89
  -3   4  -7 1272.97   38.10
  -3   4  -7 1333.47   35.20
  -3   4  -7 1329.57   41.10
   3   4   7 1335.67   53.79
  -3   4  -7 1308.77   39.10
  -4  -4  -7   14.90   14.90
   4  -4   7   13.60   17.00
  -4  -4  -7   10.20   10.30
  -4  -4  -7  -19.00   17.80
  -4  -4  -7  -24.40   10.50
   4  -4   7    3.50   16.00
   4  -4   7  -12.50   12.90
   4  -4   7   42.50   19.50
   4   4   7   -8.80   17.00
  -4   4  -7  -11.90   15.50
  -4   4  -7  -12.90    9.00
   4   4   7   -5.50   17.30
  -4   4  -7   28.70    9.80
  -4   4  -7   40.00   19.40
  -4   4  -7   -6.40    5.60
  -4   4  -7   -9.00   15.00
  -5  -4  -7 1371.76   53.39
  -5  -4  -7 1226.28   41.30
  -5  -4  -7 1242.28   58.19
   5  -4   7 1294.67   54.69
   5  -4   7 1294.67   54.59
   5  -4   7 1250.57   59.79
   5   4   7 1324.07   65.99
  -5   4  -7 1270.77   60.39
  -5   4  -7 1226.68   62.49
   5   4   7 1209.28   60.79
  -5   4  -7 1160.58   55.89
   6  -4   7   32.10   22.10
   6  -4   7   58.99   24.70
   6  -4   7   37.50   23.90
  -6  -4  -7   45.70   12.40
  -6  -4  -7   68.39   30.30
  -6  -4  -7   61.09   24.40
   6   4   7   32.90   24.60
   6   4   7   13.60   23.40
  -6   4  -7   47.30   30.40
  -6   4  -7   28.10   33.10
  -6   4  -7   69.99   28.50
  -8  -5   7  860.61   51.29
   8  -5  -7  753.72   77.69
  -8  -5   7  811.92   62.59
  -8  -5   7  804.02   63.69
  -8  -5   7  688.03   55.09
   8  -5  -7  794.32   65.89
   8  -5  -7  849.22   61.09
   8  -5  -7  621.24   66.59
  -8  -5   7  829.32   62.59
  -8   5   7  805.82   60.49
   8   5  -7  683.33   51.09
  -8   5   7  895.91   63.89
   8   5  -7  779.72   45.40
   8   5  -7  802.22   61.49
  -8   5   7  817.52   62.09
   8   5  -7  769.52   62.49
   8   5  -7  717.83   72.99
  -7  -5   7   97.79   31.00
   7  -5  -7   84.99   22.60
  -7  -5   7   37.70   29.60
  -7  -5   7  104.39   23.80
   7  -5  -7   91.99   33.60
   7  -5  -7   51.79   30.90
  -7  -5   7  101.19   23.10
   7  -5  -7   74.29   30.00
  -7  -5   7   68.29   33.60
  -7   5   7  109.09   29.70
   7   5  -7   76.09   29.90
   7   5  -7   90.49   31.40
  -7   5   7  119.59   26.20
   7   5  -7  102.19   21.20
  -7   5   7   80.19   30.70
   7   5  -7  124.19   24.70
  -7   5   7   43.20   32.70
   7   5  -7   66.79   30.30
  -6  -5   7  575.24   34.70
   6  -5  -7  546.35   40.00
  -6  -5   7  465.65   37.80
  -6  -5   7  553.64   42.30
   6  -5  -7  458.45   48.40
   6  -5  -7  537.55   46.40
  -6  -5   7  555.14   43.60
   6  -5  -7  465.65   44.10
  -6  -5   7  540.95   43.90
   6   5  -7  517.45   45.00
  -6   5   7  494.45   36.50
  -6   5   7  540.15   39.30
   6   5  -7  482.35   45.60
   6   5  -7  516.25   35.10
  -6   5   7  468.45   43.60
   6   5  -7  472.95   37.60
  -6   5   7  481.65   41.60
   6   5  -7  410.36   45.80
  -5  -5   7  406.96   34.00
  -5  -5   7  423.76   33.50
  -5  -5   7  469.65   38.70
  -5  -5   7  462.85   35.70
   5  -5  -7  380.16   39.40
   5  -5  -7  419.86   41.20
   5  -5  -7  421.26   37.20
   5  -5  -7  512.15   38.90
  -5   5   7  455.45   35.70
   5   5  -7  425.96   37.00
   5   5  -7  430.06   30.70
  -5   5   7  445.86   36.40
   5   5  -7  469.95   35.30
  -5   5   7  434.16   36.10
   5   5  -7  475.45   41.30
  -5   5   7  412.76   29.30
   5   5  -7  464.05   40.20
  -4  -5   7   25.40   16.00
  -4  -5   7   33.70   17.00
  -4  -5   7   28.80   13.60
  -4  -5   7   55.99   16.40
   4  -5  -7   36.60   16.80
   4  -5  -7   57.49   21.60
  -4  -5   7   42.00   15.10
   4  -5  -7   46.00   22.20
   4  -5  -7   25.10   18.00
   4   5  -7   36.90   16.90
   4   5  -7   76.19   20.90
  -4   5   7   44.60   17.60
  -4   5   7   36.20   18.50
  -4   5   7   28.50   16.40
   4   5  -7   35.20   17.90
   4   5  -7   30.10   17.10
  -4   5   7   92.89   19.50
   4   5  -7   25.80   18.30
   4   5  -7   45.50   17.60
  -4   5   7   52.19   13.90
   3  -5  -7 1766.72   95.19
  -3  -5   7 1421.96   50.89
  -3  -5   7 1478.75   53.99
  -3  -5   7 1431.36   48.70
   3  -5  -7 1428.36   59.79
   3  -5  -7 1445.96   60.09
   3  -5  -7 1439.26   61.29
  -3  -5   7 1540.05   58.09
  -3  -5   7 1504.05   55.99
   3  -5  -7 1442.06   56.89
  -3  -5   7 1471.45   42.10
   3   5  -7 1414.46   57.29
   3   5  -7 1529.95   60.59
  -3   5   7 1467.25   53.69
  -3   5   7 1470.75   42.70
  -3   5   7 1471.15   56.49
  -3   5   7 1541.45   53.99
  -3   5   7 1447.76   58.29
   3   5  -7 1487.15   56.09
   3   5  -7 1569.84   49.90
  -3   5   7 1396.96   54.89
   3   5  -7 1474.55   56.89
   3   5  -7 1416.46   58.69
   3   5  -7 1495.05   57.59
  -3   5   7 1495.15   57.29
   2  -5  -7  234.28   27.90
   2  -5  -7  240.78   28.10
  -2  -5   7  237.08   26.30
  -2  -5   7  236.98    9.80
   2  -5  -7  315.67   32.50
  -2  -5   7  277.97   17.40
  -2  -5   7  243.58   26.10
   2  -5  -7  246.88   26.50
  -2  -5   7  234.88   27.30
   2  -5  -7  184.08   24.90
  -2  -5   7  252.67   23.40
  -2  -5   7  254.17   20.30
   2  -5  -7  185.78   23.80
  -2  -5   7  208.58   23.20
  -2   5   7  256.67   23.50
   2   5  -7  266.17   30.50
  -2   5   7  257.47   23.30
  -2   5   7  243.48   25.60
  -2   5   7  245.08   23.70
   2   5  -7  227.68   26.20
   2   5  -7  266.17   25.10
  -2   5   7  235.98   10.80
  -2   5   7  217.68   26.30
   2   5  -7  221.88   24.80
   2   5  -7  252.67   26.70
   1  -5  -7 1316.37   50.39
   1  -5  -7 1359.96   53.39
   1  -5  -7 1373.86   57.79
  -1  -5   7 1365.96   40.80
   1  -5  -7 1431.56   55.29
  -1  -5   7 1324.77   47.10
   1  -5  -7 1361.76   52.79
  -1  -5   7 1256.97   51.69
  -1  -5   7 1385.36   52.99
   1  -5  -7 1320.67   54.09
  -1  -5   7 1383.26   41.10
  -1  -5   7 1431.86   56.09
  -1   5   7 1231.68   49.60
  -1   5   7 1386.36   41.90
   1   5  -7 1355.96   51.29
   1   5  -7 1380.96   51.29
   1   5  -7 1383.86   48.50
   1   5  -7 1302.37   50.59
  -1   5   7 1282.77   43.70
  -1   5   7 1381.16   46.20
  -1   5   7 1335.67   55.29
   1   5  -7 1292.07   51.99
   0  -5  -7 1467.25   53.89
   0  -5  -7 1369.16   58.29
   0  -5  -7 1324.27   53.79
   0  -5   7 1524.75   57.89
   0  -5  -7 1513.45   56.79
   0  -5  -7 1451.65   53.89
   0  -5   7 1352.96   53.99
   0  -5   7 1481.75   46.80
   0  -5   7 1463.15   53.59
   0  -5  -7 1434.36   51.29
   0   5  -7 1425.76   48.00
   0   5   7 1437.76   59.09
   0   5   7 1547.55   42.60
   0   5   7 1494.55   49.10
   0   5  -7 1469.75   56.29
   0   5  -7 1450.95   51.09
   0   5   7 1512.15   38.80
   0   5  -7 1420.76   56.89
   0   5  -7 1403.26   52.99
   1  -5   7   73.69   18.00
   1  -5   7   42.50   11.00
   1  -5   7   83.79   18.00
   1  -5   7   54.99    9.20
  -1  -5  -7   69.49   15.00
   1  -5   7   48.80   16.40
  -1  -5  -7   67.49   14.20
  -1  -5  -7   66.59   20.30
  -1  -5  -7   48.70   17.00
   1   5   7   74.99   17.90
  -1   5  -7   67.59   17.10
  -1   5  -7   84.59   17.10
   1   5   7   54.59   20.20
   1   5   7   40.20   10.80
   1   5   7   21.10   16.30
  -1   5  -7   50.39   15.70
  -1   5  -7   55.09   12.90
  -1   5  -7   60.69   13.00
  -2  -5  -7 2724.43   79.59
  -2  -5  -7 2569.54   75.79
  -2  -5  -7 2585.24   88.19
  -2  -5  -7 2724.23   76.49
   2  -5   7 2728.13   83.79
   2  -5   7 2577.74   83.89
   2  -5   7 2595.64   80.09
  -2  -5  -7 2682.53   65.29
   2  -5   7 2539.35   79.49
  -2  -5  -7 2787.92   78.19
  -2   5  -7 2609.54   72.89
  -2   5  -7 2712.13   84.19
  -2   5  -7 2698.43   72.59
  -2   5  -7 2538.15   81.79
  -2   5  -7 2567.34   76.09
   2   5   7 2627.14   82.89
   2   5   7 2621.44   90.79
  -2   5  -7 2586.14   83.19
  -2   5  -7 2607.34   74.19
   2   5   7 2688.83   69.69
   2   5   7 2645.04   68.19
  -3  -5  -7  148.09   18.90
   3  -5   7  129.09   22.60
  -3  -5  -7  153.18   19.50
  -3  -5  -7  139.99   17.40
   3  -5   7  145.19   21.20
  -3  -5  -7  138.59   17.60
   3  -5   7  186.58   24.00
  -3  -5  -7  153.38   17.20
  -3  -5  -7  135.09   26.20
   3  -5   7  167.18   22.50
  -3   5  -7  139.79   15.00
   3   5   7  116.49   22.90
  -3   5  -7  188.58   23.80
  -3   5  -7  172.68   26.30
  -3   5  -7  155.58   23.00
  -3   5  -7  218.98   26.00
  -3   5  -7  154.98   16.90
  -3   5  -7  170.68   17.50
   3   5   7  146.69   26.70
   4  -5   7 1689.33   60.89
  -4  -5  -7 1698.63   56.29
  -4  -5  -7 1738.23   69.69
   4  -5   7 1662.13   67.09
   4  -5   7 1698.03   65.09
  -4  -5  -7 1675.73   54.79
  -4  -5  -7 1808.22   55.69
  -4   5  -7 1765.62   70.59
   4   5   7 1666.43   67.99
   4   5   7 1702.03   74.59
  -4   5  -7 1672.03   48.40
  -4   5  -7 1694.63   49.40
  -4   5  -7 1650.83   61.69
  -4   5  -7 1660.43   68.09
  -4   5  -7 1701.43   51.69
   5  -5   7  250.57   32.90
  -5  -5  -7  123.69   26.00
   5  -5   7  178.38   25.10
  -5  -5  -7  174.98   21.20
   5  -5   7  182.98   28.90
  -5  -5  -7  163.18   19.20
   5   5   7  120.69   27.10
  -5   5  -7  173.98   28.30
   5   5   7  170.18   31.10
  -5   5  -7  116.69   33.10
  -5   5  -7  136.59   31.40
  -5   5  -7  153.08   13.80
   7  -6  -7   38.60   33.80
  -7  -6   7   12.90   19.60
   7  -6  -7   59.69   29.80
  -7  -6   7   61.79   23.10
   7  -6  -7   23.30   21.50
  -7  -6   7   27.10   30.70
  -7  -6   7   17.10   25.60
  -7  -6   7   36.40   32.10
  -7   6   7   59.79   37.20
   7   6  -7   75.09   22.40
   7   6  -7   30.10   33.90
   7   6  -7   34.30   34.90
   7   6  -7   31.50   23.70
  -7   6   7   38.00   33.10
   7   6  -7   34.10   29.20
  -7   6   7   49.20   25.10
  -7   6   7   66.09   27.40
   6  -6  -7 1615.54   77.09
   6  -6  -7 1494.55   68.59
   6  -6  -7 1484.75   62.89
   6  -6  -7 1496.25   74.49
  -6  -6   7 1513.25   66.89
  -6  -6   7 1469.85   63.89
  -6  -6   7 1491.75   62.59
  -6  -6   7 1557.94   72.59
  -6   6   7 1498.65   69.19
   6   6  -7 1403.56   68.59
   6   6  -7 1525.25   62.29
   6   6  -7 1520.15   73.79
  -6   6   7 1456.15   70.19
  -6   6   7 1454.15   60.49
  -6   6   7 1572.74   74.19
  -6   6   7 1532.65   60.59
   6   6  -7 1465.15   73.39
   6   6  -7 1509.55   57.49
  -5  -6   7    1.30   15.50
   5  -6  -7  -10.10   20.40
  -5  -6   7   12.60   19.00
  -5  -6   7    5.40   20.90
  -5  -6   7  -12.30   16.60
   5  -6  -7    2.80   19.70
   5  -6  -7   -1.60   22.20
   5  -6  -7   14.20   20.70
   5   6  -7    6.70   22.10
   5   6  -7   -2.20   17.90
  -5   6   7   15.10   19.40
  -5   6   7   16.40   21.20
  -5   6   7    0.80   14.30
   5   6  -7    6.20   18.60
   5   6  -7   -7.30   17.40
   5   6  -7  -21.40   20.00
  -5   6   7   19.90   19.00
  -5   6   7  -31.00   20.10
  -4  -6   7 1412.16   60.09
  -4  -6   7 1487.05   56.19
   4  -6  -7 1398.46   61.39
   4  -6  -7 1370.66   59.99
   4  -6  -7 1419.56   63.99
  -4  -6   7 1384.86   56.19
   4  -6  -7 1341.57   62.49
  -4  -6   7 1534.45   51.39
  -4  -6   7 1406.76   52.49
   4   6  -7 1475.05   62.79
  -4   6   7 1443.36   63.09
  -4   6   7 1508.35   57.49
   4   6  -7 1393.16   61.49
   4   6  -7 1467.05   57.99
  -4   6   7 1452.95   57.69
  -4   6   7 1485.35   49.80
  -4   6   7 1389.26   59.89
   4   6  -7 1446.96   50.19
   4   6  -7 1481.35   58.89
  -3  -6   7   31.50   13.90
  -3  -6   7  -13.40   14.20
   3  -6  -7  -11.70   17.00
  -3  -6   7  -13.80   10.50
   3  -6  -7    5.40   17.20
  -3  -6   7   11.30   15.30
  -3  -6   7   -9.40   12.90
  -3  -6   7   -1.40   12.70
  -3  -6   7    2.50   19.80
   3  -6  -7   -6.00   17.30
   3  -6  -7  -27.80   15.60
  -3   6   7  -29.90   18.90
  -3   6   7  -13.60   13.40
   3   6  -7    2.20   15.30
   3   6  -7   10.60   16.10
  -3   6   7   10.50   16.10
  -3   6   7   -1.50   13.80
   3   6  -7    2.10   15.00
   3   6  -7    7.10   16.50
  -3   6   7   -9.30   16.20
   3   6  -7   -6.70   14.70
   2  -6  -7 1495.15   60.79
  -2  -6   7 1403.76   48.00
   2  -6  -7 1377.96   61.79
  -2  -6   7 1494.65   50.79
   2  -6  -7 1487.45   56.99
   2  -6  -7 1397.76   60.79
   2  -6  -7 1385.06   60.29
  -2  -6   7 1447.06   39.70
  -2  -6   7 1400.86   54.69
  -2  -6   7 1426.96   60.29
  -2  -6   7 1397.86   59.29
  -2   6   7 1446.86   51.59
  -2   6   7 1448.06   57.69
  -2   6   7 1416.56   57.49
   2   6  -7 1464.65   55.29
  -2   6   7 1507.45   55.29
   2   6  -7 1409.46   56.39
  -2   6   7 1493.95   49.90
   2   6  -7 1377.66   56.89
  -2   6   7 1433.86   39.60
  -2   6   7 1445.06   56.89
   2   6  -7 1381.06   56.49
   2   6  -7 1340.77   56.99
  -1  -6   7   74.09   18.50
   1  -6  -7   94.79   18.60
   1  -6  -7  107.59   21.40
   1  -6  -7   40.20   19.80
  -1  -6   7   84.09   13.40
  -1  -6   7  134.39   15.30
   1  -6  -7  113.49   19.60
  -1  -6   7  109.19   13.00
   1  -6  -7   70.19   20.30
  -1  -6   7  105.29   19.10
  -1  -6   7   99.69    9.80
   1   6  -7  105.09   20.00
  -1   6   7  119.19   22.70
   1   6  -7   83.79   19.90
  -1   6   7  118.69   18.00
  -1   6   7   72.99   18.40
  -1   6   7  107.89   13.10
   1   6  -7   97.89   18.20
   1   6  -7  163.48   22.20
  -1   6   7   99.29   15.80
   1   6  -7   91.19   16.30
   0  -6   7  677.43   39.90
   0  -6  -7  825.82   43.90
   0  -6  -7  738.43   39.10
   0  -6   7  729.53   39.20
   0  -6  -7  696.33   44.90
   0  -6  -7  711.03   38.00
   0  -6  -7  657.13   39.80
   0  -6   7  757.22   42.10
   0  -6   7  724.23   31.90
   0   6   7  711.63   29.20
   0   6  -7  661.73   39.50
   0   6  -7  772.52   35.70
   0   6   7  783.22   44.00
   0   6  -7  742.63   38.10
   0   6  -7  688.03   36.20
   0   6   7  757.42   35.40
   0   6  -7  747.13   40.90
   0   6   7  764.12   21.00
   1  -6   7   63.59   17.00
  -1  -6  -7  118.59   24.30
  -1  -6  -7   96.59   16.10
  -1  -6  -7   83.69   19.40
   1  -6   7  114.49   21.30
  -1  -6  -7   86.09   19.10
  -1  -6  -7  100.49   18.80
  -1   6  -7  121.49   17.90
  -1   6  -7  121.49   17.10
  -1   6  -7   89.29   15.90
   1   6   7  101.79   15.30
  -1   6  -7  149.39   23.60
  -1   6  -7   86.29   19.20
   1   6   7  100.69   20.60
  -2  -6  -7  144.89   20.50
  -2  -6  -7  157.98   27.10
  -2  -6  -7  162.58   19.20
   2  -6   7  141.69   11.60
   2  -6   7  167.78   23.90
   2  -6   7  122.69   23.10
  -2  -6  -7  139.49   17.90
  -2  -6  -7  129.99   20.70
  -2  -6  -7  150.58   18.90
   2  -6   7  155.28   21.70
  -2   6  -7  181.48   21.40
   2   6   7  161.68   23.80
  -2   6  -7   88.39   20.00
   2   6   7  117.99   22.20
  -2   6  -7  182.08   23.10
  -2   6  -7  158.18   18.40
  -2   6  -7  137.89   17.60
  -2   6  -7  163.78   24.00
  -3  -6  -7  156.78   19.40
  -3  -6  -7  170.58   28.00
   3  -6   7  210.88   25.00
   3  -6   7  174.98   25.10
   3  -6   7  166.18   23.50
   3  -6   7  182.08   23.20
  -3  -6  -7  164.48   20.00
  -3  -6  -7  197.68   19.80
  -3   6  -7  182.58   21.80
   3   6   7  186.38   18.60
  -3   6  -7  176.98   18.80
  -3   6  -7  164.98   26.80
  -3   6  -7  142.59   26.70
   3   6   7  131.59   26.00
  -3   6  -7  159.38   17.10
   3   6   7  200.38   27.60
  -3   6  -7  206.78   24.00
  -4  -6  -7  110.69   28.00
   4  -6   7  105.09   22.30
   4  -6   7   99.19   20.90
  -4  -6  -7   91.29   18.30
  -4  -6  -7   37.70   15.90
   4  -6   7   65.09   19.60
   4  -6   7   80.79   22.90
   4   6   7   52.59   24.00
  -4   6  -7   95.09   28.10
   4   6   7   79.99   22.20
  -4   6  -7  113.39   21.50
  -4   6  -7   78.09   14.50
  -4   6  -7  118.59   18.50
  -4   6  -7   93.89   28.50
   5  -6   7   84.59   26.90
   5  -6   7   66.69   20.70
  -5  -6  -7   55.49   28.60
  -5  -6  -7   78.79   21.60
  -5  -6  -7   85.49   21.50
   5   6   7   96.69   30.30
  -5   6  -7   57.39   32.60
  -5   6  -7   82.69   12.50
  -5   6  -7   66.09   25.30
   5   6   7   51.09   24.10
  -7  -7   7  504.95   43.10
   7  -7  -7  354.86   46.40
  -7  -7   7  592.84   53.99
   7  -7  -7  555.74   57.59
  -7  -7   7  436.16   57.79
   7  -7  -7  522.25   58.89
  -7  -7   7  494.45   62.79
   7  -7  -7  393.86   43.40
   7   7  -7  549.95   59.29
  -7   7   7  426.36   55.29
  -7   7   7  512.35   53.99
   7   7  -7  493.95   41.30
   7   7  -7  554.64   57.89
   7   7  -7  502.05   71.29
  -7   7   7  460.35   57.79
  -7   7   7  497.25   56.79
   7   7  -7  475.75   45.30
  -6  -7   7   78.89   25.70
   6  -7  -7   32.40   29.60
  -6  -7   7   79.49   31.30
   6  -7  -7  103.49   33.80
   6  -7  -7   52.49   24.70
  -6  -7   7   82.79   23.60
   6  -7  -7   50.19   33.20
  -6  -7   7   53.69   31.00
   6   7  -7  121.79   23.90
  -6   7   7  123.19   49.60
   6   7  -7   86.09   24.50
  -6   7   7   52.39   34.10
   6   7  -7   62.49   34.00
  -6   7   7   93.69   34.00
  -6   7   7   84.59   24.50
   6   7  -7   51.99   29.40
   6   7  -7   60.19   43.60
   5  -7  -7 1406.16   65.09
  -5  -7   7 1393.46   58.49
  -5  -7   7 1438.66   64.09
  -5  -7   7 1462.55   59.99
   5  -7  -7 1429.66   72.39
  -5  -7   7 1462.65   66.79
   5  -7  -7 1519.05   70.29
   5  -7  -7 1457.65   72.69
   5   7  -7 1517.05   58.69
  -5   7   7 1431.66   56.69
   5   7  -7 1340.87   69.99
   5   7  -7 1534.65   61.59
  -5   7   7 1458.25   67.79
   5   7  -7 1436.56   69.39
  -5   7   7 1382.46   69.69
  -5   7   7 1561.84   69.39
   5   7  -7 1377.16   68.89
  -5   7   7 1512.55   60.19
  -4  -7   7   31.10   20.40
  -4  -7   7    7.80   15.70
   4  -7  -7   36.30   20.80
  -4  -7   7   12.20   16.60
  -4  -7   7   -2.50   14.70
   4  -7  -7   36.30   21.60
  -4  -7   7   56.69   22.00
   4  -7  -7   15.90   22.20
   4  -7  -7   13.90   22.40
   4   7  -7   14.80   19.40
  -4   7   7   21.10   21.90
   4   7  -7   45.80   19.10
  -4   7   7   54.69   22.30
  -4   7   7   28.90   20.10
   4   7  -7    2.90   19.20
  -4   7   7   -6.20   13.00
  -4   7   7   29.10   18.90
   4   7  -7   23.50   21.40
  -3  -7   7 2483.65   81.29
   3  -7  -7 2360.36   81.29
   3  -7  -7 2307.57   84.69
  -3  -7   7 2411.76   68.79
  -3  -7   7 2376.86   87.39
   3  -7  -7 2284.17   83.99
   3  -7  -7 2325.87   85.39
  -3  -7   7 2488.55   75.49
  -3  -7   7 2322.47   78.69
   3   7  -7 2400.16   80.39
  -3   7   7 2383.46   83.49
   3   7  -7 2381.46   83.39
  -3   7   7 2520.15   85.19
   3   7  -7 2352.36   82.59
  -3   7   7 2441.66   78.09
  -3   7   7 2327.77   78.39
   3   7  -7 2404.06   83.99
  -2  -7   7   44.40   14.40
   2  -7  -7   46.00   21.00
  -2  -7   7   39.60   17.20
  -2  -7   7   49.50   19.10
   2  -7  -7    6.70   20.20
  -2  -7   7   38.00   12.80
   2  -7  -7   39.40   19.70
   2  -7  -7   69.99   19.90
  -2  -7   7   15.60   17.60
  -2  -7   7   16.90   19.00
  -2   7   7   40.50   16.70
  -2   7   7   52.99    9.40
  -2   7   7   77.49   18.00
   2   7  -7   39.60   27.30
   2   7  -7   56.89   17.00
  -2   7   7   25.60   18.00
   2   7  -7   43.80   17.90
   2   7  -7   28.00   18.30
  -2   7   7    0.80   15.60
   2   7  -7   33.70   17.40
   1  -7  -7 1675.73   65.09
   1  -7  -7 1747.63   70.39
   1  -7  -7 1522.65   67.79
   1  -7  -7 1651.53   61.99
  -1  -7   7 1542.25   60.69
  -1  -7   7 1425.86   72.79
  -1  -7   7 1770.72   53.09
  -1  -7   7 1687.63   68.09
  -1  -7   7 1772.42   52.39
   1  -7  -7 1724.23   66.39
   1   7  -7 1540.35   62.89
   1   7  -7 1672.93   65.19
  -1   7   7 1766.32   66.69
   1   7  -7 1795.82   67.69
   1   7  -7 1784.92   61.19
  -1   7   7 1697.43   63.99
  -1   7   7 1752.92   60.49
  -1   7   7 1697.13   49.40
  -1   7   7 1680.23   56.79
   1   7  -7 1756.22   63.49
   0  -7   7  426.26   32.50
   0  -7   7  418.16   34.60
   0  -7   7  439.36   21.00
   0  -7  -7  436.86   33.80
   0  -7  -7  381.06   31.90
   0  -7  -7  390.86   34.90
   0  -7  -7  391.26   41.40
   0  -7  -7  401.96   37.20
   0  -7   7  454.55   28.80
   0  -7   7  446.96   22.00
   0  -7   7  385.46   35.00
   0  -7  -7  400.46   32.10
   0   7   7  413.36   36.50
   0   7   7  425.76   26.30
   0   7   7  419.86   35.30
   0   7  -7  459.75   31.30
   0   7  -7  462.05   35.70
   0   7  -7  411.36   37.50
   0   7  -7  446.96   30.90
   0   7   7  422.26   28.70
   0   7  -7  397.16   35.50
   1  -7   7  295.37   29.60
  -1  -7  -7  269.97   35.10
   1  -7   7  277.17   31.60
  -1  -7  -7  194.38   27.30
  -1  -7  -7  320.47   30.60
   1  -7   7  284.57   23.30
  -1  -7  -7  259.17   28.20
   1  -7   7  272.87   30.80
  -1  -7  -7  294.07   31.60
   1   7   7  348.87   28.00
   1   7   7  303.37   30.00
  -1   7  -7  282.77   27.20
  -1   7  -7  251.57   27.50
   1   7   7  302.47   19.20
  -1   7  -7  343.17   33.60
  -1   7  -7  345.17   37.40
   1   7   7  282.97   33.80
  -1   7  -7  333.07   33.30
  -2  -7  -7  597.24   37.10
  -2  -7  -7  616.64   36.10
   2  -7   7  530.45   36.00
   2  -7   7  558.54   25.50
  -2  -7  -7  532.35   36.50
   2  -7   7  612.04   40.60
  -2  -7  -7  499.35   30.50
  -2  -7  -7  610.44   48.40
  -2   7  -7  545.55   34.60
   2   7   7  586.74   44.80
  -2   7  -7  563.24   32.70
  -2   7  -7  592.14   44.50
   2   7   7  547.55   33.00
  -2   7  -7  586.74   34.40
  -2   7  -7  502.35   39.60
   2   7   7  515.55   38.10
  -2   7  -7  635.94   31.40
  -3  -7  -7   67.49   19.10
  -3  -7  -7   69.59   17.40
   3  -7   7   50.99   20.90
   3  -7   7   81.69   20.60
   3  -7   7   85.19   20.60
  -3  -7  -7   57.39   19.60
  -3  -7  -7   72.19   29.10
  -3   7  -7   83.89   17.30
  -3   7  -7   95.09   26.90
  -3   7  -7   76.39   16.40
   3   7   7   83.99   24.10
  -3   7  -7   55.09   27.30
   3   7   7   40.00   22.50
  -3   7  -7  102.69   18.30
   4  -7   7  334.27   40.60
   4  -7   7  292.07   35.70
  -4  -7  -7  359.96   36.90
  -4  -7  -7  347.47   34.70
  -4  -7  -7  283.07   38.90
   4  -7   7  332.87   34.80
  -4   7  -7  246.18   39.10
   4   7   7  324.87   37.80
   4   7   7  390.86   45.30
  -4   7  -7  374.06   33.10
  -4   7  -7  274.67   36.00
  -4   7  -7  332.67   58.89
  -4   7  -7  299.57   29.00
   6  -8  -7   69.39   43.30
   6  -8  -7   66.79   30.10
  -6  -8   7   91.19   25.10
   6  -8  -7  -13.70   30.70
  -6  -8   7   90.79   28.40
   6  -8  -7  121.89   40.20
  -6  -8   7   66.39   32.50
  -6  -8   7   58.99   37.50
  -6   8   7   74.99   24.90
  -6   8   7   76.59   47.20
   6   8  -7   29.00   22.60
  -6   8   7    6.50   26.20
   6   8  -7   70.29   51.99
   6   8  -7   41.40   30.70
   6   8  -7   67.69   25.30
  -5  -8   7  -27.10   22.50
   5  -8  -7   20.10   30.60
   5  -8  -7   41.20   32.60
   5  -8  -7    9.90   24.60
  -5  -8   7   29.70   19.20
  -5  -8   7   20.10   20.40
   5  -8  -7    4.60   26.30
  -5  -8   7  -25.10   22.70
   5   8  -7   -3.00   24.10
   5   8  -7   47.10   22.30
   5   8  -7   30.60   26.60
  -5   8   7   43.00   20.60
  -5   8   7   16.90   25.60
   5   8  -7   -5.30   19.80
  -5   8   7   -9.00   28.00
   5   8  -7   15.00   27.00
  -5   8   7    7.70   28.50
  -4  -8   7  333.37   33.90
   4  -8  -7  393.06   48.50
  -4  -8   7  386.86   41.10
   4  -8  -7  283.17   37.40
   4  -8  -7  395.36   48.70
  -4  -8   7  298.87   30.70
  -4  -8   7  316.67   38.80
   4  -8  -7  397.86   46.50
  -4   8   7  333.37   31.20
   4   8  -7  366.96   39.20
  -4   8   7  327.57   41.90
   4   8  -7  379.76   40.20
  -4   8   7  341.67   43.70
  -4   8   7  428.46   43.50
   4   8  -7  325.07   37.00
   4   8  -7  277.57   37.40
   3  -8  -7  164.38   30.30
  -3  -8   7  111.79   24.40
   3  -8  -7  180.28   28.40
   3  -8  -7  106.49   27.70
  -3  -8   7  112.89   19.80
  -3  -8   7  145.79   25.40
   3  -8  -7  108.49   27.40
  -3  -8   7  140.69   22.50
  -3  -8   7  151.78   21.00
  -3   8   7  118.79   24.70
   3   8  -7  124.79   24.90
  -3   8   7  118.09   23.90
   3   8  -7  131.89   27.20
   3   8  -7  107.89   25.60
   3   8  -7   93.39   25.80
  -3   8   7  119.09   22.80
  -3   8   7  140.49   28.40
  -3   8   7  118.89   18.70
   2  -8  -7  392.96   45.20
   2  -8  -7  396.86   41.00
   2  -8  -7  435.16   42.00
  -2  -8   7  365.76   37.40
  -2  -8   7  435.56   30.80
  -2  -8   7  400.36   36.80
  -2  -8   7  410.26   44.00
  -2  -8   7  362.56   33.90
   2  -8  -7  351.66   36.30
  -2  -8   7  424.46   30.10
  -2   8   7  414.66   30.90
  -2   8   7  351.36   35.20
  -2   8   7  423.16   33.60
  -2   8   7  435.16   39.00
   2   8  -7  419.36   38.90
   2   8  -7  394.86   39.60
   2   8  -7  379.06   38.70
  -2   8   7  404.46   33.30
   2   8  -7  385.86   34.80
   1  -8  -7  455.05   33.60
   1  -8  -7  490.05   37.00
  -1  -8   7  418.46   27.80
  -1  -8   7  543.45   38.40
   1  -8  -7  494.85   47.50
  -1  -8   7  475.35   39.10
   1  -8  -7  480.35   38.60
   1  -8  -7  537.35   43.30
  -1  -8   7  414.86   33.20
  -1  -8   7  462.95   28.50
  -1  -8   7  472.75   36.00
  -1   8   7  480.85   25.50
   1   8  -7  451.95   37.90
   1   8  -7  510.75   37.60
   1   8  -7  509.15   39.60
  -1   8   7  407.66   37.50
  -1   8   7  400.96   44.20
   1   8  -7  592.94   50.59
  -1   8   7  493.45   39.90
  -1   8   7  449.16   26.20
  -1   8   7  447.06   32.80
   1   8  -7  475.45   39.90
   0  -8   7  220.98   26.50
   0  -8   7  184.48   18.20
   0  -8  -7  193.98   28.20
   0  -8   7  187.48   26.20
   0  -8   7  153.38   18.60
   0  -8  -7  236.48   30.20
   0  -8  -7  176.38   26.20
   0  -8   7  124.09   19.90
   0  -8  -7  183.18   26.40
   0  -8  -7  133.79   30.10
   0  -8   7  156.68   26.50
   0   8  -7  147.29   26.60
   0   8  -7  239.78   30.40
   0   8  -7  172.98   23.20
   0   8   7  151.48   19.50
   0   8   7  157.48   24.50
   0   8   7  152.18   28.10
   0   8  -7  124.99   25.60
   0   8   7  131.99   26.00
   0   8  -7  129.09   28.40
   1  -8   7  824.72   37.70
  -1  -8  -7  759.92   46.40
   1  -8   7  766.92   45.00
   1  -8   7  775.52   48.00
  -1  -8  -7  875.81   57.19
  -1  -8  -7  816.32   45.80
  -1  -8  -7  780.32   44.60
   1  -8   7  770.12   43.10
  -1   8  -7  871.21   43.70
  -1   8  -7  735.83   43.30
   1   8   7  894.81   51.99
  -1   8  -7  811.82   52.39
   1   8   7  810.92   32.20
  -1   8  -7  893.31   53.49
  -2  -8  -7   -8.50   17.50
  -2  -8  -7    7.00   20.60
  -2  -8  -7  -21.90   28.20
   2  -8   7    4.00   16.60
   2  -8   7  -16.90   15.70
  -2  -8  -7   44.00   18.60
   2  -8   7    7.80   20.20
   2   8   7    9.60   17.80
  -2   8  -7    5.90   15.90
  -2   8  -7   14.70   17.30
   2   8   7   10.40   19.00
   2   8   7    8.90   18.30
  -2   8  -7    1.50   14.30
  -2   8  -7   20.30   25.50
  -2   8  -7  -30.60   21.10
  -3  -8  -7 1032.10   54.19
   3  -8   7  941.71   54.09
  -3  -8  -7 1116.19   65.69
  -3  -8  -7  967.40   50.79
   3  -8   7  994.50   52.79
   3   8   7  926.71   52.79
  -3   8  -7  980.70   49.80
  -3   8  -7 1019.80   65.19
   3   8   7  969.90   61.79
  -3   8  -7 1070.39   48.30
  -3   8  -7  984.40   48.50
   4  -8   7   24.70   20.80
  -4  -8  -7   48.30   22.00
   4  -8   7   33.30   20.20
  -4  -8  -7    4.10   21.80
  -4   8  -7   40.00   25.70
  -4   8  -7   31.20   25.70
   4   8   7   24.40   24.80
  -4   8  -7   22.50   20.00
  -4   8  -7  -56.49   32.00
   4   8   7    8.10   21.90
  -4   8  -7   23.00   22.60
   5  -9  -7   90.69   34.30
   5  -9  -7  140.39   33.70
  -5  -9   7   59.99   25.00
   5  -9  -7   96.89   35.80
   5  -9  -7   61.19   39.10
  -5  -9   7   70.09   27.10
  -5  -9   7   52.29   22.70
  -5  -9   7  133.39   38.80
   5   9  -7  119.29   29.10
   5   9  -7  102.99   34.90
   5   9  -7   84.09   28.50
  -5   9   7  112.29   30.50
  -5   9   7   46.50   42.40
  -5   9   7  110.39   25.40
   5   9  -7   87.69   23.20
  -5   9   7  101.99   39.80
   4  -9  -7  147.49   49.90
   4  -9  -7   78.49   32.40
  -4  -9   7   48.00   21.80
  -4  -9   7   79.99   19.50
  -4  -9   7    8.70   27.70
  -4  -9   7   88.99   27.70
   4  -9  -7   78.29   32.80
  -4   9   7   80.59   30.90
  -4   9   7   61.89   24.00
  -4   9   7  107.09   21.90
   4   9  -7   96.99   30.50
   4   9  -7   62.69   32.10
  -4   9   7   53.49   29.70
   4   9  -7   80.79   25.50
  -4   9   7   36.50   28.40
   4   9  -7   72.39   30.90
  -3  -9   7  263.77   30.40
   3  -9  -7  282.47   40.00
   3  -9  -7  249.97   38.90
  -3  -9   7  263.07   31.40
  -3  -9   7  256.77   35.20
  -3  -9   7  222.48   31.70
   3  -9  -7  201.98   30.70
   3  -9  -7  282.67   40.70
   3   9  -7  264.27   38.10
  -3   9   7  210.58   31.80
  -3   9   7  249.18   29.60
   3   9  -7  258.17   37.50
   3   9  -7  295.77   36.10
  -3   9   7  247.18   28.80
  -3   9   7  288.17   36.60
   3   9  -7  266.17   36.00
  -3   9   7  268.47   40.10
   2  -9  -7  183.78   24.40
  -2  -9   7  225.58   29.80
   2  -9  -7  174.98   34.30
  -2  -9   7  221.88   32.90
   2  -9  -7  229.88   33.90
  -2  -9   7  204.68   23.60
   2  -9  -7  193.58   38.40
  -2  -9   7  266.57   30.70
   2  -9  -7  187.98   35.20
   2   9  -7  174.48   32.00
  -2   9   7  154.58   28.40
  -2   9   7  257.67   28.40
  -2   9   7  249.18   29.40
   2   9  -7  178.58   33.00
   2   9  -7  205.48   29.40
   2   9  -7  220.28   36.30
  -2   9   7  171.88   27.20
  -1  -9   7  225.18   29.10
   1  -9  -7  148.19   27.50
   1  -9  -7  193.38   35.90
  -1  -9   7  199.48   21.00
  -1  -9   7  204.88   29.00
   1  -9  -7  248.48   33.10
  -1  -9   7  198.88   29.70
   1  -9  -7  202.68   38.20
   1  -9  -7  247.78   33.00
  -1   9   7  247.78   27.20
  -1   9   7  204.48   28.20
   1   9  -7  199.98   32.90
  -1   9   7  226.58   30.10
   1   9  -7  188.38   26.80
   1   9  -7  249.88   34.40
   1   9  -7  205.48   34.80
  -1   9   7  261.97   29.70
   0  -9  -7 1562.34   64.99
   0  -9   7 1358.16   62.99
   0  -9  -7 1403.66   64.29
   0  -9   7 1490.55   45.40
   0  -9   7 1499.15   65.69
   0  -9  -7 1494.55   76.09
   0  -9   7 1385.66   67.09
   0  -9  -7 1613.44   64.29
   0  -9  -7 1446.36   67.19
   0   9  -7 1434.26   70.69
   0   9   7 1454.65   55.39
   0   9  -7 1504.95   60.99
   0   9   7 1440.36   66.19
   0   9  -7 1492.85   65.99
   0   9  -7 1409.76   69.49
   0   9   7 1479.05   67.29
   1  -9   7    3.60   19.00
   1  -9   7   38.10   21.30
  -1  -9  -7   31.50   24.50
   1  -9   7   -5.30   19.40
   1  -9   7   29.30   20.30
  -1  -9  -7  -13.30   21.80
  -1  -9  -7   39.50   27.90
  -1   9  -7   34.30   19.10
  -1   9  -7    0.50   28.80
   1   9   7   38.40   25.00
   1   9   7   34.00   20.70
   1   9   7    9.90   14.10
  -1   9  -7    5.10   19.50
  -1   9  -7   17.20   27.40
   2  -9   7 1889.81   67.89
   2  -9   7 1738.43   72.49
   2  -9   7 1825.42   77.49
  -2  -9  -7 1660.93  106.19
  -2  -9  -7 1856.31   73.29
  -2   9  -7 1587.04   87.29
  -2   9  -7 1855.51   85.19
  -2   9  -7 1851.51   71.79
   2   9   7 1736.93   81.59
   2   9   7 1904.51   73.99
  -2   9  -7 1888.11   68.09
  -3  -9  -7   19.30   22.00
   3  -9   7   10.10   19.10
   3  -9   7    8.70   20.70
  -3  -9  -7   -9.00   31.20
  -3  -9  -7  -10.60   24.70
  -3   9  -7  -10.60   21.90
   3   9   7  -11.90   22.50
  -3   9  -7   12.30   23.20
   3   9   7    7.80   21.20
  -3   9  -7   -2.20   32.50
  -3   9  -7  -11.50   25.40
   4 -10  -7  956.20   61.29
  -4 -10   7  886.31   52.99
   4 -10  -7  845.42   67.19
  -4 -10   7  850.11   54.19
  -4 -10   7  894.91   55.49
  -4 -10   7  848.22   67.99
   4 -10  -7  833.22   55.79
  -4  10   7  862.51   63.59
  -4  10   7  856.01   58.49
  -4  10   7  882.01   50.79
  -4  10   7  904.01   72.99
   4  10  -7  756.12   57.99
   4  10  -7  903.21   64.29
   4  10  -7  853.91   64.19
   4  10  -7  804.62   58.39
  -3 -10   7    4.10   25.30
   3 -10  -7   -2.60   34.00
  -3 -10   7   32.90   26.80
   3 -10  -7   66.39   53.69
  -3 -10   7   23.70   22.90
   3 -10  -7   61.79   21.30
   3 -10  -7   24.90   26.30
   3  10  -7   62.59   30.70
   3  10  -7    3.10   49.50
   3  10  -7   18.60   30.00
  -3  10   7   31.80   19.70
  -3  10   7   55.29   23.30
   3  10  -7   46.10   38.10
  -3  10   7   11.50   31.20
   2 -10  -7  383.66   38.90
  -2 -10   7  379.36   39.80
  -2 -10   7  357.76   46.10
  -2 -10   7  418.26   48.40
  -2 -10   7  459.75   44.10
   2  10  -7  469.65   58.19
  -2  10   7  399.96   48.70
  -2  10   7  480.25   35.70
   2  10  -7  406.46   49.20
   2  10  -7  453.75   50.09
  -2  10   7  484.75   43.60
  -2  10   7  450.95   44.80
   1 -10  -7   94.09   31.70
  -1 -10   7   78.89   19.10
  -1 -10   7   95.59   25.10
   1 -10  -7   81.99   23.10
  -1 -10   7   74.69   36.70
   1 -10  -7   78.49   47.80
  -1 -10   7   37.90   24.40
  -1  10   7   55.59   23.30
  -1  10   7   83.39   25.60
   1  10  -7  102.19   46.70
  -1  10   7   99.29   19.50
   1  10  -7  100.29   29.30
  -1  10   7   98.29   30.40
   1  10  -7  100.39   35.10
   0 -10   7  417.36   42.40
   0 -10   7  479.65   29.30
   0 -10  -7  392.36   50.19
   0 -10  -7  441.56   55.69
   0 -10   7  471.85   48.20
   0 -10  -7  376.66   40.90
   0  10  -7  453.45   47.60
   0  10   7  500.75   39.40
   0  10   7  416.06   49.10
   0  10  -7  393.26   51.29
   0  10   7  474.35   46.70
   0  10  -7  447.46   50.99
   0  10  -7  436.56   53.09
   1 -10   7  349.57   39.50
   1 -10   7  343.07   39.10
  -1 -10  -7  391.56   48.50
  -1 -10  -7  343.67   44.20
   1 -10   7  262.17   35.70
  -1 -10  -7  367.06   39.20
  -1  10  -7  382.66   44.20
   1  10   7  404.06   50.79
  -1  10  -7  397.96   48.50
   1  10   7  343.97   32.80
  -1  10  -7  389.16   45.80
   1  10   7  440.16   46.00
  -1  10  -7  333.07   49.70
  -2 -10  -7   55.49   32.60
   2 -10   7   56.39   22.20
  -2 -10  -7   23.90   34.10
  -2 -10  -7  102.69   28.80
  -2  10  -7   68.99   33.70
  -2  10  -7   38.60   30.00
  -2  10  -7  117.29   29.40
  -2  10  -7  136.49   27.80
   2  10   7  125.99   26.90
   2  10   7   98.49   29.20
  -2 -11   7    1.60   33.00
   2 -11  -7   38.50   31.50
   2 -11  -7   11.10   21.80
  -2 -11   7    1.00   24.10
   2 -11  -7   -0.80   35.10
  -2 -11   7    7.60   26.70
   2 -11  -7   -6.10   28.40
   2  11  -7   32.20   34.10
   2  11  -7   -2.20   27.70
   2  11  -7   20.30   29.30
  -2  11   7  -41.10   34.40
  -2  11   7   19.30   25.80
  -2  11   7  -19.50   22.80
   2  11  -7  -27.10   25.20
  -2  11   7   16.00   23.40
   1 -11  -7 1119.99   73.09
   1 -11  -7 1359.36   71.89
  -1 -11   7 1229.98   68.09
  -1 -11   7 1189.18   68.99
   1 -11  -7 1161.78   77.29
  -1 -11   7 1225.88   55.59
   1 -11  -7 1228.88   57.69
   1  11  -7 1224.38   67.29
  -1  11   7 1208.28   73.99
   1  11  -7 1235.78   68.09
  -1  11   7 1339.77   66.69
   1  11  -7 1146.49   67.09
  -1  11   7 1090.19   54.99
   1  11  -7 1213.78   74.39
   0 -11  -7   25.40   32.50
   0 -11  -7   35.40   30.90
   0  11  -7    0.60   44.60
   0  11   7   47.40   35.00
   0  11  -7   16.10   26.90
   0  11   7   20.90   25.40
   0  11  -7   46.50   32.70
  -8   0   8 1049.79   60.29
  -8   0   8  967.00   70.09
   8   0  -8 1014.10   75.39
   8   0  -8 1182.88   66.89
  -8   0   8 1097.19   60.79
   8   0  -8 1071.79   63.19
   8   0  -8 1082.69   53.19
  -8   0   8 1162.48   76.69
   7   0  -8  -18.90   20.30
   7   0  -8   23.30   19.30
  -7   0   8   12.50   18.80
  -7   0   8   27.60   23.80
  -7   0   8  -55.69   21.10
   7   0  -8   10.40   25.70
   7   0  -8   39.00   26.40
  -7   0   8   14.10   27.60
   6   0  -8 1376.36   61.49
  -6   0   8 1306.07   62.29
   6   0  -8 1318.67   63.29
   6   0  -8 1438.56   61.49
  -6   0   8 1402.26   52.19
  -6   0   8 1423.46   64.39
   6   0  -8 1380.66   62.49
  -6   0   8 1347.47   57.39
   5   0  -8  -11.60   14.80
  -5   0   8  -16.60   14.70
  -5   0   8   -9.20   15.80
  -5   0   8  -33.20   15.90
   5   0  -8   38.40   17.10
   5   0  -8    2.80   16.40
  -5   0   8    1.20   17.30
  -5   0   8   -3.40   12.40
   5   0  -8   36.20   19.50
   4   0  -8 2399.66   79.49
   4   0  -8 2431.36   81.69
  -4   0   8 2459.05   78.49
  -4   0   8 2447.85   80.89
  -4   0   8 2307.37   78.69
   4   0  -8 2448.96   81.39
   4   0  -8 2441.46   77.59
   4   0  -8 2364.86   81.89
  -4   0   8 2414.16   73.09
  -4   0   8 2506.35   69.29
  -4   0   8 2284.17   72.69
  -4   0   8 2318.77   74.29
  -3   0   8   -0.90   13.80
  -3   0   8   -7.10    9.60
   3   0  -8    0.70   11.40
   3   0  -8    6.50   16.00
   3   0  -8   14.30   12.70
   3   0  -8  -17.50   15.80
  -3   0   8   12.60   14.50
  -3   0   8    5.10   12.80
  -3   0   8   -2.90    8.30
  -3   0   8    2.70    5.90
   3   0  -8   -6.90   12.80
   3   0  -8   -6.10   19.60
   2   0  -8  651.13   35.50
  -2   0   8  633.64   38.40
  -2   0   8  607.24   25.90
   2   0  -8  648.04   36.80
   2   0  -8  581.84   32.20
   2   0  -8  587.54   32.40
  -2   0   8  643.24   20.60
  -2   0   8  632.64   34.60
   2   0  -8  586.64   35.50
  -2   0   8  585.34   29.80
   2   0  -8  609.54   33.00
  -2   0   8  593.34   34.90
   1   0  -8    4.80   10.80
   1   0  -8   -8.70    9.70
   1   0  -8   10.90   13.40
   1   0  -8    5.70   10.60
  -1   0   8   -3.50   12.70
  -1   0   8   -4.30    8.30
   1   0  -8   18.30   15.00
  -1   0   8   21.70   11.40
   1   0  -8   -7.40   11.10
   1   0  -8   -0.70   13.30
  -1   0   8    3.90   11.30
  -1   0   8   17.80   15.40
   0   0  -8    2.60    9.00
   0   0  -8   25.30   14.40
   0   0   8   17.50    7.80
   0   0   8    8.80   11.90
   0   0  -8   -3.40    8.60
   0   0  -8   -4.70    7.90
   0   0  -8   -0.40   12.90
   0   0   8    1.10    6.30
   0   0  -8    1.00   10.80
   0   0  -8  -24.30   11.30
   0   0   8   -3.00   13.80
  -1   0  -8   13.00    7.90
  -1   0  -8    8.80   13.30
  -1   0  -8   17.30   14.80
  -1   0  -8    3.60   10.40
  -1   0  -8    1.10    5.20
   1   0   8   15.80   14.60
   1   0   8  -30.40   15.20
  -1   0  -8  -28.30   10.10
  -1   0  -8    5.20    7.00
   1   0   8    0.00   13.00
  -1   0  -8   -1.60    7.10
  -1   0  -8    1.30    7.80
  -2   0  -8  312.17   23.20
   2   0   8  307.07   26.20
  -2   0  -8  283.87   14.50
  -2   0  -8  331.57   19.60
  -2   0  -8  308.07   18.00
  -2   0  -8  295.27   14.60
  -2   0  -8  310.77   16.50
   2   0   8  266.57   30.00
  -2   0  -8  271.97   27.40
   2   0   8  258.77   26.00
  -2   0  -8  332.37   33.40
  -3   0  -8    3.40   10.50
  -3   0  -8   -3.90   12.80
  -3   0  -8    0.50   11.60
   3   0   8    9.10   16.70
  -3   0  -8   -6.20    6.40
  -3   0  -8   11.70   15.00
  -3   0  -8   16.30   18.20
  -3   0  -8    2.10    8.70
   3   0   8   14.60   14.60
  -4   0  -8  478.45   38.40
  -4   0  -8  515.65   35.30
   4   0   8  555.14   37.80
   4   0   8  494.35   39.30
  -4   0  -8  522.05   37.10
  -4   0  -8  539.75   31.50
  -4   0  -8  513.35   34.90
  -4   0  -8  499.25   32.50
   5   0   8    5.70   20.00
  -5   0  -8   41.40   18.30
  -5   0  -8   21.50   20.70
  -5   0  -8   -3.50   15.80
  -5   0  -8    1.80   19.80
  -5   0  -8  -18.50   18.50
   5   0   8  -31.50   17.60
  -5   0  -8  -17.30   17.70
   8  -1  -8   97.09   40.70
  -8  -1   8  104.69   28.00
  -8  -1   8  176.28   42.10
   8  -1  -8  147.19   33.30
   8  -1  -8  109.19   24.70
  -8  -1   8   83.29   28.10
   8  -1  -8  139.79   34.70
  -8  -1   8   67.89   36.90
   8   1  -8   73.69   28.60
  -8   1   8   72.29   28.50
   8   1  -8  132.19   32.00
  -8   1   8  146.29   40.00
  -8   1   8  110.39   34.20
   8   1  -8   57.69   38.80
  -8   1   8   95.99   28.00
   7  -1  -8 1196.48   53.39
   7  -1  -8 1149.89   63.29
  -7  -1   8 1128.09   65.59
  -7  -1   8 1131.69   58.49
  -7  -1   8 1178.58   64.39
   7  -1  -8  994.50   63.69
   7  -1  -8 1069.09   58.89
  -7  -1   8 1101.99   51.79
   7   1  -8 1135.99   67.49
  -7   1   8 1125.59   56.39
  -7   1   8 1201.28   64.09
  -7   1   8 1105.59   53.89
  -7   1   8 1088.19   58.49
  -7   1   8 1073.89   67.79
   7   1  -8 1040.30   55.19
   7   1  -8 1063.99   63.39
   7   1  -8 1079.09   60.49
  -6  -1   8   49.70   19.30
  -6  -1   8   43.10   22.00
   6  -1  -8   52.99   19.60
   6  -1  -8   34.00   22.00
  -6  -1   8   61.99   22.40
   6  -1  -8   22.00   21.50
  -6  -1   8   43.20   14.90
   6  -1  -8   24.70   19.00
  -6   1   8   60.29   20.20
   6   1  -8   40.40   19.70
   6   1  -8   30.10   21.90
   6   1  -8   55.59   21.30
  -6   1   8   50.69   16.10
   6   1  -8   23.50   19.50
  -6   1   8   29.00   18.20
  -6   1   8   50.39   22.60
  -6   1   8   70.19   23.40
   5  -1  -8 1902.51   73.99
  -5  -1   8 1950.70   67.79
  -5  -1   8 1936.41   71.69
  -5  -1   8 1904.71   66.09
   5  -1  -8 1936.01   70.69
   5  -1  -8 2070.99   74.89
  -5  -1   8 2005.10   73.39
  -5  -1   8 1863.41   58.29
   5  -1  -8 1918.01   71.49
  -5   1   8 1899.91   72.89
  -5   1   8 1953.10   66.89
  -5   1   8 2023.40   73.59
   5   1  -8 2038.50   74.09
   5   1  -8 1948.61   74.39
  -5   1   8 1980.10   64.29
   5   1  -8 1952.00   71.29
  -5   1   8 1960.30   62.09
   5   1  -8 1913.61   70.39
  -5   1   8 1862.91   70.39
   4  -1  -8  225.58   28.30
  -4  -1   8  318.67   17.80
  -4  -1   8  327.27   29.70
  -4  -1   8  325.77   32.00
   4  -1  -8  306.97   33.60
  -4  -1   8  337.37   26.50
   4  -1  -8  320.57   31.80
   4  -1  -8  296.67   31.60
  -4  -1   8  321.77   27.10
  -4  -1   8  291.37   30.00
   4  -1  -8  316.17   30.80
  -4   1   8  328.17   22.30
  -4   1   8  345.27   32.70
   4   1  -8  369.66   37.60
   4   1  -8  285.27   32.00
   4   1  -8  313.27   31.30
  -4   1   8  352.16   25.30
   4   1  -8  340.37   30.70
   4   1  -8  301.77   32.20
  -4   1   8  368.76   30.70
  -4   1   8  358.56   32.70
  -4   1   8  340.37   27.60
  -3  -1   8 1467.95   53.89
   3  -1  -8 1453.55   55.99
   3  -1  -8 1398.26   52.79
  -3  -1   8 1314.07   47.70
   3  -1  -8 1335.17   54.79
  -3  -1   8 1410.26   46.90
  -3  -1   8 1404.46   44.50
  -3  -1   8 1403.66   56.99
   3  -1  -8 1454.45   57.89
  -3  -1   8 1350.36   34.50
   3  -1  -8 1454.45   53.79
  -3  -1   8 1376.06   54.09
   3   1  -8 1365.36   54.29
   3   1  -8 1443.76   52.59
  -3   1   8 1426.36   42.10
   3   1  -8 1432.26   55.99
  -3   1   8 1438.46   47.70
   3   1  -8 1395.46   54.09
  -3   1   8 1361.16   56.49
   3   1  -8 1310.87   54.59
   3   1  -8 1320.97   55.09
  -3   1   8 1426.46   39.60
  -3   1   8 1332.37   48.90
   2  -1  -8 1903.61   68.39
   2  -1  -8 2024.40   64.49
   2  -1  -8 1975.30   64.39
  -2  -1   8 1866.91   53.79
  -2  -1   8 1797.32   55.09
   2  -1  -8 2088.29   51.39
   2  -1  -8 1978.60   62.09
  -2  -1   8 1860.11   68.09
   2  -1  -8 1856.21   65.89
  -2  -1   8 1879.01   62.99
   2  -1  -8 1872.61   61.49
  -2  -1   8 1945.61   59.79
   2   1  -8 1793.52   62.29
   2   1  -8 1980.40   64.89
  -2   1   8 1956.80   62.19
   2   1  -8 2016.20   64.19
   2   1  -8 1892.51   60.69
   2   1  -8 1912.51   67.19
   2   1  -8 1802.22   63.19
  -2   1   8 1904.71   54.49
  -2   1   8 1892.41   60.09
  -2   1   8 1865.71   67.79
  -2   1   8 1949.30   54.99
   1  -1  -8  157.88   18.20
   1  -1  -8  161.28   22.00
   1  -1  -8  170.68   12.50
   1  -1  -8  145.89   18.10
   1  -1  -8  177.98   21.30
   1  -1  -8  156.88   20.20
  -1  -1   8  178.78   20.40
  -1  -1   8  144.99   16.40
  -1  -1   8  187.68   25.10
  -1  -1   8  137.79   15.40
  -1  -1   8  146.69   18.30
   1  -1  -8  150.88   17.70
   1  -1  -8  182.68   23.50
   1   1  -8  154.08   18.60
  -1   1   8  204.08   21.80
   1   1  -8  144.89   17.40
   1   1  -8  166.78   22.10
  -1   1   8  211.08   23.10
   1   1  -8  181.18   21.20
  -1   1   8  220.48   26.10
  -1   1   8  178.58   21.20
   1   1  -8  178.38   20.00
   1   1  -8  178.88   18.90
   1   1  -8  131.49   17.20
  -1   1   8  165.48    9.40
   0  -1  -8 2339.17   73.59
   0  -1   8 2254.67   69.79
   0  -1  -8 2247.08   74.39
   0  -1   8 2367.76   79.19
   0  -1   8 2367.76   59.69
   0  -1  -8 2210.88   66.99
   0  -1  -8 2318.77   67.09
   0  -1  -8 2299.57   65.99
   0  -1  -8 2457.15   60.39
   0  -1  -8 2360.46   67.79
   0   1   8 2340.97   61.59
   0   1   8 2365.56   69.49
   0   1  -8 2247.28   66.79
   0   1  -8 2293.57   65.39
   0   1  -8 2321.97   76.39
   0   1  -8 2439.76   66.89
   0   1   8 2289.37   78.79
   0   1  -8 2470.65   69.69
   0   1  -8 2345.47   60.09
   0   1   8 2353.16   60.69
   0   1  -8 2318.17   70.09
   0   1  -8 2294.57   65.59
  -1  -1  -8  299.77   19.20
   1  -1   8  273.97   24.90
  -1  -1  -8  306.67   19.40
   1  -1   8  275.97   29.40
  -1  -1  -8  305.07   22.50
   1  -1   8  299.17   24.80
  -1  -1  -8  318.37   19.90
  -1  -1  -8  344.27   32.40
  -1  -1  -8  295.17   22.10
  -1  -1  -8  320.17   19.40
  -1  -1  -8  305.77   28.20
  -1   1  -8  317.87   21.10
   1   1   8  308.77   26.10
  -1   1  -8  324.87   11.80
  -1   1  -8  310.47   18.00
  -1   1  -8  360.06   26.60
  -1   1  -8  335.27   19.00
  -1   1  -8  317.77   17.40
   1   1   8  317.37   26.20
  -1   1  -8  292.27   18.60
  -1   1  -8  299.87   11.70
   1   1   8  248.38   29.30
  -1   1  -8  275.17   28.40
  -1   1  -8  332.47   25.10
  -2  -1  -8  826.02   27.70
  -2  -1  -8  787.62   40.50
   2  -1   8  927.01   39.70
  -2  -1  -8  814.82   45.30
   2  -1   8  848.72   44.80
  -2  -1  -8  853.41   36.40
   2  -1   8  830.12   35.00
  -2  -1  -8  886.61   30.70
  -2  -1  -8  853.41   26.50
  -2  -1  -8  808.02   32.70
  -2  -1  -8  848.22   28.90
  -2  -1  -8  840.32   27.80
  -2   1  -8  836.12   25.20
  -2   1  -8  849.02   30.60
  -2   1  -8  854.91   27.40
   2   1   8  817.12   39.90
  -2   1  -8  827.12   41.70
   2   1   8  839.92   36.00
  -2   1  -8  817.72   36.80
  -2   1  -8  801.12   25.70
   2   1   8  815.62   44.70
  -2   1  -8  861.41   29.10
  -2   1  -8  837.02   32.80
  -3  -1  -8  808.12   45.90
  -3  -1  -8  806.12   27.60
  -3  -1  -8  882.81   33.60
   3  -1   8  763.52   37.90
  -3  -1  -8  777.92   26.20
  -3  -1  -8  752.12   32.00
   3  -1   8  827.52   45.00
  -3  -1  -8  814.22   39.80
   3  -1   8  823.92   35.70
  -3   1  -8  827.32   43.00
  -3   1  -8  813.42   45.30
   3   1   8  782.22   45.10
   3   1   8  741.33   31.80
  -3   1  -8  790.32   35.40
  -3   1  -8  809.92   25.20
  -3   1  -8  776.92   37.20
  -3   1  -8  754.02   35.50
   3   1   8  730.73   60.19
  -3   1  -8  790.72   23.80
  -4  -1  -8  164.58   17.40
   4  -1   8  137.69   23.30
   4  -1   8  155.38   24.00
  -4  -1  -8  166.78   13.30
  -4  -1  -8  187.48   19.30
  -4  -1  -8  140.39   20.60
   4  -1   8  152.18   21.30
  -4  -1  -8  162.58   25.30
   4   1   8  157.78   24.30
  -4   1  -8  138.79   20.40
  -4   1  -8  148.29   23.40
  -4   1  -8  131.69   20.80
  -4   1  -8  184.88   22.20
  -4   1  -8  249.58   27.90
  -4   1  -8  131.19   23.10
   4   1   8  153.38   25.70
   5  -1   8  491.25   42.10
  -5  -1  -8  612.94   36.60
   5  -1   8  589.14   43.80
  -5  -1  -8  652.33   33.90
  -5  -1  -8  550.64   38.70
  -5  -1  -8  632.44   46.20
  -5  -1  -8  616.84   46.20
  -5  -1  -8  556.24   43.50
   5   1   8  586.14   43.30
  -5   1  -8  592.04   38.20
  -5   1  -8  667.43   42.90
   5   1   8  572.44   45.30
  -5   1  -8  602.74   44.50
  -5   1  -8  522.15   39.20
  -5   1  -8  618.34   42.70
  -5   1  -8  562.14   42.20
  -8  -2   8   -8.50   29.80
   8  -2  -8   66.49   39.40
   8  -2  -8   19.20   22.70
   8  -2  -8   -8.90   28.30
  -8  -2   8   11.80   26.00
  -8  -2   8   13.30   20.00
  -8  -2   8   28.70   27.00
   8  -2  -8   31.70   30.40
   8  -2  -8   18.10   29.70
   8   2  -8  -16.20   29.60
   8   2  -8   38.80   27.50
  -8   2   8  -19.80   28.40
  -8   2   8   23.30   30.90
  -8   2   8   12.50   23.30
  -8   2   8   19.70   27.20
   8   2  -8   51.89   34.70
  -7  -2   8   41.70   27.30
   7  -2  -8   46.40   29.00
  -7  -2   8   38.40   19.70
  -7  -2   8   57.09   22.80
  -7  -2   8    5.80   19.60
   7  -2  -8   -9.20   23.60
  -7  -2   8  -10.50   24.40
   7  -2  -8   29.30   21.10
   7  -2  -8   48.90   25.70
  -7   2   8   36.20   21.60
  -7   2   8   64.09   21.70
   7   2  -8   49.70   29.80
  -7   2   8   -7.50   23.90
   7   2  -8   53.99   22.50
  -7   2   8   36.60   25.60
   7   2  -8   59.29   27.60
   7   2  -8   45.50   25.40
  -7   2   8   10.10   20.30
  -6  -2   8    7.90   16.00
  -6  -2   8   34.30   18.90
  -6  -2   8   17.70   14.50
  -6  -2   8    7.90   18.90
   6  -2  -8   16.10   18.40
   6  -2  -8   36.80   22.00
   6  -2  -8   43.20   21.30
   6  -2  -8  -11.80   20.50
  -6  -2   8  -20.70   18.50
  -6   2   8   24.80   19.50
   6   2  -8   25.50   19.20
  -6   2   8   -4.90   23.00
  -6   2   8   25.90   18.30
  -6   2   8    5.80   19.70
   6   2  -8   17.10   21.00
  -6   2   8   24.70   20.60
   6   2  -8   -7.50   19.80
   6   2  -8   23.60   22.10
  -5  -2   8  280.77   29.50
   5  -2  -8  291.77   33.10
   5  -2  -8  222.28   26.80
  -5  -2   8  325.37   31.30
  -5  -2   8  266.17   33.70
   5  -2  -8  326.97   33.70
  -5  -2   8  240.88   32.00
   5  -2  -8  276.97   31.60
  -5   2   8  288.97   33.10
  -5   2   8  240.38   26.20
   5   2  -8  277.87   33.70
  -5   2   8  242.88   28.60
  -5   2   8  303.57   27.00
  -5   2   8  272.87   32.60
   5   2  -8  263.17   30.20
   5   2  -8  290.47   32.80
  -5   2   8  296.77   29.70
   5   2  -8  296.07   32.90
  -4  -2   8   45.70   17.70
  -4  -2   8   57.29   16.20
   4  -2  -8   36.60   16.30
  -4  -2   8   51.99   16.40
   4  -2  -8   32.50   18.10
  -4  -2   8   46.30   15.20
  -4  -2   8   44.50    8.20
   4  -2  -8   52.49   20.10
   4  -2  -8   45.40   18.20
  -4  -2   8   33.30   18.80
  -4  -2   8   92.19   18.40
   4  -2  -8   52.19   18.90
   4   2  -8   35.70   17.30
  -4   2   8   86.59   24.40
  -4   2   8   52.39   18.80
  -4   2   8   49.80   14.40
   4   2  -8   26.20   15.30
  -4   2   8   38.60   15.00
   4   2  -8   70.79   26.80
  -4   2   8   28.80   17.40
  -4   2   8   40.50   12.00
   4   2  -8   64.39   20.00
   4   2  -8   24.10   18.30
   3  -2  -8 1295.07   55.49
   3  -2  -8 1291.47   56.39
   3  -2  -8 1290.57   50.99
  -3  -2   8 1312.17   52.89
   3  -2  -8 1348.57   51.49
   3  -2  -8 1297.87   54.59
  -3  -2   8 1373.26   46.20
  -3  -2   8 1283.77   48.90
   3  -2  -8 1303.97   56.89
  -3  -2   8 1323.17   45.90
  -3  -2   8 1388.16   47.70
  -3  -2   8 1423.66   59.19
   3  -2  -8 1312.97   44.80
  -3   2   8 1329.87   52.69
  -3   2   8 1287.87   47.00
   3   2  -8 1335.17   54.39
   3   2  -8 1306.47   55.09
   3   2  -8 1336.87   56.09
  -3   2   8 1343.37   35.90
   3   2  -8 1327.17   50.69
  -3   2   8 1313.07   54.29
  -3   2   8 1349.07   44.30
   3   2  -8 1349.96   50.99
  -3   2   8 1338.77   48.50
   3   2  -8 1264.37   53.39
   2  -2  -8   17.10   12.60
  -2  -2   8   34.40   12.30
  -2  -2   8   32.80   10.10
   2  -2  -8   58.29   17.90
  -2  -2   8   36.30   15.50
   2  -2  -8   51.39   11.80
   2  -2  -8   46.60   17.50
   2  -2  -8   44.90   14.90
   2  -2  -8   39.80   16.40
  -2  -2   8   39.00   16.40
   2  -2  -8   38.10   14.70
  -2  -2   8   46.70   11.30
   2   2  -8   48.10   15.40
   2   2  -8   47.80   17.10
   2   2  -8   22.40   15.50
  -2   2   8   64.69   15.90
   2   2  -8   34.90   13.90
  -2   2   8   57.39   11.80
  -2   2   8   56.79   18.10
   2   2  -8   53.39   14.30
  -2   2   8   34.30   11.00
   2   2  -8   48.90   14.10
  -1  -2   8 1935.31   63.49
  -1  -2   8 1902.21   57.69
   1  -2  -8 1784.62   65.69
  -1  -2   8 1882.21   54.09
   1  -2  -8 1875.41   61.99
  -1  -2   8 1945.11   69.49
   1  -2  -8 1975.20   59.49
   1  -2  -8 2007.60   63.09
   1  -2  -8 2090.19   68.49
   1  -2  -8 1990.00   54.09
  -1  -2   8 1945.31   57.29
   1  -2  -8 1878.01   60.39
   1  -2  -8 1825.92   68.89
   1   2  -8 1950.01   61.09
   1   2  -8 1786.42   58.89
   1   2  -8 1883.11   63.89
  -1   2   8 1889.01   48.70
   1   2  -8 1880.91   59.49
   1   2  -8 1907.61   67.29
  -1   2   8 1857.61   68.39
   1   2  -8 1967.90   58.69
  -1   2   8 1903.01   51.89
   1   2  -8 1872.81   60.79
   1   2  -8 1882.11   58.19
  -1   2   8 1864.91   57.59
  -1   2   8 1938.91   58.19
   0  -2  -8   13.30   10.00
   0  -2   8    8.40   14.60
   0  -2   8    4.20   12.90
   0  -2   8    8.00    7.00
   0  -2  -8  -14.30    9.00
   0  -2  -8   -5.40   10.20
   0  -2  -8   -8.30   14.20
   0  -2   8  -11.80    7.60
   0  -2  -8   20.10   16.10
   0  -2  -8  -17.50   12.30
   0  -2  -8   18.60   11.70
   0   2   8  -11.60   12.70
   0   2  -8   -1.80    9.10
   0   2  -8    9.30   13.90
   0   2  -8  -24.30   12.10
   0   2  -8  -14.10   10.80
   0   2  -8    8.60   10.00
   0   2   8   14.40   10.70
   0   2   8   -4.30   14.80
   0   2  -8   15.60   12.20
   1  -2   8 1871.31   57.19
   1  -2   8 1989.10   63.29
   1  -2   8 1880.21   61.09
   1  -2   8 1841.42   68.69
  -1  -2  -8 1955.50   56.59
  -1  -2  -8 1855.81   56.09
  -1  -2  -8 1906.41   56.49
  -1  -2  -8 1886.81   66.19
  -1  -2  -8 1946.01   56.69
  -1  -2  -8 2008.60   57.59
  -1  -2  -8 2001.30   56.29
  -1  -2  -8 1891.11   70.49
   1   2   8 1878.21   57.29
  -1   2  -8 1974.30   54.79
   1   2   8 1909.61   71.49
  -1   2  -8 1964.70   57.39
  -1   2  -8 1984.00   55.19
  -1   2  -8 2000.40   54.19
  -1   2  -8 1829.62   66.59
  -1   2  -8 1905.71   56.59
  -1   2  -8 1894.31   62.39
  -1   2  -8 1812.32   54.29
   1   2   8 1954.90   58.99
   2  -2   8   10.70   15.00
  -2  -2  -8   -0.10   13.90
  -2  -2  -8   -4.80   15.90
  -2  -2  -8    7.80    4.70
   2  -2   8   11.60   16.20
  -2  -2  -8   -1.70   13.30
  -2  -2  -8   -5.90    8.00
  -2  -2  -8   12.00   11.50
   2  -2   8    0.30   12.10
  -2  -2  -8   16.40    9.10
   2  -2   8   13.60   15.30
  -2  -2  -8   17.20   16.20
  -2  -2  -8    5.00    4.20
  -2  -2  -8   14.60    7.90
   2   2   8    8.10   12.50
  -2   2  -8    8.00   13.20
   2   2   8   28.30   15.10
  -2   2  -8    7.10    6.40
   2   2   8   -5.80   16.30
  -2   2  -8   13.80    9.70
  -2   2  -8    9.60    8.10
  -2   2  -8   10.00   12.90
  -2   2  -8   15.20   12.00
  -2   2  -8    0.40    6.80
  -2   2  -8    4.70    5.90
  -2   2  -8   -7.50   13.90
  -3  -2  -8 1636.44   43.00
  -3  -2  -8 1578.14   47.80
   3  -2   8 1643.14   61.89
  -3  -2  -8 1635.34   46.50
  -3  -2  -8 1650.83   45.90
  -3  -2  -8 1557.54   64.99
  -3  -2  -8 1534.05   57.19
   3  -2   8 1578.54   53.39
  -3  -2  -8 1567.64   48.40
   3  -2   8 1596.04   63.39
  -3  -2  -8 1611.14   43.90
  -3  -2  -8 1712.03   49.50
   3  -2   8 1529.75   56.59
  -3   2  -8 1622.34   52.79
  -3   2  -8 1638.24   42.70
  -3   2  -8 1615.04   58.39
  -3   2  -8 1662.53   55.69
  -3   2  -8 1608.64   55.49
  -3   2  -8 1527.25   61.09
   3   2   8 1549.84   66.19
   3   2   8 1694.63   59.89
  -4  -2  -8   41.30   14.20
   4  -2   8   30.90   20.40
  -4  -2  -8   23.00   15.50
  -4  -2  -8   78.39   10.40
   4  -2   8   45.30   16.50
   4  -2   8   37.30   17.80
   4  -2   8   50.19   20.40
  -4  -2  -8   -0.10   19.80
  -4   2  -8   26.60   15.90
  -4   2  -8   45.30   17.50
  -4   2  -8   30.80   14.70
   4   2   8   64.79   20.70
  -4   2  -8   24.10   18.90
  -4   2  -8   47.70    6.70
  -4   2  -8   46.70   17.50
  -4   2  -8   18.90   18.80
   4   2   8   60.79   19.60
  -5  -2  -8  497.55   42.40
   5  -2   8  504.65   41.00
   5  -2   8  583.34   42.40
  -5  -2  -8  519.35   36.80
  -5  -2  -8  570.54   34.30
  -5  -2  -8  520.15   49.10
  -5   2  -8  526.45   38.50
  -5   2  -8  472.95   41.60
   5   2   8  461.85   43.90
  -5   2  -8  504.95   41.70
   5   2   8  585.84   45.70
  -5   2  -8  445.76   39.00
  -5   2  -8  490.65   42.10
  -5   2  -8  450.75   40.50
  -8  -3   8  190.08   45.60
   8  -3  -8  245.68   42.70
  -8  -3   8  229.48   34.60
  -8  -3   8  241.38   40.90
  -8  -3   8  216.08   36.50
   8  -3  -8  249.48   45.10
  -8  -3   8  225.58   36.80
   8  -3  -8  220.28   39.50
   8  -3  -8  221.38   29.80
  -8   3   8  234.58   34.90
   8   3  -8  260.17   49.20
   8   3  -8  199.58   39.30
  -8   3   8  282.37   42.50
  -8   3   8  245.08   42.20
  -8   3   8  247.38   38.10
   8   3  -8  271.97   38.20
  -8   3   8  292.07   34.80
   8   3  -8  296.87   36.80
  -7  -3   8  626.74   56.19
  -7  -3   8  611.34   49.20
   7  -3  -8  549.35   53.19
   7  -3  -8  685.13   57.69
   7  -3  -8  729.83   58.89
  -7  -3   8  621.84   56.89
  -7  -3   8  640.14   40.90
   7  -3  -8  667.03   45.60
  -7  -3   8  633.74   44.70
  -7   3   8  576.24   46.10
  -7   3   8  579.64   49.80
  -7   3   8  527.05   57.19
   7   3  -8  689.63   58.59
  -7   3   8  683.03   57.49
   7   3  -8  680.23   52.79
  -7   3   8  604.94   46.30
   7   3  -8  664.73   58.79
   7   3  -8  711.03   46.80
  -6  -3   8   46.30   21.00
  -6  -3   8   49.80   22.70
   6  -3  -8   21.80   23.90
   6  -3  -8   17.80   24.10
  -6  -3   8   57.59   21.10
  -6  -3   8    8.70   18.30
   6  -3  -8    8.60   18.20
  -6  -3   8   30.20   15.50
   6  -3  -8   50.79   22.10
   6   3  -8   -8.70   21.40
   6   3  -8   16.80   20.70
  -6   3   8   48.70   19.30
  -6   3   8   16.30   19.10
  -6   3   8   10.70   22.50
   6   3  -8   36.60   21.10
   6   3  -8   24.50   21.70
  -6   3   8   38.10   22.60
  -6   3   8   16.90   18.80
  -5  -3   8 1390.56   59.29
  -5  -3   8 1325.87   57.19
   5  -3  -8 1280.47   57.09
   5  -3  -8 1383.56   63.09
  -5  -3   8 1340.57   53.99
   5  -3  -8 1273.17   62.19
   5  -3  -8 1372.16   57.79
  -5  -3   8 1339.77   56.39
   5   3  -8 1352.06   63.29
  -5   3   8 1322.37   54.59
   5   3  -8 1297.07   57.39
   5   3  -8 1335.97   59.89
  -5   3   8 1354.76   61.49
  -5   3   8 1412.36   58.09
   5   3  -8 1402.86   58.59
  -5   3   8 1404.66   53.59
  -4  -3   8  145.69   19.10
   4  -3  -8  197.88   27.90
  -4  -3   8  117.89   26.10
  -4  -3   8  135.09   12.60
  -4  -3   8  186.38   24.90
   4  -3  -8  184.58   27.00
   4  -3  -8  170.38   23.90
  -4  -3   8  154.48   21.70
   4  -3  -8  196.58   25.50
  -4  -3   8  103.89   20.90
  -4  -3   8  139.69   23.00
   4  -3  -8  141.39   21.40
   4   3  -8  151.48   23.10
   4   3  -8  184.68   24.40
  -4   3   8  200.68   22.60
  -4   3   8  181.38   18.80
  -4   3   8  159.28   19.20
  -4   3   8  129.79   22.00
  -4   3   8  163.78   23.70
   4   3  -8  163.68   25.40
   4   3  -8  153.08   25.10
   4   3  -8  137.19   26.60
   3  -3  -8  618.74   45.10
   3  -3  -8  650.93   41.60
   3  -3  -8  594.64   39.30
   3  -3  -8  595.44   35.70
  -3  -3   8  608.04   34.80
  -3  -3   8  597.94   33.00
  -3  -3   8  596.34   30.50
  -3  -3   8  619.64   36.30
   3  -3  -8  668.83   33.60
   3  -3  -8  571.24   36.70
  -3  -3   8  630.54   34.00
   3  -3  -8  605.84   39.60
  -3  -3   8  626.14   40.00
  -3   3   8  595.74   31.80
   3   3  -8  603.54   36.30
  -3   3   8  607.24   19.10
   3   3  -8  614.14   40.00
   3   3  -8  656.53   35.80
   3   3  -8  688.43   43.70
  -3   3   8  631.94   18.90
   3   3  -8  667.43   35.60
  -3   3   8  706.03   36.70
  -3   3   8  615.74   31.30
  -3   3   8  738.33   61.09
  -3   3   8  635.94   37.60
   3   3  -8  652.03   38.30
  -2  -3   8 2084.89   63.29
   2  -3  -8 2085.09   68.49
  -2  -3   8 2075.29   70.29
  -2  -3   8 2110.59   59.09
   2  -3  -8 2215.18   63.69
  -2  -3   8 2124.69   59.19
   2  -3  -8 2112.59   65.09
   2  -3  -8 2085.39   71.79
   2  -3  -8 1996.30   74.19
   2  -3  -8 2233.68   72.89
  -2  -3   8 2098.29   64.99
   2  -3  -8 2162.58   74.89
  -2  -3   8 2011.50   74.19
   2   3  -8 2034.40   66.49
  -2   3   8 2112.29   64.19
   2   3  -8 2029.50   69.39
   2   3  -8 2157.18   64.29
   2   3  -8 2137.39   71.29
  -2   3   8 2076.89   60.99
  -2   3   8 2110.99   73.79
   2   3  -8 2207.28   70.89
   2   3  -8 1976.90   71.99
   2   3  -8 2141.89   64.69
  -2   3   8 2185.78   62.09
  -2   3   8 2068.19   74.39
   1  -3  -8   20.40   13.10
  -1  -3   8   39.90   16.40
  -1  -3   8   19.60   10.00
   1  -3  -8   14.70   13.10
  -1  -3   8   12.60   12.60
   1  -3  -8   18.30   15.80
   1  -3  -8   15.80   15.50
  -1  -3   8    7.40   13.30
   1  -3  -8   17.40   11.00
   1  -3  -8   27.40   13.30
   1  -3  -8   26.20   15.50
  -1  -3   8   21.10    4.40
   1   3  -8   26.50   11.00
   1   3  -8   31.60   13.00
   1   3  -8   25.30   11.10
   1   3  -8    4.30   14.10
   1   3  -8   35.40   12.50
  -1   3   8   22.90   15.90
  -1   3   8    8.90   12.40
  -1   3   8   36.40   12.50
   1   3  -8   14.30   14.40
   1   3  -8   19.60   16.30
  -1   3   8   15.60    7.60
  -1   3   8   11.00    9.70
   0  -3   8 2853.31   91.09
   0  -3  -8 2875.31   83.59
   0  -3  -8 3008.70   80.69
   0  -3  -8 2994.20   84.89
   0  -3   8 2854.61   85.29
   0  -3  -8 2843.42   89.49
   0  -3  -8 2851.81   93.59
   0  -3  -8 2825.22   91.19
   0  -3   8 2894.21   90.39
   0  -3   8 2918.81   74.79
   0  -3   8 2941.81   74.59
   0  -3  -8 2924.31   82.29
   0   3  -8 3020.40   81.89
   0   3  -8 2890.51   80.09
   0   3  -8 2959.90   82.79
   0   3  -8 2828.02   89.99
   0   3  -8 3042.20   81.69
   0   3   8 2935.61   77.69
   0   3  -8 2997.00   80.99
   0   3   8 2976.50   83.79
   0   3  -8 2935.21   87.59
   0   3   8 2927.31   79.29
   0   3   8 3022.60   95.79
  -1  -3  -8   16.20   14.40
  -1  -3  -8   24.50   11.50
   1  -3   8   12.70   13.40
  -1  -3  -8   35.10   16.10
  -1  -3  -8   25.50   15.00
  -1  -3  -8   38.90   17.00
   1  -3   8   11.70   13.70
  -1  -3  -8   20.80   10.70
  -1  -3  -8    8.80   11.40
   1  -3   8   42.40   15.70
   1  -3   8    8.30   15.40
  -1  -3  -8   31.00    8.00
   1   3   8   29.40   14.40
   1   3   8   18.00    7.00
  -1   3  -8   16.90   13.60
   1   3   8   24.20    8.80
  -1   3  -8   23.70    9.20
  -1   3  -8   35.10   12.60
  -1   3  -8   17.00    8.70
  -1   3  -8   38.90   10.50
  -1   3  -8   -8.60   15.00
   1   3   8   22.30   14.70
   1   3   8   38.70   15.70
  -1   3  -8   20.70   10.10
  -2  -3  -8 1467.75   62.19
  -2  -3  -8 1513.85   39.90
   2  -3   8 1489.45   55.49
   2  -3   8 1489.95   60.19
   2  -3   8 1543.75   53.79
  -2  -3  -8 1515.35   48.40
  -2  -3  -8 1430.06   47.50
   2  -3   8 1496.45   53.19
  -2  -3  -8 1482.35   47.50
  -2  -3  -8 1515.55   56.19
  -2  -3  -8 1483.05   56.79
  -2  -3  -8 1451.65   46.40
  -2   3  -8 1489.95   56.39
  -2   3  -8 1515.85   42.70
  -2   3  -8 1496.55   43.30
  -2   3  -8 1553.74   53.49
  -2   3  -8 1512.55   45.70
   2   3   8 1526.15   54.69
   2   3   8 1542.05   47.00
  -2   3  -8 1513.55   43.40
  -2   3  -8 1451.65   43.50
   2   3   8 1470.55   63.09
  -2   3  -8 1552.04   41.70
  -3  -3  -8  351.06   18.80
  -3  -3  -8  325.87   19.70
  -3  -3  -8  356.26   20.90
   3  -3   8  338.57   32.00
  -3  -3  -8  315.67   28.00
  -3  -3  -8  364.36   29.10
  -3  -3  -8  343.27   22.40
  -3  -3  -8  365.46   38.10
   3  -3   8  389.56   32.60
   3  -3   8  330.07   27.00
   3  -3   8  320.57   31.40
  -3   3  -8  322.47   21.90
  -3   3  -8  342.57   29.90
   3   3   8  367.06   37.60
   3   3   8  330.27   32.30
  -3   3  -8  397.46   34.10
  -3   3  -8  349.47   18.20
   4  -3   8  349.07   34.60
  -4  -3  -8  369.66   30.00
  -4  -3  -8  349.37   17.80
   4  -3   8  413.26   33.60
  -4  -3  -8  389.86   22.20
   4  -3   8  366.56   31.20
  -4  -3  -8  392.46   18.50
  -4  -3  -8  390.36   39.70
   4   3   8  371.36   34.40
   4   3   8  361.56   38.40
  -4   3  -8  370.76   35.90
  -4   3  -8  365.96   17.80
  -4   3  -8  384.26   36.80
  -4   3  -8  332.97   30.40
  -4   3  -8  360.06   33.60
  -4   3  -8  364.56   29.30
   5  -3   8  742.73   45.90
   5  -3   8  643.24   45.10
  -5  -3  -8  643.64   56.39
   5  -3   8  613.34   43.00
  -5  -3  -8  626.04   46.80
  -5   3  -8  629.34   44.80
  -5   3  -8  567.84   46.90
  -5   3  -8  588.04   39.50
   5   3   8  657.93   47.20
  -5   3  -8  663.73   49.00
   5   3   8  697.13   51.09
  -5   3  -8  687.53   45.00
  -5   3  -8  645.54   46.70
   8  -4  -8 1158.28   82.99
   8  -4  -8 1150.48   57.49
  -8  -4   8 1172.48   63.99
  -8  -4   8 1143.79   72.29
   8  -4  -8 1207.68   68.69
  -8  -4   8 1116.49   74.59
   8  -4  -8 1178.08   71.79
  -8  -4   8 1115.79   66.89
   8   4  -8 1215.48   77.29
   8   4  -8 1013.60   68.59
  -8   4   8 1030.40   75.79
  -8   4   8 1122.59   66.99
  -8   4   8 1208.08   76.39
  -8   4   8 1286.07   59.99
   8   4  -8 1116.59   64.69
   7  -4  -8  -11.90   41.10
   7  -4  -8    3.10   31.20
  -7  -4   8   18.10   19.80
  -7  -4   8   -8.10   19.60
  -7  -4   8   23.30   30.20
   7  -4  -8   18.70   21.90
  -7  -4   8  -18.40   29.30
   7  -4  -8   21.10   27.50
  -7   4   8   -0.60   22.90
   7   4  -8  -11.70   21.70
  -7   4   8   43.10   22.40
   7   4  -8   48.30   31.30
   7   4  -8   32.70   36.00
  -7   4   8  -33.00   32.70
   6  -4  -8 1038.80   60.39
   6  -4  -8 1007.60   61.39
  -6  -4   8 1020.50   55.39
  -6  -4   8 1020.80   54.79
  -6  -4   8  992.30   43.70
  -6  -4   8 1052.99   56.99
   6  -4  -8 1035.90   52.99
  -6  -4   8 1039.60   52.39
   6  -4  -8 1103.29   63.89
  -6   4   8 1021.70   59.09
  -6   4   8  976.90   50.59
   6   4  -8  948.31   59.59
   6   4  -8 1068.79   53.89
   6   4  -8  930.81   57.69
   6   4  -8 1035.60   60.49
  -6   4   8 1002.30   52.79
  -6   4   8 1095.29   56.59
   5  -4  -8   -5.60   18.10
  -5  -4   8   -6.50   15.90
   5  -4  -8   22.00   22.40
  -5  -4   8   20.60   19.90
  -5  -4   8  -10.90   15.30
   5  -4  -8   -0.70   18.20
  -5  -4   8   15.50   16.70
   5  -4  -8  -22.00   19.40
   5   4  -8   47.70   22.20
  -5   4   8   20.20   19.70
   5   4  -8   10.90   17.80
  -5   4   8   20.90   13.10
   5   4  -8  -13.20   18.00
  -5   4   8  -19.30   15.30
  -5   4   8   14.40   18.00
  -5   4   8    4.70   17.00
   5   4  -8   36.60   20.10
   4  -4  -8  969.00   50.39
  -4  -4   8  964.00   32.00
  -4  -4   8  943.41   46.70
  -4  -4   8  924.31   45.60
  -4  -4   8  919.51   29.00
   4  -4  -8  875.71   50.29
   4  -4  -8  956.80   52.99
  -4  -4   8  875.71   41.70
   4  -4  -8  935.81   48.10
  -4  -4   8  932.41   41.60
   4   4  -8  915.21   47.00
   4   4  -8  866.71   48.60
  -4   4   8  931.21   42.80
   4   4  -8  931.11   48.10
  -4   4   8  920.91   38.50
  -4   4   8  829.52   42.50
  -4   4   8  994.20   48.10
   4   4  -8  903.81   49.20
   4   4  -8  872.91   46.20
  -3  -4   8   77.19   17.40
   3  -4  -8   84.59   19.70
   3  -4  -8   62.29   18.90
  -3  -4   8   81.09   19.90
   3  -4  -8   83.59   19.60
   3  -4  -8   67.99   21.80
   3  -4  -8   66.79   20.90
   3  -4  -8   42.70   25.10
  -3  -4   8   92.59   19.30
  -3  -4   8   77.79   14.70
  -3  -4   8   90.79   15.50
  -3  -4   8   48.20   17.50
  -3   4   8   49.99   17.30
   3   4  -8   38.50   18.20
  -3   4   8   82.39   16.40
   3   4  -8   85.69   19.30
   3   4  -8  120.19   24.70
  -3   4   8   96.09   17.20
   3   4  -8  102.39   21.80
   3   4  -8   97.69   17.60
  -3   4   8   93.09    9.30
  -3   4   8   63.59    7.80
   3   4  -8   46.40   18.00
  -3   4   8   54.69   19.30
  -3   4   8   50.79   20.40
  -2  -4   8 1026.80   44.40
   2  -4  -8  989.40   49.70
  -2  -4   8 1014.60   36.70
  -2  -4   8  980.30   35.50
   2  -4  -8  918.01   44.70
   2  -4  -8  904.81   49.30
  -2  -4   8 1006.50   41.30
   2  -4  -8 1038.80   49.99
  -2  -4   8  992.50   44.80
   2  -4  -8  987.90   42.70
   2  -4  -8  937.01   44.00
   2   4  -8  935.01   42.00
   2   4  -8 1006.90   46.30
  -2   4   8  945.01   43.60
  -2   4   8 1016.80   40.70
   2   4  -8 1016.80   43.00
   2   4  -8  978.50   46.70
  -2   4   8  975.70   47.70
  -2   4   8 1058.79   41.00
   2   4  -8  920.41   44.20
   2   4  -8 1066.49   36.80
   2   4  -8 1039.20   47.40
  -2   4   8 1010.80   38.30
  -1  -4   8  178.88   23.10
  -1  -4   8  190.88   12.40
  -1  -4   8  170.68   22.80
  -1  -4   8  176.48   24.30
  -1  -4   8  195.18   21.70
   1  -4  -8  201.08   21.70
   1  -4  -8  206.58   25.00
   1  -4  -8  154.08   24.30
   1  -4  -8  200.88   25.50
  -1  -4   8  192.58   19.20
   1  -4  -8  190.48   23.60
   1  -4  -8  191.18   24.60
   1   4  -8  178.68   21.10
   1   4  -8  157.18   21.10
  -1   4   8  170.48   17.40
   1   4  -8  194.08   24.00
  -1   4   8  187.48   26.00
   1   4  -8  160.18   15.50
  -1   4   8  136.69   16.50
   1   4  -8  181.48   25.40
  -1   4   8  165.18   17.80
  -1   4   8  210.88   17.90
   1   4  -8  166.78   18.40
   1   4  -8  192.38   22.80
  -1   4   8  201.48   20.00
   0  -4   8   52.39   15.70
   0  -4   8   60.19   14.20
   0  -4   8   19.90   15.80
   0  -4  -8   48.40   14.30
   0  -4  -8   48.30   19.10
   0  -4   8   36.10   16.30
   0  -4  -8   30.00   16.60
   0  -4  -8   20.00   15.60
   0  -4  -8   54.09   15.80
   0  -4  -8   30.10   13.70
   0   4   8   19.30   15.70
   0   4  -8   19.90   14.30
   0   4  -8   40.50    6.40
   0   4   8   49.60   11.40
   0   4  -8   12.50   12.40
   0   4   8   34.80   16.60
   0   4  -8   53.99   14.00
   0   4  -8   52.59   13.10
   0   4  -8   50.49   13.90
  -1  -4  -8  137.19   17.60
  -1  -4  -8  149.39   22.90
  -1  -4  -8  133.59   21.70
  -1  -4  -8  152.78   18.30
   1  -4   8  125.59   19.60
   1  -4   8  116.69   21.40
   1  -4   8  136.49   20.60
  -1  -4  -8  146.99   24.80
  -1  -4  -8  132.09   17.60
   1   4   8  171.58   20.20
   1   4   8   96.29   18.60
  -1   4  -8  165.98   17.70
   1   4   8  170.78   27.10
   1   4   8  140.19   15.90
  -1   4  -8  137.69   18.40
  -1   4  -8  142.39   21.10
  -1   4  -8  148.59   19.40
  -1   4  -8  186.28   20.30
  -1   4  -8  135.89   15.90
   1   4   8  165.48   19.90
   2  -4   8   75.09   17.10
  -2  -4  -8   84.49   14.50
   2  -4   8   64.69   17.50
  -2  -4  -8   88.99   18.20
  -2  -4  -8   75.19   18.60
   2  -4   8   54.99   17.50
  -2  -4  -8   46.60   14.30
   2  -4   8   97.89   20.80
  -2  -4  -8   71.89   21.00
  -2   4  -8   88.49   12.10
  -2   4  -8   73.99   17.50
  -2   4  -8   79.39    9.80
   2   4   8  103.09   23.60
   2   4   8   65.39   14.40
  -2   4  -8  109.49   16.80
  -2   4  -8   88.69   11.10
  -2   4  -8   91.49   12.70
  -2   4  -8   81.99   19.60
   3  -4   8  -22.40   16.90
  -3  -4  -8    7.80   10.50
  -3  -4  -8   21.80   13.30
   3  -4   8   20.90   16.50
  -3  -4  -8   26.10   15.50
   3  -4   8    3.20   14.50
  -3  -4  -8   -8.10    9.80
  -3  -4  -8   16.90   21.00
  -3  -4  -8   16.80   12.50
   3  -4   8   -2.10   16.50
  -3   4  -8   34.40   18.80
  -3   4  -8   26.30    7.70
  -3   4  -8    7.00    7.30
  -3   4  -8   16.20   16.90
   3   4   8   19.30   20.00
   3   4   8    5.00   17.40
  -3   4  -8   -6.10    9.40
  -4  -4  -8  585.54   31.90
  -4  -4  -8  607.34   33.00
   4  -4   8  594.44   41.90
   4  -4   8  553.14   36.00
  -4  -4  -8  523.05   26.50
  -4  -4  -8  574.54   27.70
   4  -4   8  578.84   40.30
  -4  -4  -8  629.84   45.90
   4  -4   8  534.55   38.40
  -4   4  -8  586.84   43.70
  -4   4  -8  602.24   25.80
  -4   4  -8  616.14   37.00
   4   4   8  648.74   42.10
  -4   4  -8  570.44   43.30
  -4   4  -8  557.64   23.40
   4   4   8  515.25   45.80
  -5  -4  -8   15.80   10.60
   5  -4   8   24.80   21.80
   5  -4   8   25.50   22.40
  -5  -4  -8   34.90   27.40
   5  -4   8  -14.00   19.50
  -5   4  -8   22.70   23.70
  -5   4  -8   45.90   28.90
   5   4   8    1.20   20.30
   5   4   8   29.50   20.70
  -5   4  -8   23.60   27.40
   7  -5  -8  942.21   73.29
  -7  -5   8  940.71   66.29
  -7  -5   8 1079.09   69.69
  -7  -5   8 1044.20   52.19
  -7  -5   8 1053.89   56.49
  -7  -5   8 1036.60   60.59
   7  -5  -8 1026.60   66.09
   7  -5  -8 1025.70   57.09
  -7   5   8  868.51   65.19
   7   5  -8 1076.59   64.99
  -7   5   8 1002.70   60.59
   7   5  -8 1028.50   74.09
  -7   5   8 1113.09   55.99
   7   5  -8 1123.39   58.99
  -7   5   8 1032.50   54.09
   7   5  -8 1023.30   72.29
   6  -5  -8   21.70   27.40
   6  -5  -8   51.09   31.10
  -6  -5   8  -13.40   19.50
   6  -5  -8  -22.20   22.50
  -6  -5   8  -50.69   20.40
  -6  -5   8   37.30   25.50
  -6  -5   8   16.00   15.70
  -6  -5   8   -6.70   20.00
   6  -5  -8   32.80   22.70
  -6   5   8  -10.70   17.70
   6   5  -8   -4.70   28.10
   6   5  -8    0.50   31.20
  -6   5   8   18.80   22.90
   6   5  -8    1.90   24.20
  -6   5   8  -18.70   19.50
  -6   5   8   22.80   22.30
   6   5  -8  -18.70   18.60
  -5  -5   8 2232.88   66.49
   5  -5  -8 2263.47   88.29
   5  -5  -8 2338.67   89.29
  -5  -5   8 2223.68   78.29
  -5  -5   8 2261.77   80.19
   5  -5  -8 2374.86   84.19
   5  -5  -8 2366.26   84.39
  -5  -5   8 2118.89   76.59
  -5  -5   8 2322.37   84.09
  -5   5   8 2373.96   80.89
   5   5  -8 2298.07   81.39
  -5   5   8 2309.27   86.49
   5   5  -8 2407.36   87.99
   5   5  -8 2320.67   83.29
  -5   5   8 2290.87   69.89
  -5   5   8 2393.36   81.79
  -5   5   8 2401.86   80.39
   5   5  -8 2190.38   87.49
   4  -5  -8   13.80   19.20
  -4  -5   8   34.90   19.00
   4  -5  -8   20.00   22.20
  -4  -5   8   32.80    8.60
  -4  -5   8   45.90   18.40
   4  -5  -8   20.80   18.00
  -4  -5   8   48.30   15.00
   4  -5  -8   48.00   21.50
  -4  -5   8   37.60   16.30
   4   5  -8   21.70   19.40
  -4   5   8   -4.50   15.30
   4   5  -8   64.09   19.10
   4   5  -8   14.90   18.60
  -4   5   8   12.30   15.90
   4   5  -8   24.30   19.80
   4   5  -8   42.60   20.40
  -4   5   8   23.80   19.10
  -4   5   8   12.40   15.60
  -3  -5   8 1186.88   49.80
  -3  -5   8 1174.58   53.09
   3  -5  -8 1263.07   57.59
  -3  -5   8 1265.77   53.79
  -3  -5   8 1217.98   47.10
  -3  -5   8 1275.37   45.70
   3  -5  -8 1267.77   58.29
   3  -5  -8 1268.27   54.89
   3  -5  -8 1288.97   58.19
   3   5  -8 1260.37   51.99
   3   5  -8 1233.48   46.00
  -3   5   8 1297.27   54.69
   3   5  -8 1214.78   54.19
   3   5  -8 1231.08   55.19
   3   5  -8 1289.27   63.49
  -3   5   8 1299.27   49.50
   3   5  -8 1258.67   55.89
  -3   5   8 1205.58   53.69
  -3   5   8 1237.78   33.40
  -3   5   8 1120.09   49.80
   2  -5  -8  672.53   46.10
  -2  -5   8  653.53   41.30
  -2  -5   8  689.33   30.50
   2  -5  -8  595.84   40.10
   2  -5  -8  772.12   44.70
   2  -5  -8  718.93   40.40
  -2  -5   8  735.93   40.00
   2  -5  -8  694.33   41.20
   2  -5  -8  760.02   50.49
  -2  -5   8  766.62   33.40
   2   5  -8  685.93   41.60
  -2   5   8  778.72   43.60
   2   5  -8  714.23   40.90
  -2   5   8  662.73   35.80
   2   5  -8  667.43   38.40
  -2   5   8  678.93   39.10
   2   5  -8  765.92   45.10
   2   5  -8  753.72   28.50
   2   5  -8  713.63   39.90
   2   5  -8  767.42   39.50
  -2   5   8  753.42   39.10
  -2   5   8  700.83   33.20
  -1  -5   8   80.39    9.10
  -1  -5   8   60.89   18.10
  -1  -5   8   53.29   18.40
   1  -5  -8   81.89   18.30
  -1  -5   8  103.79   20.60
   1  -5  -8   84.49   21.50
   1  -5  -8   53.79   20.60
   1  -5  -8   84.49   21.30
   1  -5  -8   72.69   16.60
   1  -5  -8  118.09   24.50
  -1  -5   8  103.99   15.40
  -1   5   8   59.09   18.60
  -1   5   8   90.29   15.00
   1   5  -8   71.79   16.00
  -1   5   8   93.29   13.70
   1   5  -8   67.79   18.10
  -1   5   8   70.69   12.00
   1   5  -8   84.99   17.20
   1   5  -8   64.89   16.20
  -1   5   8  103.29   14.80
   1   5  -8   75.29   19.30
   0  -5  -8  883.61   40.90
   0  -5   8  923.71   45.80
   0  -5  -8  905.41   45.10
   0  -5   8  877.11   46.80
   0  -5  -8  882.91   49.80
   0  -5  -8  919.51   47.30
   0  -5   8 1012.70   44.20
   0  -5  -8  910.61   55.59
   0  -5  -8  862.91   42.90
   0  -5   8  865.21   43.30
   0   5   8  939.81   26.30
   0   5  -8  938.01   39.00
   0   5  -8  886.31   39.50
   0   5   8  867.21   37.10
   0   5  -8  883.71   42.40
   0   5  -8  924.81   45.10
   0   5   8  954.70   40.80
   0   5   8  915.91   49.10
   0   5  -8  813.02   46.00
   1  -5   8  113.89   19.10
  -1  -5  -8  146.69   19.20
   1  -5   8  114.89   20.20
  -1  -5  -8  132.49   21.80
  -1  -5  -8  125.09   25.20
   1  -5   8  160.38   23.90
  -1  -5  -8  110.09   17.50
  -1   5  -8  126.99   17.10
  -1   5  -8  133.69   16.30
  -1   5  -8  130.49   16.70
  -1   5  -8  146.39   23.90
   1   5   8  127.09   25.10
  -1   5  -8  134.09   21.50
   1   5   8  148.99   21.60
   2  -5   8  422.56   39.50
   2  -5   8  528.95   37.30
   2  -5   8  545.15   37.20
  -2  -5  -8  526.55   42.40
  -2  -5  -8  454.15   33.30
  -2  -5  -8  518.35   35.20
   2  -5   8  524.35   34.30
  -2  -5  -8  548.25   31.00
  -2  -5  -8  503.75   30.00
  -2   5  -8  504.35   27.30
   2   5   8  553.54   42.70
  -2   5  -8  552.54   38.10
   2   5   8  562.74   41.40
   2   5   8  589.04   36.20
  -2   5  -8  496.55   27.30
  -2   5  -8  489.15   37.40
   2   5   8  578.44   31.10
  -2   5  -8  527.55   32.00
  -2   5  -8  517.65   21.80
  -3  -5  -8  643.54   34.70
  -3  -5  -8  710.23   49.50
  -3  -5  -8  610.34   32.40
   3  -5   8  710.63   41.80
   3  -5   8  648.44   40.70
  -3  -5  -8  669.83   36.50
   3  -5   8  659.53   38.50
   3  -5   8  677.03   39.70
  -3   5  -8  620.54   43.30
   3   5   8  587.34   39.90
  -3   5  -8  666.33   45.50
  -3   5  -8  671.03   28.60
  -3   5  -8  638.84   28.20
  -3   5  -8  620.54   32.90
  -4  -5  -8  241.48   25.00
  -4  -5  -8  270.57   24.80
  -4  -5  -8  285.37   35.60
   4  -5   8  296.87   34.70
   4  -5   8  245.68   32.10
  -4  -5  -8  295.37   30.10
   4  -5   8  228.68   28.70
   4  -5   8  185.98   23.60
  -4   5  -8  218.38   34.30
  -4   5  -8  318.37   35.80
  -4   5  -8  190.38   17.60
   4   5   8  247.98   35.80
  -4   5  -8  246.48   16.10
  -4   5  -8  265.87   33.10
   4   5   8  205.78   29.30
   5  -5   8  929.71   50.69
   5  -5   8  915.61   54.69
  -5  -5  -8  976.00   68.69
  -5  -5  -8  968.10   40.70
   5  -5   8  933.01   50.09
  -5   5  -8 1021.10   57.59
   5   5   8  890.51   62.89
   5   5   8  904.21   55.79
  -5   5  -8  857.21   66.09
  -7  -6   8   -2.60   23.70
   7  -6  -8    2.10   24.90
   7  -6  -8   31.40   32.30
  -7  -6   8  -56.39   27.70
   7  -6  -8  -21.30   37.50
   7  -6  -8  -45.30   30.70
  -7  -6   8  -12.70   50.59
  -7  -6   8   25.60   32.20
  -7  -6   8  -12.60   26.60
   7   6  -8    6.20   28.50
  -7   6   8  -20.40   24.90
   7   6  -8   27.10   27.40
  -7   6   8  -34.50   35.40
   7   6  -8   -2.80   29.10
  -7   6   8   10.80   27.80
   7   6  -8  -28.10   37.90
   6  -6  -8  275.37   32.50
   6  -6  -8  228.18   40.70
  -6  -6   8  215.88   34.30
  -6  -6   8  184.38   28.90
  -6  -6   8  231.68   36.10
  -6  -6   8  205.48   29.70
  -6  -6   8  224.28   24.60
   6  -6  -8  281.87   64.69
   6  -6  -8  234.68   40.80
  -6   6   8  228.08   29.20
   6   6  -8  257.97   38.70
  -6   6   8  197.08   36.00
  -6   6   8  215.48   33.90
   6   6  -8  209.18   31.30
   6   6  -8  185.88   42.20
  -6   6   8  260.37   39.90
   6   6  -8  274.67   41.20
  -6   6   8  163.48   25.20
  -5  -6   8  289.47   34.50
  -5  -6   8  217.98   26.80
   5  -6  -8  241.28   33.40
  -5  -6   8  226.58   25.40
  -5  -6   8  245.58   30.70
   5  -6  -8  269.77   32.60
   5  -6  -8  225.18   38.50
   5  -6  -8  186.38   34.10
  -5  -6   8  225.98   27.90
   5   6  -8  233.08   37.20
   5   6  -8  207.68   36.30
  -5   6   8  206.58   30.00
   5   6  -8  266.87   31.70
   5   6  -8  252.07   33.00
  -5   6   8  235.48   23.40
  -5   6   8  207.98   31.70
  -5   6   8  238.78   28.20
  -5   6   8  222.88   28.80
   4  -6  -8  107.49   30.10
  -4  -6   8  100.19   15.60
  -4  -6   8  120.49   21.20
  -4  -6   8  108.19   25.20
   4  -6  -8   92.19   26.50
  -4  -6   8  107.29   18.20
  -4  -6   8  114.99   22.20
  -4  -6   8  132.99   15.60
   4  -6  -8  132.59   25.50
   4  -6  -8  113.49   24.50
   4   6  -8   87.49   22.00
  -4   6   8   89.99   22.10
   4   6  -8  114.19   25.40
  -4   6   8   92.69   24.60
  -4   6   8  107.69   23.60
   4   6  -8  112.19   25.00
  -4   6   8   97.39   22.40
   4   6  -8  122.19   27.70
  -4   6   8  109.99   22.40
  -3  -6   8  924.81   25.90
  -3  -6   8  982.90   42.20
   3  -6  -8  970.60   52.79
  -3  -6   8  918.91   46.40
  -3  -6   8  854.11   46.30
  -3  -6   8  916.01   26.70
  -3  -6   8  965.20   43.40
   3  -6  -8  928.81   52.39
  -3  -6   8  980.70   47.30
   3  -6  -8  842.22   52.59
   3  -6  -8  877.21   47.40
   3   6  -8  886.21   50.39
  -3   6   8  929.61   49.10
   3   6  -8  905.21   48.50
   3   6  -8  903.81   46.50
   3   6  -8  890.01   49.00
   3   6  -8  901.71   51.49
  -3   6   8  965.90   44.20
  -3   6   8  992.90   50.39
  -3   6   8  936.31   47.10
  -3   6   8  917.11   28.80
   2  -6  -8   39.30   19.90
   2  -6  -8   20.70   17.00
  -2  -6   8   33.20   11.90
  -2  -6   8   62.29   18.30
  -2  -6   8   55.19   16.70
   2  -6  -8   41.00   20.30
   2  -6  -8   43.40   18.90
  -2  -6   8   60.39   20.40
   2   6  -8   42.80   26.70
   2   6  -8   53.99   18.00
   2   6  -8   39.90   18.00
  -2   6   8   16.40   14.00
   2   6  -8   25.30   18.00
   2   6  -8   30.80   18.40
  -2   6   8   32.00   17.40
   2   6  -8   54.79   18.20
  -2   6   8   24.40   21.70
  -2   6   8   75.19   18.00
  -2   6   8   47.60   17.50
   1  -6  -8  868.21   52.89
   1  -6  -8  925.61   45.30
  -1  -6   8  943.41   49.90
  -1  -6   8  922.81   31.60
  -1  -6   8  918.21   31.20
  -1  -6   8  853.91   46.90
   1  -6  -8  922.11   48.20
  -1  -6   8  922.11   40.50
  -1  -6   8  955.70   46.00
   1  -6  -8  967.30   46.00
   1  -6  -8  899.31   52.79
  -1   6   8  908.31   49.10
   1   6  -8 1044.80   51.69
  -1   6   8  946.91   40.40
  -1   6   8  911.51   36.60
  -1   6   8  933.81   34.50
   1   6  -8  882.91   47.30
   1   6  -8  900.11   44.00
  -1   6   8  924.31   45.00
   1   6  -8  941.41   46.60
   1   6  -8  875.51   42.60
   0  -6   8   34.50   17.50
   0  -6   8    6.00   11.90
   0  -6  -8   27.00   18.10
   0  -6  -8    3.60   18.60
   0  -6  -8   50.79   17.40
   0  -6   8   19.80   16.20
   0  -6  -8   15.20   14.90
   0  -6   8   10.40   15.10
   0  -6  -8    9.00   21.70
   0   6  -8   17.40   14.00
   0   6  -8   -1.50   17.20
   0   6  -8   40.80   14.80
   0   6   8   -5.90    9.30
   0   6  -8   15.00   16.80
   0   6   8   29.60   15.90
   0   6  -8   28.70   18.70
   0   6   8   22.00   17.40
   0   6   8   26.40   13.90
   0   6   8   16.30   18.10
  -1  -6  -8 1501.75   66.79
  -1  -6  -8 1438.26   54.69
   1  -6   8 1409.86   60.59
  -1  -6  -8 1381.26   58.89
  -1  -6  -8 1358.66   54.99
   1  -6   8 1472.75   60.09
   1  -6   8 1449.65   42.60
   1  -6   8 1320.47   54.59
  -1  -6  -8 1470.25   59.29
   1   6   8 1447.36   50.59
  -1   6  -8 1494.95   51.59
  -1   6  -8 1450.05   59.49
  -1   6  -8 1459.95   53.69
  -1   6  -8 1453.95   52.99
   1   6   8 1355.06   63.89
   1   6   8 1489.45   56.19
  -1   6  -8 1415.06   59.99
   2  -6   8  145.29   23.90
   2  -6   8   83.89   19.80
  -2  -6  -8  149.59   22.60
  -2  -6  -8  120.79   19.00
  -2  -6  -8  156.68   21.30
  -2  -6  -8  136.09   29.00
   2  -6   8  186.28   26.90
   2   6   8  127.29   26.20
  -2   6  -8  134.39   24.20
  -2   6  -8  160.38   18.70
  -2   6  -8  111.59   25.50
  -2   6  -8  162.98   18.90
   2   6   8  135.89   19.70
  -2   6  -8  153.78   16.80
   2   6   8  150.48   25.10
  -2   6  -8  144.89   18.60
   3  -6   8 1155.78   52.39
  -3  -6  -8 1193.78   48.60
  -3  -6  -8 1171.48   49.50
  -3  -6  -8 1248.88   67.39
   3  -6   8 1177.18   54.29
  -3  -6  -8 1272.87   51.09
   3  -6   8 1264.77   57.39
   3  -6   8 1249.18   55.49
  -3   6  -8 1259.27   64.89
   3   6   8 1096.79   63.29
  -3   6  -8 1237.48   46.60
  -3   6  -8 1204.78   44.10
   3   6   8 1219.78   56.09
  -3   6  -8 1136.09   46.10
  -3   6  -8 1144.79   59.39
   4  -6   8   31.20   21.80
   4  -6   8   75.69   23.90
  -4  -6  -8   51.69   25.30
   4  -6   8   45.00   20.90
  -4  -6  -8   41.10   20.30
  -4  -6  -8   64.09   33.50
   4  -6   8   69.99   21.80
  -4  -6  -8   55.29   20.00
  -4   6  -8   61.29   34.80
   4   6   8   62.29   26.00
   4   6   8   62.49   23.70
  -4   6  -8   45.50   21.20
  -4   6  -8   15.60   27.40
  -4   6  -8   62.89   12.10
   6  -7  -8   53.49   36.60
  -6  -7   8   12.40   24.00
  -6  -7   8   45.10   21.40
   6  -7  -8   20.60   27.70
   6  -7  -8  -37.60   29.20
  -6  -7   8    7.70   32.00
  -6  -7   8   21.40   25.40
   6  -7  -8  -58.49   24.10
   6   7  -8  -16.40   28.80
  -6   7   8  -11.50   30.30
  -6   7   8    5.40   29.60
   6   7  -8  -16.00   26.60
   6   7  -8  -11.60   25.40
  -6   7   8  -17.60   21.10
  -6   7   8   -2.90   24.90
  -6   7   8   15.30   32.40
   6   7  -8   51.79   21.80
   5  -7  -8  572.54   58.09
   5  -7  -8  564.94   51.29
  -5  -7   8  617.64   43.30
   5  -7  -8  531.05   51.79
  -5  -7   8  605.64   43.30
  -5  -7   8  598.94   47.90
  -5  -7   8  547.95   47.40
   5  -7  -8  534.65   56.69
  -5   7   8  580.64   55.89
  -5   7   8  564.54   50.09
  -5   7   8  540.05   43.00
   5   7  -8  437.36   52.99
   5   7  -8  543.55   51.59
  -5   7   8  528.35   35.60
   5   7  -8  645.64   47.80
   5   7  -8  562.44   38.10
  -5   7   8  581.74   50.89
   5   7  -8  597.94   54.59
  -4  -7   8  507.75   39.00
   4  -7  -8  500.65   47.60
   4  -7  -8  529.35   55.79
  -4  -7   8  518.25   33.90
  -4  -7   8  484.15   38.00
  -4  -7   8  479.45   46.00
   4  -7  -8  474.05   48.20
   4  -7  -8  510.95   52.19
  -4   7   8  415.36   41.70
  -4   7   8  507.55   41.90
  -4   7   8  499.05   31.60
   4   7  -8  491.85   42.10
   4   7  -8  475.45   52.09
   4   7  -8  485.55   44.70
   4   7  -8  570.24   52.89
  -4   7   8  506.05   44.50
  -4   7   8  572.84   43.10
   4   7  -8  503.45   36.90
  -3  -7   8  177.48   26.10
   3  -7  -8  204.88   33.20
  -3  -7   8  225.28   28.60
  -3  -7   8  174.38   21.50
   3  -7  -8  186.98   32.50
  -3  -7   8  171.68   27.90
   3  -7  -8  201.58   29.60
   3  -7  -8  241.88   33.60
  -3  -7   8  220.78   23.90
   3   7  -8  187.78   30.20
   3   7  -8  205.88   30.00
   3   7  -8  188.88   29.00
  -3   7   8  204.08   25.90
   3   7  -8  184.38   28.60
   3   7  -8  221.38   28.30
  -3   7   8  183.98   27.20
  -3   7   8  217.78   26.00
  -3   7   8  190.38   17.20
  -3   7   8  182.58   29.10
   2  -7  -8 1533.05   72.19
  -2  -7   8 1607.74   62.39
   2  -7  -8 1593.84   68.09
  -2  -7   8 1564.04   53.39
  -2  -7   8 1683.23   63.09
  -2  -7   8 1597.24   63.89
   2  -7  -8 1549.45   63.89
  -2  -7   8 1544.35   69.69
   2  -7  -8 1548.65   68.49
   2   7  -8 1619.94   67.49
   2   7  -8 1681.03   70.19
  -2   7   8 1639.54   67.49
  -2   7   8 1582.74   59.09
   2   7  -8 1601.54   66.89
   2   7  -8 1632.14   63.19
  -2   7   8 1545.55   57.29
  -2   7   8 1554.54   63.69
   1  -7  -8   70.99   22.50
  -1  -7   8   70.19   19.80
  -1  -7   8   68.69   11.80
  -1  -7   8   80.49   22.40
  -1  -7   8   42.70   15.10
   1  -7  -8   41.80   20.40
  -1  -7   8   27.70   12.90
   1  -7  -8   66.59   20.00
   1  -7  -8   49.70   25.10
  -1   7   8   53.29   15.40
  -1   7   8   21.90   20.90
  -1   7   8   23.80   20.30
   1   7  -8   36.60   17.50
   1   7  -8   63.19   28.30
   1   7  -8   36.10   20.40
   1   7  -8   47.50   20.60
  -1   7   8   63.19   13.20
   1   7  -8   47.60   18.80
  -1   7   8   30.00   18.40
   0  -7   8 2238.78   78.49
   0  -7  -8 2247.38   79.99
   0  -7   8 2262.17   68.89
   0  -7  -8 2276.77   79.09
   0  -7   8 2235.98   79.39
   0  -7  -8 2307.97   77.29
   0  -7  -8 2289.47   89.99
   0  -7   8 2189.48   82.49
   0   7  -8 2265.57   82.19
   0   7   8 2167.28   82.49
   0   7  -8 2288.27   81.29
   0   7   8 1986.00   84.09
   0   7  -8 2338.07   77.59
   0   7   8 2432.06   82.69
   0   7   8 2297.17   62.69
   0   7  -8 2334.67   74.49
  -1  -7  -8   33.70   26.50
  -1  -7  -8   49.40   18.00
   1  -7   8   53.69   19.40
  -1  -7  -8   49.60   20.20
   1  -7   8   20.40   18.20
   1  -7   8   56.49   16.90
   1  -7   8   28.70   17.90
  -1  -7  -8   54.49   21.40
  -1   7  -8   44.50   21.40
  -1   7  -8   39.40   16.40
  -1   7  -8   40.10   15.80
   1   7   8   51.89   22.10
  -1   7  -8   41.60   23.40
   1   7   8   40.80   17.00
   1   7   8   23.20   19.80
  -2  -7  -8 1355.96   56.49
   2  -7   8 1370.06   58.79
  -2  -7  -8 1409.46   58.89
  -2  -7  -8 1321.47   55.79
   2  -7   8 1379.56   62.99
  -2  -7  -8 1406.36   73.29
   2  -7   8 1467.35   60.19
   2   7   8 1423.76   70.39
  -2   7  -8 1358.96   67.39
   2   7   8 1386.26   59.29
  -2   7  -8 1470.85   66.49
  -2   7  -8 1393.66   54.89
  -2   7  -8 1330.97   52.49
  -3  -7  -8  297.17   33.20
   3  -7   8  155.48   26.10
   3  -7   8  224.68   30.10
  -3  -7  -8  234.68   39.10
  -3  -7  -8  207.28   25.00
  -3  -7  -8  239.58   28.50
   3  -7   8  273.87   34.60
  -3   7  -8  255.07   30.00
  -3   7  -8  203.98   23.00
   3   7   8  265.87   38.40
   3   7   8  232.68   31.20
  -3   7  -8  253.97   24.80
  -3   7  -8  180.58   34.30
   4  -7   8  232.08   31.40
  -4  -7  -8  277.27   32.20
   4  -7   8  246.48   29.70
  -4   7  -8  303.87   30.90
   4   7   8  360.56   40.20
   4   7   8  225.28   38.20
  -4   7  -8  297.67   39.70
  -4   7  -8  335.27   41.40
  -5  -8   8   21.90   22.30
   5  -8  -8   -2.10   32.80
  -5  -8   8   33.90   22.20
   5  -8  -8  -15.80   28.70
   5  -8  -8  -11.40   25.40
  -5  -8   8   42.10   33.60
  -5   8   8   16.20   19.40
   5   8  -8   21.30   29.50
   5   8  -8   30.60   33.80
   5   8  -8   -8.10   21.60
   5   8  -8   23.60   30.50
   5   8  -8   15.10   27.90
  -5   8   8    2.50   30.90
  -5   8   8  102.09   25.30
  -5   8   8  -43.70   34.00
  -5   8   8   21.50   25.90
   4  -8  -8  930.61   65.79
   4  -8  -8  928.51   58.69
  -4  -8   8  803.62   49.50
  -4  -8   8  904.51   52.89
   4  -8  -8  874.01   64.99
  -4  -8   8  771.32   41.30
   4  -8  -8  955.80   65.19
  -4  -8   8  941.21   57.89
  -4   8   8  937.91   49.70
  -4   8   8  904.51   61.19
  -4   8   8  887.41   54.39
   4   8  -8  888.71   56.69
  -4   8   8  889.61   58.09
   4   8  -8  818.52   56.89
   4   8  -8  827.82   63.89
   4   8  -8  937.21   64.29
  -4   8   8  853.51   40.70
   3  -8  -8   88.89   28.30
   3  -8  -8   50.79   31.60
  -3  -8   8   35.80   24.50
  -3  -8   8   11.00   19.00
  -3  -8   8   77.69   17.50
   3  -8  -8   61.19   29.20
  -3  -8   8   69.29   20.80
   3  -8  -8  108.39   29.80
  -3  -8   8   27.10   21.20
   3   8  -8   55.49   24.90
  -3   8   8   74.29   23.40
   3   8  -8   83.49   29.40
   3   8  -8   68.09   23.30
  -3   8   8   73.09   22.50
  -3   8   8   60.19   27.80
  -3   8   8   90.99   26.70
   3   8  -8   41.80   25.50
   3   8  -8   50.79   27.50
  -3   8   8   59.19   22.20
  -2  -8   8  216.28   30.80
   2  -8  -8  248.08   38.30
   2  -8  -8  285.37   33.60
  -2  -8   8  286.07   28.60
   2  -8  -8  267.87   36.40
   2  -8  -8  272.77   37.80
  -2  -8   8  202.48   26.30
  -2  -8   8  239.38   29.20
  -2   8   8  269.27   16.40
   2   8  -8  232.88   35.20
  -2   8   8  255.57   31.20
   2   8  -8  222.68   32.50
  -2   8   8  225.58   32.20
   2   8  -8  233.38   32.60
  -2   8   8  277.27   32.80
   2   8  -8  219.28   31.00
  -1  -8   8  321.97   37.70
  -1  -8   8  406.06   36.00
   1  -8  -8  309.37   33.40
   1  -8  -8  381.96   43.80
   1  -8  -8  428.86   53.19
  -1  -8   8  342.77   24.00
   1  -8  -8  355.16   48.80
   1  -8  -8  363.76   44.90
  -1  -8   8  407.86   35.50
   1   8  -8  367.06   42.50
   1   8  -8  388.96   47.60
  -1   8   8  320.27   37.60
   1   8  -8  347.97   35.60
  -1   8   8  399.06   39.80
  -1   8   8  411.46   31.10
   1   8  -8  356.46   41.40
   0  -8   8   -5.70   17.00
   0  -8   8   -6.10   17.30
   0  -8  -8    9.20   21.70
   0  -8  -8   34.00   19.40
   0  -8  -8   18.40   22.60
   0  -8   8    1.10   17.20
   0  -8  -8    2.60   28.10
   0  -8   8   -7.70   15.80
   0   8  -8   18.10   23.90
   0   8   8   26.20   20.20
   0   8  -8   -9.20   19.00
   0   8  -8   -7.50   16.90
   0   8   8    9.30   22.80
   0   8   8   17.40   14.60
   0   8  -8    6.80   22.80
  -1  -8  -8  186.58   37.30
   1  -8   8  170.08   26.80
  -1  -8  -8  196.88   26.70
  -1  -8  -8  199.68   29.50
  -1  -8  -8  210.38   29.10
   1  -8   8  226.28   27.60
   1  -8   8  250.47   30.70
   1   8   8  220.58   27.00
  -1   8  -8  214.58   34.30
   1   8   8  203.88   34.00
  -1   8  -8  203.98   25.20
   1   8   8  259.67   32.60
  -1   8  -8  248.58   31.60
  -1   8  -8  190.98   33.50
  -2  -8  -8   47.30   23.50
  -2  -8  -8   14.70   20.60
   2  -8   8   45.20   19.50
   2  -8   8   96.89   25.60
  -2  -8  -8   75.19   22.10
  -2  -8  -8   48.70   48.10
   2  -8   8   64.39   23.50
  -2   8  -8   70.79   20.50
  -2   8  -8  107.69   23.10
   2   8   8   86.49   26.00
  -2   8  -8   76.69   34.90
  -2   8  -8   24.80   32.10
   2   8   8   70.89   23.00
  -3  -8  -8  149.29   37.70
   3  -8   8  151.48   26.80
  -3  -8  -8  154.18   27.50
  -3  -8  -8  205.18   30.00
   3  -8   8  165.98   29.00
  -3   8  -8  181.98   33.40
   3   8   8  149.19   28.70
  -3   8  -8  164.08   24.50
  -3   8  -8  182.28   28.90
  -3   8  -8  168.38   26.70
  -3   8  -8  145.19   55.19
   3   8   8  164.98   36.10
   4  -9  -8   -7.60   31.90
   4  -9  -8   65.69   32.80
   4  -9  -8   -3.10   30.00
  -4  -9   8   30.30   29.00
  -4  -9   8   86.79   20.60
   4  -9  -8   54.59   29.00
  -4  -9   8   46.90   28.90
  -4  -9   8    7.90   24.80
  -4   9   8   62.99   20.00
   4   9  -8   39.90   28.10
  -4   9   8   87.29   50.89
  -4   9   8   27.20   32.40
   4   9  -8  -19.00   25.50
   4   9  -8   -2.10   27.20
  -4   9   8   64.09   24.30
  -4   9   8   33.70   27.10
   4   9  -8   64.59   30.50
  -3  -9   8 1083.39   56.59
  -3  -9   8 1205.18   64.39
   3  -9  -8 1049.00   75.89
  -3  -9   8 1072.99   62.79
   3  -9  -8 1070.59   98.89
   3   9  -8 1138.79   69.99
  -3   9   8 1136.29   60.09
  -3   9   8 1197.28   59.29
   3   9  -8 1161.78   68.59
   3   9  -8  989.60  104.99
   3   9  -8 1103.19   64.59
  -3   9   8 1169.58   65.89
  -3   9   8 1108.79   46.20
  -2  -9   8  345.07   42.90
   2  -9  -8  376.86   38.70
  -2  -9   8  402.86   44.20
  -2  -9   8  440.26   40.30
   2  -9  -8  409.06   45.10
   2  -9  -8  441.16   54.79
  -2  -9   8  410.46   34.70
   2  -9  -8  345.07   40.30
   2   9  -8  381.76   44.00
   2   9  -8  356.46   40.20
  -2   9   8  365.66   47.70
  -2   9   8  437.96   42.60
  -2   9   8  497.75   43.10
   2   9  -8  380.56   62.79
  -1  -9   8  151.78   19.00
   1  -9  -8  115.59   24.20
  -1  -9   8  160.98   28.90
  -1  -9   8  114.79   27.90
  -1  -9   8  134.09   27.90
   1  -9  -8  183.18   35.30
   1  -9  -8  165.18   37.30
  -1   9   8  124.49   28.40
  -1   9   8  117.59   26.50
   1   9  -8  128.69   25.80
  -1   9   8  157.68   23.30
   1   9  -8   95.29   38.90
   1   9  -8  165.48   37.70
   0  -9  -8  475.35   49.40
   0  -9   8  375.16   38.80
   0  -9  -8  399.26   43.20
   0  -9   8  414.36   42.90
   0  -9  -8  345.17   72.89
   0  -9   8  366.76   54.19
   0  -9  -8  335.47   64.29
   0   9   8  340.77   42.70
   0   9   8  394.16   32.00
   0   9   8  419.46   45.90
   0   9  -8  348.57   65.89
   0   9  -8  413.96   40.70
   0   9  -8  422.56   45.50
   0   9  -8  367.46   56.39
  -1  -9  -8  144.79   32.40
   1  -9   8  101.89   31.80
   1  -9   8  125.29   25.70
  -1  -9  -8  216.88   31.50
   1  -9   8  171.38   26.40
  -1  -9  -8  130.79   26.80
  -1  -9  -8  153.68   34.60
   1   9   8  208.18   27.50
  -1   9  -8  218.48   49.99
  -1   9  -8  169.88   31.50
  -1   9  -8  166.38   39.40
   1   9   8  165.08   31.60
  -1   9  -8  119.89   26.90
   2  -9   8   61.09   22.70
  -2  -9  -8   48.80   24.30
   2  -9   8   70.89   25.30
  -2  -9  -8   40.70   33.10
   2  -9   8   48.50   25.60
  -2  -9  -8   28.30   30.20
  -2   9  -8   62.89   24.10
  -2   9  -8   54.09   34.30
  -2   9  -8   93.69   29.90
  -2   9  -8   75.89   24.20
   2   9   8   54.89   22.80
   2   9   8   91.89   30.50
  -3 -10   8  440.76   46.90
   3 -10  -8  449.56   47.70
  -3 -10   8  447.26   49.00
   3 -10  -8  399.86   48.50
   3 -10  -8  446.16   56.79
   3 -10  -8  464.55   43.30
   3 -10  -8  410.16   49.00
  -3 -10   8  458.95   48.70
   3  10  -8  457.85   54.49
  -3  10   8  412.16   47.60
  -3  10   8  453.85   48.80
  -3  10   8  411.16   49.90
   3  10  -8  452.25   57.39
   3  10  -8  404.86   42.50
   3  10  -8  462.65   49.30
  -2 -10   8   71.39   31.50
   2 -10  -8   89.79   28.60
  -2 -10   8   82.79   35.10
  -2 -10   8   63.69   23.40
  -2 -10   8   52.69   26.60
   2 -10  -8   40.20   22.50
   2 -10  -8  101.49   36.70
   2 -10  -8   93.09   36.20
   2 -10  -8  115.19   33.20
  -2  10   8   77.69   31.20
  -2  10   8   80.29   27.20
  -2  10   8   87.99   24.80
   2  10  -8   20.50   34.60
   2  10  -8  101.89   31.20
   2  10  -8   46.30   31.40
   2  10  -8  138.29   34.20
  -1 -10   8  791.12   75.69
   1 -10  -8  711.23   81.19
   1 -10  -8  744.53   58.49
  -1 -10   8  755.32   38.70
   1 -10  -8  763.12   66.89
  -1 -10   8  764.52   55.39
   1 -10  -8  729.63   59.79
   1 -10  -8  900.41   49.70
  -1  10   8  729.53   60.99
   1  10  -8  842.92   62.89
   1  10  -8  845.02   60.09
  -1  10   8  732.73   52.99
   1  10  -8  925.21   67.29
   1  10  -8  821.02   57.49
  -1  10   8  786.12   53.49
   0 -10   8   64.09   24.30
   0 -10  -8   49.00   31.60
   0 -10  -8   33.00   49.00
   0 -10   8   16.00   21.90
   0 -10  -8    0.50   28.20
   0  10  -8   -2.20   32.10
   0  10   8    7.20   24.20
   0  10   8   53.39   20.70
   0  10  -8   50.49   28.30
   0  10  -8   11.30   24.00
   0  10   8   88.99   34.30
   0  10  -8   72.29   28.00
  -8   0   9  -26.30   36.20
  -8   0   9  -34.80   28.70
   8   0  -9  -29.90   33.00
   8   0  -9    8.60   24.80
   8   0  -9   -8.80   28.20
  -8   0   9   10.40   26.10
  -8   0   9   47.00   28.50
   8   0  -9  -37.50   58.99
  -7   0   9  464.75   54.49
  -7   0   9  464.45   54.69
  -7   0   9  453.55   39.10
  -7   0   9  533.85   50.29
   7   0  -9  434.36   43.50
   7   0  -9  373.66   42.40
   7   0  -9  436.96   49.00
  -7   0   9  416.66   42.20
   7   0  -9  433.56   53.89
   6   0  -9   10.50   23.10
  -6   0   9   -8.30   14.60
  -6   0   9   27.60   22.10
   6   0  -9  -15.10   23.50
  -6   0   9   22.30   22.20
   6   0  -9   -2.20   23.60
   6   0  -9    1.90   23.20
  -6   0   9  -19.50   16.80
  -6   0   9   16.60   23.40
   5   0  -9  918.01   49.30
  -5   0   9  849.41   50.99
   5   0  -9  924.71   52.29
  -5   0   9  922.61   37.80
   5   0  -9  893.61   53.59
   5   0  -9  939.41   50.89
  -5   0   9  867.81   50.39
  -5   0   9  966.30   49.99
  -5   0   9  956.80   44.60
  -5   0   9  847.52   44.30
  -4   0   9  -11.60   21.10
  -4   0   9    6.40   13.00
   4   0  -9    5.00   17.30
   4   0  -9   -9.50   15.50
  -4   0   9   28.00   17.50
  -4   0   9    1.90   12.60
   4   0  -9  -10.50   17.40
  -4   0   9   -5.50   15.70
   4   0  -9  -14.20   18.70
  -4   0   9   -9.10    7.80
   3   0  -9 1616.74   65.49
   3   0  -9 1584.34   60.79
  -3   0   9 1581.24   52.29
  -3   0   9 1833.22   67.69
   3   0  -9 1635.84   62.09
  -3   0   9 1640.44   62.49
   3   0  -9 1635.24   65.89
  -3   0   9 1516.95   64.69
   3   0  -9 1642.84   60.89
  -3   0   9 1653.03   53.69
   2   0  -9   -3.50   13.30
   2   0  -9   16.80   16.30
  -2   0   9   -3.70   11.00
  -2   0   9  -17.70   13.60
   2   0  -9   -4.20   12.00
  -2   0   9   -4.00   15.30
  -2   0   9   -5.50    9.20
   2   0  -9   28.10   18.50
  -2   0   9    6.80    9.20
   2   0  -9    8.80   13.90
  -1   0   9 2328.57   73.69
   1   0  -9 2317.87   72.99
  -1   0   9 2380.46   83.29
   1   0  -9 2334.67   79.09
   1   0  -9 2360.16   76.59
   1   0  -9 2316.47   70.09
   1   0  -9 2348.07   73.69
   1   0  -9 2276.17   79.69
   0   0  -9    7.10   10.90
   0   0   9    3.00   11.90
   0   0  -9    3.40   11.80
   0   0   9   -1.00    8.20
   0   0  -9  -18.00   15.30
   0   0  -9   -8.10   18.00
   0   0  -9    6.90   12.60
   0   0  -9   33.10   18.40
   0   0  -9    2.20   10.90
   0   0   9    8.30   15.50
   0   0   9    1.70    7.00
  -1   0  -9 1196.58   52.09
  -1   0  -9 1305.97   41.50
   1   0   9 1221.98   44.60
  -1   0  -9 1175.28   40.70
   1   0   9 1185.48   56.99
  -1   0  -9 1239.08   33.40
   1   0   9 1123.59   43.00
  -1   0  -9 1233.78   46.00
  -1   0  -9 1172.48   52.19
  -1   0  -9 1240.78   33.10
  -1   0  -9 1224.48   40.20
  -1   0  -9 1157.78   42.40
  -2   0  -9   13.60   18.20
  -2   0  -9    6.40    8.70
   2   0   9  -15.50   16.90
  -2   0  -9   11.10   18.90
  -2   0  -9    0.60    8.00
  -2   0  -9   10.60   13.20
   2   0   9   -1.70   16.40
  -2   0  -9   25.40   12.90
  -2   0  -9   -8.10    7.20
  -2   0  -9    6.80   13.40
  -2   0  -9   11.50    6.90
   2   0   9   26.70   15.30
  -3   0  -9  747.13   27.00
  -3   0  -9  684.53   36.00
   3   0   9  695.43   42.10
   3   0   9  803.62   36.90
   3   0   9  686.33   46.40
  -3   0  -9  771.92   47.50
  -3   0  -9  718.13   43.60
  -3   0  -9  734.83   36.20
  -4   0  -9   26.60   19.70
  -4   0  -9   37.70   16.70
   4   0   9   -5.80   17.60
  -4   0  -9  -11.20   19.50
   4   0   9  -17.50   19.50
  -4   0  -9  -47.90   17.10
  -4   0  -9   13.10   15.60
  -4   0  -9   18.60   19.10
  -5   0  -9   41.20   24.70
   5   0   9  -21.10   20.50
  -5   0  -9   19.00   24.70
   5   0   9   -6.00   22.90
  -5   0  -9   -8.60   23.50
  -5   0  -9   -7.90   20.50
  -5   0  -9   15.00   23.20
  -5   0  -9    9.30   23.10
  -8  -1   9   -8.50   25.80
   8  -1  -9   -2.10   24.90
   8  -1  -9   31.90   32.50
  -8  -1   9  -11.30   25.90
  -8  -1   9    4.00   36.50
  -8  -1   9    2.90   22.30
   8  -1  -9  -26.00   46.40
   8  -1  -9   -8.40   51.09
  -8  -1   9   78.39   35.00
  -8   1   9  -16.90   25.40
   8   1  -9  -21.00   29.80
   8   1  -9   17.30   50.49
  -8   1   9   16.30   27.90
   8   1  -9   63.39   27.60
  -8   1   9   21.80   32.00
  -8   1   9    8.50   32.30
  -8   1   9  -25.70   20.50
   8   1  -9   11.10   31.60
   7  -1  -9 1100.89   56.29
  -7  -1   9 1063.69   66.29
  -7  -1   9 1067.19   56.79
   7  -1  -9  986.60   69.79
  -7  -1   9 1073.19   50.39
   7  -1  -9 1068.09   68.59
  -7  -1   9 1049.70   65.19
  -7  -1   9 1138.79   67.29
   7  -1  -9  922.91   90.99
   7   1  -9 1178.08   74.39
  -7   1   9 1087.09   53.89
  -7   1   9 1102.99   58.39
   7   1  -9  906.91   90.99
   7   1  -9  906.11   61.69
  -7   1   9 1108.89   70.49
  -7   1   9 1195.98   69.29
  -7   1   9  998.20   65.99
  -6  -1   9  579.14   34.30
  -6  -1   9  586.64   43.20
   6  -1  -9  598.64   44.80
   6  -1  -9  690.33   49.00
  -6  -1   9  600.74   40.90
  -6  -1   9  567.64   48.30
   6  -1  -9  585.34   47.20
  -6  -1   9  599.34   48.20
   6  -1  -9  550.44   50.19
  -6   1   9  568.14   51.39
  -6   1   9  625.84   43.10
  -6   1   9  606.84   48.40
   6   1  -9  668.43   55.39
   6   1  -9  718.03   52.39
  -6   1   9  600.64   37.20
   6   1  -9  565.34   47.70
   6   1  -9  608.84   49.40
  -6   1   9  582.84   44.30
   5  -1  -9  517.95   42.90
  -5  -1   9  479.05   26.10
  -5  -1   9  413.06   35.20
   5  -1  -9  449.95   38.80
  -5  -1   9  470.35   40.00
  -5  -1   9  479.35   39.60
   5  -1  -9  409.66   40.70
  -5  -1   9  469.15   40.60
   5  -1  -9  397.66   38.40
   5  -1  -9  423.16   42.80
  -5  -1   9  432.56   39.50
  -5  -1   9  435.16   34.20
  -5   1   9  454.05   33.30
   5   1  -9  404.56   40.60
   5   1  -9  525.05   38.40
  -5   1   9  517.45   34.00
   5   1  -9  432.56   38.10
  -5   1   9  358.36   40.50
  -5   1   9  405.06   28.40
  -5   1   9  477.15   38.20
   5   1  -9  404.76   37.50
  -4  -1   9 1671.33   67.29
  -4  -1   9 1645.64   64.59
   4  -1  -9 1692.33   69.39
  -4  -1   9 1693.83   44.00
   4  -1  -9 1652.93   66.39
  -4  -1   9 1637.44   63.39
  -4  -1   9 1670.43   56.79
   4  -1  -9 1698.83   64.19
  -4  -1   9 1619.74   60.89
  -4  -1   9 1607.14   55.59
   4  -1  -9 1718.73   64.79
  -4   1   9 1603.44   49.30
   4   1  -9 1707.43   66.39
  -4   1   9 1712.03   64.09
  -4   1   9 1623.24   50.99
  -4   1   9 1593.54   57.49
   4   1  -9 1631.84   66.99
  -4   1   9 1580.74   62.49
   4   1  -9 1634.54   66.79
  -4   1   9 1688.63   66.79
   4   1  -9 1598.24   63.19
  -3  -1   9   91.39   14.10
  -3  -1   9   69.09   19.30
   3  -1  -9  101.99   19.40
   3  -1  -9   91.69   19.40
  -3  -1   9   98.89   17.20
  -3  -1   9  105.39   15.30
   3  -1  -9   88.29   22.40
  -3  -1   9   94.29   19.60
   3  -1  -9  106.39   24.90
   3  -1  -9   83.69   20.10
  -3  -1   9   80.89   21.00
   3   1  -9  116.09   21.40
  -3   1   9   86.59   10.10
   3   1  -9  100.99   18.40
  -3   1   9   68.09   15.40
  -3   1   9   93.29   18.10
   3   1  -9   48.80   20.40
  -3   1   9   90.69   20.20
   3   1  -9   70.69   18.10
   3   1  -9  110.49   25.10
  -2  -1   9 1441.36   41.70
   2  -1  -9 1400.86   52.39
  -2  -1   9 1277.07   53.59
  -2  -1   9 1370.26   41.00
   2  -1  -9 1320.87   53.09
   2  -1  -9 1487.65   53.69
  -2  -1   9 1352.26   49.00
   2  -1  -9 1444.76   56.49
   2  -1  -9 1394.16   58.59
  -2  -1   9 1400.26   60.29
   2   1  -9 1428.36   55.29
  -2   1   9 1392.86   42.40
   2   1  -9 1367.06   51.29
   2   1  -9 1453.45   55.69
   2   1  -9 1354.26   53.19
  -2   1   9 1424.76   43.10
  -2   1   9 1384.16   49.90
   2   1  -9 1303.37   57.39
  -2   1   9 1372.76   59.29
   2   1  -9 1230.68   55.09
   1  -1  -9  261.87   25.70
   1  -1  -9  276.67   26.50
   1  -1  -9  336.47   13.30
   1  -1  -9  332.17   26.80
   1  -1  -9  327.07   31.00
   1  -1  -9  302.57   33.80
  -1  -1   9  336.27   21.40
  -1  -1   9  310.37   27.20
  -1  -1   9  309.67   32.50
  -1   1   9  317.07   27.60
   1   1  -9  298.27   27.40
  -1   1   9  311.57   29.80
   1   1  -9  312.57   32.60
  -1   1   9  297.57   30.70
   1   1  -9  289.07   26.50
  -1   1   9  329.17   22.20
   1   1  -9  291.07   32.20
   1   1  -9  243.78   29.70
   1   1  -9  317.77   25.10
   0  -1  -9 1291.27   35.40
   0  -1   9 1268.87   48.10
   0  -1   9 1264.67   34.90
   0  -1  -9 1236.78   53.19
   0  -1   9 1222.88   56.49
   0  -1   9 1276.07   34.50
   0  -1  -9 1115.49   51.69
   0  -1  -9 1282.77   46.00
   0  -1  -9 1246.98   46.20
   0  -1  -9 1213.88   45.80
   0  -1  -9 1188.58   56.69
   0   1  -9 1226.38   49.70
   0   1   9 1240.28   36.00
   0   1  -9 1289.07   50.49
   0   1   9 1257.47   46.80
   0   1  -9 1184.78   45.20
   0   1  -9 1235.48   50.19
   0   1  -9 1180.28   53.69
   0   1   9 1228.18   37.30
   0   1  -9 1287.17   35.40
   0   1   9 1310.27   58.39
   0   1  -9 1235.78   48.90
   0   1  -9 1203.28   43.90
   1  -1   9  742.33   35.90
  -1  -1  -9  724.53   34.80
  -1  -1  -9  768.92   32.30
  -1  -1  -9  760.42   31.80
  -1  -1  -9  784.82   43.90
  -1  -1  -9  779.12   34.30
  -1  -1  -9  754.22   31.60
   1  -1   9  769.12   36.60
  -1  -1  -9  752.62   46.30
   1  -1   9  718.83   44.70
  -1  -1  -9  805.12   30.90
  -1   1  -9  822.92   31.00
  -1   1  -9  742.33   37.50
  -1   1  -9  803.82   43.10
   1   1   9  756.82   35.80
  -1   1  -9  750.62   30.00
   1   1   9  713.43   44.50
  -1   1  -9  692.33   32.80
   1   1   9  757.82   35.10
  -1   1  -9  746.43   30.50
  -1   1  -9  746.53   39.70
  -1   1  -9  735.93   27.00
  -2  -1  -9  354.96   18.70
  -2  -1  -9  354.66   27.60
   2  -1   9  369.66   34.80
  -2  -1  -9  392.06   19.30
  -2  -1  -9  336.27   25.20
  -2  -1  -9  404.26   35.10
   2  -1   9  363.86   27.10
  -2  -1  -9  405.96   29.40
   2  -1   9  330.87   32.80
  -2  -1  -9  343.27   37.30
  -2  -1  -9  363.66   22.90
  -2   1  -9  391.26   24.00
   2   1   9  367.56   28.60
  -2   1  -9  351.46   24.70
   2   1   9  366.36   31.00
   2   1   9  374.16   37.00
  -2   1  -9  371.26   16.60
  -2   1  -9  506.85   37.30
  -2   1  -9  312.87   34.30
  -2   1  -9  361.96   19.30
  -2   1  -9  368.16   20.00
  -2   1  -9  370.76   24.80
  -2   1  -9  349.17   16.90
  -2   1  -9  377.56   29.70
  -3  -1  -9  846.12   44.10
   3  -1   9  781.32   36.80
   3  -1   9  858.41   43.60
  -3  -1  -9  861.01   31.90
  -3  -1  -9  813.62   35.60
  -3  -1  -9  856.71   30.30
  -3  -1  -9  762.92   49.40
   3  -1   9  820.62   48.80
   3   1   9  810.42   43.10
  -3   1  -9  813.12   36.80
   3   1   9  786.12   49.20
  -3   1  -9  814.62   36.10
  -3   1  -9  823.02   27.70
  -3   1  -9  794.12   41.50
  -3   1  -9  892.81   51.19
  -3   1  -9  835.42   46.70
   4  -1   9  -17.00   18.10
   4  -1   9   14.10   19.70
  -4  -1  -9   19.10   22.20
  -4  -1  -9   21.10   19.40
  -4  -1  -9   -6.80   14.40
  -4  -1  -9    4.70   15.20
  -4  -1  -9    0.10   17.40
   4  -1   9   -2.60   18.60
  -4   1  -9    5.30   17.20
   4   1   9   -1.40   19.80
  -4   1  -9   32.20   20.50
  -4   1  -9   16.30   17.70
   4   1   9   -2.70   19.10
  -4   1  -9   17.50   18.00
  -4   1  -9  -28.60   19.80
  -4   1  -9    1.30   16.20
   5  -1   9  474.45   44.60
  -5  -1  -9  585.94   42.60
  -5  -1  -9  505.85   52.19
  -5  -1  -9  536.85   50.29
   5  -1   9  570.04   46.00
  -5  -1  -9  544.25   46.10
  -5  -1  -9  486.85   43.30
  -5   1  -9  457.55   43.00
  -5   1  -9  539.35   47.90
   5   1   9  489.45   44.10
  -5   1  -9  452.95   45.90
  -5   1  -9  446.56   47.00
  -5   1  -9  391.26   40.80
  -5   1  -9  522.75   45.60
   5   1   9  498.65   46.80
   8  -2  -9 1104.19   78.79
   8  -2  -9 1141.99   70.89
  -8  -2   9 1091.69   71.99
   8   2  -9 1095.19   69.29
   8   2  -9 1094.59   78.49
  -8   2   9  979.50   75.19
   7  -2  -9   46.20   24.50
   7  -2  -9   29.40   48.80
  -7  -2   9    8.70   19.80
   7  -2  -9    5.20   27.20
  -7  -2   9  -12.30   26.20
  -7  -2   9   49.10   31.10
   7  -2  -9   43.70   30.10
  -7  -2   9   -8.20   19.50
  -7   2   9   48.60   22.70
   7   2  -9   41.20   28.80
  -7   2   9   15.00   31.30
  -7   2   9   22.50   19.90
   7   2  -9   46.40   30.00
  -6  -2   9  885.11   56.59
   6  -2  -9  947.61   62.29
   6  -2  -9  962.00   59.49
  -6  -2   9  893.01   51.59
  -6  -2   9  883.91   54.39
   6  -2  -9  989.30   52.69
   6  -2  -9  914.41   61.39
  -6  -2   9  899.71   50.59
  -6  -2   9  914.91   40.30
  -6   2   9  946.91   46.80
   6   2  -9  886.11   56.89
   6   2  -9  872.61   60.19
   6   2  -9  969.70   63.59
  -6   2   9  885.11   61.19
  -6   2   9  855.31   53.19
  -6   2   9  963.70   52.79
  -6   2   9  974.40   57.79
   6   2  -9  951.70   55.29
  -5  -2   9    4.90   14.70
   5  -2  -9    1.50   20.90
  -5  -2   9   48.70   19.40
   5  -2  -9   -1.30   20.70
   5  -2  -9   11.70   18.10
   5  -2  -9    2.70   18.90
  -5  -2   9   -0.30   19.80
  -5  -2   9   16.40   16.60
  -5   2   9   -5.70   20.80
  -5   2   9  -14.10   17.10
   5   2  -9   -8.40   18.80
   5   2  -9   -3.00   19.90
  -5   2   9   42.10   18.10
   5   2  -9   -2.10   19.30
  -5   2   9   10.30   16.00
  -5   2   9   17.80   13.90
   5   2  -9   -1.50   18.40
  -4  -2   9  134.59   23.20
  -4  -2   9  164.48   21.60
   4  -2  -9  117.59   24.40
   4  -2  -9  152.78   25.50
  -4  -2   9  138.09   19.00
  -4  -2   9  174.18   24.80
  -4  -2   9  173.78   23.50
   4  -2  -9  170.98   24.70
  -4  -2   9  166.38   23.70
   4  -2  -9  121.79   21.70
   4  -2  -9  146.59   24.50
  -4   2   9  170.28   18.60
   4   2  -9  141.49   22.40
  -4   2   9  161.58   21.70
  -4   2   9  140.69   22.10
  -4   2   9  171.28   16.70
  -4   2   9  156.28   24.00
   4   2  -9  131.19   24.80
   4   2  -9  181.98   27.60
   4   2  -9  174.78   26.20
   3  -2  -9   17.70   26.80
   3  -2  -9   25.10   19.20
   3  -2  -9   12.80   19.30
   3  -2  -9    5.70   15.10
  -3  -2   9   40.90   18.00
  -3  -2   9    8.70   15.10
  -3  -2   9   31.70   15.70
  -3  -2   9   48.90   12.80
  -3  -2   9  -15.60   14.30
   3  -2  -9    9.00   16.60
  -3  -2   9   41.40   24.30
   3  -2  -9   34.00   16.70
  -3   2   9  -22.60   16.40
   3   2  -9   37.60   19.30
   3   2  -9   17.60   15.90
   3   2  -9   19.70   23.70
  -3   2   9    9.80   11.60
   3   2  -9  -14.40   18.90
  -3   2   9   14.20   15.80
   3   2  -9   10.60   16.40
  -3   2   9   40.00   17.70
   3   2  -9   19.50   16.30
  -2  -2   9    6.70   16.20
  -2  -2   9    5.30    9.00
  -2  -2   9   -5.90   11.10
   2  -2  -9   -4.20   16.60
  -2  -2   9  -15.50    8.80
   2  -2  -9    7.20   17.00
   2  -2  -9   -9.00   12.10
  -2  -2   9   12.90   18.20
   2  -2  -9    2.80   14.00
  -2  -2   9   35.50   13.50
   2  -2  -9  -10.90   19.80
   2  -2  -9   -6.70   11.40
   2  -2  -9    5.90   14.40
   2   2  -9  -12.40   16.10
  -2   2   9  -14.50   20.60
   2   2  -9    2.70   15.90
   2   2  -9    0.80   14.40
  -2   2   9   -2.50    9.20
   2   2  -9  -12.10   12.40
   2   2  -9   24.40   18.50
  -2   2   9   20.20   16.30
   2   2  -9   -2.60   12.50
  -1  -2   9  -20.30   14.00
   1  -2  -9   10.20   17.70
   1  -2  -9    4.70   11.70
   1  -2  -9    8.00   16.50
   1  -2  -9   -4.20   11.30
   1  -2  -9    6.50   11.60
  -1  -2   9    4.10   10.30
   1  -2  -9    2.90   12.50
   1  -2  -9  -21.40   16.80
  -1  -2   9   24.00   14.90
  -1   2   9  -17.10   16.00
   1   2  -9   17.10   12.50
   1   2  -9  -35.30   15.90
  -1   2   9   -4.20   10.30
  -1   2   9   29.40   16.50
   1   2  -9   -8.80   15.20
   1   2  -9    1.10   14.30
   1   2  -9    2.20   12.00
   0  -2  -9  133.69   17.10
   0  -2  -9  112.09   17.90
   0  -2  -9  129.29   17.60
   0  -2   9  124.59   13.80
   0  -2  -9  122.69   24.20
   0  -2   9   85.99   18.60
   0  -2  -9  106.09   13.80
   0  -2  -9   97.89   17.20
   0  -2   9   82.49   19.40
   0  -2  -9   91.79   22.70
   0   2  -9  179.28   21.50
   0   2   9   97.29   11.40
   0   2   9  109.99   17.80
   0   2  -9  120.89   20.60
   0   2  -9  114.99   16.30
   0   2   9  106.49   21.70
   0   2  -9  133.19   17.50
   0   2   9  111.99   14.70
   0   2  -9   96.29   23.00
  -1  -2  -9   22.60   11.70
   1  -2   9   -0.40   16.90
  -1  -2  -9   28.00   12.00
   1  -2   9   16.00   14.00
  -1  -2  -9    4.30   16.80
  -1  -2  -9    6.10   15.20
  -1  -2  -9    0.20   17.90
  -1  -2  -9    7.00   10.70
   1  -2   9   -0.10   15.30
  -1  -2  -9   24.80   12.20
  -1   2  -9   10.90   15.30
  -1   2  -9   33.30   15.10
   1   2   9    0.60   17.50
  -1   2  -9   12.20   10.00
  -1   2  -9   13.80   13.00
   1   2   9    5.60   13.00
   1   2   9   39.70   18.50
  -1   2  -9   15.70   10.20
  -1   2  -9    9.50   15.20
  -1   2  -9   23.20   18.80
  -1   2  -9    7.30    9.30
  -2  -2  -9  938.31   41.00
  -2  -2  -9 1016.50   36.60
  -2  -2  -9  967.10   44.30
   2  -2   9  979.50   42.60
   2  -2   9  953.00   43.50
  -2  -2  -9 1012.50   53.19
   2  -2   9  965.80   44.60
  -2  -2  -9  980.90   35.20
  -2  -2  -9  963.10   48.40
   2  -2   9 1028.00   51.09
  -2  -2  -9 1026.30   42.50
  -2  -2  -9 1000.70   34.40
  -2   2  -9  965.00   37.20
  -2   2  -9  998.40   27.80
  -2   2  -9  987.00   33.10
   2   2   9  965.50   39.70
  -2   2  -9  922.31   49.30
  -2   2  -9  987.70   30.20
   2   2   9  955.70   44.60
  -2   2  -9  941.91   44.10
  -2   2  -9  962.80   30.60
  -2   2  -9  944.51   42.10
  -2   2  -9  996.80   27.80
   2   2   9  957.50   53.39
  -2   2  -9 1048.10   39.80
  -3  -2  -9   32.20    7.10
   3  -2   9   16.20   19.40
  -3  -2  -9    1.20   18.30
  -3  -2  -9   32.60   11.20
   3  -2   9   24.40   16.60
  -3  -2  -9   18.40   22.30
   3  -2   9   25.10   19.10
   3  -2   9   17.90   18.00
  -3  -2  -9   14.70    7.80
  -3   2  -9   37.20   14.10
  -3   2  -9   37.60   13.80
  -3   2  -9   24.50   19.70
   3   2   9   19.00   18.70
  -3   2  -9    1.50   20.30
  -3   2  -9   50.59   17.80
   3   2   9   11.90   19.50
  -3   2  -9   30.30    9.70
  -4  -2  -9 1485.55   65.89
   4  -2   9 1534.35   56.39
   4  -2   9 1597.04   64.99
   4  -2   9 1526.55   66.79
  -4  -2  -9 1551.44   59.99
  -4  -2  -9 1586.84   70.39
   4   2   9 1522.25   64.49
  -4   2  -9 1568.44   66.49
  -4   2  -9 1645.14   61.89
   4   2   9 1475.15   72.39
  -4   2  -9 1511.35   57.89
  -4   2  -9 1701.23   68.69
  -4   2  -9 1402.06   60.79
  -4   2  -9 1505.85   57.79
  -5  -2  -9   -3.80   27.20
   5  -2   9   32.70   23.60
  -5  -2  -9   79.39   31.90
   5  -2   9   37.90   22.90
  -5   2  -9   34.40   25.10
   5   2   9   37.90   23.70
  -5   2  -9    4.20   25.30
  -5   2  -9   19.70   25.30
   5   2   9   -0.60   24.00
  -5   2  -9   31.90   28.10
  -5   2  -9    1.70   24.40
  -7  -3   9 1035.10   71.99
   7  -3  -9 1054.29   59.99
  -7  -3   9  972.60   64.29
   7  -3  -9 1151.08   74.19
  -7  -3   9  997.40   56.69
  -7  -3   9 1137.99   67.39
  -7  -3   9 1068.09   49.99
   7  -3  -9  998.30   73.49
   7  -3  -9 1042.10   66.09
  -7   3   9  979.10   70.79
   7   3  -9 1030.80   71.69
  -7   3   9 1126.99   72.19
  -7   3   9  942.71   61.69
   7   3  -9 1073.39   65.09
  -7   3   9 1083.39   58.99
   7   3  -9  972.50   61.49
   7   3  -9 1070.79   68.79
  -7   3   9 1068.79   55.99
   6  -3  -9  238.18   40.00
   6  -3  -9  150.18   26.80
  -6  -3   9  211.78   26.10
   6  -3  -9  169.88   36.00
  -6  -3   9  226.08   30.30
  -6  -3   9  202.98   34.10
  -6  -3   9  197.18   29.60
   6  -3  -9  217.88   34.40
  -6  -3   9  176.38   29.30
   6   3  -9  208.48   34.60
  -6   3   9  214.58   32.20
   6   3  -9  172.78   33.90
  -6   3   9  250.07   32.60
  -6   3   9  266.87   33.30
   6   3  -9  205.18   40.50
  -6   3   9  164.48   30.60
   6   3  -9  212.48   32.70
   5  -3  -9  623.64   50.29
  -5  -3   9  589.54   42.40
   5  -3  -9  511.35   44.30
   5  -3  -9  629.04   50.99
  -5  -3   9  603.44   46.90
  -5  -3   9  574.54   41.60
  -5  -3   9  574.24   38.50
  -5  -3   9  553.94   24.50
   5  -3  -9  662.23   45.60
  -5   3   9  587.54   40.80
  -5   3   9  616.24   47.10
   5   3  -9  580.74   46.70
  -5   3   9  594.74   42.00
  -5   3   9  582.14   36.40
   5   3  -9  615.64   50.19
   5   3  -9  524.95   43.10
   5   3  -9  616.84   44.60
   4  -3  -9 1183.38   52.09
   4  -3  -9 1136.89   53.49
   4  -3  -9 1149.48   59.89
  -4  -3   9 1171.08   47.10
   4  -3  -9 1206.68   58.69
  -4  -3   9 1172.88   53.99
   4  -3  -9 1203.68   58.79
  -4  -3   9 1150.68   50.39
  -4  -3   9 1344.47   85.69
  -4  -3   9 1094.09   54.19
  -4   3   9 1219.28   42.00
   4   3  -9 1214.68   53.69
  -4   3   9 1174.08   46.40
  -4   3   9 1168.28   49.20
   4   3  -9 1126.79   54.49
   4   3  -9 1212.58   58.99
   4   3  -9 1207.48   57.29
  -4   3   9 1222.48   55.59
  -4   3   9 1199.78   35.10
  -4   3   9 1170.98   56.19
   3  -3  -9  -20.10   15.60
  -3  -3   9    4.90   17.30
  -3  -3   9   10.60   12.10
  -3  -3   9   -4.10   16.00
   3  -3  -9    6.70   15.20
  -3  -3   9    8.20   16.30
  -3  -3   9    6.30   16.40
   3  -3  -9    0.40   15.50
   3  -3  -9   21.40   24.30
   3  -3  -9   41.50   20.70
   3  -3  -9    9.10   16.00
  -3  -3   9  -43.40   17.00
   3  -3  -9    3.50   19.30
   3   3  -9    2.90   15.10
   3   3  -9    0.80   18.00
  -3   3   9   16.70   13.30
  -3   3   9   -1.80   14.70
   3   3  -9    4.50   18.70
  -3   3   9   22.50   17.90
  -3   3   9   11.90   12.90
   3   3  -9    0.80   16.40
   3   3  -9   13.20   15.90
   3   3  -9  -12.90   22.60
   2  -3  -9 1315.27   59.09
   2  -3  -9 1266.67   53.99
   2  -3  -9 1350.36   46.60
  -2  -3   9 1366.56   41.00
  -2  -3   9 1313.27   53.99
  -2  -3   9 1230.68   56.99
  -2  -3   9 1264.97   47.90
   2  -3  -9 1335.37   60.09
   2  -3  -9 1244.28   48.40
  -2  -3   9 1282.57   40.30
  -2  -3   9 1354.76   49.10
   2  -3  -9 1330.67   53.29
   2  -3  -9 1236.78   59.99
  -2   3   9 1261.17   50.79
  -2   3   9 1331.77   45.20
   2   3  -9 1300.57   55.59
  -2   3   9 1295.57   49.99
   2   3  -9 1374.66   59.59
   2   3  -9 1237.88   52.99
   2   3  -9 1350.46   56.79
  -2   3   9 1310.47   43.10
   2   3  -9 1247.58   50.99
  -2   3   9 1327.87   58.79
   2   3  -9 1344.17   49.20
   1  -3  -9  193.68   25.80
  -1  -3   9  207.78   27.70
  -1  -3   9  158.38   18.40
   1  -3  -9  189.98   19.30
  -1  -3   9  161.38   24.50
   1  -3  -9  128.89   17.20
   1  -3  -9  184.48   22.00
   1  -3  -9  178.98   23.70
   1  -3  -9  154.28   27.90
   1  -3  -9  138.09   20.20
  -1  -3   9  214.08   21.20
   1   3  -9  179.48   21.60
   1   3  -9  168.88   21.70
  -1   3   9  156.28   17.30
   1   3  -9  168.68   17.90
   1   3  -9  208.68   27.50
   1   3  -9  216.48   27.70
  -1   3   9  219.08   26.20
   1   3  -9  160.48   23.80
   1   3  -9  182.28   19.70
  -1   3   9  160.28   26.10
   0  -3   9  765.22   26.10
   0  -3   9  743.13   43.50
   0  -3  -9  712.23   42.70
   0  -3  -9  729.23   38.40
   0  -3  -9  648.24   46.10
   0  -3  -9  684.13   35.40
   0  -3  -9  743.63   35.00
   0  -3   9  696.43   38.50
   0  -3   9  689.43   26.80
   0  -3  -9  712.73   36.40
   0   3  -9  682.63   33.70
   0   3  -9  770.12   31.80
   0   3   9  719.23   35.40
   0   3  -9  787.92   41.20
   0   3  -9  692.43   41.60
   0   3  -9  768.62   34.00
   0   3  -9  731.83   35.00
   0   3  -9  733.23   35.30
   0   3   9  704.63   44.70
   1  -3   9  685.83   39.20
   1  -3   9  630.44   41.70
   1  -3   9  732.73   39.30
  -1  -3  -9  756.62   36.90
  -1  -3  -9  728.93   35.20
  -1  -3  -9  672.03   46.40
  -1  -3  -9  710.63   33.50
  -1  -3  -9  695.63   37.90
  -1  -3  -9  780.82   43.90
  -1   3  -9  715.93   33.70
  -1   3  -9  718.73   31.00
  -1   3  -9  740.03   35.30
  -1   3  -9  711.73   31.00
   1   3   9  765.92   35.30
   1   3   9  667.03   46.10
  -1   3  -9  724.93   40.70
  -1   3  -9  657.33   41.80
  -1   3  -9  726.73   31.70
   1   3   9  701.23   38.20
  -2  -3  -9   88.79   13.60
  -2  -3  -9   83.29   16.00
   2  -3   9  100.69   19.30
   2  -3   9   97.19   20.90
  -2  -3  -9  101.29   24.30
  -2  -3  -9   69.19   15.00
   2  -3   9   90.09   18.80
  -2  -3  -9  103.49   26.30
  -2  -3  -9  110.39   13.00
  -2  -3  -9   64.19   19.40
   2  -3   9   82.79   19.50
  -2   3  -9  103.99   11.60
  -2   3  -9   72.39   17.10
  -2   3  -9   59.89   21.60
   2   3   9  112.39   24.40
  -2   3  -9   83.79   20.60
  -2   3  -9   85.89   12.50
  -2   3  -9   84.99   14.80
  -2   3  -9  100.89   12.00
   2   3   9   94.89   19.30
  -2   3  -9   78.79   10.70
  -2   3  -9  118.89   20.30
  -3  -3  -9  834.32   40.00
  -3  -3  -9  782.62   31.60
   3  -3   9  794.42   47.80
  -3  -3  -9  875.81   45.20
  -3  -3  -9  844.02   54.79
   3  -3   9  906.01   45.60
  -3  -3  -9  859.11   30.90
   3  -3   9  889.11   44.80
   3  -3   9  865.81   41.30
   3   3   9  894.11   45.70
  -3   3  -9  878.91   31.30
  -3   3  -9  841.22   46.30
  -3   3  -9  860.61   43.50
  -3   3  -9  810.62   50.99
   3   3   9  906.61   54.89
   4  -3   9  -10.80   21.20
   4  -3   9    7.00   21.30
  -4  -3  -9   -8.50   24.70
  -4  -3  -9    6.40   21.00
   4  -3   9   37.80   19.70
   4  -3   9   38.60   20.50
  -4   3  -9   32.00   23.60
   4   3   9  -10.30   21.10
  -4   3  -9   -4.10   24.00
  -4   3  -9  -18.20   18.10
  -4   3  -9    4.00   20.50
   4   3   9   20.60   22.90
  -4   3  -9  -38.60   16.50
   7  -4  -9  336.17   39.10
   7  -4  -9  354.76   45.50
  -7  -4   9  408.46   48.60
  -7  -4   9  330.67   38.20
  -7  -4   9  418.96   47.90
   7  -4  -9  345.37   44.00
  -7  -4   9  362.56   40.90
   7   4  -9  261.17   37.40
   7   4  -9  382.06   83.09
  -7   4   9  430.36   50.29
  -7   4   9  335.87   40.70
   7   4  -9  350.36   42.90
   7   4  -9  395.06   45.30
  -7   4   9  298.07   46.30
  -7   4   9  415.06   44.10
  -6  -4   9   13.30   25.10
   6  -4  -9   36.10   29.90
   6  -4  -9   63.49   24.20
  -6  -4   9   36.20   15.50
  -6  -4   9   41.10   23.40
  -6  -4   9   36.30   22.30
  -6  -4   9   11.90   20.60
   6  -4  -9    9.80   30.70
   6  -4  -9   34.30   29.10
  -6   4   9   17.90   24.20
   6   4  -9   34.50   28.70
  -6   4   9   31.00   21.90
  -6   4   9    6.60   19.30
   6   4  -9   -3.50   29.40
   6   4  -9   49.10   27.50
  -6   4   9   43.10   26.00
   6   4  -9   14.30   25.30
  -6   4   9    6.70   16.90
   5  -4  -9  929.81   59.79
  -5  -4   9  965.20   32.40
   5  -4  -9  900.01   58.59
  -5  -4   9  945.61   49.40
  -5  -4   9  901.01   48.90
  -5  -4   9  987.10   54.19
  -5  -4   9  918.31   49.00
   5  -4  -9  986.70   54.99
   5  -4  -9  954.70   55.89
   5   4  -9 1055.89   59.29
   5   4  -9  876.01   53.09
  -5   4   9  956.40   39.00
   5   4  -9  972.60   54.69
  -5   4   9 1020.90   48.90
  -5   4   9  964.40   50.59
   5   4  -9  930.01   58.49
  -5   4   9  976.40   51.49
  -4  -4   9   17.80   15.80
   4  -4  -9    0.60   23.00
  -4  -4   9    6.50   14.90
   4  -4  -9   25.40   21.00
   4  -4  -9   12.30   19.40
   4  -4  -9   32.80   22.50
  -4  -4   9   14.00   16.80
  -4  -4   9   16.80   16.30
  -4   4   9    3.70   16.00
  -4   4   9    3.10    9.20
  -4   4   9   18.30    7.60
   4   4  -9   31.40   20.70
   4   4  -9   21.20   20.60
   4   4  -9   30.10   18.80
  -4   4   9    6.00   18.70
  -4   4   9   28.20   17.70
  -4   4   9   10.70   14.80
   4   4  -9    1.80   19.90
  -3  -4   9 1176.68   53.49
   3  -4  -9 1280.87   58.99
  -3  -4   9 1242.28   48.60
   3  -4  -9 1202.18   58.69
   3  -4  -9 1111.69   52.59
   3  -4  -9 1290.37   55.79
  -3  -4   9 1245.38   44.90
  -3  -4   9 1157.88   52.29
   3  -4  -9 1173.88   56.19
   3   4  -9 1299.17   57.59
  -3   4   9 1247.48   53.89
  -3   4   9 1235.68   46.70
   3   4  -9 1159.28   52.89
  -3   4   9 1256.67   52.79
   3   4  -9 1168.48   63.19
  -3   4   9 1259.57   57.69
   3   4  -9 1209.08   49.20
  -3   4   9 1161.78   47.60
   3   4  -9 1206.68   55.09
   3   4  -9 1207.68   55.99
   2  -4  -9  -32.90   18.40
  -2  -4   9   -5.00    9.20
   2  -4  -9  -27.80   17.00
  -2  -4   9    7.10   17.70
  -2  -4   9   -6.90   11.90
  -2  -4   9   -3.70   12.10
  -2  -4   9   22.70   19.90
   2  -4  -9   43.30   21.50
   2  -4  -9   20.60   14.80
  -2  -4   9    0.80   16.60
   2  -4  -9   23.40   24.10
   2  -4  -9   14.80   16.60
   2   4  -9  -42.90   22.10
  -2   4   9   21.50   16.50
  -2   4   9    3.50   14.50
  -2   4   9    2.50   16.50
   2   4  -9   12.00   13.50
   2   4  -9    2.50   16.80
   2   4  -9   -2.40   14.20
  -2   4   9  -27.20   18.30
   2   4  -9   -1.20   13.80
   2   4  -9   -7.30   13.50
  -2   4   9   25.40   11.80
   2   4  -9    0.50   16.40
   1  -4  -9 1399.16   64.39
   1  -4  -9 1352.26   60.19
   1  -4  -9 1336.27   52.89
  -1  -4   9 1335.27   46.30
   1  -4  -9 1317.47   54.09
   1  -4  -9 1313.67   51.59
  -1  -4   9 1264.17   52.09
  -1  -4   9 1342.37   59.89
   1  -4  -9 1341.37   59.79
  -1  -4   9 1323.97   55.19
   1   4  -9 1404.36   55.89
  -1   4   9 1358.86   60.29
   1   4  -9 1311.27   58.49
   1   4  -9 1242.48   52.29
  -1   4   9 1340.57   46.50
  -1   4   9 1283.37   48.40
   1   4  -9 1403.66   51.09
   1   4  -9 1266.67   54.99
  -1   4   9 1394.06   38.00
   1   4  -9 1357.36   50.09
   0  -4  -9   39.50   20.90
   0  -4   9   38.90   16.90
   0  -4   9   37.30   18.30
   0  -4   9   49.10   11.20
   0  -4  -9   -0.60   19.10
   0  -4  -9   34.40   15.20
   0  -4   9   30.50   15.80
   0  -4  -9   29.20   19.10
   0  -4  -9   39.30   15.00
   0  -4  -9   47.30   19.60
   0   4  -9   11.10   13.80
   0   4  -9   40.40    8.40
   0   4   9   27.10   12.20
   0   4  -9   27.70   13.90
   0   4  -9   28.80   16.60
   0   4   9    7.90   18.30
   0   4  -9   47.30   17.80
   0   4   9   44.70   19.00
   0   4  -9   46.80   15.40
   0   4  -9   19.40   17.20
   1  -4   9 1461.15   59.79
  -1  -4  -9 1522.85   61.59
  -1  -4  -9 1299.27   58.49
  -1  -4  -9 1523.35   55.89
  -1  -4  -9 1494.35   53.09
  -1  -4  -9 1390.56   66.99
   1  -4   9 1427.56   56.39
  -1  -4  -9 1463.55   52.49
   1  -4   9 1369.86   60.49
  -1   4  -9 1480.95   62.79
   1   4   9 1532.35   54.49
  -1   4  -9 1513.55   53.69
  -1   4  -9 1480.55   49.90
  -1   4  -9 1466.35   59.49
   1   4   9 1473.25   67.79
  -1   4  -9 1490.05   50.69
   1   4   9 1491.75   43.70
  -1   4  -9 1437.66   49.90
   1   4   9 1510.15   51.59
  -2  -4  -9   29.20   14.90
   2  -4   9   14.90   19.70
   2  -4   9    6.60   17.40
  -2  -4  -9  -14.80   17.50
  -2  -4  -9    9.30   12.10
  -2  -4  -9   37.30   23.10
  -2  -4  -9   10.50   14.30
   2  -4   9   -0.70   14.00
   2  -4   9   10.20   18.00
   2   4   9  -30.30   18.00
  -2   4  -9    1.90   10.10
  -2   4  -9   10.40   21.30
   2   4   9   -5.20   18.80
  -2   4  -9   22.20   10.50
  -2   4  -9   -8.00   15.50
  -2   4  -9  -24.40   16.50
   2   4   9   35.40   21.20
  -3  -4  -9  311.77   23.00
  -3  -4  -9  305.07   37.70
  -3  -4  -9  360.06   36.40
  -3  -4  -9  329.37   29.30
   3  -4   9  322.67   34.00
   3  -4   9  385.86   34.20
   3  -4   9  342.67   31.90
   3  -4   9  374.46   36.60
   3   4   9  383.86   36.20
  -3   4  -9  332.57   16.50
  -3   4  -9  249.78   31.60
  -3   4  -9  343.17   36.10
   3   4   9  329.67   42.30
  -3   4  -9  350.36   23.30
  -3   4  -9  329.67   37.70
   4  -4   9   83.09   24.90
  -4  -4  -9   69.09   22.20
   4  -4   9  107.99   23.20
   4  -4   9   69.69   20.50
   4  -4   9   67.99   22.50
  -4  -4  -9   81.59   32.00
  -4  -4  -9   64.19   12.50
   4   4   9  101.59   27.40
  -4   4  -9   94.59   21.30
  -4   4  -9  117.59   34.00
  -4   4  -9   55.19   24.10
   4   4   9  101.29   25.60
  -4   4  -9   34.90   31.00
  -7  -5   9  329.87   41.50
  -7  -5   9  319.97   37.50
   7  -5  -9  279.37   46.00
   7  -5  -9  460.15   54.89
   7  -5  -9  409.46   48.90
  -7  -5   9  267.07   34.60
  -7  -5   9  356.06   44.70
  -7  -5   9  329.77   46.10
   7  -5  -9  426.76   53.69
  -7   5   9  383.86   42.70
   7   5  -9  315.77   43.10
  -7   5   9  384.86   42.90
   7   5  -9  337.97   43.80
  -7   5   9  397.06   45.50
   7   5  -9  423.16   48.20
   7   5  -9  281.27   44.20
  -7   5   9  506.95   46.70
   6  -5  -9  488.15   52.39
  -6  -5   9  395.56   45.20
   6  -5  -9  376.46   64.89
   6  -5  -9  444.36   50.79
  -6  -5   9  438.86   47.20
  -6  -5   9  452.75   42.10
  -6  -5   9  419.26   50.59
  -6  -5   9  434.46   31.40
   6   5  -9  413.36   49.99
  -6   5   9  441.86   46.90
  -6   5   9  443.36   66.29
  -6   5   9  447.46   50.89
  -6   5   9  433.76   35.80
  -6   5   9  497.85   45.10
   6   5  -9  462.45   77.79
   6   5  -9  409.96   47.90
   5  -5  -9  278.27   40.60
   5  -5  -9  244.98   38.00
  -5  -5   9  310.37   35.80
  -5  -5   9  299.77   31.80
  -5  -5   9  248.08   20.20
   5  -5  -9  311.77   37.50
  -5  -5   9  289.57   33.30
   5  -5  -9  288.67   37.60
  -5  -5   9  332.57   41.00
   5   5  -9  259.17   38.80
  -5   5   9  331.27   38.70
  -5   5   9  360.56   36.70
  -5   5   9  251.17   30.90
   5   5  -9  283.87   35.20
   5   5  -9  260.67   39.00
   5   5  -9  301.77   35.90
  -5   5   9  290.27   37.50
  -5   5   9  316.47   27.10
  -4  -5   9 1625.04   66.99
   4  -5  -9 1702.03   73.29
   4  -5  -9 1594.94   73.59
  -4  -5   9 1616.14   58.79
   4  -5  -9 1677.83   76.79
   4  -5  -9 1695.23   70.89
  -4  -5   9 1594.94   59.29
  -4  -5   9 1599.24   65.99
  -4   5   9 1658.13   51.19
  -4   5   9 1631.94   61.59
   4   5  -9 1573.44   71.49
   4   5  -9 1562.74   67.99
   4   5  -9 1735.73   68.69
  -4   5   9 1579.84   61.89
  -4   5   9 1521.45   66.59
  -4   5   9 1608.24   68.39
  -4   5   9 1605.44   43.80
   4   5  -9 1769.72   75.29
  -3  -5   9   -9.10   13.00
  -3  -5   9   21.90   17.70
   3  -5  -9   33.10   18.90
   3  -5  -9   28.80   21.90
  -3  -5   9    5.20   17.30
   3  -5  -9  -16.90   18.50
  -3  -5   9    4.60   20.30
   3  -5  -9   -3.50   20.20
   3   5  -9   23.30   20.70
  -3   5   9   15.00   18.60
   3   5  -9   16.10   21.30
  -3   5   9   27.80   26.30
  -3   5   9    7.30   15.50
   3   5  -9   -3.60   17.00
   3   5  -9   32.20   16.50
   3   5  -9   42.20   22.00
  -3   5   9    6.70   17.30
  -2  -5   9 2543.55   86.39
   2  -5  -9 2609.14   92.29
   2  -5  -9 2581.74   88.79
  -2  -5   9 2550.84   91.89
  -2  -5   9 2616.94   83.39
   2  -5  -9 2431.36   92.69
  -2  -5   9 2576.14   70.09
   2  -5  -9 2679.03   86.39
   2  -5  -9 2664.83   94.99
   2   5  -9 2621.24   86.19
  -2   5   9 2566.54   84.19
  -2   5   9 2525.65   77.59
   2   5  -9 2767.32   83.79
   2   5  -9 2684.53   89.49
  -2   5   9 2685.83   77.79
   2   5  -9 2713.73   84.19
  -2   5   9 2633.44   74.89
   2   5  -9 2703.93   70.79
   2   5  -9 2642.34   89.99
  -2   5   9 2505.05   89.59
   2   5  -9 2596.54   89.09
  -1  -5   9   84.19   16.10
   1  -5  -9  102.09   26.70
  -1  -5   9   90.49   22.20
   1  -5  -9  121.09   24.60
   1  -5  -9  107.19   21.30
  -1  -5   9  139.59   24.40
  -1  -5   9  128.59   22.00
   1  -5  -9  168.08   30.50
   1  -5  -9  116.59   21.50
  -1   5   9   79.69   16.80
  -1   5   9  112.99   24.60
  -1   5   9  146.19   17.00
   1   5  -9  155.58   22.10
  -1   5   9  106.99   20.20
   1   5  -9  101.09   19.20
  -1   5   9  110.69   13.10
   1   5  -9   84.69   24.40
  -1   5   9  120.29   13.80
   1   5  -9  117.99   21.70
   1   5  -9   93.19   19.00
   1   5  -9  174.98   27.00
   0  -5  -9 1061.79   46.40
   0  -5  -9 1000.50   47.70
   0  -5  -9  995.30   57.69
   0  -5   9 1083.09   51.99
   0  -5   9 1013.00   52.09
   0  -5  -9 1011.80   51.79
   0  -5   9 1063.89   37.80
   0  -5   9 1025.80   47.80
   0  -5  -9 1090.49   54.09
   0   5  -9 1048.30   52.09
   0   5   9 1063.19   46.20
   0   5  -9 1048.60   47.40
   0   5   9 1019.50   55.69
   0   5   9 1090.19   42.50
   0   5  -9 1051.79   44.70
   0   5  -9 1061.09   45.70
   0   5  -9  999.00   56.19
   1  -5   9  459.25   33.90
   1  -5   9  364.16   36.50
  -1  -5  -9  392.76   45.10
  -1  -5  -9  401.36   38.40
  -1  -5  -9  393.06   32.20
   1  -5   9  429.66   35.90
  -1  -5  -9  424.96   31.80
   1   5   9  452.05   31.30
  -1   5  -9  428.96   38.10
   1   5   9  424.36   39.70
  -1   5  -9  373.66   28.80
  -1   5  -9  434.96   34.60
  -1   5  -9  359.46   29.20
   1   5   9  404.46   26.10
   1   5   9  465.55   41.50
  -1   5  -9  480.55   29.50
  -2  -5  -9  308.47   36.00
   2  -5   9  166.68   23.00
   2  -5   9  153.48   25.40
  -2  -5  -9  210.28   25.50
  -2  -5  -9  216.58   34.10
  -2  -5  -9  224.28   27.20
   2  -5   9  222.38   27.70
  -2   5  -9  235.68   26.20
  -2   5  -9  238.98   32.00
  -2   5  -9  291.17   34.70
  -2   5  -9  249.48   30.50
   2   5   9  200.48   32.70
   2   5   9  261.07   27.90
  -2   5  -9  202.28   22.60
  -3  -5  -9  299.47   34.60
  -3  -5  -9  254.27   27.50
  -3  -5  -9  291.97   42.80
   3  -5   9  305.47   31.10
   3  -5   9  321.27   35.20
   3  -5   9  282.67   32.60
   3  -5   9  321.77   35.40
  -3  -5  -9  305.87   37.10
  -3   5  -9  250.17   20.40
   3   5   9  286.07   35.60
  -3   5  -9  326.67   30.90
  -3   5  -9  309.17   37.70
   3   5   9  321.57   42.50
  -3   5  -9  282.67   38.00
  -4  -5  -9   16.80   15.50
   4  -5   9    2.40   20.60
   4  -5   9   -6.70   17.80
   4  -5   9   -6.10   20.80
  -4  -5  -9  -13.10   32.10
   4  -5   9   -9.10   23.00
   4   5   9   28.30   23.80
   4   5   9   -3.00   21.70
  -4   5  -9    5.70   28.70
  -6  -6   9  620.84   64.39
  -6  -6   9  747.33   55.69
   6  -6  -9  836.92   64.49
   6  -6  -9  726.03   64.09
  -6  -6   9  784.42   54.49
   6  -6  -9  659.53   76.39
  -6  -6   9  666.43   39.50
   6  -6  -9  719.93   57.79
  -6  -6   9  678.53   62.29
  -6   6   9  909.41   71.49
   6   6  -9  722.73   57.69
   6   6  -9  763.32   63.29
  -6   6   9  662.83   60.19
  -6   6   9  807.52   52.19
   6   6  -9  873.51   62.79
   6   6  -9  780.32   60.99
  -6   6   9  738.03   44.70
  -6   6   9  703.73   55.09
  -5  -6   9  161.48   27.20
  -5  -6   9  174.68   26.10
   5  -6  -9  188.08   34.70
  -5  -6   9  202.78   32.90
   5  -6  -9  135.99   36.10
  -5  -6   9  174.18   33.40
   5  -6  -9  185.58   42.10
   5  -6  -9  153.28   32.70
  -5   6   9  213.08   30.10
   5   6  -9  161.68   36.40
   5   6  -9  175.78   39.70
  -5   6   9  143.99   29.00
   5   6  -9  147.19   32.90
  -5   6   9  207.68   32.80
  -5   6   9  148.59   29.80
   5   6  -9  217.58   34.80
  -5   6   9  185.98   21.40
  -4  -6   9  154.08   26.10
  -4  -6   9  234.68   24.30
   4  -6  -9  192.58   37.70
   4  -6  -9  181.58   33.70
  -4  -6   9  145.69   22.50
  -4  -6   9  142.29   27.00
   4  -6  -9  213.78   33.70
   4  -6  -9  208.98   38.00
  -4   6   9  215.58   15.70
  -4   6   9  187.88   26.50
   4   6  -9  199.38   31.50
  -4   6   9  222.18   29.40
  -4   6   9  142.19   24.40
   4   6  -9  241.98   36.70
  -4   6   9  183.28   31.10
   4   6  -9  179.58   30.60
   4   6  -9  163.68   32.70
  -3  -6   9  159.38   26.10
   3  -6  -9  174.08   30.80
  -3  -6   9  178.28   20.90
   3  -6  -9  154.78   30.60
   3  -6  -9  237.88   32.30
   3  -6  -9  189.98   33.60
  -3  -6   9  161.78   23.90
  -3   6   9  172.68   28.40
   3   6  -9  198.68   30.80
  -3   6   9  241.48   31.50
  -3   6   9  164.48   21.50
   3   6  -9  175.18   26.20
   3   6  -9  212.58   31.00
   3   6  -9  187.78   31.70
   2  -6  -9   22.70   24.10
   2  -6  -9   -7.40   17.60
  -2  -6   9   -8.20   15.90
  -2  -6   9    8.90   17.30
   2  -6  -9  -15.30   20.20
   2  -6  -9   -7.30   23.60
  -2  -6   9    5.10   11.30
  -2  -6   9   11.60   15.70
   2   6  -9  -23.10   16.80
   2   6  -9   -1.70   22.10
   2   6  -9  -22.90   16.20
  -2   6   9   15.80   14.70
  -2   6   9   20.70   18.00
   2   6  -9   43.60   20.30
   2   6  -9   -7.00   20.00
  -2   6   9   -8.90   19.60
   1  -6  -9  215.18   26.90
   1  -6  -9  225.38   31.30
  -1  -6   9  206.78   26.50
   1  -6  -9  232.88   35.80
  -1  -6   9  154.28   26.30
  -1  -6   9  203.18   26.40
  -1  -6   9  244.38   31.40
   1  -6  -9  197.18   27.50
   1   6  -9  151.38   31.00
  -1   6   9  152.68   26.70
  -1   6   9  167.68   41.10
   1   6  -9  187.88   25.40
  -1   6   9  254.67   21.70
  -1   6   9  210.08   23.50
   1   6  -9  212.28   27.60
   1   6  -9  192.98   29.30
   1   6  -9  144.39   23.70
   0  -6  -9  263.97   32.40
   0  -6   9  172.08   26.20
   0  -6  -9  185.18   24.90
   0  -6   9  172.48   26.60
   0  -6   9  181.68   25.90
   0  -6  -9  175.58   32.80
   0  -6  -9  254.47   30.00
   0   6   9  260.77   28.50
   0   6   9  220.88   25.90
   0   6  -9  205.48   26.60
   0   6  -9  208.48   24.40
   0   6  -9  190.28   23.10
   0   6  -9  158.58   26.60
   0   6   9  195.08   29.80
  -1  -6  -9   90.79   24.50
  -1  -6  -9   95.49   20.60
  -1  -6  -9  142.59   24.00
   1  -6   9  101.49   19.40
  -1  -6  -9   80.59   30.10
   1  -6   9   88.09   22.30
   1  -6   9   73.09   21.40
   1   6   9  122.59   22.30
  -1   6  -9   72.29   18.80
  -1   6  -9   88.99   23.90
  -1   6  -9  120.99   18.80
   1   6   9  145.09   31.50
  -1   6  -9   87.29   27.70
   2  -6   9  610.84   44.20
   2  -6   9  649.24   43.90
   2  -6   9  671.73   42.90
  -2  -6  -9  710.13   46.50
  -2  -6  -9  666.93   40.50
  -2  -6  -9  622.74   41.60
  -2  -6  -9  645.84   56.49
  -2   6  -9  690.43   46.00
  -2   6  -9  745.63   52.29
   2   6   9  713.53   42.50
   2   6   9  627.04   49.90
  -2   6  -9  641.04   36.80
  -2   6  -9  645.94   36.50
   3  -6   9   48.80   21.70
  -3  -6  -9   40.10   22.80
   3  -6   9   42.20   21.70
  -3  -6  -9   18.70   18.30
  -3  -6  -9  -44.60   30.80
  -3  -6  -9  -31.00   22.30
   3  -6   9   10.40   19.50
  -3   6  -9   -2.40   13.70
  -3   6  -9   28.80   25.70
   3   6   9  -16.70   20.40
  -3   6  -9   19.40   18.40
   3   6   9   40.70   23.90
  -5  -7   9  704.63   47.30
  -5  -7   9  725.23   69.69
   5  -7  -9  870.01   65.89
   5  -7  -9  849.52   71.99
  -5  -7   9  683.63   59.69
  -5  -7   9  770.12   56.99
   5  -7  -9  790.82   60.39
   5  -7  -9  785.82   63.69
  -5   7   9  774.22   38.90
   5   7  -9  804.12   59.09
  -5   7   9  665.73   68.79
  -5   7   9  756.52   63.59
   5   7  -9  824.72   63.19
  -5   7   9  806.52   50.59
   5   7  -9  776.52   60.59
  -5   7   9  757.72   61.29
   5   7  -9  759.52   56.89
   4  -7  -9  406.06   52.99
  -4  -7   9  387.36   33.10
   4  -7  -9  371.36   42.00
  -4  -7   9  428.96   40.60
   4  -7  -9  435.76   53.19
  -4  -7   9  394.66   37.80
  -4  -7   9  387.26   46.10
   4  -7  -9  399.56   50.29
  -4   7   9  419.16   49.90
   4   7  -9  395.86   65.49
  -4   7   9  341.97   44.70
   4   7  -9  424.76   46.20
  -4   7   9  440.46   45.90
   4   7  -9  448.56   47.50
   4   7  -9  373.16   53.99
  -4   7   9  387.06   40.10
   3  -7  -9   34.10   26.80
  -3  -7   9   83.99   23.80
   3  -7  -9   59.99   31.70
  -3  -7   9   86.09   18.50
   3  -7  -9   38.90   28.20
  -3  -7   9   91.69   24.50
   3  -7  -9   17.70   27.60
  -3   7   9  104.79   23.20
   3   7  -9   53.19   27.80
   3   7  -9   79.89   27.10
   3   7  -9   56.59   24.00
   3   7  -9   30.50   27.50
  -3   7   9  100.59   28.10
   3   7  -9   73.39   25.20
  -3   7   9   34.10   21.60
  -2  -7   9  357.26   27.80
  -2  -7   9  383.46   39.40
  -2  -7   9  421.16   38.80
   2  -7  -9  376.26   46.10
   2  -7  -9  405.16   45.10
   2  -7  -9  380.46   43.30
  -2  -7   9  348.27   38.40
   2  -7  -9  440.96   46.50
   2   7  -9  393.56   42.70
   2   7  -9  391.66   40.00
  -2   7   9  363.76   40.40
   2   7  -9  358.46   38.50
   2   7  -9  379.16   45.30
   2   7  -9  369.96   40.30
  -2   7   9  372.16   40.40
  -2   7   9  398.96   33.50
   1  -7  -9  341.57   39.30
  -1  -7   9  315.27   36.60
   1  -7  -9  280.07   39.70
   1  -7  -9  327.27   42.00
   1  -7  -9  381.86   43.10
  -1  -7   9  345.77   37.70
  -1  -7   9  282.87   30.90
  -1  -7   9  322.67   37.20
  -1   7   9  330.87   38.70
   1   7  -9  399.96   38.30
   1   7  -9  420.86   44.70
   1   7  -9  402.36   39.80
  -1   7   9  342.57   37.30
   1   7  -9  326.17   41.50
  -1   7   9  384.06   28.80
   0  -7  -9  372.46   40.00
   0  -7   9  324.57   36.80
   0  -7  -9  284.47   39.70
   0  -7   9  307.57   36.00
   0  -7  -9  371.96   40.00
   0  -7   9  292.27   35.50
   0  -7  -9  323.57   38.40
   0   7  -9  363.06   39.70
   0   7   9  380.46   34.30
   0   7  -9  368.56   43.50
   0   7  -9  352.66   38.80
   0   7   9  277.57   38.00
   0   7  -9  301.27   33.80
   0   7   9  364.96   35.20
   1  -7   9 1018.30   54.29
   1  -7   9  937.11   54.09
  -1  -7  -9  986.00   53.89
  -1  -7  -9  842.72   64.69
  -1  -7  -9 1068.39   53.89
  -1  -7  -9  952.60   50.29
   1  -7   9  989.90   52.79
   1   7   9  943.11   58.29
  -1   7  -9  950.20   56.39
  -1   7  -9  920.11   50.29
  -1   7  -9 1080.29   47.90
  -1   7  -9  902.11   59.39
   1   7   9 1010.90   49.20
   2  -7   9   81.99   22.10
  -2  -7  -9   62.99   23.50
  -2  -7  -9   -2.00   48.70
  -2  -7  -9  109.49   26.20
  -2  -7  -9  108.49   23.70
   2  -7   9   15.40   20.60
   2  -7   9   66.19   22.90
  -2   7  -9   83.09   23.60
   2   7   9  126.79   29.30
   2   7   9  104.09   22.80
  -2   7  -9  108.59   32.00
  -2   7  -9   73.19   31.10
  -2   7  -9   94.79   22.20
  -5  -8   9  473.85   43.90
   5  -8  -9  429.76   46.90
   5  -8  -9  519.05   80.89
  -5  -8   9  543.55   48.40
   5  -8  -9  522.85   57.79
  -5  -8   9  586.54   63.39
   5  -8  -9  497.55   54.89
  -5   8   9  418.46   48.20
  -5   8   9  433.16   52.49
  -5   8   9  428.26   51.29
   5   8  -9  477.75   50.99
   5   8  -9  475.85   54.49
   5   8  -9  407.16   47.80
  -4  -8   9  105.69   24.80
  -4  -8   9  117.89   22.20
   4  -8  -9  125.09   35.60
   4  -8  -9  109.69   33.50
   4  -8  -9  114.79   32.00
  -4  -8   9  113.49   32.30
  -4  -8   9  107.69   25.30
  -4   8   9  139.79   28.20
  -4   8   9   68.79   36.30
   4   8  -9   74.29   32.40
   4   8  -9  142.59   34.00
   4   8  -9   77.69   30.70
   4   8  -9  137.49   37.60
  -4   8   9   96.59   33.10
   3  -8  -9  877.71   66.49
   3  -8  -9  878.31   70.99
  -3  -8   9  930.81   47.80
  -3  -8   9  907.11   56.69
  -3   8   9 1041.60   61.49
   3   8  -9  945.61   61.69
  -3   8   9  977.00   54.89
   3   8  -9  877.31   62.69
   3   8  -9  979.10   65.09
  -3   8   9  956.40   56.49
   3   8  -9  972.20   64.99
   3   8  -9  888.91   68.29
  -2  -8   9    9.90   21.20
  -2  -8   9   50.89   23.50
   2  -8  -9   45.50   26.60
  -2  -8   9   45.80   16.30
   2  -8  -9   19.10   31.10
  -2  -8   9   11.60   23.30
   2  -8  -9    4.40   48.90
   2   8  -9  -50.89   29.20
  -2   8   9    8.70   19.00
  -2   8   9  -19.30   21.00
  -2   8   9   67.59   27.80
   2   8  -9  -38.30   23.10
   2   8  -9   34.20   28.40
  -1  -8   9 1217.58   62.49
   1  -8  -9 1302.37   81.79
  -1  -8   9 1119.79   58.49
   1  -8  -9 1377.56   72.89
   1  -8  -9 1304.27   65.99
  -1  -8   9 1215.68   65.29
  -1  -8   9 1271.17   61.89
   1   8  -9 1307.87   67.89
   1   8  -9 1350.36   60.29
   1   8  -9 1269.67   73.09
  -1   8   9 1220.58   62.19
  -1   8   9 1279.67   48.70
  -1   8   9 1245.48   64.59
   0  -8  -9   89.79   30.40
   0  -8  -9  103.09   27.00
   0  -8   9  108.29   25.00
   0  -8  -9  104.79   33.50
   0  -8   9  161.28   40.30
   0  -8   9   86.09   23.30
   0   8  -9  120.29   29.20
   0   8  -9   87.59   34.30
   0   8  -9  157.68   34.50
   0   8   9  152.48   25.40
   0   8   9   78.59   23.70
   0   8   9  110.69   17.10
   0   8  -9  110.29   23.90
   1  -8   9  704.13   50.19
  -1  -8  -9  676.43   61.49
   1  -8   9  757.52   49.30
  -1  -8  -9  808.32   55.69
  -1  -8  -9  792.12   51.59
  -1  -8  -9  804.32   52.29
   1  -8   9  799.22   56.29
  -1   8  -9  735.93   60.69
  -1   8  -9  874.81   48.30
   1   8   9  780.12   46.30
  -1   8  -9  731.23   53.29
   1   8   9  727.03   55.39
   2  -8   9   79.49   26.20
   2  -8   9   89.59   25.00
  -2  -8  -9   90.49   27.30
  -2  -8  -9  129.39   29.40
  -2  -8  -9   92.19   36.60
   2  -8   9  144.99   27.20
  -2  -8  -9  144.69   28.20
  -2   8  -9  125.79   33.20
  -2   8  -9   61.19   40.20
   2   8   9  125.09   32.00
  -2   8  -9  158.38   41.00
   2   8   9  161.58   28.70
  -2   8  -9  145.69   27.80
   3  -9  -9   57.09   33.40
  -3  -9   9   25.10   30.90
  -3  -9   9   53.09   25.10
   3  -9  -9   63.29   30.30
  -3  -9   9   42.20   26.50
   3  -9  -9   22.40   34.30
   3  -9  -9   19.10   32.60
  -3   9   9    1.70   23.30
   3   9  -9   54.49   30.10
   3   9  -9   31.50   40.30
   3   9  -9   16.30   30.40
   3   9  -9  -16.30   25.80
  -3   9   9   10.00   30.60
   3   9  -9   25.00   27.20
   2  -9  -9 1540.75   83.59
  -2  -9   9 1705.13   56.89
   2  -9  -9 1806.32   85.69
   2  -9  -9 1664.23   67.99
   2  -9  -9 1637.94   76.79
   2  -9  -9 1636.84   81.19
  -2  -9   9 1545.15   76.49
  -2  -9   9 1522.15   77.39
  -2  -9   9 1793.22   96.59
  -2   9   9 1612.84   77.29
  -2   9   9 1496.65   67.59
   2   9  -9 1496.65   82.99
  -2   9   9 1570.94   72.79
   2   9  -9 1585.34  109.39
   2   9  -9 1665.63   77.49
   2   9  -9 1622.84   76.19
  -1  -9   9    3.70   29.60
   1  -9  -9    7.80   32.30
  -1  -9   9   -7.40   20.70
  -1  -9   9   34.50   22.70
   1  -9  -9   88.89   29.20
  -1   9   9   48.00   31.30
   1   9  -9   39.80   29.90
  -1   9   9   -3.90   24.60
  -1   9   9   12.60   19.00
   1   9  -9  -26.40   22.80
   1   9  -9    2.30   32.80
   1   9  -9    3.50   27.60
   0  -9  -9 1115.79   66.39
   0  -9  -9 1057.59   62.29
   0  -9   9 1003.90   58.39
   0  -9  -9 1019.90   73.09
   0  -9  -9 1100.79   69.59
   0  -9   9 1069.99   61.89
   0   9   9  991.30   62.19
   0   9  -9 1120.99   65.79
   0   9  -9  960.80   60.99
   0   9   9 1037.20   53.89
   0   9  -9 1033.70   58.89
  -7   0  10   -9.20   24.60
  -7   0  10   -1.20   36.90
  -7   0  10   55.09   34.00
   7   0 -10   37.90   30.30
  -7   0  10  -12.70   20.10
   7   0 -10  -10.00   34.80
   7   0 -10    7.50   28.90
  -7   0  10   21.20   19.50
  -6   0  10  120.09   31.60
  -6   0  10   94.59   19.40
  -6   0  10  179.38   29.30
   6   0 -10   83.19   32.20
  -6   0  10  125.99   26.50
   6   0 -10   99.79   31.90
   6   0 -10  116.49   35.80
   6   0 -10  122.49   32.50
  -6   0  10   70.59   30.70
   5   0 -10   -3.90   23.70
  -5   0  10    2.60   13.90
  -5   0  10   35.60   19.20
   5   0 -10   22.20   24.10
  -5   0  10   -3.70   22.30
   5   0 -10  -20.30   24.70
   5   0 -10   16.20   21.70
  -5   0  10   -6.60   16.40
  -4   0  10   -7.00   14.40
  -4   0  10    6.00   17.40
  -4   0  10   12.90   19.90
  -4   0  10   37.80   18.60
  -4   0  10   45.70   15.80
   4   0 -10   47.10   19.60
  -4   0  10   25.10   24.70
   4   0 -10    7.40   18.60
   4   0 -10   -0.80   22.00
   4   0 -10   19.90   21.00
   3   0 -10  -28.60   16.70
   3   0 -10   -5.90   15.90
  -3   0  10   -9.60    7.40
  -3   0  10   -3.20   19.10
  -3   0  10   -5.90   15.50
   3   0 -10   16.90   17.70
  -3   0  10   22.30   17.40
  -3   0  10  -10.70   11.60
   3   0 -10   19.20   25.20
   3   0 -10    9.40   22.30
  -3   0  10  -14.20   15.50
   2   0 -10  252.87   30.10
   2   0 -10  284.17   30.00
  -2   0  10  272.37   33.90
   2   0 -10  278.87   33.10
   2   0 -10  314.97   30.80
  -2   0  10  319.57   31.00
   2   0 -10  225.88   26.30
  -2   0  10  285.17   26.10
  -1   0  10  -14.40   17.30
   1   0 -10   14.10   17.90
  -1   0  10  -13.00   14.00
   1   0 -10  -12.80   13.10
   1   0 -10  -28.80   12.70
   1   0 -10    1.20   17.70
   1   0 -10  -10.80   16.30
   0   0 -10 1332.47   60.59
   0   0 -10 1378.16   50.29
   0   0  10 1396.46   63.99
   0   0 -10 1432.36   51.39
   0   0 -10 1420.86   54.29
   0   0  10 1429.06   54.09
   0   0 -10 1358.76   50.79
   1   0  10    0.70   14.00
  -1   0 -10   -2.30   11.30
  -1   0 -10   11.20   13.20
   1   0  10   21.30   18.20
  -1   0 -10    8.10   10.70
  -1   0 -10  -15.60   19.80
  -1   0 -10    6.70   18.20
  -1   0 -10    2.10   14.90
  -2   0 -10 2005.20   65.99
  -2   0 -10 2027.50   75.39
  -2   0 -10 1965.50   52.29
  -2   0 -10 2014.60   53.79
  -2   0 -10 2032.80   58.09
   2   0  10 1917.71   80.29
  -2   0 -10 1931.21   51.79
   2   0  10 1961.30   63.59
   2   0  10 1976.50   65.09
  -2   0 -10 1877.41   80.29
   3   0  10   -1.80   18.60
  -3   0 -10  -23.80   16.30
  -3   0 -10   58.99   23.00
  -3   0 -10  -24.80   16.80
   3   0  10  -10.00   21.70
  -3   0 -10   18.60   26.30
   3   0  10  -24.10   16.20
   4   0  10 1687.73   66.99
  -4   0 -10 1594.54   79.29
  -4   0 -10 1497.45   68.89
  -4   0 -10 1608.34   63.29
  -4   0 -10 1573.34   59.79
  -4   0 -10 1610.14   68.19
   4   0  10 1510.85   73.69
   7  -1 -10  363.36   46.90
  -7  -1  10  500.55   46.20
  -7  -1  10  384.96   49.90
   7  -1 -10  435.86   51.39
  -7  -1  10  388.16   43.80
  -7  -1  10  391.56   38.30
   7  -1 -10  435.16   51.79
  -7  -1  10  406.96   45.70
   7   1 -10  462.65   55.69
   7   1 -10  355.26   46.70
  -7   1  10  415.06   45.10
  -7   1  10  378.16   47.30
  -7   1  10  309.37   43.20
   7   1 -10  391.06   45.20
  -7   1  10  422.16   46.20
  -7   1  10  418.26   42.00
   7   1 -10  328.97   39.80
   6  -1 -10  608.14   53.59
   6  -1 -10  620.24   56.39
  -6  -1  10  650.23   48.10
  -6  -1  10  593.44   34.60
  -6  -1  10  602.94   45.60
  -6  -1  10  565.64   50.29
   6  -1 -10  732.63   52.99
   6  -1 -10  652.73   53.69
  -6  -1  10  592.44   46.90
   6  -1 -10  739.63   64.29
  -6  -1  10  603.84   55.49
   6   1 -10  555.64   59.09
   6   1 -10  589.34   54.09
  -6   1  10  605.04   51.39
  -6   1  10  613.84   47.30
  -6   1  10  580.24   46.80
   6   1 -10  544.65   55.09
  -6   1  10  655.53   39.30
   6   1 -10  624.14   56.89
  -5  -1  10   -6.00   16.90
  -5  -1  10    6.10   17.90
  -5  -1  10    6.10    9.70
   5  -1 -10   29.00   22.70
   5  -1 -10    6.00   20.80
   5  -1 -10   29.90   28.30
   5  -1 -10   43.10   27.30
  -5  -1  10    3.70   17.90
   5  -1 -10   37.40   24.40
  -5  -1  10   19.40   22.40
   5   1 -10   48.10   24.80
  -5   1  10   37.00   21.50
   5   1 -10    4.80   24.60
   5   1 -10   17.10   26.60
  -5   1  10   -0.50   14.40
  -5   1  10    5.20   18.10
  -5   1  10   25.70   22.90
   5   1 -10   14.40   26.20
  -4  -1  10 1216.08   57.29
   4  -1 -10 1296.47   62.29
   4  -1 -10 1365.76   66.29
  -4  -1  10 1367.86   64.89
   4  -1 -10 1331.17   63.59
  -4  -1  10 1392.26   67.39
  -4  -1  10 1383.16   51.69
   4  -1 -10 1368.96   58.89
  -4  -1  10 1311.07   60.79
   4  -1 -10 1351.06   59.19
   4   1 -10 1274.07   58.59
  -4   1  10 1350.76   41.90
  -4   1  10 1287.87   62.59
   4   1 -10 1338.57   65.79
   4   1 -10 1280.67   61.59
   4   1 -10 1335.57   62.79
  -4   1  10 1396.16   52.19
  -4   1  10 1409.56   64.09
  -4   1  10 1279.07   60.59
   3  -1 -10  345.57   35.50
   3  -1 -10  378.86   35.10
  -3  -1  10  352.26   25.40
   3  -1 -10  382.26   36.30
  -3  -1  10  366.76   23.40
  -3  -1  10  351.96   32.00
  -3  -1  10  427.16   35.10
   3  -1 -10  390.96   40.30
  -3  -1  10  351.46   29.90
  -3  -1  10  373.36   37.90
   3  -1 -10  270.57   35.90
   3   1 -10  331.67   33.10
   3   1 -10  378.26   36.70
   3   1 -10  365.06   38.00
   3   1 -10  373.46   35.00
  -3   1  10  360.76   31.00
  -3   1  10  330.87   36.30
   3   1 -10  339.67   37.20
  -3   1  10  381.76   25.70
  -2  -1  10  719.33   36.00
   2  -1 -10  778.92   42.00
   2  -1 -10  743.83   41.20
   2  -1 -10  716.83   48.60
  -2  -1  10  736.73   41.70
  -2  -1  10  703.13   46.30
   2  -1 -10  751.82   40.90
   2  -1 -10  746.63   46.60
  -2   1  10  732.83   25.40
  -2   1  10  797.22   47.70
  -2   1  10  638.34   40.30
   2   1 -10  750.02   45.90
   2   1 -10  663.13   44.40
   2   1 -10  755.12   40.40
   2   1 -10  778.82   40.60
   2   1 -10  709.73   43.20
   1  -1 -10  902.41   52.59
   1  -1 -10  919.41   42.70
   1  -1 -10  961.60   49.99
  -1  -1  10  856.61   43.30
   1  -1 -10  881.01   42.70
   1  -1 -10  933.41   45.50
  -1  -1  10  836.72   49.90
   1  -1 -10  924.11   41.50
  -1   1  10  957.30   44.70
  -1   1  10  968.70   39.20
   1   1 -10  904.41   46.10
   1   1 -10  829.42   48.40
   1   1 -10  893.41   41.20
  -1   1  10  892.61   51.69
   1   1 -10  869.61   49.60
   1   1 -10  970.90   52.89
   1   1 -10  890.51   42.00
   0  -1 -10  133.09   19.90
   0  -1 -10  143.79   19.10
   0  -1 -10  185.68   20.80
   0  -1  10  185.78   28.90
   0  -1 -10  211.78   26.80
   0  -1  10  153.28   22.00
   0  -1 -10  153.08   28.20
   0  -1 -10  165.38   19.70
   0   1 -10  147.19   18.30
   0   1 -10  157.18   26.10
   0   1  10  145.39   20.50
   0   1 -10  155.38   19.20
   0   1 -10  149.99   22.20
   0   1 -10  170.88   20.50
   0   1  10  163.78   19.30
   0   1 -10  142.69   26.20
   0   1  10  178.98   14.30
   0   1  10  169.58   27.40
   1  -1  10  938.41   52.99
  -1  -1 -10  940.51   32.80
  -1  -1 -10  998.70   38.80
   1  -1  10 1031.90   45.10
  -1  -1 -10 1019.70   58.79
  -1  -1 -10  975.10   38.80
  -1  -1 -10 1043.20   43.00
  -1  -1 -10  949.11   51.29
  -1   1 -10 1008.10   37.90
  -1   1 -10  948.71   46.50
   1   1  10  994.00   43.20
   1   1  10  973.90   55.19
  -1   1 -10 1004.20   37.60
  -1   1 -10  987.20   39.40
  -1   1 -10  968.90   52.29
  -1   1 -10 1033.80   30.00
  -2  -1 -10    7.60    9.50
  -2  -1 -10   10.10    8.70
   2  -1  10  -11.80   19.60
  -2  -1 -10   22.10   13.50
  -2  -1 -10   32.80   20.90
  -2  -1 -10   18.40   14.90
   2  -1  10   23.30   18.40
  -2  -1 -10    4.70   23.20
   2  -1  10    6.00   16.10
   2   1  10   -6.40   18.40
  -2   1 -10   22.40   12.50
  -2   1 -10   58.79   18.60
  -2   1 -10    7.40    7.80
  -2   1 -10   45.10   22.00
   2   1  10   32.80   16.90
  -2   1 -10   28.10    8.80
   2   1  10   19.50   21.90
  -3  -1 -10  652.63   39.60
  -3  -1 -10  699.23   46.00
  -3  -1 -10  672.33   57.09
   3  -1  10  634.84   49.00
   3  -1  10  698.33   39.10
   3  -1  10  675.43   43.50
  -3  -1 -10  723.33   36.80
  -3   1 -10  683.13   41.70
  -3   1 -10  696.13   35.80
  -3   1 -10  708.93   54.19
  -3   1 -10  748.63   42.30
   3   1  10  692.33   43.00
  -3   1 -10  611.94   49.50
   3   1  10  680.63   51.59
  -4  -1 -10  116.29   28.50
  -4  -1 -10   96.59   26.70
  -4  -1 -10  132.59   38.40
   4  -1  10   97.59   26.50
  -4  -1 -10  128.19   27.40
   4  -1  10  119.49   27.90
  -4   1 -10  146.69   24.20
  -4   1 -10  131.59   30.80
  -4   1 -10  125.89   34.60
   4   1  10  137.59   27.60
  -4   1 -10  108.59   24.90
   4   1  10  144.59   27.30
  -4   1 -10  129.59   26.90
  -7  -2  10  676.63   51.99
   7  -2 -10  727.33   62.89
  -7  -2  10  735.33   43.80
   7  -2 -10  786.12   62.09
  -7  -2  10  659.73   51.09
   7  -2 -10  754.72   65.19
   7  -2 -10  675.43   59.39
  -7  -2  10  738.23   69.29
  -7   2  10  774.32   54.69
   7   2 -10  661.33   61.79
  -7   2  10  759.92   51.59
  -7   2  10  753.52   69.79
   7   2 -10  781.42   60.49
  -7   2  10  803.32   49.90
   7   2 -10  727.93   63.79
   7   2 -10  663.63   63.69
  -6  -2  10    8.70   17.50
   6  -2 -10   49.60   28.90
  -6  -2  10    6.40   19.50
  -6  -2  10   21.10   20.80
  -6  -2  10   57.89   27.30
  -6  -2  10    9.80   26.70
   6  -2 -10   -2.40   31.90
   6  -2 -10   32.30   32.60
   6  -2 -10  -28.00   25.00
  -6   2  10   18.90   19.60
   6   2 -10  -21.70   33.50
   6   2 -10   26.80   30.70
   6   2 -10    3.40   29.80
   6   2 -10  -18.20   25.00
  -6   2  10    6.00   26.80
  -6   2  10   41.30   24.60
  -6   2  10   -8.30   19.10
  -5  -2  10 1136.89   33.00
  -5  -2  10 1208.88   58.59
  -5  -2  10 1172.58   59.19
   5  -2 -10 1167.88   62.89
  -5  -2  10 1227.28   53.39
   5  -2 -10 1305.27   71.19
  -5  -2  10 1206.08   62.29
   5  -2 -10 1153.98   67.69
  -5  -2  10 1163.68   62.89
   5  -2 -10 1196.68   62.49
  -5   2  10 1208.88   62.59
   5   2 -10 1238.68   63.39
  -5   2  10 1221.68   55.49
   5   2 -10 1304.57   69.49
  -5   2  10 1231.08   47.90
   5   2 -10 1396.66   69.09
   5   2 -10 1233.08   67.79
  -5   2  10 1118.89   58.89
   4  -2 -10   31.30   21.30
  -4  -2  10   11.00   19.30
   4  -2 -10    5.90   18.50
   4  -2 -10   15.10   20.50
  -4  -2  10   -1.00   16.40
  -4  -2  10  -22.50   14.70
   4  -2 -10   40.20   25.40
  -4  -2  10   19.10   20.80
   4  -2 -10  -33.90   18.50
  -4   2  10   -0.10   12.80
   4   2 -10    0.00   21.30
  -4   2  10   -9.70   17.90
   4   2 -10    3.00   23.40
   4   2 -10    9.00   19.50
  -4   2  10  -23.40   14.80
   4   2 -10   -7.60   18.80
  -4   2  10   -9.70   20.50
  -4   2  10    5.40    5.80
  -3  -2  10 1339.37   50.59
  -3  -2  10 1429.36   50.39
   3  -2 -10 1496.05   60.79
  -3  -2  10 1583.84   64.59
   3  -2 -10 1478.65   64.29
   3  -2 -10 1202.68   68.89
   3  -2 -10 1531.05   66.99
   3  -2 -10 1559.54   60.09
  -3  -2  10 1382.46   59.19
  -3  -2  10 1430.66   65.69
   3  -2 -10 1536.05   69.29
  -3  -2  10 1460.65   48.30
   3   2 -10 1447.96   61.99
   3   2 -10 1475.25   69.39
  -3   2  10 1442.96   49.60
   3   2 -10 1512.65   67.49
   3   2 -10 1427.96   61.79
   3   2 -10 1521.25   60.39
  -3   2  10 1490.45   52.79
  -3   2  10 1468.25   64.59
   2  -2 -10   23.60   22.30
  -2  -2  10   23.90   13.20
   2  -2 -10   43.50   18.80
   2  -2 -10   27.80   15.70
  -2  -2  10   17.80   14.20
  -2  -2  10   11.10   16.50
   2  -2 -10   30.90   23.60
   2  -2 -10   30.10   19.70
   2  -2 -10   23.10   15.80
  -2  -2  10   29.60   18.10
   2   2 -10    8.10   17.10
  -2   2  10   19.40   14.00
   2   2 -10   -9.10   14.60
  -2   2  10   23.40   17.70
  -2   2  10   35.00   10.10
   2   2 -10   32.00   23.10
   2   2 -10    1.50   22.10
   2   2 -10   31.70   15.80
   2   2 -10   24.20   21.20
  -2   2  10   -4.20    9.70
   1  -2 -10 1294.47   49.10
  -1  -2  10 1144.99   58.39
   1  -2 -10 1198.98   58.39
   1  -2 -10 1218.18   62.49
   1  -2 -10 1218.18   41.80
   1  -2 -10 1240.68   49.90
   1  -2 -10 1248.48   55.59
  -1  -2  10 1236.98   52.29
   1  -2 -10 1193.48   50.39
   1   2 -10 1183.08   50.19
   1   2 -10 1294.87   55.39
  -1   2  10 1112.59   58.19
  -1   2  10 1188.58   50.29
   1   2 -10 1263.27   53.99
   1   2 -10 1198.48   59.49
  -1   2  10 1235.68   44.50
   1   2 -10 1254.17   48.30
   1   2 -10 1232.78   52.79
   0  -2 -10   64.49   15.20
   0  -2 -10   63.09   23.80
   0  -2  10   65.89   20.70
   0  -2 -10   41.90   15.10
   0  -2 -10   85.99   18.00
   0  -2  10   78.59   19.80
   0  -2 -10   96.69   23.70
   0  -2 -10   66.59   16.10
   0  -2 -10   78.89   19.50
   0   2  10   86.69   23.50
   0   2  10   75.59   11.60
   0   2 -10   76.99   20.90
   0   2 -10  100.89   18.30
   0   2 -10  108.59   15.10
   0   2 -10   74.79   16.00
   0   2 -10   77.09   23.00
   0   2  10   88.59   18.60
   0   2 -10   45.90   19.10
   0   2 -10   93.69   17.50
  -1  -2 -10  316.97   38.00
  -1  -2 -10  294.97   27.30
   1  -2  10  325.67   37.00
   1  -2  10  328.57   30.90
  -1  -2 -10  323.77   26.20
  -1  -2 -10  348.07   26.00
  -1  -2 -10  334.97   28.70
  -1  -2 -10  346.77   44.70
   1   2  10  293.47   36.70
  -1   2 -10  355.16   30.50
  -1   2 -10  414.46   25.60
  -1   2 -10  354.26   40.80
  -1   2 -10  334.87   24.20
   1   2  10  352.06   28.30
  -1   2 -10  340.47   24.20
  -1   2 -10  340.27   34.10
  -2  -2 -10   -8.80   19.90
   2  -2  10   38.40   17.10
   2  -2  10  -34.40   19.20
   2  -2  10  -18.10   19.60
  -2  -2 -10   38.60   15.50
  -2  -2 -10   -1.30   11.00
  -2  -2 -10  -10.30    9.30
  -2  -2 -10   22.90   25.90
  -2  -2 -10  -40.90   15.70
  -2   2 -10  -16.40   22.30
  -2   2 -10   -0.10    7.90
   2   2  10   -2.90   19.10
  -2   2 -10    3.80    8.40
   2   2  10   11.90   17.00
   2   2  10  -48.20   19.60
  -2   2 -10   -7.00   16.90
  -2   2 -10   42.00   12.40
  -2   2 -10   33.00   15.50
   3  -2  10   -5.90   18.30
  -3  -2 -10   -6.40   31.10
   3  -2  10    0.70   19.90
  -3  -2 -10  -17.90   20.50
   3  -2  10  -23.50   21.50
   3   2  10    7.70   22.80
  -3   2 -10   59.59   18.00
  -3   2 -10    4.20   17.50
  -3   2 -10  -12.70   19.60
  -3   2 -10    1.70   28.60
   3   2  10   20.30   21.40
  -3   2 -10   10.90   27.10
  -4  -2 -10    5.40   30.00
  -4  -2 -10   18.90   26.00
   4  -2  10    8.70   21.70
   4  -2  10  -44.50   20.80
   4  -2  10   -8.50   20.20
   4   2  10   32.30   22.40
  -4   2 -10   11.70   30.90
  -4   2 -10    8.10   33.20
   4   2  10   -2.30   21.80
  -4   2 -10   55.29   25.30
  -4   2 -10    2.20   22.50
   7  -3 -10  178.78   39.70
   7  -3 -10  159.98   39.60
  -7  -3  10  172.18   31.10
   7  -3 -10  178.88   39.40
   7  -3 -10  165.08   36.30
  -7  -3  10  177.98   43.90
  -7   3  10  212.38   33.80
  -7   3  10  176.58   46.40
   7   3 -10  191.98   40.60
   7   3 -10  163.08   58.69
  -7   3  10  172.18   33.60
  -7   3  10  223.18   33.90
   7   3 -10  132.69   39.50
   7   3 -10  114.19   35.30
   6  -3 -10 1380.56  109.39
  -6  -3  10 1463.45   71.59
  -6  -3  10 1517.85   93.79
  -6  -3  10 1520.25   75.99
   6  -3 -10 1226.68  106.29
  -6  -3  10 1407.66   66.09
   6  -3 -10 1533.85   75.39
   6   3 -10 1533.75   75.19
   6   3 -10 1380.06   86.49
  -6   3  10 1456.95   77.19
  -6   3  10 1466.95   61.49
  -6   3  10 1559.64   70.59
  -6   3  10 1478.55   67.09
   5  -3 -10   40.50   25.30
  -5  -3  10   -5.10   18.50
  -5  -3  10   15.80   21.10
   5  -3 -10   37.60   28.20
   5  -3 -10   18.70   25.50
  -5  -3  10   -3.10   19.60
  -5  -3  10   -1.70   24.90
   5  -3 -10   19.30   26.60
  -5   3  10   27.60   24.80
   5   3 -10  -10.90   24.60
   5   3 -10  -48.80   25.50
  -5   3  10    8.10   20.10
   5   3 -10   19.40   24.70
  -5   3  10   11.50   20.60
   5   3 -10   -4.00   23.80
  -5   3  10    2.40   16.10
   4  -3 -10 1532.05   74.79
  -4  -3  10 1465.45   65.19
   4  -3 -10 1494.45   70.09
  -4  -3  10 1479.25   68.89
  -4  -3  10 1461.25   64.29
   4  -3 -10 1529.85   67.39
  -4  -3  10 1515.15   54.99
   4  -3 -10 1505.45   70.69
   4   3 -10 1520.65   66.29
  -4   3  10 1536.65   56.99
   4   3 -10 1527.65   68.69
   4   3 -10 1451.25   70.09
  -4   3  10 1485.85   53.29
   4   3 -10 1534.45   69.19
  -4   3  10 1582.94   68.49
  -3  -3  10  139.19   30.80
  -3  -3  10  128.39   24.60
   3  -3 -10  103.59   23.20
   3  -3 -10   94.69   28.90
   3  -3 -10  144.99   29.30
  -3  -3  10  101.59   16.20
  -3  -3  10   99.19   22.20
   3  -3 -10  102.29   24.10
  -3  -3  10   41.90   22.20
   3  -3 -10   95.89   21.40
   3  -3 -10   81.89   25.10
  -3   3  10  137.19   26.40
  -3   3  10  129.29   23.50
   3   3 -10   83.19   22.80
   3   3 -10   64.69   22.10
   3   3 -10   59.49   31.60
   3   3 -10  135.29   29.70
  -3   3  10   98.59   17.60
   3   3 -10  101.59   25.40
   2  -3 -10 1111.69   46.30
  -2  -3  10 1022.20   55.39
  -2  -3  10 1082.09   45.20
   2  -3 -10  960.40   50.59
   2  -3 -10 1043.50   50.39
   2  -3 -10  957.20   55.99
   2  -3 -10 1122.09   58.69
   2  -3 -10 1065.39   60.99
  -2  -3  10 1044.60   44.70
  -2  -3  10  941.91   48.40
   2  -3 -10 1058.99   42.30
  -2   3  10 1039.20   35.20
  -2   3  10 1003.10   35.70
  -2   3  10 1035.60   45.30
   2   3 -10 1017.30   48.20
   2   3 -10  964.30   47.60
   2   3 -10 1072.99   57.59
   2   3 -10  982.60   51.19
  -2   3  10  990.90   54.59
   2   3 -10 1027.70   49.60
   2   3 -10 1086.09   54.89
   1  -3 -10  578.34   32.60
  -1  -3  10  559.64   37.50
  -1  -3  10  536.25   42.10
   1  -3 -10  601.64   38.00
   1  -3 -10  606.04   49.70
   1  -3 -10  581.84   43.70
   1  -3 -10  525.35   31.30
   1  -3 -10  567.84   43.70
   1  -3 -10  606.04   38.50
   1   3 -10  542.75   34.80
   1   3 -10  592.54   46.40
  -1   3  10  565.14   43.60
   1   3 -10  565.54   39.00
  -1   3  10  598.24   32.50
   1   3 -10  544.55   34.80
  -1   3  10  536.55   39.40
   1   3 -10  578.74   41.70
   1   3 -10  623.94   36.20
   1   3 -10  603.64   31.30
   0  -3 -10   59.99   25.50
   0  -3 -10   52.09   19.50
   0  -3 -10   83.99   15.70
   0  -3 -10  109.09   18.40
   0  -3  10   59.19   22.60
   0  -3 -10   80.49   17.40
   0  -3 -10   83.79   24.10
   0  -3  10   66.09   19.00
   0   3  10   58.09   16.70
   0   3 -10  110.19   18.30
   0   3 -10  105.59   17.10
   0   3 -10   66.89   17.90
   0   3 -10   86.39   21.30
   0   3 -10   48.30   14.70
   0   3  10   55.69   20.30
   0   3 -10   59.89   24.50
   0   3  10   42.10   12.20
  -1  -3 -10  665.93   45.60
  -1  -3 -10  664.63   52.49
   1  -3  10  710.03   39.30
  -1  -3 -10  713.13   34.20
  -1  -3 -10  614.34   35.30
  -1  -3 -10  641.54   34.60
   1  -3  10  648.94   45.10
  -1   3 -10  684.63   31.90
  -1   3 -10  715.83   43.10
  -1   3 -10  698.83   33.30
   1   3  10  577.34   46.70
  -1   3 -10  694.53   49.80
   1   3  10  626.24   33.90
  -1   3 -10  628.44   33.60
  -1   3 -10  616.44   33.80
   2  -3  10   34.50   19.20
  -2  -3 -10   13.90    9.60
  -2  -3 -10   34.70   21.80
  -2  -3 -10   39.90   30.80
  -2  -3 -10   47.60   18.50
   2  -3  10   -1.50   19.50
   2  -3  10   24.90   17.20
  -2  -3 -10   28.40   12.20
   2   3  10   50.49   26.70
  -2   3 -10   48.20   27.70
  -2   3 -10   49.20   16.00
  -2   3 -10  -18.50   17.90
   2   3  10   10.00   19.50
   2   3  10   27.90   21.70
  -2   3 -10   74.09   19.90
  -2   3 -10   25.50    9.40
  -2   3 -10   24.10   10.60
  -3  -3 -10  341.07   42.80
   3  -3  10  257.97   33.20
   3  -3  10  312.17   36.20
   3  -3  10  363.76   33.50
  -3  -3 -10  328.17   39.90
  -3  -3 -10  310.77   20.40
   3  -3  10  332.17   36.20
  -3   3 -10  337.37   37.40
  -3   3 -10  366.26   37.10
   3   3  10  312.37   38.50
  -3   3 -10  279.37   38.60
   3   3  10  301.87   40.20
   6  -4 -10  107.09   34.10
  -6  -4  10    3.30   39.40
   6  -4 -10   52.39   29.60
  -6  -4  10   88.39   29.00
   6  -4 -10   67.09   34.00
   6  -4 -10   73.19   36.00
  -6  -4  10   63.19   25.10
   6   4 -10   61.39   28.60
  -6   4  10   11.30   33.30
   6   4 -10   72.19   32.10
  -6   4  10   71.59   23.40
   6   4 -10   22.40   30.10
  -6   4  10   24.70   22.50
  -6   4  10   56.29   19.00
   6   4 -10   78.89   35.70
   5  -4 -10   82.59   33.00
   5  -4 -10   44.20   29.50
  -5  -4  10   41.40   21.70
  -5  -4  10   79.19   23.20
   5  -4 -10   51.09   28.50
  -5  -4  10  114.49   24.80
   5  -4 -10   67.99   31.60
  -5  -4  10   73.29   27.90
   5   4 -10   35.80   28.50
  -5   4  10   95.09   25.50
   5   4 -10   76.09   33.60
  -5   4  10   90.39   25.90
   5   4 -10   65.89   26.10
  -5   4  10   80.79   12.20
  -5   4  10   53.29   22.00
   5   4 -10   99.79   32.30
  -4  -4  10   31.00   20.50
  -4  -4  10   28.70   21.20
   4  -4 -10   19.70   23.60
   4  -4 -10   10.60   30.80
   4  -4 -10   -4.30   23.70
   4  -4 -10   37.20   27.30
  -4  -4  10  -11.80   15.00
   4   4 -10   40.20   28.20
  -4   4  10   23.30   20.00
   4   4 -10   -0.80   26.20
   4   4 -10    0.80   23.10
  -4   4  10  -18.90   16.40
   4   4 -10    9.80   28.10
  -4   4  10    9.60   17.00
  -4   4  10    6.20   23.10
   3  -4 -10   97.79   29.80
  -3  -4  10  100.99   26.40
   3  -4 -10  112.29   25.50
   3  -4 -10   64.09   26.70
   3  -4 -10   81.29   25.40
  -3  -4  10  118.89   23.80
  -3  -4  10  130.39   23.50
  -3  -4  10   87.29   15.60
   3   4 -10   53.29   23.30
   3   4 -10   91.99   23.90
  -3   4  10   88.39   24.20
   3   4 -10   92.49   27.30
   3   4 -10   90.09   25.10
  -3   4  10   99.39   24.60
  -3   4  10  119.79   18.50
   2  -4 -10  277.67   35.70
   2  -4 -10  382.16   43.80
   2  -4 -10  251.07   35.30
  -2  -4  10  291.37   37.50
  -2  -4  10  292.67   31.30
   2  -4 -10  324.97   36.20
  -2  -4  10  368.96   32.00
   2   4 -10  306.27   36.30
   2   4 -10  328.67   33.90
   2   4 -10  312.97   35.60
   2   4 -10  328.87   37.20
  -2   4  10  329.37   36.10
  -2   4  10  324.57   23.40
   1  -4 -10   36.30   18.60
   1  -4 -10   18.50   22.10
   1  -4 -10    7.70   22.90
  -1  -4  10   21.50   18.40
  -1  -4  10   78.79   23.20
  -1  -4  10   36.80   18.40
   1  -4 -10   29.80   19.20
  -1   4  10   22.60   14.80
   1   4 -10    1.70   15.60
   1   4 -10   29.80   17.20
  -1   4  10   27.50   20.00
   1   4 -10   28.70   15.80
   1   4 -10   34.70   24.30
   1   4 -10   17.80   20.80
   0  -4 -10  888.61   58.69
   0  -4 -10  832.42   43.10
   0  -4  10  858.21   45.50
   0  -4 -10  712.03   41.70
   0  -4 -10  847.92   51.79
   0  -4  10  849.81   50.19
   0   4 -10  879.81   42.30
   0   4  10  768.82   51.39
   0   4 -10  821.92   39.70
   0   4  10  799.22   40.60
   0   4  10  786.22   39.70
   0   4 -10  768.92   47.90
   0   4 -10  851.31   39.70
   0   4 -10  873.71   52.49
  -1  -4 -10   -1.70   16.90
   1  -4  10   -2.00   17.20
   1  -4  10  -15.60   17.20
   1  -4  10    2.70   17.20
  -1  -4 -10   18.70   21.80
  -1  -4 -10    1.10   16.00
  -1  -4 -10   22.20   30.20
  -1   4 -10   20.00   27.60
  -1   4 -10    1.60   15.80
   1   4  10  -13.20   15.10
   1   4  10    6.80   20.20
  -1   4 -10   16.60   12.40
  -1   4 -10    4.50   20.10
   1   4  10    2.90   21.20
  -1   4 -10    8.70   15.20
  -2  -4 -10 1411.06   75.09
   2  -4  10 1491.05   59.39
   2  -4  10 1401.96   60.69
   2  -4  10 1515.25   67.59
  -2  -4 -10 1447.16   56.19
  -2  -4 -10 1376.36   51.79
  -2  -4 -10 1539.85   65.09
  -2   4 -10 1501.05   47.70
   2   4  10 1454.55   73.29
  -2   4 -10 1381.06   70.59
  -2   4 -10 1508.85   58.49
  -2   4 -10 1559.14   69.69
   2   4  10 1588.34   59.39
  -3  -4 -10    2.50   23.80
  -3  -4 -10  -19.00   12.40
   3  -4  10   17.80   22.70
   3  -4  10  -29.40   20.70
   3  -4  10   -4.80   20.70
   3  -4  10   12.70   18.30
  -3  -4 -10  -49.00   32.40
  -3   4 -10  -15.50   22.10
   3   4  10   14.20   24.60
   3   4  10   17.10   21.50
  -3   4 -10  -12.70   30.70
  -3   4 -10   17.10   27.30
  -6  -5  10  548.25   63.59
   6  -5 -10  536.25   61.79
  -6  -5  10  487.45   48.20
  -6  -5  10  615.74   55.49
  -6  -5  10  559.64   50.19
   6  -5 -10  542.95   58.89
   6  -5 -10  515.25   63.49
   6  -5 -10  640.74   57.19
  -6   5  10  547.05   48.30
  -6   5  10  497.55   49.30
   6   5 -10  556.74   55.79
   6   5 -10  532.05   58.99
   6   5 -10  522.45   59.79
  -6   5  10  631.14   53.19
  -6   5  10  559.44   69.59
   6   5 -10  540.15   72.79
   5  -5 -10  -38.70   31.00
  -5  -5  10   26.80   22.90
  -5  -5  10  -18.40   25.90
   5  -5 -10   35.30   31.70
  -5  -5  10  -12.80   24.80
   5  -5 -10  -36.10   52.99
   5   5 -10  -15.60   32.20
   5   5 -10  -15.70   30.10
  -5   5  10   45.70   22.10
   5   5 -10  -28.30   26.20
  -5   5  10   32.30   26.90
   5   5 -10   -8.20   31.10
  -5   5  10   55.79   26.50
  -5   5  10  -13.80   21.00
   4  -5 -10  540.85   57.39
  -4  -5  10  547.75   47.00
   4  -5 -10  525.35   52.89
   4  -5 -10  546.65   54.69
  -4  -5  10  522.85   35.90
  -4  -5  10  475.65   42.90
   4  -5 -10  596.84   57.89
   4   5 -10  489.05   51.49
   4   5 -10  557.24   52.89
   4   5 -10  512.75   50.89
  -4   5  10  515.45   41.30
  -4   5  10  499.95   40.90
  -4   5  10  521.65   48.80
   4   5 -10  511.15   53.09
  -4   5  10  536.35   46.10
   3  -5 -10  226.58   38.50
   3  -5 -10  266.07   39.40
  -3  -5  10  302.07   39.30
  -3  -5  10  254.67   23.20
  -3  -5  10  257.37   31.50
   3  -5 -10  247.58   33.10
  -3  -5  10  323.77   39.60
   3  -5 -10  239.58   34.00
   3   5 -10  244.58   36.30
  -3   5  10  332.77   31.10
   3   5 -10  292.97   40.40
  -3   5  10  284.77   36.80
   3   5 -10  289.37   32.70
   3   5 -10  216.38   32.70
  -3   5  10  217.88   29.20
   2  -5 -10  385.56   42.90
   2  -5 -10  472.75   39.60
  -2  -5  10  423.76   39.20
  -2  -5  10  403.26   33.40
  -2  -5  10  383.56   38.30
   2  -5 -10  389.26   45.70
   2  -5 -10  400.46   48.40
   2   5 -10  405.46   49.00
   2   5 -10  400.46   41.80
  -2   5  10  444.46   40.30
   2   5 -10  393.96   44.40
   2   5 -10  345.97   36.80
  -2   5  10  357.66   27.60
   2   5 -10  459.55   36.80
   1  -5 -10  859.71   64.09
  -1  -5  10  868.61   40.20
   1  -5 -10  784.42   52.29
  -1  -5  10  800.62   49.90
   1  -5 -10  837.22   51.39
   1  -5 -10  802.52   47.30
  -1  -5  10  870.31   48.80
   1   5 -10  857.41   54.49
  -1   5  10  818.42   52.09
   1   5 -10  838.12   47.60
   1   5 -10  853.11   58.59
  -1   5  10  854.51   41.70
   1   5 -10  945.71   45.40
   1   5 -10  925.71   46.30
   0  -5  10   -2.60   16.80
   0  -5  10  -26.80   19.30
   0  -5  10  -11.70   16.30
   0  -5 -10   19.40   18.40
   0  -5 -10   33.00   27.50
   0  -5 -10   -6.70   24.10
   0  -5 -10   -6.80   17.60
   0   5 -10   -5.50   16.10
   0   5 -10  -20.70   20.90
   0   5 -10  -28.70   22.30
   0   5  10   -0.80   20.80
   0   5 -10  -11.90   16.40
   0   5 -10   12.60   18.40
  -1  -5 -10 1249.18   61.69
  -1  -5 -10 1203.18   52.09
  -1  -5 -10 1226.08   53.69
   1  -5  10 1134.19   57.39
  -1  -5 -10 1261.27   71.99
   1  -5  10 1229.38   55.29
   1  -5  10 1152.08   59.89
  -1   5 -10 1269.27   68.79
  -1   5 -10 1171.48   50.29
  -1   5 -10 1157.18   53.79
   1   5  10 1232.98   58.39
  -1   5 -10 1177.88   49.90
   1   5  10 1177.58   47.10
  -1   5 -10 1230.18   65.99
   1   5  10 1178.78   64.79
  -2  -5 -10   43.70   20.20
   2  -5  10   34.60   21.00
  -2  -5 -10   15.80   24.70
   2  -5  10  -26.90   18.10
   2  -5  10   39.00   21.00
  -2  -5 -10  -28.10   19.20
  -2   5 -10   -8.20   29.20
   2   5  10   -5.70   20.90
  -2   5 -10   19.50   21.10
   2   5  10    3.40   20.20
  -2   5 -10    5.20   19.10
  -2   5 -10   19.30   14.50
  -3  -5 -10  719.13   40.50
   3  -5  10  616.74   46.60
  -3  -5 -10  833.92   65.29
  -3  -5 -10  782.32   54.29
   3  -5  10  738.03   49.10
   3   5  10  697.33   57.19
  -3   5 -10  688.83   27.40
  -3   5 -10  772.62   53.89
  -3   5 -10  638.74   58.69
   3   5  10  754.92   46.40
  -3   5 -10  837.72   61.69
   5  -6 -10  802.72   65.19
  -5  -6  10  803.02   59.79
   5  -6 -10  871.51   66.99
  -5  -6  10  843.72   51.29
   5  -6 -10  733.83   60.29
  -5  -6  10  852.31   53.89
  -5  -6  10  794.22   52.29
   5  -6 -10  812.02   69.59
   5   6 -10  690.83   61.79
  -5   6  10  723.83   81.39
  -5   6  10  642.84   62.39
  -5   6  10  863.71   65.59
   5   6 -10  787.12   59.99
   5   6 -10  857.51   64.89
  -5   6  10  796.62   53.49
   4  -6 -10  -18.30   32.50
   4  -6 -10   20.70   38.20
  -4  -6  10   54.19   26.00
   4  -6 -10   -7.50   31.90
  -4  -6  10   16.90   19.70
   4  -6 -10   50.19   30.00
  -4   6  10   10.40   21.90
   4   6 -10   24.20   30.20
  -4   6  10   42.60   26.30
   4   6 -10  -12.70   32.90
   4   6 -10   27.20   34.80
  -4   6  10  -23.00   19.00
  -4   6  10  -27.00   26.50
   4   6 -10   48.60   30.60
  -3  -6  10  925.21   53.29
   3  -6 -10  918.61   68.09
   3  -6 -10  952.60   68.29
   3  -6 -10 1018.50   64.39
   3  -6 -10  975.90   67.49
  -3  -6  10  893.11   53.29
  -3  -6  10  899.61   41.50
  -3   6  10  933.31   45.70
   3   6 -10  969.70   60.19
  -3   6  10  997.00   56.69
   3   6 -10 1053.99   59.59
   3   6 -10  925.61   65.19
   3   6 -10  967.30   61.59
  -3   6  10  952.70   56.59
   2  -6 -10   27.70   26.10
   2  -6 -10   20.10   29.80
  -2  -6  10   -5.80   20.60
  -2  -6  10    7.30   12.60
   2  -6 -10    9.00   30.60
  -2  -6  10   10.00   23.40
  -2  -6  10    9.70   19.20
   2  -6 -10   -6.70   22.80
   2   6 -10    4.20   21.00
   2   6 -10   14.30   27.30
   2   6 -10    1.50   19.80
  -2   6  10    2.20   20.70
   2   6 -10    8.80   27.50
   2   6 -10    0.90   18.90
  -2   6  10    6.00   15.10
  -2   6  10   37.00   23.50
  -1  -6  10  799.82   49.70
   1  -6 -10  812.22   60.59
   1  -6 -10  763.02   48.40
  -1  -6  10  775.22   50.29
  -1  -6  10  839.02   53.79
   1  -6 -10  798.42   53.99
   1  -6 -10  858.81   62.39
   1   6 -10  840.32   49.20
  -1   6  10  794.82   54.09
   1   6 -10  779.22   55.69
  -1   6  10  845.72   44.80
   1   6 -10  839.02   51.19
   1   6 -10  803.82   46.70
   1   6 -10  772.82   59.29
   0  -6 -10    7.20   23.20
   0  -6 -10   -1.40   26.20
   0  -6 -10   -2.80   43.90
   0  -6  10   51.89   22.10
   0  -6  10   -6.00   18.90
   0  -6 -10   46.70   21.90
   0  -6  10   25.00   20.50
   0   6  10   36.30   21.90
   0   6 -10   50.69   29.10
   0   6 -10   19.60   19.30
   0   6 -10   64.29   45.30
   0   6 -10   33.30   20.70
   0   6 -10   32.10   22.60
   1  -6  10  381.46   39.20
  -1  -6 -10  402.86   40.70
   1  -6  10  301.17   37.60
   1  -6  10  432.36   38.70
  -1  -6 -10  407.66   41.60
  -1  -6 -10  251.27   56.79
  -1  -6 -10  392.66   39.20
  -1   6 -10  333.97   33.90
  -1   6 -10  258.77   54.29
   1   6  10  387.46   37.50
  -1   6 -10  419.26   38.70
  -1   6 -10  375.76   46.50
   1   6  10  386.46   33.20
  -1   6 -10  323.17   38.20
   1   6  10  382.66   46.50
  -2  -6 -10  234.88   33.10
   2  -6  10  290.17   38.70
  -2  -6 -10  297.17   32.40
   2  -6  10  317.27   33.80
  -2  -6 -10  247.28   39.90
  -2  -6 -10  301.57   37.80
   2  -6  10  235.78   31.00
  -2   6 -10  273.87   39.90
  -2   6 -10  270.77   34.80
  -2   6 -10  273.87   39.10
   2   6  10  296.67   37.20
  -2   6 -10  301.47   29.60
  -2   6 -10  330.67   36.90
   2   6  10  205.48   33.90
   4  -7 -10 1246.08   76.49
   4  -7 -10 1281.67   77.59
  -4  -7  10 1183.98   67.39
  -4  -7  10 1175.58   67.79
   4  -7 -10 1387.06   71.09
  -4  -7  10 1223.58   60.59
   4  -7 -10 1265.07   75.09
   4   7 -10 1268.67   72.89
  -4   7  10 1298.97   63.79
   4   7 -10 1225.28   74.39
  -4   7  10 1365.66   67.09
   4   7 -10 1197.38   71.99
  -4   7  10 1208.38   69.99
   4   7 -10 1281.77   70.69
   3  -7 -10  130.69   31.50
   3  -7 -10  173.18   39.60
  -3  -7  10  154.48   21.70
   3  -7 -10  159.28   39.60
  -3  -7  10  193.38   31.20
   3  -7 -10  167.38   39.20
  -3  -7  10  149.09   29.00
  -3   7  10  211.28   33.90
   3   7 -10  153.28   32.50
  -3   7  10  162.78   34.50
   3   7 -10  136.39   31.00
   3   7 -10  194.58   34.70
   3   7 -10  189.88   39.10
  -3   7  10  216.78   28.20
  -2  -7  10  754.82   29.20
  -2  -7  10  862.01   53.49
   2  -7 -10  699.93   69.69
   2  -7 -10  781.62   57.89
   2  -7 -10  629.74   67.39
   2  -7 -10  736.33   57.29
   2   7 -10  848.62   55.69
   2   7 -10  790.82   59.59
   2   7 -10  705.33   52.39
  -2   7  10  722.73   53.39
  -2   7  10  733.13   51.99
   2   7 -10  713.43   61.49
   2   7 -10  652.13   65.69
  -2   7  10  691.33   40.00
   1  -7 -10  230.58   39.90
   1  -7 -10  178.08   34.90
   1  -7 -10  201.58   33.80
   1  -7 -10  208.58   38.50
  -1  -7  10  211.38   33.10
  -1  -7  10  246.48   33.70
   1   7 -10  216.68   36.90
  -1   7  10  257.87   28.50
   1   7 -10  201.48   32.10
   1   7 -10  269.07   32.60
  -1   7  10  186.28   32.60
  -1   7  10  236.18   22.00
   1   7 -10  239.88   36.70
   0  -7  10  393.76   41.70
   0  -7 -10  336.57   42.90
   0  -7 -10  277.97   35.10
   0  -7  10  343.87   54.09
   0  -7 -10  407.86   47.50
   0  -7  10  347.47   38.80
   0  -7 -10  375.26   47.40
   0   7 -10  408.76   55.29
   0   7  10  291.97   37.10
   0   7  10  282.87   38.70
   0   7 -10  375.56   45.20
   0   7 -10  346.17   38.90
   0   7 -10  370.76   43.60
   0   7 -10  452.05   46.70
  -1  -7 -10  290.87   39.40
  -1  -7 -10  305.07   45.60
   1  -7  10  208.88   30.00
   1  -7  10  256.27   33.50
  -1  -7 -10  291.77   34.00
  -1  -7 -10  316.17   39.70
   1  -7  10  267.47   35.80
  -1   7 -10  277.37   32.20
  -1   7 -10  248.28   37.20
   1   7  10  309.67   37.60
  -1   7 -10  246.08   36.70
  -1   7 -10  239.58   45.20
   1   7  10  325.67   43.00
  -3  -8  10  101.39   22.80
  -3  -8  10  104.09   27.10
   3  -8 -10   57.39   34.70
   3  -8 -10  164.18   38.60
  -3  -8  10   79.39   49.40
   3  -8 -10  109.69   35.00
   3  -8 -10  129.19   32.20
   3   8 -10  165.08   33.40
   3   8 -10  126.39   33.10
  -3   8  10  113.89   27.50
   3   8 -10  158.48   37.00
  -3   8  10  149.59   35.80
   3   8 -10  139.59   33.70
   3   8 -10  123.29   34.70
  -3   8  10  123.29   25.70
  -2  -8  10   31.40   23.20
   2  -8 -10   44.90   28.70
   2  -8 -10  106.09   37.30
   2  -8 -10   58.99   33.70
  -2  -8  10   93.59   28.40
   2  -8 -10  115.99   45.20
   2   8 -10   59.29   30.60
   2   8 -10   95.39   32.10
  -2   8  10   76.69   31.50
  -2   8  10  123.39   23.40
  -2   8  10   89.79   28.30
   2   8 -10  110.79   31.10
   2   8 -10  104.49   30.30
   2   8 -10   95.09   33.40
   1  -8 -10  101.19   35.40
  -1  -8  10   55.69   25.20
   1  -8 -10   95.89   30.50
  -1  -8  10   80.29   26.50
   1  -8 -10   64.19   36.40
   1   8 -10   78.59   27.00
   1   8 -10  115.89   34.40
   1   8 -10  127.39   33.30
   1   8 -10   38.50   31.10
  -1   8  10  140.89   24.20
  -1   8  10   52.89   27.40
   1   8 -10  108.99   34.30
  -1   8  10  108.59   22.00
   6   0 -11   26.00   29.90
  -6   0  11    2.70   25.10
   6   0 -11   -0.40   31.40
  -6   0  11   -2.50   21.20
   6   0 -11   75.69   32.00
   6   0 -11  -36.40   27.30
  -6   0  11   14.40   29.40
  -6   0  11   13.30   44.40
   6   0 -11   15.50   32.80
  -5   0  11  718.53   51.59
  -5   0  11  728.83   51.19
  -5   0  11  813.22   56.89
   5   0 -11  758.12   56.89
   5   0 -11  772.22   66.09
   5   0 -11  712.83   55.69
  -5   0  11  777.32   47.40
   4   0 -11  -13.30   23.80
  -4   0  11    2.50   23.40
   4   0 -11   21.90   22.70
  -4   0  11   23.40   20.60
   4   0 -11    5.30   23.50
   4   0 -11   -2.20   24.80
  -4   0  11  -11.70   16.90
  -4   0  11   11.00   21.70
  -3   0  11  633.94   30.00
   3   0 -11  651.53   54.49
  -3   0  11  666.03   43.70
  -3   0  11  539.35   45.20
  -3   0  11  658.53   44.60
   3   0 -11  695.33   44.30
   3   0 -11  627.74   48.90
   3   0 -11  647.94   46.40
   2   0 -11    2.10   17.90
   2   0 -11   20.20   19.60
   2   0 -11   53.19   26.80
  -2   0  11  -10.40   15.80
  -2   0  11   45.10   21.70
   2   0 -11   14.70   18.90
   1   0 -11  347.37   36.00
   1   0 -11  277.67   37.60
  -1   0  11  354.26   32.40
  -1   0  11  348.37   38.70
   1   0 -11  301.37   32.70
   1   0 -11  370.46   34.40
   0   0 -11   12.20   15.50
   0   0  11   -8.40   20.20
   0   0 -11   55.59   20.00
   0   0 -11   25.00   16.20
   0   0  11   19.20   16.40
   0   0 -11  -19.10   24.90
   0   0 -11   38.80   25.50
   1   0  11    9.20   16.40
  -1   0 -11  -20.10   18.00
  -1   0 -11   53.79   29.60
   1   0  11  -30.30   19.10
  -1   0 -11   11.30   17.30
  -1   0 -11   -8.00   11.40
  -1   0 -11   -7.20   26.70
  -2   0 -11   12.10    9.00
   2   0  11   22.20   22.00
  -2   0 -11   34.10   19.30
  -2   0 -11   33.00   32.90
   2   0  11    1.50   19.20
  -2   0 -11  -22.40   29.00
   6  -1 -11  900.51   62.69
  -6  -1  11  829.72   56.29
   6  -1 -11  914.01   61.19
  -6  -1  11  808.22   55.99
  -6  -1  11  905.41   65.09
   6  -1 -11  884.81   67.39
   6  -1 -11  913.31   67.79
  -6  -1  11  796.22   82.09
   6  -1 -11  923.51   64.49
  -6   1  11  891.21   44.00
  -6   1  11  942.11   65.59
   6   1 -11  957.40   66.99
   6   1 -11  808.22   60.79
   6   1 -11  916.71   67.89
   6   1 -11  900.11   61.99
  -6   1  11  784.92   55.09
  -5  -1  11  297.77   36.40
   5  -1 -11  351.06   40.30
   5  -1 -11  349.77   40.10
  -5  -1  11  303.87   38.50
  -5  -1  11  257.27   28.70
  -5  -1  11  276.87   38.20
   5  -1 -11  352.06   42.50
   5   1 -11  282.17   41.00
   5   1 -11  307.27   39.60
  -5   1  11  320.87   40.00
  -5   1  11  228.18   29.40
   5   1 -11  299.07   45.70
  -5   1  11  363.86   40.00
  -4  -1  11  560.44   47.70
   4  -1 -11  577.74   49.70
   4  -1 -11  628.24   55.79
  -4  -1  11  614.24   48.90
  -4  -1  11  571.34   35.50
   4  -1 -11  445.46   49.00
   4  -1 -11  496.25   46.10
   4  -1 -11  536.75   54.09
  -4  -1  11  501.75   43.40
  -4   1  11  509.45   45.30
  -4   1  11  516.25   34.90
  -4   1  11  547.25   46.10
   4   1 -11  561.24   52.49
   4   1 -11  531.45   53.99
   4   1 -11  536.65   49.80
   4   1 -11  525.95   47.50
  -4   1  11  551.24   43.80
  -3  -1  11  508.65   46.30
   3  -1 -11  471.55   54.09
   3  -1 -11  549.15   51.39
  -3  -1  11  617.94   27.90
  -3  -1  11  557.94   42.50
   3  -1 -11  551.04   42.00
   3  -1 -11  616.04   43.30
   3  -1 -11  546.95   48.30
  -3  -1  11  611.84   44.70
   3   1 -11  553.24   47.10
   3   1 -11  541.75   53.49
  -3   1  11  567.74   29.50
  -3   1  11  556.64   41.30
   3   1 -11  531.25   47.30
  -3   1  11  431.76   43.50
   3   1 -11  516.25   40.40
  -2  -1  11   48.30   21.70
   2  -1 -11   39.50   20.80
   2  -1 -11   36.00   27.20
  -2  -1  11   32.90   17.40
   2  -1 -11   67.79   27.60
   2  -1 -11   81.39   20.20
  -2  -1  11   69.79   23.00
   2  -1 -11   97.79   21.80
  -2   1  11   63.49   18.90
  -2   1  11   54.79   17.80
   2   1 -11   48.70   20.50
   2   1 -11   22.60   20.70
   2   1 -11   63.69   30.30
  -2   1  11   50.89   23.60
   2   1 -11   39.40   20.70
   1  -1 -11  738.73   54.79
   1  -1 -11  801.62   42.80
   1  -1 -11  765.22   44.20
  -1  -1  11  662.83   50.49
   1  -1 -11  724.53   59.39
   1  -1 -11  717.73   41.20
  -1  -1  11  698.23   41.70
   1   1 -11  818.32   54.09
  -1   1  11  701.33   52.29
   1   1 -11  687.03   43.00
   1   1 -11  757.72   45.50
   1   1 -11  746.93   41.50
  -1   1  11  752.32   42.20
   0  -1  11   21.30   16.80
   0  -1 -11   31.70   16.10
   0  -1 -11   34.10   27.20
   0  -1  11   64.79   24.10
   0  -1 -11   55.69   19.60
   0  -1 -11   -3.20   29.40
   0  -1 -11   32.40   15.80
   0   1  11   16.60   19.30
   0   1 -11   55.89   17.50
   0   1 -11   40.80   17.10
   0   1 -11   31.70   19.80
   0   1 -11   21.00   26.70
   0   1  11   19.30   16.50
   1  -1  11  417.36   33.60
  -1  -1 -11  388.96   36.10
   1  -1  11  394.36   40.80
  -1  -1 -11  357.96   40.30
  -1  -1 -11  432.06   33.50
  -1  -1 -11  450.25   51.29
  -1  -1 -11  427.06   27.70
   1   1  11  411.66   33.80
   1   1  11  442.56   42.60
  -1   1 -11  398.26   26.70
  -1   1 -11  429.26   38.70
  -1   1 -11  389.26   44.10
  -1   1 -11  465.25   34.90
  -2  -1 -11  281.37   26.60
  -2  -1 -11  274.77   41.80
   2  -1  11  194.58   30.70
  -2  -1 -11  253.97   37.50
   2  -1  11  285.87   32.10
  -2  -1 -11  268.77   18.60
  -2   1 -11  269.47   38.40
  -2   1 -11  242.68   15.80
   2   1  11  289.77   31.10
   2   1  11  197.58   31.00
  -2   1 -11  247.68   27.10
  -2   1 -11  215.58   40.60
   6  -2 -11   63.29   35.60
  -6  -2  11  -40.90   30.40
  -6  -2  11  -14.10   29.80
  -6  -2  11   37.00   21.20
   6  -2 -11   -4.30   28.40
   6  -2 -11   32.00   32.10
   6  -2 -11   83.39   34.00
  -6   2  11   -7.10   33.20
  -6   2  11   17.80   21.90
   6   2 -11   67.69   32.10
   6   2 -11   40.60   31.10
  -6   2  11   49.10   32.30
   6   2 -11    8.30   29.90
  -6   2  11   25.30   20.80
   6   2 -11   17.90   31.30
   5  -2 -11    7.40   41.70
   5  -2 -11  -33.80   25.50
   5  -2 -11  -36.30   37.60
   5  -2 -11   -8.30   24.60
  -5  -2  11   13.80   20.60
  -5  -2  11   -3.20   28.00
  -5  -2  11   17.60   21.70
  -5   2  11   -4.80   27.80
  -5   2  11  -11.30   22.40
  -5   2  11   10.40   16.70
   5   2 -11   36.40   50.39
   5   2 -11   38.50   35.40
   5   2 -11   17.80   31.10
  -5   2  11   60.09   25.30
   4  -2 -11  316.27   43.00
  -4  -2  11  329.97   37.40
   4  -2 -11  388.16   41.60
  -4  -2  11  325.27   31.60
   4  -2 -11  286.67   38.00
   4  -2 -11  352.06   37.70
  -4  -2  11  355.26   41.10
   4  -2 -11  361.46   44.60
  -4  -2  11  339.27   37.40
   4   2 -11  318.87   42.30
   4   2 -11  319.47   37.60
   4   2 -11  301.27   41.30
   4   2 -11  377.26   41.90
  -4   2  11  378.36   41.00
  -4   2  11  287.77   26.30
   3  -2 -11  -16.00   24.10
   3  -2 -11  -12.80   17.70
  -3  -2  11   48.10   22.60
  -3  -2  11  -11.40   12.00
  -3  -2  11  -17.90   19.80
   3  -2 -11   29.60   28.40
   3  -2 -11   35.40   22.60
  -3  -2  11    7.50   22.10
   3  -2 -11   29.20   28.00
  -3   2  11   33.10   30.60
   3   2 -11    1.90   23.20
   3   2 -11    2.20   18.80
  -3   2  11   10.50   13.50
   3   2 -11   -0.40   23.50
   3   2 -11  -21.80   25.70
  -3   2  11   13.50   20.60
   2  -2 -11 1157.48   53.99
  -2  -2  11  929.61   50.29
  -2  -2  11 1082.29   46.20
   2  -2 -11  997.60   56.09
   2  -2 -11  951.50   64.99
   2  -2 -11 1059.69   61.59
   2  -2 -11  997.20   49.00
  -2  -2  11  957.80   55.99
   2   2 -11 1022.00   64.19
  -2   2  11 1106.29   46.10
   2   2 -11 1034.50   56.39
  -2   2  11 1007.20   58.69
   2   2 -11 1036.10   55.59
   2   2 -11 1034.50   50.99
  -2   2  11  969.50   49.80
   1  -2 -11   15.20   26.10
   1  -2 -11   13.10   17.30
   1  -2 -11   49.50   19.40
   1  -2 -11   48.90   29.50
  -1  -2  11   29.20   23.20
   1  -2 -11   34.70   18.90
  -1  -2  11   29.60   18.70
   1   2 -11   -1.60   16.80
   1   2 -11   31.10   18.50
  -1   2  11   -3.40   17.40
   1   2 -11    8.80   27.90
   1   2 -11   52.79   22.90
  -1   2  11    7.00   20.50
   0  -2  11 2178.18   76.79
   0  -2 -11 2242.98   75.29
   0  -2 -11 2256.97   92.79
   0  -2  11 2182.98   87.19
   0  -2 -11 2423.26   74.59
   0  -2 -11 2265.87   87.09
   0  -2 -11 2275.47   71.09
   0   2 -11 2256.57   71.79
   0   2  11 2139.69   89.19
   0   2 -11 2238.28   72.99
   0   2 -11 2280.77   89.89
   0   2 -11 2240.28   80.89
   0   2  11 2242.38   74.59
  -1  -2 -11   23.50   19.90
  -1  -2 -11   19.90   16.90
  -1  -2 -11  -10.70   26.30
  -1  -2 -11   21.10   32.20
  -1  -2 -11    2.20   14.90
   1  -2  11   13.20   19.60
   1  -2  11    5.30   17.10
  -1   2 -11   13.60   21.30
  -1   2 -11   25.20   18.40
   1   2  11    9.00   20.10
  -1   2 -11   -5.60   12.30
  -1   2 -11    4.20   26.50
   1   2  11  -19.80   16.80
  -2  -2 -11 1961.60   81.09
   2  -2  11 1791.02   80.69
  -2  -2 -11 2036.00   68.39
   2  -2  11 1944.71   68.39
  -2  -2 -11 1850.51   54.79
  -2   2 -11 1859.61   74.09
  -2   2 -11 1958.70   87.09
   2   2  11 1939.51   63.29
   2   2  11 1687.13   83.29
  -2   2 -11 1887.81   49.80
   6  -3 -11  839.72   63.19
   6  -3 -11  773.32   87.49
  -6  -3  11  729.73   53.49
  -6  -3  11  782.82   62.39
   6  -3 -11  684.23   66.99
   6  -3 -11  650.23   64.99
  -6  -3  11  767.72   57.19
  -6  -3  11  844.02   68.39
  -6   3  11  679.83   54.39
   6   3 -11  658.43   62.19
  -6   3  11  813.52   70.69
   6   3 -11  819.02   65.29
   6   3 -11  691.63   61.19
   6   3 -11  732.43   67.09
  -6   3  11  685.53   52.79
  -6   3  11  729.73   48.30
  -5  -3  11  244.28   32.80
   5  -3 -11  302.17   43.80
  -5  -3  11  331.27   42.90
   5  -3 -11  302.37   40.90
  -5  -3  11  239.28   36.70
  -5  -3  11  288.77   31.80
   5  -3 -11  285.07   39.90
  -5   3  11  293.97   34.60
   5   3 -11  283.17   59.29
  -5   3  11  296.17   40.00
   5   3 -11  300.97   42.30
  -5   3  11  330.97   34.50
   5   3 -11  240.18   38.90
   4  -3 -11  322.97   42.20
  -4  -3  11  224.48   31.70
  -4  -3  11  312.47   40.50
   4  -3 -11  257.17   56.79
  -4  -3  11  346.07   36.70
   4  -3 -11  290.87   39.70
   4  -3 -11  333.07   66.79
  -4  -3  11  319.57   30.40
   4   3 -11  299.97   41.90
   4   3 -11  254.47   41.50
  -4   3  11  333.37   39.90
  -4   3  11  280.17   27.20
  -4   3  11  310.37   36.70
   4   3 -11  335.97   39.80
   4   3 -11  302.47   41.00
   3  -3 -11 1116.89   53.39
   3  -3 -11 1048.50   60.39
  -3  -3  11 1077.29   38.10
   3  -3 -11 1045.40   66.89
  -3  -3  11 1055.59   57.29
  -3  -3  11 1074.49   58.19
   3  -3 -11 1042.30   58.39
   3  -3 -11 1115.99   68.59
  -3  -3  11 1033.40   61.89
  -3   3  11 1086.09   42.50
   3   3 -11 1058.89   63.49
   3   3 -11 1051.99   56.09
  -3   3  11 1028.70   59.19
   3   3 -11 1096.89   60.89
   3   3 -11 1095.69   63.59
  -3   3  11 1017.30   55.69
  -2  -3  11   28.10   21.50
   2  -3 -11   52.29   19.40
   2  -3 -11   37.80   22.50
   2  -3 -11   22.80   26.20
  -2  -3  11   52.79   21.90
  -2  -3  11   61.29   19.00
   2  -3 -11   29.40   24.60
   2  -3 -11   46.50   32.00
  -2   3  11   18.70   19.80
   2   3 -11   27.70   24.30
   2   3 -11   12.20   26.10
   2   3 -11   16.90   20.10
  -2   3  11   14.10   17.40
   2   3 -11  117.29   30.30
   1  -3 -11  998.00   52.89
   1  -3 -11 1119.59   52.49
  -1  -3  11  983.30   50.99
   1  -3 -11 1073.89   45.50
   1  -3 -11 1036.20   66.99
   1  -3 -11 1056.69   63.29
  -1  -3  11  991.90   57.49
  -1   3  11  970.70   58.59
   1   3 -11 1083.79   58.59
   1   3 -11  931.81   50.99
  -1   3  11  973.30   48.30
   1   3 -11 1038.00   49.90
   1   3 -11  940.71   60.49
   0  -3 -11   15.80   27.50
   0  -3  11   40.30   20.80
   0  -3 -11   22.00   15.80
   0  -3  11   15.40   16.30
   0  -3 -11   33.40   19.40
   0  -3 -11  -16.90   28.20
   0   3 -11   20.80   16.90
   0   3 -11   70.89   30.20
   0   3 -11   33.80   15.40
   0   3  11   41.60   22.60
   0   3 -11   55.59   18.80
   0   3  11   57.79   18.60
   0   3 -11   28.30   25.00
   1  -3  11  886.31   47.80
  -1  -3 -11  890.31   86.09
  -1  -3 -11  994.80   45.30
  -1  -3 -11 1013.10   49.50
   1  -3  11  952.80   57.59
  -1  -3 -11  977.00   60.09
  -1   3 -11 1023.40   57.49
  -1   3 -11 1056.29   43.10
  -1   3 -11 1043.50   45.80
   1   3  11  927.91   44.40
  -1   3 -11  876.11   65.79
  -1   3 -11  985.20   43.10
   1   3  11  875.31   59.99
  -2  -3 -11  303.37   46.80
  -2  -3 -11  321.57   35.70
  -2  -3 -11  308.67   38.90
   2  -3  11  357.86   33.70
  -2  -3 -11  393.26   28.20
   2  -3  11  298.97   39.70
  -2   3 -11  352.76   35.60
  -2   3 -11  371.66   72.49
   2   3  11  358.96   44.40
  -2   3 -11  417.16   50.79
  -2   3 -11  345.87   21.20
  -5  -4  11 1243.68   72.39
   5  -4 -11 1319.17   77.19
  -5  -4  11 1323.67   72.29
  -5  -4  11 1363.76   63.09
  -5  -4  11 1307.07   70.09
   5  -4 -11 1335.47   73.89
   5  -4 -11 1328.07   71.49
  -5   4  11 1257.67   64.79
   5   4 -11 1315.87   72.49
   5   4 -11 1189.18   72.89
   5   4 -11 1392.76   74.69
  -5   4  11 1264.97   56.79
   5   4 -11 1431.66   74.69
  -5   4  11 1384.86   68.89
  -5   4  11 1242.68   70.39
  -4  -4  11    1.80   17.00
   4  -4 -11  -22.80   29.70
  -4  -4  11   20.00   27.30
   4  -4 -11   -3.40   31.70
   4  -4 -11   41.20   34.10
   4  -4 -11  -16.60   30.30
  -4  -4  11   24.80   20.90
  -4   4  11   25.40   20.60
  -4   4  11  -45.60   25.70
   4   4 -11   38.70   29.60
   4   4 -11   27.50   29.20
  -4   4  11   -4.80   22.20
   3  -4 -11  785.62   63.19
   3  -4 -11  879.11   57.89
  -3  -4  11  815.32   52.29
  -3  -4  11  851.61   34.50
  -3  -4  11  775.32   55.49
   3  -4 -11  888.51   67.59
   3  -4 -11  982.30   64.49
  -3   4  11  812.62   39.50
  -3   4  11  870.41   52.99
   3   4 -11  820.52   71.09
   3   4 -11  791.22   60.59
   3   4 -11  767.62   55.99
  -3   4  11  856.61   54.69
   3   4 -11  886.51   52.49
   2  -4 -11   40.60   24.00
   2  -4 -11   15.60   28.90
   2  -4 -11   52.39   26.40
  -2  -4  11   43.50   21.80
  -2  -4  11   43.10   22.60
   2  -4 -11    8.40   29.10
   2   4 -11   96.19   22.70
  -2   4  11   47.40   23.00
  -2   4  11   81.29   20.90
   2   4 -11   90.29   31.40
   2   4 -11   73.99   27.80
   2   4 -11   61.49   24.60
  -1  -4  11   92.49   26.70
   1  -4 -11  166.68   25.60
   1  -4 -11  115.69   36.80
  -1  -4  11   98.59   24.20
   1  -4 -11  103.09   24.60
   1  -4 -11  122.89   36.70
   1   4 -11  114.09   19.30
   1   4 -11  122.09   35.60
  -1   4  11   84.49   21.80
  -1   4  11   73.39   25.10
   1   4 -11  121.09   27.20
   1   4 -11  115.99   23.10
   1   4 -11  174.38   35.50
   0  -4 -11   90.69   33.80
   0  -4 -11   74.09   22.40
   0  -4  11   71.19   21.70
   0  -4 -11  115.19   24.30
   0  -4  11   59.49   22.20
   0   4  11   85.89   21.90
   0   4  11   73.39   26.00
   0   4 -11   69.29   30.40
   0   4 -11   45.10   22.50
   0   4 -11   93.39   19.80
   0   4 -11   82.79   22.40
  -1  -4 -11    9.40   31.10
   1  -4  11   51.89   20.80
   1  -4  11   61.49   24.60
  -1  -4 -11   31.70   32.90
  -1  -4 -11   74.59   24.80
  -1  -4 -11   74.39   21.10
  -1   4 -11    0.50   20.10
   1   4  11   76.89   26.60
   1   4  11   55.89   20.10
  -1   4 -11   13.70   30.20
  -1   4 -11   43.20   18.60
  -1   4 -11   89.09   29.70
  -1   4 -11   55.89   21.30
  -2  -4 -11    6.00   23.30
  -2  -4 -11   63.39   21.60
   2  -4  11   60.69   22.70
   2  -4  11   12.70   21.10
  -2  -4 -11   82.69   34.80
  -2  -4 -11   21.50   30.30
  -2   4 -11   71.69   33.90
  -2   4 -11   60.09   15.00
  -2   4 -11   54.69   25.00
   2   4  11   29.10   31.90
   2   4  11   27.30   25.40
   5  -5 -11  143.29   39.70
  -5  -5  11  135.69   30.70
  -5  -5  11  105.69   31.30
  -5  -5  11  120.79   36.50
   5  -5 -11  208.18   40.40
   5  -5 -11  129.09   37.70
   5  -5 -11   95.49   33.00
  -5   5  11  128.59   26.80
   5   5 -11  116.09   33.30
   5   5 -11  166.38   38.90
   5   5 -11   78.59   31.60
  -5   5  11  129.09   37.40
  -5   5  11   83.59   25.50
   5   5 -11  119.19   34.30
  -4  -5  11  610.34   55.39
   4  -5 -11  539.45   54.49
  -4  -5  11  569.64   50.39
   4  -5 -11  577.24   59.19
   4  -5 -11  608.64   61.29
  -4  -5  11  509.75   47.50
  -4  -5  11  581.84   40.10
  -4   5  11  548.15   46.60
  -4   5  11  511.95   49.30
   4   5 -11  542.25   52.99
   4   5 -11  673.13   57.69
   4   5 -11  623.14   65.09
  -4   5  11  524.65   54.29
   4   5 -11  433.86   51.09
   3  -5 -11  646.14   58.79
   3  -5 -11  775.82   57.99
  -3  -5  11  721.63   52.49
   3  -5 -11  666.33   54.69
  -3  -5  11  634.54   75.59
  -3  -5  11  722.53   54.69
  -3  -5  11  695.43   33.60
   3  -5 -11  627.64   68.39
  -3   5  11  607.04   38.00
   3   5 -11  723.03   55.19
  -3   5  11  618.34   49.80
   3   5 -11  756.92   59.39
   3   5 -11  674.33   53.99
   3   5 -11  643.44   53.99
  -3   5  11  679.23   52.19
   2  -5 -11  193.48   32.10
   2  -5 -11  193.28   56.79
   2  -5 -11  136.59   40.00
  -2  -5  11  173.68   35.70
  -2  -5  11  130.09   28.20
   2  -5 -11  162.78   43.60
  -2   5  11  179.48   20.20
   2   5 -11  161.88   47.90
   2   5 -11  227.98   38.90
   2   5 -11  189.28   30.50
  -2   5  11  167.18   30.10
   1  -5 -11  503.15   57.99
   1  -5 -11  401.26   50.89
   1  -5 -11  542.15   44.00
  -1  -5  11  366.36   42.70
  -1  -5  11  468.35   40.00
   1   5 -11  435.96   37.90
   1   5 -11  456.15   46.20
   1   5 -11  441.26   41.50
   1   5 -11  379.06   50.29
  -1   5  11  474.45   45.50
   1   5 -11  371.66   46.00
   0  -5 -11   74.79   23.50
   0  -5  11   99.39   25.00
   0  -5 -11   66.09   31.50
   0  -5 -11   74.19   35.90
   0  -5  11  101.99   26.60
   0  -5 -11   37.60   29.80
   0   5  11   79.49   20.50
   0   5 -11   66.89   24.10
   0   5  11   70.09   27.00
   0   5 -11   43.40   22.10
   0   5 -11   75.19   22.50
   0   5 -11  106.89   30.80
   0   5 -11   50.79   44.80
   1  -5  11  214.08   30.70
  -1  -5 -11  259.47   41.70
   1  -5  11  261.97   35.80
   1  -5  11  166.38   27.80
  -1  -5 -11  249.38   41.20
  -1  -5 -11  245.68   31.10
   1   5  11  193.18   34.20
  -1   5 -11  189.88   36.40
   1   5  11  284.07   33.30
  -1   5 -11  288.47   31.70
  -1   5 -11  234.78   27.80
  -1   5 -11  188.48   38.50
  -1   5 -11  285.67   31.00
   4  -6 -11  215.68   40.90
  -4  -6  11  203.88   26.80
   4  -6 -11  210.38   40.40
  -4  -6  11  209.08   35.20
   4  -6 -11  268.17   41.10
  -4  -6  11  166.98   29.80
   4  -6 -11  122.19   33.80
  -4  -6  11  194.98   36.00
   4   6 -11  229.18   37.60
  -4   6  11  234.08   31.20
  -4   6  11  203.38   37.70
   4   6 -11  246.58   39.00
  -4   6  11  215.68   32.90
   4   6 -11  227.38   41.30
   4   6 -11  257.07   40.10
   3  -6 -11   69.99   28.10
  -3  -6  11   51.89   22.60
  -3  -6  11   82.69   18.40
   3  -6 -11  112.69   36.40
   3  -6 -11   -4.70   29.90
  -3  -6  11   72.09   31.20
  -3   6  11   58.79   21.30
   3   6 -11   88.49   29.20
   3   6 -11   86.39   32.70
   3   6 -11   61.69   31.30
   3   6 -11   57.89   31.90
  -3   6  11   79.69   27.30
  -3   6  11   -4.20   28.80
   2  -6 -11  892.51   70.79
   2  -6 -11 1088.79   71.59
   2  -6 -11  974.10   59.29
  -2  -6  11 1018.50   61.79
   2  -6 -11  997.00   65.39
  -2  -6  11  981.90   58.69
   2   6 -11 1027.90   60.49
  -2   6  11 1104.89   62.99
   2   6 -11 1140.69   69.89
   2   6 -11 1022.40   54.69
  -2   6  11 1026.50   38.40
   2   6 -11  999.30   61.59
   2   6 -11  978.30   62.79
   1  -6 -11   19.10   30.40
  -1  -6  11   19.50   21.70
   1  -6 -11   13.00   22.00
   1  -6 -11   11.00   26.80
  -1  -6  11   13.90   19.10
  -1   6  11   24.20   22.00
   1   6 -11   28.40   23.50
   1   6 -11   11.40   26.20
   1   6 -11    8.00   23.60
   1   6 -11   34.70   22.90
   1   6 -11   16.00   28.50
   0  -6 -11 1751.22   73.19
   0  -6 -11 1645.04   70.49
   0  -6  11 1698.03   72.89
   0  -6 -11 1616.54   86.89
   0  -6  11 1626.54   76.29
   0  -6  11 1687.73   74.69
   0  -6 -11 1617.34   85.49
   0   6  11 1648.04   63.29
   0   6 -11 1604.44   80.59
   0   6 -11 1668.63   68.89
   0   6 -11 1603.34   80.09
   0   6 -11 1790.42   80.99
   0   6 -11 1681.93   69.09
   0   6  11 1786.72   82.59
   5   0 -12   60.59   30.60
  -5   0  12  -13.40   27.10
  -5   0  12    9.10   21.10
   5   0 -12  -35.70   27.80
   5   0 -12  -14.10   30.60
   5   0 -12  -24.80   28.80
  -5   0  12  -23.10   32.30
   5   0 -12   18.90   28.80
  -4   0  12 1766.42   58.99
   4   0 -12 1759.22   78.69
  -4   0  12 1728.13   83.99
   4   0 -12 1631.34   80.49
   4   0 -12 1727.33   83.79
  -4   0  12 1661.83   75.49
   4   0 -12 1887.81   81.59
  -4   0  12 1620.04   78.59
   3   0 -12   32.50   25.30
  -3   0  12  -31.50   21.20
   3   0 -12   25.30   29.00
   3   0 -12   10.10   30.60
   3   0 -12   61.29   31.00
  -3   0  12  -16.20   21.00
   2   0 -12 1802.22  121.69
   2   0 -12 2016.80   74.49
  -2   0  12 1853.31   84.29
   2   0 -12 1984.80   77.09
   2   0 -12 2056.69   81.39
  -2   0  12 1969.30   76.29
  -1   0  12    7.80   21.50
  -1   0  12   22.20   20.20
   1   0 -12    1.30   21.20
   1   0 -12  -30.60   19.90
   1   0 -12   -5.20   28.60
   1   0 -12   -0.40   22.20
   0   0 -12 1068.49   53.79
   0   0  12 1092.89   65.59
   0   0 -12 1150.88   53.59
   0   0 -12 1183.58   71.79
   0   0  12 1124.39   51.59
   0   0 -12 1201.08   55.99
   1   0  12   12.80   20.70
  -1   0 -12   44.10   23.60
  -1   0 -12   -5.30   38.10
   1   0  12    1.70   19.80
  -1   0 -12   35.00   30.80
  -1   0 -12   13.40   16.60
   5  -1 -12  689.53   61.39
   5  -1 -12  712.93   64.09
   5  -1 -12  607.74   60.89
  -5  -1  12  651.53   51.49
   5  -1 -12  671.03   61.19
  -5  -1  12  709.83   62.09
  -5  -1  12  573.54   51.39
   5  -1 -12  719.83   59.09
   5   1 -12  611.04   64.49
  -5   1  12  530.95   60.49
   5   1 -12  640.64   59.59
   5   1 -12  645.24   63.59
  -5   1  12  639.34   50.09
   5   1 -12  531.55   55.49
  -5   1  12  539.45   50.29
  -4  -1  12    8.90   23.60
  -4  -1  12   31.70   18.00
   4  -1 -12   44.20   33.00
   4  -1 -12   36.70   25.50
  -4  -1  12   29.50   30.00
   4  -1 -12   48.00   33.30
  -4  -1  12   18.50   22.50
   4  -1 -12   47.30   29.20
   4  -1 -12   46.50   27.70
   4   1 -12    2.70   24.60
  -4   1  12   19.60   26.00
   4   1 -12   16.60   29.10
  -4   1  12   38.20   18.20
  -4   1  12   -2.30   22.00
   4   1 -12   -1.10   29.00
   3  -1 -12 1032.50   60.79
   3  -1 -12 1121.59   68.39
  -3  -1  12  922.01   55.49
   3  -1 -12 1050.99   60.39
   3  -1 -12  936.91   65.39
   3  -1 -12 1056.79   70.69
  -3  -1  12 1050.39   63.39
   3   1 -12  985.90   66.59
  -3   1  12  981.90   61.29
  -3   1  12 1017.80   55.29
   3   1 -12  993.60   65.29
   3   1 -12 1124.49   61.09
   3   1 -12  937.51   62.09
  -2  -1  12  203.28   32.90
   2  -1 -12  252.07   31.70
   2  -1 -12  246.58   40.50
   2  -1 -12  198.88   29.20
  -2  -1  12  208.18   32.10
   2  -1 -12  222.98   36.50
  -2   1  12  274.07   38.00
   2   1 -12  270.27   35.50
   2   1 -12  218.68   35.30
   2   1 -12  224.98   46.70
  -2   1  12  203.88   28.50
   2   1 -12  273.47   31.20
   1  -1 -12  827.52   50.89
  -1  -1  12  765.12   54.39
   1  -1 -12  819.42   47.60
   1  -1 -12  829.62   65.09
  -1  -1  12  785.52   48.30
   1  -1 -12  848.32   49.90
   1   1 -12  805.72   54.59
   1   1 -12  721.73   77.69
   1   1 -12  813.62   48.40
  -1   1  12  709.13   52.79
  -1   1  12  838.02   46.50
   1   1 -12  809.82   51.29
   0  -1 -12  357.46   44.20
   0  -1 -12  307.47   36.70
   0  -1 -12  301.67   36.50
   0  -1 -12  347.57   35.40
   0  -1  12  316.57   42.70
   0  -1  12  326.97   36.50
   0   1  12  298.87   34.90
   0   1 -12  324.27   38.80
   0   1 -12  382.56   52.29
   0   1 -12  347.67   37.60
   0   1  12  324.37   41.70
   0   1 -12  420.76   46.10
   1  -1  12   87.29   27.10
  -1  -1 -12  131.59   25.40
  -1  -1 -12   60.59   34.60
  -1  -1 -12   96.19   21.00
   1  -1  12   93.49   22.80
  -1   1 -12   59.39   33.30
   1   1  12  143.79   30.20
  -1   1 -12   49.80   34.10
  -1   1 -12  120.39   19.50
  -1   1 -12  120.89   28.90
   1   1  12  122.89   23.00
   4  -2 -12   39.70   29.10
   4  -2 -12  -10.20   31.40
   4  -2 -12  -40.30   27.00
  -4  -2  12   28.30   26.40
  -4  -2  12   -1.40   17.60
   4  -2 -12   43.10   34.40
   4  -2 -12   66.29   30.90
  -4  -2  12    2.40   22.50
  -4  -2  12   10.80   30.20
   4   2 -12  -15.10   29.50
   4   2 -12   -9.20   30.20
  -4   2  12   19.30   29.10
   4   2 -12   22.80   32.80
   4   2 -12   54.29   28.70
  -4   2  12   33.30   21.00
  -4   2  12    8.70   19.10
  -4   2  12   22.10   21.90
   3  -2 -12  155.78   35.80
   3  -2 -12  104.59   26.80
  -3  -2  12  144.09   33.40
   3  -2 -12  121.89   30.40
   3  -2 -12  160.18   35.50
   3  -2 -12  175.68   34.80
   3   2 -12  163.38   31.10
  -3   2  12  113.29   25.20
  -3   2  12  180.98   31.30
   3   2 -12  233.28   36.60
   3   2 -12  200.48   39.50
   3   2 -12  141.79   35.70
   2  -2 -12   12.20   37.10
  -2  -2  12   27.30   21.60
  -2  -2  12   53.69   21.20
   2  -2 -12   58.59   21.60
   2  -2 -12   41.50   28.80
   2  -2 -12   29.50   24.00
   2   2 -12  -10.80   27.50
  -2   2  12   44.20   26.10
  -2   2  12  -23.40   18.60
   2   2 -12   60.39   24.40
   2   2 -12   20.20   28.20
   1  -2 -12   93.19   22.30
   1  -2 -12  162.28   34.90
   1  -2 -12  142.39   26.40
   1  -2 -12  107.19   25.30
  -1  -2  12  128.49   25.40
  -1  -2  12   98.69   26.90
  -1   2  12  103.69   22.50
   1   2 -12  111.09   32.80
  -1   2  12  127.89   30.00
   1   2 -12  114.99   25.90
   1   2 -12  161.78   34.90
   1   2 -12  109.99   29.20
   0  -2  12   13.80   21.60
   0  -2 -12    7.50   21.40
   0  -2 -12   75.19   22.40
   0  -2  12   35.70   22.20
   0  -2 -12   72.69   25.60
   0  -2 -12   24.10   31.20
   0   2 -12   29.20   29.60
   0   2 -12   36.90   31.10
   0   2 -12   -3.50   22.40
   0   2  12   70.39   21.20
   0   2  12   33.50   23.70
   0   2 -12   36.60   20.20
  -1  -2 -12 1131.99   74.89
   1  -2  12 1198.08   66.19
  -1  -2 -12 1309.67   68.99
  -1   2 -12 1326.07   76.39
   1   2  12 1191.98   68.79
   4  -3 -12   21.80   30.10
   4  -3 -12   77.79   34.00
   4  -3 -12   77.79   29.30
  -4  -3  12   26.10   26.50
  -4  -3  12   49.50   19.40
  -4   3  12   57.19   35.30
   4   3 -12   45.30   33.40
   4   3 -12   26.40   31.70
  -4   3  12   47.10   24.00
   4   3 -12   17.20   28.60
  -4   3  12  101.99   22.30
  -3  -3  12  340.37   42.80
   3  -3 -12  336.07   44.50
   3  -3 -12  325.57   45.70
  -3  -3  12  399.06   42.10
   3  -3 -12  389.46   42.80
   3  -3 -12  307.67   36.80
  -3   3  12  354.56   34.40
  -3   3  12  372.46   39.00
   3   3 -12  323.87   37.80
   3   3 -12  363.46   44.60
  -3   3  12  341.77   43.20
   3   3 -12  400.26   48.00
   3   3 -12  283.87   39.50
   2  -3 -12  131.69   25.60
   2  -3 -12  137.89   30.70
  -2  -3  12  118.29   29.60
   2  -3 -12  125.59   36.90
   2  -3 -12   94.09   26.60
   2  -3 -12  125.29   32.00
   2   3 -12   92.69   31.10
  -2   3  12  101.49   25.70
   2   3 -12  157.68   28.80
  -2   3  12   95.89   27.50
   2   3 -12  138.49   43.50
   2   3 -12   71.39   33.80
   1  -3 -12  380.96   38.90
   1  -3 -12  431.66   55.09
  -1  -3  12  378.56   43.60
  -1  -3  12  365.26   38.80
   1  -3 -12  359.06   53.79
   1  -3 -12  434.56   42.60
  -1   3  12  371.96   44.80
  -1   3  12  402.06   37.70
   1   3 -12  362.26   43.70
   1   3 -12  286.07   52.39
   1   3 -12  416.26   41.90
   1   3 -12  380.86   44.50
   0  -3 -12  523.85   50.29
   0  -3 -12  440.66   77.09
   0  -3 -12  577.94   42.20
   0  -3  12  460.75   47.00
   0  -3  12  596.34   44.20
   0  -3 -12  475.55   57.39
   0   3  12  593.44   39.20
   0   3  12  580.74   51.89
   0   3 -12  663.43   60.69
   0   3 -12  651.13   45.40
   0   3 -12  583.34   57.99
   0   3 -12  596.54   46.40
  -3  -4  12   10.80   21.00
   3  -4 -12  -54.29   23.10
   3  -4 -12  -11.00   31.40
   3  -4 -12   -9.80   32.50
   3  -4 -12  -15.10   32.60
   3   4 -12   16.10   33.80
   3   4 -12  -19.70   26.20
  -3   4  12   23.80   21.50
   3   4 -12  -25.90   28.10
  -3   4  12   16.20   21.50
   3   4 -12    7.10   30.70
  -2  -4  12 2052.29   89.89
   2  -4 -12 2080.59   88.79
   2  -4 -12 2076.99   95.69
   2  -4 -12 2203.78   95.19
   2  -4 -12 1994.40   83.69
  -2  -4  12 1953.40   83.09
   2   4 -12 2225.98   85.69
   2   4 -12 2064.09   83.49
  -2   4  12 2080.19   90.59
  -2   4  12 2043.90   78.09
   2   4 -12 2142.39   93.89
   2   4 -12 2039.50   88.99
  -1  -4  12   36.40   24.20
  -1  -4  12   45.30   21.80
   1  -4 -12   37.80   33.10
   1  -4 -12   23.60   22.50
   1  -4 -12   32.00   28.40
   1  -4 -12   12.00   31.30
  -1   4  12   57.59   26.30
  -1   4  12   29.80   20.20
   1   4 -12   29.40   23.80
   1   4 -12   20.40   29.10
   1   4 -12   66.89   25.90
   1   4 -12   -7.00   29.00
   0   0   0    0.00    0.00

_computing_structure_solution     'SHELXT 2014/5 (Sheldrick, 2014)'
;
_shelx_hkl_checksum              61111
loop_
_space_group_symop_operation_xyz
'x, y, z'
'-x+1/2, y+1/2, -z+1/2'
'-x, -y, -z'
'x-1/2, -y-1/2, z-1/2'
loop_
_atom_site_label
_atom_site_type_symbol
_atom_site_fract_x
_atom_site_fract_y
_atom_site_fract_z
_atom_site_U_iso_or_equiv
_atom_site_adp_type
_atom_site_occupancy
_atom_site_site_symmetry_order
_atom_site_calc_flag
_atom_site_refinement_flags_posn
_atom_site_refinement_flags_adp
_atom_site_refinement_flags_occupancy
_atom_site_disorder_assembly
_atom_site_disorder_group
Er Er 0.53745(2) 0.88310(2) 0.34201(2) 0.00490(4) Uani 1 1 d . . . . .
K K 0.57445(8) 0.37593(5) 0.41423(6) 0.01174(9) Uani 1 1 d . . . . .
O1 O 0.7252(2) 0.72649(16) 0.81662(18) 0.0075(3) Uani 1 1 d . . . . .
O2 O 0.5998(3) 0.96400(17) 0.85813(17) 0.0083(3) Uani 1 1 d . . . . .
O3 O 0.6026(3) 0.89490(17) 0.60665(17) 0.0098(3) Uani 1 1 d . . . . .
O4 O 0.6587(2) 0.49775(16) 0.14984(18) 0.0074(3) Uani 1 1 d . . . . .
O5 O 0.5751(3) 0.74859(17) 0.12404(17) 0.0090(3) Uani 1 1 d . . . . .
O6 O 0.6597(2) 0.65114(17) 0.37019(17) 0.0090(3) Uani 1 1 d . . . . .
B1 B 0.6486(4) 0.8589(3) 0.7619(3) 0.0065(4) Uani 1 1 d . . . . .
B2 B 0.6321(4) 0.6300(3) 0.2152(3) 0.0070(4) Uani 1 1 d . . . . .
Li1 Li 0.4174(6) 0.8832(4) 0.9944(5) 0.0112(8) Uani 1 1 d . . . . .
Li2 Li 0.4163(7) 0.3853(5) 0.0506(5) 0.0142(8) Uani 1 1 d . . . . .
loop_
_atom_site_aniso_label
_atom_site_aniso_U_11
_atom_site_aniso_U_22
_atom_site_aniso_U_33
_atom_site_aniso_U_23
_atom_site_aniso_U_13
_atom_site_aniso_U_12
Er 0.00598(5) 0.00428(5) 0.00449(5) -0.00005(3) 0.00126(3) 0.00006(4)
K 0.0144(2) 0.0107(2) 0.0101(2) 0.00021(17) 0.00248(17) -0.00221(18)
O1 0.0076(7) 0.0058(7) 0.0093(7) 0.0014(6) 0.0020(6) 0.0020(6)
O2 0.0123(8) 0.0071(7) 0.0055(7) 0.0001(5) 0.0017(6) 0.0030(6)
O3 0.0149(8) 0.0085(7) 0.0056(7) 0.0006(6) 0.0013(6) 0.0036(6)
O4 0.0082(7) 0.0065(7) 0.0072(7) -0.0017(5) 0.0012(6) 0.0020(6)
O5 0.0131(8) 0.0076(7) 0.0063(7) 0.0014(6) 0.0024(6) 0.0024(6)
O6 0.0126(8) 0.0077(7) 0.0065(7) 0.0001(6) 0.0015(6) 0.0030(6)
B1 0.0038(10) 0.0071(11) 0.0082(10) 0.0001(8) 0.0004(8) -0.0015(8)
B2 0.0049(10) 0.0077(11) 0.0089(10) 0.0003(8) 0.0026(8) -0.0004(8)
Li1 0.0114(19) 0.0097(18) 0.0108(18) -0.0005(15) -0.0010(14) 0.0015(15)
Li2 0.013(2) 0.019(2) 0.0098(18) -0.0014(16) 0.0018(15) -0.0061(17)
loop_
_atom_type_symbol
_atom_type_description
_atom_type_scat_dispersion_real
_atom_type_scat_dispersion_imag
_atom_type_scat_source
B B 0.0013 0.0007 'International Tables Vol C Tables 4.2.6.8 and 6.1.1.4'
Er Er -0.2586 4.9576 'International Tables Vol C Tables 4.2.6.8 and 6.1.1.4'
K K 0.2009 0.2494 'International Tables Vol C Tables 4.2.6.8 and 6.1.1.4'
Li Li -0.0003 0.0001 'International Tables Vol C Tables 4.2.6.8 and 6.1.1.4'
O O 0.0106 0.0060 'International Tables Vol C Tables 4.2.6.8 and 6.1.1.4'
loop_
_geom_angle_atom_site_label_1
_geom_angle_atom_site_label_2
_geom_angle_atom_site_label_3
_geom_angle
_geom_angle_site_symmetry_1
_geom_angle_site_symmetry_3
O4 Er O1 176.01(5) 2_655 4_575
O4 Er O6 98.06(6) 2_655 .
O1 Er O6 83.67(6) 4_575 .
O4 Er O2 86.40(6) 2_655 3_676
O1 Er O2 89.89(6) 4_575 3_676
O6 Er O2 136.98(5) . 3_676
O4 Er O3 88.87(6) 2_655 .
O1 Er O3 94.82(6) 4_575 .
O6 Er O3 87.12(5) . .
O2 Er O3 135.87(5) 3_676 .
O4 Er O3 88.63(6) 2_655 3_676
O1 Er O3 90.81(6) 4_575 3_676
O6 Er O3 161.38(5) . 3_676
O2 Er O3 60.46(5) 3_676 3_676
O3 Er O3 75.60(6) . 3_676
O4 Er O5 90.90(6) 2_655 .
O1 Er O5 86.86(6) 4_575 .
O6 Er O5 59.91(5) . .
O2 Er O5 77.33(5) 3_676 .
O3 Er O5 146.66(5) . .
O3 Er O5 137.73(5) 3_676 .
O4 Er B2 97.28(6) 2_655 .
O1 Er B2 82.40(6) 4_575 .
O6 Er B2 30.01(6) . .
O2 Er B2 107.00(6) 3_676 .
O3 Er B2 117.12(6) . .
O3 Er B2 165.92(6) 3_676 .
O5 Er B2 30.04(6) . .
O4 Er B1 86.49(6) 2_655 3_676
O1 Er B1 91.03(6) 4_575 3_676
O6 Er B1 166.41(6) . 3_676
O2 Er B1 30.10(6) 3_676 3_676
O3 Er B1 105.84(6) . 3_676
O3 Er B1 30.37(6) 3_676 3_676
O5 Er B1 107.42(6) . 3_676
B2 Er B1 136.89(7) . 3_676
O4 Er Li1 93.71(9) 2_655 1_554
O1 Er Li1 82.49(9) 4_575 1_554
O6 Er Li1 96.90(8) . 1_554
O2 Er Li1 40.10(8) 3_676 1_554
O3 Er Li1 174.87(9) . 1_554
O3 Er Li1 100.01(8) 3_676 1_554
O5 Er Li1 37.85(8) . 1_554
B2 Er Li1 66.97(9) . 1_554
B1 Er Li1 69.94(9) 3_676 1_554
O4 Er Li2 146.91(8) 2_655 2
O1 Er Li2 34.30(8) 4_575 2
O6 Er Li2 107.14(9) . 2
O2 Er Li2 89.39(8) 3_676 2
O3 Er Li2 71.72(8) . 2
O3 Er Li2 61.13(9) 3_676 2
O5 Er Li2 120.11(8) . 2
B2 Er Li2 115.28(9) . 2
B1 Er Li2 74.02(9) 3_676 2
Li1 Er Li2 103.94(10) 1_554 2
O4 Er K 128.52(4) 2_655 3_666
O1 Er K 55.32(4) 4_575 3_666
O6 Er K 52.95(4) . 3_666
O2 Er K 144.75(4) 3_676 3_666
O3 Er K 53.21(4) . 3_666
O3 Er K 109.63(4) 3_676 3_666
O5 Er K 103.45(4) . 3_666
B2 Er K 76.56(5) . 3_666
B1 Er K 132.41(5) 3_676 3_666
Li1 Er K 127.27(8) 1_554 3_666
Li2 Er K 59.23(7) 2 3_666
O6 K O5 100.33(5) . 2_645
O6 K O1 111.64(5) . 3_666
O5 K O1 105.34(5) 2_645 3_666
O6 K O6 111.39(4) . 3_666
O5 K O6 133.63(5) 2_645 3_666
O1 K O6 93.67(5) 3_666 3_666
O6 K O2 70.48(5) . 2_646
O5 K O2 70.06(5) 2_645 2_646
O1 K O2 175.35(5) 3_666 2_646
O6 K O2 89.27(5) 3_666 2_646
O6 K O3 164.31(5) . 3_666
O5 K O3 87.99(5) 2_645 3_666
O1 K O3 52.95(5) 3_666 3_666
O6 K O3 70.33(5) 3_666 3_666
O2 K O3 125.12(5) 2_646 3_666
O6 K O4 52.89(5) . .
O5 K O4 74.17(5) 2_645 .
O1 K O4 75.43(5) 3_666 .
O6 K O4 152.20(5) 3_666 .
O2 K O4 103.47(5) 2_646 .
O3 K O4 118.28(5) 3_666 .
O6 K O1 121.05(5) . 2_646
O5 K O1 68.70(5) 2_645 2_646
O1 K O1 127.26(3) 3_666 2_646
O6 K O1 66.16(5) 3_666 2_646
O2 K O1 51.00(5) 2_646 2_646
O3 K O1 74.31(5) 3_666 2_646
O4 K O1 140.37(5) . 2_646
O6 K B1 137.71(6) . 3_666
O5 K B1 87.67(6) 2_645 3_666
O1 K B1 28.16(6) 3_666 3_666
O6 K B1 90.53(6) 3_666 3_666
O2 K B1 148.38(6) 2_646 3_666
O3 K B1 28.42(6) 3_666 3_666
O4 K B1 91.04(6) . 3_666
O1 K B1 100.65(6) 2_646 3_666
O6 K B2 26.95(6) . .
O5 K B2 92.20(6) 2_645 .
O1 K B2 89.55(6) 3_666 .
O6 K B2 130.51(6) 3_666 .
O2 K B2 91.28(6) 2_646 .
O3 K B2 140.77(6) 3_666 .
O4 K B2 27.17(5) . .
O1 K B2 141.22(6) 2_646 .
B1 K B2 112.36(7) 3_666 .
O6 K K 57.09(4) . 3_666
O5 K K 141.12(4) 2_645 3_666
O1 K K 112.29(4) 3_666 3_666
O6 K K 54.31(4) 3_666 3_666
O2 K K 72.36(4) 2_646 3_666
O3 K K 122.43(4) 3_666 3_666
O4 K K 105.74(4) . 3_666
O1 K K 94.90(4) 2_646 3_666
B1 K K 130.82(5) 3_666 3_666
B2 K K 78.94(5) . 3_666
O6 K B1 94.87(6) . 2_646
O5 K B1 74.94(6) 2_645 2_646
O1 K B1 152.69(6) 3_666 2_646
O6 K B1 69.62(6) 3_666 2_646
O2 K B1 26.75(6) 2_646 2_646
O3 K B1 100.16(6) 3_666 2_646
O4 K B1 128.86(6) . 2_646
O1 K B1 26.49(5) 2_646 2_646
B1 K B1 127.11(4) 3_666 2_646
B2 K B1 117.75(7) . 2_646
K K B1 76.12(5) 3_666 2_646
B1 O1 Li2 119.5(2) . 3_666
B1 O1 Er 133.67(14) . 4_676
Li2 O1 Er 104.82(15) 3_666 4_676
B1 O1 K 83.49(12) . 3_666
Li2 O1 K 84.47(13) 3_666 3_666
Er O1 K 115.12(6) 4_676 3_666
B1 O1 K 86.34(12) . 2_656
Li2 O1 K 86.78(13) 3_666 2_656
Er O1 K 83.30(5) 4_676 2_656
K O1 K 161.12(7) 3_666 2_656
B1 O2 Li1 170.0(2) . 3_677
B1 O2 Li1 111.46(18) . .
Li1 O2 Li1 74.42(19) 3_677 .
B1 O2 Er 93.25(12) . 3_676
Li1 O2 Er 90.41(13) 3_677 3_676
Li1 O2 Er 120.00(13) . 3_676
B1 O2 K 89.74(12) . 2_656
Li1 O2 K 82.52(13) 3_677 2_656
Li1 O2 K 85.89(12) . 2_656
Er O2 K 150.30(7) 3_676 2_656
B1 O3 Er 163.30(14) . .
B1 O3 Er 91.41(13) . 3_676
Er O3 Er 104.40(6) . 3_676
B1 O3 K 81.19(12) . 3_666
Er O3 K 84.66(5) . 3_666
Er O3 K 128.76(7) 3_676 3_666
B2 O4 Li2 119.33(19) . .
B2 O4 Li2 82.73(17) . 3_665
Li2 O4 Li2 82.38(19) . 3_665
B2 O4 Er 126.51(14) . 2_645
Li2 O4 Er 114.01(15) . 2_645
Li2 O4 Er 108.47(14) 3_665 2_645
B2 O4 K 86.04(12) . .
Li2 O4 K 82.43(13) . .
Li2 O4 K 153.58(14) 3_665 .
Er O4 K 97.44(5) 2_645 .
B2 O5 Li1 162.0(2) . 1_554
B2 O5 Li2 85.19(17) . 3_665
Li1 O5 Li2 92.18(18) 1_554 3_665
B2 O5 Er 89.87(12) . .
Li1 O5 Er 90.71(14) 1_554 .
Li2 O5 Er 172.30(15) 3_665 .
B2 O5 K 106.85(13) . 2_655
Li1 O5 K 90.90(14) 1_554 2_655
Li2 O5 K 89.82(13) 3_665 2_655
Er O5 K 97.27(6) . 2_655
B2 O6 Li1 118.67(19) . 4_675
B2 O6 Er 93.31(13) . .
Li1 O6 Er 119.11(15) 4_675 .
B2 O6 K 91.57(13) . .
Li1 O6 K 87.01(14) 4_675 .
Er O6 K 146.27(7) . .
B2 O6 K 136.52(14) . 3_666
Li1 O6 K 99.22(14) 4_675 3_666
Er O6 K 85.33(5) . 3_666
K O6 K 68.61(4) . 3_666
O1 B1 O2 121.7(2) . .
O1 B1 O3 123.4(2) . .
O2 B1 O3 114.84(19) . .
O1 B1 Er 174.94(16) . 3_676
O2 B1 Er 56.65(10) . 3_676
O3 B1 Er 58.22(11) . 3_676
O1 B1 K 68.35(11) . 3_666
O2 B1 K 134.60(15) . 3_666
O3 B1 K 70.39(11) . 3_666
Er B1 K 109.13(8) 3_676 3_666
O1 B1 K 67.16(11) . 2_656
O2 B1 K 63.51(11) . 2_656
O3 B1 K 151.55(15) . 2_656
Er B1 K 113.90(8) 3_676 2_656
K B1 K 132.88(8) 3_666 2_656
O5 B2 O6 116.4(2) . .
O5 B2 O4 120.12(19) . .
O6 B2 O4 123.5(2) . .
O5 B2 Li2 58.95(15) . 3_665
O6 B2 Li2 175.3(2) . 3_665
O4 B2 Li2 61.17(15) . 3_665
O5 B2 Er 60.09(11) . .
O6 B2 Er 56.69(11) . .
O4 B2 Er 173.98(16) . .
Li2 B2 Er 118.78(15) 3_665 .
O5 B2 Li1 127.78(17) . 4_675
O6 B2 Li1 35.77(13) . 4_675
O4 B2 Li1 102.33(16) . 4_675
Li2 B2 Li1 145.47(18) 3_665 4_675
Er B2 Li1 80.85(11) . 4_675
O5 B2 K 156.68(16) . .
O6 B2 K 61.48(11) . .
O4 B2 K 66.79(11) . .
Li2 B2 K 123.08(14) 3_665 .
Er B2 K 110.54(8) . .
Li1 B2 K 65.78(10) 4_675 .
O5 B2 K 50.25(11) . 2_655
O6 B2 K 106.97(14) . 2_655
O4 B2 K 108.29(14) . 2_655
Li2 B2 K 69.59(12) 3_665 2_655
Er B2 K 76.63(6) . 2_655
Li1 B2 K 90.18(11) 4_675 2_655
K B2 K 152.41(8) . 2_655
O6 Li1 O5 125.4(2) 4_576 1_556
O6 Li1 O2 110.0(2) 4_576 3_677
O5 Li1 O2 99.98(19) 1_556 3_677
O6 Li1 O2 107.5(2) 4_576 .
O5 Li1 O2 106.6(2) 1_556 .
O2 Li1 O2 105.58(19) 3_677 .
O6 Li1 Li1 122.1(3) 4_576 3_677
O5 Li1 Li1 112.5(3) 1_556 3_677
O2 Li1 Li1 54.49(16) 3_677 3_677
O2 Li1 Li1 51.09(16) . 3_677
O6 Li1 Li2 96.14(18) 4_576 3_666
O5 Li1 Li2 45.94(13) 1_556 3_666
O2 Li1 Li2 145.8(2) 3_677 3_666
O2 Li1 Li2 86.09(17) . 3_666
Li1 Li1 Li2 127.6(3) 3_677 3_666
O6 Li1 B2 25.56(9) 4_576 4_576
O5 Li1 B2 135.2(2) 1_556 4_576
O2 Li1 B2 120.37(19) 3_677 4_576
O2 Li1 B2 82.04(15) . 4_576
Li1 Li1 B2 106.9(2) 3_677 4_576
Li2 Li1 B2 92.69(15) 3_666 4_576
O6 Li1 Er 127.8(2) 4_576 1_556
O5 Li1 Er 51.44(11) 1_556 1_556
O2 Li1 Er 49.49(10) 3_677 1_556
O2 Li1 Er 123.58(17) . 1_556
Li1 Li1 Er 86.7(2) 3_677 1_556
Li2 Li1 Er 97.12(14) 3_666 1_556
B2 Li1 Er 153.00(17) 4_576 1_556
O6 Li1 K 57.08(11) 4_576 4_576
O5 Li1 K 153.4(2) 1_556 4_576
O2 Li1 K 59.69(11) 3_677 4_576
O2 Li1 K 95.94(15) . 4_576
Li1 Li1 K 71.33(18) 3_677 4_576
Li2 Li1 K 152.56(17) 3_666 4_576
B2 Li1 K 60.71(9) 4_576 4_576
Er Li1 K 104.28(12) 1_556 4_576
O6 Li1 K 155.2(2) 4_576 2_656
O5 Li1 K 54.88(12) 1_556 2_656
O2 Li1 K 93.30(15) 3_677 2_656
O2 Li1 K 56.08(11) . 2_656
Li1 Li1 K 64.84(18) 3_677 2_656
Li2 Li1 K 66.32(12) 3_666 2_656
B2 Li1 K 132.88(15) 4_576 2_656
Er Li1 K 73.89(9) 1_556 2_656
K Li1 K 136.17(13) 4_576 2_656
O6 Li1 K 49.73(11) 4_576 2_556
O5 Li1 K 105.57(17) 1_556 2_556
O2 Li1 K 70.36(13) 3_677 2_556
O2 Li1 K 147.73(17) . 2_556
Li1 Li1 K 116.3(2) 3_677 2_556
Li2 Li1 K 115.71(15) 3_666 2_556
B2 Li1 K 73.86(10) 4_576 2_556
Er Li1 K 79.22(9) 1_556 2_556
K Li1 K 53.58(7) 4_576 2_556
K Li1 K 153.01(13) 2_656 2_556
O6 Li1 Er 33.96(9) 4_576 4_576
O5 Li1 Er 91.84(15) 1_556 4_576
O2 Li1 Er 127.77(18) 3_677 4_576
O2 Li1 Er 119.32(16) . 4_576
Li1 Li1 Er 155.3(2) 3_677 4_576
Li2 Li1 Er 66.59(12) 3_666 4_576
B2 Li1 Er 48.95(8) 4_576 4_576
Er Li1 Er 113.21(12) 1_556 4_576
K Li1 Er 89.00(10) 4_576 4_576
K Li1 Er 132.90(12) 2_656 4_576
K Li1 Er 57.47(6) 2_556 4_576
O4 Li2 O1 117.6(2) . 3_666
O4 Li2 O5 121.2(2) . 3_665
O1 Li2 O5 104.2(2) 3_666 3_665
O4 Li2 O4 97.62(19) . 3_665
O1 Li2 O4 138.2(2) 3_666 3_665
O5 Li2 O4 71.95(15) 3_665 3_665
O4 Li2 B2 114.1(2) . 3_665
O1 Li2 B2 127.3(2) 3_666 3_665
O5 Li2 B2 35.86(10) 3_665 3_665
O4 Li2 B2 36.09(10) 3_665 3_665
O4 Li2 Li2 50.36(14) . 3_665
O1 Li2 Li2 157.3(3) 3_666 3_665
O5 Li2 Li2 98.2(2) 3_665 3_665
O4 Li2 Li2 47.26(14) 3_665 3_665
B2 Li2 Li2 71.00(18) 3_665 3_665
O4 Li2 Li1 102.9(2) . 3_666
O1 Li2 Li1 82.97(18) 3_666 3_666
O5 Li2 Li1 41.88(13) 3_665 3_666
O4 Li2 Li1 111.80(19) 3_665 3_666
B2 Li2 Li1 76.64(16) 3_665 3_666
Li2 Li2 Li1 117.0(3) 3_665 3_666
O4 Li2 K 59.97(11) . .
O1 Li2 K 57.68(11) 3_666 .
O5 Li2 K 135.8(2) 3_665 .
O4 Li2 K 149.74(19) 3_665 .
B2 Li2 K 167.9(2) 3_665 .
Li2 Li2 K 107.5(2) 3_665 .
Li1 Li2 K 94.02(15) 3_666 .
O4 Li2 K 166.0(2) . 4_565
O1 Li2 K 57.50(11) 3_666 4_565
O5 Li2 K 53.61(11) 3_665 4_565
O4 Li2 K 92.70(14) 3_665 4_565
B2 Li2 K 69.91(12) 3_665 4_565
Li2 Li2 K 139.1(2) 3_665 4_565
Li1 Li2 K 64.32(12) 3_666 4_565
K Li2 K 113.28(12) . 4_565
O4 Li2 Er 125.22(18) . 2_545
O1 Li2 Er 40.88(10) 3_666 2_545
O5 Li2 Er 113.56(17) 3_665 2_545
O4 Li2 Er 100.94(16) 3_665 2_545
B2 Li2 Er 111.01(16) 3_665 2_545
Li2 Li2 Er 125.1(2) 3_665 2_545
Li1 Li2 Er 116.55(16) 3_666 2_545
K Li2 Er 79.96(9) . 2_545
K Li2 Er 61.24(7) 4_565 2_545
O4 Li2 Er 109.92(17) . 4_575
O1 Li2 Er 104.81(17) 3_666 4_575
O5 Li2 Er 95.99(15) 3_665 4_575
O4 Li2 Er 37.83(9) 3_665 4_575
B2 Li2 Er 64.84(11) 3_665 4_575
Li2 Li2 Er 68.83(18) 3_665 4_575
Li1 Li2 Er 136.82(16) 3_666 4_575
K Li2 Er 126.44(14) . 4_575
K Li2 Er 83.97(9) 4_565 4_575
Er Li2 Er 64.48(8) 2_545 4_575
O4 Li2 Er 35.74(9) . 2_645
O1 Li2 Er 115.72(17) 3_666 2_645
O5 Li2 Er 90.18(15) 3_665 2_645
O4 Li2 Er 106.00(16) 3_665 2_645
B2 Li2 Er 100.25(15) 3_665 2_645
Li2 Li2 Er 67.22(17) 3_665 2_645
Li1 Li2 Er 67.48(13) 3_666 2_645
K Li2 Er 68.66(8) . 2_645
K Li2 Er 131.78(14) 4_565 2_645
Er Li2 Er 148.62(13) 2_545 2_645
Er Li2 Er 136.04(13) 4_575 2_645
loop_
_geom_bond_atom_site_label_1
_geom_bond_atom_site_label_2
_geom_bond_distance
_geom_bond_site_symmetry_2
Er O4 2.2841(16) 2_655
Er O1 2.2921(16) 4_575
Er O6 2.2991(16) .
Er O2 2.3148(15) 3_676
Er O3 2.3202(15) .
Er O3 2.3526(16) 3_676
Er O5 2.3808(16) .
Er B2 2.747(2) .
Er B1 2.767(2) 3_676
Er Li1 3.045(4) 1_554
Er Li2 3.386(4) 2
Er K 3.4436(5) 3_666
K O6 2.6677(17) .
K O5 2.7171(17) 2_645
K O1 2.7182(16) 3_666
K O6 2.7576(17) 3_666
K O2 2.7634(17) 2_646
K O3 2.7698(17) 3_666
K O4 2.7961(16) .
K O1 2.8513(16) 2_646
K B1 2.906(2) 3_666
K B2 3.035(2) .
K K 3.0585(10) 3_666
K B1 3.087(2) 2_646
O1 B1 1.380(3) .
O1 Li2 1.973(5) 3_666
O2 B1 1.390(3) .
O2 Li1 1.961(4) 3_677
O2 Li1 2.052(5) .
O3 B1 1.399(3) .
O4 B2 1.389(3) .
O4 Li2 1.970(4) .
O4 Li2 2.066(4) 3_665
O5 B2 1.375(3) .
O5 Li1 1.868(4) 1_554
O5 Li2 2.011(4) 3_665
O6 B2 1.376(3) .
O6 Li1 1.864(4) 4_675
B2 Li2 2.339(5) 3_665
B2 Li1 2.798(5) 4_675
Li1 Li1 2.428(8) 3_677
Li1 Li2 2.797(6) 3_666
Li2 Li2 2.659(9) 3_665
