#------------------------------------------------------------------------------
#$Date: 2020-12-21 18:25:20 +0200 (Mon, 21 Dec 2020) $
#$Revision: 260044 $
#$URL: file:///home/coder/svn-repositories/cod/cif/4/35/07/4350778.cif $
#------------------------------------------------------------------------------
#
# This file is available in the Crystallography Open Database (COD),
# http://www.crystallography.net/
#
# All data on this site have been placed in the public domain by the
# contributors.
#
data_4350778
loop_
_publ_author_name
'Chen, Pengyun'
'Murshed, M. Mangir'
'Fischer, Michael'
'Frederichs, Thomas'
'Gesing, Thorsten M.'
_publ_section_title
;
 KLi2RE(BO3)2 (RE = Dy, Ho, Er, Tm, Yb, and Y): Structural, Spectroscopic,
 And Thermogravimetric Studies on a Series of Mixed-Alkali Rare-Earth
 Orthoborates
;
_journal_issue                   24
_journal_name_full               'Inorganic Chemistry'
_journal_page_first              18214
_journal_page_last               18224
_journal_paper_doi               10.1021/acs.inorgchem.0c02684
_journal_volume                  59
_journal_year                    2020
_chemical_formula_sum            'B2 Ho K Li2 O6'
_chemical_formula_weight         335.53
_space_group_crystal_system      monoclinic
_space_group_IT_number           14
_space_group_name_Hall           '-P 2yn'
_space_group_name_H-M_alt        'P 1 21/n 1'
_atom_sites_solution_hydrogens   .
_audit_creation_method           SHELXL-2018/3
_cell_angle_alpha                90
_cell_angle_beta                 102.8257(6)
_cell_angle_gamma                90
_cell_formula_units_Z            4
_cell_length_a                   6.71112(5)
_cell_length_b                   9.31737(6)
_cell_length_c                   8.99091(6)
_cell_measurement_reflns_used    8726
_cell_measurement_temperature    300(2)
_cell_measurement_theta_max      33.15
_cell_measurement_theta_min      3.19
_cell_volume                     548.175(7)
_computing_structure_refinement  'SHELXL-2018/3 (Sheldrick, 2018)'
_computing_structure_solution    'SHELXT 2014/5 (Sheldrick, 2014)'
_diffrn_ambient_temperature      300(2)
_diffrn_measured_fraction_theta_full 1.000
_diffrn_measured_fraction_theta_max 0.998
_diffrn_measurement_device_type  'Bruker D8 venture'
_diffrn_radiation_type           MoK\a
_diffrn_radiation_wavelength     0.71073
_diffrn_reflns_av_R_equivalents  0.0505
_diffrn_reflns_av_unetI/netI     0.0280
_diffrn_reflns_Laue_measured_fraction_full 1.000
_diffrn_reflns_Laue_measured_fraction_max 0.998
_diffrn_reflns_limit_h_max       10
_diffrn_reflns_limit_h_min       -10
_diffrn_reflns_limit_k_max       14
_diffrn_reflns_limit_k_min       -14
_diffrn_reflns_limit_l_max       13
_diffrn_reflns_limit_l_min       -13
_diffrn_reflns_number            19650
_diffrn_reflns_point_group_measured_fraction_full 1.000
_diffrn_reflns_point_group_measured_fraction_max 0.998
_diffrn_reflns_theta_full        25.242
_diffrn_reflns_theta_max         33.199
_diffrn_reflns_theta_min         3.191
_exptl_absorpt_coefficient_mu    15.150
_exptl_absorpt_correction_T_max  0.6974
_exptl_absorpt_correction_T_min  0.5399
_exptl_absorpt_correction_type   numerical
_exptl_absorpt_process_details   ' J. Appl. Cryst. 48 (2015) 3-10.'
_exptl_crystal_colour            pink
_exptl_crystal_density_diffrn    4.066
_exptl_crystal_description       Prism
_exptl_crystal_F_000             600
_exptl_crystal_size_max          0.074
_exptl_crystal_size_mid          0.071
_exptl_crystal_size_min          0.033
_refine_diff_density_max         0.878
_refine_diff_density_min         -0.850
_refine_diff_density_rms         0.220
_refine_ls_extinction_coef       0.00342(14)
_refine_ls_extinction_expression Fc^*^=kFc[1+0.001xFc^2^\l^3^/sin(2\q)]^-1/4^
_refine_ls_extinction_method     'SHELXL-2018/3 (Sheldrick 2018)'
_refine_ls_goodness_of_fit_ref   1.053
_refine_ls_hydrogen_treatment    undef
_refine_ls_matrix_type           full
_refine_ls_number_parameters     110
_refine_ls_number_reflns         2096
_refine_ls_number_restraints     0
_refine_ls_restrained_S_all      1.053
_refine_ls_R_factor_all          0.0299
_refine_ls_R_factor_gt           0.0202
_refine_ls_shift/su_max          0.001
_refine_ls_shift/su_mean         0.000
_refine_ls_structure_factor_coef Fsqd
_refine_ls_weighting_details
'w=1/[\s^2^(Fo^2^)+(0.0079P)^2^+0.7817P] where P=(Fo^2^+2Fc^2^)/3'
_refine_ls_weighting_scheme      calc
_refine_ls_wR_factor_gt          0.0303
_refine_ls_wR_factor_ref         0.0319
_reflns_Friedel_coverage         0.000
_reflns_Friedel_fraction_full    .
_reflns_Friedel_fraction_max     .
_reflns_number_gt                1808
_reflns_number_total             2096
_reflns_threshold_expression     'I > 2\s(I)'
_cod_data_source_file            KLi2Ho_BO3_2.cif
_cod_data_source_block           KLi2Ho(BO3)2
_cod_depositor_comments
;
The following automatic conversions were performed:

data item '_exptl_absorpt_correction_type' value 'Numerical' was
changed to 'numerical' in accordance with the built-in table derived
from the CIF Core dictionary named 'cif_core.dic' version 2.4.5 last
updated on 2014-11-21.

Automatic conversion script
Id: cif_fix_values 8369 2020-08-20 11:38:08Z andrius 
;
_cod_original_cell_volume        548.174(7)
_cod_original_sg_symbol_H-M      'P 21/n'
_cod_database_code               4350778
_shelx_shelxl_version_number     2018/3
_shelx_space_group_comment
;
The symmetry employed for this shelxl refinement is uniquely defined
by the following loop, which should always be used as a source of
symmetry information in preference to the above space-group names.
They are only intended as comments.
;
_shelx_res_file
;
TITL cpy20200217HoSAMPLE1RE_0m_a.res in P2(1)/n
    KLi2Ho(BO3)2.res
    created by SHELXL-2018/3 at 00:12:37 on 23-Jul-2020
REM Old TITL cpy20200217HoSAMPLE1RE_0m in P2(1)/n

REM SHELXT solution in P2(1)/n
REM R1 0.042,  Rweak 0.003,  Alpha 0.021,  Orientation as input
REM Formula found by SHELXT:  B2 Ho K O6

CELL  0.71073   6.71112   9.31737   8.99091   90.000  102.8257   90.000
ZERR    4.000   0.00005   0.00006   0.00006    0.000    0.0006    0.000
LATT  1
SYMM 1/2-X, 1/2+Y, 1/2-Z
SFAC B HO K LI O
UNIT 8 4 4 8 24
TEMP 27.250
L.S. 10
BOND
LIST 4
acta
FMAP 2
PLAN 20
WGHT    0.007900    0.781700
EXTI    0.003423
FVAR       0.36949
HO    2    0.537321    0.882882    0.342140    11.00000    0.00613    0.00409 =
         0.00460   -0.00003    0.00146    0.00008
K     3    0.574424    0.375739    0.413771    11.00000    0.01344    0.00914 =
         0.00944    0.00018    0.00234   -0.00206
O1    5    0.723273    0.727171    0.817183    11.00000    0.00804    0.00695 =
         0.00768    0.00155    0.00182    0.00301
O2    5    0.600556    0.964318    0.858567    11.00000    0.01152    0.00728 =
         0.00631   -0.00051    0.00192    0.00251
O3    5    0.602072    0.894289    0.607542    11.00000    0.01621    0.01004 =
         0.00315    0.00078    0.00109    0.00347
O4    5    0.657888    0.498285    0.149636    11.00000    0.00721    0.00712 =
         0.00904   -0.00228    0.00183    0.00020
O5    5    0.574007    0.747991    0.123923    11.00000    0.01412    0.00691 =
         0.00660    0.00117    0.00345    0.00181
O6    5    0.659348    0.650511    0.369994    11.00000    0.01335    0.00794 =
         0.00530   -0.00090    0.00122    0.00229
B1    1    0.648894    0.858924    0.762623    11.00000    0.00565    0.00645 =
         0.00914   -0.00118    0.00158   -0.00005
B2    1    0.631353    0.630013    0.215111    11.00000    0.00390    0.00712 =
         0.00882    0.00043    0.00230   -0.00042
LI1   4    0.417621    0.883301    0.994876    11.00000    0.01240    0.01234 =
         0.01210    0.00071   -0.00297   -0.00152
LI2   4    0.417853    0.384818    0.050544    11.00000    0.01683    0.01269 =
         0.01373   -0.00205    0.00277   -0.00315
HKLF 4




REM  cpy20200217HoSAMPLE1RE_0m_a.res in P2(1)/n
REM wR2 = 0.0319, GooF = S = 1.053, Restrained GooF = 1.053 for all data
REM R1 = 0.0202 for 1808 Fo > 4sig(Fo) and 0.0299 for all 2096 data
REM 110 parameters refined using 0 restraints

END

WGHT      0.0068      0.8225

REM Highest difference peak  0.878,  deepest hole -0.850,  1-sigma level  0.220
Q1    1   0.6721  0.9184  0.8280  11.00000  0.05    0.88
Q2    1   0.5000  1.0000  0.5000  10.50000  0.05    0.87
Q3    1   0.4139  0.9584  0.8086  11.00000  0.05    0.79
Q4    1   0.4108  0.5881  0.2939  11.00000  0.05    0.79
Q5    1   0.6177  0.6161  0.3133  11.00000  0.05    0.76
Q6    1   0.4524  0.4807 -0.0264  11.00000  0.05    0.75
Q7    1   0.6680  0.2455  0.3649  11.00000  0.05    0.70
Q8    1   0.6344  0.9131  0.3683  11.00000  0.05    0.69
Q9    1   0.8586  1.0028  0.7815  11.00000  0.05    0.69
Q10   1   0.7091  0.6493  0.4577  11.00000  0.05    0.68
Q11   1   0.6925  1.0031  0.8723  11.00000  0.05    0.68
Q12   1   0.5048  0.7446  0.0619  11.00000  0.05    0.67
Q13   1   0.6950  0.7912  0.7400  11.00000  0.05    0.67
Q14   1   0.5869  0.4869  0.1151  11.00000  0.05    0.66
Q15   1   0.7840  0.8031  0.6346  11.00000  0.05    0.66
Q16   1   0.5289  0.7415  0.6985  11.00000  0.05    0.66
Q17   1   0.4282  0.8616  0.3198  11.00000  0.05    0.64
Q18   1   0.5908  0.8959  0.2632  11.00000  0.05    0.64
Q19   1   0.6052  0.9423  0.9033  11.00000  0.05    0.64
Q20   1   0.4338  0.5065  0.3812  11.00000  0.05    0.64
;
_shelx_res_checksum              2061
_shelx_hkl_file
;
   1   0   0    2.10    8.20
  -1   0   0    4.70    8.30
   1   0   0    9.30    9.00
   1   0   0    6.90    7.60
   1   0   0    6.00    8.10
   1   0   0   13.80    8.10
  -1   0   0    9.40    8.10
  -1   0   0    9.80    8.10
  -1   0   0    2.60    7.90
  -1   0   0    9.60    7.90
  -2   0   0 6343.87  186.78
  -2   0   0 6075.89  187.68
  -2   0   0 6422.66  187.38
  -2   0   0 6342.47  187.78
   2   0   0 6356.06  187.68
   2   0   0 6234.58  187.28
   2   0   0 6341.57  187.58
  -2   0   0 6095.49  187.18
   2   0   0 6049.79  187.48
   2   0   0 6490.85  187.68
  -3   0   0   11.80   15.10
   3   0   0   10.80   13.30
   3   0   0  -24.70   14.40
   3   0   0   -1.50   13.30
   3   0   0    0.40   13.50
  -3   0   0   -5.40   12.40
  -3   0   0    3.60   14.00
  -3   0   0   10.30   13.00
  -3   0   0  -14.90   14.30
   4   0   0  280.97   29.20
   4   0   0  274.97   25.30
  -4   0   0  253.37   24.70
  -4   0   0  251.57   27.00
   4   0   0  246.88   30.10
   4   0   0  188.58   24.60
   4   0   0  220.98   25.60
  -4   0   0  209.98   25.40
  -4   0   0  255.87   28.30
  -4   0   0  235.88   25.10
  -5   0   0   -4.00   17.90
  -5   0   0  -13.80   16.80
   5   0   0   20.40   20.30
   5   0   0   10.90   19.30
   5   0   0   -4.30   19.10
   5   0   0   -3.00   17.90
  -5   0   0    0.20   20.60
  -5   0   0    4.10   16.80
   5   0   0    6.80   11.40
  -5   0   0  -12.20   16.60
   5   0   0   14.30   17.30
  -6   0   0   -6.20   18.70
   6   0   0   39.10   12.60
   6   0   0   29.30   23.60
  -6   0   0   27.30   21.30
   6   0   0   19.50   23.10
   6   0   0   19.60   22.80
   6   0   0   29.80   23.00
  -7   0   0  -32.00   25.00
   7   0   0   -0.80   14.60
   7   0   0   27.20   25.60
  -7   0   0   20.00   27.90
   7   0   0   12.50   35.50
  -7   0   0   12.60   25.30
   7   0   0   26.80   26.10
  -8   0   0  308.97   37.90
   8   0   0  294.97   42.90
  -8   0   0  240.68   38.50
   8   0   0  277.87   42.80
  -9   0   0   -9.70   35.80
  -9   0   0  -12.20   33.30
 -10   0   0  424.06   58.69
  10   0   0  576.34   71.19
   0  -1   0    4.10    3.10
   0  -1   0    1.30    5.00
   0  -1   0    1.60    3.00
   0   1   0    3.10    6.20
   0   1   0   -0.40    3.90
   1  -1   0 2808.32   86.29
  -1  -1   0 2900.61   89.39
  -1  -1   0 2959.10   89.39
  -1  -1   0 2924.91   89.29
  -1  -1   0 3078.39   89.89
   1  -1   0 2716.53   85.59
  -1  -1   0 3015.20   89.29
   1  -1   0 2807.22   86.39
   1  -1   0 2838.62   85.79
   1   1   0 2963.70   89.29
  -1   1   0 2806.12   86.09
   1   1   0 3010.20   89.29
   1   1   0 2876.61   89.49
   1   1   0 2932.31   89.19
  -1   1   0 2968.50   86.49
   1   1   0 3115.99   88.49
   1   1   0 2976.00   89.29
   2  -1   0 2089.39   64.89
  -2  -1   0 2006.40   68.79
   2  -1   0 2019.70   65.09
   2  -1   0 1940.31   64.79
  -2  -1   0 2033.30   67.89
   2  -1   0 1934.11   64.99
   2  -1   0 1919.11   64.29
  -2  -1   0 2033.30   66.99
  -2  -1   0 1903.31   68.49
  -2  -1   0 2041.30   67.59
  -2   1   0 1949.80   62.99
   2   1   0 2056.69   68.59
  -2   1   0 2105.39   64.49
   2   1   0 2074.49   64.09
   2   1   0 1961.00   67.69
   2   1   0 2098.49   68.29
  -2   1   0 1964.30   63.29
  -2   1   0 1961.70   64.39
   2   1   0 1994.50   67.69
   2   1   0 1988.40   67.89
  -3  -1   0 2329.97   79.29
  -3  -1   0 2491.95   80.29
   3  -1   0 2326.57   77.29
   3  -1   0 2400.56   77.79
  -3  -1   0 2334.57   80.49
  -3  -1   0 2308.67   80.79
   3  -1   0 2299.17   77.39
   3  -1   0 2260.97   77.29
  -3  -1   0 2284.87   80.79
   3  -1   0 2431.66   77.59
   3   1   0 2405.46   80.19
   3   1   0 2309.27   79.69
  -3   1   0 2197.58   76.59
   3   1   0 2361.96   74.49
  -3   1   0 2315.97   75.29
  -3   1   0 2306.47   76.29
  -3   1   0 2302.77   75.89
   3   1   0 2245.38   80.59
   3   1   0 2307.17   80.49
   4  -1   0  738.13   36.70
   4  -1   0  583.04   35.80
  -4  -1   0  673.93   37.40
  -4  -1   0  729.23   42.00
  -4  -1   0  753.82   37.50
  -4  -1   0  641.34   39.00
   4  -1   0  698.83   35.80
   4  -1   0  680.73   35.20
   4  -1   0  667.83   36.10
  -4  -1   0  669.73   40.10
   4   1   0  704.33   38.30
  -4   1   0  691.53   36.40
   4   1   0  676.33   31.30
   4   1   0  671.23   37.70
   4   1   0  702.23   38.00
   4   1   0  638.94   45.70
  -4   1   0  721.23   33.10
  -4   1   0  671.63   33.80
   4   1   0  708.13   40.60
   5  -1   0  202.58   24.80
   5  -1   0  242.68   26.50
  -5  -1   0  260.07   30.20
  -5  -1   0  216.78   30.20
   5  -1   0  239.58   29.80
  -5  -1   0  200.68   26.20
   5  -1   0  190.98   25.80
   5  -1   0  234.58   27.90
  -5  -1   0  202.88   27.80
   5   1   0  198.58   28.20
   5   1   0  255.67   31.00
   5   1   0  214.78   27.50
  -5   1   0  188.68   23.00
   5   1   0  213.48   22.20
  -5   1   0  259.67   27.00
  -5   1   0  224.58   24.70
   5   1   0  213.78   27.80
  -5   1   0  267.87   25.10
   5   1   0  305.67   30.80
  -6  -1   0  919.51   57.39
  -6  -1   0  907.81   55.49
   6  -1   0  912.81   52.79
  -6  -1   0  919.61   52.59
   6  -1   0  984.70   55.59
   6  -1   0 1011.10   37.70
  -6  -1   0  953.70   57.59
   6  -1   0  978.20   54.19
   6  -1   0 1078.29   55.89
   6   1   0 1013.50   56.79
   6   1   0 1034.40   66.79
   6   1   0 1045.20   45.10
   6   1   0  998.40   57.19
  -6   1   0 1042.10   50.69
  -6   1   0 1059.39   51.79
   6   1   0 1031.30   57.49
  -6   1   0 1076.19   49.20
   7  -1   0    0.50   23.90
  -7  -1   0    0.70   26.80
   7  -1   0    1.80   22.50
  -7  -1   0    5.70   25.20
  -7  -1   0  -13.40   24.80
   7  -1   0    5.80   30.10
   7  -1   0  -10.90   12.00
   7   1   0    0.50   25.60
   7   1   0   46.70   26.40
  -7   1   0   18.30   24.20
   7   1   0   -0.80   16.50
  -7   1   0    4.40   22.30
  -8  -1   0  757.72   59.89
  -8  -1   0  859.51   61.09
   8  -1   0  815.72   61.79
   8  -1   0  640.04   59.29
   8   1   0  815.02   63.29
  -8   1   0  626.94   55.09
  -8   1   0  762.32   51.89
   8   1   0  687.33   63.79
  -9  -1   0   55.59   42.60
   9  -1   0   69.59   42.90
  -9  -1   0   49.30   38.10
  -9   1   0  -18.00   27.40
  -9   1   0   -8.00   32.70
   9   1   0  150.98   47.00
  10  -1   0  392.86   57.69
  10  -1   0  465.55   57.29
  10   1   0  470.55   63.29
   0  -2   0   60.29    7.60
   0  -2   0   50.39    5.40
   0  -2   0   50.09   11.30
   0  -2   0   52.39    7.10
   0  -2   0   51.69    6.80
   0   2   0   71.59   10.70
   0   2   0   57.29    6.40
  -1  -2   0  661.23   29.30
   1  -2   0  638.14   20.40
  -1  -2   0  696.53   29.00
  -1  -2   0  684.73   29.50
   1  -2   0  628.94   20.30
  -1  -2   0  661.13   32.50
  -1  -2   0  633.44   29.80
   1   2   0  653.53   28.10
   1   2   0  648.44   28.40
   1   2   0  648.54   29.40
   1   2   0  638.24   29.30
   1   2   0  683.33   28.90
  -1   2   0  691.83   26.90
   1   2   0  640.54   28.60
  -2  -2   0  152.08   19.90
   2  -2   0  140.89   13.40
  -2  -2   0  130.19   19.10
  -2  -2   0  123.49   19.20
  -2  -2   0  119.49   17.60
   2  -2   0  127.29   14.70
   2  -2   0  144.79   13.50
   2  -2   0  136.69   14.50
  -2  -2   0  144.29   18.80
  -2   2   0  126.69   14.30
  -2   2   0  124.79   12.40
   2   2   0  151.78   18.80
   2   2   0  121.19   18.00
   2   2   0  140.69   18.00
   2   2   0  140.69   18.00
   2   2   0  142.59   16.90
   2   2   0  122.99   18.50
  -3  -2   0 4553.24  144.49
   3  -2   0 4612.74  138.49
  -3  -2   0 4214.08  149.79
   3  -2   0 4642.94  138.99
  -3  -2   0 4456.85  143.09
  -3  -2   0 4753.12  143.39
   3  -2   0 4471.95  138.49
   3  -2   0 4548.45  139.89
  -3   2   0 4412.06  134.29
   3   2   0 4481.15  144.09
   3   2   0 4774.52  144.29
  -3   2   0 4355.66  137.29
   3   2   0 4262.47  143.79
  -3   2   0 4610.24  137.49
   3   2   0 4617.54  143.89
   3   2   0 4653.93  139.59
   3   2   0 4591.54  143.39
   4  -2   0   17.80   13.70
  -4  -2   0   44.40   17.30
  -4  -2   0   26.20   20.80
   4  -2   0   39.70   14.90
   4  -2   0   28.70   14.10
   4  -2   0   25.00   15.30
  -4  -2   0   22.40   18.90
  -4  -2   0   34.80   21.10
   4  -2   0   29.00   14.50
  -4  -2   0   37.90   16.10
   4   2   0   23.50   16.70
  -4   2   0   38.40   11.40
   4   2   0   33.50   20.00
  -4   2   0   33.80   12.10
   4   2   0   23.40   19.60
   4   2   0   27.50   13.80
  -4   2   0   31.10   13.30
   4   2   0   78.49   19.40
  -5  -2   0 3835.62  131.99
  -5  -2   0 3710.13  133.29
   5  -2   0 3911.21  127.89
  -5  -2   0 3959.70  130.09
  -5  -2   0 3879.11  133.19
  -5  -2   0 3761.82  130.39
   5  -2   0 3820.62  126.69
   5  -2   0 3967.40  134.39
   5  -2   0 3655.83  125.99
  -5   2   0 3474.75  133.19
   5   2   0 4013.20  132.39
   5   2   0 3781.12  131.79
  -5   2   0 3953.50  124.29
   5   2   0 3690.43  130.19
   5   2   0 3818.62  122.79
  -5   2   0 3764.92  124.49
   5   2   0 3943.71  131.69
   5   2   0 3770.52  131.89
   6  -2   0    6.50   22.00
  -6  -2   0  -13.60   24.00
  -6  -2   0   60.79   31.70
   6  -2   0   22.90   21.20
   6  -2   0   11.90   19.40
   6  -2   0   16.70   20.60
  -6  -2   0    8.90   25.80
  -6  -2   0    7.90   24.60
   6   2   0   21.70   17.40
  -6   2   0   10.60   16.10
   6   2   0   12.90   24.90
   6   2   0   78.29   34.30
   6   2   0  -22.00   22.10
  -6   2   0    9.00   16.70
  -7  -2   0 1821.92   84.69
   7  -2   0 1820.32   81.69
   7  -2   0 1702.43   80.19
   7  -2   0 1727.83   77.89
  -7  -2   0 1741.03   83.29
  -7  -2   0 1607.64   85.49
   7   2   0 1769.12   84.59
  -7   2   0 1768.22   67.99
  -7   2   0 1831.92   73.19
   7   2   0 1834.52   67.49
   7   2   0 1717.43   83.49
  -8  -2   0  -31.40   31.40
  -8  -2   0  -30.30   29.90
  -8  -2   0   33.20   32.30
   8  -2   0   40.60   26.40
  -8   2   0    9.20   20.20
   8   2   0   33.80   21.20
   8   2   0   31.80   37.60
   8   2   0  -28.90   32.50
  -8   2   0  -19.10   23.90
   9  -2   0  600.04   65.19
  -9  -2   0  592.54   60.59
   9   2   0  515.55   66.19
   0  -3   0   -2.10    7.80
   0  -3   0    2.40    6.50
   0  -3   0    1.60    6.10
   0  -3   0    9.00   12.80
   0  -3   0   -4.30    7.10
   0   3   0    4.10    6.40
   0   3   0    2.90   13.40
  -1  -3   0 1046.20   39.50
  -1  -3   0 1032.40   40.70
  -1  -3   0 1014.60   39.00
  -1  -3   0 1009.50   43.60
  -1  -3   0 1064.39   39.20
   1   3   0 1045.20   42.00
   1   3   0 1017.60   41.90
  -1   3   0 1017.30   38.90
   1   3   0 1020.90   37.80
   1   3   0 1017.30   39.30
   1   3   0  999.40   38.10
   1   3   0  979.10   38.40
  -2  -3   0  715.23   35.10
  -2  -3   0  780.62   35.00
   2  -3   0  678.93   25.10
   2  -3   0  687.63   25.30
  -2  -3   0  741.23   34.10
   2  -3   0  709.13   23.00
  -2  -3   0  714.13   36.60
  -2  -3   0  625.74   35.80
   2   3   0  723.73   35.00
   2   3   0  741.03   33.70
   2   3   0  698.33   34.50
  -2   3   0  700.53   29.80
   2   3   0  689.53   36.10
   2   3   0  702.63   34.50
   2   3   0  731.43   35.00
  -3  -3   0  964.10   49.40
  -3  -3   0  984.10   45.10
   3  -3   0 1018.50   36.90
  -3  -3   0  996.60   44.70
   3  -3   0 1017.60   37.80
   3  -3   0  945.91   37.30
  -3  -3   0 1000.90   47.90
  -3  -3   0 1020.20   47.90
   3  -3   0 1009.10   37.00
   3   3   0 1020.00   45.70
   3   3   0  992.50   43.10
  -3   3   0  941.81   35.10
   3   3   0 1054.79   46.50
   3   3   0 1103.49   52.29
  -3   3   0 1044.80   35.50
   3   3   0  946.31   46.30
   3   3   0 1000.10   44.60
  -4  -3   0 1033.50   50.19
  -4  -3   0 1202.78   51.59
   4  -3   0 1043.20   44.10
   4  -3   0 1138.09   46.40
  -4  -3   0 1029.30   54.39
  -4  -3   0 1012.70   55.19
   4  -3   0 1116.49   44.90
   4  -3   0 1108.29   45.00
   4  -3   0 1088.49   44.30
  -4  -3   0 1101.39   54.79
   4   3   0 1142.49   53.29
  -4   3   0 1114.39   41.30
   4   3   0 1054.29   48.80
  -4   3   0 1125.09   41.00
   4   3   0 1051.29   49.90
   4   3   0  970.10   51.49
   4   3   0 1082.19   49.50
   4   3   0 1153.48   52.39
   5  -3   0  400.76   32.10
   5  -3   0  351.06   30.40
  -5  -3   0  416.56   34.80
  -5  -3   0  398.56   41.50
  -5  -3   0  387.56   36.00
  -5  -3   0  450.15   43.00
  -5  -3   0  337.47   35.90
   5  -3   0  284.17   30.10
   5  -3   0  423.26   30.10
   5  -3   0  372.86   30.90
  -5   3   0  449.95   27.00
   5   3   0  436.56   33.00
   5   3   0  381.46   38.60
   5   3   0  391.46   37.40
   5   3   0  409.26   36.20
  -5   3   0  415.26   27.40
   5   3   0  402.56   33.70
   5   3   0  416.36   40.30
  -6  -3   0  719.93   56.09
  -6  -3   0  853.31   57.19
   6  -3   0  944.31   50.59
  -6  -3   0  902.01   58.79
   6  -3   0  864.81   48.00
   6  -3   0  927.71   48.00
   6  -3   0  939.11   53.09
  -6   3   0  911.71   29.70
   6   3   0  862.01   56.79
   6   3   0  881.81   57.79
  -6   3   0  939.21   44.00
   6   3   0  885.41   45.20
   7  -3   0   24.20   21.50
  -7  -3   0   22.20   30.10
   7  -3   0   54.39   27.90
  -7  -3   0   64.89   30.50
  -7  -3   0   16.20   28.20
   7  -3   0   70.99   23.80
   7   3   0   20.10   28.60
  -7   3   0   69.99   19.60
   7   3   0   19.00   29.00
   7   3   0   27.80   18.30
  -8  -3   0 1068.49   77.89
   8  -3   0 1187.08   69.29
  -8  -3   0 1240.58   86.09
  -8  -3   0 1172.58   75.39
   8   3   0 1085.19   82.49
  -8   3   0 1224.38   59.29
   9  -3   0  155.08   42.80
  -9  -3   0  146.49   49.60
  -9  -3   0  120.69   43.00
   9   3   0  190.98   45.90
   0  -4   0 7483.35  219.98
   0  -4   0 7442.66  221.08
   0  -4   0 7659.13  226.08
   0  -4   0 7671.33  220.98
   0  -4   0 7726.13  219.88
   0   4   0 6962.40  230.88
   0   4   0 7485.15  219.28
   0   4   0 7783.52  219.48
  -1  -4   0  253.07   22.60
   1  -4   0  267.47   10.20
  -1  -4   0  290.57   20.50
  -1  -4   0  241.98   29.30
   1  -4   0  274.37   10.50
  -1  -4   0  276.07   27.60
  -1  -4   0  303.17   23.60
  -1   4   0  251.77   23.00
   1   4   0  253.57   18.70
   1   4   0  260.37   27.00
   1   4   0  332.57   26.00
   1   4   0  280.57   20.20
   1   4   0  284.37   18.60
   2  -4   0 5416.96  167.98
  -2  -4   0 5867.61  178.08
  -2  -4   0 5545.25  178.58
  -2  -4   0 5883.91  178.98
  -2  -4   0 5900.61  177.88
   2  -4   0 5199.38  167.88
  -2  -4   0 5813.52  181.68
   2   4   0 6076.79  177.68
   2   4   0 5883.01  180.38
   2   4   0 6031.40  178.18
   2   4   0 5775.02  177.68
  -2   4   0 5889.51  175.68
   2   4   0 5900.11  179.58
   2   4   0 5792.62  176.48
  -3  -4   0  154.48   22.90
  -3  -4   0  178.48   21.60
   3  -4   0  146.49   13.10
   3  -4   0  136.59   14.10
  -3  -4   0  155.28   28.80
   3  -4   0  149.99   13.20
  -3  -4   0  172.68   22.20
  -3  -4   0  118.89   24.60
   3  -4   0  153.88   14.40
   3   4   0  167.18   22.20
   3   4   0  163.18   20.70
   3   4   0  178.08   21.80
   3   4   0  144.09   22.10
   3   4   0  208.08   24.60
  -3   4   0  146.19   18.50
   3   4   0  149.79   21.70
   4  -4   0  605.04   30.00
  -4  -4   0  618.34   38.80
  -4  -4   0  570.14   43.50
  -4  -4   0  558.94   43.50
  -4  -4   0  522.55   44.90
   4  -4   0  640.14   30.40
   4  -4   0  581.24   30.40
  -4  -4   0  620.74   39.70
   4  -4   0  602.64   29.50
   4  -4   0  607.84   34.90
   4   4   0  612.44   38.40
  -4   4   0  624.54   23.90
   4   4   0  611.24   37.10
   4   4   0  605.54   41.00
   4   4   0  560.54   42.40
   4   4   0  632.14   39.70
   4   4   0  589.84   40.70
  -4   4   0  582.34   23.60
  -5  -4   0   91.79   29.10
   5  -4   0   86.19   17.70
  -5  -4   0  102.59   29.50
   5  -4   0  134.19   22.90
   5  -4   0  104.29   17.70
   5  -4   0   89.99   16.90
   5  -4   0   86.49   18.20
  -5  -4   0   74.59   27.60
  -5  -4   0  117.29   28.00
  -5   4   0  104.99   13.50
  -5   4   0  100.99   13.70
   5   4   0   89.19   26.80
   5   4   0   63.99   24.80
   5   4   0  129.59   23.90
  -6  -4   0   38.70   28.40
  -6  -4   0   47.90   27.70
   6  -4   0    1.80   19.20
   6  -4   0   34.70   22.90
  -6  -4   0   51.09   30.60
   6  -4   0   53.99   19.40
   6  -4   0   33.90   18.10
   6   4   0   -2.00   26.60
   6   4   0  -10.50   18.80
   6   4   0  -50.39   24.80
   7  -4   0   72.59   25.00
   7  -4   0   65.39   27.80
  -7  -4   0   55.29   31.40
  -7  -4   0   26.90   32.00
  -7  -4   0   43.00   34.50
   7   4   0   25.30   30.90
   7   4   0   31.10   21.80
   7   4   0   36.70   32.30
  -8  -4   0  284.07   46.20
  -8  -4   0  248.68   49.50
  -8  -4   0  193.48   51.89
   8  -4   0  217.18   35.90
   8   4   0  252.97   30.10
   8   4   0  216.98   46.60
   9  -4   0   74.59   32.90
  -9  -4   0   41.40   47.70
   9  -4   0   20.70   36.30
  -9  -4   0   15.10   41.20
  -9  -4   0   21.40   42.30
   9   4   0  -33.10   36.80
   0  -5   0   -2.30   13.80
   0  -5   0   -5.80    8.70
   0  -5   0    1.90    8.10
   0  -5   0    4.70    8.00
   0  -5   0  -14.00    7.30
   0   5   0    4.40    5.70
   0   5   0    1.00   17.30
   0   5   0   -7.20    5.30
  -1  -5   0 3243.88   99.69
   1  -5   0 3031.70   92.19
  -1  -5   0 3129.99  100.09
  -1  -5   0 3041.20  100.59
   1  -5   0 2997.30   92.29
  -1  -5   0 3084.79  105.49
   1  -5   0 3060.99  101.09
  -1  -5   0 3119.09   99.89
   1   5   0 3282.67   98.89
   1   5   0 3210.88  103.29
  -1   5   0 3136.49  103.59
   1   5   0 3067.59   95.09
   1   5   0 3246.58   95.49
   1   5   0 3099.59  105.59
   2  -5   0   60.79    4.00
  -2  -5   0   68.29   16.10
  -2  -5   0   59.29   16.40
  -2  -5   0   74.09   18.80
  -2  -5   0   62.29   21.40
  -2  -5   0   65.89   20.00
   2   5   0   57.29   16.00
   2   5   0   54.39   20.50
   2   5   0   92.89   15.90
   2   5   0   51.59   18.30
   2   5   0   90.89   15.90
  -2   5   0   79.09   17.20
   3  -5   0 1108.99   38.20
  -3  -5   0 1147.69   54.89
   3  -5   0 1101.89   37.90
  -3  -5   0 1134.29   58.49
   3  -5   0 1132.39   37.10
  -3  -5   0 1177.48   51.49
  -3  -5   0 1122.49   54.69
   3  -5   0 1190.58   37.50
  -3  -5   0 1201.98   51.49
  -3   5   0 1142.79   47.30
   3   5   0 1102.19   49.00
   3   5   0 1186.58   51.09
   3   5   0 1096.79   53.19
   3   5   0 1159.58   51.69
   3   5   0 1132.69   50.59
   3   5   0 1093.89   52.19
   4  -5   0   76.69   12.80
  -4  -5   0   94.29   29.30
  -4  -5   0   65.59   23.80
  -4  -5   0   91.29   24.60
  -4  -5   0   48.20   23.90
   4  -5   0   75.69   12.00
   4  -5   0   90.89   13.10
   4  -5   0   79.09   12.80
  -4  -5   0   50.09   22.60
   4   5   0   62.39   24.00
   4   5   0   95.89   21.60
   4   5   0   98.69   23.10
   4   5   0  103.09   23.30
   4   5   0   62.39   23.00
   4   5   0  115.99   24.30
   5  -5   0  565.64   33.20
   5  -5   0  536.45   31.80
  -5  -5   0  531.35   49.10
   5  -5   0  544.85   31.90
  -5  -5   0  503.85   49.00
   5  -5   0  584.64   32.60
   5  -5   0  539.45   37.70
  -5  -5   0  491.85   50.99
   5   5   0  622.04   44.20
   5   5   0  583.14   47.30
   5   5   0  568.44   46.20
   6  -5   0  312.47   32.10
   6  -5   0  287.77   30.20
  -6  -5   0  336.77   41.90
  -6  -5   0  397.86   50.89
  -6  -5   0  278.37   41.50
   6  -5   0  300.27   32.90
  -6   5   0  331.27   19.30
   6   5   0  348.37   41.20
  -6   5   0  320.47   20.40
   6   5   0  397.46   48.60
   6   5   0  299.57   39.20
  -7  -5   0   67.09   39.40
  -7  -5   0   27.10   35.70
   7  -5   0   16.20   20.40
   7  -5   0  -17.90   26.90
  -7  -5   0  -17.80   29.40
   7   5   0  -25.20   33.10
  -7   5   0   17.10   23.50
   7   5   0   -2.50   24.10
  -8  -5   0  761.42   79.49
  -8  -5   0  843.02   78.39
  -8  -5   0  744.23   92.09
   8  -5   0  857.31   56.29
   8   5   0  650.43   91.69
   8   5   0  832.22   52.39
  -9  -5   0  154.18   52.59
   9  -5   0  201.98   39.30
   9  -5   0  196.78   45.10
  -9  -5   0  122.79   51.69
  -9  -5   0   60.39   46.70
   9   5   0  200.58   49.00
   9   5   0  166.78   31.80
   9   5   0  168.08   47.70
   0  -6   0  445.66   22.70
   0  -6   0  423.16   31.50
   0  -6   0  442.96   24.00
   0  -6   0  445.36   22.90
   0   6   0  446.06   35.00
   0   6   0  430.66   19.50
   0   6   0  439.36   17.50
   1  -6   0  402.26   14.40
   1  -6   0  375.36   29.10
  -1  -6   0  376.56   27.70
  -1  -6   0  443.16   26.00
  -1  -6   0  375.66   25.50
   1  -6   0  388.96   16.80
  -1  -6   0  461.45   35.90
   1  -6   0  400.26   14.70
   1  -6   0  382.16   17.00
  -1  -6   0  390.76   27.30
  -1   6   0  391.06   32.50
   1   6   0  387.66   34.10
   1   6   0  400.36   23.70
   1   6   0  440.86   23.60
   1   6   0  401.96   16.60
  -2  -6   0  524.85   32.30
  -2  -6   0  416.06   34.40
  -2  -6   0  482.35   33.30
  -2  -6   0  548.85   40.00
  -2  -6   0  426.06   29.80
   2   6   0  490.15   38.20
   2   6   0  511.85   27.90
   2   6   0  441.86   29.50
   2   6   0  470.85   29.50
   2   6   0  495.85   31.60
  -2   6   0  484.25   35.10
   3  -6   0 1693.73   51.99
  -3  -6   0 1712.13   72.09
  -3  -6   0 1627.74   72.19
  -3  -6   0 1691.33   68.39
  -3  -6   0 1667.23   71.29
   3  -6   0 1765.92   51.59
  -3  -6   0 1863.41   70.29
   3   6   0 1654.93   67.09
   3   6   0 1599.04   66.79
   3   6   0 1850.31   67.19
  -3   6   0 1782.22   66.39
   3   6   0 1636.94   71.29
   3   6   0 1652.83   71.49
  -4  -6   0  171.08   35.20
  -4  -6   0  228.48   28.90
   4  -6   0  221.88   17.60
   4  -6   0  183.88   16.70
   4  -6   0  204.58   18.40
  -4  -6   0  227.38   32.00
  -4  -6   0  203.58   32.70
   4   6   0  215.88   31.30
   4   6   0  181.28   28.20
   4   6   0  191.28   27.50
  -4   6   0  221.18   27.30
  -5  -6   0 2770.82  115.59
   5  -6   0 2982.30   92.89
   5  -6   0 2934.51   94.29
   5  -6   0 2785.02   94.39
  -5  -6   0 2836.12  112.89
   5  -6   0 2958.40  100.79
  -5  -6   0 2671.73  111.89
   5   6   0 2829.72  107.09
   5   6   0 2589.44  106.09
  -6  -6   0   80.19   33.80
   6  -6   0   60.79   28.40
   6  -6   0   79.69   17.30
   6  -6   0   44.00   18.80
  -6  -6   0   90.59   31.90
  -6  -6   0   40.50   29.70
   6   6   0  119.49   28.90
   6   6   0   10.40   28.20
   7  -6   0 1558.64   68.39
  -7  -6   0 1423.46   87.79
  -7  -6   0 1500.75   91.09
  -7  -6   0 1624.34   97.39
   7   6   0 1655.23   77.89
   7   6   0 1550.14   92.79
   8  -6   0  115.29   31.60
  -8  -6   0   31.80   38.90
  -8  -6   0  -29.00   41.60
  -8  -6   0   24.90   66.19
   8  -6   0    2.60   27.50
   8   6   0  -25.60   36.20
   8   6   0   -5.40   28.40
   9  -6   0  514.15   55.49
   9  -6   0  493.35   55.39
  -9  -6   0  419.86   62.29
  -9  -6   0  461.05   66.69
  -9  -6   0  444.76   65.79
   9   6   0  588.84   63.49
   9   6   0  569.54   70.29
   9   6   0  412.06   62.39
   0  -7   0   -0.90   11.40
   0  -7   0  -11.40    8.80
   0  -7   0    2.10   18.50
   0  -7   0    9.50   11.70
   0  -7   0    9.20   11.30
   0   7   0    8.60    4.00
   0   7   0   -5.10   21.00
  -1  -7   0  209.58   23.00
   1  -7   0  203.98   13.40
   1  -7   0  189.68   17.10
  -1  -7   0  190.38   24.50
   1  -7   0  223.98   28.40
  -1  -7   0  234.08   22.50
   1  -7   0  220.38   12.80
   1  -7   0  213.78   14.20
  -1  -7   0  243.48   25.70
  -1  -7   0  250.87   30.40
   1   7   0  200.08   18.10
  -1   7   0  210.18   27.70
   1   7   0  174.48   18.20
   1   7   0  218.48   30.80
  -2  -7   0  461.25   40.80
   2  -7   0  418.86   39.80
  -2  -7   0  419.76   36.10
  -2  -7   0  495.85   43.10
  -2  -7   0  504.45   35.60
   2   7   0  481.65   31.00
   2   7   0  491.95   26.50
   2   7   0  427.86   31.50
   2   7   0  439.36   40.60
   2   7   0  510.35   38.60
  -2   7   0  497.55   38.50
  -3  -7   0  471.95   47.00
  -3  -7   0  472.15   38.20
  -3  -7   0  468.35   40.40
  -3  -7   0  415.76   41.00
   3   7   0  459.35   42.00
  -3   7   0  522.25   36.90
   3   7   0  514.45   32.80
   3   7   0  492.55   34.90
   4  -7   0 1060.69   36.00
  -4  -7   0 1012.00   61.39
   4  -7   0 1069.89   36.20
  -4  -7   0 1111.89   62.39
  -4  -7   0 1057.59   61.09
   4  -7   0 1154.08   39.70
   4  -7   0 1147.79   39.70
  -4  -7   0  975.00   60.99
   4   7   0 1072.89   60.49
  -4   7   0 1195.08   51.99
   4   7   0 1133.19   56.79
   4   7   0 1119.89   56.29
  -5  -7   0  172.48   35.70
  -5  -7   0  186.98   39.40
   5  -7   0  215.28   25.30
   5  -7   0  149.09   17.60
   5  -7   0  186.78   18.20
   5  -7   0  214.38   29.00
   5  -7   0  178.68   18.20
  -5  -7   0  164.48   34.50
   5   7   0  162.38   30.70
   5   7   0  235.18   35.80
  -6  -7   0 1356.56   81.79
   6  -7   0 1357.96   53.89
  -6  -7   0 1353.76   79.99
  -6  -7   0 1314.57   83.19
   6  -7   0 1344.27   53.49
   6   7   0 1312.17   73.29
   6   7   0 1513.85   78.99
  -7  -7   0   55.19   38.70
   7  -7   0   -1.10   17.60
   7  -7   0   14.80   22.50
  -7  -7   0   11.70   38.40
  -7  -7   0   67.29   41.70
   7   7   0   16.20   40.50
   7   7   0  -15.90   27.80
   8  -7   0  952.10   63.59
   8  -7   0  995.80   63.09
  -8  -7   0 1085.59   83.69
  -8  -7   0  968.40   89.39
  -8  -7   0 1078.19   83.69
   8   7   0  842.72   78.29
   8   7   0 1290.17   78.29
   0  -8   0 6270.67  206.38
   0  -8   0 6597.94  196.38
   0  -8   0 6529.75  195.38
   0  -8   0 6320.97  195.68
   0  -8   0 6625.74  195.78
   0   8   0 6355.06  209.28
  -1  -8   0   -4.20   15.30
   1  -8   0    9.00    8.50
   1  -8   0   23.00    7.90
   1  -8   0    2.50    8.20
   1  -8   0    1.40   19.70
  -1  -8   0    3.50   15.80
   1  -8   0    5.60    9.40
  -1  -8   0    4.20   13.30
  -1  -8   0   14.10   18.00
  -1  -8   0   28.60   22.00
  -1   8   0   10.10   22.80
   1   8   0   30.20   25.40
   1   8   0   18.70   10.90
  -2  -8   0 2663.93   97.49
  -2  -8   0 2530.85  103.19
   2  -8   0 2567.24   95.69
  -2  -8   0 2542.85   96.29
   2  -8   0 2656.83   77.09
   2  -8   0 2643.74   76.89
  -2  -8   0 2612.14   96.29
  -2   8   0 2582.44   98.59
   2   8   0 2575.04  102.89
   2   8   0 2960.80   98.59
   2   8   0 2682.03   91.19
   2   8   0 2486.85   83.19
  -3  -8   0  191.88   29.20
  -3  -8   0  186.68   30.00
  -3  -8   0  186.98   30.40
   3  -8   0  183.48   24.50
  -3  -8   0  168.78   34.20
  -3   8   0  202.68   29.30
   3   8   0  202.58   25.40
   3   8   0  198.58   22.80
   3   8   0  225.48   27.20
   3   8   0  136.09   31.70
  -4  -8   0  295.47   40.80
   4  -8   0  300.97   17.60
   4  -8   0  307.87   17.70
  -4  -8   0  301.37   37.70
  -4  -8   0  339.57   42.30
  -4  -8   0  294.17   38.50
   4   8   0  352.86   40.30
  -4   8   0  276.97   34.50
   4   8   0  316.17   39.40
   4   8   0  243.28   38.00
   4   8   0  289.47   36.80
   5  -8   0  152.98   17.60
  -5  -8   0  158.58   40.00
  -5  -8   0  180.18   37.50
   5  -8   0  192.08   12.40
   5  -8   0  196.28   21.20
  -5  -8   0  220.88   37.00
   5   8   0  131.49   31.00
   5   8   0  213.28   33.10
   5   8   0  128.89   34.30
  -6  -8   0  -40.80   39.40
  -6  -8   0  -24.80   36.90
  -6  -8   0   22.50   44.00
   6  -8   0    8.20   11.40
   6  -8   0   18.60   11.20
   6  -8   0   -4.50   16.60
   6   8   0   22.80   31.80
   6   8   0   27.80   30.80
   6   8   0    9.00   28.70
  -7  -8   0  264.57   48.90
   7  -8   0  270.37   27.10
  -7  -8   0  385.16   58.19
  -7  -8   0  218.48   50.49
   7  -8   0  267.47   33.50
   7   8   0  281.47   49.50
   7   8   0  247.18   39.80
   8  -8   0  193.98   30.00
  -8  -8   0  206.28   49.90
  -8  -8   0  227.48   55.49
  -8  -8   0  159.88   49.99
   8   8   0  155.08   35.70
   8   8   0  300.57   51.99
   8   8   0  142.59   55.79
   0  -9   0   11.90   16.30
   0  -9   0   15.40   12.50
   0  -9   0   14.20   24.50
   0  -9   0  -12.30   13.70
   0  -9   0   19.60   13.40
   0   9   0   -4.60   23.30
   1  -9   0 1693.63   55.69
   1  -9   0 1607.54   53.19
  -1  -9   0 1552.34   74.39
   1  -9   0 1596.74   56.09
   1  -9   0 1611.04   53.59
  -1  -9   0 1557.24   65.49
   1  -9   0 1562.74   70.29
  -1  -9   0 1682.63   62.89
  -1  -9   0 1609.54   64.59
  -1  -9   0 1536.15   65.19
   1   9   0 1649.83   77.49
   1   9   0 1629.74   55.79
  -1   9   0 1468.95   74.49
  -2  -9   0  131.89   25.20
  -2  -9   0  133.89   24.60
  -2  -9   0  166.48   26.30
   2  -9   0  151.38   11.60
  -2  -9   0   87.19   30.00
   2  -9   0  145.09   25.50
   2   9   0  119.49   32.50
   2   9   0  135.19   20.30
  -2   9   0  190.08   32.70
  -3  -9   0 1381.36   67.09
  -3  -9   0 1256.37   66.19
  -3  -9   0 1287.07   72.89
   3  -9   0 1328.17   60.69
  -3  -9   0 1256.67   64.69
   3   9   0 1299.97   71.99
   3   9   0 1328.47   51.79
   3   9   0 1265.07   58.39
  -3   9   0 1251.97   65.19
   4  -9   0   84.79   22.00
  -4  -9   0   79.59   28.80
   4  -9   0   62.19    9.00
  -4  -9   0   64.59   37.10
   4  -9   0   64.29    9.80
  -4  -9   0   80.69   29.50
  -4  -9   0   82.89   31.60
  -4   9   0   55.09   25.50
   4   9   0   61.99   26.10
   4   9   0   80.29   32.50
   4   9   0   27.70   24.50
   4   9   0   46.70   22.50
   5  -9   0  341.87   23.70
  -5  -9   0  223.18   43.80
  -5  -9   0  288.47   45.40
  -5  -9   0  329.27   53.99
   5   9   0  224.58   33.80
   5   9   0  276.87   38.10
   5   9   0  319.17   50.09
  -6  -9   0   37.00   47.00
  -6  -9   0  114.59   45.80
  -6  -9   0   34.70   60.29
   6   9   0   96.99   36.30
   6   9   0   90.79   35.90
   6   9   0  145.59   38.40
  -7  -9   0  -26.50   41.60
  -7  -9   0   11.70   43.70
  -7  -9   0   16.20   44.10
   7  -9   0   -5.90   10.80
   7   9   0    9.10   38.30
   7   9   0   -8.50   34.10
   7   9   0  -49.30   39.80
   0 -10   0  461.95   32.60
   0 -10   0  410.36   29.90
   0 -10   0  423.86   46.30
   0 -10   0  394.26   29.00
   0 -10   0  431.36   35.80
   0  10   0  396.56   47.30
   1 -10   0  149.79   14.70
   1 -10   0  175.38   19.30
   1 -10   0  134.39   16.00
  -1 -10   0  153.18   23.90
   1 -10   0  144.59   30.30
  -1 -10   0  150.38   31.50
  -1 -10   0  133.79   20.20
  -1 -10   0  161.88   25.20
   1 -10   0  162.38   17.60
   1  10   0  127.89   16.30
   1  10   0  122.29   35.90
   1  10   0  163.58   21.10
  -1  10   0  162.68   35.20
   2 -10   0  412.56   21.40
  -2 -10   0  443.86   40.00
   2 -10   0  425.16   22.30
   2 -10   0  348.67   41.60
  -2 -10   0  433.36   41.20
  -2 -10   0  422.76   51.19
  -2 -10   0  404.66   41.90
   2  10   0  536.25   51.49
  -2  10   0  421.36   45.70
   2  10   0  397.16   50.69
  -3 -10   0 1205.78   66.79
   3 -10   0 1271.47   38.40
  -3 -10   0 1127.89   67.59
  -3 -10   0 1260.77   69.59
   3 -10   0 1237.58   61.89
  -3 -10   0 1345.77   78.19
   3 -10   0 1271.77   38.40
  -3  10   0 1229.08   66.29
   3  10   0 1219.48   74.19
   3  10   0 1334.17   59.29
  -4 -10   0  210.78   38.90
  -4 -10   0  160.78   36.10
  -4 -10   0  148.49   43.30
   4 -10   0  136.99   26.20
  -4  10   0  172.28   31.80
   4  10   0  191.88   38.10
   4  10   0  126.99   24.70
   5 -10   0 1260.27   60.79
  -5 -10   0 1372.76   87.19
  -5 -10   0 1266.17   99.69
   5  10   0 1195.68   64.49
  -5  10   0 1273.27   66.49
   5  10   0 1216.38   71.09
   6 -10   0   62.99   27.50
  -6 -10   0   -0.90   37.70
  -6 -10   0   10.00   39.00
  -6 -10   0  -36.60   42.50
   6  10   0   41.50   39.90
   6  10   0  108.49   37.30
   6  10   0   51.39   36.80
  -7 -10   0  904.01   81.19
  -7 -10   0  906.71   91.09
  -7 -10   0  895.91   88.99
   7  10   0  832.62   91.89
   7  10   0  723.23   73.29
   7  10   0  880.21   75.99
   0 -11   0   -8.70   14.20
   0 -11   0  -13.20   17.10
   0 -11   0   -7.20   28.90
   0 -11   0   23.90   15.10
   0  11   0   48.60   33.50
  -1 -11   0   58.29   21.30
   1 -11   0   29.60    9.30
  -1 -11   0   26.60   21.00
  -1 -11   0   24.60   29.90
   1 -11   0    6.40   24.90
  -1 -11   0   39.70   20.30
   1 -11   0   51.19    9.60
   1 -11   0   33.30   15.30
  -1  11   0   97.19   34.60
   2 -11   0  225.48   20.60
  -2 -11   0  226.68   41.70
  -2 -11   0  202.28   31.30
  -2 -11   0  167.08   31.50
   2 -11   0  247.78   35.10
   2  11   0  181.68   40.30
  -2  11   0  128.99   36.70
  -3 -11   0   88.49   43.20
   3 -11   0   47.60   24.70
  -3 -11   0   28.30   31.50
  -3 -11   0   97.09   33.70
   3  11   0  117.49   25.90
  -3  11   0   21.70   30.50
  -4 -11   0  700.43   64.89
  -4 -11   0  874.51   88.79
   4  11   0  791.12   62.79
  -4  11   0  689.63   59.49
  -5 -11   0   13.60   33.70
  -5 -11   0   28.80   41.00
   5 -11   0  -30.00   27.10
   5  11   0    9.50   33.70
   5  11   0   22.40   26.60
  -5  11   0   26.00   31.00
  -6 -11   0  761.22   85.29
  -6 -11   0  785.32   78.89
  -6 -11   0  941.41   86.99
   6  11   0  846.12   69.79
   0 -12   0 1734.83   88.39
   0 -12   0 1837.82   75.79
   0 -12   0 1813.62   67.59
   1 -12   0  106.09   20.20
   1 -12   0  123.49   13.20
   1 -12   0   66.69   29.50
  -1 -12   0   75.29   23.70
  -1 -12   0   97.79   40.20
  -1 -12   0  121.99   26.50
  -1  12   0   69.19   43.10
   1  12   0   93.79   36.50
  -2 -12   0 1251.17   67.99
   2 -12   0 1199.78   66.39
  -2 -12   0 1228.48   70.89
  -2 -12   0 1249.38   87.29
  -2  12   0 1136.69   74.59
   2  12   0 1044.10   74.59
   3 -12   0  224.08   36.00
  -3 -12   0  192.78   36.00
   3  12   0  202.48   44.60
  -3  12   0  208.68   41.30
   4 -12   0  246.68   37.90
  -4 -12   0  248.48   54.49
  -4 -12   0  281.97   46.10
  -4 -12   0  209.98   49.70
  -4  12   0  178.48   48.00
   4  12   0  249.88   46.10
  -5 -12   0  237.08   57.79
  -5 -12   0  433.16   55.39
  -5 -12   0  238.38   47.60
   5  12   0  343.97   55.09
   0 -13   0    4.00   16.30
   0 -13   0  -27.20   43.40
   0  13   0    2.20   32.10
  -1 -13   0 1456.75   73.19
  -1 -13   0 1322.27   67.59
   1 -13   0 1472.45   86.19
  -1 -13   0 1227.08   99.99
  -1  13   0 1352.16   83.09
   1  13   0 1398.16   87.79
  -2 -13   0   74.49   35.20
  -2 -13   0   16.30   30.50
   2 -13   0   14.30   33.30
  -2 -13   0    7.60   41.50
   2  13   0   13.90   36.80
  -2  13   0   68.59   31.10
   3 -13   0  436.36   53.29
  -3 -13   0  542.05   59.99
  -3 -13   0  622.24   70.39
  -3 -13   0  433.86   49.40
   3  13   0  535.65   64.79
  -3  13   0  598.14   53.99
  -4 -13   0   42.20   39.90
  -4 -13   0  -85.99   44.10
  -4 -13   0   18.50   41.70
   4  13   0   11.00   40.50
  -4  13   0    5.30   32.50
   0 -14   0  522.45   41.20
   0 -14   0  616.64   68.99
   0  14   0  500.25   63.99
  -1 -14   0  155.58   49.30
   1 -14   0  -76.49   74.29
  -1 -14   0  108.79   26.10
   1  14   0  120.29   45.40
  -1  14   0   61.29   37.80
  -2 -14   0  795.22   88.09
  -2 -14   0  668.13   57.49
   2  14   0  612.04   74.69
  -2  14   0  572.24   62.89
 -10   0   1    3.90   45.20
  10   0  -1  -67.49   41.30
   9   0  -1 1483.85   85.39
  -9   0   1 1526.95   79.79
   9   0  -1 1408.86   88.29
  -9   0   1 1421.16   83.09
  -8   0   1   20.30   26.50
   8   0  -1   37.40   30.20
   8   0  -1   21.40   27.50
  -8   0   1  -23.40   26.00
  -7   0   1 2395.26   93.89
   7   0  -1 2466.15   98.09
  -7   0   1 2367.46   96.69
  -7   0   1 2278.97   93.99
   7   0  -1 2466.85   98.19
   7   0  -1 2182.18   99.09
   6   0  -1  -13.40   21.80
   6   0  -1  -17.40   21.30
  -6   0   1    3.00   20.20
  -6   0   1    5.80   21.10
   6   0  -1   25.00    8.80
   6   0  -1    5.60   22.40
   6   0  -1    2.00   19.90
  -6   0   1  -15.60   20.80
  -5   0   1 1260.87   58.69
   5   0  -1 1293.17   58.59
   5   0  -1 1313.47   42.90
   5   0  -1 1259.27   54.29
   5   0  -1 1360.66   58.69
  -5   0   1 1123.99   62.59
   5   0  -1 1281.47   60.19
   5   0  -1 1320.47   56.59
  -5   0   1 1344.17   56.09
  -5   0   1 1407.96   54.59
  -5   0   1 1306.77   58.29
   4   0  -1  -25.70   13.90
  -4   0   1   27.20   15.20
   4   0  -1    6.80   15.60
   4   0  -1   -6.10   14.60
   4   0  -1    4.30    6.60
  -4   0   1   12.70   15.90
  -4   0   1    9.50   15.80
  -4   0   1   -0.30   13.30
  -4   0   1  -27.30   11.70
   4   0  -1  -12.80   15.80
   4   0  -1    7.30   14.20
  -3   0   1  389.46   27.40
   3   0  -1  386.26   27.50
   3   0  -1  385.56   25.60
  -3   0   1  403.76   26.60
  -3   0   1  372.76   26.40
  -3   0   1  371.96   26.60
   3   0  -1  395.36   24.90
   3   0  -1  387.56   26.70
   3   0  -1  371.36   26.80
  -3   0   1  362.26   27.60
   3   0  -1  396.36   15.80
  -2   0   1   -2.70   12.20
   2   0  -1    0.30   12.60
   2   0  -1  -10.60    9.60
  -2   0   1    2.60   11.80
   2   0  -1  -16.70   12.30
   2   0  -1    2.30    4.60
  -2   0   1    8.90   13.00
  -2   0   1   -7.20   11.50
   2   0  -1    3.10   12.60
   2   0  -1   13.80   12.10
  -2   0   1   -3.00   12.90
  -1   0   1 1112.69   38.40
  -1   0   1 1109.49   35.90
   1   0  -1 1143.49   38.30
   1   0  -1 1163.28   38.10
  -1   0   1 1104.69   38.10
   1   0  -1 1105.99   38.10
   1   0  -1 1179.88   38.20
   1   0  -1 1095.89   35.90
  -1   0   1 1163.28   38.10
  -1   0   1 1117.89   38.00
   0   0   1   -2.60    5.80
   0   0   1    7.50    7.30
   0   0  -1    4.80    5.40
   0   0  -1    5.50    6.60
   0   0   1   10.10    6.90
   0   0  -1    3.20    6.20
   0   0   1    1.40    6.40
   0   0  -1    2.00    6.70
   1   0   1 4846.42  146.69
   1   0   1 5072.19  147.49
  -1   0  -1 4911.21  146.79
   1   0   1 4842.52  146.39
   1   0   1 4979.40  146.79
  -1   0  -1 4916.31  146.09
   1   0   1 4937.71  146.69
  -1   0  -1 4913.61  146.49
  -2   0  -1    3.00   12.70
  -2   0  -1    4.60   15.50
   2   0   1   -5.30   14.80
  -2   0  -1    6.00   13.60
  -2   0  -1   -5.20   13.60
  -2   0  -1   16.50   13.00
   2   0   1   -2.90   13.60
   2   0   1   -3.70   13.10
   2   0   1   -7.40   12.80
   2   0   1    4.30   13.10
  -3   0  -1 6971.40  210.08
  -3   0  -1 6962.60  212.98
  -3   0  -1 7073.79  210.28
   3   0   1 6816.02  211.48
  -3   0  -1 6882.21  209.98
   3   0   1 6707.03  210.28
   3   0   1 7143.29  211.28
  -3   0  -1 6712.63  210.38
   3   0   1 7131.29  210.98
   4   0   1   -1.20   16.00
   4   0   1    2.90   18.80
  -4   0  -1   -3.90   17.10
   4   0   1   -3.30   15.60
  -4   0  -1    6.00   21.20
   4   0   1    7.30   16.20
  -4   0  -1  -13.50   12.90
  -4   0  -1   -0.50   15.40
  -4   0  -1    6.60   14.30
   4   0   1    1.00   16.00
   5   0   1 2758.32   99.69
   5   0   1 2901.71   99.49
  -5   0  -1 2730.73   95.69
  -5   0  -1 2693.83   97.69
  -5   0  -1 2750.42   97.49
   5   0   1 2737.33   99.69
   5   0   1 2656.93   97.49
   5   0   1 2517.35   98.29
  -6   0  -1   14.70   20.70
   6   0   1  -12.00   24.10
   6   0   1  -16.40   21.80
   6   0   1   20.80   17.90
  -6   0  -1   55.69   23.40
   6   0   1   13.40   21.90
  -6   0  -1   27.70   23.70
  -7   0  -1 1155.28   69.99
  -7   0  -1 1504.85   69.39
   7   0   1 1251.17   70.09
   7   0   1 1394.26   55.69
  -7   0  -1 1421.66   70.59
   8   0   1  -13.00   34.10
  -8   0  -1  -13.10   26.70
  -8   0  -1   -4.20   29.20
  -9   0  -1  159.58   41.10
   9   0   1  111.29   45.40
   9   0   1  138.69   40.50
  -9   0  -1  109.39   41.80
 -10  -1   1  710.73   74.59
 -10  -1   1  689.63   79.39
  10  -1  -1  676.43   68.99
  10   1  -1  689.63   82.49
  -9  -1   1   -6.70   41.30
   9  -1  -1   15.40   31.30
   9  -1  -1   41.30   40.60
  -9  -1   1   55.59   35.90
  -9   1   1  -26.10   31.50
  -9   1   1  -46.10   27.40
   9   1  -1   -5.90   33.20
   8  -1  -1  704.03   55.29
  -8  -1   1  648.04   57.09
   8  -1  -1  542.65   55.49
  -8  -1   1  545.15   53.09
  -8   1   1  615.94   49.00
  -8   1   1  646.44   53.39
   8   1  -1  584.84   57.39
   8   1  -1  591.94   57.79
  -7  -1   1  553.84   49.00
   7  -1  -1  474.95   44.10
  -7  -1   1  512.95   47.90
   7  -1  -1  437.86   49.50
   7  -1  -1  436.46   49.60
   7  -1  -1  397.36   48.00
  -7  -1   1  503.85   49.90
  -7   1   1  472.85   51.89
   7   1  -1  517.35   27.70
   7   1  -1  481.45   48.80
  -7   1   1  553.04   43.50
   7   1  -1  469.65   46.30
   6  -1  -1  760.92   46.10
   6  -1  -1  808.62   47.40
  -6  -1   1  785.22   51.99
   6  -1  -1  730.03   48.90
   6  -1  -1  699.93   47.60
  -6  -1   1  893.71   46.50
  -6  -1   1  763.92   50.79
  -6  -1   1  734.93   49.50
   6   1  -1  786.82   51.19
  -6   1   1  754.22   41.50
   6   1  -1  740.23   48.70
   6   1  -1  682.73   49.90
   6   1  -1  797.52   33.00
   6   1  -1  692.73   47.40
  -6   1   1  762.42   43.70
  -6   1   1  717.83   43.20
   5  -1  -1  598.04   35.80
  -5  -1   1  560.14   40.90
  -5  -1   1  561.84   41.00
  -5  -1   1  596.94   39.10
   5  -1  -1  618.14   36.40
  -5  -1   1  569.04   46.80
  -5  -1   1  570.04   38.60
   5  -1  -1  580.84   40.40
   5  -1  -1  585.64   38.80
   5  -1  -1  622.24   39.10
  -5   1   1  639.44   35.80
   5   1  -1  583.24   41.40
  -5   1   1  588.34   37.40
   5   1  -1  510.35   36.70
   5   1  -1  596.54   27.30
   5   1  -1  498.85   37.70
   5   1  -1  544.05   41.20
  -5   1   1  582.54   35.80
   5   1  -1  610.84   39.40
  -5   1   1  598.84   33.70
  -4  -1   1  184.98   23.40
  -4  -1   1  197.88   23.50
  -4  -1   1  197.08   24.30
   4  -1  -1  205.38   22.20
  -4  -1   1  183.18   24.00
   4  -1  -1  188.88   21.60
  -4  -1   1  196.38   24.80
   4  -1  -1  186.98    7.90
   4  -1  -1  197.48   23.20
   4  -1  -1  199.88   21.90
   4  -1  -1  175.38   21.80
  -4   1   1  186.98   23.90
   4   1  -1  202.98   23.50
  -4   1   1  186.88   19.50
   4   1  -1  187.08   16.70
   4   1  -1  191.18   22.40
  -4   1   1  163.88   18.00
   4   1  -1  221.38   23.70
   4   1  -1  191.58   22.90
  -4   1   1  202.68   25.20
  -3  -1   1 1618.24   62.69
  -3  -1   1 1762.72   61.79
   3  -1  -1 1791.82   60.49
   3  -1  -1 1657.03   59.89
  -3  -1   1 1761.92   63.49
  -3  -1   1 1637.34   61.49
  -3  -1   1 1701.93   62.09
   3  -1  -1 1620.84   59.39
   3  -1  -1 1744.13   60.09
   3  -1  -1 1722.13   57.79
  -3   1   1 1620.84   58.49
  -3   1   1 1655.53   60.09
   3   1  -1 1738.53   55.29
  -3   1   1 1829.02   59.69
   3   1  -1 1665.43   62.59
   3   1  -1 1698.03   63.09
  -3   1   1 1821.62   58.29
  -3   1   1 1619.94   58.29
   3   1  -1 1696.93   61.49
   2  -1  -1 1009.70   37.20
  -2  -1   1  916.31   39.50
   2  -1  -1  949.80   37.10
   2  -1  -1  960.60   34.20
  -2  -1   1  990.50   40.30
  -2  -1   1 1026.60   40.10
  -2  -1   1 1029.30   40.70
   2  -1  -1  951.20   37.10
  -2  -1   1  950.00   41.10
   2  -1  -1 1025.20   37.40
   2   1  -1  956.30   40.70
  -2   1   1  999.30   36.60
   2   1  -1 1014.50   34.50
   2   1  -1 1030.20   38.20
   2   1  -1  980.20   40.30
   2   1  -1  976.60   40.90
  -2   1   1  947.21   34.60
  -2   1   1  985.90   37.40
   2   1  -1 1040.20   39.70
  -2   1   1  989.50   36.30
   1  -1  -1 1953.40   60.19
  -1  -1   1 1888.31   62.49
  -1  -1   1 2023.20   62.69
  -1  -1   1 1958.90   62.59
   1  -1  -1 1893.01   60.09
  -1  -1   1 1891.81   62.59
  -1  -1   1 1956.90   62.49
   1  -1  -1 1956.20   59.99
   1  -1  -1 1934.01   60.09
  -1   1   1 2012.70   60.29
  -1   1   1 1928.11   59.89
   1   1  -1 2018.20   62.49
  -1   1   1 1887.11   59.39
   1   1  -1 1983.70   61.69
   1   1  -1 1953.80   62.49
   1   1  -1 1998.80   62.39
   1   1  -1 2022.20   60.99
  -1   1   1 2030.50   58.89
  -1   1   1 1930.21   59.59
   1   1  -1 1999.50   62.49
   0  -1  -1  662.73   24.20
   0  -1   1  649.54   22.90
   0  -1  -1  657.83   24.40
   0  -1   1  669.93   23.40
   0  -1   1  649.34   23.40
   0  -1  -1  673.83   24.50
   0  -1  -1  666.13   24.50
   0  -1   1  660.53   23.30
   0  -1  -1  652.63   23.90
   0   1  -1  667.53   23.20
   0   1   1  684.73   25.00
   0   1  -1  646.34   22.90
   0   1   1  631.54   23.60
   0   1   1  689.93   25.00
   0   1  -1  650.73   22.70
   0   1   1  674.33   23.90
   0   1  -1  657.03   23.20
   0   1   1  665.63   24.00
   0   1  -1  707.43   25.60
   1  -1   1 1909.81   60.19
  -1  -1  -1 1888.11   63.49
  -1  -1  -1 1892.71   62.89
   1  -1   1 1921.01   60.59
  -1  -1  -1 1991.50   63.79
   1  -1   1 1963.00   60.59
  -1  -1  -1 1935.81   64.79
  -1  -1  -1 1990.80   63.39
   1  -1   1 1913.81   60.09
   1   1   1 2005.50   64.69
   1   1   1 1983.90   63.29
   1   1   1 1977.10   63.69
  -1   1  -1 1914.01   59.39
   1   1   1 1985.90   63.29
  -1   1  -1 1857.41   59.99
  -1   1  -1 1942.11   59.39
   1   1   1 1895.01   63.49
   2  -1   1  192.88   19.00
  -2  -1  -1  188.58   22.40
  -2  -1  -1  203.98   24.40
   2  -1   1  189.48   21.30
  -2  -1  -1  182.48   21.10
  -2  -1  -1  181.78   20.50
   2  -1   1  172.18   19.30
   2  -1   1  180.38   17.70
  -2  -1  -1  181.08   23.00
   2  -1   1  198.58   20.30
  -2   1  -1  178.08   18.20
   2   1   1  186.28   23.10
   2   1   1  170.98   19.60
  -2   1  -1  200.18   18.90
   2   1   1  205.48   25.00
  -2   1  -1  181.08   17.30
   2   1   1  189.48   23.30
  -2   1  -1  192.18   19.20
   2   1   1  199.88   24.30
   3  -1   1  672.93   34.00
   3  -1   1  623.24   31.80
  -3  -1  -1  605.94   35.60
   3  -1   1  644.74   32.30
  -3  -1  -1  622.54   33.60
  -3  -1  -1  528.75   41.10
   3  -1   1  611.34   45.90
  -3  -1  -1  635.44   33.10
   3  -1   1  624.14   31.90
   3   1   1  620.14   34.60
   3   1   1  560.24   34.30
   3   1   1  567.94   41.30
  -3   1  -1  666.33   30.60
   3   1   1  629.24   35.00
  -3   1  -1  610.84   31.80
  -3   1  -1  635.94   30.80
  -3   1  -1  640.44   29.50
   4  -1   1 2211.38   81.89
  -4  -1  -1 2251.47   82.29
  -4  -1  -1 2242.08   86.59
   4  -1   1 2309.47   81.89
   4  -1   1 2298.87   82.29
   4  -1   1 2352.26   80.89
  -4  -1  -1 2231.08   83.69
   4  -1   1 2200.18   81.49
  -4  -1  -1 2312.47   81.29
   4   1   1 2344.27   84.89
   4   1   1 2323.07   83.29
   4   1   1 2271.57   84.09
  -4   1  -1 2269.77   78.09
   4   1   1 2292.17   83.39
  -4   1  -1 2328.67   79.29
  -4   1  -1 2351.36   80.19
  -4   1  -1 2360.46   80.99
   4   1   1 2219.38   83.69
  -5  -1  -1   19.30   17.70
  -5  -1  -1   14.40   17.30
  -5  -1  -1   11.80   19.30
  -5  -1  -1    0.30   20.60
   5  -1   1   20.50   18.60
  -5  -1  -1   -1.30   24.00
   5  -1   1   36.70   19.50
   5  -1   1   26.30   19.40
   5  -1   1   22.00   19.00
   5  -1   1   -4.20   19.80
   5   1   1    3.30   20.00
   5   1   1  -17.10   21.00
  -5   1  -1    9.70   15.60
  -5   1  -1   15.00   18.30
   5   1   1   43.40   21.20
  -5   1  -1  -16.40   15.20
   5   1   1    4.80   20.70
   5   1   1   22.20   17.60
   5   1   1    2.30   20.70
  -5   1  -1   15.00   15.10
  -6  -1  -1 2164.98   88.49
  -6  -1  -1 2042.70   83.19
   6  -1   1 2096.99   86.49
  -6  -1  -1 2099.09   87.19
   6  -1   1 2144.89   86.09
  -6  -1  -1 1921.71   89.09
  -6   1  -1 2023.50   79.29
  -6   1  -1 2130.69   77.79
   6   1   1 2106.49   75.89
   6   1   1 2167.28   88.19
   6   1   1 1990.80   87.29
   6   1   1 2044.00   89.39
   7  -1   1  246.68   36.20
   7  -1   1  209.48   42.00
   7  -1   1  191.28   23.40
  -7  -1  -1  234.38   35.40
  -7  -1  -1  215.58   36.00
   7   1   1  247.68   25.40
  -7   1  -1  200.08   28.90
   7   1   1  209.28   37.10
  -7   1  -1  220.28   48.90
   8  -1   1  502.35   54.39
  -8  -1  -1  551.94   54.69
  -8  -1  -1  511.45   52.89
  -8   1  -1  489.95   45.40
   8   1   1  574.84   60.49
  -8   1  -1  409.56   50.59
  -9  -1  -1  593.44   71.19
  -9  -1  -1  740.53   68.29
   9  -1   1  666.73   65.39
   9   1   1  712.73   72.09
  -9   1  -1  759.62   54.89
  -9   1  -1  497.65   81.49
   9   1   1  678.83   68.89
  10  -2  -1  188.88   45.50
 -10  -2   1   68.99   46.60
 -10  -2   1  140.59   62.29
  10   2  -1   86.39   49.10
   9  -2  -1   -0.40   29.00
   9  -2  -1   -2.70   39.70
  -9  -2   1   -1.30   41.20
  -9  -2   1   -0.90   34.30
   9   2  -1   24.50   36.50
  -9   2   1   28.10   20.90
   9   2  -1   62.79   39.70
  -8  -2   1  -22.20   32.40
  -8  -2   1  -20.20   28.70
   8  -2  -1   17.10   27.40
   8  -2  -1    8.90   27.50
  -8  -2   1  -15.00   27.80
   8   2  -1    9.60   30.70
   8   2  -1  -10.80   30.50
  -8   2   1  -15.20   19.30
  -8   2   1   72.29   25.30
   7  -2  -1  109.29   30.50
   7  -2  -1   78.39   29.70
   7  -2  -1   83.09   30.10
  -7  -2   1  168.78   34.00
  -7  -2   1   80.89   30.30
  -7  -2   1   80.19   30.30
   7  -2  -1   49.80   23.70
   7   2  -1  126.09   20.30
   7   2  -1  110.79   32.40
  -7   2   1   95.69   20.40
  -7   2   1   95.49   20.70
   7   2  -1  130.89   33.00
  -6  -2   1  871.01   55.79
   6  -2  -1  962.00   51.49
  -6  -2   1  930.21   56.39
  -6  -2   1  834.82   52.39
   6  -2  -1  874.31   50.69
   6  -2  -1  939.41   47.60
  -6  -2   1  944.01   57.89
   6  -2  -1  955.90   51.59
   6   2  -1  980.80   56.69
   6   2  -1  853.31   55.59
  -6   2   1  915.51   46.40
   6   2  -1  969.70   42.40
  -6   2   1  955.80   44.30
   6   2  -1  925.21   58.79
  -5  -2   1   45.60   19.80
  -5  -2   1   -4.50   19.90
  -5  -2   1    2.40   18.10
   5  -2  -1   -2.00   15.30
  -5  -2   1   12.00   22.50
   5  -2  -1  -10.10   14.90
   5  -2  -1   23.50   20.30
   5  -2  -1   26.70   15.30
   5  -2  -1  -14.20   16.10
  -5  -2   1  -25.40   20.60
   5   2  -1   20.30   15.90
   5   2  -1  -30.30   16.10
   5   2  -1  -43.30   19.30
   5   2  -1  -29.50   17.00
   5   2  -1    8.30   18.70
  -5   2   1    5.10   12.70
   5   2  -1  -25.10   20.80
  -5   2   1   14.20   14.90
  -5   2   1   -3.20   23.40
  -4  -2   1 7943.11  240.68
   4  -2  -1 7265.97  238.48
  -4  -2   1 7729.73  241.78
  -4  -2   1 8220.18  240.48
  -4  -2   1 7777.72  241.28
   4  -2  -1 8027.50  236.38
   4  -2  -1 7638.74  236.08
   4  -2  -1 7944.31  236.08
   4  -2  -1 7792.12  235.88
   4   2  -1 7621.34  240.98
   4   2  -1 8004.10  240.98
  -4   2   1 7442.56  234.58
  -4   2   1 7490.75  231.58
   4   2  -1 7631.04  240.68
   4   2  -1 7851.81  233.58
  -4   2   1 8167.68  234.78
  -4   2   1 7784.32  231.58
   4   2  -1 8031.60  240.18
   4   2  -1 8040.70  240.48
   3  -2  -1  395.56   23.80
  -3  -2   1  401.26   28.30
   3  -2  -1  440.16   24.10
   3  -2  -1  395.76   22.00
  -3  -2   1  453.65   32.00
  -3  -2   1  434.26   28.90
  -3  -2   1  424.26   27.40
   3  -2  -1  405.26   24.20
   3   2  -1  396.26   24.10
   3   2  -1  370.96   28.20
   3   2  -1  429.16   31.50
  -3   2   1  427.26   19.60
   3   2  -1  432.06   29.50
   3   2  -1  426.86   25.60
  -3   2   1  400.76   23.00
  -3   2   1  436.66   22.40
  -3   2   1  393.96   20.20
   2  -2  -1 8592.24  275.27
  -2  -2   1 9747.42  280.47
  -2  -2   1 9549.25  280.77
   2  -2  -1 9247.67  275.77
  -2  -2   1 9517.15  280.47
   2  -2  -1 8933.91  274.37
  -2  -2   1 9402.66  280.37
  -2  -2   1 9622.44  281.17
   2  -2  -1 9108.49  275.17
  -2   2   1 9317.77  273.97
   2   2  -1 9999.00  280.47
   2   2  -1 9428.26  280.47
   2   2  -1 9471.05  279.87
   2   2  -1 9723.63  277.97
  -2   2   1 9333.57  274.97
   2   2  -1 9717.03  279.77
   2   2  -1 9804.72  280.57
   1  -2  -1   15.20    6.20
  -1  -2   1   15.50   11.60
  -1  -2   1    6.70   10.80
   1  -2  -1   13.80    6.20
  -1  -2   1   23.30   11.90
  -1  -2   1   37.50   12.00
   1  -2  -1   20.40    6.10
   1  -2  -1   15.50    7.20
  -1  -2   1   13.40   12.70
   1  -2  -1   13.60    6.60
   1   2  -1   25.60   13.70
   1   2  -1   20.10   11.80
   1   2  -1   16.20   11.20
   1   2  -1   41.00   13.20
   1   2  -1   17.00   10.80
   1   2  -1   30.40   12.50
  -1   2   1   22.50   10.30
  -1   2   1   20.10    6.30
   0  -2  -1 3520.75  106.99
   0  -2   1 3450.35  105.79
   0  -2  -1 3622.34  107.29
   0  -2   1 3439.26  105.19
   0  -2  -1 3550.44  106.89
   0  -2  -1 3548.24  107.79
   0  -2   1 3443.76  105.79
   0  -2   1 3476.45  105.39
   0  -2  -1 3602.24  106.49
   0   2   1 3624.14  107.69
   0   2   1 3494.15  105.79
   0   2   1 3915.61  109.69
   0   2  -1 3400.86  103.89
   0   2   1 3665.13  106.39
   0   2   1 3733.13  107.19
   0   2  -1 3834.52  109.29
   0   2   1 3529.75  106.59
   0   2  -1 3506.55  105.49
   1  -2   1  128.39   11.30
  -1  -2  -1  119.49   16.90
   1  -2   1  119.49   10.10
   1  -2   1  134.79    9.90
  -1  -2  -1  124.99   17.20
  -1  -2  -1  117.39   15.40
   1  -2   1  135.89   12.20
  -1  -2  -1  134.59   15.80
  -1  -2  -1  117.19   15.10
  -1   2  -1  118.69   12.50
   1   2   1  147.99   16.90
  -1   2  -1  145.69   15.30
   1   2   1  138.79   17.20
   1   2   1  119.39   15.90
  -1   2  -1  136.09   10.20
   1   2   1  152.18   17.80
   1   2   1  127.39   16.00
   1   2   1  135.09   15.80
  -2  -2  -1  800.52   38.50
  -2  -2  -1  730.53   37.90
  -2  -2  -1  760.72   36.40
   2  -2   1  780.62   30.30
  -2  -2  -1  799.72   35.90
   2  -2   1  775.22   30.10
   2  -2   1  793.62   30.70
  -2  -2  -1  845.52   36.20
   2   2   1  766.02   38.40
   2   2   1  784.72   35.90
  -2   2  -1  780.02   29.40
  -2   2  -1  771.82   24.90
   2   2   1  745.33   40.90
   2   2   1  779.32   36.90
  -3  -2  -1  -21.60   13.70
  -3  -2  -1  -15.10   14.30
   3  -2   1   -6.30   13.00
   3  -2   1   -6.60   11.20
  -3  -2  -1   17.80   19.10
   3  -2   1   10.30   11.30
  -3  -2  -1  -11.70   16.90
  -3  -2  -1   15.20   20.20
   3  -2   1  -18.40   12.50
   3  -2   1   -6.60   10.80
  -3   2  -1   -1.90    8.20
   3   2   1   15.40   17.40
   3   2   1   20.70   18.30
   3   2   1   25.60   16.80
  -3   2  -1   26.40   10.40
  -3   2  -1    7.50    8.80
   3   2   1   11.30   16.00
   3   2   1   32.00   14.40
  -3   2  -1   -3.60   10.10
  -4  -2  -1   19.40   16.60
   4  -2   1   18.10   14.00
   4  -2   1   29.00   15.20
   4  -2   1   67.59   17.90
  -4  -2  -1   37.70   22.80
   4  -2   1   28.30   14.40
  -4  -2  -1   26.90   18.00
   4  -2   1   16.80   15.00
  -4  -2  -1    5.00   18.90
   4   2   1  -11.30   16.10
  -4   2  -1   36.10   12.00
   4   2   1    6.80   18.30
  -4   2  -1   26.30   10.80
  -4   2  -1   36.50   13.90
   4   2   1   28.90   20.60
   4   2   1   11.90   19.90
   4   2   1   44.70   18.30
  -4   2  -1   15.10   12.10
   4   2   1   13.80   16.70
  -5  -2  -1   12.50   23.50
   5  -2   1   44.00   19.30
   5  -2   1   25.10   19.60
   5  -2   1   -5.10   17.00
   5  -2   1   20.70   19.10
  -5  -2  -1    3.70   24.40
   5  -2   1   30.20   17.10
  -5  -2  -1   -2.90   19.30
  -5  -2  -1  -16.20   21.50
  -5  -2  -1   68.99   21.70
  -5   2  -1   18.20   14.70
  -5   2  -1    9.80   13.00
   5   2   1   23.50   20.60
  -5   2  -1   29.90   15.50
   5   2   1   30.00   18.40
   5   2   1   31.00   22.30
   5   2   1   61.29   22.00
   5   2   1   14.60   22.90
  -5   2  -1   20.60   15.50
   6  -2   1  988.00   52.59
   6  -2   1  965.00   59.69
  -6  -2  -1  832.52   59.29
  -6  -2  -1  936.51   57.69
  -6  -2  -1  863.31   54.69
   6  -2   1  894.21   52.99
  -6   2  -1  890.31   47.20
  -6   2  -1  864.91   47.00
   6   2   1  928.41   46.10
   6   2   1  845.32   56.99
   7  -2   1   16.80   31.60
   7  -2   1    6.60   25.80
  -7  -2  -1   -2.50   29.80
  -7  -2  -1    3.70   26.40
  -7  -2  -1  -30.30   28.80
  -7   2  -1   27.90   17.60
   7   2   1   -9.00   26.00
  -7   2  -1   -5.30   18.30
   7   2   1   61.79   19.60
  -8  -2  -1  804.52   66.29
   8  -2   1  835.22   61.49
  -8  -2  -1  836.62   66.89
   8   2   1  849.41   72.69
  -8   2  -1  860.31   55.49
  -8   2  -1  885.21   45.10
   8   2   1  893.81   49.50
   9  -2   1  -18.40   32.70
  -9  -2  -1   98.89   43.50
  -9  -2  -1  120.09   47.00
   9  -2   1   72.49   58.29
   9   2   1    2.70   38.70
   9   2   1   72.69   40.80
  -9  -3   1  -23.30   41.70
  -9  -3   1   13.20   42.30
  -9  -3   1   53.49   41.80
   9  -3  -1   59.29   31.10
   9  -3  -1   59.89   38.30
   9   3  -1    3.30   37.20
   9   3  -1  -26.40   37.70
  -8  -3   1  256.47   47.20
   8  -3  -1  308.87   39.20
   8  -3  -1  260.77   38.00
  -8  -3   1  344.97   46.90
  -8  -3   1  379.46   49.20
   8   3  -1  342.57   49.80
   8   3  -1  195.48   44.70
  -8   3   1  358.96   37.10
   7  -3  -1  410.26   45.90
   7  -3  -1  424.86   47.10
  -7  -3   1  523.55   51.69
   7  -3  -1  447.56   41.60
  -7  -3   1  394.46   45.10
   7  -3  -1  368.36   42.80
  -7  -3   1  438.06   54.99
   7   3  -1  505.45   34.60
  -7   3   1  476.95   36.90
   7   3  -1  481.95   49.70
   7   3  -1  460.05   51.49
  -6  -3   1  563.54   49.70
   6  -3  -1  635.24   40.70
  -6  -3   1  602.14   49.70
   6  -3  -1  576.34   39.30
   6  -3  -1  645.74   40.70
  -6  -3   1  626.74   50.89
   6  -3  -1  490.85   39.10
  -6   3   1  597.34   35.50
  -6   3   1  612.94   23.90
   6   3  -1  472.95   46.70
   6   3  -1  561.14   36.50
   6   3  -1  576.84   49.50
   5  -3  -1 2157.88   78.39
  -5  -3   1 2176.58   83.79
  -5  -3   1 2172.78   87.19
   5  -3  -1 2073.19   77.99
  -5  -3   1 2153.28   87.49
  -5  -3   1 2277.87   84.49
   5  -3  -1 2244.78   76.49
   5  -3  -1 2153.38   77.19
  -5  -3   1 2115.89   87.29
   5  -3  -1 2051.29   92.99
  -5   3   1 2198.58   64.69
   5   3  -1 2026.60   82.49
   5   3  -1 2078.49   85.29
   5   3  -1 2243.48   78.29
   5   3  -1 2194.08   85.29
   5   3  -1 2150.98   86.59
   5   3  -1 2010.00   83.79
  -5   3   1 2172.98   74.19
  -5   3   1 2104.59   74.29
   4  -3  -1   28.50   13.80
  -4  -3   1   15.20   21.20
  -4  -3   1   36.10   16.40
   4  -3  -1   39.90   13.40
  -4  -3   1   58.49   22.40
   4  -3  -1   35.40   12.90
  -4  -3   1   54.89   19.60
  -4  -3   1   21.90   22.40
   4  -3  -1   80.69   14.70
   4  -3  -1   36.50   12.50
   4   3  -1    6.20   19.20
   4   3  -1   70.59   17.70
   4   3  -1   52.49   20.90
   4   3  -1   29.70   17.10
  -4   3   1   46.20   10.40
   4   3  -1   38.80   19.00
   4   3  -1   35.90   17.10
  -4   3   1   22.00   10.00
   3  -3  -1 2334.77   74.09
   3  -3  -1 2340.47   73.89
  -3  -3   1 2335.67   81.29
  -3  -3   1 2367.16   81.49
  -3  -3   1 2439.76   81.99
   3  -3  -1 2289.67   73.79
   3  -3  -1 2288.67   74.39
   3  -3  -1 2246.18   74.09
  -3  -3   1 2268.17   83.59
  -3  -3   1 2201.58   82.49
   3   3  -1 2343.27   81.39
   3   3  -1 2340.77   80.59
   3   3  -1 2300.87   81.19
   3   3  -1 2205.68   81.79
  -3   3   1 2285.07   71.99
   3   3  -1 2439.16   81.39
  -3   3   1 2322.67   71.99
  -2  -3   1   83.69   17.70
   2  -3  -1   90.29   10.20
  -2  -3   1   93.89   16.60
  -2  -3   1   84.59   19.40
   2  -3  -1  104.59   10.40
  -2  -3   1  124.69   16.90
   2  -3  -1   93.59   11.60
   2  -3  -1   93.19    9.40
  -2  -3   1   93.49   15.80
   2   3  -1   78.39   16.10
  -2   3   1   92.49    8.50
   2   3  -1   94.39   16.30
   2   3  -1  101.99   16.70
   2   3  -1   88.49   15.20
   2   3  -1  100.59   18.10
  -2   3   1  102.79   12.10
   2   3  -1  106.99   15.90
  -2   3   1   94.59    7.90
  -1  -3   1 2330.07   72.79
   1  -3  -1 2142.29   67.69
   1  -3  -1 2166.28   66.19
   1  -3  -1 2218.58   69.89
  -1  -3   1 2302.17   73.29
  -1  -3   1 2320.67   72.99
  -1  -3   1 2298.77   72.19
   1  -3  -1 2132.09   66.29
  -1  -3   1 2174.18   76.19
   1  -3  -1 2160.88   67.59
   1   3  -1 2208.58   71.19
  -1   3   1 2240.38   66.19
   1   3  -1 2309.47   72.69
   1   3  -1 2206.08   74.89
   1   3  -1 2398.76   71.19
   1   3  -1 2296.37   72.19
  -1   3   1 2258.87   72.59
  -1   3   1 2240.58   66.09
   0  -3   1  152.88   13.30
   0  -3   1  175.78   12.80
   0  -3  -1  161.58   19.40
   0  -3  -1  148.79   16.70
   0  -3  -1  161.58   15.80
   0  -3   1  168.18   14.00
   0  -3   1  150.88   12.20
   0  -3  -1  136.89   16.80
   0  -3  -1  163.28   14.70
   0   3   1  154.28   15.50
   0   3  -1  180.18   12.00
   0   3   1  162.08   11.70
   0   3   1  146.39   13.20
   0   3   1  161.68   11.80
   0   3   1  165.98   19.30
   0   3   1  168.48   18.60
   0   3  -1  161.88   17.80
  -1  -3  -1  627.84   29.30
   1  -3   1  573.14   20.80
  -1  -3  -1  567.54   30.00
   1  -3   1  568.34   20.80
  -1  -3  -1  577.54   30.40
  -1  -3  -1  574.74   32.60
  -1  -3  -1  609.24   28.20
  -1   3  -1  627.34   29.80
   1   3   1  563.84   27.70
   1   3   1  606.84   31.80
   1   3   1  610.84   28.30
   1   3   1  612.74   32.30
   1   3   1  611.94   30.30
  -2  -3  -1 1007.00   46.70
   2  -3   1 1001.40   33.90
  -2  -3  -1 1020.20   43.60
  -2  -3  -1 1062.69   42.80
   2  -3   1 1013.60   33.70
   2  -3   1 1015.30   35.00
   2  -3   1  971.40   35.10
  -2  -3  -1 1023.20   45.10
  -2  -3  -1  965.70   44.60
   2   3   1  972.40   42.80
  -2   3  -1 1015.10   32.20
  -2   3  -1 1008.90   40.30
   2   3   1 1015.50   44.10
  -2   3  -1 1021.60   32.20
   2   3   1  963.90   42.70
   2   3   1 1042.10   43.60
   2   3   1  968.00   44.90
  -3  -3  -1  279.87   33.20
  -3  -3  -1  309.87   27.70
  -3  -3  -1  288.97   35.80
   3  -3   1  349.77   21.00
   3  -3   1  327.17   23.30
  -3  -3  -1  328.67   28.00
   3  -3   1  307.17   21.40
   3   3   1  334.57   27.70
   3   3   1  317.87   30.70
   3   3   1  302.07   28.70
  -3   3  -1  325.47   17.90
   3   3   1  331.67   28.60
   3   3   1  330.87   28.60
  -4  -3  -1 1439.46   66.29
  -4  -3  -1 1449.46   60.19
   4  -3   1 1424.86   54.49
   4  -3   1 1469.75   53.89
   4  -3   1 1445.56   54.39
  -4  -3  -1 1378.16   60.19
  -4  -3  -1 1319.37   62.79
   4  -3   1 1452.55   57.79
  -4  -3  -1 1334.87   63.69
   4   3   1 1398.56   60.09
   4   3   1 1414.16   61.19
   4   3   1 1339.87   62.19
  -4   3  -1 1482.75   51.19
   4   3   1 1418.36   63.89
  -4   3  -1 1385.16   50.59
   4   3   1 1388.56   57.49
   4   3   1 1368.26   61.39
  -5  -3  -1   11.80   26.30
   5  -3   1   15.20   19.00
  -5  -3  -1   38.10   24.60
   5  -3   1   38.10   18.80
  -5  -3  -1   28.30   24.70
  -5  -3  -1   43.10   21.30
   5  -3   1   25.50   14.50
   5  -3   1   29.30   19.70
   5   3   1   30.50   19.60
  -5   3  -1   34.30   14.40
  -5   3  -1    9.50   13.30
   5   3   1   13.90   23.90
  -5   3  -1   25.10    4.60
   5   3   1   10.60   23.20
  -6  -3  -1  750.72   56.29
   6  -3   1  812.62   53.09
  -6  -3  -1  813.92   60.49
   6  -3   1  839.92   48.30
   6  -3   1  794.12   47.90
  -6  -3  -1  744.03   55.89
  -6   3  -1  821.42   26.90
   6   3   1  877.91   46.40
  -6   3  -1  763.02   42.10
   6   3   1  799.82   54.29
  -7  -3  -1  257.17   40.80
   7  -3   1  336.27   39.30
  -7  -3  -1  313.17   46.10
  -7  -3  -1  256.57   40.70
   7  -3   1  372.26   38.70
   7   3   1  330.97   35.40
   7   3   1  256.07   40.60
  -7   3  -1  347.67   34.50
  -8  -3  -1  291.37   44.40
  -8  -3  -1  372.76   54.59
   8  -3   1  347.67   43.20
   8  -3   1  296.27   41.90
  -8  -3  -1  209.98   50.79
   8   3   1  323.77   37.70
  -8   3  -1  247.98   36.30
   8   3   1  416.56   52.69
   9  -3   1  659.93   66.09
  -9  -3  -1  592.14   70.89
  -9  -3  -1  657.13   68.49
   9  -3   1  644.74   70.79
   9   3   1  523.55   61.79
   9   3   1  747.93   75.19
   9  -4  -1 1284.07   79.69
  -9  -4   1 1351.16   96.09
  -9  -4   1 1186.78   92.29
  -9  -4   1 1401.66   96.69
   9   4  -1 1390.26   89.49
  -8  -4   1   66.49   40.90
  -8  -4   1   19.60   35.00
   8  -4  -1  -22.10   26.30
  -8  -4   1  -22.20   35.30
   8  -4  -1  -45.00   24.30
   8   4  -1   11.40   36.60
   8   4  -1    1.70   36.70
   8   4  -1  -31.00   20.60
   7  -4  -1 1721.03   77.19
   7  -4  -1 1825.52   75.59
  -7  -4   1 1690.13   87.19
  -7  -4   1 1686.73   86.79
   7  -4  -1 1895.11   77.09
  -7  -4   1 1709.13   88.19
   7  -4  -1 1609.54   76.49
   7   4  -1 1805.42   87.09
   7   4  -1 1843.12   87.69
  -7   4   1 1807.92   71.79
   7   4  -1 1828.62   71.69
   6  -4  -1  122.29   21.50
   6  -4  -1  110.99   22.20
  -6  -4   1  134.19   30.90
  -6  -4   1  138.59   33.00
   6  -4  -1   75.99   21.20
   6  -4  -1  111.29   21.50
  -6  -4   1   93.19   32.00
   6   4  -1  107.29   30.40
   6   4  -1  105.79   28.20
   6   4  -1  125.39   22.50
  -6   4   1  126.59   23.40
   5  -4  -1 1880.81   67.09
   5  -4  -1 1762.42   67.29
  -5  -4   1 1846.52   80.69
   5  -4  -1 1850.41   67.19
   5  -4  -1 1838.52   66.39
  -5  -4   1 1746.33   79.89
   5  -4  -1 1759.72   67.19
  -5  -4   1 1789.52   79.39
  -5  -4   1 1885.91   77.89
   5   4  -1 1927.71   72.19
   5   4  -1 1746.73   78.59
   5   4  -1 1781.62   75.69
  -5   4   1 1715.33   69.19
   5   4  -1 1868.41   77.99
  -5   4   1 1849.02   61.69
  -4  -4   1   78.39   24.30
   4  -4  -1  110.89   15.10
   4  -4  -1   98.89   14.10
   4  -4  -1   87.79   14.60
  -4  -4   1  138.69   23.20
  -4  -4   1  117.69   22.90
  -4  -4   1   97.09   22.00
   4  -4  -1   88.69   14.50
  -4  -4   1   95.29   25.10
   4  -4  -1   91.99   17.30
   4   4  -1  101.39   22.70
   4   4  -1  117.29   21.70
   4   4  -1  127.49   21.20
   4   4  -1   93.59   22.60
  -4   4   1   99.79   12.60
  -4   4   1  105.19   10.10
   4   4  -1  110.69   23.00
   4   4  -1   87.09   21.60
  -3  -4   1  238.38   26.60
   3  -4  -1  208.28   14.70
  -3  -4   1  194.38   22.20
  -3  -4   1  178.48   26.60
   3  -4  -1  208.98   15.30
   3  -4  -1  187.18   15.30
  -3  -4   1  187.28   25.20
   3   4  -1  184.48   22.40
   3   4  -1  183.48   22.90
   3   4  -1  170.48   22.70
  -3   4   1  199.48   18.00
   3   4  -1  191.18   23.30
   3   4  -1  187.68   21.70
   3   4  -1  186.28   23.90
   2  -4  -1  264.77   13.70
   2  -4  -1  257.57   13.40
  -2  -4   1  274.57   25.00
   2  -4  -1  255.77   10.90
  -2  -4   1  267.17   30.30
  -2  -4   1  278.57   24.50
   2  -4  -1  271.17   10.90
  -2  -4   1  250.57   26.00
  -2  -4   1  268.27   25.80
  -2   4   1  276.27   21.20
   2   4  -1  259.17   22.60
   2   4  -1  273.77   23.00
   2   4  -1  244.38   24.30
   2   4  -1  259.37   22.80
   2   4  -1  261.17   22.20
   2   4  -1  258.47   26.50
  -1  -4   1 1988.90   71.09
   1  -4  -1 2069.99   62.29
   1  -4  -1 2078.49   67.89
  -1  -4   1 2078.79   68.59
  -1  -4   1 2147.69   69.99
   1  -4  -1 2084.59   62.09
  -1  -4   1 2037.30   68.69
   1  -4  -1 2064.69   63.89
  -1  -4   1 2059.59   72.49
   1  -4  -1 2089.79   63.79
   1   4  -1 2118.69   65.99
   1   4  -1 2166.28   68.29
   1   4  -1 2037.20   73.39
   1   4  -1 2054.89   66.19
   1   4  -1 2157.08   68.69
  -1   4   1 2114.19   71.09
   0  -4   1   71.49    9.20
   0  -4   1   62.79    8.60
   0  -4   1   59.49    8.70
   0  -4  -1   70.09    9.90
   0  -4  -1   68.49   11.30
   0  -4  -1   66.39   14.80
   0  -4   1   69.19    9.80
   0  -4  -1   68.59   11.20
   0   4  -1   46.00   19.90
   0   4  -1   83.49    9.90
   0   4   1   73.99    9.90
   0   4  -1   59.59    7.30
   0   4   1   61.69   12.90
  -1  -4  -1 6733.53  205.68
   1  -4   1 6317.87  195.28
  -1  -4  -1 7009.70  202.68
  -1  -4  -1 6931.01  202.08
  -1  -4  -1 6758.52  202.78
   1  -4   1 6163.28  195.18
  -1  -4  -1 6638.04  202.78
   1   4   1 6993.50  205.98
   1   4   1 6840.42  200.48
   1   4   1 6932.91  204.88
   1   4   1 6582.34  199.98
   1   4   1 6634.04  201.78
   1   4   1 6910.01  202.18
  -2  -4  -1   34.80   15.30
   2  -4   1   26.40    6.70
  -2  -4  -1   31.40   13.80
   2  -4   1   27.90    5.00
   2  -4   1   30.40    6.70
   2  -4   1   28.40    4.90
  -2  -4  -1   40.50   17.90
  -2  -4  -1   24.10   17.00
  -2  -4  -1   25.20   17.20
   2   4   1   13.70   13.40
   2   4   1   31.40   18.30
   2   4   1   19.10   14.00
   2   4   1   36.70   15.60
   2   4   1   26.70   17.50
   2   4   1   24.00   16.40
  -3  -4  -1 3129.39  112.99
  -3  -4  -1 3434.76  109.69
  -3  -4  -1 3182.68  110.69
   3  -4   1 3114.39   98.39
  -3  -4  -1 3292.27  108.69
   3  -4   1 3209.08  105.89
   3  -4   1 3180.18   99.09
  -3  -4  -1 3136.99  110.69
  -3   4  -1 3158.18   93.29
   3   4   1 3298.77  108.89
  -3   4  -1 2934.81   93.89
   3   4   1 3197.78  108.49
   3   4   1 3202.48  108.59
   3   4   1 3158.38  109.49
   3   4   1 3313.07  108.09
  -4  -4  -1    6.10   19.10
   4  -4   1   29.50   13.30
  -4  -4  -1    2.10   22.40
  -4  -4  -1  -12.20   23.00
   4  -4   1   16.90   12.90
   4  -4   1    0.10   11.00
  -4  -4  -1   -4.00   17.80
  -4  -4  -1    6.30   22.90
   4   4   1   -9.20   20.50
   4   4   1   56.59   20.10
   4   4   1   14.10   18.40
  -4   4  -1    2.00    7.30
  -4   4  -1   19.60    7.80
   4   4   1   -7.20   16.40
   4   4   1  -15.50   19.70
  -5  -4  -1 2468.15   98.79
   5  -4   1 2581.04   87.19
  -5  -4  -1 2419.96  101.59
  -5  -4  -1 2474.85   99.69
   5  -4   1 2482.25   92.29
   5  -4   1 2442.86   87.29
   5   4   1 2429.46   92.39
   5   4   1 2414.86   97.09
   6  -4   1  -34.60   18.90
   6  -4   1  -50.79   25.90
  -6  -4  -1   -4.80   22.50
   6  -4   1  -35.40   18.30
  -6  -4  -1   15.40   27.10
  -6  -4  -1   -9.20   27.40
   6   4   1  -19.10   19.80
   6   4   1   20.60   27.20
  -7  -4  -1  596.44   65.29
   7  -4   1  635.74   46.90
   7  -4   1  589.24   46.40
   7  -4   1  480.25   48.60
  -7  -4  -1  498.75   60.69
  -7  -4  -1  632.44   58.09
   7   4   1  570.14   44.50
   7   4   1  498.05   56.09
  -8  -4  -1   46.60   46.00
  -8  -4  -1   54.69   36.70
   8  -4   1   49.99   31.70
  -8  -4  -1   11.70   58.49
   8  -4   1   51.99   28.80
   8   4   1   81.29   43.40
   8   4   1   23.70   23.80
   9  -4   1  110.59   43.40
   9  -4   1  181.48   39.90
  -9  -4  -1  148.79   47.20
   9   4   1   83.89   31.80
   9   4   1  164.48   46.60
   9   4   1   50.09   43.90
  -9  -5   1 -111.49   40.10
  -9  -5   1   10.50   46.10
  -9  -5   1   79.39   45.70
   9  -5  -1   67.89   35.70
   9   5  -1  -56.29   31.70
   9   5  -1   61.19   45.10
   8  -5  -1  877.11   57.39
  -8  -5   1  925.11   79.89
  -8  -5   1  973.00   81.89
   8  -5  -1  899.31   61.79
   8   5  -1  941.31   79.19
   8   5  -1  962.50   53.89
   7  -5  -1  202.98   27.30
   7  -5  -1  187.78   27.30
   7  -5  -1  173.98   25.80
  -7  -5   1  156.08   41.30
  -7  -5   1  243.48   44.10
  -7  -5   1  227.48   39.40
   7   5  -1  194.08   37.40
   7   5  -1  177.98   39.00
  -7   5   1  126.09   16.30
   7   5  -1  192.78   29.90
   6  -5  -1  786.12   42.60
   6  -5  -1  695.93   39.50
  -6  -5   1  665.63   56.29
  -6  -5   1  672.43   58.19
   6  -5  -1  678.03   40.50
  -6  -5   1  803.52   59.09
  -6   5   1  682.93   28.70
   6   5  -1  741.53   47.10
   6   5  -1  593.84   52.59
   6   5  -1  650.73   54.69
  -6   5   1  662.83   29.10
   5  -5  -1  582.74   32.00
   5  -5  -1  514.45   31.60
  -5  -5   1  547.95   48.10
   5  -5  -1  563.24   33.20
  -5  -5   1  604.54   50.49
   5  -5  -1  526.25   33.30
   5  -5  -1  565.74   31.50
  -5  -5   1  517.45   51.09
  -5  -5   1  622.14   49.50
   5   5  -1  590.94   42.70
   5   5  -1  595.94   46.80
  -5   5   1  547.55   19.40
   5   5  -1  573.24   45.50
   4  -5  -1  226.88   25.80
   4  -5  -1  224.18   26.60
  -4  -5   1  246.98   29.30
   4  -5  -1  197.18   18.80
  -4  -5   1  189.58   29.80
   4  -5  -1  188.28   19.40
  -4  -5   1  183.38   28.00
  -4  -5   1  207.18   26.30
   4  -5  -1  215.58   18.30
  -4  -5   1  229.98   31.60
  -4   5   1  201.78   21.80
   4   5  -1  200.78   27.30
   4   5  -1  178.38   25.30
   4   5  -1  148.89   25.40
   4   5  -1  221.78   25.90
   4   5  -1  206.58   27.00
   4   5  -1  178.28   27.00
  -3  -5   1  542.45   43.50
  -3  -5   1  652.53   37.10
  -3  -5   1  548.55   39.60
  -3  -5   1  511.55   34.70
   3  -5  -1  595.54   23.80
   3  -5  -1  560.94   22.90
  -3  -5   1  598.44   39.80
   3  -5  -1  572.44   23.10
   3   5  -1  580.94   38.00
   3   5  -1  539.45   35.60
   3   5  -1  637.84   35.90
   3   5  -1  597.14   36.70
   3   5  -1  623.14   35.70
   3   5  -1  647.64   39.50
   2  -5  -1   86.39    4.80
  -2  -5   1   67.79   17.90
  -2  -5   1   84.39   16.90
   2  -5  -1  105.89    9.30
  -2  -5   1  104.59   17.10
  -2  -5   1   82.29   23.30
  -2  -5   1  125.39   19.10
   2  -5  -1   96.89    9.30
   2  -5  -1   92.99    4.90
   2   5  -1  118.19   17.00
   2   5  -1   80.69   14.30
  -2   5   1   92.49   18.70
   2   5  -1  115.89   18.20
   2   5  -1   77.59   16.50
   2   5  -1  111.79   21.90
   1  -5  -1 1296.67   50.09
   1  -5  -1 1394.86   44.20
  -1  -5   1 1308.07   49.40
   1  -5  -1 1378.06   42.50
  -1  -5   1 1335.47   50.59
  -1  -5   1 1362.16   54.39
  -1  -5   1 1354.26   49.70
   1  -5  -1 1349.07   42.90
   1  -5  -1 1340.97   44.10
  -1  -5   1 1387.46   49.20
   1   5  -1 1305.17   44.10
   1   5  -1 1374.96   48.50
   1   5  -1 1419.56   56.49
   1   5  -1 1296.37   44.10
   1   5  -1 1434.96   48.40
  -1   5   1 1324.87   53.99
   0  -5   1  537.35   40.00
   0  -5   1  632.34   25.40
   0  -5   1  651.13   26.90
   0  -5   1  645.44   25.40
   0  -5   1  637.94   26.10
   0  -5  -1  621.64   33.50
   0  -5  -1  620.34   28.20
   0  -5  -1  604.04   26.50
   0  -5  -1  607.94   27.50
   0  -5  -1  613.94   28.10
   0   5   1  588.44   36.60
   0   5  -1  658.13   22.30
   0   5  -1  615.64   36.90
   0   5   1  660.53   25.70
  -1  -5  -1  307.87   23.00
  -1  -5  -1  289.07   26.00
   1  -5   1  304.67   13.50
   1  -5   1  290.67   13.50
  -1  -5  -1  279.57   24.60
  -1  -5  -1  289.27   29.80
  -1  -5  -1  271.17   23.00
   1   5   1  296.17   30.10
   1   5   1  283.17   19.30
   1   5   1  282.97   21.20
  -1   5  -1  338.47   29.00
   1   5   1  296.47   25.00
   1   5   1  303.37   19.80
   1   5   1  326.77   23.20
   2  -5   1 1906.91   58.79
   2  -5   1 1920.81   58.89
  -2  -5  -1 1934.91   77.09
  -2  -5  -1 1962.10   70.39
  -2  -5  -1 1947.61   72.99
  -2  -5  -1 1845.82   72.19
  -2   5  -1 1918.41   70.99
   2   5   1 1979.10   69.59
   2   5   1 1938.21   73.69
   2   5   1 2029.50   71.99
   2   5   1 2011.30   70.99
   2   5   1 2034.80   70.29
   2   5   1 1870.91   74.29
   3  -5   1   32.40    8.60
  -3  -5  -1   39.90   19.20
  -3  -5  -1   59.19   18.40
  -3  -5  -1   21.80   21.60
  -3  -5  -1   44.40   18.40
   3  -5   1   24.00    8.70
  -3  -5  -1   23.20   19.40
   3  -5   1   39.40    8.80
   3  -5   1   30.70    8.50
  -3   5  -1   29.90   17.10
   3   5   1   59.99   21.00
   3   5   1    3.50   18.90
   3   5   1   15.70   18.60
   3   5   1   29.00   16.80
   3   5   1   14.00   16.30
  -4  -5  -1 1840.02   80.59
  -4  -5  -1 1808.02   80.49
   4  -5   1 1910.21   64.99
   4  -5   1 1886.41   65.39
   4  -5   1 1893.41   64.89
  -4  -5  -1 1842.42   80.19
  -4  -5  -1 1967.70   79.09
   4  -5   1 1986.60   65.39
   4   5   1 1774.22   76.99
   4   5   1 1996.80   78.19
   4   5   1 1924.01   76.39
  -5  -5  -1    7.10   26.90
   5  -5   1   28.80   14.60
  -5  -5  -1   -7.10   26.40
  -5  -5  -1   27.70   28.10
   5  -5   1   -4.60   14.20
   5  -5   1    7.00   21.40
   5  -5   1   -3.80   16.90
   5  -5   1   21.80   14.10
   5   5   1   14.50   24.70
   5   5   1   14.60   25.00
  -5   5  -1   17.70    7.90
  -5   5  -1   11.60    5.50
  -6  -5  -1 1319.07   79.49
   6  -5   1 1381.26   59.39
   6  -5   1 1334.47   59.89
  -6  -5  -1 1318.77   75.09
  -6  -5  -1 1354.26   74.79
   6  -5   1 1352.26   59.09
   6   5   1 1438.46   73.39
   6   5   1 1421.66   66.99
  -6   5  -1 1289.17   47.50
  -6   5  -1 1343.67   47.30
   7  -5   1  183.18   28.10
   7  -5   1  101.09   25.60
  -7  -5  -1  102.39   42.10
  -7  -5  -1   53.09   38.60
  -7  -5  -1   90.59   35.20
   7   5   1   92.49   37.70
   7   5   1  118.79   36.50
   7   5   1   62.99   27.60
  -8  -5  -1  825.02   81.89
   8  -5   1  692.53   54.69
   8  -5   1  748.23   59.99
  -8  -5  -1  656.23   78.79
  -8  -5  -1  706.53   78.69
   8   5   1  696.03   74.89
   8   5   1  850.11   72.09
   8   5   1  744.53   53.19
   9  -5   1  138.59   51.09
  -9  -5  -1   86.79   49.00
  -9  -5  -1  161.58   50.29
   9  -5   1  190.48   38.70
  -9  -5  -1  181.78   51.69
   9   5   1  185.38   51.39
   9   5   1  261.27   40.20
   9   5   1  230.78   53.39
  -9  -6   1  108.99   52.29
  -9  -6   1   61.29   46.10
  -9  -6   1  130.79   52.39
   9  -6  -1   45.00   39.80
   9   6  -1  159.08   36.20
   9   6  -1   30.90   47.20
  -8  -6   1  -24.40   54.19
  -8  -6   1   53.99   42.20
  -8  -6   1   -3.20   41.10
   8  -6  -1   -8.20   25.60
   8   6  -1   29.40   37.70
   8   6  -1   -2.70   24.20
   7  -6  -1   36.80   20.20
  -7  -6   1   65.79   41.10
  -7  -6   1   75.79   36.10
  -7  -6   1   93.49   43.40
   7  -6  -1   65.09   19.80
   7   6  -1   99.39   40.10
   7   6  -1   85.49   32.60
   7   6  -1   90.69   26.10
  -6  -6   1  436.76   56.09
  -6  -6   1  503.75   54.19
   6  -6  -1  530.45   33.20
  -6  -6   1  521.55   55.59
   6  -6  -1  538.15   34.80
   6  -6  -1  606.34   40.70
   6  -6  -1  578.14   35.00
   6   6  -1  476.05   49.70
   6   6  -1  584.54   47.40
   6   6  -1  543.35   51.99
   5  -6  -1  132.19   16.70
  -5  -6   1  164.88   33.80
   5  -6  -1  149.29   19.90
   5  -6  -1  141.39   16.40
   5  -6  -1  144.09   17.50
  -5  -6   1  219.08   36.50
   5  -6  -1  164.28   20.30
  -5  -6   1  151.38   33.50
   5   6  -1  170.88   30.50
   5   6  -1  152.48   29.10
   5   6  -1  155.38   29.90
   4  -6  -1 4101.59  126.19
  -4  -6   1 4207.88  144.49
  -4  -6   1 3981.90  143.09
  -4  -6   1 4113.59  147.79
  -4  -6   1 4222.18  142.29
   4  -6  -1 4176.88  126.59
   4  -6  -1 4128.09  126.79
   4  -6  -1 4173.78  125.99
   4   6  -1 4115.09  139.69
   4   6  -1 4100.79  141.79
   4   6  -1 4172.78  141.59
  -4   6   1 4135.99  132.69
   4   6  -1 4176.28  138.19
  -3  -6   1   62.09   20.20
  -3  -6   1   48.30   21.80
   3  -6  -1   43.60    7.10
   3  -6  -1   59.59    7.30
  -3  -6   1   41.50   19.60
   3  -6  -1   54.69    7.30
  -3  -6   1   56.99   24.80
  -3  -6   1   48.30   21.70
   3   6  -1   41.80   17.70
   3   6  -1   43.50   16.00
   3   6  -1   39.10   22.10
   3   6  -1   28.70   18.50
   3   6  -1   33.60   16.40
  -3   6   1   41.80   17.50
   3   6  -1   28.20   15.90
   2  -6  -1 6729.23  202.08
  -2  -6   1 7478.95  214.78
  -2  -6   1 6983.00  215.28
   2  -6  -1 7017.80  210.58
   2  -6  -1 6673.13  202.08
   2  -6  -1 6709.23  200.68
  -2  -6   1 6566.84  218.08
  -2  -6   1 7257.77  213.98
  -2  -6   1 6821.32  219.68
   2  -6  -1 6752.52  200.68
   2   6  -1 7053.49  208.68
  -2   6   1 6900.01  213.88
   2   6  -1 7346.97  212.58
   2   6  -1 6991.50  212.08
   2   6  -1 6869.61  218.18
  -1  -6   1  148.19   17.60
   1  -6  -1  165.78   12.40
   1  -6  -1  153.68   13.60
  -1  -6   1  137.19   17.90
  -1  -6   1  177.78   23.00
   1  -6  -1  145.59   13.10
   1  -6  -1  177.88   22.60
  -1  -6   1  171.18   20.00
  -1  -6   1  140.59   16.60
   1   6  -1  187.08   17.10
  -1   6   1  170.58   24.30
   1   6  -1  134.79   24.00
   0  -6  -1 2656.43   93.99
   0  -6   1 2649.63   96.59
   0  -6   1 2696.73   86.69
   0  -6  -1 2853.31   86.89
   0  -6   1 2720.43   85.59
   0  -6  -1 2723.93   88.09
   0  -6   1 2703.93   85.99
   0  -6  -1 2658.63   87.79
   0  -6  -1 2752.72   87.69
   0   6   1 2662.63   83.89
   0   6  -1 2803.12   81.19
   0   6   1 2919.91   84.69
   0   6  -1 2726.33   96.89
   0   6   1 2682.83   96.59
  -1  -6  -1   54.99   20.00
  -1  -6  -1   70.09   14.40
   1  -6   1   33.60    5.30
  -1  -6  -1   30.00   13.70
  -1  -6  -1   34.00   16.10
   1  -6   1   42.70    5.80
  -1  -6  -1   31.40   14.90
   1  -6   1   27.50    6.60
   1  -6   1   26.50    6.80
   1   6   1   23.10    9.30
   1   6   1   17.60   19.90
   1   6   1   28.00   12.70
   1   6   1   36.70    9.10
   1   6   1   47.90   12.90
  -1   6  -1   28.90   19.00
   1   6   1   13.00   13.70
   2  -6   1  584.94   19.40
  -2  -6  -1  622.74   34.60
  -2  -6  -1  576.44   44.00
  -2  -6  -1  628.94   36.20
   2  -6   1  580.14   19.30
  -2  -6  -1  551.04   37.40
  -2   6  -1  592.04   38.60
   2   6   1  634.84   35.00
   2   6   1  635.94   42.10
   2   6   1  589.44   38.60
   2   6   1  590.34   35.80
   3  -6   1  347.57   16.30
  -3  -6  -1  360.76   35.20
   3  -6   1  347.97   16.40
  -3  -6  -1  329.97   37.00
   3  -6   1  361.66   16.50
  -3  -6  -1  311.47   37.40
  -3  -6  -1  393.96   33.30
   3  -6   1  353.06   16.60
  -3  -6  -1  470.25   36.00
   3   6   1  356.86   32.30
   3   6   1  376.66   37.50
  -3   6  -1  317.57   30.20
   3   6   1  293.97   35.00
   3   6   1  356.16   34.70
   3   6   1  344.97   33.10
  -4  -6  -1   98.79   27.00
   4  -6   1  127.19   16.00
   4  -6   1  134.19   16.90
   4  -6   1  135.49   15.20
  -4  -6  -1  135.29   26.50
  -4  -6  -1  131.09   28.50
   4  -6   1  111.99   14.40
  -4  -6  -1  123.99   29.30
   4   6   1  121.09   27.90
   4   6   1   76.89   27.60
   4   6   1  134.19   27.10
   4   6   1  130.29   27.20
   5  -6   1  310.37   39.20
  -5  -6  -1  265.87   41.70
   5  -6   1  289.77   25.00
   5  -6   1  309.47   30.80
  -5  -6  -1  304.67   39.30
  -5  -6  -1  293.87   38.70
   5  -6   1  269.77   26.50
   5  -6   1  304.17   24.60
   5   6   1  248.98   35.80
   5   6   1  320.87   36.70
   5   6   1  248.18   36.00
  -6  -6  -1  596.64   61.69
  -6  -6  -1  644.64   57.39
   6  -6   1  628.64   37.80
   6  -6   1  473.55   51.29
  -6  -6  -1  534.55   56.89
   6  -6   1  559.44   36.80
   6   6   1  495.85   50.39
   6   6   1  601.34   55.49
   6   6   1  535.45   53.49
   7  -6   1  124.49   24.20
  -7  -6  -1  131.79   43.80
   7  -6   1  153.28   25.90
  -7  -6  -1  140.79   43.70
  -7  -6  -1   99.89   43.10
   7   6   1  103.79   42.10
   7   6   1   98.19   38.20
   7   6   1  136.29   34.00
   8  -6   1  628.64   57.49
  -8  -6  -1  641.54   95.39
  -8  -6  -1  649.04   79.99
  -8  -6  -1  632.34   73.59
   8   6   1  667.63   71.99
   8   6   1  609.74   53.39
  -8  -7   1   66.69   47.60
   8  -7  -1  148.19   32.60
  -8  -7   1   85.29   42.10
  -8  -7   1   77.29   44.70
   8   7  -1  126.09   33.40
   8   7  -1  115.29   45.20
   7  -7  -1  356.66   39.40
  -7  -7   1  317.07   53.09
  -7  -7   1  364.06   54.89
  -7  -7   1  287.77   55.99
   7   7  -1  380.26   46.70
   7   7  -1  290.47   47.20
  -6  -7   1  114.09   40.80
   6  -7  -1   92.69   23.20
  -6  -7   1  128.99   37.80
  -6  -7   1   97.39   36.40
   6  -7  -1   92.39   17.10
   6   7  -1   80.89   31.80
   6   7  -1   78.59   31.60
   6   7  -1   96.79   33.00
   5  -7  -1  886.81   40.90
   5  -7  -1  885.21   35.80
  -5  -7   1  791.02   58.99
  -5  -7   1  900.21   60.89
  -5  -7   1  932.91   66.29
   5  -7  -1  834.82   35.10
   5  -7  -1  845.42   38.30
   5  -7  -1  972.10   45.30
   5   7  -1  842.32   53.69
   5   7  -1  891.41   56.19
   5   7  -1  931.41   56.09
  -4  -7   1   68.69   27.70
  -4  -7   1   85.19   27.70
   4  -7  -1   94.69   12.30
   4  -7  -1  122.09   12.50
   4  -7  -1  108.39   12.20
  -4  -7   1   86.99   26.10
   4  -7  -1  116.19   11.50
  -4  -7   1   80.59   27.10
   4   7  -1   63.49   21.90
  -4   7   1   71.39   20.50
   4   7  -1  101.09   28.20
   4   7  -1   56.09   22.20
   4   7  -1  161.18   25.00
   3  -7  -1 2201.08   63.89
  -3  -7   1 2151.28   90.99
  -3  -7   1 2037.80   84.69
  -3  -7   1 2248.18   84.39
  -3  -7   1 2084.59   85.39
   3  -7  -1 2296.67   65.59
   3  -7  -1 2189.58   65.29
   3   7  -1 2032.70   79.39
  -3   7   1 2158.18   79.89
   3   7  -1 2094.19   77.99
   3   7  -1 2082.99   86.69
   3   7  -1 2165.28   76.69
  -2  -7   1  179.48   23.50
  -2  -7   1  176.98   24.80
  -2  -7   1  219.48   23.10
   2  -7  -1  171.28   10.60
  -2  -7   1  197.78   27.90
   2  -7  -1  193.28   22.20
  -2  -7   1  161.98   30.10
   2  -7  -1  191.08   10.70
   2  -7  -1  190.98   10.70
  -2   7   1  197.28   25.20
   2   7  -1  187.88   18.40
   2   7  -1  172.48   19.00
   2   7  -1  167.18   28.70
  -1  -7   1 2375.36   77.69
  -1  -7   1 2191.08   76.39
   1  -7  -1 2195.38   71.19
   1  -7  -1 2204.78   70.69
  -1  -7   1 2122.69   78.09
  -1  -7   1 2246.28   86.89
   1  -7  -1 2281.97   82.29
  -1  -7   1 2247.48   77.59
   1  -7  -1 2192.98   70.89
  -1   7   1 2130.79   84.09
   1   7  -1 2190.58   86.79
   1   7  -1 2318.47   73.09
   0  -7  -1   32.50   12.80
   0  -7   1   34.80   11.50
   0  -7  -1   21.10   13.20
   0  -7   1   23.80   11.70
   0  -7   1   34.20   20.30
   0  -7   1   19.10   11.70
   0  -7  -1   42.40   19.80
   0  -7   1   28.20   10.00
   0  -7  -1   12.90   13.10
   0  -7  -1   27.90   11.40
   0   7   1   30.40   22.80
   0   7  -1   19.70   20.30
   0   7   1   30.10    7.50
   0   7   1   35.10    7.60
   1  -7   1 1590.84   50.09
   1  -7   1 1556.14   50.89
   1  -7   1 1496.25   64.99
  -1  -7  -1 1611.54   59.69
   1  -7   1 1480.45   49.40
  -1  -7  -1 1510.55   60.59
  -1  -7  -1 1529.15   67.19
  -1  -7  -1 1624.44   59.89
  -1  -7  -1 1647.64   61.09
   1  -7   1 1596.34   49.90
   1   7   1 1547.65   56.49
   1   7   1 1600.24   56.69
   1   7   1 1521.45   64.29
   1   7   1 1599.54   69.89
  -1   7  -1 1476.15   66.99
  -2  -7  -1   30.80   21.90
  -2  -7  -1   45.00   18.20
  -2  -7  -1   37.90   24.80
  -2  -7  -1   57.49   19.80
  -2  -7  -1   29.30   17.50
   2   7   1   58.89   14.10
   2   7   1   48.80   20.50
  -2   7  -1   23.00   21.10
   2   7   1   18.10   15.80
   2   7   1   11.40   15.40
   2   7   1   49.90   18.50
  -3  -7  -1  306.27   38.40
  -3  -7  -1  291.97   36.90
   3  -7   1  317.37   14.60
  -3  -7  -1  424.76   37.80
  -3  -7  -1  357.16   44.40
   3  -7   1  353.06   14.60
   3   7   1  373.36   41.00
  -3   7  -1  344.97   35.00
   3   7   1  301.87   31.40
   3   7   1  342.27   33.50
   4  -7   1  694.53   26.60
  -4  -7  -1  652.73   52.09
   4  -7   1  688.53   26.50
   4  -7   1  704.83   30.30
   4  -7   1  667.23   29.60
  -4  -7  -1  653.13   56.19
  -4  -7  -1  690.93   53.39
  -4  -7  -1  632.14   52.29
  -4   7  -1  685.13   43.20
   4   7   1  782.42   49.20
   4   7   1  658.13   50.89
   4   7   1  602.54   47.10
   4   7   1  704.63   48.80
   5  -7   1   13.80   10.50
  -5  -7  -1   26.60   30.90
  -5  -7  -1    6.40   24.50
   5  -7   1   31.90   12.20
   5  -7   1   37.40   18.90
  -5  -7  -1  -19.60   26.70
   5  -7   1    3.50   12.50
   5   7   1   32.80   24.80
   5   7   1    0.40   27.20
   5   7   1    3.50   25.00
   6  -7   1  508.25   35.10
  -6  -7  -1  477.25   54.39
   6  -7   1  491.45   33.20
  -6  -7  -1  565.24   59.09
  -6  -7  -1  429.26   56.89
   6  -7   1  499.65   31.70
   6   7   1  490.15   53.59
   6   7   1  449.16   54.79
   6   7   1  569.04   56.19
  -7  -7  -1  291.97   62.29
  -7  -7  -1  268.27   67.69
   7  -7   1  264.57   28.20
  -7  -7  -1  267.57   51.19
   7  -7   1  288.97   32.50
   7   7   1  221.88   46.50
   7   7   1  370.06   46.20
   7   7   1  297.37   54.69
  -8  -7  -1  213.08   55.79
  -8  -7  -1   67.29   44.80
  -8  -7  -1  129.99   49.10
   8  -7   1   88.99   40.90
   8  -7   1   62.99   40.40
   8   7   1  106.99   48.70
   8   7   1   83.19   45.90
  -8  -8   1   26.20   39.80
  -8  -8   1   -7.90   40.70
  -8  -8   1   44.60   48.80
   8  -8  -1  -42.80   22.80
   8   8  -1  -53.39   47.90
   8   8  -1   49.90   41.00
   7  -8  -1 1218.08   51.69
   7  -8  -1 1344.37   62.59
  -7  -8   1 1286.57  105.29
  -7  -8   1 1263.67   93.09
  -7  -8   1 1144.89   86.49
   7   8  -1 1250.47   93.89
  -6  -8   1  117.09   39.10
  -6  -8   1  133.99   43.80
   6  -8  -1  115.69   14.80
   6  -8  -1  171.78   20.90
  -6  -8   1   62.19   43.00
   6   8  -1  137.39   36.40
   6   8  -1  158.68   37.60
   5  -8  -1  892.81   46.00
   5  -8  -1  760.52   28.70
   5  -8  -1  805.12   34.80
  -5  -8   1  776.42   66.99
   5  -8  -1  653.53   37.80
  -5  -8   1  827.32   60.09
  -5  -8   1  821.22   61.09
  -5   8   1  778.62   44.70
   5   8  -1  722.53   54.89
   5   8  -1  735.53   52.29
  -4  -8   1  282.67   38.70
  -4  -8   1  285.57   36.60
  -4  -8   1  342.17   39.50
   4  -8  -1  289.77   18.60
  -4  -8   1  289.97   38.00
   4   8  -1  287.87   34.80
   4   8  -1  255.27   29.60
   4   8  -1  238.98   36.90
  -4   8   1  243.58   28.60
  -3  -8   1  133.59   27.60
  -3  -8   1  132.39   28.70
   3  -8  -1  148.59   10.90
  -3  -8   1  139.39   33.60
  -3  -8   1  119.89   26.00
   3  -8  -1  156.28   10.60
   3   8  -1  136.19   21.30
   3   8  -1  169.28   31.80
  -3   8   1  187.58   28.00
  -2  -8   1  577.94   38.50
  -2  -8   1  702.63   40.30
   2  -8  -1  640.84   22.30
  -2  -8   1  649.74   49.50
  -2  -8   1  647.54   43.50
   2  -8  -1  581.64   39.00
  -2  -8   1  610.74   42.30
   2  -8  -1  607.34   24.40
   2  -8  -1  662.03   22.40
  -2   8   1  663.53   44.00
   2   8  -1  583.24   35.20
   2   8  -1  651.93   24.20
   2   8  -1  628.34   48.20
  -1  -8   1  304.17   29.20
   1  -8  -1  313.47   20.30
   1  -8  -1  309.57   21.10
  -1  -8   1  283.17   34.90
  -1  -8   1  297.47   25.90
  -1  -8   1  298.07   26.40
  -1  -8   1  246.58   26.80
   1  -8  -1  310.47   19.60
   1  -8  -1  311.57   20.00
   1  -8  -1  318.97   32.60
   1   8  -1  280.87   35.40
   1   8  -1  299.27   20.40
  -1   8   1  312.07   37.10
   1   8  -1  294.37   19.80
   0  -8   1  651.63   33.40
   0  -8   1  744.13   32.20
   0  -8  -1  700.43   33.20
   0  -8   1  725.53   47.50
   0  -8  -1  730.03   35.50
   0  -8  -1  678.73   34.80
   0  -8   1  681.53   33.10
   0  -8  -1  693.33   34.60
   0  -8   1  722.73   33.50
   0  -8  -1  709.03   46.80
   0   8  -1  682.03   49.20
   0   8   1  717.43   24.50
   0   8   1  722.63   24.50
   0   8   1  665.83   48.40
   1  -8   1 2219.98   69.89
  -1  -8  -1 2173.08   82.19
   1  -8   1 2267.27   71.09
   1  -8   1 2290.07   71.29
  -1  -8  -1 2229.58   80.69
   1  -8   1 2173.88   86.69
  -1  -8  -1 2240.68   79.69
  -1  -8  -1 2265.87   89.69
   1  -8   1 2153.88   72.59
  -1  -8  -1 2192.68   81.69
  -1   8  -1 2202.38   89.89
   1   8   1 2269.77   75.99
   1   8   1 2513.15   78.99
   1   8   1 2082.19   90.19
  -2  -8  -1   20.60   21.00
  -2  -8  -1   43.90   19.90
   2  -8   1    0.80    4.70
  -2  -8  -1  -31.30   17.70
   2  -8   1   -0.20    5.10
  -2  -8  -1   12.10   24.50
   2   8   1   14.50   14.80
   2   8   1   14.90   11.30
   2   8   1  -10.40   19.30
  -2   8  -1   -5.40   20.70
  -3  -8  -1 3092.09  115.29
   3  -8   1 3211.18   93.49
  -3  -8  -1 3185.18  123.69
  -3  -8  -1 3251.57  119.49
   3  -8   1 3229.78   93.49
  -3  -8  -1 3045.50  116.29
   3   8   1 3314.57  107.99
   3   8   1 3111.39  107.49
  -3   8  -1 3032.40  113.79
   3   8   1 3123.49  120.79
   3   8   1 3196.58  113.49
  -4  -8  -1  -15.40   32.60
  -4  -8  -1   23.10   29.40
  -4  -8  -1  -13.20   25.80
   4  -8   1   -0.30    9.30
  -4  -8  -1   12.20   26.50
   4  -8   1    3.60   10.50
   4   8   1  -19.60   22.60
   4   8   1   -6.10   23.10
   4   8   1    0.60   26.20
   4   8   1   13.10   27.40
  -4   8  -1   16.50   21.50
   5  -8   1 1359.96   44.50
   5  -8   1 1350.06   44.20
  -5  -8  -1 1361.66   77.69
  -5  -8  -1 1223.78   82.59
  -5  -8  -1 1349.56   76.59
   5  -8   1 1302.77   50.69
   5  -8   1 1273.87   57.09
   5   8   1 1300.77   73.69
   5   8   1 1370.76   70.79
   5   8   1 1309.97   70.99
   6  -8   1    6.00   11.90
   6  -8   1   13.00   11.70
  -6  -8  -1   39.50   39.30
  -6  -8  -1   68.09   43.10
  -6  -8  -1   -0.90   37.30
   6   8   1  -10.50   34.00
   6   8   1    2.80   30.10
   7  -8   1  499.35   33.90
  -7  -8  -1  439.96   63.59
  -7  -8  -1  531.15   60.69
  -7  -8  -1  474.35   58.89
   7   8   1  414.26   57.89
   7   8   1  532.35   65.69
  -8  -8  -1   79.59   56.19
  -8  -8  -1   48.80   45.00
   8  -8   1   34.70   24.70
  -8  -8  -1   43.40   45.80
   8   8   1  -15.80   45.00
   8   8   1   53.89   49.20
   8   8   1  111.39   36.10
   7  -9  -1  130.39   14.70
  -7  -9   1   82.39   46.80
  -7  -9   1  174.88   48.90
  -7  -9   1  195.68   47.60
   7   9  -1  133.59   33.20
   7   9  -1  191.28   45.00
   7   9  -1  111.49   43.80
   6  -9  -1  512.35   38.60
  -6  -9   1  705.73   71.99
   6   9  -1  631.24   57.09
   6   9  -1  632.94   59.39
  -5  -9   1   74.69   35.50
   5  -9  -1   84.09   14.20
  -5  -9   1   26.70   39.10
  -5  -9   1   27.90   34.20
   5  -9  -1   85.39   19.40
   5   9  -1   77.29   33.20
   5   9  -1   98.39   27.80
  -5   9   1   42.70   23.50
   4  -9  -1  151.68   16.30
  -4  -9   1  165.68   36.50
   4  -9  -1  176.98   24.10
  -4  -9   1   37.40   36.00
  -4  -9   1  153.78   39.40
  -4  -9   1  181.78   33.40
   4   9  -1  163.18   26.50
   4   9  -1  100.79   24.10
   4   9  -1  106.99   33.70
  -4   9   1  190.58   29.00
  -3  -9   1   51.89   25.10
  -3  -9   1    2.60   23.90
  -3  -9   1   87.49   31.70
   3  -9  -1   57.89    8.40
  -3  -9   1   59.39   24.70
   3  -9  -1   70.69   20.30
   3   9  -1   45.50   27.30
  -3   9   1   53.39   24.60
   3   9  -1   82.09   18.80
   3   9  -1   44.70   20.90
   3   9  -1   28.50   14.00
  -2  -9   1    7.80   21.00
  -2  -9   1   39.70   20.90
  -2  -9   1   31.30   25.60
   2  -9  -1   25.70    4.80
   2  -9  -1   36.60   10.30
   2  -9  -1  -17.80   18.70
   2  -9  -1   20.50    9.20
   2   9  -1   37.80   15.10
  -2   9   1    5.30   23.90
   2   9  -1    8.60   25.20
   1  -9  -1  132.09   16.20
   1  -9  -1  104.69   25.80
   1  -9  -1   98.89   13.00
  -1  -9   1   78.99   29.90
   1  -9  -1  117.39   15.50
  -1  -9   1   87.19   17.20
  -1  -9   1   92.89   20.40
  -1  -9   1   94.39   20.20
   1  -9  -1  120.49   13.70
  -1  -9   1   59.29   21.90
   1   9  -1  103.69   12.60
   1   9  -1   99.69   11.70
  -1   9   1   85.29   28.70
   1   9  -1  113.69   30.80
   0  -9   1  851.71   38.30
   0  -9  -1  801.62   52.89
   0  -9   1  774.72   51.99
   0  -9   1  805.72   39.10
   0  -9   1  754.22   35.70
   0  -9   1  791.12   37.90
   0  -9  -1  815.42   39.60
   0  -9  -1  858.21   41.60
   0  -9  -1  809.02   42.30
   0  -9  -1  826.02   38.00
   0   9  -1  795.82   56.19
   0   9   1  833.22   54.79
  -1  -9  -1  127.69   27.50
   1  -9   1  172.48   31.60
  -1  -9  -1  219.48   25.50
   1  -9   1  190.78   19.20
  -1  -9  -1  204.18   27.40
   1  -9   1  222.88   18.80
   1  -9   1  191.08   15.00
  -1  -9  -1  164.08   31.40
   1  -9   1  198.18   16.10
  -1  -9  -1  196.58   22.40
   1   9   1  251.47   35.20
  -1   9  -1  209.38   34.20
   1   9   1  212.08   21.60
   1   9   1  146.29   19.10
  -2  -9  -1  961.60   54.09
  -2  -9  -1 1069.09   64.79
  -2  -9  -1  992.10   53.19
   2  -9   1 1035.70   34.60
   2  -9   1  965.90   57.69
  -2  -9  -1 1034.00   55.99
   2   9   1 1075.49   48.20
  -2   9  -1 1027.70   58.79
   2   9   1 1092.19   64.29
   3  -9   1  168.38   10.00
  -3  -9  -1  159.28   31.40
  -3  -9  -1  168.88   36.10
  -3  -9  -1  210.38   33.90
   3  -9   1  177.48    9.50
  -3  -9  -1  173.08   29.90
   3   9   1  110.29   19.40
  -3   9  -1  165.58   30.60
   3   9   1  172.58   24.90
   3   9   1  159.78   35.20
  -4  -9  -1 1396.46   82.59
  -4  -9  -1 1376.56   74.69
  -4  -9  -1 1338.17   78.29
   4  -9   1 1518.65   49.70
   4  -9   1 1325.57   46.40
  -4   9  -1 1416.86   69.09
   4   9   1 1398.46   77.19
   4   9   1 1336.67   70.69
   4   9   1 1354.46   64.39
   5  -9   1   26.70   13.20
  -5  -9  -1   44.30   43.10
  -5  -9  -1   66.79   34.50
  -5  -9  -1   77.59   39.30
   5   9   1   -4.50   34.90
   5   9   1   30.80   26.80
   5   9   1  -48.70   26.90
  -6  -9  -1 1457.65   93.69
  -6  -9  -1 1432.06   95.09
   6   9   1 1596.14   85.89
   6   9   1 1452.85   86.19
   6   9   1 1380.96  109.89
   7  -9   1   64.29   13.10
  -7  -9  -1   73.49   43.60
  -7  -9  -1   73.59   49.70
  -7  -9  -1   61.49   45.30
   7   9   1   49.40   35.30
   7   9   1   19.40   40.00
   7   9   1   -6.50   50.99
  -7 -10   1  176.88   52.29
  -7 -10   1  251.57   56.49
  -7 -10   1  323.97   58.19
   7  10  -1  326.07   51.29
   7  10  -1  189.18   52.49
   7  10  -1  355.36   50.79
  -6 -10   1  561.34   67.49
  -6 -10   1  372.96   60.39
  -6 -10   1  571.64   70.19
   6  10  -1  477.95   53.09
   6  10  -1  414.96   49.60
   6  10  -1  491.85   55.39
  -5 -10   1  146.89   44.00
   5 -10  -1  145.29   23.80
  -5 -10   1  136.09   48.30
  -5 -10   1  123.09   42.60
   5  10  -1  192.48   30.10
   5  10  -1  155.28   34.70
  -5  10   1  105.29   29.30
  -4 -10   1 2009.70   95.59
  -4 -10   1 1994.10   95.89
  -4 -10   1 2194.38  107.69
   4 -10  -1 2189.08   81.39
   4  10  -1 2166.38   77.59
   4  10  -1 2077.79   87.09
  -4  10   1 2061.19   88.29
  -3 -10   1  -23.60   30.00
  -3 -10   1   58.49   29.40
   3 -10  -1   -3.20    8.40
   3 -10  -1   16.20   20.00
   3 -10  -1   16.40    9.40
  -3 -10   1   11.30   26.40
  -3 -10   1   13.60   22.80
   3  10  -1   12.90   30.00
  -3  10   1   12.70   26.10
   3  10  -1   19.50   19.20
   2 -10  -1 2428.06   77.09
   2 -10  -1 2378.76   76.09
  -2 -10   1 2334.07   91.99
  -2 -10   1 2357.46  102.89
   2 -10  -1 2341.07   91.69
  -2 -10   1 2288.07   90.99
  -2  10   1 2219.28   96.89
   2  10  -1 2344.07  104.09
   1 -10  -1   90.59   16.00
  -1 -10   1   70.59   23.20
  -1 -10   1   57.59   20.40
   1 -10  -1   68.89   12.70
  -1 -10   1   80.09   18.40
   1 -10  -1  144.99   18.10
   1 -10  -1  117.79   19.50
  -1 -10   1   73.69   31.90
   1 -10  -1   71.29   25.60
   1  10  -1   66.29   32.50
   1  10  -1   99.59    9.60
  -1  10   1   53.29   30.10
   0 -10   1 1410.66   59.19
   0 -10  -1 1465.55   58.19
   0 -10   1 1564.14   77.19
   0 -10   1 1489.15   58.69
   0 -10  -1 1511.35   57.49
   0 -10   1 1495.05   55.39
   0 -10   1 1520.25   56.99
   0 -10  -1 1394.56   62.09
   0 -10  -1 1436.96   73.59
   0  10  -1 1313.97   75.59
   0  10   1 1377.16   75.09
  -1 -10  -1  340.77   36.70
   1 -10   1  328.67   42.60
   1 -10   1  334.07   25.60
  -1 -10  -1  338.47   35.20
  -1 -10  -1  326.17   33.10
   1 -10   1  395.16   28.20
   1 -10   1  366.76   18.30
   1 -10   1  382.26   19.70
  -1 -10  -1  388.76   48.00
   1  10   1  325.37   23.60
  -1  10  -1  378.66   46.70
   1  10   1  291.27   42.20
   1  10   1  328.97   35.00
   2 -10   1  148.39   15.50
   2 -10   1  221.58   33.20
  -2 -10  -1  156.68   33.90
   2 -10   1  160.38   17.40
  -2 -10  -1  164.18   28.50
  -2 -10  -1  209.78   29.80
  -2 -10  -1  163.38   28.40
   2  10   1  202.78   40.90
  -2  10  -1  159.98   33.70
   2  10   1  161.48   21.30
  -3 -10  -1  400.06   50.89
  -3 -10  -1  568.24   48.80
   3 -10   1  460.15   45.80
   3 -10   1  432.76   17.30
  -3 -10  -1  483.15   49.70
  -3  10  -1  448.96   46.00
   3  10   1  445.26   58.89
  -4 -10  -1    0.70   33.20
  -4 -10  -1  -28.80   30.00
   4 -10   1   -1.00   23.90
  -4 -10  -1   -4.40   36.50
   4  10   1   66.39   33.60
   4  10   1   25.30   22.80
  -4  10  -1  -37.00   24.50
   4  10   1  -15.30   24.90
  -5 -10  -1  235.68   56.49
  -5 -10  -1   94.59   45.50
   5  10   1  180.88   37.60
   5  10   1  245.08   39.60
   5  10   1  152.58   31.90
  -6 -10  -1  366.26   59.79
  -6 -10  -1  413.76   55.89
  -6 -10  -1  393.36   58.09
   6  10   1  335.77   50.39
   6  10   1  374.86   52.79
   6  10   1  333.67   49.70
  -7 -10  -1   60.29   47.90
  -7 -10  -1  115.79   51.69
  -7 -10  -1   32.50   52.79
   7  10   1  131.89   47.30
   7  10   1  129.79   44.50
   7  10   1  180.18   59.79
  -6 -11   1   92.69   44.60
  -6 -11   1   39.70   47.60
  -6 -11   1   79.19   40.40
   6  11  -1   19.10   37.30
   6  11  -1   66.59   41.50
  -5 -11   1 1086.79   80.19
  -5 -11   1  971.60   74.79
  -5 -11   1  922.21   79.89
   5  11  -1  891.51   69.69
  -5  11   1 1014.70   63.79
  -4 -11   1  -18.90   34.70
   4 -11  -1   19.70   23.50
  -4 -11   1   23.90   65.19
  -4 -11   1   59.99   33.50
   4  11  -1   19.60   29.30
  -4  11   1   33.90   30.50
   4  11  -1  -77.69   40.70
  -3 -11   1 1344.27   75.99
   3 -11  -1 1443.06   67.79
  -3 -11   1 1532.45   92.49
  -3 -11   1 1424.16   73.79
  -3  11   1 1453.75   78.39
   3  11  -1 1525.05   81.29
   2 -11  -1   18.80   13.90
  -2 -11   1    2.80   23.40
   2 -11  -1    1.90   23.90
  -2 -11   1   24.60   31.50
  -2 -11   1  -14.60   22.40
   2  11  -1    4.80   31.00
  -2  11   1   25.90   30.50
  -1 -11   1  893.41   66.39
  -1 -11   1 1036.80   53.99
   1 -11  -1 1079.29   46.50
   1 -11  -1 1013.10   40.80
   1 -11  -1 1110.39   62.79
  -1 -11   1  966.00   49.50
  -1 -11   1 1067.89   52.39
   1 -11  -1 1021.10   40.30
  -1  11   1  972.50   68.69
   0 -11  -1    7.80   15.50
   0 -11  -1   27.30   16.50
   0 -11  -1   11.90   26.30
   0 -11   1   14.20   29.50
   0 -11   1   26.20   14.80
   0 -11   1    8.60   14.50
   0  11  -1    1.20   30.20
   0  11   1    1.70   31.30
   1 -11   1  650.93   53.99
  -1 -11  -1  766.42   43.10
   1 -11   1  651.03   26.40
  -1 -11  -1  690.33   58.29
   1 -11   1  678.53   35.50
  -1 -11  -1  613.44   43.60
  -1 -11  -1  634.24   45.40
  -1  11  -1  583.34   56.69
  -2 -11  -1   36.70   25.00
  -2 -11  -1  -26.40   35.00
   2 -11   1   -5.40   11.50
   2 -11   1  -10.20   26.70
  -2 -11  -1    3.10   26.00
  -2  11  -1   26.00   30.10
   2  11   1  -20.90   32.00
  -3 -11  -1  239.18   51.19
  -3 -11  -1  246.58   37.80
   3 -11   1  185.78   34.50
  -3 -11  -1  210.18   40.20
   3  11   1  168.08   31.80
  -3  11  -1  265.07   39.90
   3  11   1  148.69   45.10
   4 -11   1   44.60   27.10
  -4 -11  -1  141.19   43.30
  -4 -11  -1  127.39   46.50
  -4  11  -1  129.29   32.70
   4  11   1  140.89   38.70
   4  11   1  109.89   20.40
   5 -11   1    5.60   29.30
  -5 -11  -1   21.50   36.40
  -5 -11  -1   -2.40   61.49
  -5 -11  -1   10.00   44.10
   5  11   1   -8.70   27.70
   5  11   1  -20.00   33.00
  -6 -11  -1  230.68   51.09
  -6 -11  -1  140.59   49.50
  -6 -11  -1  129.99   50.79
   6  11   1  137.09   42.30
   6  11   1  125.29   49.40
  -5 -12   1  347.47   49.90
  -5 -12   1  438.56   62.89
  -5 -12   1  476.85   57.89
   5  12  -1  390.76   55.89
  -5  12   1  496.35   51.19
   4 -12  -1  315.07   37.40
  -4 -12   1  330.47   46.10
  -4 -12   1  266.07   53.59
  -4 -12   1  304.37   54.19
  -4  12   1  188.18   39.30
   4  12  -1  296.07   48.40
  -3 -12   1  -34.60   29.80
  -3 -12   1    2.40   53.69
   3 -12  -1   18.30   27.40
   3  12  -1  -45.70   32.20
  -3  12   1   -4.90   31.50
   2 -12  -1  674.23   52.49
  -2 -12   1  713.13   71.29
  -2 -12   1  550.74   55.09
  -2 -12   1  595.54   52.29
   2  12  -1  546.45   60.29
  -2  12   1  659.83   60.89
  -1 -12   1  317.17   34.60
  -1 -12   1  284.57   50.19
   1 -12  -1  343.77   24.80
   1 -12  -1  354.56   34.60
   1 -12  -1  359.56   42.30
  -1 -12   1  344.07   36.10
   1 -12  -1  324.97   22.20
   1  12  -1  353.06   48.20
  -1  12   1  314.97   54.39
   0 -12  -1  396.36   50.59
   0 -12  -1  395.36   31.30
   0 -12  -1  383.26   41.00
   0 -12   1  404.06   50.39
   0 -12   1  403.76   29.70
   0  12  -1  314.17   55.49
   1 -12   1  864.21   26.90
   1 -12   1  808.72   62.99
  -1 -12  -1  842.82   51.29
  -1 -12  -1  804.92   53.19
   1 -12   1  837.72   46.20
  -1 -12  -1  898.61   69.39
   1  12   1  735.23   64.79
   2 -12   1  124.89   34.00
  -2 -12  -1   24.60   26.90
  -2 -12  -1  127.79   49.10
  -2 -12  -1  102.49   31.80
   2  12   1   98.09   35.30
   3 -12   1 1282.67   70.59
  -3 -12  -1 1091.09   71.79
  -3 -12  -1 1208.58   76.39
   3  12   1  998.00   76.49
  -4 -12  -1   -1.80   43.90
  -4 -12  -1   69.39   49.20
   4 -12   1  -87.49   30.20
  -4 -12  -1    8.40   33.00
  -4  12  -1  -18.40   32.80
   4  12   1  -25.70   33.20
  -5 -12  -1  928.01   77.69
  -5 -12  -1  749.03   91.39
   5 -12   1  784.02   73.99
  -5 -12  -1  870.41   81.69
   5  12   1  649.74   69.69
  -4 -13   1  115.09   50.39
  -4 -13   1   63.19   49.30
  -4 -13   1   33.10   38.80
   4  13  -1    0.90   37.90
  -4  13   1   28.20   29.70
  -3 -13   1  -72.99   45.60
  -3 -13   1   68.79   43.00
  -3 -13   1   56.49   34.10
   3 -13  -1   -1.00   32.60
  -3  13   1   21.20   28.90
   3  13  -1  -33.10   34.70
   2 -13  -1   24.70   32.30
  -2 -13   1    7.70   34.60
  -2 -13   1   62.79   36.00
  -2 -13   1   35.10   44.40
  -2  13   1  -14.00   29.00
   2  13  -1   28.40   37.60
   1 -13  -1  -20.10   10.30
  -1 -13   1  -16.40   24.90
  -1 -13   1  -27.40   28.90
   1 -13  -1   48.70   32.90
  -1  13   1  -33.30   28.40
   1  13  -1   26.20   35.60
   0 -13  -1  185.58   49.20
   0 -13  -1  208.08   25.30
   0 -13   1  270.57   54.69
   0 -13   1  222.38   26.70
   0 -13  -1  260.37   43.30
   0  13  -1  177.18   41.10
   0  13   1  224.88   43.20
  -1 -13  -1    2.00   26.40
  -1 -13  -1   -5.50   29.30
   1 -13   1   45.80   40.80
  -1 -13  -1   46.60   43.60
  -1  13  -1   -3.20   30.90
   1  13   1   38.30   37.30
  -2 -13  -1  769.52   63.89
   2 -13   1  715.93   72.89
  -2 -13  -1  735.03   57.39
  -2 -13  -1  825.72   76.29
   2  13   1  619.44   67.29
  -2  13  -1  726.63   63.49
  -3 -13  -1  -17.90   40.30
   3 -13   1   60.09   44.30
  -3 -13  -1    1.10   46.60
  -3 -13  -1   42.70   34.90
   3  13   1   53.99   40.70
  -3  13  -1   28.70   33.50
   4 -13   1  772.62   82.29
  -4 -13  -1  838.42   72.59
  -4 -13  -1  866.61   76.59
  -4 -13  -1  869.71   92.99
  -4  13  -1  864.41   67.59
   4  13   1  906.51   79.19
   2 -14  -1 1111.39   92.59
  -2 -14   1 1231.68   93.69
  -2 -14   1 1225.48   69.49
  -2  14   1 1347.77   80.59
   2  14  -1 1075.59   88.79
  -1 -14   1   24.60   25.40
  -1 -14   1   18.80   47.90
   1 -14  -1   55.69   48.60
   1  14  -1   30.80   41.00
  -1  14   1   49.50   38.00
   0 -14  -1  578.64   44.50
   0 -14  -1  668.83   68.89
   0 -14   1  553.14   65.29
   0 -14   1  663.33   38.10
   0  14   1  658.53   68.49
   0  14  -1  426.66   57.49
  -1 -14  -1  302.37   53.69
  -1 -14  -1  235.28   31.50
   1 -14   1  159.98   42.20
  -1  14  -1  140.09   42.80
   1  14   1  221.28   50.79
  10   0  -2   74.99   41.20
  10   0  -2   75.29   44.40
 -10   0   2  103.19   47.10
  -9   0   2   37.10   34.00
  -9   0   2   23.40   33.30
   9   0  -2   62.19   41.50
   9   0  -2   12.50   35.70
   8   0  -2 1084.79   70.19
  -8   0   2 1088.79   64.99
   8   0  -2 1172.28   68.99
  -8   0   2 1044.00   66.09
  -7   0   2   11.80   21.30
   7   0  -2    2.70   24.00
   7   0  -2    5.60   24.80
  -7   0   2  -16.60   22.10
  -7   0   2   28.70   25.10
   7   0  -2   -8.50   29.90
   7   0  -2  -30.40   23.40
  -7   0   2   -0.70   26.20
   6   0  -2 4445.66  147.59
   6   0  -2 4339.57  147.49
  -6   0   2 4157.98  144.19
   6   0  -2 4402.26  142.39
   6   0  -2 4157.58  146.79
  -6   0   2 4285.37  143.69
  -6   0   2 4362.26  142.99
   5   0  -2    9.50   14.70
   5   0  -2   17.90   18.00
  -5   0   2   16.70   20.10
  -5   0   2    7.70   15.40
   5   0  -2   -0.30   17.40
   5   0  -2   12.60   18.40
  -5   0   2   24.90   16.50
   5   0  -2   -8.90   19.30
  -5   0   2    4.50   17.70
   4   0  -2 5198.58  159.28
   4   0  -2 5307.57  162.58
   4   0  -2 4958.90  161.98
  -4   0   2 5142.69  161.38
   4   0  -2 5094.59  162.48
   4   0  -2 5285.87  162.38
  -4   0   2 4906.81  161.78
  -4   0   2 5044.00  159.08
  -4   0   2 5273.27  160.78
  -4   0   2 5180.58  162.88
  -3   0   2   -9.80   12.90
   3   0  -2    5.10   13.50
   3   0  -2   -6.30   13.10
   3   0  -2   -6.10   14.80
   3   0  -2   16.50   10.60
  -3   0   2    6.00   10.70
   3   0  -2   -4.90   13.50
  -3   0   2   13.90   13.50
  -3   0   2    1.40   15.40
  -3   0   2   -6.40   14.00
  -2   0   2 3341.57  100.89
   2   0  -2 3365.26  101.09
  -2   0   2 3228.38  101.19
   2   0  -2 3179.98  101.19
   2   0  -2 3174.58   97.09
  -2   0   2 3053.49   97.29
   2   0  -2 3198.78  100.39
  -2   0   2 3217.78  100.79
   2   0  -2 3025.90  100.59
   1   0  -2   11.60   12.20
   1   0  -2  -10.10   12.00
  -1   0   2   17.60   12.50
   1   0  -2  -12.10   11.90
  -1   0   2    0.80   12.30
  -1   0   2   -0.40   11.10
  -1   0   2   -2.20   11.20
   1   0  -2   -1.80    9.10
   0   0   2 1495.65   53.39
   0   0   2 1587.94   53.19
   0   0  -2 1612.44   53.39
   0   0   2 1637.34   53.89
   0   0   2 1696.63   53.29
   0   0  -2 1642.74   53.89
   0   0  -2 1547.15   51.89
   0   0  -2 1626.34   54.19
   1   0   2    9.50   13.20
   1   0   2   18.30   12.10
   1   0   2  -10.90   13.20
   1   0   2   -2.70   12.90
  -1   0  -2   10.70   12.40
  -1   0  -2   -1.30   14.00
  -1   0  -2    5.70   12.30
  -1   0  -2   -2.00   13.50
  -2   0  -2  876.91   39.10
   2   0   2  898.51   37.90
   2   0   2  860.81   38.30
   2   0   2  849.41   37.50
   2   0   2  833.62   38.40
  -2   0  -2  806.92   36.20
   2   0   2  910.31   38.50
  -2   0  -2  894.01   37.30
  -2   0  -2  802.62   37.70
   3   0   2   -5.50   15.40
  -3   0  -2   25.60   13.60
   3   0   2   -6.80   13.90
  -3   0  -2   -6.90   15.90
  -3   0  -2    1.60   14.70
   3   0   2   15.00   13.10
  -3   0  -2   10.50   13.30
   4   0   2 1411.36   60.99
   4   0   2 1477.35   59.49
  -4   0  -2 1413.56   59.89
   4   0   2 1416.66   58.79
   4   0   2 1391.16   60.59
   4   0   2 1319.77   59.69
  -4   0  -2 1429.96   59.49
  -4   0  -2 1369.76   55.49
  -4   0  -2 1428.26   57.99
  -5   0  -2    0.30   18.30
  -5   0  -2   11.90   16.80
   5   0   2   -5.70   19.40
  -5   0  -2   -3.40   20.40
   5   0   2  -32.30   20.50
   5   0   2   34.30   20.80
   6   0   2 1427.36   70.79
  -6   0  -2 1423.06   68.59
   6   0   2 1517.25   73.69
  -6   0  -2 1459.95   68.29
   6   0   2 1533.45   73.39
  -6   0  -2 1409.76   66.29
  -7   0  -2   29.50   26.50
   7   0   2   -2.60   18.10
   7   0   2   47.20   30.40
  -7   0  -2   43.00   31.60
   7   0   2  -26.10   28.50
  -7   0  -2  -35.60   23.70
  -8   0  -2  561.34   59.99
   8   0   2  811.72   73.79
  -8   0  -2  748.83   58.09
   8   0   2  855.41   69.69
   8   0   2  759.22   46.80
  -9   0  -2   -8.60   37.10
  -9   0  -2   25.80   41.70
   9   0   2 -100.69   37.60
   9   0   2    8.90   36.90
 -10  -1   2  314.07   56.99
  10  -1  -2  423.16   57.19
 -10  -1   2  356.76   50.59
  10  -1  -2  466.15   55.89
  10   1  -2  400.76   59.19
  10   1  -2  504.75   60.59
 -10   1   2  225.28   51.59
   9  -1  -2  363.36   47.00
  -9  -1   2  433.76   54.49
  -9  -1   2  371.86   47.90
   9  -1  -2  358.26   52.29
  -9   1   2  409.56   48.70
   9   1  -2  372.06   52.59
   9   1  -2  303.67   75.79
  -9   1   2  309.47   43.90
   8  -1  -2  181.58   34.40
  -8  -1   2  143.89   32.50
  -8  -1   2  158.58   34.80
  -8  -1   2  165.38   33.30
   8  -1  -2  152.58   34.40
  -8   1   2  132.19   29.60
   8   1  -2  142.99   36.60
   8   1  -2  128.49   37.10
  -8   1   2  160.28   32.30
  -7  -1   2  883.01   56.79
  -7  -1   2  867.31   56.59
   7  -1  -2  856.11   55.09
   7  -1  -2  820.42   54.19
   7  -1  -2  787.32   61.39
  -7  -1   2  800.72   54.99
   7  -1  -2  837.62   54.09
  -7   1   2  825.62   50.59
   7   1  -2  799.12   55.69
   7   1  -2  903.61   58.39
   6  -1  -2    8.60   17.30
  -6  -1   2    5.50   20.30
   6  -1  -2    4.30   19.50
   6  -1  -2  -13.90   20.30
  -6  -1   2   34.60   24.70
   6  -1  -2   -9.50   20.20
  -6  -1   2   26.70   24.40
  -6  -1   2   17.00   20.80
   6   1  -2   13.20    8.90
   6   1  -2   -9.10   22.80
   6   1  -2   17.00   23.30
   6   1  -2   20.30   22.60
  -6   1   2  -17.30   19.40
  -6   1   2   -3.20   19.50
   6   1  -2   45.40   19.70
  -5  -1   2 1131.29   53.29
  -5  -1   2 1122.09   52.19
  -5  -1   2 1095.19   55.49
  -5  -1   2 1127.79   52.99
   5  -1  -2 1170.08   48.10
   5  -1  -2 1181.68   54.79
   5  -1  -2 1265.27   53.59
   5  -1  -2 1146.09   53.29
   5  -1  -2 1149.29   51.49
   5   1  -2 1091.79   53.49
   5   1  -2 1154.28   40.00
   5   1  -2 1134.29   50.29
  -5   1   2 1151.48   51.59
   5   1  -2 1092.59   55.49
  -5   1   2 1123.79   49.99
  -5   1   2 1157.48   49.00
  -5   1   2 1154.98   51.39
   5   1  -2 1214.78   54.49
   5   1  -2 1050.49   54.49
   4  -1  -2  270.27   26.80
  -4  -1   2  240.78   29.30
  -4  -1   2  247.48   25.60
  -4  -1   2  228.88   25.70
   4  -1  -2  232.38   19.90
  -4  -1   2  234.28   29.80
   4  -1  -2  224.58   23.10
  -4  -1   2  272.87   26.20
   4  -1  -2  215.18   25.30
   4   1  -2  278.07   26.40
  -4   1   2  269.27   24.60
   4   1  -2  292.77   26.60
  -4   1   2  281.27   22.50
   4   1  -2  234.48   23.00
   4   1  -2  292.87   17.00
   4   1  -2  236.18   30.00
  -4   1   2  223.08   26.80
  -4   1   2  256.37   26.60
   4   1  -2  278.77   29.10
  -3  -1   2 2006.50   70.09
   3  -1  -2 1967.40   70.59
   3  -1  -2 2039.50   65.09
   3  -1  -2 2009.50   69.89
  -3  -1   2 2129.39   71.99
   3  -1  -2 1997.00   69.89
  -3  -1   2 1912.81   73.09
   3  -1  -2 2023.20   69.39
  -3  -1   2 2058.39   72.19
  -3  -1   2 2016.10   72.99
   3   1  -2 2074.49   72.59
   3   1  -2 1958.80   72.49
   3   1  -2 2136.39   64.99
   3   1  -2 2074.69   69.79
  -3   1   2 2173.08   69.79
   3   1  -2 2170.98   72.49
  -3   1   2 1995.70   69.99
   3   1  -2 2134.09   72.39
  -3   1   2 2003.20   65.69
  -3   1   2 2057.19   68.89
  -3   1   2 2074.89   69.49
  -2  -1   2   15.00   13.50
  -2  -1   2   13.80   14.60
  -2  -1   2   -1.80   13.20
  -2  -1   2    4.00   14.10
   2  -1  -2   13.60   11.60
   2  -1  -2   10.00   12.30
  -2  -1   2   10.00   15.30
   2  -1  -2    6.60   11.90
   2   1  -2   -9.80   13.50
   2   1  -2   11.00   15.00
  -2   1   2   12.50   12.40
  -2   1   2   14.90   11.70
  -2   1   2   12.80   12.00
  -2   1   2   22.90   12.70
  -2   1   2    6.40    6.20
   2   1  -2    1.90   11.30
   2   1  -2   16.90    9.70
   2   1  -2    9.60   13.50
   2   1  -2    2.10   14.80
   1  -1  -2 1660.33   55.69
   1  -1  -2 1688.23   55.19
   1  -1  -2 1703.63   55.79
  -1  -1   2 1711.43   56.59
  -1  -1   2 1657.83   56.89
  -1  -1   2 1680.13   56.89
   1  -1  -2 1622.64   55.79
  -1   1   2 1653.33   55.19
   1   1  -2 1707.63   56.59
  -1   1   2 1676.03   55.69
   1   1  -2 1727.73   56.39
  -1   1   2 1694.73   55.69
   1   1  -2 1770.32   55.79
   1   1  -2 1732.43   56.79
   1   1  -2 1587.24   56.89
  -1   1   2 1658.43   55.49
   0  -1   2 1772.62   57.39
   0  -1  -2 1690.93   58.39
   0  -1  -2 1801.42   57.99
   0  -1   2 1828.02   57.49
   0  -1  -2 1733.13   58.59
   0  -1   2 1782.92   57.69
   0  -1   2 1745.33   57.59
   0  -1  -2 1848.22   58.19
   0   1  -2 1763.12   56.59
   0   1  -2 1795.22   57.49
   0   1  -2 1711.13   57.89
   0   1  -2 1724.63   57.39
   0   1   2 1748.82   57.19
   0   1   2 1798.52   58.39
   0   1   2 1805.22   58.39
   0   1   2 1719.93   57.89
   0   1   2 1683.33   58.19
   1  -1   2  303.17   22.20
  -1  -1  -2  318.37   24.60
  -1  -1  -2  311.07   26.70
   1  -1   2  306.87   21.00
  -1  -1  -2  337.27   27.80
  -1  -1  -2  328.77   24.70
  -1  -1  -2  346.67   23.90
   1  -1   2  318.87   22.30
   1  -1   2  339.07   21.90
   1   1   2  330.07   25.10
   1   1   2  314.97   24.80
  -1   1  -2  329.67   21.90
  -1   1  -2  350.96   20.50
   1   1   2  317.77   23.70
  -1   1  -2  320.37   20.60
   1   1   2  318.47   26.00
   1   1   2  336.67   25.20
  -1   1  -2  313.17   21.20
  -2  -1  -2 1872.31   68.49
  -2  -1  -2 1869.01   68.29
  -2  -1  -2 2008.40   67.19
   2  -1   2 2005.40   65.39
   2  -1   2 1788.72   64.49
  -2  -1  -2 1911.61   70.49
  -2  -1  -2 1939.11   67.19
   2  -1   2 1928.41   65.39
  -2   1  -2 1933.61   65.39
   2   1   2 1899.61   72.49
   2   1   2 1941.81   68.89
   2   1   2 1835.32   67.49
  -2   1  -2 1980.50   63.79
   2   1   2 1995.90   68.29
   2   1   2 1856.81   67.09
  -2   1  -2 1850.61   63.79
  -2   1  -2 1879.21   63.59
  -3  -1  -2   17.50   14.00
   3  -1   2   16.40   14.60
   3  -1   2   12.60   13.40
   3  -1   2   28.10   17.00
  -3  -1  -2   17.70   14.10
   3  -1   2   38.00   17.80
  -3  -1  -2    6.40   16.70
  -3  -1  -2   22.70   21.10
   3  -1   2   30.10   14.00
  -3  -1  -2   17.90   17.90
   3   1   2   11.30   15.90
  -3   1  -2   18.30   13.20
   3   1   2   24.80   16.60
   3   1   2   24.10   16.40
  -3   1  -2   27.10   13.20
  -3   1  -2   19.40   14.30
   3   1   2   26.20   17.50
  -3   1  -2   38.90   13.60
   3   1   2   29.60   17.20
  -4  -1  -2 1918.21   72.29
   4  -1   2 1837.72   69.79
  -4  -1  -2 1830.82   77.49
   4  -1   2 1895.71   73.49
   4  -1   2 1861.11   70.69
   4  -1   2 1795.92   70.79
  -4  -1  -2 1795.22   73.29
  -4  -1  -2 1946.31   71.39
  -4  -1  -2 1830.22   73.69
   4   1   2 1811.62   74.19
  -4   1  -2 1926.31   69.09
  -4   1  -2 1974.10   68.19
   4   1   2 1819.32   73.69
  -4   1  -2 1818.32   69.59
   4   1   2 1875.01   74.49
   4   1   2 1728.33   71.89
   4   1   2 2000.50   74.39
  -5  -1  -2  481.35   41.90
   5  -1   2  510.55   42.40
   5  -1   2  530.55   40.30
   5  -1   2  545.55   39.00
  -5  -1  -2  539.25   43.30
  -5  -1  -2  558.54   37.10
   5  -1   2  496.85   39.60
   5  -1   2  545.05   41.90
  -5   1  -2  582.34   39.40
  -5   1  -2  489.95   34.60
   5   1   2  547.95   45.00
   5   1   2  498.25   42.70
   5   1   2  553.54   43.20
  -5   1  -2  517.95   36.60
   5   1   2  585.34   43.80
  -6  -1  -2  791.42   55.59
   6  -1   2  732.73   50.19
   6  -1   2  777.02   51.29
  -6  -1  -2  734.23   52.29
  -6  -1  -2  829.32   52.59
   6  -1   2  810.82   52.49
   6   1   2  785.92   44.30
  -6   1  -2  813.52   47.00
   6   1   2  701.83   53.19
  -6   1  -2  868.11   46.30
   6   1   2  795.82   56.99
  -6   1  -2  778.02   48.70
   6   1   2  725.33   53.29
   7  -1   2 1190.98   67.99
  -7  -1  -2 1184.08   67.69
   7  -1   2 1206.98   76.19
  -7  -1  -2 1201.28   68.29
   7  -1   2 1085.69   65.99
  -7   1  -2 1071.79   59.79
   7   1   2 1115.09   69.59
  -7   1  -2 1160.58   59.99
   7   1   2 1150.08   68.59
   7   1   2 1235.08   56.29
  -7   1  -2 1145.99   63.69
  -8  -1  -2  -23.70   32.10
   8  -1   2   45.90   21.30
  -8  -1  -2   33.90   35.00
   8  -1   2   63.79   35.30
   8  -1   2   12.90   33.70
   8   1   2    9.80   37.40
   8   1   2   28.30   37.60
  -8   1  -2   55.09   30.50
  -8   1  -2   97.49   27.70
   8   1   2   86.19   24.90
   9  -1   2  852.51   70.99
   9  -1   2  960.40   76.99
  -9  -1  -2  838.92   74.09
   9   1   2  908.81   79.29
   9   1   2 1041.80   84.59
  10  -2  -2  -13.00   35.40
  10  -2  -2    3.60   41.20
 -10  -2   2   60.69   46.40
 -10  -2   2  -15.50   56.99
  10   2  -2   -9.50   43.60
  10   2  -2   82.19   45.70
  -9  -2   2 1011.10   74.89
  -9  -2   2 1217.38   78.89
   9  -2  -2 1137.59   75.89
   9  -2  -2 1101.09   69.89
  -9  -2   2  939.81   79.99
  -9   2   2 1133.69   98.29
   9   2  -2 1139.69   82.19
   9   2  -2  988.90   77.69
  -8  -2   2    7.60   31.20
   8  -2  -2   66.19   27.60
  -8  -2   2   -6.40   34.40
  -8  -2   2   61.89   30.50
   8  -2  -2  -41.00   24.30
   8   2  -2   11.90   30.60
  -8   2   2   18.60   22.60
   8   2  -2   16.40   31.40
  -8   2   2    9.70   20.90
   7  -2  -2  971.80   57.69
   7  -2  -2  906.61   57.99
   7  -2  -2  962.90   52.19
  -7  -2   2  867.81   58.39
   7  -2  -2  883.21   54.99
  -7  -2   2  910.11   60.69
  -7  -2   2  905.01   61.49
  -7   2   2  930.01   49.00
   7   2  -2  786.62   59.49
   7   2  -2  948.11   40.40
  -7   2   2  964.80   53.39
   7   2  -2  920.31   59.79
  -7   2   2  943.31   47.20
  -6  -2   2   39.20   23.40
   6  -2  -2   50.19   20.80
   6  -2  -2   41.90   17.90
   6  -2  -2   54.79   22.20
  -6  -2   2   15.00   24.90
  -6  -2   2   49.40   26.30
  -6  -2   2   55.09   26.70
   6  -2  -2   61.99   20.90
   6   2  -2   69.89   26.70
   6   2  -2  -11.30   30.00
   6   2  -2   24.80   21.50
  -6   2   2   27.50   17.80
   6   2  -2   18.10   24.80
  -6   2   2   56.99   19.10
   6   2  -2   39.00   13.20
  -5  -2   2    6.20   22.40
  -5  -2   2   23.40   19.30
   5  -2  -2    8.70   16.80
  -5  -2   2   18.40   21.30
   5  -2  -2   26.10   17.10
   5  -2  -2   25.50   12.90
  -5  -2   2   40.60   21.70
  -5  -2   2   22.50   18.20
   5   2  -2   44.20   23.00
  -5   2   2   11.90   13.10
  -5   2   2   30.60   16.30
   5   2  -2   13.90   11.50
   5   2  -2    9.20   17.30
   5   2  -2   22.20   22.70
  -5   2   2   33.80   15.10
   5   2  -2   51.99   21.10
   5   2  -2    4.60   18.90
  -5   2   2   21.40   14.40
  -4  -2   2  343.87   29.50
  -4  -2   2  304.67   28.30
   4  -2  -2  309.87   27.10
  -4  -2   2  331.77   38.30
   4  -2  -2  333.07   20.00
  -4  -2   2  319.27   33.30
  -4  -2   2  307.87   30.90
   4  -2  -2  321.97   27.10
   4  -2  -2  285.37   24.90
   4  -2  -2  300.27   25.50
  -4   2   2  309.57   21.40
   4   2  -2  291.27   32.50
   4   2  -2  341.27   22.70
  -4   2   2  309.27   23.40
  -4   2   2  298.57   25.50
   4   2  -2  322.67   29.30
  -4   2   2  295.37   23.10
   4   2  -2  310.07   27.60
   4   2  -2  357.36   28.70
   4   2  -2  293.27   26.20
  -3  -2   2 2015.10   77.09
   3  -2  -2 2171.38   71.19
   3  -2  -2 2200.98   71.59
  -3  -2   2 2173.38   75.19
  -3  -2   2 2276.87   76.39
  -3  -2   2 2108.89   75.49
  -3  -2   2 1998.60   76.89
   3  -2  -2 2105.79   71.59
   3  -2  -2 2121.79   65.59
  -3   2   2 2115.59   68.69
  -3   2   2 2230.28   70.39
   3   2  -2 2150.18   75.49
   3   2  -2 2229.58   74.59
  -3   2   2 2083.49   62.79
   3   2  -2 2022.30   75.59
   3   2  -2 2115.39   70.09
  -3   2   2 2076.49   70.79
   3   2  -2 2254.97   75.79
  -3   2   2 2107.69   68.09
   3   2  -2 2136.69   76.49
  -2  -2   2  109.29   18.30
  -2  -2   2   97.49   17.00
  -2  -2   2  115.89   17.60
  -2  -2   2  107.99   17.10
   2  -2  -2  118.79   13.10
   2  -2  -2  125.79   13.20
   2  -2  -2  114.99   13.40
   2  -2  -2  103.49   13.10
  -2  -2   2  128.89   18.40
  -2   2   2  143.99   16.30
  -2   2   2  114.59   12.80
   2   2  -2  101.89   17.00
  -2   2   2  122.79   14.30
  -2   2   2  119.19   12.00
   2   2  -2  120.09   15.80
   2   2  -2  122.69   18.40
   2   2  -2  133.09   17.10
   2   2  -2   99.19   17.80
  -2   2   2  120.79   13.30
   1  -2  -2 5658.93  170.98
  -1  -2   2 5774.52  172.78
  -1  -2   2 5619.34  172.28
   1  -2  -2 5609.84  170.88
  -1  -2   2 5827.02  172.78
   1  -2  -2 5919.61  170.88
   1  -2  -2 5886.21  170.68
  -1  -2   2 5795.92  172.58
   1  -2  -2 5664.13  167.38
  -1   2   2 5699.13  169.68
  -1   2   2 5364.06  167.18
   1   2  -2 5888.61  173.18
  -1   2   2 5565.74  170.38
   1   2  -2 6121.99  172.08
  -1   2   2 5924.31  170.68
   1   2  -2 5677.73  171.98
   1   2  -2 5850.41  172.68
  -1   2   2 5541.15  169.48
   1   2  -2 5949.30  172.28
   0  -2  -2    8.80   11.80
   0  -2   2    5.60   10.60
   0  -2  -2   -8.40   10.90
   0  -2   2    7.00   10.20
   0  -2  -2   -3.30   11.10
   0  -2  -2   12.30   12.20
   0  -2  -2    2.50   12.90
   0  -2   2   15.40   10.30
   0   2  -2   14.20    9.10
   0   2   2    4.50   11.80
   0   2  -2   -1.20    9.40
   0   2   2    1.30   10.90
   0   2  -2    5.00    9.60
   0   2  -2   -7.00   13.90
   0   2   2   18.20   11.70
   0   2   2    2.50   11.40
   0   2  -2    8.60    9.60
   0   2   2   11.60   11.60
  -1  -2  -2 6416.86  193.98
  -1  -2  -2 6391.36  192.48
   1  -2   2 5979.90  188.98
   1  -2   2 6506.35  189.08
  -1  -2  -2 6637.64  193.78
   1  -2   2 6094.99  188.98
  -1  -2  -2 6413.36  193.48
   1  -2   2 6220.28  188.78
  -1  -2  -2 6548.94  192.78
  -1   2  -2 6051.49  186.88
  -1   2  -2 6445.56  188.68
   1   2   2 6790.92  194.08
  -1   2  -2 6359.66  188.78
   1   2   2 6341.37  192.58
   1   2   2 6241.68  191.98
   1   2   2 6716.13  192.88
   1   2   2 6559.24  193.58
  -2  -2  -2    4.50   16.10
  -2  -2  -2    3.20   14.00
   2  -2   2   11.00   11.30
  -2  -2  -2   13.00   16.90
  -2  -2  -2   23.10   14.50
   2  -2   2   22.30   11.60
   2  -2   2   14.50   10.70
  -2  -2  -2   21.20   17.50
   2  -2   2   13.90   11.80
   2   2   2    9.40   13.80
   2   2   2   18.30   13.20
   2   2   2   27.80   14.80
   2   2   2    0.50   15.20
  -2   2  -2   16.80    9.90
  -2   2  -2   15.00    9.90
  -2   2  -2   14.00    8.40
  -2   2  -2   11.10    8.90
   2   2   2    8.30   16.00
  -3  -2  -2 4836.12  153.58
   3  -2   2 4945.01  150.48
  -3  -2  -2 4759.82  155.48
   3  -2   2 4944.31  150.18
  -3  -2  -2 4570.74  154.88
   3  -2   2 5137.59  155.38
   3  -2   2 4860.21  150.18
  -3  -2  -2 4764.62  157.58
  -3  -2  -2 5082.29  154.88
   3   2   2 4523.55  154.98
   3   2   2 5007.10  155.98
   3   2   2 4849.31  154.98
  -3   2  -2 4707.53  146.19
  -3   2  -2 4734.53  148.99
   3   2   2 5019.20  155.08
  -3   2  -2 4854.51  148.89
  -3   2  -2 4750.52  145.99
   3   2   2 4859.91  156.98
   4  -2   2  301.77   29.70
  -4  -2  -2  360.16   35.60
  -4  -2  -2  352.16   30.70
  -4  -2  -2  341.77   30.90
  -4  -2  -2  322.37   32.90
   4  -2   2  333.47   28.80
   4  -2   2  391.86   30.10
  -4  -2  -2  351.76   36.00
   4  -2   2  396.16   29.80
   4  -2   2  374.06   32.70
   4   2   2  343.97   33.10
   4   2   2  363.16   37.60
   4   2   2  293.67   34.30
   4   2   2  303.37   34.90
  -4   2  -2  411.76   28.50
  -4   2  -2  363.56   26.10
  -4   2  -2  328.17   23.10
   4   2   2  387.76   34.10
  -5  -2  -2  921.31   55.39
   5  -2   2  966.70   51.19
  -5  -2  -2  871.51   59.09
   5  -2   2  939.61   48.70
  -5  -2  -2  855.01   54.69
   5  -2   2  930.41   52.19
  -5  -2  -2 1004.60   51.09
   5  -2   2  921.31   52.89
   5  -2   2 1026.60   49.70
   5   2   2  978.30   49.20
  -5   2  -2  966.40   46.50
   5   2   2  982.30   56.29
   5   2   2  992.40   54.89
  -5   2  -2  983.30   53.39
   5   2   2 1012.50   57.59
  -5   2  -2  981.00   41.40
  -6  -2  -2   -2.50   30.10
  -6  -2  -2  -27.10   25.40
   6  -2   2   13.20   20.50
   6  -2   2  -26.00   22.30
  -6  -2  -2    4.60   24.50
   6  -2   2   -6.70   24.10
   6   2   2   47.80   21.10
   6   2   2  -31.90   25.20
   6   2   2   31.20   28.00
  -6   2  -2   12.20   17.40
  -6   2  -2   57.19   18.30
   7  -2   2   69.09   35.90
   7  -2   2  125.49   30.60
  -7  -2  -2   73.19   32.60
   7  -2   2  133.19   32.60
  -7  -2  -2  105.69   32.70
  -7   2  -2   91.49   21.10
   7   2   2   39.10   32.20
  -7   2  -2  107.09   33.40
   7   2   2  112.99   34.40
   7   2   2   97.59   24.10
  -8  -2  -2    8.40   33.40
   8  -2   2   20.30   35.50
   8  -2   2  -18.50   29.30
  -8  -2  -2  -28.80   37.20
   8   2   2   27.60   39.10
   8   2   2   -1.70   38.50
   8   2   2   -9.00   22.80
  -8   2  -2  -42.60   20.80
   9  -2   2    5.90   36.50
  -9  -2  -2   54.29   46.20
   9  -2   2   23.20   41.60
  -9  -2  -2  -46.70   38.80
   9   2   2   26.20   40.20
   9   2   2   54.59   40.50
  10  -3  -2  562.04   61.19
 -10  -3   2  469.45   59.39
  10  -3  -2  398.56   54.89
  10   3  -2  367.26   57.39
  10   3  -2  381.26   59.19
   9  -3  -2  189.38   37.70
  -9  -3   2  213.78   48.20
  -9  -3   2  137.79   49.50
  -9  -3   2  146.49   55.19
   9  -3  -2  163.78   42.00
   9   3  -2  170.08   42.10
   9   3  -2  250.77   46.80
  -8  -3   2  532.45   57.29
  -8  -3   2  528.85   54.99
   8  -3  -2  447.66   50.19
   8  -3  -2  478.85   50.79
  -8  -3   2  550.24   67.79
   8   3  -2  442.46   52.19
  -8   3   2  533.45   41.60
   8   3  -2  473.75   60.39
   8   3  -2  478.65   37.70
  -7  -3   2  632.94   56.59
  -7  -3   2  623.54   56.39
   7  -3  -2  592.74   50.49
   7  -3  -2  540.95   46.00
   7  -3  -2  586.44   43.00
  -7  -3   2  581.54   51.19
   7  -3  -2  563.14   45.80
   7   3  -2  583.34   35.60
  -7   3   2  562.34   38.50
   7   3  -2  478.25   52.49
   7   3  -2  618.64   53.19
  -6  -3   2    2.30   25.20
   6  -3  -2   14.20   18.70
   6  -3  -2   10.30   15.80
   6  -3  -2  -28.20   17.60
  -6  -3   2   24.30   26.30
   6  -3  -2    7.60   20.30
  -6  -3   2   21.70   25.90
  -6   3   2   38.90   16.00
  -6   3   2   23.00   15.60
   6   3  -2   -1.40   24.70
  -6   3   2   28.70   13.80
   6   3  -2    2.50   26.30
   6   3  -2   16.40   18.00
  -5  -3   2 1048.50   59.19
   5  -3  -2 1060.29   50.09
   5  -3  -2 1034.30   50.69
   5  -3  -2 1173.28   49.60
   5  -3  -2 1056.49   49.60
  -5  -3   2 1247.58   56.49
  -5  -3   2 1137.99   59.89
   5  -3  -2 1201.78   50.39
  -5  -3   2 1069.59   54.79
  -5  -3   2 1034.60   57.79
   5   3  -2 1083.79   55.99
  -5   3   2 1220.28   46.70
   5   3  -2 1092.29   53.59
  -5   3   2 1135.59   47.10
  -5   3   2 1128.79   39.10
   5   3  -2 1170.68   48.50
   5   3  -2 1072.79   59.29
   5   3  -2 1187.08   55.19
   5   3  -2 1114.69   57.69
   4  -3  -2   20.30   13.60
  -4  -3   2   25.00   18.40
  -4  -3   2   40.00   18.60
   4  -3  -2   41.10   14.20
   4  -3  -2   -5.80   12.80
  -4  -3   2   -1.60   19.80
  -4  -3   2    2.10   20.90
  -4  -3   2   19.60   19.20
   4  -3  -2   23.30    9.80
   4  -3  -2   22.10   13.40
   4   3  -2   30.80   17.90
  -4   3   2   46.70   11.00
   4   3  -2   25.80   20.30
  -4   3   2   20.10   11.70
   4   3  -2   76.59   18.80
  -4   3   2   19.80    7.00
   4   3  -2    0.60   14.80
   4   3  -2   33.50   17.00
   4   3  -2   36.80   20.60
   3  -3  -2  421.56   28.80
  -3  -3   2  471.85   29.90
   3  -3  -2  464.55   24.50
  -3  -3   2  505.55   31.50
   3  -3  -2  474.55   24.80
   3  -3  -2  494.05   18.80
  -3  -3   2  479.95   35.20
  -3  -3   2  474.35   33.20
  -3  -3   2  509.65   31.00
   3   3  -2  487.85   30.70
   3   3  -2  486.95   31.30
  -3   3   2  492.05   23.00
   3   3  -2  496.15   30.20
   3   3  -2  500.35   33.30
   3   3  -2  502.35   38.10
  -3   3   2  502.65   20.60
  -3   3   2  390.96   21.80
  -2  -3   2 1207.28   48.00
   2  -3  -2 1203.48   41.50
  -2  -3   2 1236.28   47.30
   2  -3  -2 1160.78   35.80
   2  -3  -2 1132.09   41.20
   2  -3  -2 1136.39   41.50
  -2  -3   2 1137.09   47.70
   2  -3  -2 1141.49   40.70
  -2  -3   2 1133.89   49.70
  -2  -3   2 1183.38   47.00
   2   3  -2 1184.58   46.60
  -2   3   2 1178.68   40.30
   2   3  -2 1216.68   47.80
   2   3  -2 1253.07   46.80
   2   3  -2 1147.99   45.50
  -2   3   2 1191.08   41.80
   2   3  -2 1198.78   46.70
  -1  -3   2   51.89   13.80
  -1  -3   2   62.39   12.70
   1  -3  -2   48.90    9.90
   1  -3  -2   49.30   10.10
  -1  -3   2   67.89   14.70
   1  -3  -2   53.89   11.10
  -1  -3   2   66.19   14.50
   1  -3  -2   40.70    9.00
   1  -3  -2   63.09   11.20
  -1  -3   2   44.00   13.10
   1   3  -2   58.99   12.30
  -1   3   2   63.69    7.50
  -1   3   2   42.50    8.30
  -1   3   2   73.29   10.40
  -1   3   2   64.39   14.20
   1   3  -2   44.30   12.80
  -1   3   2   49.50    7.60
   1   3  -2   98.29   17.20
  -1   3   2   54.69    8.80
   1   3  -2   63.29   12.00
   0  -3  -2 2546.55   82.09
   0  -3  -2 2505.35   81.59
   0  -3  -2 2543.05   81.49
   0  -3   2 2623.74   79.19
   0  -3   2 2476.55   78.79
   0  -3  -2 2629.14   80.79
   0  -3  -2 2619.34   81.19
   0  -3   2 2498.45   79.19
   0  -3   2 2455.95   79.29
   0   3  -2 2452.65   75.99
   0   3   2 2648.73   80.19
   0   3   2 2622.74   84.39
   0   3  -2 2600.24   84.49
   0   3  -2 2486.65   75.89
   0   3  -2 2450.45   78.29
   0   3  -2 2612.94   78.49
   0   3   2 2472.75   79.29
   0   3   2 2551.44   80.99
   0   3   2 2389.36   83.79
   0   3   2 2568.64   80.69
  -1  -3  -2 1354.76   54.19
  -1  -3  -2 1397.36   53.69
   1  -3   2 1309.47   46.60
   1  -3   2 1384.36   46.60
   1  -3   2 1392.66   46.10
   1  -3   2 1417.16   46.20
  -1  -3  -2 1366.46   52.89
  -1  -3  -2 1410.56   51.29
   1   3   2 1475.75   54.29
   1   3   2 1468.05   52.49
  -1   3  -2 1410.16   45.30
   1   3   2 1447.86   52.39
   1   3   2 1428.96   51.09
  -1   3  -2 1413.26   53.39
   1   3   2 1366.36   57.09
   1   3   2 1423.46   51.79
   2  -3   2 4295.37  131.29
  -2  -3  -2 4221.38  139.39
  -2  -3  -2 4397.16  137.99
  -2  -3  -2 4544.95  137.69
   2  -3   2 4251.87  131.79
   2  -3   2 4474.55  132.09
  -2  -3  -2 4211.58  138.69
   2  -3   2 4392.46  131.29
   2   3   2 4451.35  139.09
   2   3   2 4234.98  137.39
   2   3   2 4298.87  137.69
   2   3   2 4336.77  138.89
   2   3   2 4128.59  137.79
   2   3   2 4505.25  138.69
  -2   3  -2 4332.77  130.29
  -3  -3  -2    6.80   19.90
   3  -3   2   16.50   11.50
   3  -3   2   25.10   12.00
  -3  -3  -2   12.00   21.70
  -3  -3  -2    2.40   15.20
  -3  -3  -2   27.20   16.00
   3  -3   2    9.80   12.30
  -3  -3  -2   18.40   18.20
   3   3   2   18.20   16.70
   3   3   2   20.60   14.70
   3   3   2   12.90   19.10
  -3   3  -2    5.90    8.20
   3   3   2    5.90   17.30
  -3   3  -2    8.10    9.70
   3   3   2   40.00   18.00
   3   3   2   30.80   17.10
   4  -3   2 2141.89   74.69
  -4  -3  -2 2103.19   79.69
  -4  -3  -2 2135.19   80.39
   4  -3   2 2153.08   79.99
  -4  -3  -2 1997.40   85.69
  -4  -3  -2 2104.39   83.59
   4  -3   2 2072.89   73.79
  -4  -3  -2 2019.00   83.19
   4  -3   2 1961.10   73.99
   4  -3   2 2080.79   73.99
   4   3   2 2169.98   81.29
  -4   3  -2 2117.99   71.49
   4   3   2 1966.90   82.09
   4   3   2 2104.99   80.89
   4   3   2 1939.91   80.59
   4   3   2 2163.98   83.69
  -4   3  -2 2065.89   62.09
   4   3   2 2054.39   78.49
  -4   3  -2 2033.80   71.09
   5  -3   2  524.45   37.30
  -5  -3  -2  485.55   46.70
   5  -3   2  538.75   39.40
   5  -3   2  564.84   39.70
   5  -3   2  561.24   36.90
  -5  -3  -2  505.65   47.00
  -5  -3  -2  501.85   50.89
   5  -3   2  588.54   44.00
   5   3   2  527.75   45.80
   5   3   2  559.54   47.50
  -5   3  -2  467.15   33.00
  -5   3  -2  562.94   22.40
   5   3   2  566.94   39.90
  -5   3  -2  570.34   33.60
  -6  -3  -2  511.75   56.19
   6  -3   2  570.34   43.60
  -6  -3  -2  583.04   52.79
   6  -3   2  575.74   41.70
   6  -3   2  610.94   44.50
  -6  -3  -2  545.85   52.29
   6   3   2  628.54   53.49
  -6   3  -2  544.65   28.50
  -6   3  -2  544.55   36.90
   6   3   2  539.65   42.70
   6   3   2  614.74   52.49
   7  -3   2  701.53   50.19
  -7  -3  -2  614.04   65.19
  -7  -3  -2  569.24   64.89
   7  -3   2  550.74   50.29
  -7  -3  -2  695.23   58.69
   7   3   2  593.24   58.69
  -7   3  -2  605.74   42.70
   7   3   2  606.14   46.70
   7   3   2  569.74   59.49
   8  -3   2   63.09   30.80
  -8  -3  -2   37.00   42.20
  -8  -3  -2  -30.40   32.70
   8   3   2   30.30   42.50
   8   3   2   37.90   23.70
  -9  -3  -2  700.73   75.09
   9  -3   2  680.03   69.19
  -9  -3  -2  654.83   71.39
   9   3   2  627.14   76.29
   9   3   2  746.13   73.59
   9  -4  -2  -15.70   33.20
   9  -4  -2  -19.40   27.70
  -9  -4   2   15.60   43.50
  -9  -4   2   75.29   40.30
   9   4  -2   25.70   40.30
   9   4  -2   78.69   41.20
   8  -4  -2 1394.66   72.59
  -8  -4   2 1375.36   82.39
   8  -4  -2 1327.87   69.69
  -8  -4   2 1333.07   86.89
  -8  -4   2 1386.06   82.69
   8   4  -2 1211.08   82.39
   8   4  -2 1357.56   83.69
  -7  -4   2   20.00   29.50
   7  -4  -2  -15.80   24.40
  -7  -4   2   -8.40   26.80
  -7  -4   2  -12.00   31.20
   7  -4  -2   39.00   21.50
   7  -4  -2   62.79   22.10
   7  -4  -2   -0.70   19.90
   7   4  -2   15.70   30.70
  -7   4   2    0.20   16.90
   7   4  -2  -11.70   17.70
   7   4  -2   19.20   29.20
   6  -4  -2 3678.03  122.19
  -6  -4   2 3466.95  134.19
  -6  -4   2 3598.04  134.39
   6  -4  -2 3635.24  122.89
  -6  -4   2 3621.54  134.39
   6  -4  -2 3538.15  115.99
   6  -4  -2 3550.84  122.39
   6   4  -2 3511.05  131.49
   6   4  -2 3582.64  120.39
   6   4  -2 3610.74  132.89
  -6   4   2 3813.52  123.69
   5  -4  -2   -8.40   13.00
  -5  -4   2   17.10   25.40
  -5  -4   2   -3.20   23.50
   5  -4  -2   23.30   15.40
   5  -4  -2   18.50   15.30
   5  -4  -2    1.20   22.70
  -5  -4   2  -15.90   22.30
   5  -4  -2   -0.70   10.20
  -5  -4   2   -9.00   22.80
   5   4  -2    2.60   22.70
   5   4  -2   23.30   23.10
   5   4  -2   41.70   22.20
   5   4  -2    7.20   18.20
   5   4  -2  -11.80   22.10
  -5   4   2    1.30   10.50
   4  -4  -2 4238.18  135.09
   4  -4  -2 4358.36  131.19
  -4  -4   2 4299.47  146.69
   4  -4  -2 4505.55  135.99
  -4  -4   2 4263.67  145.49
  -4  -4   2 4383.36  144.69
  -4  -4   2 4371.06  144.19
   4  -4  -2 4132.89  135.09
   4  -4  -2 4169.78  135.39
  -4  -4   2 4352.26  145.59
   4   4  -2 4304.77  142.49
   4   4  -2 4433.66  144.99
   4   4  -2 4281.47  140.09
   4   4  -2 4478.65  145.59
   4   4  -2 4200.48  143.59
  -4   4   2 4279.27  132.49
   4   4  -2 4434.26  144.29
  -4   4   2 4513.85  131.79
  -4   4   2 4510.95  130.69
  -3  -4   2   -6.20   15.40
   3  -4  -2   16.70   12.20
   3  -4  -2    3.10    9.80
  -3  -4   2   17.10   16.00
  -3  -4   2  -13.80   16.00
  -3  -4   2    8.70   15.30
   3  -4  -2    7.40   10.20
   3  -4  -2   12.40    9.20
   3   4  -2    0.00   14.00
   3   4  -2   27.40   16.30
   3   4  -2    8.20   16.90
   3   4  -2   33.30   17.10
  -3   4   2   14.60    6.50
   3   4  -2   17.40   17.00
   3   4  -2   -2.90   13.90
  -3   4   2   19.40    7.40
  -3   4   2  -18.90    9.50
   2  -4  -2 4287.17  132.79
   2  -4  -2 4291.87  132.69
  -2  -4   2 4383.76  142.69
   2  -4  -2 4411.26  132.49
  -2  -4   2 4653.23  139.59
   2  -4  -2 4376.66  131.09
  -2  -4   2 4358.06  139.29
  -2  -4   2 4660.23  139.79
   2  -4  -2 4471.05  132.19
  -2  -4   2 4062.29  138.99
  -2   4   2 4480.25  130.79
   2   4  -2 4364.16  140.49
   2   4  -2 4376.56  138.69
   2   4  -2 4382.56  138.89
   2   4  -2 4534.85  137.29
  -2   4   2 4351.86  130.49
  -2   4   2 4539.05  136.39
   2   4  -2 4528.45  138.39
  -1  -4   2  174.08   18.20
   1  -4  -2  146.29   16.30
  -1  -4   2  165.38   20.00
   1  -4  -2  167.78   16.20
  -1  -4   2  148.59   16.30
   1  -4  -2  153.28   14.50
   1  -4  -2  165.98   15.60
  -1  -4   2  179.38   20.20
   1  -4  -2  186.88   17.40
  -1   4   2  148.19   16.90
   1   4  -2  163.78   16.00
   1   4  -2  133.29   16.40
   1   4  -2  160.48   22.20
  -1   4   2  172.48   20.60
   1   4  -2  173.08   17.00
   1   4  -2  159.68   19.00
   0  -4  -2  235.18   21.60
   0  -4   2  224.28   17.60
   0  -4   2  233.18   17.20
   0  -4   2  256.37   17.20
   0  -4   2  214.98   16.70
   0  -4  -2  195.48   21.10
   0  -4  -2  258.17   22.40
   0  -4  -2  249.97   20.60
   0   4   2  248.18   18.90
   0   4  -2  243.08   21.80
   0   4   2  245.88   16.60
   0   4  -2  253.17   27.00
   0   4   2  243.28   17.30
   0   4   2  294.67   27.60
   0   4   2  264.17   19.30
   0   4   2  249.68   21.60
  -1  -4  -2  401.66   28.50
  -1  -4  -2  452.35   29.20
   1  -4   2  418.56   20.20
   1  -4   2  437.76   19.90
  -1  -4  -2  475.55   31.60
   1  -4   2  435.06   19.20
  -1  -4  -2  470.55   26.50
   1   4   2  433.86   28.60
   1   4   2  426.36   27.00
   1   4   2  380.16   24.50
   1   4   2  427.56   26.40
   1   4   2  445.36   26.90
  -1   4  -2  450.55   16.70
   1   4   2  410.46   32.60
  -1   4  -2  417.66   31.00
   2  -4   2  547.65   24.00
   2  -4   2  535.35   24.00
  -2  -4  -2  540.55   33.00
  -2  -4  -2  493.25   35.50
   2  -4   2  546.45   23.90
  -2  -4  -2  576.24   31.70
   2  -4   2  534.75   23.40
  -2  -4  -2  518.15   34.80
  -2   4  -2  520.25   20.10
   2   4   2  539.75   33.30
   2   4   2  559.14   40.80
   2   4   2  522.75   35.80
  -2   4  -2  529.25   34.70
   2   4   2  588.44   35.80
   2   4   2  582.64   34.40
  -2   4  -2  547.85   19.30
   2   4   2  529.85   32.00
   3  -4   2   55.19   12.60
   3  -4   2   61.99   12.70
   3  -4   2   61.29   12.90
  -3  -4  -2   68.79   17.50
  -3  -4  -2   61.69   18.70
  -3  -4  -2   58.89   22.30
  -3  -4  -2   41.90   22.00
  -3  -4  -2   96.29   24.50
   3  -4   2   43.70   15.20
   3   4   2   72.79   20.00
   3   4   2   73.49   20.40
   3   4   2   58.59   21.70
  -3   4  -2   74.89    9.00
   3   4   2   50.29   21.00
  -3   4  -2   67.09    8.70
   3   4   2   47.70   18.90
   3   4   2   76.79   19.80
  -4  -4  -2 1352.86   65.79
  -4  -4  -2 1304.97   67.49
  -4  -4  -2 1208.68   60.09
   4  -4   2 1367.76   53.29
   4  -4   2 1298.97   52.69
   4  -4   2 1434.36   54.49
  -4  -4  -2 1335.67   65.09
   4  -4   2 1324.37   52.39
  -4  -4  -2 1404.06   62.79
   4   4   2 1320.67   60.99
  -4   4  -2 1298.87   49.20
   4   4   2 1393.26   62.59
   4   4   2 1317.07   61.79
   4   4   2 1290.37   63.89
   4   4   2 1538.85   76.29
   4   4   2 1266.27   61.89
  -4   4  -2 1364.56   47.40
  -5  -4  -2  102.79   32.90
  -5  -4  -2  103.89   29.20
   5  -4   2   70.19   18.60
   5  -4   2   58.09   24.80
   5  -4   2   96.29   21.90
  -5  -4  -2   97.69   29.60
   5  -4   2   91.19   20.00
  -5   4  -2   89.29   15.70
   5   4   2  100.49   25.60
   5   4   2   88.69   29.00
   5   4   2  108.49   29.50
   6  -4   2 1050.89   55.09
  -6  -4  -2 1112.89   67.99
   6  -4   2 1210.78   57.79
  -6  -4  -2 1174.48   74.29
  -6  -4  -2 1223.78   69.89
   6   4   2 1074.89   67.49
   6   4   2 1063.29   65.19
   6   4   2 1076.09   60.49
  -7  -4  -2   -8.80   30.30
  -7  -4  -2   -9.20   36.20
  -7  -4  -2  -35.60   34.30
   7  -4   2  -13.30   24.90
   7  -4   2   -8.80   24.60
  -7   4  -2   13.90   20.30
   7   4   2   44.30   35.90
   7   4   2  -10.50   22.60
   7   4   2   27.70   35.80
   8  -4   2  986.10   65.19
  -8  -4  -2 1058.29   82.59
  -8  -4  -2 1055.69   87.19
   8   4   2 1252.17   80.69
   8   4   2 1092.99   62.19
  -9  -4  -2    3.80   45.40
   9  -4   2   21.20   35.40
  -9  -4  -2  -29.60   50.09
   9   4   2  -74.09   43.10
   9   4   2  -80.19   32.30
   9   4   2  -33.20   42.00
  -9  -5   2  355.46   60.69
   9  -5  -2  357.96   45.90
   9  -5  -2  373.46   45.40
  -9  -5   2  404.76   56.79
  -9  -5   2  379.76   57.59
   9   5  -2  409.96   57.49
   9   5  -2  342.77   54.59
   8  -5  -2  207.78   35.60
  -8  -5   2  216.98   48.20
  -8  -5   2  195.28   50.19
   8  -5  -2  219.88   33.00
  -8  -5   2  213.48   45.90
   8   5  -2  269.27   74.39
   8   5  -2  198.48   28.50
   8   5  -2  206.98   47.20
   7  -5  -2 1000.10   52.39
   7  -5  -2 1038.00   52.89
  -7  -5   2  918.11   66.79
  -7  -5   2  957.60   67.29
   7  -5  -2  940.31   52.29
  -7  -5   2  883.41   70.09
   7   5  -2 1012.40   65.19
   7   5  -2  907.51   51.79
   7   5  -2 1015.10   67.59
  -6  -5   2   14.30   26.50
   6  -5  -2   40.80   17.20
   6  -5  -2   33.80   15.20
   6  -5  -2   11.60   17.20
  -6  -5   2  -18.40   28.60
  -6  -5   2   15.20   29.10
   6  -5  -2   51.99   19.10
  -6   5   2   31.90   10.80
   6   5  -2   63.29   22.00
   6   5  -2    8.10   27.60
   6   5  -2   -1.60   27.00
  -6   5   2   12.60   12.30
   5  -5  -2 2086.59   68.49
  -5  -5   2 1995.00   87.59
  -5  -5   2 2085.69   86.99
   5  -5  -2 1943.41   72.39
  -5  -5   2 1931.91   89.19
   5  -5  -2 2054.29   72.69
  -5  -5   2 1938.01   87.99
   5  -5  -2 2006.10   73.59
   5  -5  -2 2048.20   72.39
  -5   5   2 1994.70   63.89
  -5   5   2 2070.69   64.39
   5   5  -2 2039.00   86.09
   5   5  -2 2180.98   92.19
   5   5  -2 2178.68   81.19
   5   5  -2 1974.00   84.29
   4  -5  -2   22.20   11.70
  -4  -5   2   31.60   22.80
   4  -5  -2    8.20   11.70
   4  -5  -2   20.70   12.30
  -4  -5   2   15.90   20.60
  -4  -5   2   27.00   22.00
  -4  -5   2   45.10   25.40
   4  -5  -2   26.10   10.70
  -4  -5   2    2.30   20.90
   4  -5  -2   20.80    9.50
   4   5  -2   11.80   19.90
   4   5  -2   42.60   22.80
   4   5  -2   34.50   20.80
   4   5  -2   22.20   19.20
   4   5  -2   -7.10   18.20
   4   5  -2   -5.10   16.70
  -4   5   2   37.90   12.60
   3  -5  -2  913.71   35.40
  -3  -5   2  917.91   52.49
  -3  -5   2  872.11   46.30
   3  -5  -2  926.71   35.40
  -3  -5   2  961.70   46.00
   3  -5  -2  868.91   44.30
  -3  -5   2  926.01   48.40
   3  -5  -2  965.80   35.70
   3  -5  -2  943.41   34.10
  -3  -5   2  937.31   48.60
   3   5  -2  970.90   47.30
   3   5  -2  966.50   44.50
   3   5  -2  969.30   46.90
   3   5  -2  931.71   45.00
  -3   5   2  838.72   43.60
   3   5  -2 1022.40   44.20
   3   5  -2  968.80   46.40
   2  -5  -2  166.28   14.20
  -2  -5   2  131.29   24.60
  -2  -5   2  139.79   20.70
   2  -5  -2  174.58   16.70
   2  -5  -2  158.38   13.00
  -2  -5   2  128.29   22.30
  -2  -5   2  144.39   19.00
   2  -5  -2  150.98   15.90
   2  -5  -2  153.08   14.50
  -2  -5   2  178.88   19.70
   2   5  -2  149.19   18.80
  -2   5   2  162.28   20.10
   2   5  -2  150.08   16.50
   2   5  -2  167.08   21.10
   2   5  -2  155.28   23.40
  -1  -5   2  826.32   37.50
   1  -5  -2  873.81   33.90
  -1  -5   2  877.11   36.60
  -1  -5   2  874.71   35.90
  -1  -5   2  859.61   37.10
   1  -5  -2  846.52   35.90
  -1  -5   2  799.52   50.99
   1  -5  -2  889.81   33.20
   1  -5  -2  825.62   36.00
   1  -5  -2  859.91   32.40
   1   5  -2  806.92   35.10
  -1   5   2  877.81   30.60
   1   5  -2  841.92   31.30
   1   5  -2  883.11   31.20
   1   5  -2  841.72   34.50
  -1   5   2  842.22   41.80
   1   5  -2  850.71   43.40
  -1   5   2  855.31   29.90
   0  -5  -2  644.74   31.70
   0  -5  -2  669.13   35.20
   0  -5   2  666.93   28.10
   0  -5  -2  691.73   30.00
   0  -5   2  673.83   28.50
   0  -5   2  616.04   33.90
   0  -5   2  656.63   27.90
   0  -5  -2  662.33   31.40
   0  -5  -2  669.03   32.50
   0   5   2  686.93   32.40
   0   5  -2  681.93   25.20
   0   5  -2  677.63   38.40
   0   5   2  648.74   28.90
   0   5   2  688.03   24.40
   0   5   2  624.54   38.30
   0   5   2  700.83   29.60
   0   5   2  695.83   29.90
   0   5  -2  662.63   25.50
   1  -5   2  661.83   24.40
  -1  -5  -2  588.24   34.30
  -1  -5  -2  669.93   33.70
   1  -5   2  615.34   25.00
  -1  -5  -2  628.84   38.20
  -1  -5  -2  595.84   35.40
   1  -5   2  629.64   24.30
   1  -5   2  633.84   25.20
  -1  -5  -2  696.53   33.70
   1   5   2  662.93   35.10
   1   5   2  679.33   31.00
   1   5   2  621.94   39.50
  -1   5  -2  575.84   37.30
   1   5   2  650.83   32.00
   1   5   2  629.64   32.90
   1   5   2  628.34   30.10
  -2  -5  -2 1384.46   63.29
   2  -5   2 1424.76   46.30
  -2  -5  -2 1340.77   55.69
  -2  -5  -2 1321.37   58.99
   2  -5   2 1454.25   46.10
  -2  -5  -2 1465.95   57.69
   2  -5   2 1351.66   46.50
   2   5   2 1460.55   57.39
   2   5   2 1346.87   60.69
   2   5   2 1330.47   55.59
   2   5   2 1403.96   57.39
   2   5   2 1385.56   59.39
  -2   5  -2 1476.75   58.49
   2   5   2 1425.96   56.39
   3  -5   2   13.00    9.30
  -3  -5  -2   -9.90   21.20
  -3  -5  -2    3.60   20.60
  -3  -5  -2   21.80   19.30
   3  -5   2   -5.60    9.30
  -3  -5  -2   12.50   17.30
   3  -5   2    9.50   10.00
   3  -5   2    4.50   10.60
  -3  -5  -2   14.50   17.90
   3   5   2   -4.60   19.50
   3   5   2   26.80   18.30
   3   5   2   33.00   20.40
   3   5   2   37.80   19.20
   3   5   2    8.70   19.40
   3   5   2   26.00   19.00
  -4  -5  -2  745.43   55.09
  -4  -5  -2  792.22   50.79
  -4  -5  -2  673.23   52.19
   4  -5   2  763.42   35.80
   4  -5   2  806.52   36.70
   4  -5   2  854.51   37.90
  -4  -5  -2  676.43   49.10
   4  -5   2  746.63   35.10
   4   5   2  785.62   47.50
   4   5   2  775.32   51.49
   4   5   2  740.53   48.20
   4   5   2  800.42   49.99
   5  -5   2  743.73   38.70
  -5  -5  -2  700.63   57.79
   5  -5   2  727.83   40.60
   5  -5   2  764.92   40.00
  -5  -5  -2  798.72   57.09
   5  -5   2  720.03   44.90
  -5  -5  -2  763.72   56.39
   5   5   2  753.02   52.59
   5   5   2  685.33   54.19
   5   5   2  790.42   49.90
  -5   5  -2  725.83   29.00
  -5   5  -2  756.42   28.80
  -6  -5  -2  299.17   42.20
  -6  -5  -2  392.46   48.30
  -6  -5  -2  353.26   42.20
   6  -5   2  297.47   34.30
   6  -5   2  363.26   36.80
   6  -5   2  339.37   34.80
   6   5   2  276.07   40.90
   6   5   2  258.27   40.80
   6   5   2  304.67   37.70
  -6   5  -2  303.67   22.60
   7  -5   2 1300.47   66.59
  -7  -5  -2 1251.67   92.59
  -7  -5  -2 1268.57   89.39
  -7  -5  -2 1424.66   83.59
   7  -5   2 1334.47   65.49
   7   5   2 1271.57   82.19
   7   5   2 1336.77   81.99
   7   5   2 1319.07   67.89
  -8  -5  -2  -40.90   42.90
  -8  -5  -2  -34.20   42.00
   8  -5   2   42.80   33.60
   8  -5   2  125.99   29.80
  -8  -5  -2  -37.70   42.70
   8   5   2   19.60   39.20
   8   5   2   76.89   48.40
   8   5   2  -24.40   29.50
  -9  -6   2 1045.20   88.59
  -9  -6   2  956.00   86.79
  -9  -6   2  778.02   83.89
   9  -6  -2  922.61   73.69
   9   6  -2 1068.59   84.89
   9   6  -2  709.03   83.19
   8  -6  -2   72.99   28.50
  -8  -6   2  110.59   45.40
  -8  -6   2  151.08   46.90
   8  -6  -2   68.39   28.90
   8   6  -2   91.19   27.00
   8   6  -2  119.79   46.60
   8   6  -2   74.79   45.10
  -7  -6   2  717.93   66.59
  -7  -6   2  610.94   66.49
   7  -6  -2  650.13   42.40
   7  -6  -2  748.03   45.00
  -7  -6   2  670.93   69.59
   7   6  -2  593.44   58.19
   7   6  -2  687.43   50.09
   7   6  -2  716.33   68.49
   6  -6  -2  141.29   19.70
  -6  -6   2  153.68   35.80
  -6  -6   2  186.98   37.90
  -6  -6   2  106.99   35.80
   6  -6  -2  165.38   25.90
   6  -6  -2  154.08   21.70
   6   6  -2  222.48   32.20
   6   6  -2  158.88   35.50
   6   6  -2  173.88   34.70
  -5  -6   2   10.10   27.40
  -5  -6   2  -28.60   25.60
   5  -6  -2   14.00   13.20
   5  -6  -2    5.20   16.50
   5  -6  -2    5.60   11.00
   5  -6  -2    8.60   13.30
  -5  -6   2    4.90   27.00
   5  -6  -2   -1.30   11.30
   5   6  -2    8.40   24.10
   5   6  -2  -19.20   23.40
   5   6  -2   -3.20   21.30
  -5   6   2    8.80   16.00
  -4  -6   2  218.28   29.10
  -4  -6   2  228.68   31.50
   4  -6  -2  207.38   20.10
  -4  -6   2  206.88   32.30
   4  -6  -2  243.18   19.00
  -4  -6   2  181.88   30.20
   4  -6  -2  220.38   20.20
   4   6  -2  262.07   30.10
   4   6  -2  168.08   26.80
   4   6  -2  221.28   28.30
   4   6  -2  235.78   30.50
  -4   6   2  253.87   26.20
  -3  -6   2 1180.38   54.79
   3  -6  -2 1221.68   42.90
  -3  -6   2 1251.37   56.39
   3  -6  -2 1285.67   43.10
  -3  -6   2 1137.39   61.89
  -3  -6   2 1197.18   57.49
  -3  -6   2 1192.98   57.29
   3  -6  -2 1275.77   42.80
   3  -6  -2 1226.78   44.70
   3   6  -2 1293.37   51.49
   3   6  -2 1147.19   51.79
   3   6  -2 1189.68   52.19
   3   6  -2 1208.68   53.99
  -3   6   2 1277.77   52.19
   3   6  -2 1276.47   58.99
   2  -6  -2   58.09   14.00
   2  -6  -2   52.69   10.40
  -2  -6   2   64.19   17.30
  -2  -6   2   44.70   18.10
   2  -6  -2   61.69    9.70
  -2  -6   2   52.99   16.20
  -2  -6   2   48.80   17.50
   2  -6  -2   46.60    9.60
  -2  -6   2   52.49   18.50
   2  -6  -2   65.39   13.20
   2   6  -2   77.29   16.50
   2   6  -2   70.09   13.60
   2   6  -2   52.59   22.70
   2   6  -2   55.79   14.80
  -2   6   2   57.29   18.50
  -1  -6   2 2792.82   92.69
   1  -6  -2 2766.72   89.49
  -1  -6   2 2887.01   92.89
   1  -6  -2 2777.52   88.09
   1  -6  -2 2735.73   92.59
  -1  -6   2 2772.62   99.49
   1  -6  -2 2862.11   89.19
  -1  -6   2 2818.92   93.59
  -1  -6   2 2793.12   92.19
   1  -6  -2 2733.03   89.09
   1   6  -2 2733.03  100.29
  -1   6   2 2870.01   84.29
   1   6  -2 2867.91   90.39
  -1   6   2 2806.92   83.89
   1   6  -2 2880.81   89.69
  -1   6   2 2777.92   98.39
   0  -6  -2    2.20   13.00
   0  -6   2   10.50    9.90
   0  -6   2   13.60   10.10
   0  -6  -2    9.40   13.30
   0  -6   2   30.20   10.60
   0  -6  -2   23.10   16.20
   0  -6   2   12.90   11.00
   0  -6  -2   30.60   12.50
   0   6  -2   30.30   20.10
   0   6   2   21.20    8.90
   0   6   2   10.80    9.90
   0   6   2    5.00   17.50
   0   6   2   14.90   13.80
   0   6  -2    6.60    5.80
   0   6  -2   17.50    6.70
   1  -6   2 3883.91  118.09
   1  -6   2 3889.41  117.59
   1  -6   2 4021.60  117.89
  -1  -6  -2 3677.03  126.59
  -1  -6  -2 3939.91  126.29
   1  -6   2 3627.84  118.49
  -1  -6  -2 3931.11  125.69
  -1  -6  -2 3875.11  131.39
   1   6   2 4016.30  124.99
   1   6   2 3913.51  132.99
   1   6   2 4063.59  129.19
   1   6   2 3933.31  124.69
   1   6   2 4051.99  121.39
   1   6   2 3915.21  120.79
  -1   6  -2 3954.30  131.39
   2  -6   2    7.80    7.20
  -2  -6  -2   35.50   19.70
   2  -6   2   12.10    7.60
  -2  -6  -2   40.00   16.20
  -2  -6  -2    0.20   15.70
   2  -6   2   12.20    7.30
  -2  -6  -2   -8.00   21.80
   2  -6   2    7.60    6.90
  -2  -6  -2  -12.30   19.20
   2   6   2   -0.10   15.00
   2   6   2   29.30   16.00
   2   6   2   14.80   14.80
   2   6   2    1.80   15.80
   2   6   2  -13.40   20.90
   2   6   2   -4.80   16.10
  -2   6  -2   -0.30   19.10
  -3  -6  -2 2364.36   93.89
   3  -6   2 2368.76   77.39
   3  -6   2 2508.25   77.89
  -3  -6  -2 2467.05   98.09
   3  -6   2 2366.06   77.19
  -3  -6  -2 2648.44   93.19
   3  -6   2 2422.96   77.09
  -3  -6  -2 2396.16   94.39
   3   6   2 2588.24   93.69
   3   6   2 2464.25   88.59
   3   6   2 2433.76   94.89
  -3   6  -2 2300.57   88.59
   3   6   2 2352.96   90.09
   4  -6   2   11.80   15.00
  -4  -6  -2   -6.20   24.80
  -4  -6  -2   -8.50   24.10
   4  -6   2   14.40   11.80
   4  -6   2   -0.90   11.40
  -4  -6  -2  -24.40   26.20
   4  -6   2  -19.90   11.00
   4   6   2   -5.20   22.40
   4   6   2    3.70   23.30
   4   6   2   36.80   23.20
   4   6   2   57.89   24.80
   5  -6   2 1025.20   44.70
  -5  -6  -2  958.40   67.69
  -5  -6  -2  994.20   63.19
  -5  -6  -2  962.80   65.29
   5  -6   2  988.90   44.40
   5  -6   2  964.70   49.70
   5  -6   2  910.91   50.19
   5   6   2 1033.20   62.79
   5   6   2 1001.90   63.39
   5   6   2 1066.79   61.99
   6  -6   2  135.59   23.00
   6  -6   2  174.28   24.20
   6  -6   2  199.18   25.50
  -6  -6  -2  213.98   40.80
  -6  -6  -2  161.78   36.60
  -6  -6  -2  191.88   41.70
   6   6   2  237.88   40.50
   6   6   2  157.98   37.20
   6   6   2  207.98   36.20
   7  -6   2   82.69   25.30
  -7  -6  -2   67.89   69.19
  -7  -6  -2  104.49   47.10
   7  -6   2   34.60   23.30
  -7  -6  -2   94.89   50.89
   7   6   2   57.29   32.50
   7   6   2   44.40   36.20
   7   6   2   37.90   43.70
   8  -6   2  201.68   36.60
   8  -6   2  170.48   30.70
  -8  -6  -2  174.88   50.29
  -8  -6  -2  163.48   48.10
  -8  -6  -2  101.69   50.79
   8   6   2  231.88   50.89
   8   6   2  164.58   46.30
   8   6   2   67.29   32.70
  -9  -7   2  110.79   49.20
  -8  -7   2  235.78   50.19
  -8  -7   2  276.27   53.89
  -8  -7   2  312.77   53.99
   8  -7  -2  309.47   37.90
   8   7  -2  283.77   49.30
   8   7  -2  214.88   51.99
   8   7  -2  349.77   41.20
  -7  -7   2  158.58   43.90
   7  -7  -2   96.89   20.80
   7  -7  -2  128.49   24.50
  -7  -7   2  183.28   46.70
  -7  -7   2  116.99   48.00
   7   7  -2  155.38   34.10
   7   7  -2  147.49   35.60
   7   7  -2  189.78   43.90
  -6  -7   2   49.80   33.20
   6  -7  -2    6.60   14.70
   6  -7  -2   24.90   14.80
  -6  -7   2  -21.60   31.20
   6  -7  -2   43.10   17.90
  -6  -7   2   39.00   36.40
   6   7  -2  -15.70   27.50
   6   7  -2  -18.50   26.00
   6   7  -2   -2.80   24.80
  -5  -7   2  272.27   41.80
   5  -7  -2  257.07   21.30
   5  -7  -2  249.68   23.80
   5  -7  -2  267.07   22.30
  -5  -7   2  187.88   35.70
   5  -7  -2  237.08   20.80
  -5  -7   2  195.88   36.20
   5  -7  -2  235.38   28.40
  -5   7   2  252.07   30.60
   5   7  -2  253.17   36.30
   5   7  -2  235.38   33.40
   5   7  -2  251.47   34.90
   4  -7  -2  288.97   20.10
   4  -7  -2  325.07   22.60
   4  -7  -2  303.77   19.50
  -4  -7   2  272.97   36.50
  -4  -7   2  288.57   36.70
   4  -7  -2  339.07   23.00
  -4  -7   2  319.37   36.60
  -4  -7   2  296.97   38.30
  -4   7   2  333.47   31.40
   4   7  -2  398.26   32.80
   4   7  -2  300.07   36.70
   4   7  -2  315.87   37.50
   4   7  -2  334.97   37.50
   3  -7  -2  139.59   15.00
   3  -7  -2  180.88   17.00
  -3  -7   2  209.28   26.50
  -3  -7   2  177.88   27.50
   3  -7  -2  154.08   15.10
  -3  -7   2  174.88   32.20
   3  -7  -2  160.78   14.80
   3  -7  -2  170.98   19.80
  -3  -7   2  174.78   27.30
  -3   7   2  181.08   24.20
   3   7  -2  158.88   21.00
   3   7  -2  199.68   24.50
   3   7  -2  161.98   22.30
   3   7  -2  181.08   30.80
  -2  -7   2  475.55   32.70
  -2  -7   2  466.15   31.70
   2  -7  -2  440.66   28.70
  -2  -7   2  407.76   33.30
   2  -7  -2  440.56   21.90
   2  -7  -2  447.76   22.40
  -2  -7   2  425.66   37.20
   2  -7  -2  411.46   22.30
   2  -7  -2  437.46   21.50
   2   7  -2  468.75   29.80
   2   7  -2  437.46   39.80
   2   7  -2  457.95   24.00
   2   7  -2  469.05   30.70
  -2   7   2  391.86   35.60
   2   7  -2  361.26   31.20
   1  -7  -2  310.97   20.70
   1  -7  -2  386.86   24.20
  -1  -7   2  338.97   28.30
  -1  -7   2  321.17   26.90
   1  -7  -2  358.46   29.70
  -1  -7   2  331.37   27.70
  -1  -7   2  319.47   24.70
   1  -7  -2  310.47   22.40
  -1  -7   2  340.47   38.30
  -1   7   2  290.27   33.90
   1   7  -2  356.26   37.90
   1   7  -2  323.77   21.20
   0  -7   2  955.80   38.80
   0  -7  -2 1004.90   50.39
   0  -7   2  952.20   52.09
   0  -7  -2  961.70   43.10
   0  -7   2  948.31   39.20
   0  -7  -2  904.91   42.60
   0  -7  -2  954.20   41.10
   0  -7   2  953.70   38.20
   0  -7   2 1017.00   40.50
   0  -7  -2  977.00   42.20
   0   7  -2 1055.69   53.79
   0   7   2  931.31   52.49
   0   7  -2 1018.10   29.90
   0   7   2  948.91   37.50
  -1  -7  -2   63.29   16.80
  -1  -7  -2   46.90   16.70
   1  -7   2   56.79    9.40
   1  -7   2   63.79   11.70
   1  -7   2   56.29    9.90
  -1  -7  -2   45.10   19.50
  -1  -7  -2   61.99   18.60
  -1  -7  -2   80.49   24.20
   1   7   2   48.70   24.70
   1   7   2   27.60   15.20
  -1   7  -2   53.49   23.30
   1   7   2   60.29   14.70
   1   7   2   60.69   10.20
   1   7   2   55.69   10.50
   1   7   2   62.19   18.30
   2  -7   2 2198.48   67.49
   2  -7   2 2152.88   66.29
  -2  -7  -2 2116.79   80.49
  -2  -7  -2 2041.70   87.89
  -2  -7  -2 2116.39   83.79
  -2  -7  -2 2006.80   82.89
  -2  -7  -2 2229.48   83.09
   2  -7   2 2173.38   67.09
   2   7   2 2151.98   76.29
   2   7   2 2283.67   80.09
   2   7   2 2067.89   87.79
   2   7   2 2139.89   84.29
  -2   7  -2 2199.78   84.99
   2   7   2 2124.39   90.29
  -3  -7  -2  -46.60   18.60
  -3  -7  -2  -38.10   21.10
   3  -7   2   -3.30    8.60
  -3  -7  -2    1.40   22.00
   3  -7   2    8.50    7.70
   3  -7   2    0.60    9.60
  -3  -7  -2   40.60   23.80
   3  -7   2    9.10    7.00
   3   7   2  -15.70   24.00
   3   7   2   32.80   18.90
   3   7   2   35.00   21.00
  -3   7  -2    2.10   21.70
   3   7   2   -7.60   18.50
   4  -7   2 2451.45   79.39
  -4  -7  -2 2338.07  101.79
  -4  -7  -2 2343.17   99.29
   4  -7   2 2442.16   80.49
   4  -7   2 2474.25   77.29
   4  -7   2 2355.46   76.59
  -4  -7  -2 2369.46   99.39
  -4  -7  -2 2287.87  103.79
   4   7   2 2359.76   95.79
   4   7   2 2295.67   98.79
   4   7   2 2374.56   94.29
   4   7   2 2393.66   95.59
  -5  -7  -2   96.09   32.20
   5  -7   2   90.99   17.20
  -5  -7  -2  109.99   33.80
  -5  -7  -2   87.39   33.70
   5  -7   2   82.19   14.50
   5  -7   2   82.09   15.80
   5  -7   2   88.19   23.50
   5   7   2   74.29   29.00
   5   7   2   49.80   29.70
   5   7   2  121.49   31.70
  -6  -7  -2  766.32   72.99
  -6  -7  -2  867.91   79.19
  -6  -7  -2  814.42   73.29
   6  -7   2  727.83   42.30
   6  -7   2  860.21   46.70
   6  -7   2  854.01   41.90
   6   7   2  969.00   66.49
   6   7   2  832.32   63.09
   6   7   2  939.91   66.79
  -7  -7  -2  466.65   61.69
   7  -7   2  349.27   43.40
  -7  -7  -2  352.36   54.79
   7  -7   2  330.87   39.40
   7   7   2  409.66   48.80
   7   7   2  392.26   56.79
   7   7   2  332.57   53.79
  -8  -7  -2   92.49   51.29
   8  -7   2   71.39   25.90
  -8  -7  -2   37.40   44.30
  -8  -7  -2   10.80   46.90
   8   7   2   23.00   44.30
   8   7   2  115.89   49.20
   8   7   2   69.39   34.10
  -8  -8   2  642.94   80.29
  -8  -8   2  568.44   72.89
  -8  -8   2  561.54   67.59
   8   8  -2  790.12   70.99
   8   8  -2  645.24   65.09
   7  -8  -2  -13.30   23.00
  -7  -8   2   39.80   65.09
  -7  -8   2   10.00   47.30
  -7  -8   2   30.80   55.79
   7   8  -2  -12.80   36.00
   7   8  -2    3.30   39.00
   7   8  -2   -2.30   28.50
   6  -8  -2 2046.10   85.09
  -6  -8   2 2225.48  107.99
   6  -8  -2 2190.38   74.49
  -6  -8   2 2111.59  109.89
  -6  -8   2 2311.37  106.79
   6  -8  -2 2230.38   72.89
   6  -8  -2 2199.38   75.09
   6   8  -2 2180.38   98.99
   6   8  -2 2334.57   98.39
   6   8  -2 2158.68   94.99
   5  -8  -2   39.50   10.40
   5  -8  -2   40.30   18.50
  -5  -8   2    5.60   28.60
   5  -8  -2   12.90   12.30
   5  -8  -2    9.60   13.40
  -5  -8   2   11.80   28.70
  -5  -8   2  -11.50   31.20
   5  -8  -2   19.50    9.30
   5   8  -2    1.00   27.40
  -5   8   2   24.20   19.10
   5   8  -2  -19.60   25.80
   5   8  -2  -13.60   24.40
   5   8  -2  -14.60   36.20
  -4  -8   2 2299.07   97.89
  -4  -8   2 2331.27   99.29
   4  -8  -2 2365.56   77.99
  -4  -8   2 2422.16  105.39
  -4  -8   2 2498.05  101.29
   4  -8  -2 2394.46   74.19
   4  -8  -2 2485.45   78.39
   4  -8  -2 2406.66   74.39
   4   8  -2 2512.95   90.09
  -4   8   2 2282.77   87.79
   4   8  -2 2404.26   99.19
   4   8  -2 2287.67   88.99
  -3  -8   2   82.59   26.50
  -3  -8   2   57.09   24.90
   3  -8  -2   61.99    8.60
   3  -8  -2   56.59    8.70
   3  -8  -2   90.29   11.40
  -3  -8   2   68.99   22.90
  -3  -8   2   58.09   30.20
   3  -8  -2   70.69   11.90
   3   8  -2   85.39   28.90
   3   8  -2   57.79   18.20
   3   8  -2   45.10   17.40
  -3   8   2  130.99   25.40
  -2  -8   2 1054.69   55.09
  -2  -8   2 1118.49   55.59
   2  -8  -2 1123.29   49.90
   2  -8  -2 1127.49   42.00
  -2  -8   2 1073.29   58.59
   2  -8  -2 1151.78   40.90
  -2  -8   2 1142.69   55.59
   2  -8  -2 1137.99   41.80
  -2  -8   2 1126.99   52.49
   2   8  -2 1290.27   52.19
   2   8  -2 1136.79   48.20
   2   8  -2 1074.29   34.90
  -2   8   2 1159.28   56.39
   2   8  -2 1050.99   61.39
  -1  -8   2  279.27   34.80
  -1  -8   2  322.27   26.20
   1  -8  -2  296.07   23.80
   1  -8  -2  277.57   21.20
  -1  -8   2  269.87   27.00
   1  -8  -2  324.17   22.80
   1  -8  -2  279.67   32.10
  -1  -8   2  272.77   28.50
  -1  -8   2  288.67   26.90
   1  -8  -2  285.57   22.80
   1   8  -2  289.97   20.70
   1   8  -2  311.47   38.10
  -1   8   2  305.57   36.80
   0  -8  -2  384.06   28.50
   0  -8   2  274.27   25.00
   0  -8   2  299.37   22.30
   0  -8  -2  375.96   26.40
   0  -8   2  299.07   39.40
   0  -8  -2  314.37   27.80
   0  -8  -2  292.57   27.80
   0  -8   2  368.16   24.50
   0  -8   2  331.47   25.40
   0  -8  -2  357.66   38.60
   0   8  -2  344.17   41.20
   0   8   2  328.57   40.90
   0   8   2  322.27   19.90
   0   8   2  334.87   19.30
   1  -8   2  238.48   16.40
  -1  -8  -2  238.18   27.20
  -1  -8  -2  291.67   31.70
   1  -8   2  215.98   30.80
  -1  -8  -2  207.58   31.20
  -1  -8  -2  209.48   34.30
  -1  -8  -2  226.88   28.50
   1  -8   2  232.88   19.00
   1  -8   2  239.18   18.50
   1  -8   2  208.58   18.50
  -1   8  -2  237.58   33.70
   1   8   2  236.88   25.20
   1   8   2  222.68   30.00
   1   8   2  263.47   29.00
   1   8   2  246.48   23.70
  -2  -8  -2   94.19   24.80
   2  -8   2   92.19   10.80
  -2  -8  -2   69.19   23.80
  -2  -8  -2   67.89   27.70
   2  -8   2  100.89    9.40
  -2  -8  -2   84.19   23.10
   2   8   2   80.49   16.10
   2   8   2   81.49   19.10
   2   8   2   58.09   24.30
  -2   8  -2   78.59   26.40
   2   8   2  107.29   19.30
   3  -8   2  388.26   20.30
   3  -8   2  432.36   22.30
  -3  -8  -2  466.35   45.10
  -3  -8  -2  530.95   48.00
  -3  -8  -2  459.85   44.80
  -3  -8  -2  382.46   49.70
   3   8   2  389.06   36.40
   3   8   2  369.66   46.60
   3   8   2  409.86   39.80
  -3   8  -2  420.36   43.80
   3   8   2  464.25   37.90
  -4  -8  -2  771.22   56.79
   4  -8   2  747.73   33.40
  -4  -8  -2  742.13   57.59
   4  -8   2  752.62   26.60
   4  -8   2  732.83   36.10
  -4  -8  -2  706.53   53.79
   4  -8   2  734.23   26.60
   4   8   2  681.33   48.70
   4   8   2  721.53   57.59
   4   8   2  715.23   52.69
   4   8   2  571.24   55.59
   5  -8   2  225.08   18.90
   5  -8   2  229.88   19.80
  -5  -8  -2  213.58   41.30
  -5  -8  -2  293.57   47.80
  -5  -8  -2  279.77   44.10
   5  -8   2  255.87   26.20
   5   8   2  247.68   38.40
   5   8   2  210.78   35.50
   5   8   2  240.48   41.40
  -6  -8  -2  796.62   77.09
   6  -8   2  772.32   36.30
  -6  -8  -2  854.21   90.49
  -6  -8  -2  656.73   71.39
   6   8   2  754.82   61.89
   6   8   2  795.62   65.99
   6   8   2  711.93   65.79
   7  -8   2   50.09   20.10
  -7  -8  -2   19.90   45.20
  -7  -8  -2  106.09   42.30
  -7  -8  -2  110.29   45.60
   7   8   2   94.59   36.00
   7   8   2   22.60   40.10
   7   8   2   38.10   50.29
  -8  -9   2  -46.10   48.10
   8  -9  -2   50.59   23.90
  -8  -9   2   13.30   50.39
  -8  -9   2   24.60   50.69
   8   9  -2   47.40   35.20
   8   9  -2   64.69   45.10
  -7  -9   2  900.61   81.09
  -7  -9   2 1065.99   85.09
   7  -9  -2 1055.59   41.10
  -7  -9   2  878.91   85.49
   7   9  -2  998.20   95.39
   7   9  -2  973.50   75.69
  -6  -9   2   21.70   42.40
   6  -9  -2   39.50   19.10
   6   9  -2   57.09   34.90
   6   9  -2   18.80   32.50
  -5  -9   2  844.32   69.19
  -5  -9   2  907.51   73.89
  -5  -9   2  852.51   66.59
   5  -9  -2  963.70   40.50
   5   9  -2  980.80   64.69
  -5   9   2  920.31   51.49
   5   9  -2  849.41   54.49
   4  -9  -2   -1.80   13.70
  -4  -9   2   16.00   34.30
   4  -9  -2   12.70   11.20
  -4  -9   2  -20.80   26.70
  -4  -9   2   10.30   32.30
  -4  -9   2   24.00   25.40
   4   9  -2   47.30   22.60
   4   9  -2   -6.20   28.70
  -4   9   2    7.20   22.30
   4   9  -2   13.70   20.60
  -3  -9   2 1362.06   76.59
  -3  -9   2 1338.07   66.79
  -3  -9   2 1486.85   67.89
   3  -9  -2 1395.76   49.20
  -3  -9   2 1352.96   68.99
   3  -9  -2 1471.65   49.50
   3  -9  -2 1370.96   43.10
   3   9  -2 1350.46   73.59
   3   9  -2 1305.37   49.99
  -3   9   2 1411.46   66.99
   2  -9  -2   46.00   14.00
   2  -9  -2   28.60   12.50
  -2  -9   2    5.90   22.50
  -2  -9   2   31.00   26.50
   2  -9  -2   18.70   19.70
  -2  -9   2  -12.10   19.30
  -2  -9   2   -8.40   20.10
   2  -9  -2    8.70    8.90
   2  -9  -2   19.70    9.00
   2   9  -2    0.40   28.20
  -2   9   2  -16.90   22.70
   1  -9  -2  683.83   44.80
  -1  -9   2  683.93   53.49
   1  -9  -2  697.03   33.10
  -1  -9   2  692.93   37.60
   1  -9  -2  738.13   36.60
  -1  -9   2  709.73   44.20
   1  -9  -2  717.63   36.30
  -1  -9   2  688.13   40.70
  -1  -9   2  740.43   40.20
   1  -9  -2  724.63   34.40
   1   9  -2  635.94   52.69
  -1   9   2  738.23   52.69
   1   9  -2  683.83   29.10
   1   9  -2  661.13   29.40
   0  -9  -2  174.58   21.30
   0  -9   2  164.28   32.30
   0  -9   2  180.58   19.80
   0  -9  -2  175.78   19.60
   0  -9  -2  166.78   28.70
   0  -9   2  141.39   20.30
   0  -9   2  199.38   20.70
   0  -9  -2  148.19   24.90
   0  -9   2  175.78   22.70
   0   9   2  190.18   34.00
   0   9   2  163.88   14.40
   0   9  -2  199.28   35.40
   0   9   2  179.18   14.20
  -1  -9  -2  165.08   24.60
   1  -9   2  150.98   15.50
   1  -9   2  177.78   21.00
  -1  -9  -2  158.08   32.90
   1  -9   2  138.79   16.60
   1  -9   2  172.68   29.80
   1  -9   2  216.68   20.40
  -1  -9  -2  131.79   24.10
  -1  -9  -2  191.28   26.50
  -1   9  -2  168.18   33.10
   1   9   2  151.08   31.90
  -2  -9  -2  343.87   41.00
  -2  -9  -2  310.57   40.10
   2  -9   2  323.27   19.10
  -2  -9  -2  337.87   39.80
  -2  -9  -2  336.47   38.60
   2   9   2  306.67   30.70
   2   9   2  301.47   41.70
  -2   9  -2  261.27   37.10
   3  -9   2   38.80   11.40
  -3  -9  -2   34.30   32.10
  -3  -9  -2   25.70   27.50
   3  -9   2   11.00    8.70
  -3  -9  -2   25.30   24.90
  -3  -9  -2   80.19   33.80
   3   9   2   12.10   18.70
  -3   9  -2   50.69   26.90
   3   9   2   24.60   20.50
   3   9   2   13.50   29.80
   4  -9   2  199.28   20.10
  -4  -9  -2  162.48   36.70
  -4  -9  -2  226.28   38.00
  -4  -9  -2  239.88   44.60
   4   9   2  168.68   39.10
   4   9   2  208.38   33.20
   4   9   2  152.18   30.00
  -5  -9  -2  449.46   54.89
  -5  -9  -2  418.06   54.99
   5  -9   2  404.86   28.60
  -5  -9  -2  469.05   55.79
   5   9   2  387.66   48.60
   5   9   2  413.76   46.10
   5   9   2  418.46   52.39
  -6  -9  -2  144.39   42.90
  -6  -9  -2   56.89   43.40
  -6  -9  -2   29.00   44.50
   6   9   2   -4.80   35.40
   6   9   2   54.99   40.50
   6   9   2   90.19   35.90
  -7  -9  -2 1146.99   95.39
   7  -9   2 1253.17   48.40
  -7  -9  -2 1343.37  101.59
  -7  -9  -2 1263.67   92.69
   7   9   2 1116.59   97.79
   7   9   2 1221.08   79.99
   7   9   2 1199.18   82.09
  -7 -10   2  372.76   64.39
  -7 -10   2  320.27   55.89
  -7 -10   2  350.76   57.39
   7  10  -2  376.16   51.29
   7  10  -2  263.97   48.30
  -6 -10   2  436.86   73.19
  -6 -10   2  446.36   61.99
  -6 -10   2  370.86   56.19
   6  10  -2  565.84   56.29
   6  10  -2  381.76   45.90
  -5 -10   2    6.20   34.50
  -5 -10   2    5.80   35.70
  -5 -10   2   23.90   46.80
   5  10  -2   15.00   37.00
   5  10  -2   17.80   25.70
  -5  10   2  -19.10   24.60
  -4 -10   2  575.14   58.79
   4 -10  -2  608.24   49.80
  -4 -10   2  728.83   55.69
  -4 -10   2  685.63   70.89
   4 -10  -2  726.33   31.40
  -4  10   2  670.73   49.40
   4  10  -2  696.03   38.60
   3 -10  -2  426.56   25.50
  -3 -10   2  501.15   46.70
   3 -10  -2  421.96   36.20
  -3 -10   2  395.06   49.50
  -3 -10   2  455.45   43.80
   3 -10  -2  392.86   27.90
  -3 -10   2  361.66   46.90
   3  10  -2  394.46   36.80
  -3  10   2  402.26   45.30
   3  10  -2  435.96   52.89
   2 -10  -2  135.99   25.00
  -2 -10   2  140.89   26.60
  -2 -10   2  110.79   25.60
   2 -10  -2  158.78   15.90
  -2 -10   2   81.29   32.80
   2 -10  -2  150.98   15.40
   2 -10  -2  145.39   20.00
   2 -10  -2  133.09   17.70
  -2  10   2  136.79   31.10
   2  10  -2  114.79   34.60
   1 -10  -2 1880.21   80.39
  -1 -10   2 1966.90   75.79
   1 -10  -2 1865.41   67.69
  -1 -10   2 2017.60   91.59
   1 -10  -2 2011.60   71.69
  -1 -10   2 1903.91   76.29
  -1 -10   2 2027.10   73.69
   1 -10  -2 1825.02   72.79
   1 -10  -2 1921.21   67.49
   1  10  -2 1871.81   91.39
  -1  10   2 1880.11   87.09
   0 -10  -2   31.10   16.40
   0 -10   2   39.50   15.90
   0 -10   2   33.20   15.30
   0 -10  -2    9.90   16.50
   0 -10   2   31.60   13.40
   0 -10  -2   38.70   26.00
   0 -10   2   29.20   28.00
   0 -10   2   21.90   21.30
   0  10  -2   43.20   31.50
   0  10   2   68.19   31.80
  -1 -10  -2 2057.29   92.29
  -1 -10  -2 1956.10   81.19
   1 -10   2 2153.08   72.89
   1 -10   2 2008.70   91.39
  -1 -10  -2 1987.70   82.39
   1 -10   2 2089.69   66.39
   1 -10   2 2143.79   67.39
  -1 -10  -2 2028.10   80.79
   1 -10   2 2046.50   71.09
   1  10   2 2116.39   95.59
  -1  10  -2 1976.00   92.89
   2 -10   2    3.90   10.40
  -2 -10  -2   -1.80   28.20
   2 -10   2    3.40   27.00
  -2 -10  -2   69.49   28.40
  -2 -10  -2   17.30   22.60
  -2 -10  -2  -19.80   30.10
   2  10   2   -6.30   17.20
  -2  10  -2   31.90   29.20
   2  10   2    8.50   29.40
   3 -10   2 1313.87   68.89
  -3 -10  -2 1292.47   80.69
  -3 -10  -2 1272.47   70.29
  -3 -10  -2 1262.07   71.39
   3 -10   2 1345.87   45.20
   3  10   2 1444.26   89.59
   3  10   2 1315.07   61.29
  -3  10  -2 1299.97   74.09
  -4 -10  -2  165.18   49.50
  -4 -10  -2  165.88   39.60
  -4 -10  -2  109.49   38.30
   4  10   2  144.39   27.70
  -4  10  -2  154.78   36.40
   4  10   2  112.99   31.50
  -5 -10  -2  282.37   46.10
  -5 -10  -2  254.07   52.89
  -5 -10  -2  270.67   50.69
   5  10   2  292.87   42.90
   5  10   2  273.07   39.70
   5  10   2  258.47   47.10
  -6 -10  -2  246.48   54.59
  -6 -10  -2  237.78   52.89
  -6 -10  -2  222.78   50.49
   6  10   2  286.97   46.60
   6  10   2  259.97   46.50
  -6 -11   2   68.19   48.10
  -6 -11   2  111.39   42.50
  -6 -11   2  -34.00   40.60
   6  11  -2   41.50   37.60
   6  11  -2   78.29   41.10
  -5 -11   2    1.70   41.60
  -5 -11   2   30.20   35.90
  -5 -11   2    7.80   41.80
  -5  11   2   14.90   29.00
   5  11  -2   47.10   25.80
   5  11  -2   38.20   33.90
  -4 -11   2   15.40   33.40
  -4 -11   2   57.29   38.00
   4 -11  -2   53.89   21.90
  -4  11   2   90.79   30.20
   4  11  -2   84.99   32.70
  -3 -11   2   48.80   42.30
   3 -11  -2   81.59   15.10
  -3 -11   2   80.19   30.30
   3 -11  -2   66.89   23.30
  -3 -11   2    5.50   29.70
  -3  11   2   71.09   31.80
  -2 -11   2  505.95   61.99
  -2 -11   2  594.04   47.40
  -2 -11   2  513.05   46.40
   2 -11  -2  545.45   33.50
   2 -11  -2  492.85   44.10
   2 -11  -2  540.25   22.50
  -2  11   2  454.15   54.19
   2  11  -2  521.55   60.69
   1 -11  -2   48.60   25.10
  -1 -11   2   18.90   32.50
  -1 -11   2   16.20   19.90
  -1 -11   2   20.10   18.90
  -1 -11   2    8.40   19.00
   1 -11  -2   20.00   14.50
   1 -11  -2    9.80   12.90
  -1  11   2   47.40   31.60
   1  11  -2   40.90   36.60
   0 -11   2 1170.28   70.99
   0 -11  -2 1214.28   69.09
   0 -11  -2 1101.59   51.89
   0 -11   2 1235.98   72.19
   0 -11  -2 1197.58   57.49
   0 -11   2 1178.88   48.30
   0 -11   2 1141.39   49.30
   0 -11  -2 1188.18   53.39
   0  11   2  929.51   76.79
   1 -11   2   96.59   17.70
  -1 -11  -2   59.89   24.10
   1 -11   2   66.89   30.10
  -1 -11  -2   84.69   24.90
  -1 -11  -2   50.69   32.30
   1 -11   2   70.79   10.70
   1  11   2  115.99   36.40
   2 -11   2 1871.01   85.49
   2 -11   2 1731.13   61.19
  -2 -11  -2 1942.21   84.89
  -2 -11  -2 1769.82   82.79
  -2 -11  -2 1830.22   96.49
   2  11   2 1469.05  102.29
   3 -11   2   19.90   26.50
  -3 -11  -2   80.29   43.00
  -3 -11  -2  -32.50   26.50
  -3 -11  -2    2.30   30.40
   3  11   2  -26.90   28.30
   4 -11   2 1330.97   75.19
  -4 -11  -2 1403.46   91.39
  -4 -11  -2 1340.17   80.09
  -4 -11  -2 1249.77  119.49
   4  11   2 1361.96   58.39
   4  11   2 1275.77   83.19
  -4  11  -2 1392.06   76.89
  -5 -11  -2   75.49   43.20
  -5 -11  -2   30.00   43.00
  -5 -11  -2   -9.90   37.40
   5  11   2  -60.69   31.70
   5  11   2   77.09   39.10
  -5 -12   2   51.99   46.70
  -5 -12   2   49.10   38.90
  -5 -12   2   -2.10   41.70
   5  12  -2   70.59   39.10
  -4 -12   2 1246.78   90.89
  -4 -12   2 1386.66   81.49
  -4 -12   2 1334.67   92.99
   4  12  -2 1394.76   86.39
  -4  12   2 1459.95   74.99
   3 -12  -2   64.89   28.60
  -3 -12   2   54.69   30.30
  -3 -12   2   86.19   45.30
   3  12  -2   37.00   35.00
  -3  12   2  121.39   33.10
  -2 -12   2 1112.59   82.99
  -2 -12   2 1061.99   62.19
  -2 -12   2 1090.69   64.99
   2  12  -2  857.91   71.89
  -2  12   2  965.30   67.59
  -1 -12   2  232.28   32.80
  -1 -12   2  258.87   29.60
   1 -12  -2  394.56   48.80
  -1 -12   2  276.27   54.39
   1 -12  -2  249.08   24.30
   1  12  -2  256.27   43.50
   0 -12   2  125.39   37.90
   0 -12  -2  110.69   23.40
   0 -12   2  141.19   44.70
   0 -12   2  149.09   19.30
   0 -12  -2  123.99   29.30
   0 -12  -2   61.69   33.10
   0  12   2   78.89   39.20
   0  12  -2  127.69   38.30
  -1 -12  -2  471.95   47.60
  -1 -12  -2  567.94   64.29
   1 -12   2  649.93   61.99
   1 -12   2  594.44   19.40
  -1 -12  -2  535.95   49.70
   1  12   2  445.06   55.79
  -1  12  -2  496.85   58.39
  -2 -12  -2  238.88   35.80
   2 -12   2  174.38   41.50
  -2 -12  -2  189.38   37.60
  -2 -12  -2  157.38   50.39
  -2  12  -2  242.68   42.20
   2  12   2  120.69   40.00
   3 -12   2  270.17   46.30
  -3 -12  -2  220.18   43.70
  -3 -12  -2  336.57   43.70
  -3 -12  -2  392.46   61.09
  -3  12  -2  229.98   38.40
   3  12   2  323.37   51.69
  -4 -12  -2  352.06   90.19
  -4 -12  -2  526.75   61.99
  -4 -12  -2  381.26   63.49
   4 -12   2  466.95   55.29
   4  12   2  520.05   64.89
  -4  12  -2  670.83   54.29
  -4 -13   2   43.10   36.70
  -4 -13   2   17.80   43.50
  -4 -13   2   -6.00   49.70
   4  13  -2   15.90   39.60
  -4  13   2   19.90   29.50
  -3 -13   2  682.93   74.69
  -3 -13   2  657.83   62.39
  -3 -13   2  656.53   79.99
  -3  13   2  708.33   58.29
   3  13  -2  686.73   69.89
  -2 -13   2   56.79   44.30
  -2 -13   2   28.90   30.90
  -2 -13   2    0.20   33.40
   2 -13  -2   -4.10   33.20
   2  13  -2    2.50   34.00
  -2  13   2   17.20   29.90
  -1 -13   2  469.75   52.49
  -1 -13   2  622.44   76.09
   1 -13  -2  550.04   58.79
  -1 -13   2  532.05   46.70
   1 -13  -2  582.24   31.40
   1  13  -2  632.24   64.89
  -1  13   2  673.43   60.49
   0 -13   2   21.90   16.00
   0 -13  -2   10.80   36.70
   0 -13  -2   31.00   31.40
   0 -13  -2   51.29   23.50
   0  13   2   16.40   34.10
   0  13  -2  -35.00   30.80
  -1 -13  -2  109.09   35.50
  -1 -13  -2  106.39   48.30
   1 -13   2  117.09   66.99
  -1  13  -2  105.59   38.40
   1  13   2  127.79   40.00
  -2 -13  -2   60.89   32.20
  -2 -13  -2   15.50   42.20
  -2 -13  -2   84.09   41.10
  -2  13  -2  100.39   39.70
   2  13   2  120.99   43.60
  -3 -13  -2   37.40   39.40
  -3 -13  -2   30.80   45.60
   3  13   2   38.50   41.60
  -3  13  -2   24.30   34.60
  -1 -14   2  831.42   50.99
   1 -14  -2  791.62   85.49
  -1 -14   2  911.71   81.09
   1  14  -2  722.33   74.69
  -1  14   2  712.03   72.69
   0 -14   2   29.10   21.80
   0 -14   2  -12.20   44.20
   0 -14  -2   31.70   30.70
   0  14   2   31.60   38.70
   0  14  -2  -17.60   35.30
  -1 -14  -2  812.52   76.99
   1 -14   2 1007.80   86.19
   1  14   2 1002.60   82.39
  -1  14  -2  971.30   77.39
  10   0  -3    6.60   42.00
 -10   0   3   14.00   45.40
  10   0  -3   22.40   38.70
   9   0  -3  462.05   57.69
  -9   0   3  541.85   59.99
   9   0  -3  365.66   52.79
  -9   0   3  327.67   44.40
  -8   0   3   -7.20   26.50
   8   0  -3  -28.20   27.60
  -8   0   3   26.60   26.90
   8   0  -3   17.70   29.10
   7   0  -3   88.39   32.00
   7   0  -3   76.29   27.10
   7   0  -3  123.39   27.80
  -7   0   3  116.29   28.30
   7   0  -3   86.29   29.20
  -7   0   3  109.99   24.60
  -7   0   3  117.59   28.70
  -6   0   3   28.80   22.30
   6   0  -3    7.00   22.10
   6   0  -3    9.60   22.10
   6   0  -3   30.90   16.60
   6   0  -3    7.60   22.80
  -6   0   3    1.90   18.30
  -6   0   3   12.50   21.30
   5   0  -3 1409.56   61.19
  -5   0   3 1365.36   62.79
   5   0  -3 1371.16   62.59
   5   0  -3 1611.54   56.99
  -5   0   3 1392.16   62.49
   5   0  -3 1398.96   62.69
   5   0  -3 1483.45   62.09
  -5   0   3 1354.26   59.59
   4   0  -3   16.70   13.10
   4   0  -3    4.30   14.20
  -4   0   3   -2.30   16.60
  -4   0   3   21.40   14.20
  -4   0   3   -9.40   15.40
   4   0  -3    4.30   14.20
  -4   0   3    1.30   12.10
   4   0  -3   15.20   16.60
  -3   0   3 6322.37  189.68
  -3   0   3 5969.30  184.98
  -3   0   3 6464.35  190.18
   3   0  -3 5966.30  189.78
  -3   0   3 6164.28  190.08
   3   0  -3 5874.81  190.68
   3   0  -3 6542.05  190.08
  -2   0   3    4.40   14.70
   2   0  -3  -12.40   14.40
   2   0  -3    7.80   15.30
  -2   0   3   33.80   14.10
  -2   0   3    7.50    9.80
   2   0  -3    8.80   13.20
  -2   0   3   10.20   12.20
  -2   0   3   14.70   14.30
   2   0  -3    0.50   12.70
   1   0  -3 7092.79  215.48
   1   0  -3 7390.26  215.08
  -1   0   3 7232.68  215.48
  -1   0   3 7003.30  215.18
   1   0  -3 7595.94  215.78
  -1   0   3 7352.66  215.58
   1   0  -3 7136.39  215.88
  -1   0   3 6871.91  215.28
   0   0   3   11.00   12.70
   0   0  -3  -11.20   13.10
   0   0  -3    6.90   12.30
   0   0   3    4.00   13.90
   0   0   3    6.60   14.30
   0   0   3   -2.10   12.80
   0   0  -3    7.00   15.00
   0   0  -3  -15.00   12.50
   1   0   3 2676.43   85.89
  -1   0  -3 2471.05   85.89
  -1   0  -3 2585.24   86.19
   1   0   3 2484.55   85.69
  -1   0  -3 2748.32   85.19
   1   0   3 2543.05   85.49
  -1   0  -3 2611.14   85.69
   1   0   3 2778.12   86.39
   2   0   3    8.00   14.80
  -2   0  -3   13.10   14.40
  -2   0  -3   -6.20   12.70
   2   0   3  -12.30   13.90
  -2   0  -3   -3.50   16.20
   2   0   3    4.10   15.10
   2   0   3   14.10   17.20
  -3   0  -3 1523.75   69.89
  -3   0  -3 1655.13   64.19
  -3   0  -3 1703.83   61.59
   3   0   3 1621.24   62.79
   3   0   3 1624.84   66.09
   3   0   3 1630.44   63.39
   3   0   3 1646.84   64.69
  -3   0  -3 1659.03   62.09
   4   0   3    9.60   17.90
  -4   0  -3   -1.90   16.40
  -4   0  -3    3.90   19.50
  -4   0  -3   18.10   17.20
   4   0   3    0.70   18.20
   4   0   3   -9.20   19.40
   4   0   3  -21.10   16.30
  -5   0  -3   72.99   20.10
   5   0   3   35.50   23.90
  -5   0  -3    8.80   21.90
  -5   0  -3   54.29   25.90
   5   0   3   97.49   25.50
   5   0   3   27.60   24.50
  -6   0  -3  -14.60   23.00
  -6   0  -3   28.40   26.60
   6   0   3  -14.40   25.00
   6   0   3   -1.90   31.50
  -6   0  -3  -11.70   22.70
   6   0   3  -27.80   23.30
   7   0   3  223.68   38.10
  -7   0  -3  144.89   33.70
   7   0   3  189.08   38.50
  -7   0  -3  184.28   34.20
  -8   0  -3   81.29   35.00
   8   0   3  -70.69   34.30
   8   0   3  -35.20   23.30
   8   0   3    4.10   39.30
  -8   0  -3  -35.70   30.70
   9   0   3  452.75   57.29
  -9   0  -3  313.37   50.69
   9   0   3  387.06   57.19
  10  -1  -3  128.09   41.50
 -10  -1   3  101.09   48.60
 -10  -1   3   57.89   43.60
  10  -1  -3  117.19   43.00
  10   1  -3   84.19   43.20
  10   1  -3  152.18   47.10
 -10   1   3  136.29   39.80
  -9  -1   3  681.73   62.89
   9  -1  -3  683.33   69.19
  -9  -1   3  716.43   70.09
   9  -1  -3  424.96   51.19
  -9   1   3  445.56   51.49
  -9   1   3  623.34   58.99
   9   1  -3  583.94   63.69
  -8  -1   3  -11.10   26.10
  -8  -1   3  -13.90   25.80
   8  -1  -3   25.90   28.50
   8  -1  -3    5.80   26.40
  -8  -1   3  -32.60   27.40
   8   1  -3  -20.40   31.90
   8   1  -3    9.10   31.70
  -8   1   3   26.90   25.90
  -8   1   3   20.90   27.70
  -7  -1   3  912.61   57.49
  -7  -1   3  779.32   52.99
   7  -1  -3  748.23   58.09
   7  -1  -3  802.92   53.29
   7  -1  -3  751.62   47.40
  -7  -1   3  681.73   54.09
   7  -1  -3  874.01   57.49
  -7   1   3  857.91   50.39
   7   1  -3  819.12   56.79
  -7   1   3  939.81   53.29
  -7   1   3  855.71   51.49
   7   1  -3  813.82   56.59
   7   1  -3  908.31   58.59
  -6  -1   3  241.38   32.40
   6  -1  -3  197.48   22.40
   6  -1  -3  208.38   28.60
   6  -1  -3  133.19   26.70
   6  -1  -3  148.59   25.20
  -6  -1   3  170.18   27.20
  -6  -1   3  216.48   28.20
  -6  -1   3  178.58   31.00
  -6   1   3  204.38   25.90
  -6   1   3  174.48   22.60
   6   1  -3  165.58   30.00
   6   1  -3  169.88   29.60
  -6   1   3  229.08   28.30
   6   1  -3  207.98   26.20
   6   1  -3  172.58   29.50
  -6   1   3  205.38   33.30
   5  -1  -3  327.57   33.30
   5  -1  -3  288.97   32.70
  -5  -1   3  334.57   36.80
   5  -1  -3  356.36   23.60
  -5  -1   3  376.46   32.10
  -5  -1   3  360.86   36.10
   5  -1  -3  337.07   31.90
  -5  -1   3  346.27   32.00
   5  -1  -3  343.17   36.10
   5   1  -3  371.36   29.10
   5   1  -3  327.17   30.80
  -5   1   3  291.07   29.20
   5   1  -3  303.87   31.60
  -5   1   3  373.76   30.30
   5   1  -3  319.87   18.00
  -5   1   3  340.47   25.80
   5   1  -3  339.87   35.20
  -5   1   3  343.07   34.20
   5   1  -3  332.77   35.60
  -5   1   3  401.66   31.90
  -4  -1   3  653.83   35.60
  -4  -1   3  616.24   39.80
   4  -1  -3  554.64   36.10
  -4  -1   3  669.73   37.40
   4  -1  -3  618.44   34.90
  -4  -1   3  662.13   37.30
   4  -1  -3  676.73   37.30
   4  -1  -3  684.43   36.50
   4  -1  -3  670.33   28.20
  -4  -1   3  621.24   40.40
   4   1  -3  593.54   39.60
   4   1  -3  652.73   39.50
   4   1  -3  703.13   34.40
   4   1  -3  648.04   37.20
  -4   1   3  626.94   36.00
   4   1  -3  609.84   35.60
   4   1  -3  682.33   26.80
  -4   1   3  704.93   35.20
  -4   1   3  696.03   34.70
  -4   1   3  617.74   34.80
  -4   1   3  645.04   29.50
  -3  -1   3  845.32   40.60
   3  -1  -3  924.41   38.90
   3  -1  -3  914.51   41.70
  -3  -1   3  855.71   42.50
  -3  -1   3  890.31   38.30
  -3  -1   3  847.32   42.40
   3  -1  -3  921.61   39.20
   3  -1  -3  858.41   39.90
  -3  -1   3  908.51   41.60
  -3   1   3  887.01   38.60
   3   1  -3  886.51   41.10
   3   1  -3  900.61   34.00
  -3   1   3  941.81   39.60
   3   1  -3  848.92   42.20
  -3   1   3  890.31   32.20
  -3   1   3  927.81   40.10
  -3   1   3  889.31   40.10
   3   1  -3  909.51   41.10
  -2  -1   3 1001.10   44.20
  -2  -1   3 1020.40   41.80
   2  -1  -3 1056.19   43.70
   2  -1  -3 1050.09   42.90
  -2  -1   3 1010.60   44.70
   2  -1  -3 1104.09   41.90
   2  -1  -3 1192.48   42.80
   2   1  -3 1034.50   44.90
   2   1  -3 1093.69   43.50
  -2   1   3 1040.40   42.70
  -2   1   3 1054.99   34.90
  -2   1   3 1075.79   41.60
  -2   1   3 1057.89   42.10
  -2   1   3 1108.69   42.80
   2   1  -3 1081.39   44.80
   1  -1  -3   44.60   15.50
   1  -1  -3   27.60   14.10
  -1  -1   3   21.90   14.40
  -1  -1   3   28.70   12.80
   1  -1  -3   31.70   13.60
  -1  -1   3   11.10   14.20
   1  -1  -3   22.70   13.50
  -1  -1   3   41.00   14.30
  -1   1   3   13.30   13.60
   1   1  -3   42.20   14.40
  -1   1   3   34.90   14.00
  -1   1   3   16.90   14.00
  -1   1   3   29.70   13.20
   1   1  -3   30.30   13.60
   1   1  -3   24.30   13.30
   1   1  -3   22.90   15.10
   0  -1   3 3729.93  117.09
   0  -1   3 3569.24  116.69
   0  -1   3 3827.02  117.09
   0  -1  -3 3742.83  117.99
   0  -1   3 3825.52  117.09
   0  -1  -3 3761.42  118.49
   0  -1  -3 3960.10  117.79
   0  -1  -3 3791.02  117.19
   0   1   3 3851.91  117.79
   0   1  -3 3641.54  117.19
   0   1  -3 3810.82  116.69
   0   1   3 3764.12  117.69
   0   1   3 3705.23  117.29
   0   1   3 3818.62  117.99
   0   1  -3 3762.32  117.09
   0   1  -3 3703.33  115.79
   0   1   3 3786.52  116.89
  -1  -1  -3   17.70   16.40
   1  -1   3    6.60   12.70
  -1  -1  -3    5.10   13.70
  -1  -1  -3    1.10   15.50
   1  -1   3   19.00   12.70
   1  -1   3   13.70   15.40
   1  -1   3    8.10   12.80
  -1   1  -3    9.50   13.50
  -1   1  -3   12.20   12.30
   1   1   3    6.10   13.80
   1   1   3   16.90   14.90
   1   1   3   -2.70   13.80
   1   1   3    4.90   17.10
  -1   1  -3   26.40   12.00
  -1   1  -3    8.40   14.00
   2  -1   3 3413.16  104.59
   2  -1   3 3112.29  103.99
   2  -1   3 3304.47  104.49
  -2  -1  -3 3187.58  106.19
   2  -1   3 3256.47  104.19
  -2  -1  -3 3168.38  106.49
  -2  -1  -3 3329.67  105.19
   2   1   3 3107.89  106.29
  -2   1  -3 3209.58  103.99
  -2   1  -3 3292.17  101.99
  -2   1  -3 3120.59  102.59
   2   1   3 3227.58  105.89
   2   1   3 2861.01  111.09
   2   1   3 3175.58  107.49
   2   1   3 3343.07  106.19
   3  -1   3  840.82   42.20
  -3  -1  -3  904.21   42.20
   3  -1   3  854.51   45.90
   3  -1   3  955.30   43.20
   3  -1   3  826.92   42.50
  -3  -1  -3  898.61   46.70
  -3  -1  -3  817.32   52.69
  -3  -1  -3  889.91   42.40
   3   1   3  932.51   43.90
  -3   1  -3  950.50   41.30
  -3   1  -3  973.90   42.80
  -3   1  -3  854.71   42.30
   3   1   3  860.01   46.20
   3   1   3  946.31   43.90
   3   1   3  864.51   45.70
   3   1   3  865.71   45.80
  -3   1  -3  881.51   43.70
   4  -1   3  822.32   45.40
   4  -1   3  846.22   48.10
  -4  -1  -3  811.32   47.40
   4  -1   3  847.72   45.40
   4  -1   3  851.61   42.70
  -4  -1  -3  766.12   42.70
  -4  -1  -3  841.12   44.90
  -4  -1  -3  752.32   54.79
   4  -1   3  865.21   44.90
  -4   1  -3  778.12   42.70
   4   1   3  778.02   47.50
   4   1   3  796.42   48.00
  -4   1  -3  842.52   41.20
   4   1   3  808.02   45.20
  -4   1  -3  760.82   43.10
   4   1   3  771.42   45.10
  -4   1  -3  880.51   40.40
   4   1   3  782.32   47.80
   5  -1   3 1363.56   65.39
  -5  -1  -3 1459.25   67.99
   5  -1   3 1446.66   65.29
   5  -1   3 1382.46   66.29
  -5  -1  -3 1431.66   68.89
  -5  -1  -3 1352.06   62.89
  -5   1  -3 1594.14   59.99
   5   1   3 1417.96   69.09
   5   1   3 1423.36   68.69
   5   1   3 1505.55   69.09
  -5   1  -3 1475.65   62.89
   6  -1   3   33.80   26.50
   6  -1   3  125.79   33.50
   6  -1   3    3.60   24.30
  -6  -1  -3    9.30   26.00
  -6  -1  -3   10.00   24.70
   6   1   3  -24.00   23.70
  -6   1  -3    4.20   21.70
   6   1   3   -0.30   26.80
  -6   1  -3   -8.60   22.90
  -7  -1  -3 1171.08   69.99
   7  -1   3 1196.78   72.39
  -7  -1  -3 1200.58   70.89
   7  -1   3 1243.98   71.49
   7   1   3 1192.68   60.89
   7   1   3 1073.99   72.29
  -7   1  -3 1263.77   68.09
   7   1   3 1301.47   77.79
  -7   1  -3 1140.99   62.19
   8  -1   3  273.97   49.40
   8  -1   3  221.88   31.70
  -8  -1  -3  253.67   43.80
   8  -1   3  246.48   51.09
  -8  -1  -3  224.58   47.80
   8   1   3  178.88   46.10
  -8   1  -3  290.57   41.50
   8   1   3  235.68   54.39
  -8   1  -3  214.68   33.20
   8   1   3  307.07   37.90
   9  -1   3  299.67   50.59
   9  -1   3  301.57   47.80
  -9  -1  -3  285.97   50.09
  -9  -1  -3  257.57   47.90
   9   1   3  267.17   51.89
   9   1   3  195.78   54.69
  10  -2  -3  995.50   81.99
 -10  -2   3  807.82   82.99
 -10  -2   3  970.70   98.89
  10  -2  -3  916.41   73.69
  10   2  -3 1252.17   88.09
  10   2  -3 1052.19   84.49
  -9  -2   3    9.10   40.10
   9  -2  -3   39.60   37.00
  -9  -2   3  -42.60   34.70
  -9  -2   3   -6.40   34.50
   9  -2  -3  -56.79   28.50
  -9   2   3    0.90   24.30
  -9   2   3  -50.29   33.80
   9   2  -3  105.89   41.10
   9   2  -3  -45.20   46.80
   8  -2  -3 1963.50   88.69
  -8  -2   3 1934.81   91.29
   8  -2  -3 1970.50   89.19
  -8  -2   3 2051.79   96.89
  -8  -2   3 2076.39   98.19
   8   2  -3 1955.90   96.19
   8   2  -3 1888.31   95.59
  -8   2   3 1788.02  102.59
   7  -2  -3  -20.00   18.30
  -7  -2   3   10.20   26.10
   7  -2  -3   12.50   23.10
  -7  -2   3    2.50   28.70
   7  -2  -3   18.30   23.80
   7  -2  -3   -8.60   27.50
  -7  -2   3   25.40   27.10
   7   2  -3   39.50   29.10
   7   2  -3   37.20   13.60
  -7   2   3   19.80   21.90
  -7   2   3    8.00   19.80
  -7   2   3   22.50   19.70
   7   2  -3   29.40   28.20
   6  -2  -3 3141.39  115.69
  -6  -2   3 3138.69  120.59
  -6  -2   3 3105.09  116.59
   6  -2  -3 3235.88  115.99
  -6  -2   3 3360.66  122.19
   6  -2  -3 3233.98  106.59
   6  -2  -3 3435.96  116.39
  -6   2   3 3187.48  108.89
   6   2  -3 3334.17  102.99
  -6   2   3 3472.65  109.89
   6   2  -3 3273.77  115.49
  -6   2   3 3353.26  114.09
   6   2  -3 3219.58  120.89
   6   2  -3 3208.48  120.79
   5  -2  -3   19.10   17.90
  -5  -2   3    7.10   20.90
  -5  -2   3    9.40   21.20
   5  -2  -3    7.40   18.00
   5  -2  -3  -14.40   15.00
  -5  -2   3   21.30   22.60
  -5  -2   3   -4.60   19.60
   5  -2  -3    6.70    9.30
  -5  -2   3   15.10   18.60
   5  -2  -3   -8.20   16.70
   5   2  -3   18.70   21.90
   5   2  -3   19.70   19.00
  -5   2   3   21.30   15.30
   5   2  -3   20.90   21.80
  -5   2   3  -12.70   20.20
   5   2  -3    6.50   17.70
   5   2  -3   27.10   12.20
  -5   2   3   -7.80   15.40
   5   2  -3   -4.70   18.10
  -4  -2   3 2315.07   85.29
  -4  -2   3 2292.27   88.09
  -4  -2   3 2398.96   87.19
  -4  -2   3 2301.57   84.89
   4  -2  -3 2173.48   81.49
  -4  -2   3 2341.77   85.09
   4  -2  -3 2511.15   82.69
   4  -2  -3 2366.96   72.79
   4  -2  -3 2400.26   82.19
   4   2  -3 2322.77   84.59
   4   2  -3 2374.46   85.09
   4   2  -3 2246.08   86.79
   4   2  -3 2434.26   83.39
  -4   2   3 2553.94   82.69
  -4   2   3 2234.88   79.49
   4   2  -3 2287.17   86.49
  -4   2   3 2373.26   78.09
   4   2  -3 2371.16   77.39
  -3  -2   3   52.89   19.80
   3  -2  -3   30.10   12.40
  -3  -2   3   47.40   16.30
  -3  -2   3   36.60   13.50
   3  -2  -3   52.89   13.30
   3  -2  -3   44.90   14.20
  -3  -2   3   29.30   17.70
  -3  -2   3   43.40   16.80
   3   2  -3   52.19   14.90
  -3   2   3   40.30   13.30
  -3   2   3   38.00   13.00
   3   2  -3   55.79   18.60
  -3   2   3   49.60    7.80
   3   2  -3   55.69   16.60
   3   2  -3   52.49   13.20
  -3   2   3   62.69   12.60
  -3   2   3   41.30   13.00
   2  -2  -3   43.70   13.30
   2  -2  -3   58.79   13.30
  -2  -2   3   40.10   15.70
   2  -2  -3   63.79   13.20
  -2  -2   3   41.20   16.20
  -2  -2   3   71.19   16.30
  -2  -2   3   42.90   16.40
  -2  -2   3   51.29   16.50
   2  -2  -3   47.00   13.80
  -2   2   3   66.69   13.90
   2   2  -3   71.09   15.00
   2   2  -3   57.69   15.00
   2   2  -3   55.39   14.80
   2   2  -3   52.19   16.30
   2   2  -3   43.40   16.20
  -2   2   3   68.59   12.90
  -2   2   3   47.60   12.20
  -2   2   3   65.79   13.20
   1  -2  -3   23.10   13.70
  -1  -2   3   20.40   12.50
  -1  -2   3   22.90   14.10
   1  -2  -3   24.90   12.10
   1  -2  -3   15.10   13.00
   1  -2  -3   24.30   14.50
  -1  -2   3    8.60   12.80
   1   2  -3    1.00   13.00
  -1   2   3   15.80   12.70
   1   2  -3   12.90   11.80
  -1   2   3   12.90   11.90
  -1   2   3   18.80    8.50
   1   2  -3    9.70   14.00
  -1   2   3   13.10   11.50
   1   2  -3    7.00   14.30
  -1   2   3    8.50   12.90
   1   2  -3   16.60   12.80
   0  -2   3  676.73   31.20
   0  -2  -3  680.63   33.40
   0  -2   3  691.33   31.90
   0  -2   3  677.13   31.10
   0  -2   3  641.44   30.50
   0  -2  -3  689.03   34.20
   0  -2  -3  674.13   32.10
   0  -2  -3  590.54   34.00
   0   2   3  706.53   32.30
   0   2   3  613.44   31.60
   0   2  -3  660.73   34.10
   0   2  -3  641.04   30.40
   0   2   3  712.73   31.60
   0   2   3  695.23   32.40
   0   2   3  686.53   32.70
   0   2  -3  657.83   30.60
   0   2  -3  710.63   29.60
   1  -2   3  117.29   15.70
  -1  -2  -3  140.69   19.30
  -1  -2  -3  133.19   19.40
   1  -2   3  125.19   14.90
   1  -2   3  137.69   15.50
  -1  -2  -3  130.79   17.50
  -1  -2  -3  137.39   19.80
  -1   2  -3  135.69   14.90
   1   2   3  131.49   18.10
   1   2   3  142.09   18.80
   1   2   3  111.49   18.00
  -1   2  -3  130.49   16.40
   1   2   3  170.68   21.10
   1   2   3  105.49   18.10
  -1   2  -3  144.49   16.00
  -1   2  -3  136.99   14.50
  -2  -2  -3 2244.78   82.19
  -2  -2  -3 2104.39   81.19
   2  -2   3 2171.48   74.99
  -2  -2  -3 2147.59   80.29
   2  -2   3 2256.07   75.09
  -2  -2  -3 2305.97   78.29
   2  -2   3 2184.88   75.59
   2  -2   3 2201.98   75.49
   2   2   3 2301.07   80.79
  -2   2  -3 2251.17   72.79
   2   2   3 2216.68   78.99
  -2   2  -3 2270.47   72.19
  -2   2  -3 2255.17   74.89
   2   2   3 2297.47   78.89
   2   2   3 2217.58   79.09
  -3  -2  -3  184.48   23.50
  -3  -2  -3  190.38   22.60
   3  -2   3  218.98   24.90
   3  -2   3  205.58   23.80
   3  -2   3  217.58   23.10
   3  -2   3  199.08   22.90
  -3  -2  -3  238.08   31.80
  -3  -2  -3  163.88   27.90
  -3  -2  -3  186.88   26.80
   3   2   3  259.67   32.30
   3   2   3  210.08   25.40
  -3   2  -3  215.38   21.50
   3   2   3  221.28   26.90
  -3   2  -3  209.18   20.50
  -3   2  -3  192.78   21.40
   3   2   3  193.28   22.60
  -3   2  -3  210.98   23.50
   3   2   3  187.88   25.60
  -4  -2  -3 2380.56   92.99
  -4  -2  -3 2423.46   89.69
   4  -2   3 2414.86   88.39
   4  -2   3 2529.35   87.49
   4  -2   3 2363.96   88.69
  -4  -2  -3 2531.55   94.69
  -4  -2  -3 2392.96   97.09
   4  -2   3 2518.75   88.19
   4  -2   3 2391.86   92.59
  -4  -2  -3 2371.36   89.79
  -4   2  -3 2414.16   85.59
   4   2   3 2362.66   93.39
   4   2   3 2311.47   90.69
  -4   2  -3 2472.95   81.79
   4   2   3 2342.67   92.79
  -4   2  -3 2366.26   84.79
   4   2   3 2507.15   93.39
   4   2   3 2488.75   92.99
  -4   2  -3 2645.14   97.59
  -5  -2  -3   25.10   25.40
  -5  -2  -3    8.00   24.20
   5  -2   3   17.80   20.30
   5  -2   3   17.10   22.50
   5  -2   3  -13.50   21.10
   5   2   3   59.69   30.80
  -5   2  -3   33.00   17.60
  -5   2  -3   23.80   17.90
   5   2   3   45.50   25.20
   5   2   3   -0.80   24.20
  -6  -2  -3 1708.53   81.49
  -6  -2  -3 1760.52   81.79
   6  -2   3 1603.24   75.29
   6  -2   3 1719.23   78.99
   6  -2   3 1567.44   77.99
  -6   2  -3 2050.79   81.09
   6   2   3 1717.83   74.79
  -6   2  -3 1643.24   66.69
  -6   2  -3 1636.04   69.89
   6   2   3 1700.13   83.49
   6   2   3 1556.94   80.19
  -7  -2  -3    6.50   30.40
  -7  -2  -3   83.89   36.90
   7  -2   3   53.29   29.30
   7  -2   3  104.69   32.20
  -7   2  -3   41.40   23.50
  -7   2  -3   13.70   20.90
   7   2   3   61.19   33.70
   7   2   3   23.40   34.90
   7   2   3   43.40   24.20
   8  -2   3  648.94   63.59
  -8  -2  -3  708.73   72.39
  -8  -2  -3  761.82   68.49
   8  -2   3  732.23   70.39
   8   2   3  588.04   76.29
   8   2   3  772.92   73.79
   8   2   3  694.43   49.40
  -8   2  -3  649.24   43.20
  -8   2  -3  658.93   70.89
  -9  -2  -3  -16.40   54.49
   9  -2   3   45.20   37.40
  -9  -2  -3  -31.40   44.40
   9  -2   3   65.59   42.30
   9   2   3   -6.40   31.60
   9   2   3   62.09   45.70
   9   2   3   55.79   44.10
  10  -3  -3   14.60   39.40
 -10  -3   3   -9.00   46.40
 -10  -3   3  -31.70   44.70
  10  -3  -3   48.70   39.50
 -10  -3   3   -9.60   67.59
  10   3  -3   31.50   45.50
  10   3  -3  -26.70   41.00
  -9  -3   3  731.13   73.09
  -9  -3   3  634.94   70.89
   9  -3  -3  832.62   72.79
  -9  -3   3  753.72   79.99
   9  -3  -3  784.42   63.09
   9   3  -3  759.62   70.69
   9   3  -3  851.61   70.39
  -8  -3   3    5.30   31.70
   8  -3  -3   36.60   24.90
  -8  -3   3  -30.90   28.80
  -8  -3   3   14.50   39.00
   8  -3  -3  -10.70   26.30
   8   3  -3  -23.10   29.60
   8   3  -3   -7.60   33.80
  -8   3   3   24.10   21.00
  -7  -3   3  772.22   60.79
   7  -3  -3  778.22   41.40
  -7  -3   3  738.53   60.69
   7  -3  -3  781.82   51.09
   7  -3  -3  847.22   50.79
   7  -3  -3  836.22   57.29
  -7  -3   3  849.81   56.89
  -7   3   3  801.82   40.40
   7   3  -3  575.04   56.19
   7   3  -3  857.21   42.00
   7   3  -3  787.72   57.09
  -7   3   3  810.72   45.80
  -6  -3   3   18.20   26.90
   6  -3  -3  -13.80   19.40
  -6  -3   3    3.50   23.80
   6  -3  -3  -46.80   16.60
  -6  -3   3  -13.10   23.60
   6  -3  -3   15.70   20.80
   6   3  -3   13.20   16.70
  -6   3   3   -6.80   15.90
   6   3  -3    6.40   24.70
   6   3  -3   24.20   25.10
  -6   3   3   29.00   11.90
  -5  -3   3  876.11   50.69
  -5  -3   3  982.00   50.79
   5  -3  -3  902.31   45.90
  -5  -3   3  916.61   55.19
  -5  -3   3  880.41   48.90
  -5  -3   3  883.01   54.59
   5  -3  -3  848.02   43.20
   5  -3  -3  949.11   45.40
   5  -3  -3  988.70   34.50
   5   3  -3 1003.30   50.29
  -5   3   3  938.41   37.80
   5   3  -3  942.51   50.39
   5   3  -3  873.61   53.69
  -5   3   3  960.60   42.90
   5   3  -3  899.41   53.19
  -5   3   3  944.71   43.70
   5   3  -3  957.30   43.30
   5   3  -3  870.81   48.00
  -4  -3   3  499.25   38.30
   4  -3  -3  429.86   28.70
   4  -3  -3  457.45   28.60
  -4  -3   3  419.46   33.50
  -4  -3   3  401.86   38.60
  -4  -3   3  435.96   33.60
   4  -3  -3  475.85   30.70
  -4  -3   3  429.56   38.10
   4  -3  -3  448.16   30.10
  -4   3   3  407.16   27.60
  -4   3   3  451.25   22.90
  -4   3   3  447.76   23.20
   4   3  -3  496.65   38.70
   4   3  -3  432.56   33.00
  -4   3   3  464.25   16.00
   4   3  -3  477.75   32.40
   4   3  -3  420.06   36.40
   4   3  -3  383.16   32.30
  -4   3   3  459.55   26.40
   4   3  -3  468.45   30.30
   3  -3  -3  704.03   32.80
   3  -3  -3  665.73   34.10
  -3  -3   3  696.23   45.40
   3  -3  -3  746.43   37.70
  -3  -3   3  746.03   38.10
  -3  -3   3  712.43   39.40
   3  -3  -3  783.22   33.00
  -3  -3   3  796.92   38.50
  -3   3   3  736.63   28.30
  -3   3   3  682.33   28.00
  -3   3   3  736.13   31.50
  -3   3   3  680.53   28.50
   3   3  -3  715.33   36.10
   3   3  -3  608.54   44.00
   3   3  -3  725.83   36.80
  -3   3   3  681.73   32.10
   3   3  -3  721.43   36.80
   3   3  -3  688.93   38.60
   2  -3  -3 1607.24   56.69
  -2  -3   3 1631.24   60.19
   2  -3  -3 1630.14   55.79
  -2  -3   3 1628.74   59.99
   2  -3  -3 1633.24   55.89
  -2  -3   3 1540.35   59.99
  -2  -3   3 1570.54   60.89
  -2   3   3 1541.95   52.69
   2   3  -3 1604.64   60.19
   2   3  -3 1646.14   60.19
   2   3  -3 1654.93   58.29
  -2   3   3 1587.24   54.79
  -2   3   3 1625.44   55.59
  -2   3   3 1557.64   52.79
  -2   3   3 1629.14   55.39
   2   3  -3 1663.33   59.09
  -1  -3   3 1302.87   49.99
   1  -3  -3 1289.27   44.10
   1  -3  -3 1283.77   47.30
  -1  -3   3 1346.47   49.00
   1  -3  -3 1311.37   48.60
  -1  -3   3 1360.46   49.10
   1  -3  -3 1327.57   47.40
  -1  -3   3 1247.68   49.20
   1  -3  -3 1291.67   48.20
  -1   3   3 1249.68   47.40
   1   3  -3 1372.16   52.59
   1   3  -3 1293.97   48.00
  -1   3   3 1343.97   46.30
   1   3  -3 1266.57   48.20
  -1   3   3 1247.78   45.90
   1   3  -3 1349.77   49.30
   1   3  -3 1321.97   47.30
  -1   3   3 1348.86   47.10
  -1   3   3 1314.47   43.60
   0  -3   3 1859.71   61.49
   0  -3   3 1762.72   61.39
   0  -3  -3 1751.62   63.59
   0  -3  -3 1901.81   63.39
   0  -3  -3 1691.73   63.69
   0  -3   3 1734.93   60.89
   0  -3  -3 1796.72   62.99
   0  -3  -3 1909.11   63.49
   0   3   3 1731.13   62.39
   0   3   3 1856.91   63.29
   0   3  -3 1929.71   60.79
   0   3  -3 1793.52   60.99
   0   3  -3 1827.72   58.59
   0   3  -3 1801.92   59.09
   0   3   3 1726.93   61.99
   0   3   3 1794.42   61.69
   0   3   3 1826.62   61.99
   0   3  -3 1794.82   66.59
  -1  -3  -3   49.90   17.40
   1  -3   3   65.79   11.60
  -1  -3  -3   80.69   18.60
   1  -3   3   70.09   14.20
   1  -3   3   56.39   12.20
  -1  -3  -3   67.49   17.80
  -1  -3  -3   52.59   14.80
   1  -3   3   66.39   12.40
  -1   3  -3   55.99    9.00
   1   3   3   60.39   16.50
  -1   3  -3   62.09   11.40
   1   3   3   44.50   15.00
  -1   3  -3   54.39   10.90
   1   3   3   80.79   16.40
   1   3   3   61.59   16.60
  -1   3  -3   57.09    8.70
  -2  -3  -3 1832.22   66.69
   2  -3   3 1822.22   62.09
   2  -3   3 1844.02   62.49
  -2  -3  -3 1684.03   76.89
   2  -3   3 1757.72   61.79
  -2  -3  -3 1838.62   67.79
   2  -3   3 1768.22   62.39
   2   3   3 1872.81   68.29
   2   3   3 1725.43   66.99
   2   3   3 1795.12   69.29
  -2   3  -3 1744.43   60.59
   2   3   3 1813.02   67.49
  -2   3  -3 1788.32   57.19
   3  -3   3 1227.88   50.79
  -3  -3  -3 1321.97   56.19
   3  -3   3 1270.77   50.49
  -3  -3  -3 1285.77   62.39
  -3  -3  -3 1196.78   59.09
   3  -3   3 1275.37   50.39
  -3  -3  -3 1236.38   58.99
  -3  -3  -3 1299.57   55.09
   3  -3   3 1231.08   50.89
  -3   3  -3 1270.37   42.40
  -3   3  -3 1273.17   47.60
   3   3   3 1164.68   58.09
  -3   3  -3 1282.77   43.60
   3   3   3 1295.27   58.99
  -3   3  -3 1272.47   48.20
   3   3   3 1258.27   57.29
   3   3   3 1259.77   56.09
   3   3   3 1315.77   56.89
   4  -3   3  603.34   43.30
  -4  -3  -3  554.54   46.30
   4  -3   3  626.74   37.90
  -4  -3  -3  686.43   42.40
   4  -3   3  606.34   37.10
   4  -3   3  665.53   37.70
  -4  -3  -3  541.85   39.40
  -4  -3  -3  565.54   49.70
   4  -3   3  615.84   38.40
  -4  -3  -3  505.35   45.90
  -4   3  -3  630.74   26.60
  -4   3  -3  594.64   26.20
   4   3   3  630.34   44.00
  -4   3  -3  647.24   33.90
   4   3   3  631.94   47.00
   4   3   3  596.54   42.50
   4   3   3  562.14   42.20
  -4   3  -3  587.24   32.40
  -5  -3  -3 2636.84  112.49
   5  -3   3 2897.21  101.59
   5  -3   3 2927.11  103.29
  -5  -3  -3 2823.12  109.99
  -5  -3  -3 2736.13  109.59
   5  -3   3 2770.82  100.69
  -5   3  -3 2817.02   96.89
  -5   3  -3 2854.01   94.59
   5   3   3 2762.12  103.79
   5   3   3 2743.33  110.09
   5   3   3 2715.43  107.29
   6  -3   3  -24.10   27.40
  -6  -3  -3  -42.40   28.80
   6  -3   3    3.40   22.10
  -6  -3  -3   26.80   31.60
  -6  -3  -3  -11.20   26.10
   6  -3   3    6.20   23.80
   6   3   3   46.00   29.10
   6   3   3  -55.79   27.20
   6   3   3  -21.90   24.50
  -6   3  -3  -10.60   17.30
  -7  -3  -3 1661.53   88.99
  -7  -3  -3 1613.94   87.09
   7  -3   3 1518.25   78.19
   7  -3   3 1610.24   80.49
   7   3   3 1607.64   88.59
   7   3   3 1677.23   89.89
   7   3   3 1524.55   74.59
   8  -3   3  165.78   36.80
  -8  -3  -3  123.19   44.40
   8  -3   3  227.58   42.10
  -8  -3  -3  120.79   54.59
   8   3   3  262.37   48.30
   8   3   3  116.79   31.20
   8   3   3  140.09   41.60
   9  -3   3  316.67   52.69
  -9  -3  -3  343.67   56.99
   9  -3   3  378.46   51.39
   9   3   3  431.36   59.59
   9   3   3  303.27   49.20
   9   3   3  371.96   61.79
  -9  -4   3  308.17   54.49
   9  -4  -3  304.07   45.70
  -9  -4   3  314.77   55.69
   9  -4  -3  308.87   39.60
  -9  -4   3  288.87   52.69
   9   4  -3  270.67   51.29
   9   4  -3  311.97   50.69
  -8  -4   3   94.59   43.40
   8  -4  -3  108.19   30.40
  -8  -4   3  115.29   39.30
  -8  -4   3  109.39   37.80
   8  -4  -3  136.89   34.80
   8   4  -3  135.29   41.00
   8   4  -3  145.29   39.40
   8   4  -3  139.99   23.80
  -7  -4   3  -48.00   30.20
  -7  -4   3    9.10   30.50
   7  -4  -3   35.50   21.90
  -7  -4   3  -18.60   26.60
   7  -4  -3    7.10   20.90
   7  -4  -3  111.69   27.90
  -7   4   3   -5.70   17.70
   7   4  -3  -22.60   25.60
   7   4  -3   54.09   16.90
   7   4  -3    8.80   30.00
  -6  -4   3   71.29   27.20
   6  -4  -3   59.39   11.40
  -6  -4   3   43.40   28.90
   6  -4  -3  104.59   23.30
   6  -4  -3   56.29   19.80
   6  -4  -3   45.20   22.70
  -6  -4   3   57.99   30.30
   6   4  -3   59.79   28.60
   6   4  -3   67.99   28.90
  -6   4   3   50.39   15.70
   6   4  -3   45.30   18.90
   5  -4  -3  910.41   30.30
   5  -4  -3  946.71   43.40
   5  -4  -3  814.42   43.70
   5  -4  -3  864.51   44.20
  -5  -4   3  924.91   52.69
   5  -4  -3  951.80   45.40
  -5  -4   3  868.01   55.39
  -5  -4   3  866.91   54.69
  -5  -4   3  893.11   55.19
   5   4  -3  928.81   52.79
   5   4  -3  903.91   45.50
   5   4  -3  927.01   54.29
  -5   4   3  874.61   39.10
   5   4  -3  943.31   51.99
  -5   4   3  945.81   40.00
   5   4  -3  904.81   53.89
   4  -4  -3   15.80   12.60
  -4  -4   3   -7.20   21.80
   4  -4  -3    8.30   13.80
   4  -4  -3   23.00   13.70
  -4  -4   3   41.30   23.40
   4  -4  -3   18.60   12.80
  -4  -4   3    6.20   17.60
  -4  -4   3   14.60   20.50
  -4  -4   3   17.00   20.20
   4   4  -3   10.70   20.20
  -4   4   3    7.00    9.00
   4   4  -3    6.10   20.50
  -4   4   3   26.80   15.30
   4   4  -3   22.20   18.10
   4   4  -3   26.30   18.60
   4   4  -3   -8.10   18.30
  -4   4   3   25.10   10.40
   3  -4  -3 2976.30   93.59
  -3  -4   3 2827.72  101.19
  -3  -4   3 2797.92   98.99
   3  -4  -3 2986.30   93.39
   3  -4  -3 2570.34   93.59
  -3  -4   3 2849.31  101.39
  -3  -4   3 2881.31  101.59
   3  -4  -3 2782.22   93.39
  -3  -4   3 3081.19  100.89
  -3   4   3 2940.31   90.99
  -3   4   3 2960.00   92.09
   3   4  -3 3050.99   98.89
   3   4  -3 2802.32   98.59
   3   4  -3 2904.61   99.49
   3   4  -3 2870.61  100.39
   3   4  -3 3009.80   99.79
  -2  -4   3   16.60   22.10
   2  -4  -3   21.00   10.50
  -2  -4   3   28.50   14.60
   2  -4  -3   17.20    4.90
   2  -4  -3   26.00   12.20
   2  -4  -3   23.20   10.10
  -2  -4   3   15.20   15.60
  -2  -4   3   10.00   14.50
   2  -4  -3   23.90   11.80
   2   4  -3   41.10   15.70
  -2   4   3   17.00    8.90
   2   4  -3   15.60   14.80
   2   4  -3   -3.00   15.40
   2   4  -3    4.30   15.80
   2   4  -3   16.60   12.50
  -2   4   3   18.70    8.60
  -2   4   3   27.80   13.90
  -1  -4   3 7527.35  228.98
  -1  -4   3 8039.50  229.68
   1  -4  -3 7952.30  228.08
   1  -4  -3 7093.69  228.48
  -1  -4   3 7621.34  229.68
   1  -4  -3 7845.42  227.58
   1  -4  -3 7499.05  225.58
   1  -4  -3 7521.75  228.28
  -1  -4   3 7569.74  229.18
  -1   4   3 7899.31  227.28
   1   4  -3 7798.42  228.18
   1   4  -3 7793.72  228.78
  -1   4   3 7658.33  224.18
   1   4  -3 7456.75  226.58
  -1   4   3 7046.69  223.48
  -1   4   3 7451.15  224.88
  -1   4   3 7785.62  231.18
  -1   4   3 7598.34  226.68
   1   4  -3 7745.13  226.38
   1   4  -3 7594.14  233.08
   0  -4  -3    6.20   12.20
   0  -4  -3   -6.50   11.70
   0  -4  -3   -7.60   13.50
   0  -4  -3    1.60   14.50
   0  -4  -3  -21.70   12.70
   0  -4   3   15.00   10.50
   0  -4   3   -5.30   10.30
   0   4   3    0.60   11.50
   0   4  -3  -11.30   16.90
   0   4   3    4.10   11.20
   0   4  -3    4.90    6.30
   0   4   3   13.30   12.10
   0   4  -3   16.00    9.70
   0   4  -3    3.00    7.00
   0   4   3    7.80   18.20
   0   4   3    4.50   11.80
   0   4  -3   13.80    9.30
   1  -4   3 5531.25  167.78
  -1  -4  -3 5193.28  181.38
  -1  -4  -3 5760.52  172.98
   1  -4   3 5485.05  167.88
   1  -4   3 5209.78  168.38
  -1  -4  -3 5227.58  174.78
   1  -4   3 5665.43  168.18
   1   4   3 5882.61  172.58
   1   4   3 5404.96  171.28
   1   4   3 5805.72  173.58
   1   4   3 5800.82  174.58
  -1   4  -3 5637.54  166.18
  -1   4  -3 5654.93  175.68
   1   4   3 5736.03  177.18
   1   4   3 5628.94  172.78
  -2  -4  -3   36.80   21.90
  -2  -4  -3   -2.70   18.90
  -2  -4  -3   20.10   15.40
   2  -4   3   16.20   10.80
  -2  -4  -3    0.10   15.50
   2  -4   3   20.00   11.60
   2  -4   3    4.30   10.40
  -2  -4  -3   48.10   20.40
   2   4   3   64.39   21.50
  -2   4  -3   16.50    8.20
   2   4   3    3.80   18.30
   2   4   3   11.60   14.90
   2   4   3    4.90   17.20
   2   4   3    6.10   16.20
   2   4   3   32.70   16.60
   3  -4   3  588.84   32.30
   3  -4   3  616.84   32.80
  -3  -4  -3  612.54   43.70
  -3  -4  -3  567.94   40.60
   3  -4   3  570.64   32.10
  -3  -4  -3  590.04   44.50
  -3  -4  -3  628.84   38.80
   3  -4   3  613.84   31.50
  -3  -4  -3  610.54   39.70
   3   4   3  655.13   42.40
   3   4   3  645.14   40.50
   3   4   3  562.84   40.50
   3   4   3  673.23   42.30
   3   4   3  537.15   38.60
  -3   4  -3  641.24   27.60
   3   4   3  621.64   42.30
  -4  -4  -3  105.39   28.50
   4  -4   3  111.49   19.30
  -4  -4  -3   80.89   30.60
   4  -4   3  118.59   19.40
  -4  -4  -3  182.18   28.20
   4  -4   3   94.89   28.00
   4  -4   3  154.18   19.30
  -4  -4  -3  106.19   27.60
   4   4   3  167.38   35.00
   4   4   3  111.09   27.40
   4   4   3  131.69   27.80
  -4   4  -3  178.18   19.70
   4   4   3  101.19   27.60
   5  -4   3   40.70   18.90
  -5  -4  -3   17.80   26.40
   5  -4   3   21.10   18.60
  -5  -4  -3   39.00   26.80
   5  -4   3   30.30   18.90
  -5  -4  -3    2.90   29.80
   5   4   3   68.99   27.40
   5   4   3   49.90   25.40
  -5   4  -3   13.20   13.00
   5   4   3   24.80   26.40
   6  -4   3   77.59   26.50
  -6  -4  -3   25.70   33.70
   6  -4   3  107.69   24.50
  -6  -4  -3  125.79   35.10
  -6  -4  -3   99.09   35.50
   6  -4   3   75.49   24.30
   6   4   3  139.19   32.30
   6   4   3  102.69   28.50
   6   4   3   94.49   31.90
  -6   4  -3   65.59   18.80
   7  -4   3  179.98   32.20
   7  -4   3  165.78   34.20
  -7  -4  -3  223.08   49.50
  -7  -4  -3  135.09   39.90
   7   4   3  195.78   45.30
   7   4   3  232.08   35.30
   7   4   3  231.38   45.90
  -8  -4  -3   39.40   48.00
   8  -4   3   -2.60   27.60
   8  -4   3   42.00   33.20
   8   4   3   38.50   36.80
   8   4   3   35.00   40.60
   8   4   3   57.49   30.80
   9  -5  -3  203.78   35.90
   9  -5  -3  264.47   40.70
  -9  -5   3  236.68   55.89
  -9  -5   3  186.18   50.69
  -9  -5   3  224.08   50.49
   9   5  -3  231.18   49.99
   9   5  -3  210.18   49.00
   8  -5  -3  -25.10   28.60
  -8  -5   3   16.40   38.30
  -8  -5   3  -21.10   52.89
   8  -5  -3   10.90   24.20
  -8  -5   3   29.60   38.70
   8   5  -3  -68.89   35.10
   8   5  -3   33.90   24.20
   8   5  -3  -17.20   39.30
   7  -5  -3  161.28   26.30
  -7  -5   3  166.68   40.60
   7  -5  -3  145.49   17.30
  -7  -5   3  182.08   37.40
  -7  -5   3   84.29   32.80
   7  -5  -3  164.48   25.70
   7   5  -3  103.39   35.30
   7   5  -3  205.18   28.20
   7   5  -3  172.88   36.40
  -6  -5   3   50.79   29.30
   6  -5  -3   17.80   17.50
   6  -5  -3   73.39    8.50
  -6  -5   3   59.99   29.60
   6  -5  -3   64.19   21.10
  -6  -5   3   76.19   29.70
   6  -5  -3   82.79   20.00
   6   5  -3   63.39   30.10
  -6   5   3   81.79   13.90
   6   5  -3   61.89   21.90
  -6   5   3   73.89   25.30
   6   5  -3   11.30   29.10
  -5  -5   3  317.57   36.40
  -5  -5   3  318.37   38.90
   5  -5  -3  319.87   31.50
  -5  -5   3  288.97   37.20
  -5  -5   3  370.66   43.30
   5  -5  -3  347.57   29.40
   5  -5  -3  317.87   27.60
  -5   5   3  325.07   21.20
   5   5  -3  311.57   36.40
   5   5  -3  336.97   40.90
   5   5  -3  324.87   36.60
  -5   5   3  324.37   21.00
   4  -5  -3  529.35   30.90
  -4  -5   3  560.74   41.80
  -4  -5   3  540.65   43.60
  -4  -5   3  573.34   43.90
   4  -5  -3  547.35   30.10
   4  -5  -3  532.55   29.80
  -4  -5   3  536.15   46.10
   4   5  -3  582.74   39.10
  -4   5   3  532.35   23.80
  -4   5   3  569.24   24.80
  -4   5   3  549.95   27.60
   4   5  -3  541.15   40.60
   4   5  -3  522.65   41.50
   4   5  -3  577.84   39.90
  -3  -5   3  579.04   36.50
   3  -5  -3  552.74   29.50
   3  -5  -3  554.04   28.30
  -3  -5   3  678.23   39.00
  -3  -5   3  564.54   43.30
   3  -5  -3  602.34   29.30
   3  -5  -3  555.04   29.80
  -3  -5   3  540.45   39.70
  -3  -5   3  622.44   41.30
   3   5  -3  572.84   37.80
   3   5  -3  562.64   35.30
   3   5  -3  592.04   39.30
  -3   5   3  612.14   36.30
   3   5  -3  548.05   36.60
  -3   5   3  573.34   24.20
  -3   5   3  654.93   24.30
   3   5  -3  642.64   35.20
   2  -5  -3 2907.51   91.79
   2  -5  -3 2956.30   88.29
   2  -5  -3 2961.60   91.39
  -2  -5   3 2646.84   97.39
  -2  -5   3 2855.11   97.69
  -2  -5   3 2865.11  103.19
  -2  -5   3 2976.00   97.99
   2  -5  -3 2823.82   91.79
  -2  -5   3 2909.11   98.09
   2   5  -3 2901.01   96.99
   2   5  -3 2920.51   96.69
   2   5  -3 2878.31   95.69
  -2   5   3 2849.42   88.89
   2   5  -3 2780.62  100.09
  -2   5   3 2871.21   89.69
  -2   5   3 2852.21   96.09
   2   5  -3 2806.82   94.69
  -1  -5   3  484.95   30.10
   1  -5  -3  484.05   27.00
  -1  -5   3  460.25   28.10
  -1  -5   3  422.96   27.70
  -1  -5   3  521.95   29.00
  -1  -5   3  481.05   32.90
   1  -5  -3  477.45   26.80
   1  -5  -3  500.55   26.30
   1  -5  -3  505.65   28.50
  -1   5   3  516.55   34.00
   1   5  -3  523.95   23.60
   1   5  -3  504.05   23.90
  -1   5   3  510.95   25.00
  -1   5   3  538.25   25.10
   1   5  -3  477.45   26.70
   1   5  -3  462.35   35.10
  -1   5   3  507.95   24.20
   1   5  -3  492.15   28.00
   0  -5   3 2973.90   93.79
   0  -5  -3 2864.81   96.09
   0  -5  -3 2717.43   96.49
   0  -5  -3 2894.71   97.79
   0  -5  -3 3033.40   96.19
   0  -5  -3 2942.41   97.99
   0  -5   3 2887.11   93.59
   0  -5   3 3052.69   94.19
   0  -5   3 3022.80   98.69
   0   5  -3 2902.71  102.19
   0   5   3 3023.60   97.09
   0   5  -3 3017.70   91.59
   0   5   3 2906.51   92.49
   0   5   3 3033.90   95.39
   0   5   3 2724.23   91.59
   0   5   3 2869.11  101.59
   0   5   3 2968.00   95.59
  -1  -5  -3  126.99   22.20
  -1  -5  -3  152.08   19.30
   1  -5   3  165.08   17.00
  -1  -5  -3  180.48   22.90
   1  -5   3  165.48   17.20
   1  -5   3  157.68   17.00
   1  -5   3  142.99   17.80
   1   5   3  188.88   22.60
  -1   5  -3  156.18   12.10
   1   5   3  165.18   25.70
   1   5   3  189.88   22.30
  -1   5  -3  154.38   23.60
  -1   5  -3  170.18   13.00
   1   5   3  123.39   18.70
   1   5   3  162.38   19.70
  -2  -5  -3 2818.12  103.09
  -2  -5  -3 3065.39  101.49
  -2  -5  -3 2820.12   99.49
  -2  -5  -3 2804.62  101.99
  -2  -5  -3 2799.02  104.59
   2  -5   3 2915.01   91.59
   2  -5   3 2776.42   91.09
   2  -5   3 2851.01   91.39
   2  -5   3 2743.23   91.39
  -2   5  -3 2824.12  100.99
   2   5   3 2883.51  102.69
   2   5   3 2817.42  101.39
  -2   5  -3 2900.61   85.99
  -2   5  -3 2891.21   85.89
   2   5   3 2946.51   99.79
   2   5   3 2840.82  102.89
   2   5   3 2991.60   99.29
   2   5   3 2930.01  100.99
   3  -5   3  360.76   26.20
  -3  -5  -3  364.96   37.30
  -3  -5  -3  344.07   40.10
   3  -5   3  370.26   25.30
  -3  -5  -3  358.66   39.10
   3  -5   3  389.86   25.60
   3  -5   3  388.66   26.00
  -3  -5  -3  430.86   41.70
   3   5   3  342.77   35.00
  -3   5  -3  401.26   17.10
   3   5   3  377.56   38.10
   3   5   3  387.06   39.00
  -3   5  -3  399.56   17.40
   3   5   3  403.66   39.20
   3   5   3  435.56   36.90
  -4  -5  -3  751.22   50.19
   4  -5   3  705.43   37.00
   4  -5   3  676.93   36.90
   4  -5   3  740.73   37.20
  -4  -5  -3  653.53   53.19
  -4  -5  -3  744.23   52.19
   4  -5   3  719.53   39.50
   4   5   3  745.33   51.49
   4   5   3  754.52   51.69
  -4   5  -3  707.23   28.30
   4   5   3  722.93   50.89
  -4   5  -3  748.73   28.80
   5  -5   3  987.30   48.20
  -5  -5  -3  969.90   63.39
   5  -5   3  947.81   48.10
  -5  -5  -3  910.11   66.39
  -5  -5  -3  958.90   64.49
   5  -5   3 1043.90   50.19
   5   5   3 1008.80   58.59
  -5   5  -3  957.30   39.50
   5   5   3 1067.49   64.29
  -5   5  -3 1006.30   38.70
   5   5   3  976.70   63.59
   6  -5   3  -13.90   19.10
  -6  -5  -3  -45.40   31.30
  -6  -5  -3  -20.60   28.00
   6  -5   3  -26.70   18.10
   6  -5   3  -11.80   21.90
  -6  -5  -3   32.10   36.50
  -6   5  -3  -18.80   13.30
   6   5   3   37.30   31.70
   6   5   3  -18.70   26.80
   6   5   3   19.80   31.40
  -7  -5  -3  728.23   71.99
   7  -5   3  668.73   51.79
  -7  -5  -3  704.93   75.39
   7  -5   3  712.63   57.59
  -7  -5  -3  658.23   82.29
   7   5   3  690.93   59.09
   7   5   3  671.23   74.89
   7   5   3  705.73   77.19
   8  -5   3  278.57   39.10
  -8  -5  -3  186.58   55.79
   8  -5   3  288.27   43.30
  -8  -5  -3  125.49   48.50
   8   5   3  209.48   50.39
   8   5   3  200.18   36.60
   8   5   3  345.37   54.39
  -9  -6   3   59.69   49.70
  -9  -6   3   13.20   47.50
   9  -6  -3    0.50   38.30
   9  -6  -3   29.20   28.90
  -9  -6   3   52.89   46.60
   9   6  -3  -95.49   42.30
   9   6  -3  -39.40   43.50
  -8  -6   3 1675.53   97.59
  -8  -6   3 1623.34   97.39
   8  -6  -3 1503.85   72.99
  -8  -6   3 1548.95   99.49
   8  -6  -3 1441.46   74.39
   8   6  -3 1381.06   92.09
   8   6  -3 1408.86   94.29
   8   6  -3 1546.85   69.69
  -7  -6   3   42.70   38.10
  -7  -6   3   -8.80   32.90
   7  -6  -3   30.90   20.50
  -7  -6   3    4.10   32.30
   7   6  -3    4.00   34.00
   7   6  -3   31.10   23.80
   7   6  -3   18.50   29.80
   6  -6  -3 2101.99   78.49
  -6  -6   3 1982.80   95.69
   6  -6  -3 1992.30   76.79
   6  -6  -3 2050.89   78.89
  -6  -6   3 2170.78   96.19
  -6  -6   3 1983.00   97.19
   6   6  -3 2007.20   85.09
   6   6  -3 2181.08   91.89
   6   6  -3 2183.78   94.69
   5  -6  -3   80.29   16.70
  -5  -6   3  160.28   34.80
   5  -6  -3  132.19   19.00
  -5  -6   3  154.38   31.80
  -5  -6   3   81.49   28.80
   5  -6  -3  138.99   17.40
   5  -6  -3  153.18   22.70
   5   6  -3  138.29   30.10
   5   6  -3   85.99   27.50
  -5   6   3  134.39   17.30
   5   6  -3  169.28   30.30
  -4  -6   3 2011.60   83.79
  -4  -6   3 2028.20   82.89
   4  -6  -3 1972.50   69.49
   4  -6  -3 2013.60   69.99
  -4  -6   3 2034.10   87.59
  -4  -6   3 1981.00   83.09
   4  -6  -3 1911.11   68.09
   4  -6  -3 1843.82   68.19
   4   6  -3 1935.71   79.79
   4   6  -3 2014.90   81.89
   4   6  -3 2001.40   80.69
  -4   6   3 2021.90   71.19
   4   6  -3 1974.20   77.89
  -3  -6   3  181.88   26.60
  -3  -6   3  192.48   25.00
   3  -6  -3  147.29   16.40
   3  -6  -3  174.58   12.90
   3  -6  -3  157.68   19.80
   3  -6  -3  138.29   17.60
  -3  -6   3  177.78   26.80
  -3  -6   3  170.08   23.50
   3  -6  -3  171.58   16.60
  -3  -6   3  184.38   31.40
  -3   6   3  190.88   22.90
   3   6  -3  120.89   20.10
   3   6  -3  193.38   24.40
   3   6  -3  171.08   23.40
   3   6  -3  149.09   27.40
   3   6  -3  202.18   24.60
   2  -6  -3  135.19   15.70
  -2  -6   3  153.88   22.90
   2  -6  -3  169.78   17.70
  -2  -6   3  135.89   26.70
   2  -6  -3  163.68   18.80
   2  -6  -3  142.99   16.40
  -2  -6   3  140.99   23.30
  -2  -6   3  168.68   22.90
  -2  -6   3  161.18   21.60
   2  -6  -3  159.28   18.20
  -2   6   3  142.49   11.80
   2   6  -3  117.69   15.60
   2   6  -3  159.68   20.70
  -2   6   3  138.09   11.50
  -2   6   3  152.48   22.30
   2   6  -3  186.48   19.90
   2   6  -3  124.09   17.60
   2   6  -3  106.69   25.10
  -1  -6   3  262.17   25.80
   1  -6  -3  262.57   23.60
  -1  -6   3  250.17   26.00
  -1  -6   3  283.87   24.50
   1  -6  -3  214.48   21.40
  -1  -6   3  274.87   23.80
   1  -6  -3  292.87   21.50
  -1  -6   3  245.28   28.40
   1  -6  -3  273.67   23.70
   1  -6  -3  251.47   23.70
   1   6  -3  250.57   21.90
   1   6  -3  263.47   13.80
  -1   6   3  256.57   19.10
   1   6  -3  277.17   33.20
  -1   6   3  261.77   30.60
   1   6  -3  292.57   21.20
   0  -6  -3  745.53   40.90
   0  -6   3  742.73   33.60
   0  -6   3  655.63   32.80
   0  -6   3  763.42   33.00
   0  -6  -3  658.73   34.00
   0  -6  -3  696.03   37.60
   0  -6   3  713.43   34.00
   0  -6  -3  712.13   37.80
   0  -6  -3  719.53   36.10
   0   6   3  722.93   33.90
   0   6  -3  745.53   28.40
   0   6   3  791.92   45.20
   0   6  -3  701.93   28.70
   0   6   3  729.43   28.40
   0   6  -3  681.33   43.60
   0   6   3  740.63   35.90
   0   6   3  730.33   33.90
   0   6   3  721.33   28.20
   1  -6   3  399.86   23.60
  -1  -6  -3  398.06   35.60
   1  -6   3  416.66   22.20
  -1  -6  -3  382.86   36.10
  -1  -6  -3  419.46   33.20
  -1  -6  -3  408.56   31.70
   1  -6   3  390.76   23.80
   1   6   3  430.96   38.50
   1   6   3  399.06   27.00
   1   6   3  422.06   32.00
   1   6   3  417.46   30.30
   1   6   3  411.96   28.20
  -1   6  -3  321.57   36.40
   1   6   3  354.96   29.10
  -2  -6  -3 1691.73   72.59
   2  -6   3 1778.62   58.59
  -2  -6  -3 1726.63   74.79
  -2  -6  -3 1718.93   69.59
   2  -6   3 1677.23   58.09
  -2  -6  -3 1607.84   71.09
   2  -6   3 1711.63   57.69
  -2  -6  -3 1574.14   67.59
   2  -6   3 1696.13   58.39
   2   6   3 1822.62   67.49
   2   6   3 1801.52   69.19
   2   6   3 1648.83   69.09
   2   6   3 1756.12   74.79
   2   6   3 1699.03   70.99
  -2   6  -3 1654.83   71.19
   2   6   3 1605.34   65.99
  -3  -6  -3  106.69   25.50
  -3  -6  -3   75.99   28.40
  -3  -6  -3   59.79   26.70
   3  -6   3   86.59   14.30
   3  -6   3   71.09   13.80
   3  -6   3   84.59   13.30
   3  -6   3  104.39   14.90
  -3  -6  -3   84.49   24.60
   3   6   3   83.29   24.60
   3   6   3   74.59   24.60
   3   6   3  130.79   28.00
   3   6   3   99.79   24.70
   4  -6   3 1743.03   62.29
   4  -6   3 1753.32   65.99
  -4  -6  -3 1659.63   84.29
   4  -6   3 1784.12   63.89
   4  -6   3 1645.74   62.19
  -4  -6  -3 1566.44   79.99
  -4  -6  -3 1674.73   81.19
   4   6   3 1722.13   76.39
   4   6   3 1677.43   78.39
   4   6   3 1722.93   77.99
   5  -6   3   14.20   16.40
   5  -6   3    2.00   15.70
  -5  -6  -3  -18.70   29.20
  -5  -6  -3    2.00   29.30
  -5  -6  -3   35.60   31.80
   5   6   3   42.10   27.90
   5   6   3  -12.10   26.40
   5   6   3  -25.60   27.40
  -6  -6  -3  894.71   73.59
   6  -6   3  803.62   46.40
   6  -6   3  826.62   49.20
  -6  -6  -3  943.61   70.59
  -6  -6  -3  947.81   79.29
   6   6   3  770.02   63.79
   6   6   3  864.01   64.69
   6   6   3  836.42   71.99
  -7  -6  -3    1.50   40.10
   7  -6   3   -3.20   24.90
  -7  -6  -3   -8.00   41.40
  -7  -6  -3   57.29   40.70
   7  -6   3   -2.10   26.00
   7   6   3   16.90   35.40
   7   6   3  -40.00   42.70
   7   6   3   -6.10   41.90
   8  -6   3  757.52   66.89
  -8  -6  -3  644.44   71.79
  -8  -6  -3  723.63   85.39
  -8  -6  -3  732.73   79.79
   8  -6   3  630.14   54.19
   8   6   3  544.35   54.89
   8   6   3  591.24   75.29
   8   6   3  676.63   78.79
   9  -7  -3  613.34   53.69
  -9  -7   3  688.53   82.59
  -9  -7   3  840.42   84.89
   9   7  -3  658.03   56.89
   9   7  -3  834.42   80.19
   9   7  -3  683.03   82.49
   8  -7  -3   -3.00   25.50
  -8  -7   3    2.00   40.00
   8  -7  -3   25.00   28.40
  -8  -7   3   45.40   40.80
  -8  -7   3   14.10   42.60
   8   7  -3   28.90   41.80
   8   7  -3    2.20   42.00
   8   7  -3   36.90   27.90
   7  -7  -3  897.31   52.59
  -7  -7   3  949.01   78.29
  -7  -7   3  925.21   81.69
   7  -7  -3  985.60   49.70
  -7  -7   3  951.70   80.89
   7   7  -3  858.11   76.39
   7   7  -3  985.90   68.49
   7   7  -3  989.60   58.89
   6  -7  -3   40.20   17.20
  -6  -7   3   21.20   31.80
  -6  -7   3   73.19   30.80
  -6  -7   3  -15.10   32.40
   6  -7  -3   29.50   17.00
   6   7  -3   41.10   30.50
   6   7  -3   31.80   26.60
   6   7  -3   64.39   30.40
   5  -7  -3  968.90   43.80
  -5  -7   3  966.10   67.39
  -5  -7   3  855.91   60.99
   5  -7  -3  919.31   41.70
  -5  -7   3  917.91   63.39
   5  -7  -3  913.01   41.50
   5  -7  -3  946.51   46.70
   5   7  -3  970.90   60.29
   5   7  -3  943.11   58.09
   5   7  -3  902.81   57.29
  -5   7   3  955.30   45.90
  -4  -7   3   28.70   24.90
   4  -7  -3   92.79   14.10
  -4  -7   3   52.69   25.40
   4  -7  -3   69.69   14.70
   4  -7  -3   72.79   14.00
   4  -7  -3   52.19    6.30
  -4  -7   3   37.20   29.50
   4  -7  -3   37.20   14.80
  -4  -7   3   64.49   28.40
   4  -7  -3   58.39    6.80
  -4   7   3   70.99   19.60
   4   7  -3   59.99   28.40
   4   7  -3   63.39   21.80
   4   7  -3   48.10   23.70
   4   7  -3   44.90   22.10
   3  -7  -3  731.33   34.30
  -3  -7   3  780.12   55.29
   3  -7  -3  759.12   32.60
   3  -7  -3  729.53   32.90
   3  -7  -3  711.83   30.90
  -3  -7   3  752.92   47.00
   3  -7  -3  762.52   33.80
  -3  -7   3  706.63   47.90
  -3  -7   3  756.32   45.70
   3   7  -3  714.33   37.90
   3   7  -3  731.53   49.50
   3   7  -3  784.22   41.60
   3   7  -3  695.23   41.30
  -3   7   3  804.42   41.40
  -2  -7   3  438.86   36.40
  -2  -7   3  400.16   34.20
  -2  -7   3  404.06   32.00
  -2  -7   3  431.36   37.60
   2  -7  -3  420.36   26.40
   2  -7  -3  409.36   25.90
   2  -7  -3  447.66   25.60
   2  -7  -3  446.16   27.60
   2  -7  -3  443.36   25.70
  -2   7   3  400.76   36.50
   2   7  -3  454.75   24.60
   2   7  -3  469.45   31.80
   2   7  -3  457.05   30.10
   2   7  -3  463.25   40.60
  -1  -7   3  103.89   20.00
   1  -7  -3   92.69   16.20
  -1  -7   3   96.09   17.30
  -1  -7   3  104.39   19.40
  -1  -7   3  109.29   18.80
   1  -7  -3   96.19   16.20
   1  -7  -3  124.29   18.50
  -1  -7   3   86.49   26.30
   1  -7  -3  108.19   15.90
  -1   7   3   97.89   11.70
   1   7  -3   92.09   14.40
  -1   7   3   95.29   11.40
  -1   7   3   76.19   24.20
   1   7  -3  104.49   14.20
   1   7  -3  118.49   26.00
   0  -7   3  550.44   29.10
   0  -7  -3  585.54   40.70
   0  -7  -3  537.05   34.70
   0  -7   3  497.85   30.20
   0  -7   3  514.35   28.60
   0  -7   3  500.65   29.70
   0  -7  -3  566.14   33.70
   0   7  -3  520.05   21.90
   0   7  -3  512.75   21.10
   0   7  -3  579.34   43.90
   0   7   3  545.85   28.80
   0   7   3  533.95   29.70
   0   7   3  479.75   33.20
   0   7   3  489.35   41.80
  -1  -7  -3  100.99   19.80
  -1  -7  -3  109.19   22.00
   1  -7   3   80.69   13.70
  -1  -7  -3  144.19   22.10
   1  -7   3   94.39   13.10
  -1  -7  -3  103.69   25.00
  -1  -7  -3   67.59   23.00
   1  -7   3  109.39   13.50
   1   7   3   85.19   28.10
  -1   7  -3   75.59   26.80
   1   7   3   95.09   15.20
   1   7   3  108.19   23.10
   1   7   3   97.39   19.00
   1   7   3   90.49   17.60
   1   7   3   66.99   14.80
  -2  -7  -3  650.23   49.30
  -2  -7  -3  610.94   44.10
   2  -7   3  656.43   30.40
  -2  -7  -3  786.92   45.30
   2  -7   3  654.23   28.50
   2  -7   3  665.83   30.30
   2  -7   3  644.14   29.50
  -2  -7  -3  717.23   47.20
   2   7   3  625.44   38.20
   2   7   3  607.74   38.80
  -2   7  -3  662.23   46.60
   2   7   3  688.53   39.20
   2   7   3  657.73   49.60
   3  -7   3 1435.36   52.79
   3  -7   3 1488.55   52.69
  -3  -7  -3 1486.85   71.39
  -3  -7  -3 1416.56   70.39
   3  -7   3 1382.16   50.79
  -3  -7  -3 1480.05   74.89
   3  -7   3 1436.16   50.89
  -3  -7  -3 1285.37   69.79
   3   7   3 1372.86   71.29
   3   7   3 1469.85   65.59
   3   7   3 1451.05   64.29
   3   7   3 1356.86   65.29
  -4  -7  -3   82.09   33.90
   4  -7   3  124.19   16.50
   4  -7   3  148.89   18.90
  -4  -7  -3  142.79   33.00
   4  -7   3  121.89   15.90
  -4  -7  -3  126.59   35.10
   4  -7   3  195.28   22.50
   4   7   3   90.99   30.30
   4   7   3  129.99   29.60
   4   7   3   85.89   28.40
   5  -7   3 1656.63   65.99
   5  -7   3 1755.52   65.39
  -5  -7  -3 1818.72   90.49
  -5  -7  -3 1784.82   95.29
   5  -7   3 1729.03   67.29
  -5  -7  -3 1739.43   90.79
   5   7   3 1866.81   85.79
   5   7   3 1811.02   89.29
   5   7   3 1742.43   85.29
   6  -7   3    6.10   16.60
   6  -7   3   32.10   20.70
  -6  -7  -3   23.10   38.90
  -6  -7  -3    6.10   39.30
  -6  -7  -3   91.09   46.70
   6   7   3   45.40   40.50
   6   7   3   13.00   35.10
   6   7   3    4.80   31.80
  -7  -7  -3  946.41   88.09
   7  -7   3 1096.69   63.99
  -7  -7  -3  970.60   81.49
   7  -7   3 1150.28   59.59
  -7  -7  -3 1139.09   88.39
   7   7   3 1120.59   73.29
   7   7   3 1036.80   77.69
   7   7   3  946.81   85.89
  -8  -7  -3  153.18   58.19
  -8  -7  -3   55.69   50.99
  -8  -7  -3  147.49   50.49
   8  -7   3   80.49   29.00
   8   7   3   78.59   50.39
   8   7   3   64.39   49.80
   8   7   3   74.39   38.00
  -8  -8   3  275.97   52.79
  -8  -8   3  185.78   52.99
  -8  -8   3  149.88   47.40
   8   8  -3  116.39   53.89
   8   8  -3   66.19   41.90
   8   8  -3  183.58   35.70
  -7  -8   3   87.79   49.90
  -7  -8   3    9.60   43.10
  -7  -8   3    4.00   42.50
   7  -8  -3   10.20   18.10
   7  -8  -3   -4.00   22.30
   7   8  -3   56.79   38.40
   7   8  -3    7.70   30.30
   7   8  -3  -50.49   33.70
   6  -8  -3  194.48   27.40
   6  -8  -3  193.38   21.10
  -6  -8   3  137.79   46.70
  -6  -8   3  262.47   48.30
   6  -8  -3  258.17   25.80
  -6  -8   3  197.78   45.80
   6   8  -3  265.47   40.40
   6   8  -3  168.68   37.20
   6   8  -3  239.58   40.30
  -5  -8   3  588.94   57.39
   5  -8  -3  727.53   37.40
  -5  -8   3  764.12   58.59
   5  -8  -3  572.94   41.40
   5  -8  -3  692.33   32.70
  -5  -8   3  709.23   65.09
   5  -8  -3  695.23   33.00
   5   8  -3  563.94   52.59
   5   8  -3  664.73   52.59
  -5   8   3  707.23   40.50
   5   8  -3  778.52   62.89
   5   8  -3  647.04   50.49
  -4  -8   3  143.79   32.80
   4  -8  -3  109.99   13.40
   4  -8  -3  110.99   14.00
   4  -8  -3  109.49   16.10
  -4  -8   3  135.59   33.70
  -4  -8   3   92.19   33.60
   4  -8  -3  113.39   14.00
   4  -8  -3  121.79   18.50
  -4  -8   3   96.69   30.50
   4   8  -3  108.69   32.70
  -4   8   3  102.59   22.70
   4   8  -3  114.69   25.00
   4   8  -3  119.09   24.60
   3  -8  -3 2868.41   90.79
   3  -8  -3 2905.61   92.09
   3  -8  -3 2775.72   90.49
  -3  -8   3 2681.63  105.89
   3  -8  -3 2946.51   92.79
   3  -8  -3 2884.81   92.99
  -3  -8   3 2770.42  107.09
  -3  -8   3 2867.51  114.09
  -3  -8   3 2907.81  105.19
   3   8  -3 2851.21  100.79
   3   8  -3 2686.53  110.09
   3   8  -3 2771.92   95.49
  -3   8   3 2879.81  103.39
   2  -8  -3  162.58   18.80
  -2  -8   3  130.89   24.10
  -2  -8   3  197.78   33.90
  -2  -8   3  144.39   25.40
   2  -8  -3  133.69   18.00
   2  -8  -3  113.09   15.50
   2  -8  -3  163.78   20.40
  -2   8   3  129.59   27.00
   2   8  -3   79.09   28.70
   2   8  -3  208.18   24.90
   2   8  -3  137.09    7.30
  -1  -8   3 3035.60  116.49
   1  -8  -3 2898.61  109.09
   1  -8  -3 3151.88  102.29
  -1  -8   3 2945.21  103.99
  -1  -8   3 3119.49  103.49
   1  -8  -3 3026.70  100.79
   1  -8  -3 2986.80  100.79
  -1  -8   3 3011.40  104.79
  -1  -8   3 2988.60  104.29
  -1   8   3 3129.29   91.99
   1   8  -3 3092.49  115.99
  -1   8   3 2976.80  112.09
   1   8  -3 3224.08  105.89
  -1   8   3 3033.00   91.69
   0  -8  -3    9.50   17.60
   0  -8   3   19.10   24.00
   0  -8  -3   -0.60   15.80
   0  -8  -3    0.80   19.10
   0  -8  -3   -0.70   15.80
   0  -8   3  -14.80   13.00
   0  -8   3   11.70   13.20
   0  -8   3   -9.50   11.50
   0  -8  -3   -5.20   15.50
   0  -8   3   10.00   13.60
   0   8  -3  -23.30   24.40
   0   8   3   12.00   26.00
   0   8   3   10.70   13.50
  -1  -8  -3 1400.76   63.99
   1  -8   3 1576.64   54.89
  -1  -8  -3 1510.55   69.39
   1  -8   3 1482.25   53.19
  -1  -8  -3 1475.65   63.49
   1  -8   3 1502.15   52.09
   1  -8   3 1367.26   52.39
  -1  -8  -3 1464.95   66.49
  -1   8  -3 1443.06   71.09
   1   8   3 1445.76   65.29
   1   8   3 1512.45   50.59
   1   8   3 1461.65   58.59
   1   8   3 1405.66   72.59
  -2  -8  -3  385.66   39.70
   2  -8   3  355.76   20.30
  -2  -8  -3  366.36   44.20
   2  -8   3  332.17   22.90
   2  -8   3  308.17   20.10
   2  -8   3  363.86   23.80
  -2  -8  -3  317.17   39.60
  -2  -8  -3  349.37   43.00
   2   8   3  307.47   41.40
   2   8   3  327.47   30.40
   2   8   3  341.07   31.30
  -2   8  -3  303.27   38.10
   2   8   3  357.16   34.90
   3  -8   3  524.15   24.60
   3  -8   3  582.94   24.20
  -3  -8  -3  524.75   50.19
   3  -8   3  558.04   27.60
   3  -8   3  477.05   30.00
  -3  -8  -3  584.64   52.39
  -3  -8  -3  513.75   52.69
  -3  -8  -3  424.86   45.50
   3   8   3  489.85   45.80
   3   8   3  461.85   50.59
  -3   8  -3  541.05   48.30
   3   8   3  502.25   40.20
   3   8   3  494.75   43.80
  -4  -8  -3  223.38   39.20
   4  -8   3  175.38   19.50
   4  -8   3  242.08   25.30
  -4  -8  -3  192.38   38.30
   4  -8   3  188.08   19.30
  -4  -8  -3  155.58   37.50
   4  -8   3  240.58   19.20
   4   8   3  199.18   41.00
   4   8   3  213.18   33.30
   4   8   3  215.18   33.10
   5  -8   3  -25.30   11.80
  -5  -8  -3   37.40   38.30
  -5  -8  -3  -49.90   34.10
  -5  -8  -3   47.10   39.80
   5  -8   3    1.30   13.70
   5   8   3  -11.70   35.00
   5   8   3   79.69   30.70
   5   8   3   20.20   32.20
   6  -8   3  219.78   29.50
  -6  -8  -3  198.88   58.19
  -6  -8  -3  238.08   51.09
   6  -8   3  180.58   21.70
  -6  -8  -3  184.28   48.70
   6   8   3  253.87   44.70
   6   8   3  199.28   39.90
   6   8   3  263.47   47.20
  -7  -8  -3   70.19   48.30
  -7  -8  -3   42.50   44.10
  -7  -8  -3   49.80   47.80
   7  -8   3   60.69   24.90
   7   8   3   91.79   50.69
   7   8   3   72.09   38.20
   7   8   3  178.58   45.30
  -8  -9   3  -45.50   44.40
  -8  -9   3  -83.39   48.60
  -8  -9   3   35.70   47.70
   8   9  -3   54.59   35.40
   8   9  -3   10.90   44.10
   7  -9  -3  117.69   18.80
  -7  -9   3  154.38   48.80
  -7  -9   3  114.49   45.00
  -7  -9   3  126.29   49.40
   7   9  -3  136.99   53.09
   7   9  -3  106.49   45.70
  -6  -9   3  113.19   43.70
   6  -9  -3  113.39   14.90
   6  -9  -3  100.09   26.90
   6   9  -3   39.30   34.10
   6   9  -3  141.79   35.60
   6   9  -3  112.49   36.00
  -5  -9   3   72.69   34.50
  -5  -9   3   72.09   36.40
   5  -9  -3   33.20   16.40
  -5  -9   3   -1.50   40.20
   5  -9  -3   20.10   10.50
   5  -9  -3   31.40   10.80
  -5   9   3   38.60   22.60
   5   9  -3   23.30   26.10
   5   9  -3    5.90   32.00
   5   9  -3   13.00   28.20
   4  -9  -3  455.45   22.80
   4  -9  -3  515.95   29.50
   4  -9  -3  567.24   34.90
   4  -9  -3  523.25   24.10
  -4  -9   3  451.25   58.09
  -4  -9   3  528.05   55.49
  -4  -9   3  448.46   49.50
   4  -9  -3  493.85   25.00
  -4  -9   3  483.85   48.90
   4   9  -3  451.15   55.19
   4   9  -3  478.85   38.50
   4   9  -3  495.45   42.80
   4   9  -3  360.96   39.70
  -4   9   3  541.65   41.60
   3  -9  -3   47.70   14.00
  -3  -9   3   84.69   28.20
  -3  -9   3   36.40   25.00
  -3  -9   3   23.40   24.80
   3  -9  -3   46.00   10.40
   3  -9  -3    0.80   20.30
  -3  -9   3   36.50   24.10
   3  -9  -3   45.10   17.60
   3   9  -3    0.20   29.20
  -3   9   3   53.49   23.40
   3   9  -3   52.59   18.40
   3   9  -3   37.40   12.00
  -2  -9   3 1252.87   58.99
  -2  -9   3 1189.18   70.69
   2  -9  -3 1212.18   47.40
   2  -9  -3 1261.17   51.79
   2  -9  -3 1216.78   50.39
  -2  -9   3 1217.68   59.19
   2   9  -3 1103.99   67.59
  -2   9   3 1208.68   63.89
   2   9  -3 1206.68   50.59
  -1  -9   3   -5.40   15.80
   1  -9  -3   -1.60   13.70
  -1  -9   3   13.40   37.20
  -1  -9   3  -20.30   15.90
   1  -9  -3    3.20   19.60
  -1  -9   3  -28.70   26.10
   1  -9  -3   19.30   16.20
   1  -9  -3  -10.70   13.50
   1  -9  -3   18.60   18.40
   1   9  -3   -9.20   11.60
  -1   9   3  -16.60   25.00
   1   9  -3   75.99   29.00
   0  -9   3 3145.69  104.89
   0  -9   3 3182.08  121.89
   0  -9   3 2934.21  105.49
   0  -9  -3 3181.28  108.39
   0  -9   3 3179.98  105.49
   0  -9  -3 3249.48  110.79
   0  -9   3 3308.07  103.89
   0  -9  -3 3162.68  114.69
   0  -9  -3 3068.29  108.49
   0   9   3 3266.67  100.49
   0   9   3 3134.99  121.79
   0   9  -3 3115.89  122.29
   0   9   3 3125.59  101.09
   1  -9   3   -5.70   10.90
  -1  -9  -3  -17.80   25.50
   1  -9   3   12.60   26.10
  -1  -9  -3   -1.30   20.00
   1  -9   3   -0.60   12.10
   1  -9   3    8.70    9.60
   1  -9   3  -17.40   15.30
  -1  -9  -3  -24.20   20.80
  -1  -9  -3   48.20   20.20
  -1   9  -3   -5.70   27.70
   1   9   3    9.20   15.30
   1   9   3   -9.60   26.80
  -2  -9  -3 1537.55   80.39
   2  -9   3 1499.75   50.89
  -2  -9  -3 1434.46   71.19
  -2  -9  -3 1640.24   75.49
   2  -9   3 1514.95   50.09
   2  -9   3 1463.25   54.49
  -2  -9  -3 1524.25   73.29
   2  -9   3 1534.85   56.59
  -2   9  -3 1504.35   76.59
   2   9   3 1590.64   58.59
   2   9   3 1485.55   79.99
   2   9   3 1547.75   64.89
   3  -9   3   19.00    6.40
  -3  -9  -3   26.50   27.50
  -3  -9  -3    9.40   28.30
   3  -9   3   27.80   12.50
   3  -9   3   58.39   16.90
  -3  -9  -3   30.30   29.80
  -3  -9  -3  131.59   38.30
   3   9   3   45.30   24.00
   3   9   3   21.50   32.20
  -3   9  -3   28.60   25.70
   3   9   3    5.70   21.20
   4  -9   3  447.26   18.10
  -4  -9  -3  423.56   54.49
  -4  -9  -3  349.57   49.40
   4  -9   3  472.25   28.90
  -4  -9  -3  484.85   52.29
   4   9   3  418.76   49.70
   4   9   3  573.34   48.00
   4   9   3  379.56   49.60
   5  -9   3  244.68   34.50
  -5  -9  -3  218.18   48.30
   5  -9   3  243.78   17.50
  -5  -9  -3  261.47   52.69
   5   9   3  225.28   39.40
   5   9   3  312.37   43.60
   5   9   3  221.88   39.10
  -6  -9  -3  -17.10   39.30
   6  -9   3   25.10   13.30
  -6  -9  -3   62.59   43.60
   6   9   3  -12.80   33.10
   6   9   3   43.10   38.80
   6   9   3  -17.50   36.70
  -7  -9  -3  140.99   51.69
  -7  -9  -3  335.57   65.89
   7  -9   3  290.27   35.70
  -7  -9  -3  319.77   59.39
   7   9   3  358.56   51.59
   7   9   3  195.98   50.59
   7   9   3  227.08   86.59
  -7 -10   3  -43.60   49.20
  -7 -10   3  -75.49   45.00
  -7 -10   3   62.69   46.40
   7  10  -3  -11.50   40.20
   7  10  -3   57.49   34.60
  -6 -10   3 1361.56   95.89
  -6 -10   3 1412.56   91.49
  -6 -10   3 1374.26   88.99
   6  10  -3 1242.78   78.29
   6  10  -3 1527.05   80.39
  -5 -10   3  -45.30   37.10
   5  10  -3   15.10   26.30
  -5  10   3   22.50   25.20
   4 -10  -3  778.72   25.70
  -4 -10   3  815.72   73.69
  -4 -10   3  741.73   63.89
   4 -10  -3  785.62   37.60
   4 -10  -3  717.13   34.30
  -4 -10   3  935.21   59.59
   4  10  -3  683.83   60.39
  -4  10   3  742.73   50.79
   3 -10  -3  308.87   18.80
  -3 -10   3  317.27   37.80
   3 -10  -3  341.17   27.00
   3 -10  -3  321.77   19.70
  -3 -10   3  299.97   37.80
  -3 -10   3  338.07   43.60
  -3  10   3  409.96   44.60
   3  10  -3  312.47   51.59
   2 -10  -3    9.70   21.60
  -2 -10   3   45.00   30.10
   2 -10  -3   72.59   21.10
  -2 -10   3   38.40   22.60
   2 -10  -3   33.20   12.70
  -2 -10   3   61.39   27.60
   2 -10  -3   49.30   13.00
  -2 -10   3   78.49   25.00
   2 -10  -3   25.80   17.50
  -2  10   3   52.09   28.90
   2  10  -3   42.40   31.50
  -1 -10   3  462.45   37.20
   1 -10  -3  450.35   32.00
  -1 -10   3  387.06   48.70
  -1 -10   3  450.55   36.20
   1 -10  -3  458.05   41.40
   1 -10  -3  475.85   31.50
   1 -10  -3  431.16   33.30
  -1 -10   3  445.96   38.20
   1  10  -3  379.96   48.40
  -1  10   3  400.46   49.40
   0 -10   3  280.87   40.20
   0 -10  -3  240.48   27.20
   0 -10  -3  269.87   32.20
   0 -10   3  295.17   28.30
   0 -10   3  246.88   24.60
   0 -10  -3  312.67   36.30
   0 -10  -3  249.58   28.80
   0  10   3  245.38   41.90
   0  10  -3  255.37   41.90
   0  10   3  210.58   19.60
  -1 -10  -3  713.43   54.09
  -1 -10  -3  612.74   44.20
   1 -10   3  666.13   31.20
   1 -10   3  579.64   39.70
  -1 -10  -3  752.42   48.00
   1 -10   3  619.34   29.10
  -1 -10  -3  607.14   47.10
   1 -10   3  616.24   54.09
   1 -10   3  669.23   35.20
  -1  10  -3  646.44   58.19
   1  10   3  668.43   59.79
  -2 -10  -3  696.63   54.69
   2 -10   3  883.01   60.29
  -2 -10  -3  719.33   57.09
   2 -10   3  762.42   25.80
   2 -10   3  737.93   35.50
  -2 -10  -3  752.12   63.79
  -2  10  -3  661.13   58.59
  -3 -10  -3  331.77   49.20
   3 -10   3  385.06   25.40
  -3 -10  -3  306.77   44.20
  -3 -10  -3  357.36   44.60
   3  10   3  315.97   49.50
  -3  10  -3  382.76   47.50
   3  10   3  363.76   40.30
  -4 -10  -3  623.64   67.19
  -4 -10  -3  730.93   75.59
   4  10   3  502.25   54.19
   4  10   3  697.23   49.99
   4  10   3  581.14   57.99
  -5 -10  -3   74.79   44.50
  -5 -10  -3  -23.50   38.10
  -5 -10  -3   91.99   47.00
   5  10   3   31.80   36.50
   5  10   3  -57.49   35.20
   5  10   3  -37.00   31.70
  -6 -10  -3  687.33   80.19
  -6 -10  -3  826.62   87.29
  -6 -10  -3  711.73   81.59
   6  10   3  815.82   71.39
   6  10   3  830.82   73.39
   6  10   3  762.42   81.09
  -6 -11   3  -11.30   41.40
  -6 -11   3   45.30   39.90
  -6 -11   3  -26.10   45.60
   6  11  -3   46.80   34.30
   6  11  -3   21.70   37.20
  -5 -11   3  714.03   84.99
  -5 -11   3  548.65   66.79
  -5 -11   3  767.82   67.49
   5  11  -3  666.63   43.70
   5  11  -3  588.24   61.29
  -5  11   3  717.03   53.29
  -4 -11   3   11.50   33.80
  -4 -11   3  113.29   36.70
   4  11  -3   87.79   33.70
  -4  11   3   -0.80   28.20
  -3 -11   3  292.87   50.89
  -3 -11   3  362.86   45.10
   3 -11  -3  430.46   37.80
   3 -11  -3  450.25   30.20
  -3 -11   3  350.16   44.20
   3 -11  -3  395.76   16.80
  -3  11   3  370.76   43.90
  -2 -11   3   75.49   27.10
  -2 -11   3   79.99   26.30
  -2 -11   3   17.60   39.00
   2 -11  -3   29.80   12.60
   2 -11  -3   99.49   22.40
   2 -11  -3   75.09   22.70
   2 -11  -3   63.29   13.90
   2  11  -3   36.20   34.90
  -2  11   3   26.60   29.80
   1 -11  -3  177.58   25.20
   1 -11  -3  124.49   19.50
   1 -11  -3  188.58   30.50
  -1 -11   3  169.18   42.50
  -1 -11   3  173.68   25.70
   1 -11  -3  155.78   20.00
  -1 -11   3  168.18   24.80
   1  11  -3  127.59   38.60
  -1  11   3  153.98   35.30
   0 -11  -3   45.10   28.90
   0 -11  -3   48.10   22.60
   0 -11   3   25.70   17.00
   0 -11  -3   29.40   19.80
   0 -11   3   85.29   17.20
   0 -11   3   28.80   32.70
   0  11   3  101.79   54.79
   0  11  -3   48.80   33.80
   1 -11   3   37.70   10.30
   1 -11   3   16.40   16.70
   1 -11   3   -6.80   10.90
   1 -11   3   26.00   33.50
  -1 -11  -3   19.80   23.70
  -1 -11  -3   29.60   24.70
  -1 -11  -3   75.19   30.20
   1  11   3   46.10   37.40
  -1  11  -3  -13.80   30.90
  -2 -11  -3   51.09   36.10
  -2 -11  -3   99.09   34.40
   2 -11   3   59.69   17.30
  -2 -11  -3  111.69   32.10
   2 -11   3   45.80   33.90
  -2  11  -3   88.59   35.60
   2  11   3   43.10   39.90
  -3 -11  -3  920.21   70.69
  -3 -11  -3  961.50   85.99
   3 -11   3  838.72   66.09
  -3  11  -3  919.61   76.59
   3  11   3  858.71   70.09
  -4 -11  -3  123.69   39.70
  -4 -11  -3  185.18   53.89
  -4 -11  -3  170.78   49.30
   4  11   3  133.49   44.60
   4  11   3  174.08   29.00
  -5 -11  -3 1534.75   96.49
  -5 -11  -3 1411.76  103.19
  -5 -11  -3 1718.93  105.29
   5  11   3 1640.74   97.49
   5  11   3 1640.94   86.99
  -5 -12   3  393.96   50.99
  -5 -12   3  402.56   55.59
  -5 -12   3  364.16   62.09
   5  12  -3  511.15   60.69
  -4 -12   3  187.28   52.09
  -4 -12   3  178.98   47.30
  -4 -12   3   42.60   34.20
  -4  12   3  126.99   33.10
   4  12  -3   98.19   40.60
   3 -12  -3  963.40   57.59
  -3 -12   3  873.61   62.69
  -3 -12   3  946.21   78.89
  -3 -12   3  798.42   78.59
   3  12  -3  892.01   72.79
  -3  12   3 1031.10   67.79
   2 -12  -3   76.49   28.80
  -2 -12   3   44.40   27.50
   2 -12  -3   44.60   12.40
  -2 -12   3   14.30   28.80
   2  12  -3   58.19   35.80
  -2  12   3   53.89   51.69
  -1 -12   3 1268.27   86.09
   1 -12  -3 1207.18   51.99
   1 -12  -3 1178.68   60.29
   1 -12  -3 1149.19   66.39
  -1 -12   3 1260.67   60.09
  -1 -12   3 1165.38   64.79
   1  12  -3 1168.68   77.59
   0 -12   3   18.30   15.10
   0 -12  -3    8.20   20.70
   0 -12  -3  -30.70   28.60
   0 -12  -3  -11.40   25.90
   0 -12   3   13.30   23.80
   0 -12   3  -16.70   39.60
   0  12   3   40.10   32.30
   0  12  -3   -1.30   32.70
  -1 -12  -3  871.31   68.09
  -1 -12  -3  950.70   60.09
   1 -12   3  965.20   34.30
  -1 -12  -3  923.41   62.99
   1 -12   3  858.91   75.79
  -1  12  -3  941.41   69.69
   1  12   3  878.61   68.99
  -2 -12  -3  141.19   44.40
   2 -12   3   96.49   40.40
  -2 -12  -3  142.79   36.90
  -2 -12  -3   76.59   33.40
   2  12   3  108.99   40.70
  -2  12  -3  133.19   38.40
  -3 -12  -3  248.18   43.40
   3 -12   3  287.07   52.19
  -3 -12  -3  379.86   53.59
  -3  12  -3  298.97   46.00
   3  12   3  308.17   50.79
  -4 -12  -3  431.86   58.19
  -4 -12  -3  402.06   51.99
   4 -12   3  298.67   60.79
  -4 -12  -3  431.96   64.19
   4  12   3  393.26   59.09
  -4 -13   3  333.27   62.29
  -4 -13   3  263.77   54.29
  -4 -13   3  215.78   47.30
  -4  13   3  276.47   42.10
   4  13  -3  259.07   52.99
  -3 -13   3   65.19   48.50
  -3 -13   3   77.99   48.60
  -3 -13   3  -20.30   30.90
   3  13  -3   -1.70   37.30
  -3  13   3  -17.10   27.10
  -2 -13   3 1087.09   86.59
  -2 -13   3  919.91   68.49
   2 -13  -3  986.90   66.79
   2 -13  -3 1047.00   35.70
  -2 -13   3 1067.29   62.99
  -2  13   3  962.50   67.89
   2  13  -3  902.31   77.09
  -1 -13   3   36.40   25.50
  -1 -13   3   10.50   42.20
   1 -13  -3   90.99   34.30
  -1 -13   3   21.20   33.00
   1 -13  -3   25.30   18.50
  -1  13   3   21.30   30.50
   1  13  -3  -59.39   33.50
   0 -13  -3 1029.00   76.69
   0 -13   3 1184.88   49.99
   0 -13  -3 1116.09   60.39
   0 -13  -3 1140.99   66.99
   0 -13   3  972.10   81.09
   0  13  -3 1013.60   78.29
   0  13   3 1064.89   76.09
  -1 -13  -3  -57.79   23.50
   1 -13   3   -4.40   35.80
  -1 -13  -3  -70.99   33.50
  -1 -13  -3   30.90   46.00
   1  13   3  -41.60   35.20
  -1  13  -3   49.99   36.10
   2 -13   3 1193.68   82.79
  -2 -13  -3 1004.40   87.09
  -2 -13  -3 1003.70   71.79
  -2 -13  -3 1150.18   81.49
   2  13   3  999.80   79.59
  -2  13  -3  939.11   75.49
  -3 -13  -3   20.90   47.00
  -3 -13  -3   14.20   39.00
   3 -13   3   33.00   40.40
  -3 -13  -3   30.60   43.10
   3  13   3   51.79   42.30
  -3  13  -3   82.79   37.10
  10   0  -4 1374.26   93.29
  10   0  -4 1632.14  100.69
   9   0  -4  -21.30   41.40
  -9   0   4   27.60   34.50
   9   0  -4  -72.69   30.20
  -9   0   4   66.49   36.10
  -8   0   4 1771.32   83.69
  -8   0   4 1811.42   80.49
   8   0  -4 1894.01   91.79
  -8   0   4 1912.31   89.59
   8   0  -4 1770.22   89.09
   7   0  -4   -1.30   21.60
  -7   0   4  -38.90   27.90
   7   0  -4    4.60   24.60
   7   0  -4   30.70   26.40
  -7   0   4  -16.40   19.40
  -7   0   4   29.80   24.60
  -7   0   4  -19.40   25.80
   6   0  -4 1586.64   73.69
  -6   0   4 1593.34   73.29
   6   0  -4 1602.04   63.99
   6   0  -4 1559.64   72.79
  -6   0   4 1620.94   71.69
   6   0  -4 1710.73   75.19
  -6   0   4 1783.92   74.09
  -5   0   4   12.80   14.20
   5   0  -4   -0.80   17.50
   5   0  -4   28.00   20.90
  -5   0   4   -8.90   19.90
  -5   0   4    0.30   16.40
   5   0  -4    0.60   18.20
  -5   0   4    0.20   21.00
  -5   0   4   17.00   18.70
   5   0  -4  -17.10   17.70
  -4   0   4  162.78   22.00
   4   0  -4  150.78   22.10
   4   0  -4  140.19   22.10
  -4   0   4  148.29   17.00
   4   0  -4  179.48   22.60
  -4   0   4  199.78   25.50
  -4   0   4  175.38   24.30
   4   0  -4  154.18   24.40
   3   0  -4    3.30   15.00
  -3   0   4  -13.00   10.00
   3   0  -4  -13.40   13.60
   3   0  -4   13.00   18.70
  -3   0   4    2.70   15.30
  -3   0   4   -8.80   14.50
   3   0  -4    5.00   14.50
  -3   0   4  -17.60   14.20
  -3   0   4   -9.70   11.90
  -2   0   4 1433.36   55.09
  -2   0   4 1395.76   55.29
   2   0  -4 1490.85   54.89
   2   0  -4 1378.16   54.59
  -2   0   4 1512.85   55.59
   2   0  -4 1374.06   55.99
  -1   0   4    0.30   14.40
   1   0  -4   10.60   15.80
  -1   0   4   -2.70   14.70
  -1   0   4   -7.00   13.00
  -1   0   4    8.50   15.50
   1   0  -4   -5.30   13.70
   1   0  -4    0.70   11.90
   1   0  -4   11.90   14.10
   0   0  -4 7725.73  229.18
   0   0  -4 7686.33  230.28
   0   0   4 7399.86  229.38
   0   0  -4 7438.36  229.98
   0   0   4 7753.72  230.08
   0   0   4 7599.04  229.78
   0   0   4 7571.84  230.18
   0   0  -4 7765.52  229.58
   1   0   4   12.60   15.00
   1   0   4    2.60   17.60
  -1   0  -4   36.40   20.10
  -1   0  -4  -12.40   14.60
  -1   0  -4  -14.20   12.20
   1   0   4   13.90   14.30
  -1   0  -4   13.50   13.50
   2   0   4 3993.10  125.29
   2   0   4 3739.03  124.89
   2   0   4 3778.52  127.29
  -2   0  -4 3927.01  123.19
   2   0   4 3842.62  124.89
  -2   0  -4 3805.72  125.09
   2   0   4 3713.43  125.49
  -2   0  -4 3727.33  123.59
   3   0   4   13.40   18.00
   3   0   4    1.20   17.90
  -3   0  -4   14.50   14.90
   3   0   4  -28.80   18.60
   3   0   4    2.00   15.00
  -3   0  -4    8.30   19.00
  -3   0  -4    5.20   15.30
   3   0   4   23.30   17.30
  -4   0  -4 1543.65   62.49
   4   0   4 1521.15   65.99
  -4   0  -4 1425.16   65.09
   4   0   4 1546.45   67.19
   4   0   4 1452.55   66.49
  -5   0  -4   11.80   23.50
   5   0   4  -37.40   26.10
  -5   0  -4   -4.50   22.70
   5   0   4    8.80   23.30
  -5   0  -4   -5.90   21.30
   5   0   4  -19.90   22.40
  -6   0  -4 1071.99   61.79
   6   0   4 1106.29   63.99
  -6   0  -4 1011.60   61.79
   6   0   4  972.10   63.19
  -6   0  -4 1066.49   62.39
  -7   0  -4    7.40   26.90
  -7   0  -4   52.19   29.00
   7   0   4  -53.09   31.90
   7   0   4    1.80   32.20
   8   0   4   78.49   39.90
  -8   0  -4  195.28   41.20
   8   0   4  202.58   48.60
   8   0   4  105.69   28.70
  -8   0  -4  111.09   39.60
  10  -1  -4  -11.20   40.80
  10  -1  -4  -24.30   36.60
 -10  -1   4  -24.70   41.40
 -10  -1   4   26.60   49.30
  10   1  -4  -34.50   42.20
 -10   1   4   -7.60   40.10
  10   1  -4   84.99   44.40
   9  -1  -4  312.77   46.30
  -9  -1   4  345.07   49.40
  -9  -1   4  348.07   48.70
   9  -1  -4  406.96   54.29
  -9  -1   4  303.57   42.30
  -9   1   4  255.87   38.10
  -9   1   4  384.26   44.80
   9   1  -4  311.07   49.30
  -8  -1   4   72.99   32.30
   8  -1  -4   11.40   29.70
  -8  -1   4   59.29   31.10
  -8  -1   4   42.00   27.50
   8  -1  -4   79.79   32.00
  -8   1   4  120.89   29.20
   8   1  -4   25.60   32.50
  -8   1   4   82.89   28.00
   8   1  -4   28.20   33.40
  -7  -1   4  651.63   54.09
   7  -1  -4  648.24   57.29
  -7  -1   4  700.93   46.60
  -7  -1   4  579.64   52.29
   7  -1  -4  667.23   40.80
   7  -1  -4  580.74   52.89
   7  -1  -4  701.53   50.39
  -7   1   4  669.63   51.69
  -7   1   4  703.43   49.50
   7   1  -4  708.53   50.39
  -7   1   4  679.63   48.00
   7   1  -4  660.63   53.69
   7   1  -4  661.43   53.89
  -6  -1   4  473.35   39.00
  -6  -1   4  501.35   44.10
   6  -1  -4  446.76   40.70
   6  -1  -4  483.55   30.00
   6  -1  -4  473.95   40.20
   6  -1  -4  471.75   41.50
  -6  -1   4  513.75   47.80
   6   1  -4  439.36   43.80
   6   1  -4  400.96   43.80
   6   1  -4  421.66   42.00
   6   1  -4  404.86   35.50
  -6   1   4  423.36   36.40
  -6   1   4  468.15   40.70
  -6   1   4  413.06   38.90
  -6   1   4  392.86   37.30
  -5  -1   4  555.54   42.70
   5  -1  -4  622.04   39.00
   5  -1  -4  499.55   38.80
  -5  -1   4  618.34   41.80
   5  -1  -4  559.74   40.80
   5  -1  -4  597.84   37.20
  -5  -1   4  549.45   39.40
  -5  -1   4  540.95   44.00
  -5   1   4  546.75   36.20
  -5   1   4  517.65   45.20
   5   1  -4  609.64   43.80
   5   1  -4  520.55   42.00
   5   1  -4  490.85   38.30
  -5   1   4  601.14   37.00
  -5   1   4  578.34   29.70
   5   1  -4  556.54   39.70
  -5   1   4  566.24   40.30
  -4  -1   4 1868.51   69.89
   4  -1  -4 1976.10   72.99
  -4  -1   4 1877.01   75.19
   4  -1  -4 1927.91   73.69
  -4  -1   4 2115.19   75.49
   4  -1  -4 1905.81   71.59
   4  -1  -4 1885.11   73.19
  -4   1   4 1971.50   72.89
   4   1  -4 1893.01   75.89
   4   1  -4 1968.60   75.99
   4   1  -4 1919.81   73.69
  -4   1   4 1943.31   70.39
   4   1  -4 1980.40   74.09
  -4   1   4 1892.91   63.69
  -4   1   4 1947.51   72.99
  -4   1   4 1984.30   72.09
   3  -1  -4  100.19   22.80
   3  -1  -4  103.99   16.60
  -3  -1   4   89.99   15.50
  -3  -1   4  104.29   20.00
  -3  -1   4  150.68   18.90
   3  -1  -4   86.99   21.50
   3  -1  -4  110.59   17.80
  -3  -1   4  109.19   24.70
  -3   1   4  115.19   18.70
   3   1  -4  107.09   18.20
  -3   1   4  133.19   17.80
  -3   1   4  120.89   13.70
   3   1  -4  113.19   19.10
  -3   1   4   90.79   17.30
  -3   1   4  107.69   19.80
   3   1  -4  104.49   18.80
  -2  -1   4 3056.49   98.19
   2  -1  -4 3042.40   96.29
   2  -1  -4 2702.33  100.19
  -2  -1   4 2835.42   97.59
   2  -1  -4 2619.64  101.99
   2  -1  -4 2891.21   97.59
  -2  -1   4 3259.57   98.59
  -2   1   4 2915.61   95.89
  -2   1   4 2831.22   96.79
  -2   1   4 3158.18   97.19
  -2   1   4 2777.52   96.09
   2   1  -4 3035.80   98.29
   2   1  -4 2629.44  102.99
   2   1  -4 3091.29   97.39
   2   1  -4 3040.90   97.09
   1  -1  -4  117.49   18.30
   1  -1  -4  128.99   19.10
  -1  -1   4  122.49   18.80
  -1  -1   4  154.48   18.60
  -1  -1   4  124.19   18.90
   1  -1  -4  146.89   17.90
   1  -1  -4  124.39   20.00
   1   1  -4  108.39   18.20
  -1   1   4  109.59   18.10
   1   1  -4  133.19   17.20
  -1   1   4  137.89   18.10
  -1   1   4  122.99   17.90
   1   1  -4  144.49   17.70
  -1   1   4  139.29   18.70
   0  -1   4 3244.58  103.29
   0  -1  -4 3037.90  103.89
   0  -1  -4 3153.28  104.79
   0  -1   4 3002.40  102.79
   0  -1  -4 3192.58  103.39
   0  -1  -4 3249.57  103.29
   0  -1   4 3217.98  103.09
   0  -1   4 3206.28  103.19
   0   1   4 3115.99  103.59
   0   1  -4 3314.17  102.89
   0   1  -4 3166.48  103.39
   0   1   4 3427.26  104.59
   0   1   4 3097.89  103.29
   0   1   4 3253.87  103.79
   0   1  -4 3069.39  102.99
  -1  -1  -4 2776.12   96.79
  -1  -1  -4 2899.21   95.19
  -1  -1  -4 2781.52   96.49
   1  -1   4 2849.91   94.49
   1  -1   4 2793.82   94.89
   1  -1   4 2772.02   94.09
  -1  -1  -4 3001.80   95.59
   1  -1   4 2854.61   94.29
  -1   1  -4 2708.93   98.99
   1   1   4 2785.62   95.69
  -1   1  -4 2723.93   97.39
   1   1   4 2907.71   96.09
   1   1   4 3016.90   96.59
  -1   1  -4 2880.61   94.79
   1   1   4 2911.51   95.69
  -1   1  -4 2974.20   94.19
  -2  -1  -4  101.19   18.30
  -2  -1  -4  106.89   22.40
   2  -1   4  120.19   19.30
   2  -1   4   81.79   18.20
  -2  -1  -4   81.49   21.20
  -2  -1  -4   84.79   17.80
   2  -1   4  101.59   17.50
  -2   1  -4  118.19   18.60
   2   1   4  111.09   20.20
   2   1   4   99.89   20.60
   2   1   4   78.49   20.50
  -2   1  -4  101.29   19.30
   2   1   4  103.79   19.80
   2   1   4   76.39   18.40
  -2   1  -4  107.99   16.40
  -2   1  -4   95.79   17.00
   3  -1   4 4053.49  130.69
   3  -1   4 3706.13  129.99
   3  -1   4 4039.50  131.19
   3  -1   4 3967.40  130.49
  -3  -1  -4 3860.71  132.49
  -3  -1  -4 4087.89  131.59
  -3  -1  -4 4027.60  130.19
   3  -1   4 3948.10  134.59
  -3   1  -4 4032.00  130.29
   3   1   4 3869.21  131.39
  -3   1  -4 4093.39  127.59
   3   1   4 4002.90  132.39
   3   1   4 3672.33  132.09
   3   1   4 3865.21  132.49
   3   1   4 3978.70  133.49
  -3   1  -4 3772.92  128.49
  -3   1  -4 4086.69  129.39
  -4  -1  -4   28.20   19.90
   4  -1   4   14.10   18.70
  -4  -1  -4   48.30   23.70
  -4  -1  -4  -13.70   21.30
   4  -1   4    0.60   20.20
   4  -1   4   18.50   19.00
   4   1   4   10.40   22.40
   4   1   4   51.99   23.30
   4   1   4    9.20   21.50
  -4   1  -4    3.80   19.10
  -4   1  -4   38.20   17.20
  -4   1  -4   19.20   19.60
  -5  -1  -4 1046.50   57.69
  -5  -1  -4 1146.39   62.49
  -5  -1  -4 1057.49   61.59
   5  -1   4 1135.89   60.49
   5  -1   4 1212.48   63.89
   5  -1   4 1133.29   60.59
  -5   1  -4 1190.18   54.49
   5   1   4 1163.18   66.39
   5   1   4 1144.89   63.59
  -5   1  -4 1203.78   57.39
   5   1   4 1139.39   63.59
  -5   1  -4 1139.09   58.59
  -6  -1  -4  460.05   47.80
   6  -1   4  351.86   48.50
   6  -1   4  514.85   49.30
  -6  -1  -4  492.25   52.69
   6  -1   4  458.95   46.30
  -6   1  -4  417.96   46.50
   6   1   4  474.85   49.80
   6   1   4  547.15   50.69
  -6   1  -4  489.45   46.60
  -6   1  -4  524.15   44.00
   7  -1   4  353.16   46.60
  -7  -1  -4  361.16   44.40
   7  -1   4  291.87   43.80
  -7  -1  -4  372.36   46.20
   7   1   4  421.36   51.99
   7   1   4  330.87   48.20
  -7   1  -4  345.87   43.10
  -7   1  -4  441.56   48.20
  -8  -1  -4  537.25   69.39
  -8  -1  -4  520.85   65.19
   8  -1   4  630.44   63.29
   8   1   4  475.95   56.89
   8   1   4  502.85   62.39
   8   1   4  481.45   47.00
  -8   1  -4  476.65   51.69
  -8   1  -4  451.55   56.69
  10  -2  -4   16.40   36.80
 -10  -2   4    7.50   54.59
 -10  -2   4   66.09   45.80
  10  -2  -4   31.20   40.40
  10   2  -4  -28.40   42.90
  10   2  -4  -23.10   39.40
   9  -2  -4  -24.70   39.00
  -9  -2   4   50.39   38.00
  -9  -2   4    0.50   48.40
   9  -2  -4    3.50   32.10
  -9  -2   4   11.20   34.50
  -9   2   4  -64.09   32.90
   9   2  -4   34.70   37.70
   9   2  -4   39.90   38.80
  -9   2   4   17.60   25.40
  -8  -2   4    3.50   35.80
   8  -2  -4  -13.90   27.10
   8  -2  -4   -4.10   26.10
  -8  -2   4   42.70   30.00
  -8  -2   4   33.20   31.10
   8   2  -4   -7.10   31.40
  -8   2   4   -1.10   25.40
  -8   2   4  -32.00   23.20
   8   2  -4   17.00   34.00
  -7  -2   4 1045.10   65.09
   7  -2  -4  955.80   62.79
   7  -2  -4  995.00   58.49
   7  -2  -4  955.90   57.19
  -7  -2   4  895.41   55.59
  -7  -2   4  976.50   64.19
  -7   2   4  955.20   51.59
   7   2  -4  957.00   62.99
  -7   2   4  987.80   50.89
   7   2  -4  965.40   62.69
  -7   2   4  983.80   54.79
  -6  -2   4    1.90   27.30
  -6  -2   4   26.50   23.80
   6  -2  -4    7.50   21.70
  -6  -2   4   -1.80   24.10
   6  -2  -4    4.30   22.80
   6  -2  -4   12.60   20.40
  -6   2   4  -35.40   16.80
   6   2  -4   18.10   25.10
   6   2  -4   30.50   21.20
  -6   2   4  -10.60   17.30
   6   2  -4   37.20   26.00
  -6   2   4  -22.40   17.20
   5  -2  -4 3938.21  130.79
   5  -2  -4 4042.30  129.39
  -5  -2   4 3763.82  131.39
  -5  -2   4 3806.82  129.79
  -5  -2   4 3708.13  133.49
  -5  -2   4 3883.81  133.19
  -5  -2   4 3706.43  133.99
   5  -2  -4 3742.73  128.19
   5  -2  -4 3640.44  128.89
   5   2  -4 3700.53  133.29
  -5   2   4 3846.62  128.29
   5   2  -4 3795.02  132.19
  -5   2   4 4066.09  125.49
   5   2  -4 4251.87  141.99
   5   2  -4 3888.81  120.69
   5   2  -4 3795.42  133.99
  -5   2   4 3773.12  127.39
  -5   2   4 3854.01  125.69
   4  -2  -4  132.79   20.80
   4  -2  -4  133.79   20.10
  -4  -2   4  122.89   22.00
  -4  -2   4  157.88   24.50
  -4  -2   4  110.29   24.80
  -4  -2   4  151.18   24.40
   4  -2  -4  141.59   25.90
   4  -2  -4  152.48   19.70
  -4  -2   4  142.39   25.70
   4   2  -4  164.28   21.80
  -4   2   4  154.08   20.70
   4   2  -4  151.38   19.00
  -4   2   4  190.48   29.50
  -4   2   4  163.18   11.00
  -4   2   4  190.18   23.70
   4   2  -4  176.58   23.30
  -4   2   4  135.89   21.60
   4   2  -4  168.38   26.10
   4   2  -4  122.99   24.10
   3  -2  -4 6343.56  196.98
  -3  -2   4 6250.77  199.58
   3  -2  -4 6479.45  196.28
  -3  -2   4 6483.25  199.48
   3  -2  -4 6652.33  196.88
  -3   2   4 6212.88  194.68
   3   2  -4 6389.36  198.48
  -3   2   4 6508.95  196.28
   3   2  -4 6504.05  199.88
  -3   2   4 6149.48  195.88
   3   2  -4 6187.98  199.08
   3   2  -4 6652.23  198.68
   2  -2  -4    4.30   12.10
  -2  -2   4    0.00   16.10
  -2  -2   4    2.50   16.20
   2  -2  -4   -6.00   12.10
   2  -2  -4   20.60   13.90
  -2  -2   4    9.50   13.10
   2  -2  -4    4.80   14.80
  -2  -2   4   12.60   16.10
   2   2  -4    5.30   12.70
   2   2  -4    6.30   13.00
  -2   2   4   10.90    6.50
   2   2  -4  -12.30   15.30
  -2   2   4   -6.60   13.90
   2   2  -4   14.30   14.70
  -2   2   4   -2.70   12.40
  -2   2   4   14.20   12.40
  -2   2   4   -0.30   13.00
   2   2  -4   -5.10   15.10
   1  -2  -4 4094.59  124.09
  -1  -2   4 3731.43  123.79
  -1  -2   4 3876.51  124.09
   1  -2  -4 3815.62  124.39
  -1  -2   4 4056.49  124.49
   1  -2  -4 4212.18  124.09
  -1   2   4 3967.60  123.49
  -1   2   4 3737.53  122.59
   1   2  -4 3743.23  123.39
  -1   2   4 3671.03  123.09
  -1   2   4 3953.70  119.49
   1   2  -4 3676.53  126.69
   1   2  -4 4225.78  124.19
   1   2  -4 3900.61  124.29
   0  -2  -4   69.09   17.10
   0  -2  -4   72.49   16.00
   0  -2   4   79.39   16.00
   0  -2   4   69.59   18.90
   0  -2   4   73.79   16.00
   0  -2   4   69.29   15.00
   0  -2  -4   61.79   16.00
   0   2   4   99.39   17.20
   0   2  -4   83.79   14.90
   0   2  -4   87.39   16.00
   0   2   4   76.49   16.50
   0   2   4   77.29   16.10
   0   2  -4   93.29   14.00
   1  -2   4  868.51   40.00
   1  -2   4  915.51   38.70
   1  -2   4  868.21   39.20
   1  -2   4  934.71   38.90
  -1  -2  -4  801.82   40.50
  -1  -2  -4  813.12   42.70
  -1  -2  -4  870.21   40.60
  -1  -2  -4  866.91   44.00
   1   2   4  947.71   42.60
   1   2   4  890.31   41.20
  -1   2  -4  884.61   37.50
  -1   2  -4  846.02   38.70
  -1   2  -4  901.61   37.00
   1   2   4  846.22   42.00
   1   2   4  872.61   41.90
  -1   2  -4  832.92   38.40
   1   2   4  940.51   41.60
  -2  -2  -4   21.60   15.90
   2  -2   4    2.40   13.00
   2  -2   4   11.00   13.20
  -2  -2  -4    6.40   19.20
  -2  -2  -4  -12.10   21.60
   2  -2   4    3.90   14.80
  -2   2  -4   33.70   14.40
   2   2   4  -15.70   15.70
  -2   2  -4  -23.20   11.50
   2   2   4  -16.80   13.60
   2   2   4   -8.20   15.20
   2   2   4  -24.30   18.90
  -2   2  -4  -15.70   10.70
   2   2   4   -5.30   17.80
  -3  -2  -4   82.89   24.40
   3  -2   4  104.79   19.50
   3  -2   4  126.79   20.70
  -3  -2  -4  160.68   23.00
  -3  -2  -4  102.49   24.70
   3  -2   4  123.39   20.80
  -3  -2  -4  103.29   21.10
   3   2   4  115.99   22.70
  -3   2  -4  131.89   28.30
   3   2   4   60.49   22.70
  -3   2  -4  105.09   19.70
   3   2   4  120.09   24.80
  -3   2  -4  122.69   18.20
   3   2   4   65.09   23.30
   3   2   4  124.29   23.50
  -3   2  -4   83.19   18.00
   4  -2   4   72.49   21.10
  -4  -2  -4   46.00   25.70
  -4  -2  -4   18.50   21.70
   4  -2   4   27.10   19.80
   4  -2   4   20.20   20.20
   4  -2   4   54.89   21.00
  -4  -2  -4   34.10   20.80
   4   2   4    9.40   22.60
   4   2   4  -18.00   22.30
  -4   2  -4   31.00   17.30
   4   2   4    6.40   23.20
  -4   2  -4   20.00   17.30
  -4   2  -4   22.20   15.90
  -5  -2  -4  511.95   48.10
   5  -2   4  578.84   44.80
  -5  -2  -4  517.75   52.29
   5  -2   4  544.35   43.10
   5  -2   4  494.85   43.30
   5   2   4  529.45   48.10
  -5   2  -4  506.05   37.30
  -5   2  -4  610.24   36.70
   5   2   4  558.94   50.09
  -5   2  -4  558.04   38.10
  -6  -2  -4   -9.80   26.70
  -6  -2  -4   50.99   30.60
   6  -2   4   23.30   28.00
   6  -2   4   -2.00   34.60
   6  -2   4   21.40   23.20
  -6   2  -4   67.19   22.00
   6   2   4   38.80   27.80
   6   2   4   34.80   30.50
  -6   2  -4   19.90   24.40
  -6   2  -4   -5.00   21.10
   7  -2   4  255.37   40.10
  -7  -2  -4  210.28   41.10
   7  -2   4  241.88   39.80
  -7  -2  -4  356.16   49.60
   7   2   4  358.46   41.80
   7   2   4  311.67   51.59
   7   2   4  295.07   49.30
  -8  -2  -4   63.29   42.10
   8  -2   4    0.50   45.00
   8  -2   4   36.60   33.50
  -8  -2  -4   46.60   43.50
   8   2   4   31.10   41.60
   8   2   4   42.00   30.80
   8   2   4   -7.20   37.40
 -10  -3   4  -13.80   56.29
  10  -3  -4  -31.90   35.70
 -10  -3   4   35.50   47.80
  10  -3  -4  -28.90   42.30
 -10  -3   4   63.79   46.20
  10   3  -4   -2.40   42.50
  10   3  -4   88.79   46.10
  -9  -3   4  344.17   55.29
   9  -3  -4  242.28   40.30
   9  -3  -4  228.78   46.70
  -9  -3   4  270.77   52.39
  -9  -3   4  289.57   47.70
   9   3  -4  305.57   48.80
   9   3  -4  241.38   46.50
  -8  -3   4   82.49   34.90
   8  -3  -4   80.29   28.00
   8  -3  -4   66.29   30.70
  -8  -3   4  124.69   43.30
  -8  -3   4   84.59   32.00
  -8   3   4  134.99   24.30
   8   3  -4   25.50   36.80
   8   3  -4   23.10   37.30
   7  -3  -4  296.17   35.40
  -7  -3   4  274.27   39.30
   7  -3  -4  295.27   36.80
  -7  -3   4  266.57   36.50
  -7  -3   4  332.87   43.40
   7  -3  -4  250.57   36.10
  -7   3   4  321.67   34.30
   7   3  -4  245.08   37.90
  -7   3   4  270.97   27.10
   7   3  -4  303.17   40.00
   7   3  -4  246.78   31.10
   6  -3  -4  593.44   43.40
   6  -3  -4  630.24   42.30
  -6  -3   4  598.74   50.99
  -6  -3   4  617.24   49.50
  -6  -3   4  581.94   51.99
   6  -3  -4  568.34   42.30
   6   3  -4  565.44   48.00
   6   3  -4  565.24   49.90
   6   3  -4  601.64   37.00
  -6   3   4  604.34   39.00
  -5  -3   4  216.78   29.70
  -5  -3   4  181.58   30.00
   5  -3  -4  251.47   30.40
  -5  -3   4  227.78   31.80
  -5  -3   4  206.08   29.10
   5  -3  -4  193.48   25.00
   5  -3  -4  209.98   27.10
   5  -3  -4  232.28   26.90
  -5   3   4  242.48   23.10
   5   3  -4  223.78   31.70
   5   3  -4  237.08   24.60
   5   3  -4  199.48   30.50
  -5   3   4  258.87   27.00
   5   3  -4  235.88   42.30
  -5   3   4  220.28   24.10
  -5   3   4  187.48   23.10
  -4  -3   4 1482.45   66.09
   4  -3  -4 1515.75   57.89
   4  -3  -4 1411.86   59.59
  -4  -3   4 1424.86   64.69
   4  -3  -4 1452.75   59.19
  -4  -3   4 1406.36   63.39
   4  -3  -4 1527.55   58.49
  -4  -3   4 1447.06   63.79
  -4  -3   4 1602.44   64.19
  -4   3   4 1489.85   57.39
   4   3  -4 1455.25   58.89
  -4   3   4 1493.75   53.19
  -4   3   4 1491.85   56.39
   4   3  -4 1527.55   61.99
   4   3  -4 1561.64   62.39
   4   3  -4 1390.26   64.89
  -4   3   4 1501.15   48.10
   4   3  -4 1331.57   63.39
  -3  -3   4   44.60   22.20
   3  -3  -4   59.79   16.20
   3  -3  -4   70.29   14.60
  -3  -3   4   50.29   20.40
  -3  -3   4   69.19   21.20
  -3  -3   4   91.89   18.40
   3  -3  -4   48.90   15.20
   3  -3  -4   59.09   16.70
  -3  -3   4   42.30   17.90
   3   3  -4   44.10   19.70
   3   3  -4   83.69   19.40
   3   3  -4   74.69   17.20
  -3   3   4   62.39   13.90
   3   3  -4   80.79   19.70
  -3   3   4   66.19   13.20
   3   3  -4   88.79   17.90
  -3   3   4   37.60   12.80
  -3   3   4   58.79   14.60
  -3   3   4   55.39   12.90
   2  -3  -4 4033.90  122.89
  -2  -3   4 3788.22  125.89
  -2  -3   4 3983.80  125.89
  -2  -3   4 4120.79  126.29
  -2  -3   4 3505.85  131.39
   2  -3  -4 3875.71  123.79
   2  -3  -4 3845.22  122.79
  -2   3   4 4037.50  122.59
  -2   3   4 3845.02  120.69
   2   3  -4 3916.71  125.79
  -2   3   4 3697.33  120.59
  -2   3   4 3664.23  113.29
   2   3  -4 3981.70  126.09
   2   3  -4 3712.53  125.39
   2   3  -4 4176.08  124.59
   2   3  -4 3840.62  124.49
  -2   3   4 3944.41  122.59
   1  -3  -4  143.89   17.20
   1  -3  -4  153.48   17.60
  -1  -3   4  148.49   18.30
  -1  -3   4  162.18   19.80
   1  -3  -4  122.69   18.30
  -1  -3   4  144.39   19.30
  -1  -3   4  141.49   18.40
   1  -3  -4  141.49   19.50
  -1   3   4  158.88   16.40
   1   3  -4  133.59   21.30
   1   3  -4  145.19   21.60
  -1   3   4  152.58   18.10
  -1   3   4  148.09   17.20
  -1   3   4  152.78   19.20
   1   3  -4  129.79   16.70
   1   3  -4  145.09   18.60
  -1   3   4  143.29   17.40
   1   3  -4  141.39   17.10
   0  -3   4 2160.68   77.29
   0  -3   4 2335.47   77.49
   0  -3  -4 2340.97   78.89
   0  -3  -4 2351.66   85.09
   0  -3   4 2327.97   77.59
   0  -3   4 2247.48   77.79
   0   3   4 2196.98   77.89
   0   3  -4 2296.17   77.29
   0   3   4 2314.37   79.09
   0   3  -4 2378.26   75.09
   0   3   4 2330.77   79.09
   0   3  -4 2234.28   75.49
   0   3   4 2168.08   81.29
   0   3  -4 2337.17   76.69
   0   3   4 2330.97   79.19
   1  -3   4  643.34   32.40
   1  -3   4  625.34   32.00
  -1  -3  -4  665.63   37.80
   1  -3   4  687.13   33.50
  -1  -3  -4  634.14   36.10
  -1  -3  -4  681.43   35.10
  -1  -3  -4  665.73   38.20
  -1   3  -4  627.44   32.00
   1   3   4  731.83   37.30
   1   3   4  687.33   36.40
   1   3   4  670.53   36.50
   1   3   4  629.34   34.90
  -1   3  -4  673.43   30.90
  -1   3  -4  658.03   28.90
  -1   3  -4  672.23   29.80
   1   3   4  616.44   36.60
   2  -3   4  843.32   39.70
   2  -3   4  892.21   40.10
  -2  -3  -4  805.12   48.90
   2  -3   4  859.81   39.60
  -2  -3  -4  821.92   47.20
   2  -3   4  838.02   40.90
  -2  -3  -4  914.41   43.20
  -2  -3  -4  813.02   48.10
   2   3   4  861.11   44.30
  -2   3  -4  897.01   34.60
   2   3   4  857.71   45.60
   2   3   4  762.42   42.50
  -2   3  -4  881.91   38.80
   2   3   4  924.71   45.90
   3  -3   4 2137.79   76.89
  -3  -3  -4 2113.29   81.09
  -3  -3  -4 2033.90   78.89
  -3  -3  -4 2001.40   82.99
  -3  -3  -4 2023.70   83.89
   3  -3   4 2055.89   76.39
   3  -3   4 2021.50   75.79
  -3  -3  -4 2126.59   83.59
   3  -3   4 2183.38   76.49
   3   3   4 2110.49   81.69
   3   3   4 2110.79   81.49
  -3   3  -4 2116.19   73.89
   3   3   4 2064.49   81.69
  -3   3  -4 2081.99   72.99
   3   3   4 2028.60   82.99
   3   3   4 2054.99   82.69
   4  -3   4   33.90   21.70
  -4  -3  -4   42.10   23.50
   4  -3   4   52.89   18.80
  -4  -3  -4   59.29   27.20
  -4  -3  -4   17.70   26.20
   4  -3   4   37.20   19.80
   4  -3   4   25.00   20.80
  -4   3  -4    9.40   18.70
   4   3   4    4.70   24.10
  -4   3  -4   19.10   15.70
  -4   3  -4   19.70   11.00
   4   3   4   59.89   26.70
   5  -3   4 1163.48   59.59
   5  -3   4 1229.18   60.19
   5  -3   4 1245.58   58.59
  -5  -3  -4 1128.99   68.39
  -5  -3  -4 1140.49   66.49
   5   3   4 1079.49   65.19
  -5   3  -4 1164.58   53.79
  -5   3  -4 1177.08   44.90
   5   3   4 1160.68   67.39
   6  -3   4  424.56   42.40
   6  -3   4  388.56   42.90
  -6  -3  -4  369.86   44.70
  -6  -3  -4  393.56   48.60
   6  -3   4  332.97   42.10
   6   3   4  415.56   51.59
   6   3   4  425.56   52.69
   6   3   4  477.45   49.10
  -6   3  -4  347.27   36.50
  -7  -3  -4  291.67   44.80
   7  -3   4  282.07   39.70
   7  -3   4  372.96   45.30
  -7  -3  -4  290.57   49.50
   7   3   4  311.87   49.99
   7   3   4  274.87   39.20
   7   3   4  294.67   48.90
   8  -3   4  788.32   68.79
  -8  -3  -4  660.93   83.99
   8  -3   4  760.42   65.39
  -8  -3  -4  686.83   76.99
   8   3   4  728.43   72.79
   8   3   4  922.11   78.39
  -9  -4   4  -14.10   46.50
   9  -4  -4   43.10   37.70
  -9  -4   4  -39.10   40.90
   9  -4  -4    2.50   28.10
  -9  -4   4   81.79   47.40
   9   4  -4   24.50   38.90
   9   4  -4   -8.60   35.70
   8  -4  -4 2033.30   89.99
  -8  -4   4 1971.90  101.69
  -8  -4   4 1931.01   97.99
  -8  -4   4 1971.00  103.99
   8  -4  -4 1945.01   90.29
   8   4  -4 1857.71   74.69
   8   4  -4 2126.49  102.79
   8   4  -4 1867.41   99.69
  -8   4   4 1975.10  101.19
  -7  -4   4   70.59   34.40
  -7  -4   4   20.50   30.10
   7  -4  -4   52.29   25.30
  -7  -4   4   -8.50   30.50
   7  -4  -4   24.30   27.40
   7  -4  -4   10.90   20.60
   7   4  -4    8.70   31.10
   7   4  -4    3.40   17.20
  -7   4   4  -21.50   17.70
   7   4  -4   -9.60   29.20
   6  -4  -4  781.02   47.50
   6  -4  -4  789.32   47.90
  -6  -4   4  806.52   58.59
   6  -4  -4  814.72   48.60
  -6  -4   4  667.73   54.49
  -6  -4   4  852.31   59.29
   6   4  -4  878.81   57.29
  -6   4   4  767.52   41.20
   6   4  -4  819.22   56.99
   6   4  -4  760.12   42.10
   5  -4  -4   66.69   19.30
   5  -4  -4   46.50   18.00
  -5  -4   4   65.19   25.30
   5  -4  -4   51.79   19.80
  -5  -4   4   95.39   26.70
  -5  -4   4   82.59   26.60
  -5  -4   4   43.10   36.40
   5  -4  -4   81.09   21.40
   5   4  -4   33.00   18.40
   5   4  -4   42.00   25.60
  -5   4   4   56.19   14.90
  -5   4   4   38.10   15.50
   5   4  -4   57.89   24.10
  -4  -4   4   26.50   22.20
  -4  -4   4  -10.00   17.00
   4  -4  -4   21.90   14.30
   4  -4  -4    6.40   15.50
  -4  -4   4   44.10   21.20
  -4  -4   4   13.40   22.10
  -4  -4   4   25.10   21.00
   4  -4  -4    2.30   14.10
   4   4  -4   14.50   18.50
  -4   4   4   16.50   10.70
  -4   4   4   10.00   13.00
   4   4  -4  -14.20   17.30
   4   4  -4   -7.30   20.40
  -4   4   4    3.40    7.70
   4   4  -4   12.00   21.30
   4   4  -4  -16.60   17.00
  -4   4   4    7.40   11.60
  -3  -4   4  267.67   32.60
   3  -4  -4  274.87   22.40
  -3  -4   4  244.38   27.80
   3  -4  -4  276.97   24.90
  -3  -4   4  359.36   29.90
   3  -4  -4  245.28   25.00
  -3  -4   4  245.68   30.00
   3  -4  -4  266.77   25.90
  -3  -4   4  268.87   33.30
   3   4  -4  261.47   28.10
   3   4  -4  244.88   30.40
   3   4  -4  244.08   26.70
   3   4  -4  262.97   28.20
  -3   4   4  265.47   16.70
  -3   4   4  309.37   23.30
  -3   4   4  244.38   20.90
  -3   4   4  278.47   23.50
   3   4  -4  301.77   29.80
  -3   4   4  261.37   17.10
  -2  -4   4  798.02   42.60
   2  -4  -4  870.61   40.40
   2  -4  -4  812.52   40.20
  -2  -4   4  877.41   41.80
   2  -4  -4  890.81   39.10
   2  -4  -4  918.81   37.90
  -2  -4   4  917.01   42.20
  -2  -4   4  918.31   44.40
  -2  -4   4  905.01   47.50
   2   4  -4  891.01   40.00
  -2   4   4  894.71   34.90
  -2   4   4  847.92   34.30
   2   4  -4  813.32   39.60
   2   4  -4  855.81   45.00
  -2   4   4  909.11   37.70
  -2   4   4  870.81   37.30
   2   4  -4  875.21   42.10
  -2   4   4  920.91   42.20
  -1  -4   4  533.65   32.80
   1  -4  -4  482.85   29.30
  -1  -4   4  485.35   31.70
   1  -4  -4  526.45   30.10
  -1  -4   4  547.45   30.30
   1  -4  -4  538.45   31.20
   1  -4  -4  517.15   30.90
  -1   4   4  547.35   30.20
   1   4  -4  517.85   27.70
   1   4  -4  569.54   36.60
  -1   4   4  532.75   29.30
  -1   4   4  512.45   27.60
  -1   4   4  548.65   34.60
   1   4  -4  568.34   28.90
   1   4  -4  542.05   31.60
  -1   4   4  507.65   25.30
   1   4  -4  532.85   33.20
  -1   4   4  518.65   27.80
   0  -4  -4 1785.02   65.49
   0  -4   4 1746.03   63.99
   0  -4  -4 1706.13   74.19
   0  -4   4 1676.13   63.09
   0  -4  -4 1646.84   66.39
   0  -4   4 1756.72   62.99
   0  -4  -4 1768.62   65.49
   0  -4   4 1869.51   64.29
   0   4   4 1863.51   64.99
   0   4  -4 1767.82   59.49
   0   4  -4 1831.72   59.19
   0   4  -4 1839.52   62.99
   0   4   4 1773.22   65.59
   0   4   4 1702.63   63.39
   0   4  -4 1807.82   61.89
   0   4  -4 1857.81   69.29
   0   4   4 1925.31   65.89
  -1  -4  -4    6.10   18.90
  -1  -4  -4    2.60   20.70
   1  -4   4   10.30   12.70
   1  -4   4   12.40   12.40
  -1  -4  -4  -14.90   14.60
  -1  -4  -4    1.20   17.30
   1  -4   4    2.40   11.70
   1  -4   4    8.70   12.30
  -1  -4  -4    4.70   13.30
  -1   4  -4   -1.80    9.30
  -1   4  -4    7.40    7.70
   1   4   4   20.60   15.50
   1   4   4   12.60   15.20
  -1   4  -4   14.90    9.50
   1   4   4    1.40   14.50
   1   4   4   17.00   17.70
   1   4   4   -5.80   15.40
  -1   4  -4   -3.30   10.30
   2  -4   4 2530.45   85.49
   2  -4   4 2425.56   85.69
  -2  -4  -4 2451.35   94.59
  -2  -4  -4 2521.25   93.99
  -2  -4  -4 2492.25   91.09
   2  -4   4 2523.85   85.19
   2  -4   4 2519.85   85.79
  -2  -4  -4 2508.75   95.19
   2   4   4 2468.85   92.19
   2   4   4 2658.53   92.19
   2   4   4 2649.83   94.19
  -2   4  -4 2626.24   83.29
   2   4   4 2552.84   91.89
   3  -4   4   33.00   15.80
  -3  -4  -4   45.30   23.60
   3  -4   4   49.00   17.50
  -3  -4  -4   37.60   25.40
  -3  -4  -4   17.80   18.90
  -3  -4  -4   22.90   22.10
   3  -4   4   30.60   16.30
   3   4   4   -4.40   21.50
   3   4   4   60.79   23.20
  -3   4  -4    8.50   11.90
   3   4   4   12.40   24.70
   3   4   4   52.99   22.50
  -3   4  -4   54.29   13.40
   3   4   4   63.99   23.60
  -4  -4  -4 1896.41   87.39
   4  -4   4 1889.61   76.19
   4  -4   4 2057.09   75.59
  -4  -4  -4 2075.79   89.99
   4  -4   4 1955.80   75.19
   4  -4   4 2073.19   77.09
  -4  -4  -4 1977.00   87.49
   4   4   4 1988.60   84.99
  -4   4  -4 1929.51   69.89
   4   4   4 1941.11   83.59
   4   4   4 1880.51   83.09
  -4   4  -4 1866.31   69.69
   5  -4   4    0.40   18.80
   5  -4   4  -10.00   20.00
  -5  -4  -4   11.80   30.70
  -5  -4  -4    1.80   28.50
  -5  -4  -4  -10.50   27.60
   5  -4   4    2.60   18.80
   5   4   4    7.60   25.50
   5   4   4    4.90   27.80
   5   4   4  -25.80   25.50
  -5   4  -4   21.90   15.60
  -6  -4  -4  718.83   63.09
   6  -4   4  826.12   52.79
   6  -4   4  910.61   55.69
  -6  -4  -4  756.52   66.69
   6   4   4  780.82   62.09
  -6   4  -4  915.51   46.40
   6   4   4  773.82   63.89
   6   4   4  803.22   56.69
  -7  -4  -4   15.90   37.30
   7  -4   4    1.10   30.20
  -7  -4  -4   10.40   61.69
   7  -4   4   31.90   27.30
   7   4   4   61.99   41.40
   7   4   4   14.20   30.00
   8  -4   4  409.66   54.09
  -8  -4  -4  349.67   54.09
   8  -4   4  283.37   43.50
   8   4   4  368.06   57.99
   8   4   4  345.37   54.89
   8   4   4  303.97   66.59
  -9  -5   4  705.83   77.09
   9  -5  -4  592.84   59.49
   9  -5  -4  591.04   57.69
  -9  -5   4  513.55   61.49
  -9  -5   4  641.44   70.49
   9   5  -4  700.03   71.69
   9   5  -4  560.64   63.29
  -8  -5   4   49.40   40.50
   8  -5  -4   93.49   29.30
   8  -5  -4   94.89   30.70
  -8  -5   4  119.29   44.70
   8   5  -4  106.99   25.70
   8   5  -4   65.89   38.90
  -7  -5   4  468.95   53.59
  -7  -5   4  421.96   48.70
  -7  -5   4  452.45   55.59
   7  -5  -4  464.05   41.90
   7  -5  -4  560.34   43.20
   7   5  -4  453.75   52.99
   7   5  -4  533.95   39.20
   7   5  -4  448.96   55.39
   6  -5  -4  368.96   35.70
   6  -5  -4  293.47   33.00
  -6  -5   4  242.58   38.40
  -6  -5   4  323.77   41.70
  -6  -5   4  311.47   42.50
   6  -5  -4  333.97   34.00
   6   5  -4  304.57   35.30
   6   5  -4  286.47   40.70
   6   5  -4  293.27   41.10
  -5  -5   4  514.15   48.20
   5  -5  -4  559.94   34.60
  -5  -5   4  533.55   47.70
  -5  -5   4  495.05   47.90
   5  -5  -4  530.45   36.20
   5  -5  -4  538.75   39.00
   5   5  -4  524.65   46.30
   5   5  -4  561.04   46.60
  -5   5   4  515.45   23.90
   5   5  -4  535.85   41.40
   4  -5  -4  267.07   26.80
  -4  -5   4  264.17   32.10
  -4  -5   4  307.27   38.40
  -4  -5   4  314.87   39.30
   4  -5  -4  239.68   35.20
   4  -5  -4  242.18   27.00
   4  -5  -4  277.47   25.20
  -4  -5   4  292.97   35.40
   4   5  -4  294.37   30.80
  -4   5   4  306.67   21.50
   4   5  -4  319.37   37.30
  -4   5   4  286.17   23.90
   4   5  -4  324.57   39.10
   4   5  -4  288.97   31.40
  -3  -5   4  128.49   24.90
   3  -5  -4  126.29   18.20
  -3  -5   4  134.59   23.30
  -3  -5   4  121.29   24.30
   3  -5  -4  129.49   17.80
  -3  -5   4  124.39   26.70
   3  -5  -4  149.49   17.20
  -3  -5   4  113.59   22.40
   3  -5  -4  111.89   18.10
   3   5  -4   94.89   21.60
   3   5  -4  109.29   19.50
  -3   5   4  133.69   19.80
  -3   5   4  123.59   14.00
   3   5  -4  124.89   21.50
   3   5  -4  125.79   25.50
   2  -5  -4  841.82   36.90
  -2  -5   4  815.72   40.70
  -2  -5   4  696.03   46.60
   2  -5  -4  854.61   37.20
  -2  -5   4  713.93   41.80
  -2  -5   4  834.72   41.30
   2  -5  -4  828.92   39.10
   2  -5  -4  779.42   37.80
  -2   5   4  794.12   25.10
   2   5  -4  845.42   39.40
  -2   5   4  790.42   40.30
   2   5  -4  756.52   39.70
  -2   5   4  759.52   34.00
  -2   5   4  771.62   34.20
   2   5  -4  795.22   37.20
   2   5  -4  757.92   45.10
   2   5  -4  772.02   44.40
  -1  -5   4  436.06   27.10
   1  -5  -4  378.66   27.90
  -1  -5   4  314.07   32.90
   1  -5  -4  335.27   28.90
  -1  -5   4  367.16   28.80
   1  -5  -4  343.07   29.20
   1  -5  -4  379.66   25.10
   1  -5  -4  389.26   26.50
  -1  -5   4  332.37   27.60
  -1   5   4  339.97   22.30
   1   5  -4  370.66   25.30
  -1   5   4  358.26   25.20
  -1   5   4  370.06   24.90
   1   5  -4  397.46   34.90
   1   5  -4  418.96   23.10
  -1   5   4  367.76   22.40
  -1   5   4  371.26   32.80
   1   5  -4  362.26   27.10
  -1   5   4  377.56   22.40
   1   5  -4  389.86   24.00
   0  -5  -4  709.23   36.00
   0  -5   4  672.63   34.20
   0  -5  -4  662.83   37.70
   0  -5   4  689.73   33.70
   0  -5   4  628.24   34.00
   0  -5  -4  692.73   38.40
   0  -5  -4  650.23   41.00
   0  -5   4  651.03   34.60
   0   5   4  634.24   33.50
   0   5  -4  664.73   42.70
   0   5  -4  701.83   30.50
   0   5   4  594.54   33.00
   0   5  -4  650.53   23.90
   0   5   4  658.63   35.50
   0   5   4  609.64   42.00
   0   5   4  677.93   35.10
   0   5   4  676.63   34.30
   0   5  -4  622.44   30.80
  -1  -5  -4 2380.06   91.59
  -1  -5  -4 2739.53   90.99
  -1  -5  -4 2461.55   88.29
  -1  -5  -4 2437.46   91.09
   1  -5   4 2422.96   83.39
   1  -5   4 2344.47   83.69
   1  -5   4 2583.94   83.69
   1  -5   4 2643.24   84.19
  -1  -5  -4 2467.45   92.49
   1   5   4 2618.74   87.69
   1   5   4 2422.96   94.29
   1   5   4 2565.54   89.69
  -1   5  -4 2457.75   92.89
   1   5   4 2526.15   87.89
  -1   5  -4 2451.85   80.09
   1   5   4 2504.75   90.09
   1   5   4 2484.85   88.19
   2  -5   4  598.04   32.90
   2  -5   4  619.64   33.60
  -2  -5  -4  632.14   39.00
  -2  -5  -4  508.45   43.10
  -2  -5  -4  632.24   43.60
  -2  -5  -4  616.34   45.30
   2  -5   4  649.43   31.90
   2  -5   4  607.44   33.20
  -2  -5  -4  683.83   43.60
   2   5   4  673.63   42.70
   2   5   4  583.64   45.60
  -2   5  -4  541.05   28.60
   2   5   4  645.74   42.10
   2   5   4  550.64   40.50
   2   5   4  637.14   47.40
  -2   5  -4  646.54   27.10
   2   5   4  604.44   42.00
  -3  -5  -4 2344.97   96.69
   3  -5   4 2496.05   83.99
   3  -5   4 2332.17   83.89
   3  -5   4 2448.66   85.19
  -3  -5  -4 2376.96   96.69
  -3  -5  -4 2364.16   98.19
  -3  -5  -4 2386.16   94.69
   3  -5   4 2423.06   84.79
   3   5   4 2444.16   94.39
   3   5   4 2377.36   92.29
  -3   5  -4 2439.46   78.09
  -3   5  -4 2472.65   78.39
   3   5   4 2424.76   96.29
   3   5   4 2446.46   94.79
   4  -5   4   31.80   22.20
   4  -5   4   -4.20   15.40
  -4  -5  -4    7.40   25.40
  -4  -5  -4    5.10   28.20
  -4  -5  -4   18.60   26.80
   4  -5   4    9.10   15.30
  -4   5  -4   21.00   11.20
   4   5   4  -15.20   23.20
   4   5   4   26.60   26.80
   4   5   4   11.40   24.20
  -4   5  -4    8.20   13.20
  -5  -5  -4 2111.79   98.59
   5  -5   4 1955.50   79.69
   5  -5   4 2027.40   78.89
  -5  -5  -4 2042.60   94.69
  -5  -5  -4 2031.70   94.49
   5  -5   4 1999.50   80.09
   5   5   4 1924.91   88.69
   5   5   4 2057.39   92.59
   5   5   4 2047.30   92.99
  -6  -5  -4  190.98   45.90
  -6  -5  -4  170.38   48.20
  -6  -5  -4  161.58   41.10
   6  -5   4  236.28   31.20
   6  -5   4  238.18   31.70
   6   5   4  171.98   42.80
   6   5   4  140.79   37.40
   6   5   4  167.38   39.20
   7  -5   4  508.35   50.19
  -7  -5  -4  561.64   64.29
   7  -5   4  524.85   60.99
  -7  -5  -4  550.84   63.09
   7   5   4  572.54   60.49
   7   5   4  498.25   54.49
   7   5   4  467.35   60.19
  -8  -5  -4  497.45   61.89
   8  -5   4  398.86   54.39
  -8  -5  -4  532.25   64.39
   8  -5   4  466.85   56.79
   8   5   4  453.75   52.69
   8   5   4  447.26   60.59
   8   5   4  690.03   75.79
   9  -6  -4   -3.40   29.10
  -9  -6   4  -13.40   45.80
   9  -6  -4   30.30   41.60
  -9  -6   4   -7.60   42.00
  -9  -6   4   27.20   46.20
   9   6  -4    5.70   43.90
   9   6  -4    7.10   44.50
  -8  -6   4   52.09   42.90
   8  -6  -4   49.70   27.90
  -8  -6   4   66.19   43.50
   8  -6  -4  104.19   31.20
   8   6  -4  112.19   28.70
   8   6  -4  113.39   40.50
   8   6  -4   93.89   46.90
   7  -6  -4  776.32   49.70
  -7  -6   4  808.02   70.69
  -7  -6   4  784.12   72.69
   7  -6  -4  827.12   50.19
  -7  -6   4  803.92   66.19
   7   6  -4  713.33   61.89
   7   6  -4  872.91   51.19
   7   6  -4  775.32   67.69
   6  -6  -4  191.98   25.30
   6  -6  -4  179.38   24.70
  -6  -6   4  165.38   36.20
   6  -6  -4  201.78   25.60
  -6  -6   4  206.78   36.90
  -6  -6   4  208.58   37.80
  -6   6   4  136.09   14.70
   6   6  -4  234.48   31.40
   6   6  -4  218.08   36.70
   6   6  -4  117.09   34.20
   5  -6  -4 2980.00  101.99
   5  -6  -4 2940.01  108.79
  -5  -6   4 3073.89  117.49
  -5  -6   4 3047.20  116.29
   5  -6  -4 2882.01  104.79
   5  -6  -4 2984.80  102.49
  -5  -6   4 2984.50  117.19
  -5   6   4 2917.11   92.59
   5   6  -4 2957.60  111.29
   5   6  -4 2974.70  114.39
  -5   6   4 3063.59   95.89
   5   6  -4 2991.10  112.49
  -5   6   4 3082.79   92.89
   4  -6  -4   20.00   14.20
  -4  -6   4  -21.80   22.90
   4  -6  -4   -1.60   13.40
   4  -6  -4   -4.40   15.80
  -4  -6   4  -19.80   25.60
  -4  -6   4   -5.70   22.80
   4  -6  -4   12.40   13.70
  -4   6   4    2.90    8.50
   4   6  -4   -0.30   22.10
   4   6  -4    5.70   18.50
  -4   6   4   24.90   17.90
   4   6  -4   18.20   22.70
   4   6  -4  -13.00   21.10
  -4   6   4    0.50    8.80
   3  -6  -4 3124.79  104.29
  -3  -6   4 3168.58  116.29
   3  -6  -4 3292.97  104.09
   3  -6  -4 3152.58  103.89
   3  -6  -4 3186.28  104.99
  -3  -6   4 3144.29  113.69
  -3  -6   4 3444.06  113.49
  -3  -6   4 3056.79  112.89
   3   6  -4 3169.08  114.69
   3   6  -4 3253.47  107.49
   3   6  -4 3132.89  111.89
  -3   6   4 3130.39  106.99
  -3   6   4 3082.49   98.49
   3   6  -4 3168.78  108.19
  -2  -6   4   82.19   18.50
  -2  -6   4   46.50   23.80
   2  -6  -4   44.40   10.30
   2  -6  -4   28.80   14.60
  -2  -6   4   29.20   20.30
  -2  -6   4   47.20   19.80
   2  -6  -4   37.20   15.80
  -2  -6   4   50.09   20.20
   2  -6  -4   55.89   16.30
   2  -6  -4   44.80   14.20
   2   6  -4   42.60   15.70
  -2   6   4   61.69   12.10
   2   6  -4   50.49   14.50
   2   6  -4   55.49   24.00
   2   6  -4   25.70   15.60
  -2   6   4   53.79   20.30
  -1  -6   4 2020.80   75.59
   1  -6  -4 2145.79   72.79
  -1  -6   4 2191.18   74.89
   1  -6  -4 2078.89   74.89
   1  -6  -4 2190.98   73.79
   1  -6  -4 2006.70   73.09
  -1  -6   4 1853.51   79.49
   1  -6  -4 1848.62   78.89
  -1  -6   4 2149.39   74.49
   1   6  -4 2066.19   72.59
  -1   6   4 2056.89   80.89
  -1   6   4 2095.39   62.59
   1   6  -4 2002.80   82.89
   1   6  -4 1996.60   65.69
  -1   6   4 2110.09   71.59
   1   6  -4 2033.30   71.39
  -1   6   4 2091.39   70.99
  -1   6   4 2109.49   70.99
   0  -6  -4  166.98   21.40
   0  -6  -4  182.08   22.10
   0  -6  -4  144.19   21.90
   0  -6   4  155.98   17.30
   0  -6  -4  139.79   34.90
   0  -6   4  113.09   18.00
   0  -6  -4  136.89   21.90
   0  -6   4  127.29   18.20
   0   6   4  149.39   27.60
   0   6   4  167.18   20.60
   0   6   4  180.88   20.50
   0   6   4  131.79   24.40
   0   6  -4  162.98   17.50
   0   6   4  135.59   19.20
   0   6   4  144.79   17.00
   0   6  -4  150.38   28.50
  -1  -6  -4  524.55   40.90
   1  -6   4  591.64   30.30
  -1  -6  -4  574.04   39.90
  -1  -6  -4  549.25   43.60
   1  -6   4  598.74   30.80
  -1  -6  -4  572.74   35.50
   1  -6   4  544.75   31.00
   1  -6   4  550.24   30.70
  -1   6  -4  604.84   24.50
   1   6   4  629.44   38.40
   1   6   4  540.15   34.90
   1   6   4  491.05   34.20
   1   6   4  553.84   40.20
  -1   6  -4  591.04   44.20
  -1   6  -4  564.64   24.70
   1   6   4  521.45   34.10
   1   6   4  538.25   34.70
   2  -6   4  511.55   27.70
  -2  -6  -4  501.35   38.70
  -2  -6  -4  470.15   43.30
  -2  -6  -4  462.55   42.40
   2  -6   4  490.55   29.70
  -2  -6  -4  483.25   42.30
   2  -6   4  461.75   28.90
   2  -6   4  489.85   29.00
   2   6   4  434.86   38.30
   2   6   4  444.06   38.40
   2   6   4  356.06   38.70
  -2   6  -4  473.05   18.80
   2   6   4  431.56   44.20
   2   6   4  452.95   37.40
  -2   6  -4  473.55   19.00
  -3  -6  -4   49.90   26.40
   3  -6   4   20.50   14.70
  -3  -6  -4  -13.80   25.90
  -3  -6  -4    6.30   25.80
   3  -6   4   12.70   14.40
  -3  -6  -4    6.80   25.10
   3  -6   4   17.60   16.60
   3  -6   4   25.50   14.00
   3   6   4   -3.20   22.50
   3   6   4   72.09   27.40
   3   6   4   48.80   26.60
   3   6   4   12.70   24.00
   4  -6   4  171.58   22.00
  -4  -6  -4  141.19   34.40
   4  -6   4  206.08   25.70
  -4  -6  -4  189.38   35.00
  -4  -6  -4  175.68   35.10
   4  -6   4  125.29   22.00
   4   6   4  183.78   33.00
   4   6   4  185.78   33.40
   4   6   4   98.09   33.20
   5  -6   4  211.48   25.70
   5  -6   4  293.97   32.50
   5  -6   4  228.88   25.90
  -5  -6  -4  257.07   45.70
  -5  -6  -4  284.57   42.50
  -5  -6  -4  210.38   40.60
   5   6   4  261.17   39.20
   5   6   4  207.48   38.20
   5   6   4  232.78   39.00
  -6  -6  -4   74.49   43.30
   6  -6   4   42.00   23.80
  -6  -6  -4   77.59   42.10
   6  -6   4   49.00   23.50
  -6  -6  -4   46.80   39.60
   6   6   4   36.30   37.30
   6   6   4   66.19   36.10
  -7  -6  -4  322.87   55.19
   7  -6   4  476.05   49.60
  -7  -6  -4  299.47   56.19
   7   6   4  336.17   49.50
   7   6   4  418.96   56.69
  -8  -6  -4  -57.29   54.19
   8  -6   4  141.89   33.40
  -8  -6  -4   41.80   50.59
   8  -6   4   57.09   48.10
   8   6   4   62.09   35.10
   8   6   4   32.30   47.20
  -8  -7   4   12.20   40.80
  -8  -7   4   97.49   45.90
  -8  -7   4  123.09   42.70
   8  -7  -4   72.89   32.00
   8   7  -4   81.49   44.80
   8   7  -4   89.09   30.30
   8   7  -4  118.79   47.10
  -7  -7   4  194.68   46.90
  -7  -7   4  167.28   47.30
   7  -7  -4  208.98   29.10
   7  -7  -4  150.18   25.50
  -7  -7   4  197.48   48.40
   7   7  -4  130.89   43.10
   7   7  -4  151.08   30.60
   7   7  -4  181.88   38.70
  -6  -7   4  769.52   63.79
  -6  -7   4  662.53   64.79
   6  -7  -4  772.62   41.90
   6  -7  -4  749.33   44.00
  -6  -7   4  789.02   66.39
   6  -7  -4  654.13   41.50
   6   7  -4  764.62   59.49
   6   7  -4  838.32   60.89
   6   7  -4  664.43   52.69
  -5  -7   4  105.29   31.20
  -5  -7   4   71.39   31.10
  -5  -7   4   40.00   30.10
   5  -7  -4   97.39   19.00
   5  -7  -4  112.79   17.60
   5   7  -4  117.79   31.40
   5   7  -4  113.29   30.80
   5   7  -4   87.89   28.20
  -5   7   4   91.59   22.00
   4  -7  -4 2214.38   76.49
   4  -7  -4 2053.99   74.99
   4  -7  -4 2119.49   74.89
  -4  -7   4 2074.39   90.09
  -4  -7   4 2152.68   89.59
  -4  -7   4 2107.69   91.49
   4  -7  -4 2120.89   77.59
  -4  -7   4 2109.69   89.89
   4   7  -4 2238.88   83.59
   4   7  -4 2037.30   86.69
   4   7  -4 2180.78   90.99
   4   7  -4 2065.39   83.99
  -4   7   4 2189.38   78.89
   3  -7  -4   17.40   13.50
  -3  -7   4  -16.60   20.90
  -3  -7   4    1.90   21.80
  -3  -7   4   -5.30   25.50
   3  -7  -4   -4.90   14.80
   3  -7  -4   18.00   14.40
  -3  -7   4  -14.80   22.40
   3  -7  -4   -6.70   12.70
   3   7  -4   10.80   16.20
  -3   7   4    5.60    4.50
   3   7  -4  -12.30   16.90
   3   7  -4   32.40   25.00
  -3   7   4   23.20   19.10
   3   7  -4   11.00   16.60
  -2  -7   4 2224.68   87.79
   2  -7  -4 2341.87   80.69
   2  -7  -4 2427.86   77.09
   2  -7  -4 2274.47   80.99
  -2  -7   4 2151.88   94.99
   2  -7  -4 2367.86   80.49
  -2  -7   4 2194.98   86.99
  -2  -7   4 2374.06   88.69
   2  -7  -4 2270.67   80.79
  -2  -7   4 2411.76   85.99
   2   7  -4 2343.37   93.49
  -2   7   4 2372.06   74.19
   2   7  -4 2258.87   82.79
  -2   7   4 2373.16   74.69
  -2   7   4 2311.97   88.79
  -1  -7   4   60.19   16.50
  -1  -7   4   28.10   16.50
   1  -7  -4   31.10   14.60
  -1  -7   4   32.00   15.90
   1  -7  -4   28.50   15.40
   1  -7  -4   18.40   20.20
  -1  -7   4   36.30   18.70
  -1  -7   4  -21.20   23.50
   1  -7  -4   26.70   16.10
   1   7  -4   20.20   12.90
  -1   7   4   18.20   12.60
   1   7  -4   34.70   13.50
   1   7  -4   44.40   25.00
  -1   7   4   29.30   23.50
  -1   7   4   10.60   13.70
   0  -7  -4 1857.61   72.69
   0  -7  -4 1890.01   75.29
   0  -7  -4 1967.40   73.59
   0  -7  -4 1903.81   75.39
   0  -7   4 1909.31   67.79
   0  -7   4 1862.11   69.09
   0  -7   4 1892.71   68.19
   0   7   4 1882.41   61.79
   0   7   4 1953.10   62.29
   0   7   4 1930.21   72.39
   0   7  -4 1904.41   62.59
   0   7  -4 1898.51   62.19
   0   7   4 1787.92   68.99
   0   7   4 1853.51   68.69
   0   7   4 1691.93   79.09
   0   7  -4 1848.81   81.09
   1  -7   4  381.96   25.70
  -1  -7  -4  433.56   38.60
  -1  -7  -4  381.06   39.30
   1  -7   4  418.46   26.90
   1  -7   4  447.36   28.10
  -1  -7  -4  449.95   37.50
   1  -7   4  390.46   28.70
  -1  -7  -4  374.66   36.10
   1   7   4  372.16   30.00
   1   7   4  389.76   32.50
   1   7   4  390.96   35.40
  -1   7  -4  398.76   42.00
   1   7   4  403.26   38.20
  -2  -7  -4  395.26   41.50
   2  -7   4  416.16   27.70
  -2  -7  -4  364.26   42.40
   2  -7   4  381.16   30.00
  -2  -7  -4  380.06   41.20
  -2  -7  -4  393.16   42.90
   2  -7   4  439.16   27.90
   2  -7   4  448.26   27.10
   2   7   4  503.95   39.20
   2   7   4  404.66   36.20
  -2   7  -4  412.76   43.10
   2   7   4  390.56   45.90
   2   7   4  389.76   35.90
   3  -7   4  950.10   41.00
   3  -7   4  950.60   45.50
  -3  -7  -4  925.71   59.59
  -3  -7  -4  935.11   61.49
  -3  -7  -4  920.01   60.29
   3  -7   4  909.31   42.20
  -3  -7  -4 1001.20   64.59
   3  -7   4  955.60   41.90
   3   7   4  904.31   53.79
   3   7   4  868.51   57.49
   3   7   4  914.71   54.99
   3   7   4  858.91   60.29
  -4  -7  -4   28.20   29.70
   4  -7   4   39.70   16.70
  -4  -7  -4  -26.70   28.60
   4  -7   4   32.60   15.10
   4  -7   4   19.40   14.70
  -4  -7  -4   22.30   27.10
   4   7   4    8.30   26.80
   4   7   4   28.20   26.40
   4   7   4    2.00   27.20
   5  -7   4  377.36   32.50
   5  -7   4  366.26   36.60
   5  -7   4  374.36   35.20
  -5  -7  -4  386.56   53.99
  -5  -7  -4  403.66   51.99
  -5  -7  -4  415.36   51.69
   5   7   4  422.66   51.29
   5   7   4  360.16   44.90
   6  -7   4  609.04   49.60
   6  -7   4  603.54   43.10
  -6  -7  -4  414.56   86.49
  -6  -7  -4  584.34   69.09
  -6  -7  -4  474.55   74.09
   6   7   4  537.55   63.39
   7  -7   4   69.79   26.80
  -7  -7  -4   56.39   47.20
  -7  -7  -4    9.80   42.00
   7  -7   4   44.20   32.80
  -7  -7  -4   66.89   42.10
   7   7   4  141.69   40.80
   7   7   4   74.69   44.40
   7   7   4   13.00   45.90
  -8  -8   4 1216.08   94.89
  -8  -8   4 1233.68   92.19
  -8  -8   4 1127.29   91.19
   8   8  -4 1077.89   93.59
   8   8  -4 1328.97   82.99
  -7  -8   4  177.68   48.40
   7  -8  -4  131.39   25.20
  -7  -8   4  104.99   49.99
   7  -8  -4  201.68   29.60
  -7  -8   4  240.58   48.80
   7   8  -4  187.18   42.10
   7   8  -4  122.99   45.50
   7   8  -4  189.08   37.20
  -6  -8   4  707.73   72.39
   6  -8  -4  727.13   39.60
  -6  -8   4  871.11   71.09
  -6  -8   4  696.53   70.39
   6  -8  -4  693.73   45.00
   6   8  -4  665.53   59.49
   6   8  -4  763.52   61.89
   6   8  -4  727.33   60.89
  -5  -8   4  134.99   35.80
   5  -8  -4  137.89   18.80
  -5  -8   4   93.49   39.70
   5  -8  -4  143.89   19.30
  -5  -8   4  163.38   34.90
   5   8  -4  114.89   34.90
   5   8  -4  132.99   32.10
   5   8  -4  219.88   50.29
   5   8  -4  116.09   30.10
  -5   8   4  150.18   23.70
   4  -8  -4   14.50   13.40
  -4  -8   4   10.90   30.40
  -4  -8   4   10.40   32.50
  -4  -8   4   34.90   29.80
   4  -8  -4   51.59   20.50
   4  -8  -4   15.50   13.80
  -4  -8   4   42.20   25.50
   4  -8  -4   -2.80   13.00
   4   8  -4    0.50   22.70
  -4   8   4   25.50   19.90
   4   8  -4    4.70   26.20
   4   8  -4   65.59   30.60
   4   8  -4   36.30   22.10
  -3  -8   4  366.56   40.60
   3  -8  -4  455.35   29.60
   3  -8  -4  418.86   28.90
  -3  -8   4  542.95   47.40
   3  -8  -4  473.75   30.80
   3  -8  -4  412.56   34.20
   3  -8  -4  457.35   21.40
  -3  -8   4  416.86   50.79
  -3  -8   4  459.25   45.30
   3   8  -4  374.86   45.10
   3   8  -4  416.16   34.90
  -3   8   4  473.95   37.70
   3   8  -4  470.75   33.00
   2  -8  -4  645.74   42.30
  -2  -8   4  619.74   43.60
   2  -8  -4  635.84   34.70
   2  -8  -4  720.13   39.30
  -2  -8   4  592.74   46.80
   2  -8  -4  721.43   34.40
  -2  -8   4  696.23   43.00
   2  -8  -4  667.33   36.60
  -2  -8   4  642.24   44.70
  -2   8   4  656.63   22.40
   2   8  -4  650.03   23.90
   2   8  -4  527.05   48.90
  -2   8   4  662.53   46.40
   2   8  -4  709.43   38.80
  -1  -8   4  352.96   33.70
  -1  -8   4  376.96   45.40
   1  -8  -4  383.36   31.60
   1  -8  -4  421.76   33.00
  -1  -8   4  363.76   45.70
   1  -8  -4  375.36   29.80
   1  -8  -4  303.37   32.00
  -1  -8   4  380.96   30.70
  -1  -8   4  412.86   37.50
  -1   8   4  408.16   26.10
  -1   8   4  362.26   41.00
   1   8  -4  352.46   44.60
   1   8  -4  421.06   26.70
  -1   8   4  355.36   22.80
   0  -8   4 1703.43   67.09
   0  -8   4 1790.22   66.49
   0  -8  -4 1655.93   71.89
   0  -8  -4 1701.83   70.79
   0  -8   4 1646.64   81.59
   0  -8   4 1790.62   64.89
   0  -8  -4 1786.92   74.29
   0   8  -4 1764.02   55.59
   0   8  -4 1736.63   55.49
   0   8   4 1773.22   69.69
   0   8  -4 1696.93   80.59
   0   8   4 1811.52   80.99
   0   8   4 1806.62   64.79
   1  -8   4    6.40   18.00
  -1  -8  -4   34.10   22.30
   1  -8   4   66.99   15.90
  -1  -8  -4   53.09   22.60
  -1  -8  -4   81.69   24.80
  -1  -8  -4   57.39   27.70
   1  -8   4   47.50   12.60
   1  -8   4   63.89   15.20
   1   8   4   47.20   15.00
  -1   8  -4   51.99   28.60
   1   8   4   56.79   29.60
   1   8   4   37.60   17.30
  -2  -8  -4 1448.85   68.49
   2  -8   4 1408.06   52.49
  -2  -8  -4 1376.96   72.19
   2  -8   4 1446.76   54.49
   2  -8   4 1355.46   56.49
  -2  -8  -4 1320.67   69.89
  -2  -8  -4 1467.95   70.09
   2  -8   4 1348.17   51.09
   2   8   4 1302.47   83.29
  -2   8  -4 1367.46   71.29
   2   8   4 1334.47   59.09
   2   8   4 1362.66   74.49
  -3  -8  -4   17.80   28.60
   3  -8   4   22.70   14.60
   3  -8   4  -11.10   11.20
  -3  -8  -4   15.40   30.90
   3  -8   4  -12.50   20.90
   3  -8   4  -18.50   11.60
  -3  -8  -4   18.10   26.90
   3   8   4   31.80   24.10
   3   8   4   12.70   28.50
   3   8   4   -1.30   23.30
   3   8   4    2.40   28.40
   4  -8   4 1022.20   44.50
  -4  -8  -4  943.31   73.49
  -4  -8  -4 1128.69   71.99
  -4  -8  -4  925.61   69.39
   4  -8   4  988.00   43.70
   4   8   4 1080.29   62.19
   4   8   4  972.00   64.79
   5  -8   4   17.70   14.80
  -5  -8  -4   18.60   40.50
  -5  -8  -4    3.50   40.70
  -5  -8  -4   13.50   39.20
   5  -8   4  -19.00   20.50
   5   8   4   -2.80   36.20
   5   8   4  -12.20   31.40
   6  -8   4  577.64   41.50
  -6  -8  -4  506.35   63.49
  -6  -8  -4  531.35   66.49
   6  -8   4  605.44   46.00
  -6  -8  -4  484.85   60.09
   6   8   4  490.25   57.19
   6   8   4  526.65   60.79
   6   8   4  553.74   70.09
  -7  -8  -4   71.69   47.50
  -7  -8  -4  142.49   55.69
  -7  -8  -4   52.29   46.40
   7  -8   4  159.08   25.70
   7   8   4   82.89   47.20
   7   8   4   81.49   40.00
   7   8   4   16.30   47.10
  -7  -9   4  651.83   77.99
   7  -9  -4  427.16   37.60
  -7  -9   4  664.73   79.39
  -7  -9   4  556.34   64.89
   7   9  -4  602.34   65.69
   7   9  -4  517.45   59.79
   7   9  -4  432.16   64.59
  -6  -9   4   -7.20   48.20
   6  -9  -4   49.70   14.70
  -6  -9   4   51.39   44.40
  -6  -9   4   59.79   58.19
   6  -9  -4    8.60   21.70
   6   9  -4   67.99   34.70
   6   9  -4    5.10   30.70
   6   9  -4   72.59   34.80
  -5  -9   4  247.38   52.29
  -5  -9   4  239.28   44.30
   5  -9  -4  214.18   24.50
  -5  -9   4  316.47   47.60
   5  -9  -4  250.47   24.20
   5   9  -4  255.17   44.60
   5   9  -4  263.77   35.20
  -5   9   4  214.08   28.00
   5   9  -4  299.07   38.10
  -4  -9   4  292.37   46.80
  -4  -9   4  217.58   36.60
   4  -9  -4  234.18   25.80
   4  -9  -4  164.48   18.10
  -4  -9   4  156.98   41.70
  -4  -9   4  141.49   34.10
   4  -9  -4  174.58   19.00
   4   9  -4  100.99   33.00
  -4   9   4  193.28   28.70
   4   9  -4  248.08   48.10
   4   9  -4  169.38   38.90
   4   9  -4  146.09   24.30
  -3  -9   4  113.19   31.60
   3  -9  -4  107.09   24.40
  -3  -9   4   95.79   27.10
  -3  -9   4   90.79   32.80
   3  -9  -4  120.69   17.80
   3  -9  -4   86.09   13.10
  -3  -9   4   61.69   25.50
   3  -9  -4   81.09   15.80
   3  -9  -4   65.29   15.60
   3   9  -4   66.09   16.10
   3   9  -4   69.69   31.10
  -3   9   4   95.29   25.50
   3   9  -4  148.19   24.10
   2  -9  -4  370.56   37.50
  -2  -9   4  316.17   38.40
   2  -9  -4  281.77   33.80
   2  -9  -4  286.87   27.00
  -2  -9   4  393.16   50.19
  -2  -9   4  349.77   37.30
   2  -9  -4  311.97   29.20
   2  -9  -4  347.07   27.30
  -2  -9   4  265.37   31.60
  -2   9   4  305.67   37.70
   2   9  -4  271.27   40.30
   2   9  -4  299.67   28.50
  -1  -9   4  243.68   27.50
  -1  -9   4  242.08   38.00
   1  -9  -4  300.47   34.20
   1  -9  -4  278.47   30.50
  -1  -9   4  305.67   34.10
   1  -9  -4  244.28   31.30
  -1  -9   4  288.17   30.50
  -1   9   4  299.57   19.20
  -1   9   4  214.68   36.20
  -1   9   4  253.37   20.60
   1   9  -4  238.28   40.90
   0  -9   4  381.36   46.20
   0  -9   4  291.77   27.30
   0  -9  -4  316.37   33.70
   0  -9  -4  366.46   36.40
   0  -9   4  402.86   42.50
   0  -9  -4  359.06   34.90
   0  -9  -4  320.27   36.70
   0  -9   4  276.37   29.40
   0  -9   4  257.37   29.70
   0   9  -4  319.77   43.10
   0   9   4  310.57   41.60
  -1  -9  -4 1380.76   67.29
   1  -9   4 1217.98   58.89
  -1  -9  -4 1342.47   64.69
   1  -9   4 1361.76   53.89
  -1  -9  -4 1434.46   66.39
   1  -9   4 1369.16   53.19
   1  -9   4 1286.97   50.79
  -1  -9  -4 1316.17   68.99
   1   9   4 1314.27   57.79
  -1   9  -4 1419.46   74.99
   1   9   4 1335.47   75.19
  -2  -9  -4   59.69   28.40
   2  -9   4   69.39   13.50
  -2  -9  -4   73.49   33.50
  -2  -9  -4   88.99   26.80
   2  -9   4   78.49   12.60
  -2  -9  -4   60.29   30.10
   2  -9   4   69.89   16.40
   2  -9   4   40.80   21.70
  -2   9  -4   18.90   30.10
   2   9   4   72.89   36.00
   2   9   4   46.70   18.20
   2   9   4   79.99   19.10
  -3  -9  -4 2228.98  101.79
  -3  -9  -4 2358.76  106.69
   3  -9   4 2215.48   75.79
  -3  -9  -4 2262.67  101.09
   3  -9   4 2423.66   81.29
   3  -9   4 2288.67   76.19
   3   9   4 2353.26   95.09
   3   9   4 2361.86   89.89
  -4  -9  -4  -15.20   36.50
   4  -9   4    0.30   11.20
   4  -9   4  -14.20   15.80
  -4  -9  -4  -14.40   42.00
  -4  -9  -4   37.50   37.20
   4  -9   4   -6.60   11.90
   4   9   4  -21.00   28.80
   4   9   4   -3.60   26.80
   5  -9   4 1252.57   48.30
  -5  -9  -4 1224.98   92.39
  -5  -9  -4 1251.37   85.59
  -5  -9  -4 1263.87  102.49
   5   9   4 1198.08   78.79
   5   9   4 1313.27   80.09
   5   9   4 1199.38   78.89
  -6  -9  -4   37.80   46.90
   6  -9   4  115.59   22.30
  -6  -9  -4  200.28   50.69
  -6  -9  -4   87.19   46.40
   6   9   4  159.28   53.69
   6   9   4  127.19   43.60
   6   9   4   76.49   38.70
  -7 -10   4  420.86   64.39
  -7 -10   4  552.64   66.29
  -7 -10   4  411.96   70.29
   7  10  -4  544.35   57.79
   7  10  -4  506.15   73.09
   7  10  -4  600.94   68.49
  -6 -10   4   49.10   40.10
   6 -10  -4   80.59   14.10
  -6 -10   4   50.89   42.40
  -6 -10   4   88.59   49.90
   6  10  -4   62.09   36.30
   6  10  -4   44.80   37.50
   6  10  -4   51.99   35.00
  -5 -10   4 1273.27   92.79
   5 -10  -4 1232.28   45.60
  -5 -10   4 1310.77   89.99
  -5 -10   4 1303.87   98.79
   5  10  -4 1095.79   68.49
  -5  10   4 1270.97   63.29
   4 -10  -4   54.99   20.50
  -4 -10   4   55.39   28.90
   4 -10  -4   59.09   12.80
   4 -10  -4   22.10   11.50
  -4 -10   4   25.20   33.20
  -4 -10   4   65.59   41.60
  -4  10   4   25.70   24.50
   4  10  -4   47.00   35.30
   4  10  -4   15.40   17.40
  -3 -10   4 1905.81   86.89
  -3 -10   4 1949.80   87.39
   3 -10  -4 1923.41   68.69
  -3 -10   4 1967.80  100.69
   3 -10  -4 2042.80   69.89
   3  10  -4 1994.50   78.59
  -3  10   4 2025.90   87.99
   3  10  -4 2132.99  111.19
  -2 -10   4   15.10   24.70
   2 -10  -4   50.29   16.60
  -2 -10   4   43.90   21.70
   2 -10  -4   19.80   17.80
  -2 -10   4   12.00   31.40
  -2 -10   4   58.19   24.60
  -2  10   4   39.60   29.70
   2  10  -4   49.30   36.10
   1 -10  -4 1127.09   53.49
  -1 -10   4 1177.38   56.89
   1 -10  -4 1156.58   52.79
   1 -10  -4 1167.18   57.69
   1 -10  -4 1206.88   56.79
  -1 -10   4 1136.79   56.19
  -1 -10   4 1133.29   54.59
  -1 -10   4 1188.48   72.29
   1  10  -4 1103.79   72.79
   1  10  -4 1037.10   38.60
  -1  10   4 1102.69   68.19
   0 -10   4  233.08   37.50
   0 -10  -4  212.88   28.60
   0 -10  -4  174.38   27.10
   0 -10   4  187.68   23.00
   0 -10  -4  121.29   24.60
   0 -10   4  156.68   20.50
   0 -10  -4  182.38   30.30
   0  10  -4  180.48   41.50
   0  10   4  154.08   39.20
   0  10   4  135.09   17.40
   1 -10   4  180.48   22.20
   1 -10   4  203.98   25.40
  -1 -10  -4  212.78   33.10
   1 -10   4  201.18   23.90
   1 -10   4  200.48   38.40
  -1 -10  -4  198.38   33.90
  -1 -10  -4  156.18   29.10
   1  10   4  143.59   46.50
   1  10   4  196.18   24.20
  -1  10  -4  221.58   41.50
   2 -10   4  242.08   20.00
  -2 -10  -4  293.77   41.40
   2 -10   4  220.68   28.50
  -2 -10  -4  236.48   37.70
  -2 -10  -4  233.78   37.50
   2 -10   4  262.27   20.40
   2  10   4  250.07   29.70
  -2  10  -4  220.18   47.50
   2  10   4  178.78   22.60
   2  10   4  275.77   45.50
  -3 -10  -4  -12.40   37.80
   3 -10   4   16.10    8.10
  -3 -10  -4   63.89   34.40
  -3 -10  -4  -11.40   31.10
   3 -10   4   14.40   15.60
   3  10   4   19.70   31.00
   3  10   4  -22.60   27.30
   3  10   4   14.30   22.00
  -4 -10  -4  353.66   57.29
  -4 -10  -4  302.17   46.80
   4  10   4  377.06   51.69
   4  10   4  354.36   44.40
   4  10   4  411.36   46.90
  -5 -10  -4  255.37   48.80
  -5 -10  -4  117.39   50.09
  -5 -10  -4  174.18   52.39
   5  10   4  142.79   43.60
   5  10   4  179.28   46.50
   5  10   4  165.38   41.70
  -6 -11   4  353.96   62.09
  -6 -11   4  295.67   55.69
  -6 -11   4  410.56   56.89
   6  11  -4  341.27   49.60
  -5 -11   4    8.10   34.80
  -5 -11   4   49.20   44.30
   5  11  -4  -14.40   33.20
  -5  11   4  -23.90   27.10
  -4 -11   4 1178.78   77.39
  -4 -11   4 1124.19   84.49
   4 -11  -4 1132.49   40.40
  -4 -11   4 1188.58   75.29
   4  11  -4 1198.58   76.49
  -4  11   4 1128.19   67.79
  -3 -11   4  101.19   33.70
   3 -11  -4   51.09   21.40
  -3 -11   4   14.40   26.30
   3 -11  -4    6.80   12.30
  -3 -11   4  120.09   49.99
  -3  11   4   62.49   32.30
   3  11  -4   51.99   32.00
  -2 -11   4 1451.75   92.59
   2 -11  -4 1500.95   59.69
   2 -11  -4 1546.75   67.69
  -2 -11   4 1548.25   73.39
  -2 -11   4 1583.24   74.89
  -2  11   4 1539.05   81.49
  -1 -11   4  -16.50   19.70
   1 -11  -4   -1.00   21.50
  -1 -11   4   74.39   41.50
  -1 -11   4   22.80   21.60
   1 -11  -4  -15.10   16.50
   1 -11  -4   29.30   20.90
   0 -11   4 1161.68   78.19
   0 -11  -4 1248.98   62.69
   0 -11  -4 1165.68   65.99
   0 -11   4 1196.68   58.99
   0 -11  -4 1253.57   61.99
   0 -11   4 1224.68   53.89
   0  11   4 1176.28   76.49
   1 -11   4   46.30   12.40
   1 -11   4   23.40   13.40
   1 -11   4   75.19   22.70
  -1 -11  -4   11.10   25.80
   1 -11   4   -7.60   36.90
  -1 -11  -4   41.90   28.60
  -1 -11  -4   35.40   28.20
  -2 -11  -4  537.95   58.69
   2 -11   4  473.85   56.99
   2 -11   4  405.56   19.70
  -2 -11  -4  353.56   46.90
  -2 -11  -4  350.56   43.20
   2  11   4  386.86   52.09
  -2  11  -4  528.85   64.69
  -3 -11  -4  188.68   49.50
  -3 -11  -4  196.38   39.60
  -3 -11  -4  240.88   55.19
   3  11   4  184.58   44.30
  -4 -11  -4   39.30   48.60
  -4 -11  -4   36.50   36.90
  -4 -11  -4   -9.60   37.20
   4  11   4  -19.60   26.90
   4  11   4  -14.50   34.30
  -5 -11  -4   41.70   49.70
  -5 -11  -4  113.29   48.40
  -5 -11  -4   66.19   53.19
   5  11   4   83.19   48.60
   5  11   4  109.99   44.10
  -5 -12   4  270.67   57.19
  -5 -12   4  269.67   53.79
  -5 -12   4  256.67   48.90
  -5  12   4  254.37   62.19
   5  12  -4  221.68   46.70
  -4 -12   4  -93.79   32.30
  -4 -12   4  -51.29   42.40
  -4 -12   4   37.40   41.60
   4  12  -4    5.00   35.40
  -4  12   4   28.80   29.70
   3 -12  -4  554.44   27.80
  -3 -12   4  603.74   73.69
  -3 -12   4  559.34   57.49
  -3 -12   4  623.84   59.79
   3  12  -4  634.74   66.09
   2 -12  -4  251.17   28.70
  -2 -12   4  223.08   39.00
   2 -12  -4  325.57   28.90
   2 -12  -4  233.08   31.20
  -2 -12   4  271.07   39.20
  -2 -12   4  342.97   52.29
   2  12  -4  237.38   46.50
  -1 -12   4  554.54   48.70
  -1 -12   4  641.74   83.39
   1 -12  -4  654.73   50.89
   1 -12  -4  567.84   48.90
   1 -12  -4  653.73   44.20
  -1 -12   4  499.65   49.99
   1  12  -4  573.44   63.29
  -1  12   4  599.84   55.49
   0 -12  -4  423.56   49.40
   0 -12   4  432.66   35.90
   0 -12  -4  442.26   46.40
   0 -12  -4  468.55   50.09
   0 -12   4  466.85   43.80
   0  12  -4  420.76   53.99
   0  12   4  488.95   58.39
  -1 -12  -4   85.49   38.50
   1 -12   4   79.89   14.20
  -1 -12  -4   80.79   30.00
   1  12   4   61.89   36.30
  -1  12  -4   45.70   34.00
  -2 -12  -4  776.22   80.49
  -2 -12  -4  855.81   64.29
  -2 -12  -4  736.93   67.49
   2 -12   4  753.52   96.89
   2  12   4  778.82   72.89
  -2  12  -4  785.02   66.39
  -3 -12  -4  -63.29   34.60
  -3 -12  -4  -56.79   41.40
   3 -12   4  -74.99   35.40
   3  12   4  -31.90   36.40
  -4 -12  -4  641.64   69.69
   4 -12   4  530.75   62.69
  -4 -12  -4  406.96   64.19
  -4 -12  -4  503.35   59.79
   4  12   4  593.24   68.89
  -3 -13   4  -20.20   52.89
  -3 -13   4   33.30   47.20
  -3 -13   4   41.90   32.80
  -3  13   4   54.69   31.30
   3  13  -4    7.10   39.80
  -2 -13   4  -17.60   44.10
  -2 -13   4   -9.10   34.10
   2 -13  -4   58.89   20.00
  -2 -13   4   47.70   28.70
   2  13  -4  -61.59   36.10
  -2  13   4   58.29   32.10
   1 -13  -4  333.87   41.10
   1 -13  -4  181.98   29.40
  -1 -13   4  361.46   57.29
   1  13  -4  322.47   52.19
  -1  13   4  256.57   47.50
   0 -13   4   56.49   23.60
   0 -13   4   79.09   48.30
   0 -13  -4  131.39   42.50
   0 -13  -4    7.70   24.50
   0 -13  -4   48.50   34.90
   0  13   4   76.19   39.20
   0  13  -4   24.10   38.50
  -1 -13  -4 1271.87   70.19
   1 -13   4 1371.46   91.69
  -1 -13  -4 1282.57   82.89
  -1  13  -4 1123.19   83.29
   1  13   4 1070.59   81.89
   2 -13   4  -39.60   41.20
  -2 -13  -4   71.29   38.30
  -2 -13  -4  120.49   81.09
  -2 -13  -4  213.78   48.60
   2  13   4   67.59   42.30
  -2  13  -4   58.79   40.00
  10   0  -5    5.00   37.20
 -10   0   5  -69.29   45.80
  10   0  -5  -15.70   45.70
   9   0  -5 1022.20   73.19
  -9   0   5  924.91   72.29
  -9   0   5  893.61   72.39
  -8   0   5    9.30   29.60
   8   0  -5   -1.10   32.60
  -8   0   5  -18.80   29.10
  -8   0   5    9.40   23.70
   8   0  -5  -11.20   30.50
  -7   0   5 3214.18  109.59
   7   0  -5 3053.59  119.49
   7   0  -5 3013.90  119.89
  -7   0   5 2989.40  117.89
  -7   0   5 3148.19  117.99
  -6   0   5    2.30   24.10
  -6   0   5   -2.30   25.60
   6   0  -5   -3.20   23.80
   6   0  -5  102.79   27.50
  -6   0   5    1.40   15.40
  -6   0   5  -28.00   21.90
   6   0  -5  -18.60   22.90
  -5   0   5 2821.12  102.59
   5   0  -5 2844.22  102.89
  -5   0   5 2680.53  102.99
  -5   0   5 2860.21   93.89
   5   0  -5 2632.54  102.79
   5   0  -5 2863.31  104.29
  -5   0   5 2824.22  101.89
   4   0  -5   20.20   17.20
   4   0  -5    6.10   17.70
  -4   0   5   -5.90   19.70
   4   0  -5   -9.90   15.00
   4   0  -5    1.30   19.50
  -4   0   5  -19.00   16.30
  -4   0   5  -28.20   15.10
  -4   0   5   23.80   21.50
  -4   0   5  -17.30   11.40
   3   0  -5 3496.65  114.69
   3   0  -5 3310.27  115.59
  -3   0   5 3484.65  114.39
  -3   0   5 3354.76  115.09
   3   0  -5 3516.55  114.59
  -3   0   5 3405.16  108.29
   3   0  -5 3252.97  115.29
  -3   0   5 3578.44  115.19
  -3   0   5 3389.86  115.79
  -2   0   5  -20.20   17.10
   2   0  -5    1.70   16.00
  -2   0   5  -27.30   14.60
   2   0  -5    1.00   13.10
   2   0  -5    2.20   13.70
  -2   0   5    9.50   13.90
  -2   0   5    3.00   20.20
  -1   0   5  304.47   25.70
   1   0  -5  294.87   25.50
  -1   0   5  299.57   26.20
   1   0  -5  263.37   30.00
   1   0  -5  230.68   28.70
  -1   0   5  289.87   28.40
  -1   0   5  283.17   29.60
   1   0  -5  275.07   24.30
   0   0   5    8.20   14.70
   0   0   5   26.50   15.60
   0   0   5   -6.00   14.40
   0   0   5    2.10   15.00
   0   0  -5    0.20   14.30
   0   0  -5   -5.30   13.00
   1   0   5  420.06   30.80
   1   0   5  417.56   29.40
   1   0   5  425.76   32.50
  -1   0  -5  342.57   34.50
  -1   0  -5  369.46   28.20
   1   0   5  389.06   30.70
  -1   0  -5  381.96   28.80
   2   0   5   -7.20   18.50
   2   0   5   16.20   16.00
  -2   0  -5    9.80   16.20
  -2   0  -5   -2.70   18.10
  -2   0  -5   -3.10   14.00
   2   0   5   12.40   20.00
  -2   0  -5  -18.70   18.20
   2   0   5   15.70   16.80
   2   0   5  -11.20   17.10
  -3   0  -5  329.17   38.90
   3   0   5  318.07   34.90
  -3   0  -5  237.48   28.30
   3   0   5  302.17   31.50
   3   0   5  268.77   30.30
   3   0   5  317.67   35.40
   3   0   5  307.47   34.30
   4   0   5   -2.00   21.70
   4   0   5   22.70   23.60
   4   0   5   26.70   24.00
  -4   0  -5    6.30   21.70
  -4   0  -5   14.40   20.90
  -4   0  -5  -19.40   23.60
   5   0   5  538.45   49.00
   5   0   5  608.84   50.69
  -5   0  -5  654.83   48.80
  -5   0  -5  406.26   44.10
  -5   0  -5  567.94   46.70
   6   0   5   18.70   29.20
   6   0   5   33.90   29.30
  -6   0  -5   13.30   26.80
  -6   0  -5    8.60   27.90
  -7   0  -5 1474.05   81.89
  -7   0  -5 1459.55   79.49
   7   0   5 1540.95   95.29
  -8   0  -5   48.70   45.30
   8   0   5    4.10   41.70
  -8   0  -5   35.20   40.50
 -10  -1   5   90.29   54.79
 -10  -1   5  135.29   47.20
  10  -1  -5  112.69   44.50
  10  -1  -5  215.28   51.59
 -10   1   5   88.29   49.30
  10   1  -5  197.08   49.60
  10   1  -5  193.88   51.09
   9  -1  -5  201.68   40.50
  -9  -1   5  170.88   43.30
  -9  -1   5  257.47   50.99
   9  -1  -5  287.47   50.49
  -9  -1   5  214.88   37.50
  -9   1   5  166.28   39.90
   9   1  -5  323.77   51.79
  -9   1   5  224.28   42.90
   9   1  -5  212.38   43.60
   8  -1  -5  409.76   48.30
  -8  -1   5  464.85   47.70
  -8  -1   5  561.24   57.29
   8  -1  -5  458.75   57.59
  -8  -1   5  521.65   53.89
   8   1  -5  473.45   54.49
   8   1  -5  414.46   50.69
  -8   1   5  475.15   49.99
  -8   1   5  436.96   52.19
   7  -1  -5  102.59   29.20
   7  -1  -5  106.79   30.80
  -7  -1   5  171.78   33.30
  -7  -1   5  156.58   26.70
  -7  -1   5  163.28   34.20
  -7   1   5  133.99   28.90
   7   1  -5   92.79   30.10
  -7   1   5  109.89   29.30
  -7   1   5  111.79   32.60
   7   1  -5  124.99   33.40
  -7   1   5  139.19   20.70
   6  -1  -5 1421.16   68.89
  -6  -1   5 1368.46   61.99
  -6  -1   5 1447.16   70.19
   6  -1  -5 1343.27   67.29
   6  -1  -5 1360.76   67.59
  -6  -1   5 1349.86   69.79
   6   1  -5 1382.86   69.79
  -6   1   5 1439.26   65.59
  -6   1   5 1441.36   66.99
  -6   1   5 1437.26   53.69
  -6   1   5 1422.86   64.49
   6   1  -5 1373.96   70.89
  -5  -1   5   52.69   24.90
  -5  -1   5   85.79   26.00
   5  -1  -5   42.20   21.00
   5  -1  -5   66.69   24.10
   5  -1  -5   54.29   22.20
  -5  -1   5   35.90   23.30
   5   1  -5   27.30   23.60
  -5   1   5   71.69   21.70
  -5   1   5   53.09   12.50
   5   1  -5   44.50   22.80
   5   1  -5    3.60   23.80
  -5   1   5   43.00   23.30
  -5   1   5   65.79   21.30
  -4  -1   5 1891.81   75.29
  -4  -1   5 2103.29   76.69
   4  -1  -5 1903.31   74.19
  -4  -1   5 1826.42   77.39
  -4  -1   5 1873.81   76.89
   4  -1  -5 1929.91   75.49
   4  -1  -5 1944.11   74.09
   4  -1  -5 1951.70   76.19
   4   1  -5 1964.20   75.59
  -4   1   5 1917.31   73.29
  -4   1   5 1951.90   63.99
  -4   1   5 1934.61   74.39
   4   1  -5 1982.90   75.39
  -4   1   5 2011.20   74.59
   4   1  -5 1897.11   76.79
   4   1  -5 1906.91   77.39
  -3  -1   5  141.79   18.50
   3  -1  -5  138.29   21.40
  -3  -1   5  149.88   23.40
  -3  -1   5  102.59   26.10
   3  -1  -5  128.09   18.40
   3  -1  -5  175.18   21.40
  -3  -1   5  128.69   21.30
  -3  -1   5  150.58   22.30
   3   1  -5  133.29   22.10
  -3   1   5  137.29   23.40
   3   1  -5  169.08   21.90
  -3   1   5  161.98   21.40
   3   1  -5  129.89   23.70
  -3   1   5  147.19   20.60
  -3   1   5  139.39   20.90
   3   1  -5  148.69   20.00
  -3   1   5  126.39   13.00
  -2  -1   5  830.42   39.60
  -2  -1   5  689.83   40.70
   2  -1  -5  753.52   38.30
  -2  -1   5  818.72   40.10
   2  -1  -5  643.84   39.80
   2  -1  -5  738.33   38.20
   2  -1  -5  858.61   48.20
  -2  -1   5  784.12   41.30
  -2   1   5  798.22   39.80
  -2   1   5  834.92   40.20
   2   1  -5  729.83   41.70
  -2   1   5  837.52   39.50
   2   1  -5  720.83   40.80
   2   1  -5  776.42   39.10
   2   1  -5  800.22   38.30
  -1  -1   5 3143.69  106.49
   1  -1  -5 3086.39  105.39
   1  -1  -5 3282.57  108.99
  -1  -1   5 3432.46  107.19
   1  -1  -5 3376.86  106.79
  -1  -1   5 3109.29  106.89
   1  -1  -5 3095.49  106.99
  -1  -1   5 3055.69  106.49
   1   1  -5 3284.57  105.49
  -1   1   5 3253.77  107.29
  -1   1   5 3154.38  105.99
   1   1  -5 3179.08  106.79
   1   1  -5 3153.38  113.99
   1   1  -5 3305.57  106.29
  -1   1   5 3128.09  105.89
  -1   1   5 3234.18  113.19
   0  -1   5  484.15   30.80
   0  -1   5  480.35   32.60
   0  -1  -5  485.75   28.00
   0  -1   5  470.25   31.50
   0  -1  -5  462.25   34.60
   0  -1  -5  496.05   31.50
   0   1  -5  477.95   30.40
   0   1  -5  518.05   40.00
   0   1   5  495.65   33.70
   0   1   5  489.65   32.20
   0   1  -5  497.95   32.90
   0   1  -5  489.75   29.50
   0   1   5  508.45   31.40
  -1  -1  -5 2509.35   91.29
   1  -1   5 2363.36   88.69
  -1  -1  -5 2624.44   88.89
   1  -1   5 2639.74   88.69
  -1  -1  -5 2577.54   89.09
   1  -1   5 2579.94   88.59
  -1  -1  -5 2567.24   92.19
  -1   1  -5 2452.35   88.29
   1   1   5 2469.35   89.89
   1   1   5 2510.15   89.79
   1   1   5 2497.65   90.99
   1   1   5 2532.25   90.19
  -1   1  -5 2585.74   86.59
   1   1   5 2599.14   89.99
  -1   1  -5 2592.44   87.69
  -1   1  -5 2497.65   89.99
   2  -1   5   15.80   18.00
   2  -1   5    1.90   17.80
   2  -1   5  -18.80   14.70
  -2  -1  -5   -2.20   18.90
  -2  -1  -5   15.50   18.90
  -2  -1  -5    2.50   16.40
   2  -1   5   32.60   17.10
  -2  -1  -5    0.00   15.40
   2   1   5   13.40   19.00
  -2   1  -5   -2.40   13.70
  -2   1  -5  -14.40   17.20
   2   1   5   26.90   17.90
  -2   1  -5   11.90   16.60
   2   1   5  -38.00   15.60
   2   1   5   -3.50   18.30
  -2   1  -5   -9.10   14.90
   2   1   5    1.90   20.80
   3  -1   5 1946.01   79.09
   3  -1   5 2034.50   79.19
  -3  -1  -5 1987.70   81.39
  -3  -1  -5 1962.90   76.29
  -3  -1  -5 1858.01   77.69
   3  -1   5 1905.71   76.59
   3  -1   5 2019.10   83.89
   3  -1   5 2044.80   77.89
  -3  -1  -5 1954.00   80.69
   3   1   5 1984.30   82.79
   3   1   5 2089.19   79.19
   3   1   5 1971.30   80.39
   3   1   5 1898.81   79.49
  -3   1  -5 1992.10   77.09
  -3   1  -5 1984.70   76.19
   3   1   5 1922.71   79.19
  -3   1  -5 2001.70   73.29
   4  -1   5  884.11   50.79
  -4  -1  -5  855.41   53.49
  -4  -1  -5  830.42   50.39
  -4  -1  -5  753.12   51.99
   4  -1   5  825.62   50.09
   4  -1   5  852.41   50.39
  -4   1  -5  777.02   48.50
   4   1   5  714.93   50.79
  -4   1  -5  888.11   48.70
  -4   1  -5  797.42   43.20
   4   1   5  784.42   52.89
   4   1   5  787.72   51.19
   5  -1   5  495.45   45.90
  -5  -1  -5  498.75   48.10
   5  -1   5  496.55   46.80
  -5  -1  -5  489.25   47.50
   5  -1   5  540.75   54.99
   5   1   5  503.05   48.80
  -5   1  -5  569.84   44.70
  -5   1  -5  527.35   43.20
  -5   1  -5  535.05   46.00
   5   1   5  556.44   48.90
  -6  -1  -5 1263.07   70.09
   6  -1   5 1140.79   68.19
   6  -1   5 1176.98   69.59
  -6  -1  -5 1203.98   69.39
  -6   1  -5 1129.79   65.89
   6   1   5 1053.89   71.29
  -6   1  -5 1105.69   61.59
   6   1   5 1158.78   72.79
  -7  -1  -5   65.49   39.90
   7  -1   5   14.00   37.50
  -7  -1  -5   82.49   36.70
   7   1   5   22.20   40.30
  -7   1  -5    9.40   28.90
  -7   1  -5  -15.40   27.70
  -8  -1  -5  725.73   73.69
  -8  -1  -5  830.92   74.49
   8  -1   5  593.74   67.89
   8  -1   5  748.93   70.19
  -8   1  -5  665.83   63.59
   8   1   5  820.22   76.69
   8   1   5  689.03   75.29
   8   1   5  648.94   55.79
 -10  -2   5 1052.89   98.19
 -10  -2   5 1356.16   88.99
  10  -2  -5 1100.39   81.69
 -10  -2   5 1225.58  106.09
  10  -2  -5 1206.58   82.69
  10   2  -5 1146.99   91.09
  10   2  -5 1047.00   89.29
   9  -2  -5   68.59   33.80
  -9  -2   5   76.69   56.99
  -9  -2   5   78.49   34.30
   9  -2  -5  132.89   41.70
  -9   2   5   57.99   41.80
   9   2  -5  -61.79   35.90
   9   2  -5   -3.50   35.90
  -9   2   5   70.39   30.30
   8  -2  -5  529.15   56.09
  -8  -2   5  498.05   56.99
  -8  -2   5  465.35   50.99
  -8  -2   5  430.06   52.89
   8  -2  -5  523.75   57.29
  -8   2   5  452.85   47.00
   8   2  -5  540.45   61.29
   8   2  -5  518.95   62.79
  -8   2   5  516.35   45.30
   7  -2  -5  -35.90   34.20
  -7  -2   5   44.10   24.10
   7  -2  -5   52.69   29.80
  -7  -2   5   94.09   31.00
   7  -2  -5   30.60   24.40
  -7  -2   5   84.79   32.60
  -7   2   5    1.80   25.70
  -7   2   5   80.89   24.60
   7   2  -5   47.50   27.20
   7   2  -5   70.99   30.50
   6  -2  -5   16.20   22.30
   6  -2  -5   21.90   23.90
  -6  -2   5   28.60   28.10
  -6  -2   5   69.09   28.20
   6  -2  -5  -21.70   22.80
  -6  -2   5   56.99   24.70
   6   2  -5   -2.00   24.30
  -6   2   5    8.90   21.30
  -6   2   5   16.70   20.90
  -6   2   5   40.60   21.10
   6   2  -5   23.40   24.80
  -5  -2   5   56.09   22.30
   5  -2  -5   28.50   20.20
   5  -2  -5   49.70   21.90
  -5  -2   5   15.90   23.40
  -5  -2   5   56.49   25.50
   5  -2  -5   37.50   20.60
  -5   2   5   80.99   19.70
   5   2  -5   27.10   25.30
  -5   2   5   63.19   19.60
   5   2  -5   53.29   23.30
  -5   2   5   73.29   21.00
   5   2  -5   72.19   25.20
  -4  -2   5 1541.05   69.69
   4  -2  -5 1649.13   67.49
   4  -2  -5 1619.44   63.69
   4  -2  -5 1708.03   65.09
  -4  -2   5 1578.54   66.89
  -4  -2   5 1538.75   69.19
  -4  -2   5 1557.14   65.49
   4  -2  -5 1518.45   64.79
  -4   2   5 1704.13   62.19
  -4   2   5 1517.45   62.09
   4   2  -5 1478.05   68.39
   4   2  -5 1629.64   65.89
  -4   2   5 1626.94   63.19
  -4   2   5 1569.84   48.10
   4   2  -5 1559.74   65.49
   4   2  -5 1573.24   68.89
  -4   2   5 1569.54   63.39
   3  -2  -5   43.60   15.80
  -3  -2   5   82.19   19.20
  -3  -2   5   26.10   18.90
  -3  -2   5   55.69   20.70
   3  -2  -5   71.49   17.00
  -3  -2   5   52.29   20.20
  -3  -2   5   45.50   17.80
   3  -2  -5   56.69   18.20
  -3   2   5   51.49   17.50
   3   2  -5   90.49   19.10
   3   2  -5   46.70   21.50
  -3   2   5   45.40   15.40
  -3   2   5   66.79   17.70
  -3   2   5   90.19   17.00
   3   2  -5   90.69   19.20
   3   2  -5   49.80   19.70
  -3   2   5   56.99    7.40
  -2  -2   5 2817.32  101.09
  -2  -2   5 2933.51  100.89
  -2  -2   5 3063.09  101.19
   2  -2  -5 3242.18  100.59
   2  -2  -5 3136.69   99.89
   2  -2  -5 2897.31  100.29
   2  -2  -5 2879.11  100.69
  -2  -2   5 2902.71  101.59
   2   2  -5 2517.25  107.39
  -2   2   5 3070.79   98.79
   2   2  -5 2892.51  101.19
  -2   2   5 3053.19   99.59
  -2   2   5 2845.92   99.09
   2   2  -5 3033.60   99.69
  -2   2   5 2997.20   91.89
   2   2  -5 2975.10  100.09
   1  -2  -5   -3.30   14.30
   1  -2  -5   -5.00   13.80
  -1  -2   5  -11.70   13.90
  -1  -2   5    1.60   16.20
  -1  -2   5   11.40   14.90
   1  -2  -5    8.10   16.40
   1  -2  -5   -6.10   13.30
  -1  -2   5    6.60   16.10
   1   2  -5   20.10   15.20
  -1   2   5   12.10   11.70
   1   2  -5    3.30   13.30
   1   2  -5   -2.40   13.50
  -1   2   5    0.00   15.00
  -1   2   5   -8.60   13.50
  -1   2   5   26.00   14.50
   0  -2   5 2890.21  100.59
   0  -2  -5 2655.03  106.49
   0  -2  -5 3104.79  101.69
   0  -2  -5 3061.39  103.39
   0  -2   5 2982.40  101.09
   0  -2  -5 3007.70  101.29
   0  -2   5 2831.02  100.89
   0  -2   5 3090.09  101.09
   0   2   5 2993.40  101.79
   0   2  -5 3174.88  100.59
   0   2  -5 3085.29   98.79
   0   2   5 3135.79  102.09
   0   2  -5 3023.60  101.19
   0   2   5 3004.20   99.99
   0   2   5 3132.99  102.89
   1  -2   5    0.00   14.70
  -1  -2  -5    1.50   18.50
  -1  -2  -5   26.90   21.10
   1  -2   5    4.40   16.30
  -1  -2  -5  -22.30   14.50
  -1  -2  -5   19.50   15.50
   1  -2   5    7.80   13.80
   1  -2   5    1.40   16.50
  -1   2  -5   25.60   15.80
   1   2   5    5.90   16.20
   1   2   5   59.99   17.90
   1   2   5    4.70   18.40
  -1   2  -5   -4.50   13.50
   1   2   5   16.30   16.40
  -1   2  -5   34.10   13.80
  -2  -2  -5 2199.78   87.19
   2  -2   5 2186.88   83.09
  -2  -2  -5 2376.96   87.99
   2  -2   5 2200.68   82.59
   2  -2   5 2308.97   82.69
  -2  -2  -5 2315.87   83.99
  -2  -2  -5 2363.06   85.69
   2  -2   5 2190.88   82.99
   2   2   5 2324.27   85.89
   2   2   5 2290.27   86.39
   2   2   5 2209.38   86.59
   2   2   5 2286.17   86.69
  -2   2  -5 2217.68   81.09
  -2   2  -5 2334.77   82.49
  -2   2  -5 2352.86   79.59
   2   2   5 2434.46   86.39
  -2   2  -5 2318.47   81.69
   3  -2   5    9.70   18.80
  -3  -2  -5  -37.70   17.60
   3  -2   5  -40.00   16.20
  -3  -2  -5   43.70   25.20
   3  -2   5    1.80   19.30
   3  -2   5    6.70   18.60
  -3  -2  -5   14.60   21.60
  -3  -2  -5   -4.40   21.60
   3   2   5   15.40   21.80
  -3   2  -5   -2.80   17.30
  -3   2  -5   47.70   17.00
  -3   2  -5    6.10   17.30
   3   2   5   -6.40   21.60
  -3   2  -5   20.60   15.90
   3   2   5    9.40   20.20
   4  -2   5  991.90   55.89
   4  -2   5 1075.49   56.79
   4  -2   5 1021.70   55.79
  -4  -2  -5 1112.59   61.49
  -4  -2  -5  952.90   59.09
  -4   2  -5 1026.90   50.59
   4   2   5 1059.69   59.09
   4   2   5 1130.89   60.39
  -4   2  -5 1172.88   52.99
  -4   2  -5 1014.80   48.80
   5  -2   5   -5.70   24.20
   5  -2   5   28.70   28.50
  -5  -2  -5   15.80   28.40
  -5  -2  -5   19.80   25.50
   5  -2   5    7.80   22.40
   5   2   5  -12.30   26.10
   5   2   5   27.80   26.40
  -5   2  -5   17.80   20.50
  -5   2  -5  -12.10   21.40
  -5   2  -5   15.60   19.70
  -6  -2  -5  330.47   42.90
  -6  -2  -5  463.35   59.29
   6  -2   5  401.26   48.30
   6  -2   5  393.26   44.80
  -6   2  -5  290.27   31.70
   6   2   5  357.16   47.90
   6   2   5  327.27   46.00
   7  -2   5   48.10   40.20
  -7  -2  -5   22.50   33.80
   7  -2   5   35.60   37.50
  -7  -2  -5  -22.90   40.00
  -7   2  -5   43.90   25.40
   7   2   5   54.29   31.90
  -7   2  -5   16.90   30.00
  -8  -2  -5   60.09   52.69
   8  -2   5   11.20   37.90
   8  -2   5   17.10   34.50
  -8  -2  -5  -11.90   40.10
   8   2   5  -12.80   39.80
   8   2   5   62.19   44.30
  -9  -3   5  301.67   56.39
  -9  -3   5  314.67   50.99
   9  -3  -5  348.67   52.19
   9  -3  -5  337.07   44.20
  -9  -3   5  361.46   52.79
   9   3  -5  405.16   53.39
   9   3  -5  297.97   50.69
  -8  -3   5  238.28   42.50
   8  -3  -5  274.77   39.60
   8  -3  -5  247.68   38.30
  -8  -3   5  310.37   41.60
  -8  -3   5  332.47   56.29
   8   3  -5  292.47   47.70
   8   3  -5  284.37   49.40
  -8   3   5  304.27   32.20
   7  -3  -5  168.68   29.90
  -7  -3   5  185.28   38.00
  -7  -3   5  181.08   37.40
   7  -3  -5  150.08   31.00
   7  -3  -5  146.49   35.80
  -7  -3   5  129.39   30.50
  -7   3   5  151.38   22.70
   7   3  -5  153.68   35.70
  -7   3   5  121.19   23.00
   7   3  -5  150.68   35.60
  -6  -3   5  612.04   46.70
   6  -3  -5  616.44   45.90
  -6  -3   5  654.33   53.79
  -6  -3   5  626.14   53.29
   6  -3  -5  552.24   46.70
   6  -3  -5  579.14   44.20
  -6   3   5  592.84   37.40
   6   3  -5  523.95   49.80
   6   3  -5  611.54   52.29
  -6   3   5  609.84   39.80
  -5  -3   5   -3.70   21.50
  -5  -3   5   14.30   22.40
   5  -3  -5    1.10   17.60
   5  -3  -5  -28.70   18.20
  -5  -3   5   38.40   22.00
   5  -3  -5    3.10   18.90
   5   3  -5    3.80   24.50
  -5   3   5   -0.10   16.50
   5   3  -5   -6.40   16.30
  -5   3   5   28.90   16.90
   5   3  -5   30.50   24.30
   4  -3  -5 1037.50   48.20
  -4  -3   5 1015.10   53.59
  -4  -3   5 1095.79   53.99
   4  -3  -5 1136.79   51.69
   4  -3  -5 1099.69   48.70
  -4  -3   5  989.30   56.19
  -4  -3   5  993.60   55.99
  -4   3   5 1121.59   49.20
  -4   3   5 1034.20   40.10
   4   3  -5 1111.69   49.00
  -4   3   5 1073.09   50.29
   4   3  -5 1020.20   51.39
   4   3  -5 1088.59   51.99
   4   3  -5 1035.30   55.39
   4   3  -5 1005.00   54.29
  -4   3   5 1008.80   46.10
  -3  -3   5  922.61   48.70
  -3  -3   5  779.42   47.30
  -3  -3   5  835.12   47.90
   3  -3  -5  853.11   42.40
  -3  -3   5  889.41   45.70
   3  -3  -5  832.62   43.40
   3  -3  -5  904.61   42.50
   3   3  -5  855.61   46.30
   3   3  -5  884.81   43.10
   3   3  -5  876.71   43.70
  -3   3   5  821.02   41.00
  -3   3   5  851.71   40.60
   3   3  -5  885.51   44.50
   2  -3  -5 1339.37   53.39
  -2  -3   5 1302.37   57.29
   2  -3  -5 1341.27   53.99
  -2  -3   5 1231.48   56.69
   2  -3  -5 1283.77   54.59
  -2  -3   5 1310.07   55.79
   2  -3  -5 1309.17   55.49
  -2  -3   5 1333.57   56.29
  -2   3   5 1363.36   44.30
  -2   3   5 1287.97   53.59
  -2   3   5 1385.26   53.59
   2   3  -5 1392.76   55.09
   2   3  -5 1244.48   56.09
   2   3  -5 1227.08   55.29
  -2   3   5 1317.07   52.39
   2   3  -5 1338.77   53.39
  -2   3   5 1461.75   59.49
   1  -3  -5 1898.01   74.49
   1  -3  -5 2147.79   74.39
  -1  -3   5 1963.20   74.49
   1  -3  -5 2024.30   76.99
   1  -3  -5 2088.49   73.99
  -1  -3   5 2035.70   74.39
  -1  -3   5 2136.19   75.19
  -1  -3   5 2003.20   74.69
  -1   3   5 2105.19   69.59
   1   3  -5 2026.80   72.39
  -1   3   5 2065.89   73.79
   1   3  -5 2054.69   72.79
  -1   3   5 2049.89   73.79
   1   3  -5 2072.69   74.49
  -1   3   5 1995.20   73.29
   0  -3   5  390.26   29.50
   0  -3   5  399.26   31.60
   0  -3  -5  412.86   33.20
   0  -3  -5  400.56   30.30
   0  -3   5  416.36   30.30
   0  -3  -5  375.36   32.60
   0  -3  -5  443.06   29.60
   0   3  -5  401.06   26.90
   0   3   5  428.36   32.00
   0   3   5  463.35   31.20
   0   3   5  460.45   32.10
   0   3  -5  347.37   28.80
   0   3   5  341.97   29.00
   0   3  -5  377.46   28.50
   0   3   5  406.46   31.30
   1  -3   5 2879.91   99.19
   1  -3   5 2970.30   99.09
  -1  -3  -5 2777.52  103.59
   1  -3   5 2928.31   99.49
  -1  -3  -5 2928.01  101.49
  -1  -3  -5 3098.19  102.79
  -1  -3  -5 2904.41  104.79
   1  -3   5 2848.62   99.29
   1   3   5 3032.20  102.29
  -1   3  -5 2941.51   95.19
  -1   3  -5 2990.30   98.69
   1   3   5 2869.01  101.59
   1   3   5 2981.50  101.69
  -1   3  -5 2884.01   96.89
   1   3   5 2996.70  104.19
   1   3   5 2832.02  101.59
  -2  -3  -5  234.28   28.50
  -2  -3  -5  240.78   29.30
  -2  -3  -5  205.58   29.70
   2  -3   5  212.58   24.70
  -2  -3  -5  187.88   30.40
   2  -3   5  210.18   24.40
   2   3   5  248.18   29.50
   2   3   5  217.78   26.10
  -2   3  -5  213.38   25.40
   2   3   5  239.98   28.70
   2   3   5  246.68   27.50
   2   3   5  230.48   28.50
  -2   3  -5  218.68   24.30
  -2   3  -5  279.67   22.30
   3  -3   5 1468.35   64.29
  -3  -3  -5 1501.95   72.59
   3  -3   5 1617.94   65.39
  -3  -3  -5 1692.13   78.29
   3  -3   5 1594.14   64.89
   3  -3   5 1560.34   67.09
  -3  -3  -5 1592.14   73.89
   3   3   5 1545.75   71.09
   3   3   5 1569.24   70.39
  -3   3  -5 1514.45   61.89
  -3   3  -5 1649.63   57.99
  -3   3  -5 1635.54   63.19
  -4  -3  -5  428.86   46.80
   4  -3   5  486.55   38.70
   4  -3   5  454.55   38.90
   4  -3   5  418.66   38.10
  -4  -3  -5  452.15   48.10
   4   3   5  407.36   46.10
  -4   3  -5  420.06   31.50
   4   3   5  502.35   46.00
  -4   3  -5  488.95   29.70
  -4   3  -5  473.45   35.00
   5  -3   5  895.21   54.59
   5  -3   5  942.21   60.59
   5  -3   5  898.01   56.79
  -5  -3  -5  949.80   62.19
  -5  -3  -5  929.01   64.09
   5   3   5 1056.29   63.79
  -5   3  -5  898.71   43.40
  -5   3  -5  939.91   49.90
   5   3   5  839.82   62.19
   6  -3   5  564.84   51.29
  -6  -3  -5  668.83   58.99
  -6  -3  -5  541.65   61.49
   6  -3   5  549.74   51.29
   6   3   5  716.43   62.19
   6   3   5  543.95   62.09
   6   3   5  610.54   56.69
  -6   3  -5  469.05   35.60
   7  -3   5   13.10   31.70
  -7  -3  -5    6.90   37.40
   7  -3   5   88.79   35.50
   7   3   5   16.60   36.10
  -8  -3  -5  440.36   59.69
   8  -3   5  419.46   49.90
   8  -3   5  405.36   50.09
  -8  -3  -5  424.56   74.19
   8   3   5  430.26   60.59
   8   3   5  506.65   60.99
   8   3   5  530.65   52.19
   9  -4  -5  927.01   66.99
  -9  -4   5 1125.89   90.79
  -9  -4   5 1083.99   85.39
   9  -4  -5  867.21   71.39
   9   4  -5  874.71   78.39
   9   4  -5  894.91   82.09
   8  -4  -5  -22.60   26.10
  -8  -4   5   49.60   38.00
  -8  -4   5  -16.90   42.40
   8  -4  -5   34.30   30.60
  -8  -4   5    7.60   34.40
   8   4  -5    5.60   39.50
   8   4  -5   40.30   40.50
  -7  -4   5 2068.39   96.39
  -7  -4   5 2097.09   97.79
   7  -4  -5 1945.41   84.49
   7  -4  -5 1780.32   91.99
  -7  -4   5 1996.40   90.89
   7  -4  -5 1932.01   84.89
   7   4  -5 1919.51   94.49
  -7   4   5 2049.20   79.59
   7   4  -5 1955.20   93.69
   6  -4  -5   35.30   22.80
   6  -4  -5    9.20   20.60
  -6  -4   5    5.80   27.50
  -6  -4   5  -40.40   23.30
   6  -4  -5   11.20   20.40
  -6  -4   5    6.60   28.40
   6   4  -5    6.50   17.70
  -6   4   5   19.60   18.10
   6   4  -5    4.00   27.00
   6   4  -5  -21.60   25.80
  -5  -4   5 3827.22  136.89
   5  -4  -5 3887.81  128.49
  -5  -4   5 3763.42  134.49
  -5  -4   5 3811.72  137.69
   5  -4  -5 3719.13  128.59
   5  -4  -5 3760.32  128.49
  -5   4   5 3813.02  125.59
   5   4  -5 3832.72  126.79
   5   4  -5 3668.03  133.89
   5   4  -5 3665.43  135.39
  -5   4   5 3819.02  112.49
  -5   4   5 3746.03  116.69
  -4  -4   5    2.50   22.70
  -4  -4   5    6.10   21.20
   4  -4  -5   17.80   17.10
  -4  -4   5  -13.40   21.80
  -4  -4   5   46.10   22.70
   4  -4  -5    5.00   17.00
  -4   4   5   32.90   14.90
   4   4  -5   22.30   20.30
  -4   4   5    3.40   11.70
  -4   4   5   15.20   15.40
  -4   4   5   22.70   12.90
   4   4  -5   40.30   23.10
   4   4  -5   36.70   22.90
   4   4  -5  -11.70   18.70
   3  -4  -5 1850.81   71.79
   3  -4  -5 1886.51   69.59
  -3  -4   5 1860.51   76.39
   3  -4  -5 1801.72   68.69
  -3  -4   5 1804.72   76.19
  -3  -4   5 1767.92   75.89
   3  -4  -5 1820.72   70.19
  -3  -4   5 1896.21   74.69
   3   4  -5 1899.21   71.29
   3   4  -5 1920.91   73.29
  -3   4   5 1844.42   68.09
  -3   4   5 1894.31   64.89
  -3   4   5 1931.41   68.09
   3   4  -5 1767.32   74.19
  -3   4   5 1888.01   68.89
   3   4  -5 2120.19   83.89
   3   4  -5 1851.41   73.09
   2  -4  -5  128.49   21.20
   2  -4  -5  115.99   20.50
  -2  -4   5  111.09   23.00
  -2  -4   5  139.79   21.40
  -2  -4   5  104.19   21.50
   2  -4  -5  111.19   23.10
   2  -4  -5  121.49   17.90
  -2   4   5  140.09   12.10
  -2   4   5   91.19   17.20
  -2   4   5  156.28   18.70
   2   4  -5   91.29   20.30
   2   4  -5  132.29   20.60
  -2   4   5  118.39   16.60
   2   4  -5  151.98   20.30
   2   4  -5  134.39   23.50
   2   4  -5  128.29   19.50
  -2   4   5  146.89   18.90
   1  -4  -5   56.99   16.80
   1  -4  -5   64.39   30.70
  -1  -4   5   38.70   16.60
  -1  -4   5   32.40   17.10
   1  -4  -5  100.49   18.50
  -1  -4   5   47.50   16.30
   1  -4  -5   43.70   17.80
  -1  -4   5   59.89   22.00
   1   4  -5   56.29   15.30
  -1   4   5   24.40   14.60
   1   4  -5   52.79   16.30
  -1   4   5   58.99   13.20
   1   4  -5   45.80   21.50
  -1   4   5   56.69   15.50
   1   4  -5   36.80   14.90
  -1   4   5   81.99   17.00
   0  -4  -5   61.89   18.70
   0  -4   5   29.20   15.90
   0  -4  -5   56.19   17.90
   0  -4   5   87.29   17.70
   0  -4   5   49.99   17.30
   0  -4   5   56.59   16.90
   0  -4  -5   67.79   19.30
   0  -4  -5   54.29   21.50
   0   4  -5   56.89   15.70
   0   4   5   65.39   17.80
   0   4   5   49.10   17.00
   0   4  -5   73.79   25.70
   0   4  -5   88.59   14.00
   0   4  -5   81.19   14.90
   0   4   5   82.19   16.60
   0   4   5   57.69   20.00
   0   4   5   66.49   17.90
   1  -4   5  357.96   29.50
   1  -4   5  385.86   29.10
  -1  -4  -5  347.47   37.60
  -1  -4  -5  416.36   36.70
   1  -4   5  373.26   28.10
  -1  -4  -5  365.86   33.00
   1  -4   5  343.37   30.20
  -1  -4  -5  299.37   29.70
   1   4   5  384.16   33.00
   1   4   5  365.56   35.20
  -1   4  -5  370.76   23.40
  -1   4  -5  345.27   25.10
   1   4   5  291.97   31.50
   1   4   5  334.77   31.10
  -1   4  -5  353.16   26.70
  -1   4  -5  385.36   22.50
   1   4   5  359.26   33.20
   2  -4   5   66.29   19.70
  -2  -4  -5   57.09   24.80
   2  -4   5   67.29   17.90
  -2  -4  -5   70.89   24.90
   2  -4   5   50.99   17.20
  -2  -4  -5   23.40   23.80
   2  -4   5   60.89   17.70
   2   4   5   60.89   23.60
  -2   4  -5   66.59   16.20
   2   4   5   94.69   27.90
   2   4   5   68.69   24.10
   2   4   5   75.49   22.40
  -2   4  -5   36.60   10.40
  -2   4  -5   37.50   14.90
   2   4   5   61.29   22.50
  -2   4  -5   54.49   10.90
  -3  -4  -5  231.68   33.90
   3  -4   5  275.37   32.40
  -3  -4  -5  295.07   36.50
   3  -4   5  270.97   31.60
   3  -4   5  332.57   31.90
   3  -4   5  280.67   33.70
   3   4   5  256.57   33.50
  -3   4  -5  258.07   27.00
  -3   4  -5  264.77   16.20
   3   4   5  256.37   32.30
  -3   4  -5  263.47   26.40
   4  -4   5  106.59   23.10
   4  -4   5  116.49   24.50
  -4  -4  -5  119.29   32.10
  -4  -4  -5  114.89   32.40
   4  -4   5   73.59   22.90
  -4   4  -5  120.69   19.60
   4   4   5   85.09   30.90
   4   4   5   90.39   28.90
  -5  -4  -5  398.26   48.50
   5  -4   5  461.05   47.20
   5  -4   5  449.76   42.60
   5  -4   5  464.75   41.70
  -5  -4  -5  592.84   55.09
   5   4   5  453.75   52.79
   5   4   5  466.15   52.59
  -5   4  -5  481.25   36.70
   5   4   5  471.75   48.30
   6  -4   5   75.99   28.50
   6  -4   5   17.10   29.00
  -6  -4  -5    5.60   32.40
  -6  -4  -5   13.70   40.50
  -6   4  -5  -17.00   22.00
   6   4   5   23.60   35.70
   6   4   5   42.10   31.30
   6   4   5   83.29   36.30
   7  -4   5  988.80   69.09
   7  -4   5  927.31   62.49
  -7  -4  -5  877.81   83.19
  -7  -4  -5  993.10   84.99
   7   4   5  908.81   77.59
   7   4   5 1028.50   67.19
   7   4   5  868.01   73.69
  -8  -4  -5   -6.80   43.00
  -8  -4  -5   79.49   47.90
   8  -4   5   -6.90   32.70
   8  -4   5   61.99   39.50
   8   4   5  -72.09   42.60
   8   4   5   39.50   44.60
   8   4   5   10.20   29.90
  -9  -5   5   23.50   47.00
  -9  -5   5  -36.60   43.20
   9  -5  -5  123.79   44.40
  -9  -5   5   83.39   48.50
   9  -5  -5   45.50   33.50
   9   5  -5  114.29   45.10
   9   5  -5  144.99   45.80
   8  -5  -5  792.52   53.19
   8  -5  -5  736.03   58.19
  -8  -5   5  720.73   76.79
  -8  -5   5  691.03   74.59
  -8  -5   5  738.93   75.09
   8   5  -5  527.65   74.09
   8   5  -5  691.93   75.39
   7  -5  -5    6.60   22.50
  -7  -5   5   80.79   35.50
   7  -5  -5   21.70   23.70
  -7  -5   5   43.70   37.60
  -7  -5   5   80.49   32.50
   7   5  -5   45.90   21.90
   7   5  -5   70.89   31.30
  -7   5   5    0.00   21.80
   7   5  -5   39.30   36.10
   6  -5  -5 1328.77   63.89
   6  -5  -5 1318.57   61.79
  -6  -5   5 1252.07   74.69
  -6  -5   5 1222.78   71.59
  -6  -5   5 1319.17   73.59
   6  -5  -5 1410.16   64.29
   6   5  -5 1301.57   73.19
   6   5  -5 1304.17   71.49
   6   5  -5 1302.47   61.59
  -5  -5   5   28.90   28.80
  -5  -5   5   64.19   28.20
   5  -5  -5   33.20   19.70
   5  -5  -5   54.09   19.80
   5  -5  -5   35.70   18.70
  -5  -5   5   12.80   26.80
  -5   5   5   36.30   12.70
   5   5  -5   41.10   26.10
   5   5  -5   22.60   25.40
   5   5  -5   18.70   21.50
  -5   5   5   50.19   15.50
   4  -5  -5 1730.33   69.59
   4  -5  -5 1774.42   71.89
  -4  -5   5 1672.13   78.99
  -4  -5   5 1895.61   79.69
   4  -5  -5 1890.81   69.49
  -4  -5   5 1742.53   76.59
   4  -5  -5 1801.92   70.19
  -4  -5   5 1647.84   78.09
   4   5  -5 1846.52   73.79
   4   5  -5 1818.02   77.19
  -4   5   5 1771.62   65.19
   4   5  -5 1739.93   76.59
  -4   5   5 1732.73   64.69
   4   5  -5 1829.52   75.39
  -4   5   5 1790.52   65.19
   3  -5  -5  126.79   19.90
  -3  -5   5  170.58   24.50
   3  -5  -5  112.09   19.30
   3  -5  -5  132.59   20.60
  -3  -5   5  113.59   25.20
   3  -5  -5  150.88   22.60
  -3  -5   5  117.69   28.00
  -3  -5   5  139.79   26.70
  -3   5   5  110.49   16.80
   3   5  -5  129.79   23.60
  -3   5   5  125.89   21.30
   3   5  -5  157.68   24.20
  -3   5   5  132.49   18.60
   3   5  -5  120.89   21.80
   3   5  -5  105.59   26.80
  -3   5   5  143.19   14.60
  -2  -5   5 2076.79   77.59
   2  -5  -5 2050.99   74.39
  -2  -5   5 1997.50   78.69
   2  -5  -5 2144.69   74.59
   2  -5  -5 2075.69   76.69
   2  -5  -5 1986.90   75.39
  -2  -5   5 2013.30   83.09
  -2  -5   5 2035.50   78.99
  -2   5   5 2096.59   73.09
  -2   5   5 2072.09   72.59
  -2   5   5 2080.29   64.19
   2   5  -5 2114.39   82.39
   2   5  -5 1966.60   74.49
   2   5  -5 2051.39   76.19
  -2   5   5 2099.89   68.19
  -2   5   5 1987.60   76.29
  -2   5   5 1767.12   69.49
   2   5  -5 1996.50   75.29
   2   5  -5 2126.09   73.99
  -1  -5   5 1179.78   52.99
   1  -5  -5 1193.78   54.09
  -1  -5   5 1299.57   55.59
  -1  -5   5 1160.48   56.99
   1  -5  -5 1221.38   52.59
   1  -5  -5 1268.07   53.19
  -1   5   5 1251.97   49.20
  -1   5   5 1268.17   48.40
   1   5  -5 1119.09   49.10
  -1   5   5 1090.29   50.29
   1   5  -5 1216.98   46.90
   1   5  -5 1195.08   51.09
  -1   5   5 1209.18   56.99
  -1   5   5 1272.97   57.59
  -1   5   5 1263.97   51.49
   1   5  -5 1219.48   48.80
   1   5  -5 1263.97   59.99
   0  -5   5  202.18   23.80
   0  -5  -5  194.78   26.70
   0  -5   5  204.58   22.90
   0  -5   5  169.98   21.80
   0  -5  -5  173.78   24.90
   0  -5  -5  179.68   22.90
   0  -5   5  206.98   26.50
   0  -5  -5  197.78   24.30
   0  -5  -5  209.18   24.90
   0   5  -5  149.88   17.70
   0   5   5  182.98   21.20
   0   5  -5  202.68   29.70
   0   5  -5  189.18   18.20
   0   5  -5  183.08   16.80
   0   5   5  204.28   25.60
   0   5   5  184.18   22.40
   0   5   5  221.88   24.20
   0   5  -5  234.38   23.50
   0   5   5  185.18   27.90
   0   5   5  183.48   23.70
   1  -5   5 1395.46   54.89
   1  -5   5 1311.67   60.49
  -1  -5  -5 1312.27   58.99
  -1  -5  -5 1252.37   63.29
  -1  -5  -5 1314.37   62.89
  -1  -5  -5 1353.56   62.29
   1  -5   5 1324.97   56.39
   1  -5   5 1332.17   56.19
  -1  -5  -5 1401.46   61.89
   1   5   5 1355.56   59.79
  -1   5  -5 1395.36   52.39
   1   5   5 1367.06   59.79
   1   5   5 1345.57   59.99
  -1   5  -5 1382.06   51.69
   1   5   5 1435.06   67.49
   1   5   5 1416.76   58.19
   1   5   5 1604.94   69.49
  -2  -5  -5  157.38   29.40
  -2  -5  -5  116.69   26.60
   2  -5   5  146.09   19.80
  -2  -5  -5  168.38   30.50
   2  -5   5  148.49   20.80
   2  -5   5  137.09   20.80
   2  -5   5  166.18   22.40
   2   5   5  138.99   25.70
   2   5   5  148.49   27.40
  -2   5  -5  129.29   15.70
   2   5   5  131.89   25.80
   2   5   5  122.39   30.50
   2   5   5  137.29   25.60
  -3  -5  -5  432.36   47.40
   3  -5   5  375.36   40.20
  -3  -5  -5  362.46   45.50
   3  -5   5  369.16   32.40
  -3  -5  -5  417.46   44.80
   3  -5   5  363.76   30.80
   3  -5   5  359.06   32.50
   3   5   5  375.26   41.40
   3   5   5  296.17   36.10
  -3   5  -5  355.96   26.80
   3   5   5  340.47   43.40
   4  -5   5  734.13   43.30
  -4  -5  -5  790.32   59.49
   4  -5   5  764.52   44.70
  -4  -5  -5  709.93   57.99
  -4  -5  -5  673.53   58.79
   4  -5   5  726.03   44.80
   4   5   5  730.83   55.39
   4   5   5  658.63   54.79
   4   5   5  619.64   53.79
   5  -5   5  369.76   40.60
   5  -5   5  301.97   35.80
  -5  -5  -5  349.67   46.70
  -5  -5  -5  378.46   45.50
   5  -5   5  327.87   39.00
   5   5   5  317.07   43.40
   5   5   5  303.37   43.30
   5   5   5  374.76   45.50
  -6  -5  -5 1102.49   79.59
  -6  -5  -5  935.61   77.89
   6  -5   5 1128.19   61.59
   6  -5   5  904.91   61.29
   6   5   5  904.21   75.49
   6   5   5  969.90   69.19
   6   5   5 1020.90   79.39
  -7  -5  -5   28.30   46.40
   7  -5   5   93.59   30.80
   7  -5   5  -68.29   29.70
   7   5   5   43.70   40.60
   7   5   5   38.40   40.70
   7   5   5   21.30   29.90
  -9  -6   5   15.40   45.10
   9  -6  -5   -1.10   30.30
  -9  -6   5   23.10   44.10
   9  -6  -5   64.99   48.50
  -9  -6   5   42.20   49.40
   9   6  -5  -21.80   45.60
   9   6  -5   46.30   46.40
  -8  -6   5  469.85   60.59
  -8  -6   5  451.45   66.69
   8  -6  -5  397.46   48.70
  -8  -6   5  422.96   76.49
   8   6  -5  432.46   46.00
   8   6  -5  507.55   59.99
   8   6  -5  474.65   57.29
   7  -6  -5  136.59   29.10
  -7  -6   5  108.19   38.10
   7  -6  -5  112.79   28.00
  -7  -6   5   68.69   40.20
  -7  -6   5  113.69   45.10
   7   6  -5   76.99   32.50
   7   6  -5   51.59   26.70
   7   6  -5  123.39   42.10
   6  -6  -5   11.10   20.10
  -6  -6   5   32.50   28.10
   6  -6  -5   13.60   21.30
   6  -6  -5   25.60   19.50
  -6  -6   5  -54.49   28.00
  -6  -6   5   34.10   31.90
   6   6  -5   55.49   25.30
   6   6  -5   -8.20   26.40
   6   6  -5   15.60   29.10
  -6   6   5   10.80   14.20
  -5  -6   5  366.86   42.50
  -5  -6   5  346.67   42.70
   5  -6  -5  405.76   33.70
  -5  -6   5  382.26   49.60
   5  -6  -5  345.07   33.40
   5   6  -5  411.46   44.40
   5   6  -5  369.86   47.10
  -5   6   5  365.66   25.90
   5   6  -5  334.87   40.10
   4  -6  -5  678.93   40.40
   4  -6  -5  620.04   36.70
  -4  -6   5  611.84   49.70
   4  -6  -5  677.63   39.20
   4  -6  -5  478.45   42.60
  -4  -6   5  543.25   52.39
  -4  -6   5  617.64   50.49
  -4  -6   5  683.83   52.79
  -4   6   5  619.24   37.80
   4   6  -5  612.84   46.20
   4   6  -5  632.54   43.50
   4   6  -5  645.64   47.10
   4   6  -5  671.53   48.70
   3  -6  -5  195.58   23.60
   3  -6  -5  237.58   28.50
  -3  -6   5  222.88   35.50
  -3  -6   5  240.48   30.90
  -3  -6   5  212.38   28.80
  -3  -6   5  250.97   30.80
   3  -6  -5  242.98   27.60
   3  -6  -5  309.07   29.30
  -3   6   5  269.87   29.40
   3   6  -5  226.88   33.00
  -3   6   5  245.38   23.10
   3   6  -5  300.77   33.90
   3   6  -5  212.18   24.40
   3   6  -5  260.77   29.70
  -3   6   5  245.58   26.20
  -2  -6   5 2405.26   95.79
   2  -6  -5 2437.36   83.59
  -2  -6   5 2387.76   87.19
   2  -6  -5 2423.76   85.29
  -2  -6   5 2291.27   88.89
  -2  -6   5 2411.06   89.79
   2  -6  -5 2311.17   92.79
  -2  -6   5 2270.57   91.69
   2  -6  -5 2221.18   84.09
   2   6  -5 2217.08   84.39
  -2   6   5 2353.76   80.49
   2   6  -5 2279.37   92.89
  -2   6   5 2294.37   80.69
   2   6  -5 2275.07   81.69
  -2   6   5 2291.17   87.29
   2   6  -5 2592.74   82.19
   1  -6  -5    4.80   17.30
  -1  -6   5    3.20   17.50
   1  -6  -5   12.90   14.00
   1  -6  -5   17.70   17.90
  -1  -6   5    2.70   17.60
   1  -6  -5   15.70   20.40
   1   6  -5   26.20   15.10
  -1   6   5   30.30   15.80
  -1   6   5    3.70   15.70
   1   6  -5    6.90   10.70
   1   6  -5   31.10   25.60
  -1   6   5   16.20   12.80
   1   6  -5   38.30   14.60
  -1   6   5   13.70   23.40
  -1   6   5    7.00   12.70
   0  -6  -5 2465.25   93.49
   0  -6  -5 2368.46   90.89
   0  -6  -5 2367.96   89.59
   0  -6   5 2393.86   86.29
   0  -6   5 2539.65   88.09
   0  -6  -5 2479.95   89.79
   0  -6   5 2396.86   86.29
   0  -6   5 2439.16   85.49
   0  -6  -5 2432.06   89.49
   0   6   5 2405.36   96.09
   0   6  -5 2475.35   82.99
   0   6  -5 2371.76   81.89
   0   6   5 2488.45   86.89
   0   6   5 2399.76   84.19
   0   6   5 2566.84   88.19
   0   6  -5 2369.76   95.69
   0   6   5 2429.86   86.49
  -1  -6  -5   55.39   24.20
   1  -6   5   32.00   15.30
  -1  -6  -5   50.39   24.60
   1  -6   5   51.99   17.90
   1  -6   5   39.70   16.70
   1  -6   5   35.70   18.50
  -1  -6  -5   28.50   21.80
   1   6   5   41.10   21.70
   1   6   5   54.99   20.70
   1   6   5   26.20   23.40
  -1   6  -5   25.30   12.10
   1   6   5   43.30   27.20
   1   6   5   43.60   20.10
  -2  -6  -5 1484.95   73.59
   2  -6   5 1618.54   62.19
  -2  -6  -5 1680.73   76.19
   2  -6   5 1611.14   64.89
   2  -6   5 1686.13   63.69
   2  -6   5 1601.44   63.19
  -2  -6  -5 1572.24   75.79
  -2  -6  -5 1619.74   74.09
  -2   6  -5 1604.24   55.79
  -2   6  -5 1565.44   55.49
   2   6   5 1623.64   69.79
   2   6   5 1697.93   69.59
   2   6   5 1673.23   72.99
   2   6   5 1566.34   77.29
  -3  -6  -5  120.49   29.70
  -3  -6  -5   67.49   29.20
   3  -6   5  124.89   20.80
  -3  -6  -5   94.69   31.80
   3  -6   5   58.69   18.90
   3  -6   5  140.49   30.90
  -3   6  -5   47.40   11.30
   3   6   5  100.09   27.90
   3   6   5   66.69   30.10
  -3   6  -5   43.10   12.50
   3   6   5   65.39   27.50
  -4  -6  -5  605.84   50.39
   4  -6   5  587.94   40.50
   4  -6   5  598.64   40.10
  -4  -6  -5  642.24   55.19
  -4  -6  -5  657.53   57.59
   4  -6   5  624.24   40.50
   4   6   5  586.34   53.59
   4   6   5  549.85   55.69
  -4   6  -5  626.34   39.60
  -4   6  -5  565.34   28.00
   4   6   5  610.64   55.29
   5  -6   5  227.58   29.60
  -5  -6  -5  276.67   48.50
   5  -6   5  183.48   27.30
  -5  -6  -5  235.48   46.90
  -5  -6  -5  198.18   42.00
   5   6   5  205.88   39.20
   5   6   5  227.08   42.30
  -6  -6  -5  228.38   47.90
   6  -6   5  241.98   35.30
   6  -6   5  213.48   30.60
  -6  -6  -5  225.38   52.49
   6   6   5  230.28   48.40
   6   6   5  226.18   49.40
   7  -6   5   55.39   29.60
  -7  -6  -5  103.99   47.40
  -7  -6  -5   87.29   45.60
   7  -6   5   39.40   38.90
   7   6   5   37.20   42.30
   7   6   5   88.79   47.10
   7   6   5    7.80   36.00
   8  -7  -5  125.89   34.80
   8  -7  -5   46.70   26.20
  -8  -7   5   50.09   43.60
  -8  -7   5   41.10   42.90
  -8  -7   5  150.88   48.20
   8   7  -5   55.09   31.40
   8   7  -5   37.10   48.00
   8   7  -5   82.29   42.00
  -7  -7   5  244.58   50.79
   7  -7  -5  328.47   36.30
  -7  -7   5  304.17   53.29
   7  -7  -5  314.27   36.00
   7   7  -5  338.47   46.80
   7   7  -5  372.66   45.50
   7   7  -5  333.97   51.49
   6  -7  -5  209.98   26.80
   6  -7  -5  234.58   28.20
  -6  -7   5  250.37   45.60
  -6  -7   5  205.38   42.40
  -6  -7   5  173.58   41.10
   6   7  -5  258.17   39.90
   6   7  -5  241.68   37.70
   6   7  -5  275.57   40.10
  -5  -7   5   23.70   28.00
  -5  -7   5   41.00   27.50
   5  -7  -5   34.60   18.20
   5  -7  -5   73.59   20.00
  -5  -7   5  -33.40   27.70
  -5   7   5   27.00    8.00
   5   7  -5    6.20   26.40
   5   7  -5    1.60   26.30
  -5   7   5   40.90   20.40
   5   7  -5   54.69   26.40
   4  -7  -5  415.56   33.30
  -4  -7   5  356.06   43.20
  -4  -7   5  370.56   44.50
   4  -7  -5  419.46   45.30
   4  -7  -5  388.36   32.10
  -4  -7   5  313.97   41.60
  -4  -7   5  375.86   42.30
   4   7  -5  374.26   42.80
   4   7  -5  424.36   41.00
  -4   7   5  391.06   21.60
   4   7  -5  445.26   42.60
   4   7  -5  345.77   40.20
  -4   7   5  376.36   32.30
   3  -7  -5  503.15   33.00
  -3  -7   5  514.65   43.40
   3  -7  -5  462.65   33.60
  -3  -7   5  527.65   44.00
  -3  -7   5  446.36   49.10
   3  -7  -5  482.55   38.20
  -3  -7   5  519.05   44.00
  -3   7   5  445.06   37.60
   3   7  -5  434.86   37.30
  -3   7   5  501.05   28.30
   3   7  -5  484.95   46.10
  -3   7   5  441.46   25.30
   3   7  -5  517.25   35.40
   2  -7  -5  398.96   30.90
  -2  -7   5  343.57   35.70
   2  -7  -5  322.07   31.40
  -2  -7   5  306.97   39.90
  -2  -7   5  401.66   39.20
  -2  -7   5  463.05   38.00
   2  -7  -5  306.47   33.10
   2   7  -5  338.97   31.00
   2   7  -5  373.66   42.90
  -2   7   5  324.77   27.50
   2   7  -5  373.86   38.20
  -2   7   5  386.86   39.50
   1  -7  -5 2438.86   90.29
  -1  -7   5 2418.76   90.59
   1  -7  -5 2778.92  111.69
  -1  -7   5 2506.45   90.89
   1  -7  -5 2442.06   87.49
  -1  -7   5 2467.75   90.99
   1  -7  -5 2500.45   92.59
  -1   7   5 2394.56   85.29
   1   7  -5 2536.15   86.39
  -1   7   5 2498.15   85.09
  -1   7   5 2520.35   97.19
   1   7  -5 2320.77   98.99
  -1   7   5 2367.46   73.29
   0  -7  -5  117.59   24.10
   0  -7  -5  155.88   27.70
   0  -7   5   95.99   22.20
   0  -7  -5  177.28   25.90
   0  -7   5  164.78   21.40
   0  -7   5  143.69   21.80
   0  -7   5  124.29   23.60
   0  -7  -5  193.48   27.80
   0   7   5  185.68   23.10
   0   7   5  143.19   20.10
   0   7   5  171.58   31.90
   0   7   5  172.38   21.30
   0   7   5  165.28   24.60
   0   7  -5  185.18   21.50
   0   7  -5  147.79   33.30
   1  -7   5 2971.60   98.69
  -1  -7  -5 2951.20  109.49
   1  -7   5 2987.10  100.49
  -1  -7  -5 2852.11  108.99
   1  -7   5 2862.71   99.29
  -1  -7  -5 3032.70  110.49
   1  -7   5 2930.21  101.19
  -1   7  -5 3026.00   91.79
   1   7   5 2895.61  114.09
   1   7   5 2849.01  110.19
   1   7   5 2908.91  100.39
  -1   7  -5 2730.53  112.29
   1   7   5 2895.41  107.59
   2  -7   5   30.80   16.70
  -2  -7  -5   15.70   27.30
  -2  -7  -5    2.00   25.40
  -2  -7  -5   24.00   28.10
   2  -7   5   14.20   20.20
  -2  -7  -5   11.10   24.90
   2  -7   5    5.90   14.30
   2  -7   5   -9.60   14.80
   2   7   5  -15.10   25.40
  -2   7  -5    6.00    4.80
   2   7   5  -11.30   20.80
   2   7   5    5.10   28.20
   2   7   5    8.50   22.20
   3  -7   5 2023.20   75.19
  -3  -7  -5 2099.29   95.89
  -3  -7  -5 1987.20   95.09
   3  -7   5 2014.40   75.69
  -3  -7  -5 1951.40   90.49
   3   7   5 2080.59   88.29
   3   7   5 2103.59   86.79
   3   7   5 2007.50   93.99
   4  -7   5  457.05   35.40
  -4  -7  -5  477.35   56.89
  -4  -7  -5  480.35   52.09
   4  -7   5  449.66   36.60
   4  -7   5  453.75   35.30
  -4  -7  -5  417.76   51.79
   4   7   5  452.25   53.79
   4   7   5  557.94   51.69
   4   7   5  429.76   52.69
   5  -7   5  443.56   40.80
   5  -7   5  481.55   39.70
  -5  -7  -5  550.54   69.09
  -5  -7  -5  475.15   59.59
  -5  -7  -5  607.04   71.09
   5   7   5  385.46   60.59
   5   7   5  525.75   65.69
   5   7   5  471.45   54.79
  -6  -7  -5  342.17   54.69
   6  -7   5  237.08   35.30
  -6  -7  -5  250.87   52.49
   6  -7   5  286.97   34.60
  -6  -7  -5  202.88   46.40
   6   7   5  268.27   55.29
   6   7   5  195.08   43.40
   6   7   5  299.57   50.09
   7  -7   5   14.60   43.70
  -7  -7  -5  -91.59   46.50
   7  -7   5   10.50   27.80
  -7  -7  -5   33.90   45.20
   7   7   5   20.00   47.80
   7   7   5   33.90   37.50
   7   7   5  -59.99   44.30
   8  -8  -5   35.00   24.70
  -8  -8   5  -83.99   43.20
  -8  -8   5   73.59   48.30
  -8  -8   5  105.39   46.00
   8   8  -5   71.89   33.20
   8   8  -5   94.79   46.20
   7  -8  -5 1505.15   73.19
  -7  -8   5 1576.14   95.39
  -7  -8   5 1361.26   94.79
  -7  -8   5 1573.14   97.69
   7   8  -5 1350.26   90.29
  -6  -8   5   17.60   40.20
  -6  -8   5   45.00   39.30
   6  -8  -5   36.20   18.20
  -6  -8   5    1.10   40.50
   6  -8  -5   27.40   21.30
   6   8  -5   29.50   31.90
   6   8  -5   63.89   33.30
   6   8  -5   48.30   34.70
  -5  -8   5 1709.03   88.49
   5  -8  -5 1684.73   67.39
   5  -8  -5 1629.94   66.69
  -5  -8   5 1660.43   92.89
  -5  -8   5 1845.62   90.89
   5   8  -5 1708.03   83.79
   5   8  -5 1652.73   81.49
  -5   8   5 1667.23   67.89
   5   8  -5 1708.63   78.49
  -4  -8   5   81.69   30.10
   4  -8  -5   86.49   19.50
  -4  -8   5   59.79   32.50
  -4  -8   5   68.79   38.10
   4  -8  -5   65.09   19.20
  -4  -8   5   69.19   29.40
   4  -8  -5   75.69   20.40
   4   8  -5   54.19   25.70
  -4   8   5   91.29   23.30
   4   8  -5   69.09   24.20
   4   8  -5   86.39   32.60
   4   8  -5   98.49   27.20
  -3  -8   5 1417.56   70.09
   3  -8  -5 1469.25   59.79
  -3  -8   5 1549.74   72.99
  -3  -8   5 1457.05   73.69
   3  -8  -5 1401.56   60.19
  -3  -8   5 1385.16   77.19
   3  -8  -5 1337.37   77.49
   3   8  -5 1496.05   59.89
   3   8  -5 1476.25   75.79
   3   8  -5 1564.24   64.69
  -3   8   5 1460.45   68.09
  -3   8   5 1506.25   47.30
   2  -8  -5  255.87   23.90
   2  -8  -5  210.88   24.80
  -2  -8   5  262.37   31.20
   2  -8  -5  266.87   30.40
  -2  -8   5  234.48   30.70
  -2  -8   5  224.38   36.90
   2  -8  -5  245.68   31.70
  -2  -8   5  250.57   29.90
  -2   8   5  318.07   22.30
  -2   8   5  272.27   34.30
  -2   8   5  202.08   24.40
   2   8  -5  225.68   38.90
   2   8  -5  270.07   29.70
   1  -8  -5  226.48   26.70
  -1  -8   5  189.88   26.30
   1  -8  -5  191.08   26.80
   1  -8  -5  170.98   27.80
  -1  -8   5  203.78   26.30
  -1  -8   5  167.78   25.90
   1  -8  -5  216.58   28.00
  -1  -8   5  173.58   34.80
  -1   8   5  221.98   23.40
   1   8  -5  231.58   23.60
   1   8  -5  196.08   35.10
  -1   8   5  191.08   33.10
   0  -8   5  493.95   34.80
   0  -8  -5  486.05   40.80
   0  -8   5  481.75   36.10
   0  -8  -5  497.75   41.10
   0  -8   5  441.46   43.10
   0  -8  -5  495.45   41.20
   0   8   5  492.15   34.10
   0   8  -5  530.25   44.70
   0   8   5  531.15   41.50
   0   8   5  413.66   48.00
   0   8  -5  494.15   25.70
   1  -8   5  142.09   30.60
   1  -8   5   80.39   19.10
  -1  -8  -5   51.39   27.70
   1  -8   5  124.59   18.20
  -1  -8  -5  123.99   29.30
  -1  -8  -5  137.79   29.20
   1  -8   5  135.69   19.90
  -1  -8  -5  124.19   27.60
  -1   8  -5   86.29   32.40
   1   8   5  100.29   19.10
   1   8   5  126.99   21.00
   1   8   5  138.49   34.10
   2  -8   5  197.48   22.60
   2  -8   5  176.18   22.30
  -2  -8  -5  228.28   38.40
  -2  -8  -5  182.78   31.80
  -2  -8  -5  231.38   39.80
  -2  -8  -5  185.08   36.70
   2  -8   5  200.98   24.80
   2   8   5  201.78   30.30
   2   8   5  166.78   31.70
   2   8   5  223.58   40.60
   2   8   5  183.18   27.00
  -3  -8  -5  216.58   37.90
   3  -8   5  251.07   27.70
  -3  -8  -5  281.67   43.20
   3  -8   5  249.28   27.40
  -3  -8  -5  291.27   40.80
   3   8   5  278.17   35.80
   3   8   5  194.68   48.50
   3   8   5  259.07   36.00
   3   8   5  249.48   64.89
  -4  -8  -5   52.69   40.10
   4  -8   5  117.99   23.60
  -4  -8  -5  136.99   41.10
  -4  -8  -5   94.09   39.90
   4  -8   5   77.59   18.90
   4   8   5   73.19   32.50
   4   8   5  102.69   42.20
   4   8   5   81.09   34.60
  -5  -8  -5  319.57   52.09
  -5  -8  -5  212.18   64.89
   5  -8   5  348.47   33.80
   5  -8   5  340.67   34.70
  -5  -8  -5  452.75   59.59
   5   8   5  418.76   53.39
   5   8   5  305.37   47.70
   5   8   5  355.26   47.00
  -6  -8  -5  133.89   46.50
  -6  -8  -5  -29.60   43.00
  -6  -8  -5  -11.70   44.60
   6   8   5   79.69   43.30
   6   8   5   74.39   37.40
   6   8   5   62.69   47.70
  -7  -9   5  -19.40   44.20
  -7  -9   5    1.30   44.40
   7  -9  -5   38.20   24.10
  -7  -9   5  -84.09   39.80
   7   9  -5  116.29   41.70
   7   9  -5    5.20   43.70
   7   9  -5  -50.19   28.70
   6  -9  -5 1198.98   53.69
  -6  -9   5 1160.58   80.19
   6  -9  -5 1155.08   59.89
  -6  -9   5 1034.80   87.39
   6   9  -5 1057.99   75.09
   6   9  -5 1259.17   74.69
   6   9  -5 1242.08   75.89
   5  -9  -5   -6.60   14.90
  -5  -9   5   84.99   38.10
  -5  -9   5  -16.10   33.70
  -5  -9   5   31.50   38.20
   5   9  -5  -10.70   26.10
  -5   9   5  -17.40   22.60
   5   9  -5   -0.50   27.20
   4  -9  -5 1803.12   68.39
   4  -9  -5 1727.13   66.89
  -4  -9   5 1765.02   96.89
  -4  -9   5 1662.53   84.99
   4  -9  -5 1792.72   71.19
  -4  -9   5 1861.71   86.49
   4   9  -5 1751.92   71.79
   4   9  -5 1728.23   88.59
  -4   9   5 1742.63   76.39
  -3  -9   5  -27.40   30.60
  -3  -9   5    5.80   25.10
   3  -9  -5   25.40   17.80
   3  -9  -5  -21.30   17.00
   3  -9  -5    5.90   16.70
  -3  -9   5   -9.20   29.90
  -3  -9   5   31.70   26.90
   3   9  -5  -22.40   19.70
   3   9  -5  -15.40   28.20
   3   9  -5   14.20   20.00
  -3   9   5   -1.60   22.70
  -2  -9   5  972.00   54.09
  -2  -9   5  945.11   66.29
  -2  -9   5  949.51   54.59
   2  -9  -5  854.01   47.00
   2  -9  -5  940.81   50.29
  -2  -9   5  910.11   55.59
   2  -9  -5  910.71   47.90
   2   9  -5  860.71   46.10
  -2   9   5  935.41   57.09
  -2   9   5  833.02   32.90
   2   9  -5  942.81   65.29
  -1  -9   5  263.37   29.60
   1  -9  -5  260.47   29.60
   1  -9  -5  261.47   29.70
  -1  -9   5  254.77   32.90
   1  -9  -5  321.57   33.50
  -1  -9   5  211.68   39.40
  -1  -9   5  209.58   27.80
   1   9  -5  176.78   39.30
  -1   9   5  260.97   39.20
   1   9  -5  277.87   24.80
   0  -9  -5  184.68   30.10
   0  -9   5  203.78   24.30
   0  -9   5  236.28   30.20
   0  -9  -5  227.58   30.90
   0  -9  -5  196.58   32.00
   0  -9   5  205.48   37.40
   0  -9   5  214.28   25.90
   0  -9  -5  260.27   32.30
   0   9  -5  225.78   41.50
   0   9   5  168.78   22.40
   0   9   5  194.08   38.50
   0   9   5  265.37   39.70
   1  -9   5  406.16   31.40
  -1  -9  -5  433.36   47.10
   1  -9   5  428.36   32.50
  -1  -9  -5  424.06   49.99
  -1  -9  -5  386.46   41.60
  -1  -9  -5  400.36   41.70
  -1   9  -5  437.36   52.49
   1   9   5  365.76   26.20
   1   9   5  417.66   36.70
   1   9   5  327.37   48.20
  -2  -9  -5   82.79   33.40
   2  -9   5   81.69   17.40
   2  -9   5   68.49   16.80
   2  -9   5   87.69   17.30
  -2  -9  -5  126.09   34.80
  -2  -9  -5   92.89   31.00
   2   9   5   60.39   21.40
  -3  -9  -5  322.57   48.00
   3  -9   5  345.87   28.40
  -3  -9  -5  374.96   51.19
  -3  -9  -5  307.97   45.60
   3  -9   5  378.66   28.60
   3   9   5  403.46   42.80
   3   9   5  342.87   37.20
  -4  -9  -5  494.75   61.09
   4  -9   5  497.85   32.70
   4  -9   5  494.25   41.50
  -4  -9  -5  478.95   66.49
  -4  -9  -5  588.34   73.99
   4   9   5  518.65   56.49
   4   9   5  694.93   61.89
   4   9   5  517.55   58.69
  -5  -9  -5  138.49   49.10
   5  -9   5  156.68   23.10
  -5  -9  -5  185.58   46.10
  -5  -9  -5   56.79   44.10
   5   9   5   53.69   38.50
   5   9   5  108.99   39.90
  -6  -9  -5 1295.57  101.59
   6  -9   5  929.11   63.79
  -6  -9  -5 1274.97   93.89
  -6  -9  -5 1178.98   99.69
   6   9   5 1151.28  133.69
   6   9   5 1058.79   81.79
   6   9   5 1158.68   82.89
  -7 -10   5  298.57   61.49
  -7 -10   5  433.46   61.99
  -7 -10   5  256.27   60.89
   7 -10  -5  254.27   31.90
   7  10  -5  241.18   41.60
   7  10  -5  261.57   48.50
  -6 -10   5    0.90   42.50
  -6 -10   5   -7.60   41.60
   6 -10  -5    5.10   17.40
  -6 -10   5   -5.00   38.90
   6  10  -5   37.10   34.40
   6  10  -5  -72.99   39.80
   6  10  -5   42.40   39.70
  -5 -10   5  502.65   58.79
   5 -10  -5  468.05   31.10
  -5 -10   5  428.36   52.19
  -5 -10   5  416.16   58.69
   5  10  -5  402.56   45.40
   5  10  -5  437.06   53.29
   5  10  -5  419.56   51.19
  -5  10   5  453.75   45.20
  -4 -10   5  621.04   60.89
  -4 -10   5  558.64   72.89
   4 -10  -5  539.85   33.20
   4 -10  -5  455.65   41.30
  -4 -10   5  523.85   55.19
   4  10  -5  607.54   55.59
   4  10  -5  575.64   34.80
  -4  10   5  454.55   47.00
   3 -10  -5  148.79   20.90
  -3 -10   5  137.69   43.80
  -3 -10   5  222.88   35.70
   3 -10  -5  138.29   24.40
  -3 -10   5  181.78   36.60
   3  10  -5  204.08   25.40
   3  10  -5  237.08   43.90
  -3  10   5  171.58   32.70
   2 -10  -5  801.52   45.10
  -2 -10   5  884.11   71.59
  -2 -10   5  792.32   54.69
   2 -10  -5  771.82   46.60
  -2 -10   5  870.21   54.59
  -2  10   5  793.42   58.09
   2  10  -5  710.03   61.89
  -1 -10   5   24.60   22.70
  -1 -10   5   57.99   22.60
  -1 -10   5   24.30   34.70
   1 -10  -5   43.30   21.70
   1 -10  -5   36.40   22.10
   1 -10  -5   26.90   21.50
   1  10  -5   78.09   36.70
  -1  10   5   52.59   32.70
   0 -10  -5 1250.87   63.29
   0 -10   5 1219.08   77.59
   0 -10   5 1196.38   57.09
   0 -10   5 1087.39   54.89
   0 -10  -5 1227.18   63.99
   0 -10   5 1166.28   53.09
   0 -10  -5 1243.28   65.59
   0  10  -5 1222.28   76.89
  -1 -10  -5  -31.00   26.10
   1 -10   5   14.10   18.30
   1 -10   5  -20.70   14.80
  -1 -10  -5    4.50   27.00
   1 -10   5  -20.30   14.80
  -1 -10  -5    5.20   25.40
   1  10   5   -7.40   19.90
   1  10   5  -12.70   34.00
  -1  10  -5  -34.80   30.60
  -2 -10  -5  730.73   58.09
  -2 -10  -5  706.43   63.09
  -2 -10  -5  787.52   65.89
   2 -10   5  738.13   37.20
   2 -10   5  790.72   41.80
   2  10   5  666.13   39.20
   2  10   5  759.12   65.09
  -3 -10  -5   59.09   44.60
  -3 -10  -5   79.19   38.00
  -3 -10  -5   58.69   43.90
   3 -10   5   69.69   14.00
   3  10   5  112.99   29.80
   3  10   5   98.69   28.40
   3  10   5   41.20   34.60
   4 -10   5  413.16   26.10
  -4 -10  -5  389.66   59.89
  -4 -10  -5  418.46   54.39
  -4 -10  -5  464.95   60.19
   4  10   5  335.27   46.50
   4  10   5  394.36   55.99
   4  10   5  394.46   46.00
  -5 -10  -5  139.49   47.40
  -5 -10  -5  181.48   53.79
  -5 -10  -5  133.19   51.09
   5 -10   5  110.29   18.40
   5  10   5  128.59   42.50
   5  10   5  110.89   43.00
   5  10   5  236.58   50.69
  -6 -11   5   10.30   42.80
  -6 -11   5 -101.89   52.29
  -6 -11   5  -60.79   44.50
   6  11  -5   41.30   40.80
  -5 -11   5   39.40   44.30
   5 -11  -5   29.30   15.90
  -5 -11   5   65.09   36.80
  -5 -11   5    1.10   49.99
  -5  11   5   18.50   29.90
   5  11  -5   26.20   34.40
  -4 -11   5  -12.30   31.00
   4 -11  -5   46.10   15.40
  -4 -11   5  -52.39   40.60
  -4 -11   5   97.39   43.10
  -4  11   5   32.50   29.20
   4  11  -5  -16.10   34.80
  -3 -11   5  437.06   52.89
   3 -11  -5  542.25   43.10
  -3 -11   5  515.15   54.49
   3 -11  -5  546.55   35.10
  -3 -11   5  513.75   63.09
   3  11  -5  489.25   58.89
  -3  11   5  392.46   51.29
  -2 -11   5   85.69   47.40
  -2 -11   5  146.59   33.80
   2 -11  -5  137.09   27.70
   2 -11  -5  123.29   23.50
   2 -11  -5  101.99   22.90
  -2 -11   5  182.78   30.00
   2  11  -5   92.09   37.90
  -2  11   5  159.88   40.60
  -1 -11   5  984.30   57.79
   1 -11  -5 1010.70   56.59
  -1 -11   5 1132.89   59.49
   1 -11  -5 1004.30   56.19
  -1 -11   5 1041.50   77.19
   1 -11  -5 1022.20   58.49
   1  11  -5  968.60   72.09
  -1  11   5 1039.90   71.09
   0 -11   5  124.79   47.00
   0 -11   5  128.79   27.90
   0 -11  -5  102.79   31.30
   0 -11   5  103.99   23.30
   0 -11  -5  173.08   34.20
   0 -11  -5  138.09   31.10
   0  11   5  130.69   56.59
   0  11  -5  138.19   40.60
   1 -11   5 1465.65   92.49
   1 -11   5 1603.54   60.49
  -1 -11  -5 1521.85   79.39
  -1 -11  -5 1583.04   78.99
   1 -11   5 1426.06   67.79
  -1 -11  -5 1646.74   81.39
  -1  11  -5 1428.76   84.79
   1  11   5 1453.05   87.59
   2 -11   5   23.60   13.70
  -2 -11  -5   17.30   38.00
  -2 -11  -5   75.09   33.20
  -2 -11  -5  -10.30   41.20
   2  11   5   -8.20   33.80
  -3 -11  -5 1417.56   91.79
  -3 -11  -5 1257.17   82.09
   3 -11   5 1368.86   44.00
   3  11   5 1237.08   86.09
  -4 -11  -5   65.69   41.80
  -4 -11  -5   90.59   43.90
  -4 -11  -5   41.60   48.60
   4  11   5   28.90   38.60
   4  11   5   52.29   42.30
  -4 -12   5   39.40   34.10
  -4 -12   5   31.00   46.30
   4 -12  -5   36.30   15.40
   4  12  -5   45.30   40.00
  -3 -12   5  276.37   46.70
   3 -12  -5  382.76   31.80
  -3 -12   5  290.57   44.60
  -3 -12   5  382.56   58.19
   3  12  -5  358.66   55.69
  -3  12   5  299.87   41.40
  -2 -12   5  338.37   42.90
   2 -12  -5  395.46   46.30
   2 -12  -5  306.57   39.00
  -2 -12   5  330.37   52.49
  -2 -12   5  280.97   54.69
  -2  12   5  351.86   44.00
   2  12  -5  284.27   51.39
  -1 -12   5   -4.00   38.60
   1 -12  -5    4.70   26.00
   1 -12  -5  -44.50   27.90
  -1 -12   5   18.60   29.30
   1 -12  -5   36.30   29.50
  -1 -12   5  -19.00   26.70
  -1  12   5   -6.90   28.50
   1  12  -5    8.10   33.40
   0 -12   5  314.87   51.29
   0 -12  -5  280.37   38.00
   0 -12   5  352.46   44.40
   0 -12   5  226.08   29.30
   0 -12  -5  278.57   39.50
   0  12  -5  321.67   50.89
   0  12   5  279.77   46.10
  -1 -12  -5  -31.10   32.70
  -1 -12  -5   -8.00   38.20
   1 -12   5   75.69   43.90
   1 -12   5   14.30   16.80
  -1 -12  -5  -24.10   28.00
  -1  12  -5   67.19   37.30
   1  12   5  -42.70   31.40
  -2 -12  -5  348.77   52.69
  -2 -12  -5  300.67   46.20
   2 -12   5  165.08   49.20
   2  12   5  277.37   52.99
  -3 -12  -5  100.69   40.30
   3 -12   5   87.89   44.60
  -3 -12  -5  -11.80   47.20
  -3 -12  -5  179.78   48.80
   3  12   5   27.70   40.50
  -3 -13   5   45.70   67.69
   3  13  -5   -7.10   41.10
  -3  13   5   43.90   32.20
  -2 -13   5  789.72   60.39
  -2 -13   5  868.31   82.99
  -2 -13   5  692.83   74.59
   2  13  -5  651.23   74.09
  -2  13   5  873.51   68.59
  -1 -13   5   57.89   46.70
   1 -13  -5   -6.00   23.10
  -1 -13   5   31.00   24.70
  -1  13   5   56.19   36.10
   1  13  -5   13.10   41.90
   0 -13  -5  102.79   45.00
   0 -13  -5  116.49   31.80
   0 -13   5  165.18   52.39
   0 -13  -5   33.10   41.20
   0 -13   5   72.69   27.70
   0  13  -5  133.79   44.80
   0  13   5   32.20   39.20
   1 -13   5   74.39   48.60
  -1 -13  -5   64.49   33.60
  -1 -13  -5   35.00   51.99
   1  13   5   17.50   36.50
  -1  13  -5   41.10   41.60
  10   0  -6  201.48   55.69
 -10   0   6  130.49   45.40
  10   0  -6  184.78   48.80
   9   0  -6   11.70   34.10
  -9   0   6  -22.10   41.70
   9   0  -6  -25.20   37.30
  -9   0   6   14.20   38.30
   8   0  -6   41.80   34.50
  -8   0   6   19.10   32.50
  -8   0   6   33.00   23.00
   8   0  -6   41.90   35.30
  -8   0   6   59.99   33.40
  -7   0   6   -2.30   28.30
   7   0  -6  -43.70   24.30
  -7   0   6    7.30   19.30
  -7   0   6   11.90   27.30
   7   0  -6   24.10   28.20
  -6   0   6  788.22   53.69
  -6   0   6  770.32   40.10
   6   0  -6  767.42   53.99
   6   0  -6  744.63   54.49
  -6   0   6  713.13   55.69
   5   0  -6  -28.10   21.30
   5   0  -6    0.10   22.40
   5   0  -6  -17.30   22.70
  -5   0   6   25.10   21.00
  -5   0   6   -0.20   22.60
  -5   0   6    8.30   15.30
  -5   0   6  -11.50   21.90
  -4   0   6 2508.35   93.79
   4   0  -6 2603.34   95.99
  -4   0   6 2510.55   95.39
  -4   0   6 2503.15   94.59
  -4   0   6 2500.15   84.79
   4   0  -6 2556.74   93.29
   4   0  -6 2474.35   94.39
   4   0  -6 2432.26   93.19
  -4   0   6 2583.84   93.09
   3   0  -6  -13.80   14.90
   3   0  -6    1.20   20.10
   3   0  -6   -2.30   19.80
  -3   0   6    4.70   17.20
  -3   0   6    4.50   20.00
  -3   0   6  -14.90   18.60
  -3   0   6  -32.80   15.60
   3   0  -6   20.60   16.20
   2   0  -6 2506.95   89.99
  -2   0   6 2459.75   91.29
   2   0  -6 2426.86   93.19
  -2   0   6 2713.63   91.49
   2   0  -6 2448.85   89.39
  -2   0   6 2651.73   90.99
  -2   0   6 2596.84   91.69
   2   0  -6 2431.16   91.79
   1   0  -6   25.20   19.20
  -1   0   6   -7.50   18.80
   1   0  -6  -15.20   18.20
  -1   0   6  -18.90   17.80
   1   0  -6   -4.00   14.90
   1   0  -6   19.40   16.60
  -1   0   6  -14.40   15.10
  -1   0   6  -35.10   15.20
   0   0   6 3071.69  102.89
   0   0  -6 3008.20  101.29
   0   0  -6 2930.81  103.89
   0   0   6 2846.32  102.79
   0   0  -6 3144.59  102.19
   0   0   6 3142.59  103.19
   0   0  -6 2529.45  109.69
   0   0   6 2815.42  102.29
  -1   0  -6    0.30   16.80
   1   0   6   12.90   19.20
   1   0   6    7.30   18.10
  -1   0  -6   15.70   19.30
  -1   0  -6    8.60   16.50
   1   0   6    6.20   16.40
  -1   0  -6  -16.20   18.80
   1   0   6   13.80   17.50
   2   0   6  930.11   51.09
   2   0   6  984.20   52.29
   2   0   6  992.70   53.09
   2   0   6 1037.70   53.29
  -2   0  -6 1033.90   48.20
  -2   0  -6  882.71   48.40
   2   0   6  999.30   52.19
  -2   0  -6  953.70   53.29
  -2   0  -6  922.61   52.59
   3   0   6   -4.60   22.90
  -3   0  -6   12.70   23.20
  -3   0  -6   -2.90   22.50
  -3   0  -6   34.10   20.30
   3   0   6  -14.00   22.30
   3   0   6   -7.10   20.70
  -4   0  -6  483.25   48.20
   4   0   6  437.96   44.70
  -4   0  -6  372.16   43.70
   4   0   6  395.16   44.40
  -4   0  -6  463.95   45.40
   4   0   6  558.74   74.29
  -5   0  -6    7.70   27.50
  -5   0  -6  -16.50   23.50
   5   0   6    1.00   25.00
   5   0   6   -4.70   25.90
   6   0   6   37.50   32.80
   6   0   6    1.40   32.70
  -6   0  -6  -11.90   29.90
  -6   0  -6   -1.20   31.60
   7   0   6   51.49   34.60
   7   0   6  129.89   50.29
  -7   0  -6   10.00   36.00
  -7   0  -6   -7.90   39.90
  -8   0  -6  218.08   49.99
   8   0   6  282.27   54.89
   8   0   6  357.26   54.09
 -10  -1   6  138.89   63.59
  10  -1  -6  370.76   56.39
 -10  -1   6  336.27   54.29
  10  -1  -6  379.26   58.39
  10   1  -6  366.16   57.09
 -10   1   6  144.79   52.69
  10   1  -6  249.28   56.69
  -9  -1   6   55.59   33.00
  -9  -1   6    6.90   36.70
   9  -1  -6   34.30   35.80
   9  -1  -6  140.69   79.39
  -9   1   6  109.59   39.50
   9   1  -6   37.10   39.00
  -9   1   6   62.29   37.40
   9   1  -6   77.99   41.10
   8  -1  -6  412.86   49.80
  -8  -1   6  402.06   51.59
  -8  -1   6  409.96   47.50
  -8  -1   6  408.26   44.60
   8  -1  -6  368.16   47.10
   8   1  -6  455.85   54.89
  -8   1   6  334.77   39.70
   8   1  -6  431.86   52.99
  -8   1   6  441.56   52.49
   7  -1  -6   35.10   27.00
  -7  -1   6   19.20   28.10
  -7  -1   6    1.50   28.10
   7  -1  -6  -33.60   24.80
  -7  -1   6   18.10   22.20
  -7   1   6    3.40   25.10
  -7   1   6   35.00   33.50
  -7   1   6   -4.70   24.70
   7   1  -6   37.50   26.80
   7   1  -6    5.00   26.50
   6  -1  -6  701.43   52.89
  -6  -1   6  714.83   56.79
  -6  -1   6  740.33   44.90
   6  -1  -6  779.82   51.99
  -6  -1   6  757.42   54.99
   6  -1  -6  792.92   54.39
  -6   1   6  732.03   34.00
  -6   1   6  596.74   50.99
   6   1  -6  652.53   53.59
  -6   1   6  726.63   48.60
   6   1  -6  676.53   52.79
  -6   1   6  746.93   50.99
   5  -1  -6  506.75   45.80
  -5  -1   6  414.26   33.70
  -5  -1   6  499.85   47.80
  -5  -1   6  447.96   41.50
   5  -1  -6  475.75   41.40
   5  -1  -6  497.55   42.20
  -5  -1   6  401.06   42.70
  -5   1   6  465.25   25.60
  -5   1   6  449.76   41.00
   5   1  -6  524.65   45.50
  -5   1   6  437.76   39.70
  -5   1   6  410.96   40.50
   5   1  -6  388.96   41.60
   5   1  -6  485.45   44.80
  -4  -1   6  830.12   47.40
  -4  -1   6  783.72   41.20
   4  -1  -6  745.83   44.60
   4  -1  -6  837.72   47.30
  -4  -1   6  776.82   46.60
  -4  -1   6  834.52   51.69
   4  -1  -6  794.92   48.90
   4  -1  -6  755.82   47.00
  -4  -1   6  807.92   50.29
  -4   1   6  967.40   54.19
   4   1  -6  928.51   48.30
   4   1  -6  805.52   49.50
   4   1  -6  771.32   46.30
  -4   1   6  827.12   34.20
  -4   1   6  784.02   46.80
  -4   1   6  853.61   44.20
   4   1  -6  788.82   48.40
  -3  -1   6 2517.95   89.79
   3  -1  -6 2379.86   87.79
  -3  -1   6 2433.76   91.09
  -3  -1   6 2393.36   89.49
   3  -1  -6 2537.65   89.09
   3  -1  -6 2397.36   90.09
  -3  -1   6 2420.86   91.59
   3   1  -6 2509.25   89.39
  -3   1   6 2474.85   90.99
   3   1  -6 2375.36   90.49
  -3   1   6 2328.37   88.39
  -3   1   6 2444.16   87.79
   3   1  -6 2421.56   91.09
   3   1  -6 2303.87   87.59
  -3   1   6 2472.75   88.79
   2  -1  -6  186.58   25.80
  -2  -1   6  219.78   28.00
  -2  -1   6  174.48   24.10
   2  -1  -6  242.48   27.20
   2  -1  -6  191.08   25.60
   2  -1  -6  203.68   26.10
  -2  -1   6  219.08   27.10
  -2  -1   6  215.08   27.10
  -2   1   6  232.88   28.80
  -2   1   6  216.18   24.00
   2   1  -6  208.68   26.40
   2   1  -6  166.88   25.90
  -2   1   6  207.78   23.30
   2   1  -6  208.88   25.10
   2   1  -6  215.78   25.10
  -2   1   6  202.38   25.50
   1  -1  -6 3064.09  108.49
  -1  -1   6 3093.99  106.89
   1  -1  -6 3111.99  105.79
   1  -1  -6 3180.78  106.59
  -1  -1   6 3000.20  107.09
   1  -1  -6 3126.59  108.19
  -1  -1   6 3010.60  106.99
  -1  -1   6 3234.28  106.99
  -1   1   6 2959.00  105.69
   1   1  -6 3091.19  108.39
   1   1  -6 3188.38  105.89
  -1   1   6 2975.70  106.29
   1   1  -6 3261.37  115.09
  -1   1   6 3083.09  105.99
   1   1  -6 3172.08  106.29
   0  -1  -6   32.50   20.20
   0  -1  -6   69.99   20.20
   0  -1  -6   63.49   18.10
   0  -1   6   68.09   20.80
   0  -1   6   68.99   19.60
   0  -1   6   65.79   18.40
   0  -1   6   56.09   19.50
   0  -1  -6   70.19   18.70
   0   1   6   53.59   20.90
   0   1   6  111.29   20.20
   0   1  -6   49.20   22.10
   0   1   6   58.29   17.40
   0   1  -6   39.60   20.70
   0   1  -6   45.50   16.90
   0   1   6   68.19   20.90
   0   1  -6   51.59   16.10
   0   1   6   26.90   18.10
  -1  -1  -6 2224.58   84.59
  -1  -1  -6 2103.59   80.59
   1  -1   6 2340.17   82.19
  -1  -1  -6 2138.29   84.59
   1  -1   6 2208.68   80.99
   1  -1   6 2097.79   81.69
   1  -1   6 2101.89   81.99
  -1  -1  -6 2284.87   82.49
   1   1   6 2144.29   82.59
   1   1   6 2153.38   81.99
   1   1   6 2257.97   83.09
  -1   1  -6 2135.49   81.59
  -1   1  -6 2255.87   80.99
   1   1   6 2105.79   83.19
  -1   1  -6 2109.29   78.49
   1   1   6 2026.40   82.09
  -1   1  -6 2189.88   82.29
  -2  -1  -6  895.41   51.69
   2  -1   6  836.02   49.70
  -2  -1  -6  881.11   51.39
   2  -1   6  859.91   49.00
   2  -1   6  838.32   50.49
  -2  -1  -6  947.91   47.10
   2  -1   6  821.32   48.60
  -2  -1  -6  876.21   47.80
   2   1   6  819.02   48.90
  -2   1  -6  779.52   46.10
   2   1   6  830.42   49.00
   2   1   6  939.31   50.49
   2   1   6  904.01   49.90
  -2   1  -6  839.92   43.20
   2   1   6  817.02   50.09
  -2   1  -6  851.61   47.70
  -2   1  -6  874.71   46.50
   3  -1   6  689.23   47.80
  -3  -1  -6  707.13   49.50
  -3  -1  -6  637.44   49.50
  -3  -1  -6  633.84   43.40
   3  -1   6  653.93   46.80
   3  -1   6  648.64   47.20
  -3   1  -6  701.53   44.40
  -3   1  -6  679.33   43.40
   3   1   6  690.43   49.30
   3   1   6  653.53   47.80
  -3   1  -6  639.34   50.59
   3   1   6  618.64   48.20
  -4  -1  -6 1151.68   63.69
   4  -1   6 1087.69   61.69
   4  -1   6 1220.78   66.09
  -4  -1  -6 1067.39   66.29
   4  -1   6 1084.49   62.69
  -4   1  -6 1229.58   59.39
  -4   1  -6 1227.98   63.19
   4   1   6 1233.48   65.29
   4   1   6 1204.58   65.79
  -4   1  -6 1078.49   58.99
   5  -1   6    5.90   26.30
   5  -1   6   32.10   27.20
  -5  -1  -6   23.90   30.00
  -5  -1  -6   50.79   28.70
  -5   1  -6  -30.10   30.30
   5   1   6   69.59   28.90
   5   1   6   81.79   31.50
  -5   1  -6   -5.90   25.40
  -5   1  -6   64.19   26.30
  -6  -1  -6 1378.76   75.89
   6  -1   6 1286.67   79.79
   6  -1   6 1184.58   76.69
  -6  -1  -6 1280.37   77.49
   6   1   6 1313.97   83.89
   6   1   6 1190.18   82.09
  -6   1  -6 1301.37   69.29
  -6   1  -6 1335.47   72.99
  -7  -1  -6  221.58   47.00
  -7  -1  -6  291.37   44.80
   7  -1   6  217.58   43.30
   7   1   6  305.37   50.29
   7   1   6  348.07   50.49
  -7   1  -6  169.98   42.40
  -7   1  -6  313.57   42.80
  -8  -1  -6  131.69   59.29
  -8  -1  -6  210.48   53.39
   8  -1   6  273.87   50.69
   8  -1   6  275.27   49.60
   8   1   6  204.88   41.80
   8   1   6  290.07   55.49
   8   1   6  299.67   57.09
  -9  -2   6 1580.94   99.99
  -9  -2   6 1594.14   84.09
  -9  -2   6 1702.83   95.59
   9  -2  -6 1538.85   88.19
   9   2  -6 1501.35   91.89
   9   2  -6 1659.93   95.29
  -9   2   6 1581.34   74.69
   8  -2  -6   30.00   33.70
  -8  -2   6  -36.90   40.10
  -8  -2   6   28.00   34.30
   8  -2  -6   -1.00   33.90
  -8  -2   6   21.90   27.80
  -8   2   6   13.70   29.40
  -8   2   6  -11.60   25.10
   8   2  -6   12.30   36.70
   8   2  -6   24.40   37.10
  -7  -2   6 2354.36  106.99
   7  -2  -6 2429.06  100.79
   7  -2  -6 2445.76  103.69
  -7  -2   6 2392.86   96.99
  -7  -2   6 2547.55  107.59
  -7   2   6 2476.55  100.39
   7   2  -6 2435.26  105.29
  -7   2   6 2355.56   93.89
   7   2  -6 2246.48  103.19
  -7   2   6 2443.56   95.29
  -6  -2   6   78.59   32.40
  -6  -2   6   49.00   27.10
   6  -2  -6   59.29   24.90
  -6  -2   6   10.00   20.80
   6  -2  -6   47.80   28.80
   6  -2  -6   15.50   25.10
  -6   2   6   30.60   25.00
   6   2  -6   58.19   28.70
  -6   2   6   73.89   24.50
   6   2  -6   59.49   28.80
  -6   2   6   60.19   23.30
   5  -2  -6 1063.19   55.29
  -5  -2   6  978.90   60.39
   5  -2  -6 1098.19   57.59
  -5  -2   6 1061.79   54.49
  -5  -2   6 1004.30   59.89
   5  -2  -6 1052.59   56.79
  -5   2   6 1139.09   54.59
  -5   2   6 1134.79   50.79
   5   2  -6 1028.50   58.79
  -5   2   6 1101.59   52.79
   5   2  -6 1059.79   59.89
  -4  -2   6    5.30   20.70
  -4  -2   6   -7.50   19.50
  -4  -2   6   31.10   23.00
  -4  -2   6   23.30   23.40
   4  -2  -6    9.10   20.60
   4  -2  -6   55.69   18.90
  -4  -2   6   38.20   22.50
   4  -2  -6   -0.30   20.00
   4   2  -6   23.10   23.00
  -4   2   6   32.10   20.30
  -4   2   6   28.80   20.60
  -4   2   6   15.90    6.30
   4   2  -6   14.10   21.20
  -4   2   6    9.00   16.30
   4   2  -6  -23.00   19.50
   4   2  -6   43.50   21.30
   3  -2  -6   45.40   18.90
  -3  -2   6    3.00   20.70
  -3  -2   6   30.20   21.80
  -3  -2   6    1.00   19.40
   3  -2  -6    7.20   18.30
  -3  -2   6   -1.50   17.20
   3  -2  -6   17.50   21.00
   3  -2  -6   30.40   16.50
  -3  -2   6    8.40   19.30
   3   2  -6   39.10   19.80
   3   2  -6   19.10   22.10
  -3   2   6   -7.50   17.60
   3   2  -6    7.90   20.50
  -3   2   6   12.00   16.10
   3   2  -6    0.60   16.70
  -3   2   6    0.60   16.20
   2  -2  -6  146.29   24.90
   2  -2  -6  150.78   21.80
   2  -2  -6  154.38   21.30
  -2  -2   6  146.99   24.20
   2  -2  -6  143.69   23.50
  -2  -2   6  129.09   23.70
  -2  -2   6  144.49   21.90
  -2  -2   6  143.69   22.40
  -2   2   6  138.19   23.50
   2   2  -6  107.19   20.00
   2   2  -6  159.38   22.20
   2   2  -6  174.08   25.50
  -2   2   6  128.79   22.90
  -2   2   6  125.29   20.80
  -2   2   6  136.29   15.50
  -2   2   6  139.69   21.30
   1  -2  -6  175.48   23.20
  -1  -2   6  150.58   22.90
  -1  -2   6  185.38   23.30
   1  -2  -6  160.68   25.40
   1  -2  -6  231.88   27.00
  -1  -2   6  160.58   23.70
  -1  -2   6  177.18   25.30
   1  -2  -6  155.38   23.40
  -1   2   6  149.69   23.40
  -1   2   6  196.38   22.70
  -1   2   6  176.18   24.20
   1   2  -6  173.48   21.80
   1   2  -6  172.18   24.60
   1   2  -6  216.68   26.30
  -1   2   6  169.68   22.80
   1   2  -6  136.09   22.80
  -1   2   6  200.78   22.20
   0  -2   6   47.00   18.40
   0  -2  -6   62.89   22.70
   0  -2  -6   43.60   18.60
   0  -2  -6   61.59   18.80
   0  -2   6   58.59   17.90
   0  -2  -6   77.59   21.20
   0  -2   6   53.29   19.90
   0  -2   6   68.49   20.90
   0   2  -6  106.39   18.70
   0   2   6   80.29   21.40
   0   2  -6   79.99   22.90
   0   2  -6   44.00   16.10
   0   2   6   67.49   17.20
   0   2   6   96.79   20.30
   0   2   6   89.19   21.70
   0   2   6   71.59   19.20
  -1  -2  -6  391.56   33.40
   1  -2   6  368.56   34.00
  -1  -2  -6  398.06   32.90
  -1  -2  -6  345.27   36.00
   1  -2   6  382.16   34.20
   1  -2   6  398.06   32.90
  -1  -2  -6  366.16   39.50
   1  -2   6  310.97   30.20
   1   2   6  378.46   38.00
   1   2   6  370.56   32.60
   1   2   6  410.96   33.50
  -1   2  -6  404.36   29.60
  -1   2  -6  363.86   33.20
  -1   2  -6  345.57   29.40
   1   2   6  381.76   34.10
  -1   2  -6  325.87   31.00
   1   2   6  396.26   37.90
   2  -2   6  -16.00   17.60
  -2  -2  -6   41.90   20.00
  -2  -2  -6   10.90   21.20
   2  -2   6    5.80   20.20
   2  -2   6   31.90   20.40
  -2  -2  -6   15.10   24.00
   2  -2   6   33.70   19.90
  -2  -2  -6   10.20   19.70
  -2   2  -6   -1.30   15.70
   2   2   6   19.20   15.90
   2   2   6  -29.80   20.10
  -2   2  -6   13.60   17.80
   2   2   6   26.20   23.40
  -2   2  -6   35.10   20.80
   2   2   6   28.60   23.50
   2   2   6   -3.80   21.40
   3  -2   6 1617.84   70.19
   3  -2   6 1565.34   70.49
  -3  -2  -6 1500.45   75.39
   3  -2   6 1478.45   68.59
  -3  -2  -6 1646.04   73.69
  -3   2  -6 1348.77   88.89
   3   2   6 1463.25   71.99
  -3   2  -6 1652.63   63.69
   3   2   6 1513.45   72.49
  -3   2  -6 1602.44   65.79
  -4  -2  -6   87.79   30.20
  -4  -2  -6   42.40   29.40
   4  -2   6   36.40   29.00
   4  -2   6   66.39   26.50
   4  -2   6   63.79   24.60
   4   2   6   39.10   25.80
  -4   2  -6   45.80   22.00
  -4   2  -6   38.30   20.80
  -4   2  -6   10.80   21.70
   4   2   6   52.89   27.40
   5  -2   6 1476.75   74.09
  -5  -2  -6 1629.44   80.59
  -5  -2  -6 1492.55   78.39
   5  -2   6 1290.57   83.49
   5  -2   6 1516.15   77.69
  -5   2  -6 1616.44   68.39
   5   2   6 1458.65   79.89
  -5   2  -6 1454.55   72.69
   5   2   6 1486.85   79.09
  -5   2  -6 1525.95   68.09
   6  -2   6  -21.10   30.30
  -6  -2  -6  -50.79   38.40
  -6  -2  -6  -11.70   29.50
   6  -2   6    0.20   30.50
   6   2   6   55.59   39.00
  -6   2  -6   29.70   29.10
   6   2   6    7.80   37.70
  -6   2  -6   11.90   25.50
  -7  -2  -6  983.20   76.99
  -7  -2  -6  837.52   76.59
   7  -2   6  815.72   64.39
   7   2   6  909.01   74.39
   7   2   6  708.03   74.09
  -7   2  -6  898.01   54.79
  -9  -3   6   91.39   43.10
  -9  -3   6   75.09   39.50
  -9  -3   6   26.30   47.00
   9  -3  -6   41.60   34.60
   9   3  -6   90.49   41.80
   9   3  -6  137.19   43.80
  -8  -3   6  936.21   65.89
  -8  -3   6  878.91   77.49
   8  -3  -6  836.42   65.39
  -8  -3   6  940.11   72.09
   8  -3  -6  915.21   67.29
   8   3  -6  976.90   75.69
   8   3  -6  980.40   74.09
  -8   3   6  943.91   49.30
   7  -3  -6  -30.70   24.20
   7  -3  -6    6.90   35.00
   7  -3  -6    9.20   25.80
  -7  -3   6  -31.20   25.10
  -7  -3   6    0.20   28.30
  -7  -3   6    2.00   34.50
  -7   3   6   26.10   21.30
  -7   3   6    3.90   28.60
  -7   3   6   22.20   23.30
   7   3  -6   50.69   30.60
   7   3  -6   37.00   30.40
  -6  -3   6 1217.98   72.29
  -6  -3   6 1308.17   66.99
  -6  -3   6 1212.58   71.39
   6  -3  -6 1320.47   65.49
   6  -3  -6 1302.97   67.49
   6  -3  -6 1336.97   67.89
  -6   3   6 1298.47   57.49
  -6   3   6 1272.87   57.59
   6   3  -6 1280.67   70.89
   6   3  -6 1237.68   70.69
   5  -3  -6  556.04   43.30
  -5  -3   6  478.05   48.00
  -5  -3   6  590.64   50.29
  -5  -3   6  548.45   42.70
   5  -3  -6  565.54   43.20
   5  -3  -6  462.15   41.70
  -5   3   6  574.24   26.10
  -5   3   6  522.15   37.50
  -5   3   6  547.95   36.40
  -5   3   6  606.84   39.30
   5   3  -6  564.94   48.50
   5   3  -6  563.34   48.00
   4  -3  -6 1102.09   55.39
  -4  -3   6 1134.09   56.29
   4  -3  -6 1176.98   55.29
  -4  -3   6 1116.19   59.59
  -4  -3   6 1113.79   57.09
  -4  -3   6 1130.49   59.89
   4   3  -6 1032.70   57.69
  -4   3   6 1078.29   51.49
   4   3  -6 1054.09   55.19
  -4   3   6 1149.69   52.39
  -4   3   6 1115.19   49.99
   4   3  -6 1092.69   58.99
   3  -3  -6  769.02   45.10
  -3  -3   6  845.92   49.30
   3  -3  -6  871.91   43.10
   3  -3  -6  739.73   46.30
   3  -3  -6  860.81   43.10
  -3  -3   6  739.53   45.90
  -3  -3   6  795.92   46.90
  -3  -3   6  815.02   49.20
  -3  -3   6  790.72   46.40
  -3   3   6  729.43   40.40
   3   3  -6  766.22   44.00
   3   3  -6  794.92   43.70
  -3   3   6  816.72   25.80
  -3   3   6  801.72   44.40
   3   3  -6  741.93   48.10
  -3   3   6  800.32   42.90
  -3   3   6  770.82   25.50
   3   3  -6  828.62   48.20
  -3   3   6  915.61   41.90
   2  -3  -6  136.69   23.00
   2  -3  -6  135.19   20.40
   2  -3  -6  126.79   23.70
  -2  -3   6  146.59   22.60
  -2  -3   6   99.49   23.50
   2  -3  -6  140.19   22.60
  -2  -3   6  120.09   22.00
  -2  -3   6  108.29   24.40
  -2   3   6  151.48   21.40
   2   3  -6  123.29   21.10
  -2   3   6  132.49   20.90
   2   3  -6  143.69   24.90
  -2   3   6  108.89   21.00
   2   3  -6  157.58   21.30
  -2   3   6  123.79   22.60
   2   3  -6  129.99   22.90
  -2   3   6  131.29   14.10
   1  -3  -6 1218.48   53.29
   1  -3  -6 1226.28   56.89
  -1  -3   6 1236.18   54.29
   1  -3  -6 1224.48   55.79
  -1  -3   6 1225.68   54.49
  -1  -3   6 1233.68   55.79
   1  -3  -6 1266.27   54.29
  -1  -3   6 1162.18   54.59
  -1   3   6 1195.08   53.69
   1   3  -6 1133.69   52.79
   1   3  -6 1269.97   52.89
   1   3  -6 1067.99   58.89
  -1   3   6 1154.58   52.09
  -1   3   6 1244.48   56.39
  -1   3   6 1283.57   49.30
   1   3  -6 1238.48   50.89
  -1   3   6 1183.68   52.89
   0  -3   6  438.26   33.70
   0  -3  -6  410.76   38.00
   0  -3  -6  453.05   38.10
   0  -3   6  479.75   35.50
   0  -3  -6  465.65   33.90
   0  -3  -6  392.86   33.70
   0  -3   6  440.66   36.00
   0  -3   6  441.16   32.90
   0   3  -6  499.75   32.20
   0   3  -6  458.75   33.40
   0   3   6  426.46   33.70
   0   3   6  441.66   35.90
   0   3   6  377.76   30.30
   0   3  -6  505.95   31.70
   0   3   6  449.66   36.10
   0   3  -6  438.76   32.30
   1  -3   6 2042.80   76.79
   1  -3   6 1996.90   79.49
   1  -3   6 1889.81   75.69
   1  -3   6 1872.71   75.39
  -1  -3  -6 1848.02   76.29
  -1  -3  -6 1947.71   81.09
  -1  -3  -6 2122.79   79.69
  -1  -3  -6 2073.19   81.59
   1   3   6 1928.71   77.89
   1   3   6 1989.90   77.89
   1   3   6 2012.40   77.69
   1   3   6 2061.19   78.99
  -1   3  -6 1888.41   73.59
  -1   3  -6 1949.30   72.89
  -1   3  -6 1954.80   70.79
   1   3   6 2008.00   79.69
   2  -3   6 1071.09   51.79
   2  -3   6 1057.59   54.09
  -2  -3  -6 1127.49   60.09
   2  -3   6 1103.49   53.89
  -2  -3  -6 1087.89   57.09
  -2  -3  -6 1081.59   60.49
   2   3   6 1151.78   63.99
   2   3   6 1061.39   57.39
   2   3   6 1058.69   58.19
  -2   3  -6 1081.19   50.19
   2   3   6 1089.09   58.59
  -2   3  -6 1164.08   47.10
   3  -3   6  507.45   40.50
  -3  -3  -6  521.15   48.20
   3  -3   6  496.85   40.40
   3  -3   6  499.05   40.90
  -3  -3  -6  479.95   47.90
  -3   3  -6  573.24   36.40
   3   3   6  525.55   46.10
  -3   3  -6  612.04   38.20
  -3   3  -6  488.45   36.80
   3   3   6  502.65   46.70
   4  -3   6 1887.91   80.79
  -4  -3  -6 1827.92   87.59
   4  -3   6 1845.42   81.69
  -4  -3  -6 1940.21   88.59
   4  -3   6 1943.51   82.09
  -4   3  -6 1901.11   74.89
   4   3   6 1792.72   84.99
   4   3   6 1840.62   86.19
   5  -3   6   55.39   26.50
  -5  -3  -6   48.20   30.00
  -5  -3  -6   26.80   34.20
   5  -3   6   65.99   26.90
   5  -3   6   45.80   38.30
  -5   3  -6   80.29   28.30
  -5   3  -6   24.60   23.50
   5   3   6   22.60   32.00
  -5   3  -6   59.39   20.10
   5   3   6  180.18   36.30
  -6  -3  -6  835.02   71.29
  -6  -3  -6 1000.90   76.49
   6  -3   6  935.41   62.39
   6  -3   6  998.70   66.29
  -6   3  -6  741.83   92.39
   6   3   6 1049.70   79.19
   6   3   6  977.40   73.59
   7  -3   6  150.28   38.60
  -7  -3  -6  136.39   46.20
   7  -3   6  173.08   44.60
  -7  -3  -6  105.39   51.99
   7   3   6  194.98   45.00
   7   3   6  123.69   33.70
   7   3   6  124.99   43.70
   9  -4  -6   99.99   37.00
  -9  -4   6  193.58   53.89
  -9  -4   6   54.59   47.70
  -9  -4   6  103.89   50.79
   9   4  -6  129.69   45.20
   9   4  -6   30.20   43.20
  -8  -4   6   67.99   43.50
  -8  -4   6  -46.90   31.20
   8  -4  -6   41.60   31.60
   8   4  -6   65.19   40.60
  -7  -4   6    6.40   30.80
  -7  -4   6   -0.90   35.80
   7  -4  -6   32.00   27.00
   7  -4  -6   18.80   24.70
  -7  -4   6   47.20   31.90
   7   4  -6   69.39   30.80
  -7   4   6    0.40   21.10
  -7   4   6   52.59   21.70
   7   4  -6   60.29   35.40
  -6  -4   6  968.80   63.49
  -6  -4   6  975.70   65.49
   6  -4  -6  989.10   55.09
   6  -4  -6  808.32   52.49
  -6  -4   6  864.51   59.79
   6  -4  -6  889.71   58.79
  -6   4   6  898.01   41.00
  -6   4   6  949.90   50.29
   6   4  -6  877.81   61.79
  -6   4   6  759.62   44.40
   6   4  -6  921.11   62.39
  -5  -4   6   53.39   29.40
   5  -4  -6   75.39   22.70
   5  -4  -6   67.89   23.90
  -5  -4   6   53.69   27.80
   5  -4  -6  108.69   25.40
  -5  -4   6   95.59   28.20
  -5   4   6   57.29   17.20
   5   4  -6   57.19   28.40
  -5   4   6   81.39   16.40
   5   4  -6   61.59   26.60
  -5   4   6   71.89   14.30
  -5   4   6   43.80   18.60
   5   4  -6   84.99   22.30
  -4  -4   6 2117.79   88.19
  -4  -4   6 2238.48   90.49
  -4  -4   6 2023.60   88.69
   4  -4  -6 2190.48   86.89
   4  -4  -6 2193.98   84.59
  -4  -4   6 2190.48   91.09
   4  -4  -6 2200.88   82.99
   4   4  -6 2138.79   88.99
  -4   4   6 2217.78   76.99
  -4   4   6 2163.88   80.69
   4   4  -6 2311.47   87.49
   4   4  -6 2249.07   85.19
   4   4  -6 2147.89   88.29
  -4   4   6 2078.79   89.99
  -3  -4   6   19.90   22.40
   3  -4  -6   41.10   17.70
   3  -4  -6   28.40   19.40
   3  -4  -6   51.89   22.30
  -3  -4   6   45.10   23.70
  -3  -4   6   50.89   23.80
   3  -4  -6   28.00   20.00
  -3  -4   6   41.10   22.80
  -3   4   6   30.30   15.90
   3   4  -6   63.09   22.80
  -3   4   6   29.20   17.70
   3   4  -6    1.50   18.00
   3   4  -6   52.69   22.40
  -3   4   6   40.50   18.20
  -3   4   6   36.60   19.40
  -3   4   6   11.80   15.20
   2  -4  -6 3521.95  118.39
  -2  -4   6 3402.96  120.39
   2  -4  -6 3616.04  118.79
   2  -4  -6 3409.56  120.49
  -2  -4   6 3815.32  121.89
   2  -4  -6 3497.85  119.89
  -2  -4   6 3452.45  121.19
  -2  -4   6 3309.07  120.69
   2   4  -6 3487.55  119.39
  -2   4   6 3444.96  115.69
   2   4  -6 3487.35  118.89
   2   4  -6 3465.95  116.49
  -2   4   6 3576.84  108.09
   2   4  -6 3423.76  119.89
  -2   4   6 3545.35  117.49
  -2   4   6 3597.24  115.69
  -2   4   6 3456.25  117.39
  -1  -4   6   -9.70   16.70
   1  -4  -6  -30.50   17.00
   1  -4  -6   23.40   17.90
  -1  -4   6  -17.30   15.10
  -1  -4   6   22.70   17.70
  -1  -4   6   11.50   19.00
   1  -4  -6   28.90   21.80
   1  -4  -6   12.30   17.90
  -1   4   6  -30.80   14.00
   1   4  -6   -7.40   15.50
   1   4  -6   16.20   14.60
  -1   4   6    1.10   18.60
   1   4  -6   -3.80   17.40
  -1   4   6   -5.30   15.70
  -1   4   6    3.60   16.70
  -1   4   6    8.00   12.80
   1   4  -6   25.60   15.60
   0  -4  -6 1180.28   54.29
   0  -4  -6 1098.49   55.19
   0  -4  -6 1005.20   55.99
   0  -4   6 1106.49   53.09
   0  -4   6 1110.59   50.69
   0  -4  -6 1078.09   51.89
   0  -4   6 1119.29   50.79
   0  -4   6 1109.89   51.79
   0   4   6 1050.59   50.69
   0   4   6 1079.09   52.49
   0   4  -6 1033.70   47.30
   0   4  -6 1099.29   49.90
   0   4  -6 1057.09   47.50
   0   4   6 1128.29   53.29
   0   4   6 1063.19   52.79
   0   4  -6 1140.89   47.00
   0   4   6 1127.19   50.49
   1  -4   6  137.69   22.50
  -1  -4  -6   74.09   25.40
   1  -4   6   93.29   21.30
  -1  -4  -6  137.19   27.70
   1  -4   6  142.19   24.80
   1  -4   6  115.99   21.90
  -1  -4  -6  112.09   26.30
  -1   4  -6  119.59   18.40
   1   4   6  130.69   26.70
  -1   4  -6  152.38   17.30
   1   4   6  151.08   27.20
   1   4   6  167.18   24.80
   1   4   6  150.78   24.50
  -1   4  -6  156.18   21.10
   2  -4   6  834.42   48.40
  -2  -4  -6  932.41   57.09
   2  -4   6  943.41   47.60
  -2  -4  -6  866.41   55.69
   2  -4   6  816.02   46.20
   2   4   6  886.61   53.59
  -2   4  -6  875.51   44.40
   2   4   6  824.02   52.59
   2   4   6  943.41   61.79
  -3  -4  -6   33.30   27.00
  -3  -4  -6   52.29   29.40
   3  -4   6   43.50   21.10
   3  -4   6   23.10   21.70
   3  -4   6   31.80   22.20
   3   4   6   43.30   24.90
  -3   4  -6   33.40   17.90
  -3   4  -6   38.70   11.50
   3   4   6   32.80   24.80
   4  -4   6  450.45   42.10
  -4  -4  -6  469.15   50.49
   4  -4   6  476.85   43.50
  -4  -4  -6  398.26   49.99
   4  -4   6  436.76   46.40
   4   4   6  419.56   47.50
  -4   4  -6  332.27   34.00
   4   4   6  429.16   47.70
   5  -4   6   34.40   26.60
   5  -4   6   28.70   24.90
  -5  -4  -6   18.90   36.50
  -5  -4  -6   93.49   35.00
   5   4   6   -9.20   34.30
  -5   4  -6   41.20   23.20
   5   4   6   38.30   30.80
   5   4   6  124.99   36.30
   6  -4   6   58.59   28.00
   6  -4   6  -58.49   30.10
  -6  -4  -6  -34.30   37.80
   6   4   6   -9.60   38.90
   6   4   6   11.30   33.10
   6   4   6   54.29   50.19
  -7  -4  -6  130.79   49.80
   7  -4   6   67.09   41.10
   7  -4   6   79.29   33.20
   7   4   6   68.79   43.00
   7   4   6    4.20   33.30
   7   4   6   73.29   43.20
  -9  -5   6   17.80   48.20
   9  -5  -6   52.19   33.80
  -9  -5   6   76.39   45.40
  -9  -5   6  130.99   49.90
   9   5  -6   15.20   46.80
   9   5  -6   57.89   46.00
   8  -5  -6  367.46   43.40
  -8  -5   6  351.06   55.59
  -8  -5   6  314.57   53.09
   8  -5  -6  377.46   50.89
  -8  -5   6  374.36   54.29
   8   5  -6  353.76   53.59
   8   5  -6  329.27   53.29
   7  -5  -6   30.00   27.20
  -7  -5   6   36.40   33.70
  -7  -5   6  -15.20   38.00
   7  -5  -6   26.70   26.10
  -7  -5   6   11.70   36.20
   7   5  -6   78.69   42.40
  -7   5   6   30.50   22.90
   7   5  -6   41.10   36.20
  -6  -5   6  392.16   46.70
   6  -5  -6  469.55   40.50
  -6  -5   6  359.06   46.80
  -6  -5   6  397.56   45.10
   6  -5  -6  415.26   44.50
   6  -5  -6  419.76   45.40
   6   5  -6  461.95   51.79
   6   5  -6  425.56   41.80
  -6   5   6  406.16   36.10
   6   5  -6  428.66   50.69
  -5  -5   6  811.42   56.59
   5  -5  -6  802.72   47.60
   5  -5  -6  766.32   47.50
  -5  -5   6  830.72   57.69
  -5  -5   6  793.32   59.09
   5   5  -6  789.32   51.29
   5   5  -6  763.12   54.09
  -5   5   6  682.53   39.60
  -5   5   6  822.62   43.20
   5   5  -6  840.12   56.19
  -4  -5   6  451.85   46.00
  -4  -5   6  454.55   46.00
   4  -5  -6  409.06   40.00
   4  -5  -6  477.65   35.60
   4  -5  -6  530.55   39.00
  -4  -5   6  478.85   46.30
  -4  -5   6  411.56   46.80
   4   5  -6  407.36   42.10
   4   5  -6  348.37   40.40
   4   5  -6  463.05   43.60
  -4   5   6  445.66   23.70
  -4   5   6  449.95   32.70
   4   5  -6  407.36   39.50
  -4   5   6  434.36   33.40
   3  -5  -6 1556.74   65.49
  -3  -5   6 1504.55   73.29
  -3  -5   6 1491.55   70.79
  -3  -5   6 1487.85   70.79
   3  -5  -6 1561.74   65.89
   3  -5  -6 1529.15   68.19
  -3  -5   6 1631.84   71.09
   3   5  -6 1557.24   70.49
  -3   5   6 1648.73   62.99
   3   5  -6 1594.14   68.79
   3   5  -6 1581.94   66.79
   3   5  -6 1551.04   67.99
  -3   5   6 1583.54   57.19
  -3   5   6 1598.94   64.39
  -2  -5   6   70.19   22.60
   2  -5  -6   92.39   19.60
  -2  -5   6   50.59   22.60
  -2  -5   6   85.39   22.50
   2  -5  -6   46.70   21.30
   2  -5  -6   42.00   19.70
   2  -5  -6   75.29   21.60
   2   5  -6   49.99   21.10
  -2   5   6   17.10   22.50
  -2   5   6   57.59   10.70
  -2   5   6   76.99   17.60
   2   5  -6   52.69   16.70
   2   5  -6   70.89   24.30
  -2   5   6   64.49   17.60
  -1  -5   6 2473.45   92.89
  -1  -5   6 2589.94   93.29
  -1  -5   6 2399.86   93.09
   1  -5  -6 2557.34   95.99
   1  -5  -6 2481.95   94.09
   1  -5  -6 2910.41  102.19
   1  -5  -6 2635.24   93.79
  -1  -5   6 2567.54   93.79
   1   5  -6 2573.74   86.89
  -1   5   6 2551.44   86.49
  -1   5   6 2554.04   90.99
   1   5  -6 2557.44   90.79
  -1   5   6 2517.05   89.29
  -1   5   6 2564.64   97.29
   1   5  -6 2459.35   88.59
  -1   5   6 2525.45   89.19
   0  -5  -6  191.58   25.90
   0  -5  -6  193.78   28.00
   0  -5   6  188.98   23.40
   0  -5   6  185.08   24.30
   0  -5  -6  191.38   29.20
   0  -5   6  161.28   23.00
   0  -5   6  235.28   27.60
   0   5  -6  192.68   22.60
   0   5   6  215.08   25.10
   0   5  -6  202.48   22.80
   0   5   6  202.88   26.00
   0   5  -6  203.28   21.40
   0   5   6  235.48   29.90
   0   5   6  181.88   24.50
  -1  -5  -6 2710.73  107.79
   1  -5   6 2766.32  100.19
   1  -5   6 2877.61  100.99
   1  -5   6 2707.93  104.79
  -1  -5  -6 2836.52  105.99
   1  -5   6 2764.62  100.49
  -1  -5  -6 2686.13  106.19
   1   5   6 2768.82  101.59
  -1   5  -6 3097.59  103.09
  -1   5  -6 2862.11   96.99
   1   5   6 2924.21  104.09
  -1   5  -6 2906.81   88.59
   1   5   6 2759.62  102.19
   1   5   6 2870.71  104.79
  -2  -5  -6  331.57   37.30
   2  -5   6  367.36   35.50
   2  -5   6  327.57   31.80
  -2  -5  -6  346.57   40.10
   2  -5   6  325.77   33.10
  -2   5  -6  337.87   28.30
   2   5   6  292.97   34.80
   2   5   6  345.77   41.90
   2   5   6  307.47   38.90
   3  -5   6  562.54   41.00
  -3  -5  -6  503.75   51.69
   3  -5   6  530.15   40.50
  -3  -5  -6  591.24   52.39
   3  -5   6  520.15   38.40
   3   5   6  503.35   49.50
   3   5   6  600.64   49.90
  -3   5  -6  576.54   34.40
   3   5   6  545.75   48.70
   4  -5   6  762.22   51.39
   4  -5   6  653.53   46.10
   4  -5   6  752.72   46.90
  -4  -5  -6  747.73   63.19
  -4  -5  -6  748.13   60.29
   4   5   6  734.03   58.99
   4   5   6  784.02   58.79
  -4   5  -6  725.83   41.30
   4   5   6  710.33   58.89
   5  -5   6   31.50   26.10
   5  -5   6  -41.10   20.40
  -5  -5  -6  -17.60   31.50
  -5  -5  -6   16.20   41.20
   5   5   6  -14.60   39.10
   5   5   6  -21.50   31.20
   5   5   6  -12.10   32.00
  -6  -5  -6  533.45   62.59
  -6  -5  -6  401.06   54.79
   6  -5   6  505.35   46.70
   6   5   6  464.05   59.89
   6   5   6  516.25   52.69
   6   5   6  399.56   53.79
  -7  -5  -6  307.17   53.79
   7  -5   6  222.68   41.10
  -7  -5  -6  225.98   52.09
   7  -5   6  357.26   49.99
   7   5   6  268.17   46.80
   7   5   6  169.28   49.80
   7   5   6  194.28   50.59
  -9  -6   6 1464.05  101.19
  -9  -6   6 1526.85  109.59
   9  -6  -6 1340.07   79.19
  -9  -6   6 1242.18   94.59
   9   6  -6 1454.95  103.29
   9   6  -6 1456.35  101.09
   8  -6  -6  -80.99   28.80
   8  -6  -6   26.50   29.20
  -8  -6   6  -64.69   37.90
  -8  -6   6  -46.30   41.90
   8   6  -6  -26.50   38.90
   8   6  -6  -54.09   43.60
  -7  -6   6 1610.84   92.69
   7  -6  -6 1552.74   79.19
  -7  -6   6 1571.14   94.09
  -7  -6   6 1596.34   96.39
   7  -6  -6 1721.23   77.99
   7   6  -6 1692.43   92.09
   7   6  -6 1630.14   89.89
   7   6  -6 1633.54   75.19
  -6  -6   6   16.40   33.80
   6  -6  -6   32.60   24.60
  -6  -6   6   45.00   36.20
  -6  -6   6   30.10   32.00
   6  -6  -6   68.09   22.50
   6   6  -6   -5.10   26.60
   6   6  -6  -16.00   30.50
   6   6  -6   -8.40   27.70
  -5  -6   6  716.43   58.09
  -5  -6   6  752.02   58.19
   5  -6  -6  662.63   44.90
  -5  -6   6  676.13   56.19
   5  -6  -6  821.82   48.50
   5   6  -6  682.23   50.39
   5   6  -6  743.23   57.19
   5   6  -6  662.13   53.29
  -5   6   6  709.23   40.60
   4  -6  -6  147.89   24.80
   4  -6  -6  150.28   27.70
  -4  -6   6  197.58   36.20
  -4  -6   6  151.28   32.20
   4  -6  -6  184.08   26.10
  -4  -6   6  139.39   32.40
  -4  -6   6  115.79   33.00
  -4   6   6  110.29   19.00
  -4   6   6  172.68   24.00
   4   6  -6  127.99   27.80
   4   6  -6  154.18   31.30
   4   6  -6  130.29   28.60
   4   6  -6  158.98   31.10
  -3  -6   6   -6.10   25.40
   3  -6  -6    0.60   20.00
   3  -6  -6   23.50   19.30
   3  -6  -6   21.80   17.80
  -3  -6   6    2.00   21.90
  -3  -6   6   32.40   23.40
  -3  -6   6   56.49   27.80
   3   6  -6    4.40   20.80
  -3   6   6   14.40   20.30
  -3   6   6   21.30   15.40
   3   6  -6   41.00   20.80
   3   6  -6   -3.70   23.70
   2  -6  -6   70.19   22.30
  -2  -6   6   11.30   22.60
   2  -6  -6   73.69   21.90
   2  -6  -6   85.79   21.00
  -2  -6   6   52.49   23.20
  -2  -6   6   85.19   29.00
  -2  -6   6   79.79   23.80
  -2   6   6   60.19   16.70
  -2   6   6   65.99   18.50
   2   6  -6   71.29   19.10
  -2   6   6   81.29   11.10
   2   6  -6   27.40   18.40
  -2   6   6   64.99   13.90
   2   6  -6   55.19   18.20
  -2   6   6  134.69   26.80
   2   6  -6  110.29   29.30
   1  -6  -6   76.89   24.90
   1  -6  -6   55.79   22.00
  -1  -6   6   50.99   20.80
   1  -6  -6   51.39   21.50
  -1  -6   6   81.39   22.10
  -1  -6   6   46.40   20.60
   1   6  -6   50.59   14.30
  -1   6   6   63.39   26.30
   1   6  -6   29.40   20.70
  -1   6   6   52.29   15.40
   1   6  -6   48.50   18.40
   1   6  -6   58.99   27.00
  -1   6   6   70.49   18.60
  -1   6   6   30.40   17.30
   0  -6   6  181.28   27.40
   0  -6  -6  106.59   26.70
   0  -6  -6  183.68   28.30
   0  -6  -6  160.78   28.30
   0  -6   6  182.78   26.20
   0  -6   6  164.68   23.70
   0   6  -6  168.28   21.40
   0   6   6  127.29   31.60
   0   6  -6  141.09   14.90
   0   6   6  160.38   24.10
   0   6   6  134.99   23.20
   0   6   6  194.28   25.10
   1  -6   6  251.27   31.40
  -1  -6  -6  262.27   34.90
   1  -6   6  230.88   28.60
  -1  -6  -6  262.47   35.10
   1  -6   6  239.48   27.20
  -1  -6  -6  252.97   33.90
   1   6   6  304.67   35.40
   1   6   6  239.18   30.70
   1   6   6  331.27   40.50
  -1   6  -6  234.88   24.60
   1   6   6  204.88   35.90
   1   6   6  316.67   38.70
   2  -6   6  198.68   25.40
   2  -6   6  168.28   25.70
  -2  -6  -6  161.68   32.50
   2  -6   6  197.58   26.20
  -2  -6  -6  157.58   33.70
   2   6   6  219.08   38.10
   2   6   6  144.59   29.20
   2   6   6  142.89   33.60
   2   6   6  225.38   32.20
   3  -6   6  878.21   48.90
   3  -6   6  937.11   49.20
  -3  -6  -6  853.41   65.49
   3  -6   6  960.60   51.69
  -3  -6  -6  861.21   62.99
   3   6   6  867.01   58.79
   3   6   6  927.31   61.29
   3   6   6  935.01   64.49
  -4  -6  -6  121.69   38.10
   4  -6   6   69.79   22.00
   4  -6   6   82.19   23.40
  -4  -6  -6  109.29   36.40
   4   6   6   44.30   39.60
   4   6   6   61.79   34.30
   4   6   6   78.49   31.30
  -4   6  -6   52.99   17.70
   5  -6   6 1253.57   64.39
  -5  -6  -6 1190.08   84.89
   5  -6   6 1199.98   66.39
  -5  -6  -6 1185.48   84.59
   5   6   6 1196.68   78.89
   5   6   6 1374.96   87.79
   6  -6   6   17.70   28.50
  -6  -6  -6   85.69   40.90
  -6  -6  -6   12.40   42.80
   6  -6   6  -39.50   28.60
   6   6   6   59.09   48.00
   6   6   6  -11.10   41.00
   6   6   6  -21.50   29.90
   7  -6   6  857.41   63.89
   7  -6   6  834.92   92.69
  -7  -6  -6  831.92   83.39
  -7  -6  -6  873.11   96.89
   7   6   6  793.22   72.09
   7   6   6  667.43   73.39
   7   6   6  962.70   85.89
   8  -7  -6  801.42   57.59
   8  -7  -6  672.93   68.39
  -8  -7   6  665.43   78.79
  -8  -7   6  735.03   81.79
  -8  -7   6  953.00   81.99
   8   7  -6  815.22   72.29
   8   7  -6  876.91   61.89
  -7  -7   6   29.50   44.30
  -7  -7   6   54.89   39.70
  -7  -7   6   63.29   42.80
   7  -7  -6   48.20   26.10
   7  -7  -6   25.90   28.40
   7   7  -6  -10.50   35.30
   7   7  -6   45.20   29.30
   6  -7  -6  975.00   56.49
  -6  -7   6  937.71   76.89
  -6  -7   6 1071.09   76.49
   6  -7  -6 1006.40   56.39
  -6  -7   6  959.90   78.19
   6   7  -6  991.30   65.99
   6   7  -6 1076.39   69.89
   6   7  -6  954.70   61.79
  -5  -7   6   68.39   35.90
   5  -7  -6  100.59   23.80
   5  -7  -6   95.49   22.30
  -5  -7   6   82.59   33.20
  -5  -7   6   91.39   34.70
  -5   7   6   65.29   15.90
  -5   7   6  133.69   22.50
   5   7  -6   66.39   30.40
   5   7  -6  114.69   31.40
   5   7  -6   41.50   27.00
  -4  -7   6  577.14   51.19
  -4  -7   6  495.85   50.09
  -4  -7   6  630.24   55.89
   4  -7  -6  575.74   41.00
   4  -7  -6  453.05   38.30
   4  -7  -6  559.44   42.20
   4   7  -6  478.25   49.10
  -4   7   6  612.94   33.30
   4   7  -6  529.65   45.40
   4   7  -6  531.75   47.70
   4   7  -6  455.35   49.20
  -4   7   6  611.24   40.20
   3  -7  -6  547.85   41.50
  -3  -7   6  514.45   52.59
   3  -7  -6  493.05   43.80
  -3  -7   6  582.94   52.49
   3  -7  -6  504.15   38.80
  -3  -7   6  619.04   48.50
  -3  -7   6  443.06   48.70
   3   7  -6  561.44   41.90
  -3   7   6  578.04   35.10
   3   7  -6  520.65   48.90
   3   7  -6  465.45   40.40
  -3   7   6  558.94   40.60
   2  -7  -6   86.79   23.50
  -2  -7   6  104.69   25.90
   2  -7  -6  117.39   24.30
   2  -7  -6   91.39   22.90
  -2  -7   6  123.69   28.80
  -2  -7   6  112.89   28.30
  -2  -7   6  117.39   26.90
  -2   7   6  142.29   20.30
   2   7  -6  121.09   20.70
  -2   7   6  133.49   28.10
   2   7  -6   62.89   30.30
   2   7  -6  110.89   21.50
  -1  -7   6  470.85   37.70
   1  -7  -6  475.05   41.50
   1  -7  -6  559.34   45.10
  -1  -7   6  502.85   40.50
   1  -7  -6  455.75   38.80
  -1  -7   6  515.25   40.90
   1   7  -6  494.05   47.30
  -1   7   6  586.54   33.60
   1   7  -6  496.85   34.70
   1   7  -6  474.65   28.30
  -1   7   6  496.45   45.10
  -1   7   6  391.56   33.10
   0  -7   6   38.20   19.50
   0  -7  -6   38.80   22.80
   0  -7  -6   19.40   25.30
   0  -7   6    3.00   18.10
   0  -7   6   20.10   22.70
   0  -7  -6   25.20   25.00
   0   7  -6    0.90   13.40
   0   7   6   48.20   19.40
   0   7  -6   14.00   22.30
   0   7   6   47.20   28.20
   0   7   6   14.20   21.20
   0   7   6    8.40   18.40
   0   7   6   33.10   17.20
   1  -7   6  671.53   41.60
  -1  -7  -6  516.45   46.70
  -1  -7  -6  646.34   52.69
  -1  -7  -6  633.04   49.60
   1  -7   6  687.43   39.80
   1  -7   6  674.23   42.20
  -1   7  -6  712.03   39.50
   1   7   6  657.03   52.99
   1   7   6  836.32   48.50
   1   7   6  687.53   56.09
   1   7   6  700.73   43.70
   2  -7   6  792.62   46.40
  -2  -7  -6  786.22   57.19
   2  -7   6  908.01   46.30
   2  -7   6  823.92   46.90
  -2  -7  -6  887.91   63.99
  -2  -7  -6  999.20   61.99
   2   7   6  864.31   63.29
  -2   7  -6  768.32   35.10
   2   7   6  881.41   61.99
   2   7   6  888.41   53.49
   2   7   6  842.62   53.39
  -3  -7  -6  202.78   37.40
  -3  -7  -6  176.18   39.70
   3  -7   6  161.18   24.90
   3  -7   6  153.18   24.90
   3  -7   6  196.18   25.70
  -3  -7  -6  244.68   39.30
   3   7   6  155.78   40.10
   3   7   6  215.58   34.50
   3   7   6  175.88   35.40
  -4  -7  -6 1727.33   95.69
  -4  -7  -6 1543.45   93.69
   4  -7   6 1654.43   71.09
   4  -7   6 1702.03   71.79
   4   7   6 1366.46   85.79
   4   7   6 1661.33   85.99
   4   7   6 1703.63   84.99
  -5  -7  -6  -46.40   38.00
   5  -7   6   32.70   26.00
   5  -7   6   13.60   25.60
  -5  -7  -6   64.59   55.19
   5   7   6   24.80   35.50
   5   7   6   40.40   33.50
   6  -7   6 1475.95   70.99
   6  -7   6 1479.35   77.09
  -6  -7  -6 1474.35   96.49
  -6  -7  -6 1438.26   96.09
   6   7   6 1370.46   88.49
   6   7   6 1431.56   87.69
   6   7   6 1457.95  114.19
   8  -8  -6   40.50   27.90
  -8  -8   6   23.10   47.40
  -8  -8   6  192.08   53.09
  -8  -8   6  222.58   53.39
   8   8  -6  -19.50   42.60
   8   8  -6   11.90   57.39
  -7  -8   6  239.18   51.19
   7  -8  -6  171.18   35.00
  -7  -8   6  244.18   53.29
  -7  -8   6  240.58   50.59
   7   8  -6  248.48   49.10
   7   8  -6  267.17   42.10
   7   8  -6  295.27   49.40
   6  -8  -6  592.94   45.70
   6  -8  -6  506.05   46.40
  -6  -8   6  513.95   62.69
  -6  -8   6  593.74   69.69
   6   8  -6  478.15   52.89
   6   8  -6  579.04   65.59
   6   8  -6  572.14   65.99
  -5  -8   6    3.40   36.70
  -5  -8   6   37.20   35.10
   5  -8  -6   52.29   21.30
  -5  -8   6   42.50   39.90
   5   8  -6   21.70   32.90
   5   8  -6   37.70   27.20
  -5   8   6    9.60   21.10
   5   8  -6   94.09   29.80
  -4  -8   6 1160.68   76.79
   4  -8  -6 1171.38   58.29
  -4  -8   6 1329.07   75.29
  -4  -8   6 1244.78   71.79
   4  -8  -6 1184.58   57.29
   4  -8  -6 1219.78   59.19
  -4   8   6 1298.67   61.19
   4   8  -6 1301.77   68.09
   4   8  -6 1284.47   62.89
   4   8  -6 1308.87   75.99
   3  -8  -6   51.99   20.20
  -3  -8   6   87.89   34.90
  -3  -8   6   74.19   29.40
   3  -8  -6   83.39   23.80
   3  -8  -6   52.59   22.00
  -3  -8   6   61.79   26.60
  -3  -8   6   43.60   31.40
   3   8  -6   45.50   31.90
   3   8  -6   30.10   20.50
   3   8  -6   76.99   20.40
  -3   8   6   65.59   15.30
  -3   8   6  113.49   26.40
   2  -8  -6 1152.28   58.49
  -2  -8   6 1143.39   62.19
  -2  -8   6 1102.89   60.79
  -2  -8   6 1124.19   70.69
   2  -8  -6 1189.48   59.49
   2  -8  -6 1203.98   57.99
  -2  -8   6 1197.38   64.59
  -2   8   6 1218.78   61.99
   2   8  -6  997.60   67.39
  -2   8   6 1185.18   63.09
   2   8  -6 1163.18   54.89
  -1  -8   6   15.60   20.80
  -1  -8   6   60.79   24.40
   1  -8  -6    0.00   20.70
   1  -8  -6   25.90   25.90
  -1  -8   6   36.30   22.10
   1  -8  -6   43.40   23.80
  -1  -8   6   63.59   29.90
  -1   8   6   53.49   20.10
   1   8  -6    6.30   27.90
  -1   8   6   57.49   28.00
   1   8  -6   59.59   16.90
  -1   8   6    4.50   17.30
   0  -8   6 1053.39   52.99
   0  -8  -6 1025.70   58.49
   0  -8   6 1097.79   54.29
   0  -8  -6 1039.40   62.69
   0  -8   6 1044.60   52.59
   0  -8  -6 1139.99   58.09
   0  -8  -6 1068.69   62.39
   0   8   6 1087.09   66.69
   0   8  -6 1007.70   67.09
   0   8   6 1123.29   52.39
   0   8   6 1021.00   57.79
   0   8   6 1094.19   47.30
   1  -8   6   63.69   20.60
  -1  -8  -6   68.09   26.20
  -1  -8  -6   58.99   25.90
   1  -8   6   81.79   21.20
  -1  -8  -6   29.60   30.30
   1  -8   6   10.80   18.50
   1   8   6   60.39   25.60
   1   8   6   25.00   30.70
   1   8   6   80.89   22.60
  -1   8  -6   58.69   17.30
   1   8   6   39.30   22.50
  -2  -8  -6  691.13   56.69
   2  -8   6  611.84   40.60
   2  -8   6  627.24   41.40
  -2  -8  -6  692.13   57.99
   2  -8   6  561.04   38.80
  -2  -8  -6  540.45   52.79
   2   8   6  691.93   47.20
   2   8   6  631.74   48.90
   2   8   6  515.05   65.09
   3  -8   6  119.49   23.40
  -3  -8  -6  176.48   42.10
  -3  -8  -6  129.19   40.00
  -3  -8  -6  133.19   40.10
   3  -8   6  110.19   21.50
   3   8   6   87.19   29.70
   3   8   6  122.09   33.50
   3   8   6  170.68   44.00
  -4  -8  -6  235.68   50.49
   4  -8   6  312.17   35.30
   4  -8   6  244.98   32.10
  -4  -8  -6  290.87   52.79
   4   8   6  254.87   43.60
   4   8   6  234.58   45.10
   4   8   6  223.38   42.30
   5  -8   6  201.68   31.60
  -5  -8  -6  226.78   50.69
  -5  -8  -6  298.07   52.29
   5  -8   6  203.58   33.50
   5   8   6  231.28   44.60
   5   8   6  291.37   43.50
   5   8   6  273.07   49.00
  -6  -8  -6  -27.10   43.20
   6  -8   6   62.89   25.90
  -6  -8  -6   10.60   47.00
   6   8   6  160.18   50.09
   6   8   6  -56.99   42.30
   6   8   6  -38.70   35.40
  -7  -9   6  122.29   47.60
   7  -9  -6   70.89   24.30
  -7  -9   6   99.19   50.69
  -7  -9   6   15.50   43.20
   7   9  -6   25.30   34.10
   7   9  -6   33.90   41.70
   7   9  -6   67.59   50.19
  -6  -9   6  136.89   46.00
   6  -9  -6   20.00   28.80
  -6  -9   6  106.99   41.90
   6  -9  -6   71.89   25.40
  -6  -9   6  100.29   45.90
   6   9  -6  118.19   44.50
   6   9  -6   85.29   42.50
   6   9  -6  133.19   39.40
  -5  -9   6  431.36   58.09
   5  -9  -6  377.36   36.30
  -5   9   6  423.86   42.50
   5   9  -6  377.96   44.20
   5   9  -6  461.05   54.69
   5   9  -6  342.77   37.70
   4  -9  -6  320.67   36.70
   4  -9  -6  290.67   34.30
  -4  -9   6  276.97   46.10
  -4  -9   6  431.96   50.79
  -4  -9   6  295.47   45.40
   4   9  -6  308.27   39.10
  -4   9   6  384.66   41.70
   4   9  -6  265.97   37.80
   4   9  -6  273.17   45.50
   3  -9  -6 1394.26   65.19
  -3  -9   6 1427.06   88.49
  -3  -9   6 1520.75   75.59
   3  -9  -6 1558.84   68.79
  -3  -9   6 1467.05   77.49
   3   9  -6 1425.86   66.39
  -3   9   6 1520.75   75.19
   3   9  -6 1775.32   67.89
   3   9  -6 1591.04   67.79
   2  -9  -6   53.79   23.60
  -2  -9   6   89.89   27.60
  -2  -9   6   29.20   24.20
  -2  -9   6   86.79   36.80
   2  -9  -6   74.79   21.70
   2   9  -6   54.09   20.90
   2   9  -6   48.50   37.40
  -2   9   6   55.79   15.90
  -2   9   6   66.09   30.50
  -1  -9   6 2333.47  106.39
   1  -9  -6 2383.76   98.79
  -1  -9   6 2448.06   91.99
  -1  -9   6 2280.47   90.49
  -1  -9   6 2386.56   91.99
   1  -9  -6 2155.68   92.99
   1  -9  -6 2331.97   91.79
  -1   9   6 2193.88  101.89
   1   9  -6 2156.38  104.89
   0  -9  -6   27.50   23.40
   0  -9   6   61.89   21.80
   0  -9   6   20.90   19.50
   0  -9  -6   14.50   23.90
   0  -9  -6   30.20   24.60
   0  -9   6   56.49   21.40
   0   9   6   19.20   20.50
   0   9   6    4.30   32.80
   1  -9   6 1357.66   60.09
   1  -9   6 1336.47   60.29
  -1  -9  -6 1381.36   73.19
  -1  -9  -6 1292.37   71.89
   1  -9   6 1258.57   59.49
  -1  -9  -6 1362.46   73.89
  -2  -9  -6  125.39   36.20
  -2  -9  -6  178.88   39.90
   2  -9   6  164.58   25.00
  -2  -9  -6  189.58   39.60
   2  -9   6  122.79   20.90
   2   9   6  136.09   27.20
   2   9   6  139.89   33.50
  -3  -9  -6  631.34   70.19
   3  -9   6  518.15   44.90
   3  -9   6  689.73   41.70
  -3  -9  -6  639.64   73.19
   3   9   6  650.43   62.69
   3   9   6  796.32   61.39
   3   9   6  735.53   54.49
  -4  -9  -6  181.98   46.30
  -4  -9  -6  134.89   52.09
   4  -9   6  140.79   25.90
  -4  -9  -6  213.08   45.50
   4  -9   6  196.68   29.60
   4   9   6  231.08   47.30
   4   9   6  185.08   43.60
   4   9   6  228.18   44.00
  -5  -9  -6  -14.10   40.90
  -5  -9  -6   21.40   47.20
  -5  -9  -6    8.00   45.30
   5   9   6   11.30   38.60
   5   9   6  -48.30   35.30
   5   9   6    4.80   49.50
   6 -10  -6  153.08   26.10
  -6 -10   6  221.88   58.29
  -6 -10   6  148.29   49.40
  -6 -10   6  164.78   47.70
   6  10  -6  146.19   44.90
   6  10  -6  178.88   42.80
  -5 -10   6  430.46   60.59
   5 -10  -6  333.67   38.80
  -5 -10   6  397.26   50.79
   5  10  -6  380.56   45.90
  -5  10   6  276.57   34.90
   5  10  -6  377.76   50.59
   4 -10  -6  267.67   29.30
   4 -10  -6  242.68   32.80
  -4 -10   6  243.48   52.99
  -4 -10   6  294.97   50.39
  -4 -10   6  251.17   46.80
   4  10  -6  187.98   22.70
  -4  10   6  288.77   36.80
   4  10  -6  269.07   43.30
  -3 -10   6   22.20   33.00
  -3 -10   6   35.90   26.70
   3 -10  -6   75.99   22.90
   3 -10  -6   38.30   23.90
  -3 -10   6   48.10   39.00
  -3  10   6   32.00   28.30
   3  10  -6    8.10   30.10
  -2 -10   6  197.38   35.10
  -2 -10   6  251.57   34.20
   2 -10  -6  258.87   31.80
  -2 -10   6  194.28   46.00
   2 -10  -6  209.38   30.80
  -2  10   6  196.58   37.50
  -1 -10   6   63.59   24.10
   1 -10  -6   91.59   22.00
  -1 -10   6   54.19   26.50
   1 -10  -6  105.79   27.90
  -1 -10   6   96.29   34.60
   1 -10  -6   95.59   27.80
   0 -10  -6  386.76   43.00
   0 -10   6  363.06   39.20
   0 -10  -6  465.45   48.40
   0 -10   6  369.36   52.99
   0 -10   6  344.97   37.70
   0 -10  -6  340.47   39.70
   0  10   6  319.37   50.09
  -1 -10  -6  275.17   38.50
   1 -10   6  210.18   25.60
  -1 -10  -6  240.88   40.20
  -1 -10  -6  186.48   33.60
   1 -10   6  235.78   30.50
   1  10   6  235.38   43.90
   1  10   6  231.98   31.80
   2 -10   6  341.67   38.30
  -2 -10  -6  270.87   46.10
  -2 -10  -6  105.69   49.99
   2 -10   6  263.67   31.20
  -2 -10  -6  222.58   44.10
   2  10   6  191.88   35.80
   2  10   6  217.48   44.50
   2  10   6  182.98   27.50
  -3 -10  -6  544.65   58.29
   3 -10   6  573.64   37.60
  -3 -10  -6  571.14   69.99
   3  10   6  599.34   65.59
   3  10   6  419.96   54.69
   4 -10   6   33.00   22.70
  -4 -10  -6   39.40   40.10
  -4 -10  -6  -44.70   45.50
  -4 -10  -6    5.30   43.60
   4  10   6   33.50   43.60
   4  10   6   69.29   57.29
   4  10   6  -67.19   33.60
  -5 -11   6  -34.30   41.70
  -5 -11   6   66.39   47.10
  -5 -11   6  -32.20   36.20
   5 -11  -6   37.90   22.60
  -5  11   6   -9.30   33.60
   5  11  -6   44.40   36.90
  -4 -11   6  616.04   75.49
  -4 -11   6  650.43   74.59
  -4 -11   6  624.54   66.09
   4  11  -6  566.34   62.99
  -4  11   6  579.14   73.49
  -3 -11   6   62.19   37.10
  -3 -11   6   38.50   42.50
   3 -11  -6  113.29   29.50
   3 -11  -6   78.09   26.20
  -3 -11   6   91.19   34.30
   3  11  -6   42.40   34.30
  -3  11   6   49.70   29.50
  -2 -11   6   66.69   40.80
   2 -11  -6   39.20   26.90
  -2 -11   6   20.10   28.30
  -2 -11   6    8.90   32.80
   2 -11  -6   88.19   30.40
   2  11  -6   34.70   36.70
  -1 -11   6  111.19   29.40
  -1 -11   6  211.18   35.00
  -1 -11   6  204.28   49.90
   1 -11  -6  171.78   32.60
   1 -11  -6  331.27   42.50
   1 -11  -6  172.88   34.10
  -1  11   6  200.08   40.40
   1  11  -6  120.69   42.30
   0 -11  -6  109.29   31.60
   0 -11   6  120.09   29.80
   0 -11   6  173.58   31.60
   0 -11  -6  113.69   29.50
   0 -11   6  145.29   48.20
   0  11  -6  167.58   42.10
   0  11   6   73.99   36.60
  -1 -11  -6  218.08   36.80
   1 -11   6  191.48   45.80
   1 -11   6  228.98   31.50
   1 -11   6  225.78   27.80
  -1 -11  -6  210.68   42.80
  -1 -11  -6  204.18   40.40
   1  11   6  168.88   43.60
  -2 -11  -6  826.82   77.99
  -2 -11  -6  767.02   65.99
   2 -11   6  861.71   44.50
  -2 -11  -6  925.21   91.49
   2  11   6  956.30   75.29
  -3 -11  -6  -35.70   39.70
   3 -11   6   47.60   20.30
  -3 -11  -6   51.29   44.30
  -3 -11  -6   85.69   39.40
   3  11   6   51.79   41.10
  -4 -12   6  673.23   76.19
  -4 -12   6  841.02   89.49
  -4 -12   6  578.74   67.19
  -4  12   6  796.62   56.39
   4  12  -6  737.73   76.29
  -3 -12   6   90.49   47.30
  -3 -12   6   56.59   35.20
  -3 -12   6   36.40   47.60
   3  12  -6   57.19   39.70
  -3  12   6   40.90   31.20
  -2 -12   6  982.00   64.79
  -2 -12   6 1139.89   78.29
  -2 -12   6  868.81   81.19
   2 -12  -6 1003.40   65.09
   2 -12  -6  732.93   65.69
   2  12  -6 1024.60   79.49
  -2  12   6 1097.29   71.09
  -1 -12   6   -3.20   30.10
   1 -12  -6   11.10   31.80
  -1 -12   6  -55.49   32.80
  -1 -12   6   -5.00   42.20
   1 -12  -6   53.79   26.10
   1  12  -6   44.20   40.50
  -1  12   6   41.80   35.30
   0 -12  -6  421.26   46.60
   0 -12   6  493.75   64.29
   0 -12   6  405.76   51.09
   0 -12  -6  561.84   61.99
   0 -12  -6  401.06   45.00
   0  12   6  393.66   52.79
   0  12  -6  315.77   53.29
  -1 -12  -6  223.68   47.90
   1 -12   6  211.48   27.80
  -1 -12  -6  215.58   48.90
  -1 -12  -6  225.68   41.80
   1 -12   6  297.87   57.69
   1  12   6  128.69   43.80
  -2 -12  -6  233.48   47.80
  -2 -12  -6  127.09   42.10
   2 -12   6  175.18   24.90
   2 -12   6  283.17   54.99
  -2 -12  -6  164.98   44.60
   2  12   6   57.89   42.10
  -9   0   7 1168.28   79.89
   9   0  -7 1205.48   84.79
   9   0  -7 1225.58   83.49
   8   0  -7  -20.60   36.70
  -8   0   7  -38.00   31.70
  -8   0   7   79.89   39.60
   8   0  -7   17.30   35.70
  -8   0   7   24.10   22.60
  -7   0   7  358.16   43.70
   7   0  -7  350.16   44.30
   7   0  -7  370.86   44.90
  -7   0   7  307.27   33.00
  -7   0   7  388.56   46.80
   6   0  -7   -7.10   25.00
  -6   0   7  -18.30   24.40
  -6   0   7  -57.19   24.70
  -6   0   7   -2.50   17.40
   6   0  -7  -12.60   24.50
  -5   0   7    2.20   17.80
   5   0  -7   34.40   26.50
  -5   0   7   33.80   25.80
   5   0  -7   33.50   24.10
  -5   0   7   37.60   28.30
  -4   0   7  -24.10   20.80
   4   0  -7   -7.80   23.40
  -4   0   7   36.50   22.80
   4   0  -7   32.70   22.40
   4   0  -7   38.50   25.10
  -4   0   7   -2.30   23.40
  -3   0   7  166.48   25.60
   3   0  -7  122.79   28.10
   3   0  -7  167.78   27.00
  -3   0   7  145.69   26.00
  -3   0   7  150.08   26.70
   3   0  -7   97.49   28.80
   3   0  -7  132.79   27.30
  -3   0   7  135.69   25.40
  -2   0   7   -7.90   19.60
   2   0  -7   19.90   23.40
   2   0  -7   -9.80   16.80
  -2   0   7   -3.80   19.90
  -2   0   7    8.60   20.40
   2   0  -7   -3.40   19.50
   2   0  -7    2.20   18.60
   1   0  -7  925.31   47.60
   1   0  -7  925.61   48.50
  -1   0   7  877.81   50.89
   1   0  -7  964.40   52.19
  -1   0   7  996.10   49.20
   1   0  -7  891.21   53.29
  -1   0   7 1037.20   49.90
  -1   0   7  968.50   51.89
   0   0  -7    0.20   18.20
   0   0  -7   -8.60   20.00
   0   0   7   -1.40   21.20
   0   0   7    4.00   19.90
   0   0   7  -15.60   17.10
   0   0   7   14.10   21.30
   0   0  -7   11.60   22.90
   0   0  -7   25.00   19.00
  -1   0  -7 1222.28   56.29
   1   0   7 1148.79   59.79
  -1   0  -7 1224.48   60.99
   1   0   7 1225.08   58.79
   1   0   7 1347.67   61.59
   1   0   7 1197.98   59.59
  -1   0  -7 1187.38   62.59
   2   0   7  -19.90   23.20
   2   0   7   -8.60   23.20
  -2   0  -7   14.60   22.90
   2   0   7   24.00   24.10
  -2   0  -7  -24.00   19.40
  -2   0  -7  -35.10   22.10
   3   0   7 2002.40   86.39
  -3   0  -7 1962.60   85.09
  -3   0  -7 2028.60   87.09
   3   0   7 1894.81   85.79
  -4   0  -7    0.90   25.90
  -4   0  -7  -25.80   24.60
   4   0   7   -7.60   23.90
   4   0   7   22.00   27.30
  -5   0  -7 1384.06   75.99
   5   0   7 1282.27   77.29
   5   0   7 1222.68   77.79
  -5   0  -7 1319.87   70.79
   6   0   7   33.50   40.30
   6   0   7   -4.60   40.10
  -6   0  -7   10.20   36.90
  -6   0  -7   25.20   34.00
   7   0   7  650.43   70.89
  -7   0  -7  701.23   73.09
   7   0   7  726.13   80.59
   9  -1  -7   72.69   43.10
  -9  -1   7   88.89   32.40
   9  -1  -7  103.59   41.10
  -9  -1   7   25.90   41.90
  -9  -1   7    3.90   43.80
  -9   1   7   88.09   41.60
   9   1  -7    7.70   39.70
   9   1  -7   15.00   41.20
  -9   1   7  -27.90   42.20
   8  -1  -7  596.04   67.79
  -8  -1   7  671.63   62.69
  -8  -1   7  726.23   73.79
   8  -1  -7  658.93   73.49
  -8  -1   7  624.84   49.40
   8   1  -7  678.43   66.79
  -8   1   7  498.95   59.69
   8   1  -7  567.44   66.69
  -8   1   7  571.24   58.99
  -7  -1   7  513.15   42.50
  -7  -1   7  474.45   54.69
  -7  -1   7  571.34   56.99
   7  -1  -7  516.95   54.99
   7  -1  -7  534.55   51.69
  -7   1   7  529.65   53.09
  -7   1   7  489.15   29.90
   7   1  -7  512.65   56.19
   7   1  -7  497.35   57.49
  -7   1   7  497.05   50.99
  -6  -1   7  211.48   37.10
   6  -1  -7  202.58   33.60
  -6  -1   7  270.67   38.40
   6  -1  -7  271.27   38.90
  -6  -1   7  248.78   28.10
  -6   1   7  218.48   33.70
  -6   1   7  301.77   36.90
   6   1  -7  320.47   38.20
   6   1  -7  270.87   38.90
  -6   1   7  297.87   43.00
  -6   1   7  242.58   21.90
   5  -1  -7  842.22   52.89
  -5  -1   7  715.03   53.59
   5  -1  -7  764.72   51.99
   5  -1  -7  769.92   53.09
  -5  -1   7  745.53   53.89
  -5  -1   7  791.62   44.40
  -5   1   7  759.62   33.90
  -5   1   7  820.82   51.89
   5   1  -7  765.92   53.99
  -5   1   7  728.13   48.00
   5   1  -7  668.53   53.39
  -5   1   7  828.32   54.59
  -4  -1   7   34.60   18.40
   4  -1  -7   28.90   23.50
   4  -1  -7   39.90   24.00
   4  -1  -7   45.60   21.80
  -4  -1   7   15.90   25.20
  -4  -1   7   17.50   21.80
  -4   1   7   22.40   22.20
   4   1  -7   38.90   25.20
   4   1  -7   22.40   24.80
  -4   1   7   -2.10   20.00
  -4   1   7   13.10   11.20
  -4   1   7   26.00   24.40
  -3  -1   7 2049.89   83.09
  -3  -1   7 2005.30   80.69
  -3  -1   7 1867.01   81.39
  -3  -1   7 2000.90   81.19
   3  -1  -7 2122.09   81.69
   3  -1  -7 1976.70   82.09
   3   1  -7 2071.89   80.39
  -3   1   7 2122.29   82.59
  -3   1   7 2041.50   81.39
   3   1  -7 2094.89   83.59
   3   1  -7 2000.90   80.19
  -3   1   7 2092.59   80.09
   3   1  -7 1924.71   82.19
  -2  -1   7   70.09   22.50
   2  -1  -7  104.39   26.70
   2  -1  -7  126.69   22.40
  -2  -1   7  102.09   24.10
   2  -1  -7  114.49   24.60
  -2  -1   7  123.99   22.40
   2  -1  -7   89.59   25.00
  -2  -1   7   98.59   25.60
   2   1  -7  121.99   21.80
  -2   1   7  128.49   25.90
  -2   1   7  130.89   24.20
   2   1  -7  160.58   24.70
  -2   1   7  100.79   21.20
   2   1  -7  105.79   24.80
  -2   1   7  106.39   24.80
  -1  -1   7 1675.93   69.19
   1  -1  -7 1841.12   70.29
   1  -1  -7 1539.85   69.99
  -1  -1   7 1573.34   70.49
   1  -1  -7 1753.12   73.09
   1  -1  -7 1747.73   68.59
  -1  -1   7 1661.43   70.59
  -1  -1   7 1626.64   68.69
  -1   1   7 1557.54   68.59
  -1   1   7 1687.23   71.29
   1   1  -7 1613.44   70.59
   1   1  -7 1580.24   67.59
   1   1  -7 1691.13   72.49
   1   1  -7 1712.93   67.29
  -1   1   7 1685.83   70.39
  -1   1   7 1618.94   68.39
   0  -1  -7 1296.17   59.19
   0  -1  -7 1327.77   63.99
   0  -1   7 1301.77   60.59
   0  -1   7 1362.26   60.99
   0  -1   7 1438.36   62.99
   0  -1  -7 1414.36   61.19
   0  -1  -7 1319.97   64.09
   0  -1   7 1385.96   61.69
   0   1   7 1291.77   61.69
   0   1   7 1339.97   62.79
   0   1  -7 1245.18   62.09
   0   1  -7 1332.67   59.79
   0   1  -7 1305.77   62.59
   0   1  -7 1356.96   59.19
   0   1   7 1334.57   58.89
   0   1   7 1410.86   61.89
   0   1   7 1323.97   60.99
  -1  -1  -7  167.58   27.90
  -1  -1  -7   97.09   26.70
  -1  -1  -7  162.48   24.50
   1  -1   7   77.19   24.60
   1  -1   7  136.19   25.00
   1  -1   7  123.99   25.20
  -1   1  -7  137.59   26.80
   1   1   7  118.89   26.90
   1   1   7  131.39   27.00
   1   1   7  102.79   24.30
  -1   1  -7  142.29   26.30
  -1   1  -7  108.09   22.80
   1   1   7  132.09   24.70
   2  -1   7 2433.86   94.49
   2  -1   7 2334.37   93.49
  -2  -1  -7 2330.17   95.29
  -2  -1  -7 2388.96   95.49
   2  -1   7 2376.26   93.59
  -2   1  -7 2205.38   90.49
   2   1   7 2354.66   95.39
  -2   1  -7 2360.96   92.59
  -2   1  -7 2503.35   89.39
   2   1   7 2303.67   93.99
   3  -1   7   12.90   25.00
   3  -1   7   29.70   29.90
  -3  -1  -7   49.80   26.50
  -3  -1  -7   38.50   28.60
   3  -1   7   30.00   23.50
  -3   1  -7   44.40   24.60
   3   1   7   47.40   26.90
   3   1   7   45.90   25.60
  -3   1  -7   68.59   25.40
  -3   1  -7    6.20   25.80
   4  -1   7 1545.65   75.19
  -4  -1  -7 1519.25   76.49
  -4  -1  -7 1461.85   77.09
   4  -1   7 1394.26   73.69
   4   1   7 1454.15   75.89
  -4   1  -7 1386.06   73.99
   4   1   7 1353.96   74.49
  -4   1  -7 1561.94   73.99
  -4   1  -7 1541.65   74.09
  -5  -1  -7  323.77   44.30
   5  -1   7  247.68   42.70
  -5  -1  -7  321.97   42.80
   5  -1   7  276.17   44.40
   5   1   7  342.37   47.00
  -5   1  -7  315.17   39.60
  -5   1  -7  283.17   40.10
   5   1   7  320.07   45.40
  -6  -1  -7  419.36   53.49
   6  -1   7  386.76   50.29
   6  -1   7  359.86   52.29
  -6  -1  -7  405.96   50.49
  -6   1  -7  366.76   44.80
   6   1   7  403.36   56.19
  -6   1  -7  292.77   41.20
  -7  -1  -7  405.06   56.99
   7  -1   7  319.87   49.10
  -7  -1  -7  313.87   51.39
   7  -1   7  233.68   53.29
   7   1   7  266.67   51.09
  -7   1  -7  318.07   49.70
   7   1   7  244.88   52.39
   9  -2  -7   66.69   38.90
  -9  -2   7  110.99   52.49
  -9  -2   7  -11.90   33.60
  -9  -2   7   44.70   44.80
   9  -2  -7   73.19   36.00
   9   2  -7   47.30   41.00
   9   2  -7   49.80   41.80
  -9   2   7  -15.00   34.20
  -8  -2   7  883.21   79.39
  -8  -2   7  767.12   69.09
   8  -2  -7  807.82   72.89
   8   2  -7  815.72  104.79
  -8   2   7  883.41   58.89
   8   2  -7  827.32   73.59
  -8   2   7  921.71   63.59
  -7  -2   7   33.90   34.10
  -7  -2   7   28.40   30.80
  -7  -2   7   14.60   24.40
   7  -2  -7   45.40   30.00
   7  -2  -7  -23.90   26.60
  -7   2   7   31.60   26.50
   7   2  -7   52.99   34.10
   7   2  -7   45.50   33.70
  -7   2   7   45.80   28.60
  -6  -2   7 2088.59   93.59
  -6  -2   7 1982.90   92.29
   6  -2  -7 2199.58   90.89
  -6  -2   7 2065.99   83.69
   6  -2  -7 2046.30   91.39
   6  -2  -7 2032.50   98.99
  -6   2   7 2047.40   87.59
  -6   2   7 2155.68   86.19
   6   2  -7 1880.21   91.59
  -6   2   7 2054.49   84.99
   6   2  -7 2061.39   92.79
   5  -2  -7    1.60   23.70
   5  -2  -7    4.30   27.50
   5  -2  -7   10.40   22.20
  -5  -2   7   18.50   20.00
  -5  -2   7   23.60   27.40
  -5  -2   7   -0.30   26.50
  -5   2   7  -12.00   20.70
   5   2  -7   25.60   26.30
   5   2  -7   31.90   24.60
  -5   2   7   68.79   24.40
  -5   2   7   29.70   24.00
   4  -2  -7 1897.71   80.39
   4  -2  -7 1859.61   80.49
  -4  -2   7 1900.61   76.89
  -4  -2   7 2036.70   83.89
  -4  -2   7 1843.12   82.39
  -4   2   7 1993.00   79.89
  -4   2   7 1928.51   76.59
  -4   2   7 1968.60   79.79
  -4   2   7 1961.80   62.09
   4   2  -7 1948.71   83.09
   4   2  -7 1898.11   82.99
  -3  -2   7   44.10   25.10
   3  -2  -7   49.60   22.00
   3  -2  -7   57.89   24.60
  -3  -2   7   47.50   22.50
   3  -2  -7   37.50   20.90
  -3  -2   7   24.90   22.60
   3   2  -7   34.50   23.60
   3   2  -7   54.39   20.90
  -3   2   7   25.80   20.80
   3   2  -7   64.19   24.00
  -3   2   7   52.69   22.10
  -3   2   7   42.80   20.90
  -2  -2   7 1196.08   58.89
  -2  -2   7 1227.98   57.99
   2  -2  -7 1210.18   59.19
  -2  -2   7 1220.18   59.99
  -2  -2   7 1186.68   59.19
   2  -2  -7 1169.28   60.49
   2  -2  -7 1265.67   62.89
   2  -2  -7 1211.88   58.79
  -2   2   7 1275.67   58.59
   2   2  -7 1240.58   59.69
  -2   2   7 1213.78   62.19
   2   2  -7 1226.78   59.39
  -2   2   7 1244.18   58.59
  -2   2   7 1303.07   57.99
   2   2  -7 1225.58   55.89
   2   2  -7 1094.29   55.69
  -2   2   7 1327.17   49.90
  -1  -2   7   40.20   20.00
   1  -2  -7    8.80   22.90
   1  -2  -7   14.80   19.00
  -1  -2   7   37.60   21.90
   1  -2  -7   25.30   19.80
  -1  -2   7   18.00   19.60
   1  -2  -7   66.59   22.60
  -1  -2   7   21.60   21.50
  -1   2   7   99.99   21.20
  -1   2   7   -2.90   19.60
   1   2  -7   71.79   19.20
  -1   2   7   42.30   22.40
  -1   2   7   43.20   21.10
   1   2  -7   32.20   21.90
   1   2  -7   40.10   19.00
   1   2  -7   47.20   22.20
  -1   2   7   60.79   17.80
   0  -2   7 1427.86   63.49
   0  -2   7 1428.26   64.09
   0  -2  -7 1504.95   67.59
   0  -2  -7 1418.06   64.59
   0  -2  -7 1621.24   71.99
   0  -2   7 1406.66   64.49
   0  -2  -7 1452.45   67.59
   0   2   7 1307.57   62.79
   0   2  -7 1431.16   60.99
   0   2   7 1490.65   63.89
   0   2   7 1359.16   65.39
   0   2   7 1468.55   62.49
   0   2   7 1404.76   64.49
   0   2  -7 1246.28   69.69
   1  -2   7   43.60   22.90
  -1  -2  -7   88.29   26.90
  -1  -2  -7   63.89   27.70
  -1  -2  -7   36.30   24.40
   1  -2   7   90.29   23.40
   1  -2   7   82.79   21.50
   1   2   7   48.10   23.00
  -1   2  -7   81.29   25.20
   1   2   7   40.70   24.70
  -1   2  -7   77.19   20.80
   1   2   7   76.29   22.90
   2  -2   7  288.17   36.80
   2  -2   7  232.88   31.20
  -2  -2  -7  226.08   35.60
   2  -2   7  331.27   39.40
  -2  -2  -7  265.97   35.20
   2   2   7  273.17   34.30
  -2   2  -7  277.97   31.40
   2   2   7  291.97   35.40
  -2   2  -7  293.47   33.20
  -3  -2  -7  127.19   31.70
   3  -2   7  130.59   28.50
  -3  -2  -7  125.09   33.10
   3  -2   7  146.09   31.20
   3  -2   7  127.09   30.00
  -3   2  -7  137.39   27.50
   3   2   7  118.49   31.40
  -3   2  -7  119.69   27.10
   3   2   7   97.89   29.20
  -3   2  -7   88.99   25.10
  -4  -2  -7   67.99   31.50
  -4  -2  -7  142.29   35.30
   4  -2   7   74.39   27.80
   4  -2   7  105.09   31.10
   4  -2   7   95.09   39.60
  -4   2  -7   90.79   28.50
   4   2   7   13.10   27.60
   4   2   7  104.19   32.40
  -4   2  -7  115.19   28.10
  -4   2  -7   52.59   29.00
  -5  -2  -7   35.20   36.40
  -5  -2  -7   47.80   31.30
   5  -2   7   52.79   31.70
   5  -2   7   44.20   32.60
  -5   2  -7   85.39   27.20
   5   2   7    7.90   37.10
   5   2   7   30.70   35.00
  -5   2  -7   26.10   28.80
   6  -2   7  392.96   47.40
  -6  -2  -7  543.75   65.59
   6  -2   7  470.95   55.39
  -6   2  -7  487.95   56.89
   6   2   7  560.64   65.99
  -6   2  -7  511.65   50.49
   6   2   7  442.26   55.99
  -7  -2  -7    8.00   50.99
   7  -2   7   30.40   39.30
  -7  -2  -7  -20.80   44.40
   7  -2   7  -69.59   30.90
   7   2   7    6.80   39.80
   7   2   7   17.00   41.00
  -9  -3   7  150.98   43.20
   9  -3  -7  101.99   41.00
  -9  -3   7   97.49   47.00
   9  -3  -7  133.09   39.10
   9   3  -7   15.60   42.50
   9   3  -7   63.99   44.40
  -8  -3   7  390.36   45.40
  -8  -3   7  575.64   66.89
   8  -3  -7  456.05   53.99
   8  -3  -7  363.96   55.19
  -8   3   7  540.05   53.29
   8   3  -7  479.55   59.49
   8   3  -7  413.86   56.09
  -7  -3   7  344.37   43.80
  -7  -3   7  318.97   49.60
   7  -3  -7  348.57   43.10
  -7  -3   7  336.17   45.70
   7  -3  -7  380.96   44.30
  -7   3   7  389.26   41.30
  -7   3   7  336.57   41.10
   7   3  -7  370.16   49.70
   7   3  -7  344.57   47.80
  -6  -3   7  445.66   46.70
  -6  -3   7  539.15   54.59
  -6  -3   7  446.26   50.99
   6  -3  -7  512.55   46.50
   6  -3  -7  444.96   55.49
   6  -3  -7  542.95   49.50
   6   3  -7  402.16   46.80
  -6   3   7  473.25   44.60
   6   3  -7  496.75   52.19
  -6   3   7  454.25   40.70
   5  -3  -7 1376.36   69.19
   5  -3  -7 1294.47   70.59
  -5  -3   7 1406.66   68.79
  -5  -3   7 1382.56   74.09
  -5  -3   7 1477.15   74.59
   5  -3  -7 1432.66   67.89
  -5   3   7 1414.36   63.39
   5   3  -7 1429.46   72.19
   5   3  -7 1457.95   72.69
  -5   3   7 1478.15   64.49
  -5   3   7 1496.35   74.59
   4  -3  -7   42.10   22.20
  -4  -3   7   10.50   21.90
   4  -3  -7   -3.00   20.50
  -4  -3   7  -13.10   24.60
  -4  -3   7   31.60   25.10
  -4   3   7   13.30   18.70
   4   3  -7    2.40   23.50
   4   3  -7   -2.00   23.30
  -4   3   7   42.40   20.50
  -4   3   7  -14.50   20.00
  -3  -3   7 2802.22  103.69
   3  -3  -7 2640.04  100.79
   3  -3  -7 2757.62  100.39
   3  -3  -7 2795.72  102.69
  -3  -3   7 2600.74  103.29
  -3  -3   7 2706.43  103.49
   3   3  -7 2712.13  102.09
   3   3  -7 2696.83  100.19
  -3   3   7 2781.22   84.39
   3   3  -7 2549.04  100.79
  -3   3   7 2670.83   96.89
  -3   3   7 2644.04   97.79
  -3   3   7 2780.52  100.29
   2  -3  -7   95.79   24.80
  -2  -3   7   53.59   24.20
  -2  -3   7   94.79   25.00
   2  -3  -7   93.79   25.10
  -2  -3   7  115.29   25.10
   2  -3  -7  117.29   23.40
   2   3  -7  118.39   24.70
   2   3  -7  124.29   25.50
   2   3  -7   84.59   21.50
  -2   3   7  108.19   16.00
  -2   3   7   88.39   23.20
  -2   3   7  106.09   21.50
   1  -3  -7 2672.43   97.79
   1  -3  -7 2493.55   98.49
  -1  -3   7 2524.85   97.39
   1  -3  -7 2526.25   98.99
  -1  -3   7 2830.42   97.79
  -1  -3   7 2580.14   97.89
  -1   3   7 2740.33   92.09
   1   3  -7 2519.15   95.09
   1   3  -7 2675.23   94.29
  -1   3   7 2567.34   95.79
  -1   3   7 2657.73   97.59
  -1   3   7 2676.93   95.89
   0  -3  -7  711.83   49.60
   0  -3   7  748.03   43.40
   0  -3   7  708.43   45.20
   0  -3  -7  681.03   47.80
   0  -3  -7  749.33   51.09
   0  -3   7  705.13   45.90
   0   3   7  751.82   46.70
   0   3  -7  820.22   45.50
   0   3   7  740.43   43.70
   0   3   7  725.63   47.00
   0   3  -7  698.43   44.20
   0   3  -7  675.93   41.30
   0   3   7  809.62   46.20
  -1  -3  -7  490.85   44.20
   1  -3   7  485.55   39.70
  -1  -3  -7  478.35   46.00
   1  -3   7  610.34   39.20
   1  -3   7  397.96   39.60
  -1  -3  -7  402.16   42.90
   1   3   7  563.84   44.20
  -1   3  -7  520.15   34.90
  -1   3  -7  438.26   46.00
   1   3   7  519.65   42.30
   1   3   7  454.65   42.30
   2  -3   7 2079.69   85.29
   2  -3   7 2162.48   85.59
  -2  -3  -7 1935.01   88.89
  -2  -3  -7 2046.40   89.69
   2  -3   7 2014.70   83.89
   2   3   7 2095.09   87.39
  -2   3  -7 2078.69   77.29
   2   3   7 2019.20   87.79
   3  -3   7  213.48   32.70
  -3  -3  -7  114.59   35.10
   3  -3   7  161.08   29.50
   3  -3   7  145.19   29.50
  -3  -3  -7   79.09   31.70
  -3   3  -7  147.69   25.50
   3   3   7  138.09   32.00
  -3   3  -7  132.69   29.90
  -3   3  -7  166.08   24.20
   3   3   7   62.59   29.70
  -4  -3  -7  720.53   62.79
   4  -3   7  757.72   54.19
  -4  -3  -7  809.02   62.29
   4  -3   7  750.52   64.79
   4  -3   7  781.42   53.99
  -4   3  -7  795.22   48.90
   4   3   7  752.52   59.79
   4   3   7  725.93   58.69
  -4   3  -7  830.62   48.90
   5  -3   7  419.76   47.30
  -5  -3  -7  601.44   68.09
  -5  -3  -7  519.55   58.79
   5  -3   7  449.26   51.99
   5   3   7  551.54   63.19
   5   3   7  440.86   52.59
   6  -3   7   52.29   43.00
   6  -3   7  119.69   33.90
  -6  -3  -7   41.80   42.70
  -6  -3  -7   32.60   43.20
   6   3   7  127.89   42.60
   6   3   7  123.49   43.00
  -7  -3  -7  654.33   78.79
  -7  -3  -7  618.84   89.89
   7  -3   7  695.53   66.29
   7  -3   7  556.34   64.69
   7   3   7  624.34   75.19
   7   3   7  737.33   80.39
   7   3   7  662.53   68.39
   9  -4  -7 1095.09   76.19
  -9  -4   7 1098.49   90.69
  -9  -4   7 1079.59   87.49
  -9  -4   7 1084.59   88.69
   9  -4  -7 1137.19   77.69
   9   4  -7 1235.28   87.19
   9   4  -7 1081.09   86.49
  -8  -4   7   79.99   38.40
   8  -4  -7  124.79   39.90
   8  -4  -7   53.19   31.60
  -8  -4   7   95.49   42.50
  -8  -4   7  -19.10   41.50
   8   4  -7   -2.20   36.40
   8   4  -7  -16.60   45.40
  -7  -4   7  238.88   39.20
   7  -4  -7  223.08   39.10
   7  -4  -7  290.17   37.50
  -7  -4   7  205.38   47.40
  -7  -4   7  208.68   42.30
  -7   4   7  249.97   30.40
   7   4  -7  256.77   45.70
   7   4  -7  223.68   41.80
   6  -4  -7   40.20   24.80
  -6  -4   7   56.69   29.40
   6  -4  -7  117.59   34.70
  -6  -4   7   33.90   30.80
   6  -4  -7   80.29   29.50
  -6  -4   7   83.59   35.10
  -6   4   7   48.90   20.50
   6   4  -7   64.19   31.40
  -6   4   7   65.59   23.40
   6   4  -7   50.09   33.50
  -5  -4   7   73.39   29.90
  -5  -4   7  147.89   34.00
   5  -4  -7   78.59   25.30
  -5  -4   7   94.59   31.80
   5  -4  -7   81.19   27.60
   5  -4  -7   76.49   27.80
  -5   4   7   39.70   20.90
  -5   4   7  119.09   21.20
   5   4  -7  113.59   29.20
   5   4  -7   83.09   31.00
  -5   4   7   66.69   27.80
  -5   4   7   90.49   22.40
   4  -4  -7   59.79   22.80
   4  -4  -7   -0.40   20.70
  -4  -4   7   26.20   27.70
  -4  -4   7   39.30   26.10
   4  -4  -7   46.10   25.40
  -4  -4   7   54.09   25.50
  -4   4   7   87.19   20.70
  -4   4   7   24.30   19.60
  -4   4   7  -11.40   19.20
   4   4  -7   41.40   26.20
  -4   4   7    7.50   18.70
   4   4  -7   54.79   24.80
   3  -4  -7   41.70   22.40
  -3  -4   7   37.20   24.10
   3  -4  -7   43.00   22.00
  -3  -4   7   49.70   23.90
  -3  -4   7   16.90   24.80
   3  -4  -7   54.59   22.80
  -3  -4   7   76.39   25.50
  -3   4   7   16.00   19.30
   3   4  -7   21.10   23.40
   3   4  -7   81.09   25.50
  -3   4   7   85.59   22.00
   3   4  -7   60.19   24.30
  -2  -4   7  161.08   27.50
   2  -4  -7  146.09   26.20
   2  -4  -7  140.59   28.60
   2  -4  -7  154.68   25.50
  -2  -4   7  116.09   27.10
  -2  -4   7  139.29   26.50
   2   4  -7  155.78   27.30
   2   4  -7  102.89   24.60
   2   4  -7  128.99   23.40
  -2   4   7  138.89   24.30
  -2   4   7  109.89   23.30
  -2   4   7  145.49   24.40
  -1  -4   7 1009.20   55.19
   1  -4  -7 1054.29   58.99
  -1  -4   7 1107.59   56.69
  -1  -4   7 1204.18   56.59
   1  -4  -7 1016.00   56.79
   1  -4  -7 1098.99   55.09
   1   4  -7 1144.09   53.59
   1   4  -7 1134.59   55.79
  -1   4   7 1060.49   54.69
  -1   4   7 1174.98   49.20
  -1   4   7 1119.99   55.59
   1   4  -7 1119.39   49.90
  -1   4   7 1140.79   56.59
   0  -4   7   20.20   20.30
   0  -4   7    8.30   18.80
   0  -4  -7   -1.20   22.00
   0  -4   7   11.00   19.10
   0  -4  -7   -3.00   24.80
   0  -4  -7   33.00   22.30
   0   4   7   66.79   24.50
   0   4  -7   26.00   16.60
   0   4   7   30.80   21.30
   0   4   7   47.80   22.10
   0   4  -7   19.20   17.40
   0   4   7   11.00   22.40
   0   4  -7    3.70   17.50
  -1  -4  -7 2262.07   96.99
   1  -4   7 2343.97   92.09
   1  -4   7 2367.96   92.09
   1  -4   7 2393.06   91.69
  -1  -4  -7 2447.35  100.19
  -1  -4  -7 2400.36  104.49
   1   4   7 2700.53  105.79
  -1   4  -7 2333.17   85.59
   1   4   7 2445.16   94.49
   1   4   7 2321.57   93.29
  -1   4  -7 2366.46   88.79
   1   4   7 2448.56   95.39
   2  -4   7   74.59   26.20
   2  -4   7   44.40   21.50
  -2  -4  -7   19.90   27.90
   2  -4   7   -2.60   20.90
  -2  -4  -7  -11.50   25.70
  -2   4  -7   49.80   18.30
   2   4   7   29.40   26.20
  -2   4  -7   -3.80   16.30
   2   4   7   50.29   25.10
   3  -4   7 1154.78   63.59
   3  -4   7 1278.87   66.59
   3  -4   7 1194.58   62.79
  -3  -4  -7 1251.77   71.89
  -3  -4  -7 1352.66   72.99
  -3   4  -7 1272.07   51.29
   3   4   7 1111.99   66.19
  -3   4  -7 1195.28   57.09
   3   4   7 1086.89   67.59
  -3   4  -7 1250.37   50.09
  -4  -4  -7  -14.60   34.90
  -4  -4  -7   27.80   29.70
   4  -4   7   33.40   24.80
   4  -4   7   -1.70   23.60
   4   4   7  -21.10   30.60
  -4   4  -7   41.10   20.90
   4   4   7   31.10   27.40
   5  -4   7 1083.49   70.39
  -5  -4  -7 1359.06   82.89
   5  -4   7 1312.47   68.19
  -5  -4  -7 1309.87   87.99
  -5   4  -7 1106.79   63.09
   5   4   7 1115.49   79.59
   5   4   7 1165.68   80.09
  -6  -4  -7   75.59   45.10
   6  -4   7   64.29   40.10
   6  -4   7   61.59   33.20
  -6  -4  -7  111.29   43.60
   6   4   7  122.59   43.30
   6   4   7   37.10   38.20
   6   4   7   80.79   36.40
  -7  -4  -7  354.26   60.29
   7  -4   7  533.35   54.79
   7  -4   7  611.14   63.79
  -7  -4  -7  548.05   68.09
   7   4   7  529.55   67.09
   7   4   7  495.65   63.49
   7   4   7  477.25   66.39
   9  -5  -7   30.80   35.60
  -9  -5   7   26.30   46.20
   9  -5  -7   55.49   40.30
  -9  -5   7   44.20   47.30
  -9  -5   7   72.69   54.99
   9   5  -7    9.20   44.40
   9   5  -7   68.09   51.99
  -8  -5   7  764.02   80.19
  -8  -5   7  821.42   78.79
  -8  -5   7  797.32   89.79
   8  -5  -7  845.42   63.79
   8  -5  -7  725.43   65.59
   8   5  -7  843.92   76.59
  -7  -5   7   15.40   41.00
   7  -5  -7   29.40   30.30
  -7  -5   7   54.59   35.60
  -7  -5   7   18.50   40.80
   7  -5  -7  110.39   30.10
   7   5  -7   23.10   38.40
   7   5  -7  102.79   38.30
   6  -5  -7  486.05   46.10
  -6  -5   7  579.04   60.49
  -6  -5   7  500.15   50.59
   6  -5  -7  447.66   47.90
  -6  -5   7  399.66   50.99
   6   5  -7  474.45   54.89
   6   5  -7  515.25   59.69
  -6   5   7  447.86   40.50
   5  -5  -7  386.96   41.30
  -5  -5   7  415.16   49.80
  -5  -5   7  396.56   45.50
  -5  -5   7  481.25   51.79
   5  -5  -7  424.56   44.90
  -5   5   7  460.95   36.30
   5   5  -7  408.06   50.49
  -5   5   7  327.27   34.90
   5   5  -7  463.95   49.99
  -4  -5   7   58.59   28.30
   4  -5  -7   13.50   25.00
   4  -5  -7   72.29   22.40
  -4  -5   7   45.90   26.60
   4  -5  -7   16.40   25.70
  -4  -5   7   37.00   26.50
  -4   5   7   60.99   17.80
  -4   5   7   38.70   17.20
  -4   5   7   70.59   20.20
  -4   5   7   61.99   19.30
   4   5  -7   86.69   27.40
   4   5  -7   31.50   25.80
  -3  -5   7 1508.25   73.39
  -3  -5   7 1488.15   72.19
   3  -5  -7 1451.95   66.39
  -3  -5   7 1410.26   71.19
   3  -5  -7 1514.75   67.09
  -3  -5   7 1368.86   70.29
   3  -5  -7 1458.65   69.79
  -3   5   7 1499.25   65.29
  -3   5   7 1478.35   61.29
  -3   5   7 1389.36   59.09
   3   5  -7 1435.36   67.59
   3   5  -7 1507.05   69.39
   3   5  -7 1474.55   65.19
   2  -5  -7  203.38   32.30
  -2  -5   7  223.68   31.60
   2  -5  -7  260.07   31.10
  -2  -5   7  196.08   30.40
   2  -5  -7  285.07   32.10
  -2  -5   7  258.27   32.40
  -2   5   7  236.68   26.80
  -2   5   7  220.48   25.10
   2   5  -7  276.37   30.60
  -2   5   7  220.98   26.10
  -2   5   7  239.48   33.30
   2   5  -7  223.08   26.40
  -1  -5   7 1325.97   63.79
   1  -5  -7 1308.47   64.49
  -1  -5   7 1407.56   64.29
  -1  -5   7 1351.06   64.69
   1  -5  -7 1411.46   65.69
   1  -5  -7 1358.36   68.49
   1   5  -7 1355.06   56.39
  -1   5   7 1300.67   59.79
   1   5  -7 1400.86   58.79
  -1   5   7 1328.67   60.19
  -1   5   7 1343.57   62.89
  -1   5   7 1374.56   56.39
   1   5  -7 1298.67   64.29
   0  -5   7 1429.36   63.79
   0  -5   7 1367.06   64.39
   0  -5  -7 1494.35   69.69
   0  -5  -7 1327.77   66.89
   0  -5  -7 1377.46   70.29
   0  -5   7 1420.06   64.09
   0   5   7 1348.86   62.39
   0   5  -7 1505.35   58.49
   0   5   7 1412.56   65.59
   0   5   7 1403.86   63.49
   0   5   7 1416.56   64.99
   0   5  -7 1441.56   60.29
  -1  -5  -7  101.49   27.20
  -1  -5  -7  100.99   36.70
   1  -5   7   52.29   21.50
   1  -5   7   61.29   22.60
  -1  -5  -7   86.49   30.90
   1  -5   7   -0.70   21.40
   1   5   7   80.39   27.80
  -1   5  -7   75.59   26.20
  -1   5  -7   47.70   18.30
  -1   5  -7   64.89   15.00
   1   5   7   66.99   25.40
   1   5   7   44.20   28.90
  -2  -5  -7 2570.44  107.19
   2  -5   7 2661.43   98.09
   2  -5   7 2582.64   99.09
   2  -5   7 2592.44   98.49
  -2  -5  -7 2465.95  106.39
  -2   5  -7 2464.25   84.29
  -2   5  -7 2778.02   97.49
   2   5   7 2647.04  104.49
   2   5   7 2542.25  103.89
   3  -5   7  127.09   25.90
   3  -5   7  113.69   30.60
  -3  -5  -7  150.38   35.70
  -3  -5  -7  123.69   32.30
   3  -5   7  120.19   26.30
   3   5   7  182.68   36.20
  -3   5  -7   91.39   22.20
   3   5   7  148.89   32.20
   4  -5   7 1700.73   76.99
  -4  -5  -7 1498.85   90.09
  -4  -5  -7 1611.44   88.49
   4  -5   7 1585.24   76.69
   4   5   7 1655.43   84.39
   4   5   7 1535.65   84.99
   4   5   7 1633.84   88.09
   5  -5   7  165.68   35.80
  -5  -5  -7  146.89   47.10
   5  -5   7  133.99   32.50
   5   5   7  114.29   53.59
   5   5   7  158.18   36.80
   5   5   7  250.97   47.10
   6  -5   7  253.07   41.40
   6  -5   7  275.57   47.40
  -6  -5  -7  251.17   50.29
   6   5   7  286.87   51.89
   6   5   7  285.27   51.29
   6   5   7  232.08   45.10
   8  -6  -7  525.45   57.39
  -8  -6   7  457.85   59.39
  -8  -6   7  503.85   63.09
  -8  -6   7  685.03   75.09
   8  -6  -7  529.35   56.69
   8   6  -7  481.35   96.99
   8   6  -7  587.34   69.79
   7  -6  -7   98.19   31.30
  -7  -6   7  -32.60   40.00
   7  -6  -7   50.69   36.10
  -7  -6   7   12.90   43.30
   7   6  -7   47.40   38.40
  -6  -6   7 1306.37   88.59
  -6  -6   7 1447.46   88.99
  -6  -6   7 1528.65   84.29
   6  -6  -7 1504.25   73.19
   6  -6  -7 1484.25   73.79
   6   6  -7 1578.94   83.39
  -6   6   7 1383.76   71.49
   6   6  -7 1582.54   87.09
  -5  -6   7   32.00   28.90
  -5  -6   7  -19.90   30.00
   5  -6  -7  -28.30   26.30
   5  -6  -7  -25.30   20.30
  -5  -6   7   59.39   33.50
   5   6  -7   13.90   27.10
   5   6  -7    5.40   28.30
  -5   6   7    1.40   18.90
  -5   6   7  -37.20   19.40
   5   6  -7   -2.10   26.50
  -4  -6   7 1411.66   73.09
   4  -6  -7 1363.26   65.29
   4  -6  -7 1385.86   68.69
  -4  -6   7 1375.16   75.29
  -4  -6   7 1447.16   74.59
   4  -6  -7 1436.36   68.69
  -4   6   7 1377.66   61.69
   4   6  -7 1424.96   68.09
   4   6  -7 1254.97   71.39
   4   6  -7 1432.16   71.89
  -3  -6   7    6.70   23.50
   3  -6  -7  -29.70   19.20
   3  -6  -7    0.10   21.40
   3  -6  -7    8.20   23.20
  -3  -6   7    7.60   28.40
  -3  -6   7   11.80   30.80
  -3  -6   7   -2.50   26.20
  -3   6   7   16.00   13.00
  -3   6   7   12.60   20.90
   3   6  -7   35.10   24.50
   3   6  -7   -9.80   22.70
   3   6  -7   21.90   24.10
   3   6  -7   11.40   26.40
  -3   6   7   21.80   17.30
  -2  -6   7 1364.46   66.99
   2  -6  -7 1351.86   64.29
   2  -6  -7 1403.46   66.99
  -2  -6   7 1298.47   67.79
   2  -6  -7 1334.27   66.29
  -2  -6   7 1397.36   68.89
   2   6  -7 1422.36   64.39
   2   6  -7 1309.37   59.69
  -2   6   7 1212.38   55.99
  -2   6   7 1382.06   59.09
  -2   6   7 1363.76   55.79
  -2   6   7 1407.36   68.39
   2   6  -7 1414.16   58.49
  -1  -6   7  133.59   27.30
   1  -6  -7   84.39   27.20
  -1  -6   7   53.59   23.00
   1  -6  -7  125.79   25.70
   1  -6  -7   70.49   25.70
  -1  -6   7   97.49   24.60
  -1   6   7   77.89   19.70
   1   6  -7  118.89   21.40
  -1   6   7  133.79   23.20
  -1   6   7  148.09   31.80
  -1   6   7   97.29   26.90
   1   6  -7  123.69   20.60
  -1   6   7   56.59   21.00
   0  -6   7  652.23   47.20
   0  -6  -7  698.03   51.79
   0  -6  -7  683.13   52.49
   0  -6  -7  593.24   48.40
   0  -6   7  630.64   45.10
   0  -6   7  685.23   43.80
   0   6   7  606.04   45.90
   0   6   7  635.54   54.29
   0   6  -7  668.43   40.10
   0   6   7  641.94   44.70
   0   6   7  632.74   44.80
   0   6   7  730.33   45.30
   1  -6   7   80.69   23.40
   1  -6   7   68.19   22.20
  -1  -6  -7   56.19   30.40
  -1  -6  -7   79.39   29.50
   1  -6   7   68.29   23.80
   1   6   7   47.20   30.60
  -1   6  -7   71.19   18.50
   1   6   7   62.49   31.00
   1   6   7   48.60   25.90
   1   6   7   84.99   25.20
   2  -6   7  134.69   26.70
  -2  -6  -7  140.29   34.70
   2  -6   7  138.29   27.20
  -2  -6  -7  122.79   31.80
   2  -6   7   90.99   27.40
  -2   6  -7  120.09   20.80
   2   6   7  145.09   38.90
   2   6   7  146.09   32.10
   2   6   7  127.79   30.00
   3  -6   7  149.59   27.90
   3  -6   7  155.38   29.00
  -3  -6  -7  164.78   39.90
  -3  -6  -7  127.39   39.00
   3   6   7  141.09   35.50
   3   6   7  113.29   33.40
  -4  -6  -7  122.09   43.10
   4  -6   7   62.59   24.90
  -4  -6  -7   98.09   41.00
   4  -6   7   85.39   28.40
   4   6   7   52.09   42.20
   4   6   7   80.99   33.00
   5  -6   7  111.79   29.50
  -5  -6  -7   61.89   41.40
  -5  -6  -7  105.59   59.49
   5   6   7   52.29   40.30
   5   6   7  113.09   47.70
   5   6   7   55.89   34.00
  -6  -6  -7  223.88   53.39
   6  -6   7  311.57   41.50
  -6  -6  -7  361.66   55.69
   6  -6   7  248.38   49.40
   6   6   7  272.47   51.59
   6   6   7  239.48   49.90
   6   6   7  300.07   48.80
  -8  -7   7  303.47   56.89
  -8  -7   7  282.57   54.89
  -8  -7   7  249.18   56.19
   8  -7  -7  217.38   36.80
   8  -7  -7  246.98   52.79
   8   7  -7  155.88   53.79
   8   7  -7  170.68   48.40
   7  -7  -7  442.66   48.80
  -7  -7   7  472.45   59.09
   7  -7  -7  486.35   51.99
  -7  -7   7  510.45   61.29
   7   7  -7  505.75   50.89
   7   7  -7  469.55   59.69
   7   7  -7  492.65   60.49
  -6  -7   7   70.49   43.40
  -6  -7   7   93.19   41.90
  -6  -7   7   88.29   44.20
   6  -7  -7   70.89   28.60
   6  -7  -7   81.09   30.60
   6   7  -7   85.59   33.70
   6   7  -7   66.59   42.30
   6   7  -7  100.19   35.40
  -5  -7   7 1330.27   81.79
  -5  -7   7 1320.27   82.89
   5  -7  -7 1377.46   67.09
  -5  -7   7 1474.25   83.29
   5   7  -7 1431.36   77.09
  -5   7   7 1307.17   59.39
   5   7  -7 1391.66   76.89
   5   7  -7 1417.46   73.89
   4  -7  -7   36.10   24.10
  -4  -7   7   19.00   28.00
  -4  -7   7   -3.70   31.30
  -4  -7   7    7.20   29.10
   4  -7  -7   -1.00   19.90
   4  -7  -7    2.30   30.10
   4   7  -7   68.09   32.10
  -4   7   7  -12.40   17.70
  -4   7   7   24.20   22.40
   4   7  -7   20.40   27.00
   4   7  -7  137.19   36.60
   4   7  -7   58.19   26.60
  -3  -7   7 2347.67   98.59
   3  -7  -7 2246.08   92.09
   3  -7  -7 2256.97   90.99
  -3  -7   7 2273.97  102.79
  -3  -7   7 2350.36   98.49
   3  -7  -7 2321.57   93.49
  -3  -7   7 2292.77  100.49
  -3   7   7 2388.76   93.59
   3   7  -7 2350.96   89.29
   3   7  -7 2340.67   88.79
  -3   7   7 2398.76   86.29
   3   7  -7 2354.56   93.89
   3   7  -7 2247.38  100.29
  -2  -7   7   37.40   24.50
  -2  -7   7   46.10   28.30
   2  -7  -7   70.49   25.70
   2  -7  -7   48.20   23.30
  -2  -7   7   57.19   30.30
   2  -7  -7    6.40   27.10
  -2  -7   7   36.80   25.10
   2   7  -7   73.79   19.50
  -2   7   7   55.19   16.70
   2   7  -7   27.70   27.90
  -2   7   7   49.99   19.20
   2   7  -7   22.90   18.00
  -2   7   7   72.99   27.00
   2   7  -7   10.50   28.80
   1  -7  -7 1685.43   78.79
  -1  -7   7 1628.04   74.69
  -1  -7   7 1726.83   76.59
  -1  -7   7 1686.33   74.79
   1  -7  -7 1651.73   75.69
   1  -7  -7 1751.22   79.29
  -1   7   7 1794.12   68.59
  -1   7   7 1638.04   80.39
   1   7  -7 1677.63   68.79
   0  -7   7  376.16   39.20
   0  -7  -7  362.16   42.40
   0  -7   7  320.27   40.20
   0  -7   7  482.95   39.50
   0  -7  -7  408.46   46.90
   0  -7  -7  387.96   43.70
   0   7   7  373.96   46.10
   0   7   7  407.86   37.40
   0   7  -7  376.76   32.90
   0   7   7  390.96   44.10
   0   7   7  480.25   45.60
  -1  -7  -7  272.77   38.00
   1  -7   7  253.17   30.30
   1  -7   7  296.97   35.80
   1  -7   7  339.47   35.70
  -1  -7  -7  333.37   42.00
  -1   7  -7  193.28   30.70
   1   7   7  324.17   40.20
   1   7   7  284.47   34.20
   1   7   7  255.87   42.30
   1   7   7  303.77   35.60
   2  -7   7  570.34   43.10
   2  -7   7  632.04   43.00
   2  -7   7  580.24   43.20
  -2  -7  -7  625.34   56.69
  -2  -7  -7  522.45   56.09
   2   7   7  544.75   50.19
   2   7   7  531.25   46.40
   3  -7   7   74.59   23.70
  -3  -7  -7   94.89   41.80
   3  -7   7   75.79   25.80
  -3  -7  -7   81.49   42.20
   3   7   7   94.59   46.40
   3   7   7  118.09   32.60
   3   7   7   80.19   33.90
   4  -7   7  347.87   39.50
   4  -7   7  361.96   42.20
   4   7   7  292.07   47.80
   4   7   7  254.87   47.90
   4   7   7  336.57   46.30
   5  -7   7  446.76   50.89
   5  -7   7  482.05   47.50
  -5  -7  -7  321.47   55.49
  -5  -7  -7  360.66   55.19
   5   7   7  373.86   52.19
   5   7   7  352.86   58.59
   5   7   7  492.65   58.49
   6  -7   7   32.10   30.00
  -6  -7  -7  103.19   50.49
  -6  -7  -7  104.49   53.89
   6   7   7   47.10   38.30
   6   7   7  -10.50   48.60
  -7  -8   7  239.08   54.49
  -7  -8   7  269.97   54.09
   7  -8  -7  212.68   40.30
   7  -8  -7  274.97   35.50
  -7  -8   7  372.46   56.19
   7   8  -7  385.36   59.29
   7   8  -7  249.78   44.80
  -6  -8   7   61.59   53.69
  -6  -8   7   61.19   44.80
  -6  -8   7   11.50   37.20
   6  -8  -7  102.79   28.30
   6  -8  -7   43.40   29.30
   6   8  -7   57.99   39.10
   6   8  -7   43.20   29.70
   6   8  -7   91.49   37.40
   5  -8  -7  -10.40   24.70
  -5  -8   7  -60.49   38.10
  -5  -8   7   -7.30   37.80
  -5  -8   7   35.30   39.00
  -5   8   7   51.39   24.00
   5   8  -7  -39.00   30.10
   5   8  -7   -8.30   29.10
   4  -8  -7  266.27   34.00
  -4  -8   7  335.27   45.50
  -4  -8   7  310.87   46.60
  -4  -8   7  335.07   50.69
   4  -8  -7  345.57   40.10
   4   8  -7  344.47   47.00
   4   8  -7  271.47   34.60
  -4   8   7  426.26   42.20
   4   8  -7  293.77   38.60
  -3  -8   7  141.99   33.20
   3  -8  -7  117.79   28.30
  -3  -8   7  131.09   38.70
  -3  -8   7  146.59   34.80
   3  -8  -7   80.39   24.80
   3   8  -7  216.88   43.80
   3   8  -7  102.09   36.10
  -3   8   7  150.98   31.80
   3   8  -7  127.19   24.20
   2  -8  -7  488.75   46.00
  -2  -8   7  363.86   41.60
   2  -8  -7  367.86   44.20
  -2  -8   7  409.46   45.70
  -2  -8   7  354.86   48.70
  -2  -8   7  355.96   41.20
   2  -8  -7  385.76   41.90
   2   8  -7  320.47   36.00
  -2   8   7  419.66   35.40
   2   8  -7  337.87   27.50
   2   8  -7  380.36   47.20
  -2   8   7  349.37   43.30
  -1  -8   7  526.55   48.90
  -1  -8   7  486.75   43.60
  -1  -8   7  495.25   46.10
   1  -8  -7  507.15   49.10
   1  -8  -7  516.95   46.40
   1  -8  -7  469.45   49.99
   1   8  -7  485.45   37.60
  -1   8   7  533.45   52.39
  -1   8   7  547.65   41.30
  -1   8   7  497.95   40.90
  -1   8   7  512.35   39.00
   0  -8   7  155.88   26.60
   0  -8  -7  195.78   36.40
   0  -8  -7  197.98   38.50
   0  -8   7   91.59   26.60
   0  -8   7  133.59   28.20
   0  -8  -7  137.59   32.00
   0   8   7   97.79   26.90
   0   8   7  130.29   26.10
   0   8   7  142.99   23.10
   0   8   7  214.58   41.70
   1  -8   7  752.72   48.80
   1  -8   7  800.22   48.40
  -1  -8  -7  722.83   58.69
  -1  -8  -7  817.72   64.29
   1   8   7  735.63   49.20
   1   8   7  707.83   54.89
  -2  -8  -7   18.60   34.50
   2  -8   7   -5.40   22.50
  -2  -8  -7  -17.80   32.40
   2  -8   7  -29.80   19.20
   2   8   7   18.60   26.10
   2   8   7   10.90   41.00
   2   8   7   35.20   29.20
  -3  -8  -7  914.01   83.29
   3  -8   7  949.60   57.09
   3  -8   7  966.90   55.99
   3   8   7  992.50   68.59
   3   8   7 1040.70   69.69
   3   8   7  848.72   68.49
  -4  -8  -7  -64.69   38.20
   4  -8   7   25.30   26.30
  -4  -8  -7  -88.69   34.50
   4  -8   7   14.10   28.80
   4   8   7   28.80   38.20
   4   8   7   23.50   36.40
  -5  -8  -7  551.64   67.79
   5  -8   7  601.44   58.79
   5  -8   7  641.14   50.69
  -5  -8  -7  671.93   77.49
   5   8   7  591.74   66.49
   5   8   7  570.74   71.29
   5   8   7  723.53   87.89
  -7  -9   7  142.99   55.19
   7  -9  -7   23.90   26.10
  -7  -9   7  -20.20   47.30
  -7  -9   7   49.40   50.89
   7   9  -7  109.89   35.40
   7   9  -7  -57.89   53.39
   7   9  -7   67.19   45.50
  -6  -9   7  352.76   56.29
   6  -9  -7  248.48   40.50
  -6  -9   7  336.37   56.19
  -6  -9   7  439.76   56.49
   6  -9  -7  402.26   50.59
   6   9  -7  457.05   53.79
   6   9  -7  396.06   50.89
   6   9  -7  372.36   52.69
   5  -9  -7   72.49   27.60
  -5  -9   7  131.49   46.40
  -5  -9   7  178.18   47.60
   5  -9  -7   65.19   32.80
  -5  -9   7   59.19   36.90
  -5   9   7  117.19   29.30
   5   9  -7  118.19   34.60
   5   9  -7   99.19   34.80
   5   9  -7  133.99   36.40
  -4  -9   7   87.79   45.50
   4  -9  -7   72.69   28.00
   4  -9  -7   95.39   26.30
  -4  -9   7   58.09   35.00
  -4  -9   7   82.29   40.40
  -4   9   7   73.79   27.00
   4   9  -7   50.29   25.40
   4   9  -7   48.90   30.60
  -3  -9   7  318.47   44.00
   3  -9  -7  265.87   36.00
   3  -9  -7  238.98   34.10
  -3  -9   7  317.37   40.90
  -3  -9   7  281.47   50.79
  -3   9   7  315.77   40.90
   3   9  -7  267.07   45.80
  -2  -9   7  220.48   47.50
  -2  -9   7  218.78   34.20
   2  -9  -7  206.58   32.10
  -2  -9   7  225.88   36.80
   2  -9  -7  217.48   32.30
  -2   9   7  201.68   38.80
   2   9  -7  201.88   27.20
   2   9  -7  225.58   42.00
   1  -9  -7  267.47   35.40
  -1  -9   7  275.77   34.90
  -1  -9   7  234.48   32.10
   1  -9  -7  223.88   34.20
  -1  -9   7  184.28   45.80
  -1   9   7  197.38   39.60
   1   9  -7  167.78   42.50
  -1   9   7  242.38   27.40
   0  -9   7 1474.15   69.89
   0  -9   7 1381.86   69.49
   0  -9  -7 1550.24   78.69
   0  -9  -7 1539.15   76.29
   0   9   7 1390.46   65.09
   0   9   7 1414.96   82.49
   1  -9   7   -1.90   21.70
  -1  -9  -7   21.40   31.20
  -1  -9  -7   38.00   31.10
   1  -9   7   -5.90   23.10
   1   9   7   24.70   22.80
   1   9   7   -0.20   26.10
  -2  -9  -7 1783.82   99.69
   2  -9   7 1782.62   77.29
   2  -9   7 1879.11   78.99
   2   9   7 1598.34   93.29
   2   9   7 1835.52   88.19
  -3  -9  -7   39.70   51.29
   3  -9   7   -2.70   23.70
   3  -9   7  -16.00   26.80
  -3  -9  -7   45.90   36.40
   3   9   7  -13.10   35.90
   3   9   7  106.49   40.10
   3   9   7  132.59   39.90
  -4  -9  -7 1096.79   87.59
  -4  -9  -7 1151.28   89.39
   4   9   7 1044.40   83.99
   4   9   7 1167.38   82.99
   4   9   7 1169.58   79.09
  -6 -10   7  855.01   88.79
  -6 -10   7  864.31   88.89
   6 -10  -7  911.91   54.29
  -6 -10   7  951.50   84.39
   6  10  -7  829.62   71.29
  -5 -10   7   21.20   42.20
  -5 -10   7   40.30   38.10
  -5 -10   7  109.19   43.00
   5 -10  -7   64.89   35.70
   5  10  -7   68.09   30.40
   5  10  -7   79.29   39.10
  -5  10   7   54.99   29.70
   4 -10  -7  898.31   60.69
  -4 -10   7  969.90   69.89
  -4 -10   7  865.41   79.49
  -4 -10   7  938.41   75.69
   4 -10  -7  822.72   55.29
   4  10  -7  781.82   67.99
  -4  10   7  769.42   60.99
  -3 -10   7    2.40   57.19
  -3 -10   7   -2.80   38.30
   3 -10  -7    6.40   26.70
  -3 -10   7   50.29   36.90
   3 -10  -7   83.49   27.10
  -3  10   7   17.00   31.20
   3  10  -7   -6.40   33.60
   2 -10  -7  369.16   41.90
   2 -10  -7  517.55   51.79
  -2 -10   7  482.15   50.49
  -2 -10   7  433.46   53.29
   2  10  -7  433.56   54.49
  -2  10   7  409.76   51.69
  -1 -10   7  117.79   33.70
   1 -10  -7   54.89   31.60
   1 -10  -7   73.69   28.90
  -1 -10   7   96.99   28.10
   1  10  -7   95.89   39.00
   0 -10   7  463.65   50.19
   0 -10  -7  483.85   52.39
   0 -10  -7  422.96   69.99
   0 -10   7  444.76   45.80
   0  10   7  528.85   56.59
   1 -10   7  419.76   49.30
   1 -10   7  270.37   34.90
  -1 -10  -7  339.27   48.80
  -1 -10  -7  334.87   43.00
   1  10   7  318.17   49.00
  -2 -10  -7   64.89   35.50
   2 -10   7   74.89   29.90
   2 -10   7   90.19   26.10
   2  10   7   59.19   28.80
   2  10   7   40.50   38.40
  -3 -10  -7  483.45   62.69
  -3 -10  -7  530.35   59.09
   3  10   7  466.45   60.79
   3  10   7  507.25   64.99
  -5 -11   7 1302.07   97.09
  -5 -11   7  956.80   84.19
   5 -11  -7 1120.39   57.19
  -5 -11   7 1067.29   85.59
  -5  11   7 1230.78   79.29
   5  11  -7 1100.79   81.69
  -4 -11   7   -9.80   46.40
  -4 -11   7    3.60   39.90
   4 -11  -7    3.40   23.60
  -4 -11   7   45.60   38.90
  -4  11   7   25.70   29.60
   4  11  -7   10.30   38.30
  -3 -11   7 1550.74   95.59
  -3 -11   7 1559.44   86.29
   3 -11  -7 1509.55   78.09
  -3 -11   7 1541.05  100.89
   3 -11  -7 1648.64   80.59
   3  11  -7 1532.55   93.69
   2 -11  -7    7.30   29.10
   2 -11  -7    0.40   29.50
  -2 -11   7   12.80   31.60
  -2 -11   7   -7.00   41.80
  -2 -11   7  -14.50   29.40
   2  11  -7   51.09   37.90
  -2  11   7  -40.10   28.60
  -1 -11   7 1221.28   86.89
   1 -11  -7 1158.18   72.39
   1 -11  -7 1304.57   71.99
  -1 -11   7 1034.50   77.89
  -1 -11   7 1322.87   73.09
   1  11  -7 1399.06   87.09
  -1  11   7 1157.88   75.69
   0 -11  -7   44.50   32.20
   0 -11   7   26.80   42.00
   0 -11  -7  103.59   39.20
   0 -11   7   19.90   31.10
   0  11   7   16.40   34.10
   1 -11   7  426.86   60.59
   1 -11   7  242.08   44.90
  -1 -11  -7  353.46   62.49
  -1 -11  -7  294.57   47.40
   1  11   7  258.47   49.60
  -2 -11  -7  278.87   44.00
  -2 -11  -7  203.88   48.50
   2  11   7  252.57   52.99
  -3 -12   7   40.50   37.60
  -3 -12   7  -13.10   52.49
   3 -12  -7   -7.90   25.20
  -3  12   7   61.69   33.40
   3  12  -7   16.10   41.30
  -2 -12   7  422.86   61.29
  -2 -12   7  358.06   59.69
   2 -12  -7  324.67   38.50
  -2 -12   7  402.36   47.80
   2 -12  -7  531.45   63.29
  -2  12   7  443.96   54.39
   2  12  -7  302.47   56.09
  -1 -12   7  267.67   47.20
   1 -12  -7  322.27   55.79
  -1 -12   7  219.88   54.59
   1 -12  -7  224.68   38.30
  -1 -12   7  243.38   36.20
   1  12  -7  286.27   51.99
  -1  12   7  278.27   48.80
   0 -12  -7   50.29   77.89
   0 -12   7  120.69   29.80
   0 -12   7  117.69   52.09
   0 -12  -7   66.69   36.70
   0  12   7   92.49   40.60
   9   0  -8    5.30   40.00
  -9   0   8  -54.49   40.40
   9   0  -8   35.80   41.40
  -9   0   8   85.69   48.80
   8   0  -8 1045.10   81.39
  -8   0   8 1118.99   76.49
  -8   0   8 1164.08   82.99
   7   0  -8   59.59   35.00
  -7   0   8   -5.30   27.70
  -7   0   8  -50.89   28.60
  -7   0   8  -58.39   27.90
   7   0  -8  -12.30   35.30
   6   0  -8 1270.87   74.59
  -6   0   8 1453.35   74.59
   6   0  -8 1442.86   75.29
  -6   0   8 1436.86   75.39
  -5   0   8   33.00   27.70
  -5   0   8    6.60   23.80
   5   0  -8  -36.80   26.00
   5   0  -8    5.40   24.60
   4   0  -8 2252.27   94.39
  -4   0   8 2281.97   93.89
  -4   0   8 2172.58   92.19
   4   0  -8 2244.68   94.39
  -3   0   8  -24.10   19.10
   3   0  -8   -1.30   22.40
  -3   0   8   -8.90   22.80
   3   0  -8   18.60   25.10
   2   0  -8  498.45   47.50
  -2   0   8  535.95   45.50
  -2   0   8  605.84   44.30
   2   0  -8  522.65   45.00
  -1   0   8   -1.20   23.20
   1   0  -8   35.60   23.40
  -1   0   8   -3.40   22.10
   1   0  -8  -10.50   25.60
   0   0  -8    4.20   21.70
   0   0  -8    1.90   25.50
   0   0   8    5.10   21.50
   0   0   8    7.60   22.90
  -1   0  -8    1.10   21.90
   1   0   8   20.20   24.40
   1   0   8  -35.50   20.70
  -1   0  -8   13.90   25.40
   2   0   8  283.67   37.00
  -2   0  -8  253.57   38.20
   2   0   8  299.77   37.20
  -2   0  -8  214.48   33.90
   3   0   8   41.40   27.40
  -3   0  -8   46.80   28.30
   3   0   8    6.40   27.10
  -3   0  -8  -17.70   26.50
   4   0   8  441.16   54.69
  -4   0  -8  554.34   54.69
  -4   0  -8  478.25   55.49
   4   0   8  479.35   57.39
  -5   0  -8  -65.89   31.30
   5   0   8   40.20   37.70
  -5   0  -8  -26.60   36.20
  -6   0  -8 1189.28   93.79
  -6   0  -8 1133.69   81.39
   6   0   8  928.21   77.49
   6   0   8 1049.59   83.29
  -9  -1   8  220.88   59.99
   9  -1  -8  240.58   46.90
  -9  -1   8   83.39   45.00
   9  -1  -8  168.58   48.10
   9   1  -8  227.18   50.29
  -9   1   8  186.38   47.20
   9   1  -8  182.68   48.10
  -8  -1   8   57.59   46.70
  -8  -1   8   98.89   28.70
  -8  -1   8   61.09   39.00
   8  -1  -8   11.90   62.79
   8  -1  -8   94.39   36.60
  -8   1   8  137.49   40.50
  -8   1   8  102.69   39.00
   8   1  -8  105.79   44.20
   8   1  -8  143.79   43.40
  -7  -1   8 1043.20   56.29
  -7  -1   8 1142.69   75.39
  -7  -1   8 1103.09   72.69
   7  -1  -8  886.51   69.99
   7  -1  -8 1077.99   71.59
  -7   1   8 1051.09   40.60
   7   1  -8 1059.09   75.69
  -7   1   8 1085.09   71.09
   7   1  -8  985.30   74.89
  -7   1   8 1009.20   67.59
  -6  -1   8   64.59   20.90
  -6  -1   8   18.70   29.90
  -6  -1   8   61.59   30.40
   6  -1  -8   27.70   29.90
   6  -1  -8   68.69   29.60
  -6   1   8   34.40   12.90
  -6   1   8   78.39   28.90
   6   1  -8   31.80   30.10
  -6   1   8   60.89   29.10
   6   1  -8    9.40   26.50
   5  -1  -8 2004.80   86.89
   5  -1  -8 1877.11   85.49
  -5  -1   8 1884.31   86.89
  -5  -1   8 1913.51   75.29
  -5  -1   8 1782.72   86.79
  -5   1   8 1884.61   66.19
   5   1  -8 1877.71   86.79
  -5   1   8 1968.90   86.59
   5   1  -8 1929.81   87.49
  -5   1   8 1838.92   84.09
  -4  -1   8  307.67   38.60
   4  -1  -8  324.67   37.80
   4  -1  -8  393.96   43.40
  -4  -1   8  359.26   35.00
  -4  -1   8  386.56   43.90
  -4   1   8  331.57   24.80
  -4   1   8  306.87   36.90
   4   1  -8  360.06   43.60
   4   1  -8  352.96   42.70
  -4   1   8  324.67   41.80
  -3  -1   8 1415.96   68.69
   3  -1  -8 1644.34   81.19
   3  -1  -8 1269.47   67.29
  -3  -1   8 1336.67   67.59
  -3   1   8 1350.56   66.49
   3   1  -8 1299.67   66.99
   3   1  -8 1387.16   69.29
  -3   1   8 1240.48   65.29
   2  -1  -8 1878.11   82.29
  -2  -1   8 1873.41   80.39
   2  -1  -8 1913.11   81.69
   2  -1  -8 2034.00   81.69
  -2  -1   8 1927.31   80.99
  -2   1   8 1773.22   78.79
  -2   1   8 1816.72   79.39
   2   1  -8 1823.72   80.49
   1  -1  -8  160.08   29.00
  -1  -1   8  189.88   28.00
  -1  -1   8  144.49   29.10
   1  -1  -8  159.48   30.70
  -1  -1   8  156.18   29.50
   1   1  -8  140.49   27.20
  -1   1   8  125.09   27.70
  -1   1   8  142.99   27.90
   1   1  -8  170.18   30.70
   1   1  -8  173.28   26.70
   0  -1   8 2182.78   89.39
   0  -1   8 2396.06   91.59
   0  -1  -8 2198.78   92.89
   0  -1   8 2110.39   89.09
   0  -1  -8 2328.17   92.69
   0   1   8 2377.46   92.49
   0   1  -8 2244.38   86.49
   0   1   8 2183.98   87.19
   0   1   8 2221.38   90.69
   0   1  -8 2244.08   91.29
   0   1  -8 2162.78   90.19
  -1  -1  -8  332.17   39.70
   1  -1   8  297.27   37.20
   1  -1   8  316.77   35.50
   1  -1   8  308.27   35.90
  -1  -1  -8  310.87   37.00
  -1   1  -8  338.17   37.30
   1   1   8  324.47   41.50
   1   1   8  279.57   35.50
  -1   1  -8  359.06   40.00
  -1   1  -8  293.97   35.90
   2  -1   8  770.72   54.19
   2  -1   8  736.23   53.89
  -2  -1  -8  833.02   57.89
  -2  -1  -8  816.42   57.09
   2   1   8  764.62   54.19
  -2   1  -8  813.12   53.29
  -2   1  -8  663.13   52.29
   2   1   8  845.72   58.09
  -2   1  -8 1002.50   60.69
  -3  -1  -8  746.63   62.09
   3  -1   8  785.12   56.99
   3  -1   8  673.13   54.39
  -3  -1  -8  817.22   59.79
   3   1   8  832.62   57.69
   3   1   8  790.92   59.39
  -3   1  -8  750.92   57.09
  -3   1  -8  794.72   54.89
  -4  -1  -8  121.49   36.30
   4  -1   8  141.19   37.90
   4  -1   8  128.89   34.90
  -4  -1  -8  160.68   39.80
   4   1   8  113.79   36.80
   4   1   8   97.39   34.00
  -4   1  -8  130.69   31.70
  -4   1  -8  112.09   34.00
   5  -1   8  577.34   70.59
  -5  -1  -8  553.54   62.19
  -5  -1  -8  599.24   64.69
  -5   1  -8  503.35   56.39
   5   1   8  530.25   64.79
   5   1   8  581.84   74.69
  -5   1  -8  505.15   58.09
  -6  -1  -8  -21.40   40.70
  -6  -1  -8  -23.60   40.70
   6  -1   8  -31.60   36.00
   6  -1   8   15.00   40.80
  -6   1  -8   64.09   40.20
  -6   1  -8  -17.30   42.90
   6   1   8  119.79   44.20
   6   1   8   26.70   40.00
  -9  -2   8  179.08   49.20
   9  -2  -8  266.57   49.20
   9  -2  -8  220.38   46.10
   9   2  -8  213.18   45.90
   9   2  -8  111.19   47.80
  -9   2   8  114.49   45.50
   8  -2  -8  -56.49   41.60
   8  -2  -8   -3.90   30.80
  -8  -2   8    9.00   42.80
  -8  -2   8    0.50   39.40
  -8  -2   8    4.60   29.50
  -8   2   8    6.50   46.60
   8   2  -8  -28.00   41.80
   8   2  -8  -37.90   35.80
  -8   2   8   20.60   33.70
   7  -2  -8   -4.10   32.90
  -7  -2   8   59.69   31.50
  -7  -2   8   33.60   26.60
  -7  -2   8   32.90   43.70
   7  -2  -8   94.39   35.20
   7   2  -8   37.60   35.40
  -7   2   8  -12.60   27.60
  -7   2   8   47.50   31.50
   7   2  -8   37.40   36.40
  -6  -2   8    6.10   22.60
   6  -2  -8   28.20   29.10
  -6  -2   8   14.40   32.60
   6  -2  -8   -2.50   28.00
  -6  -2   8   36.50   30.00
   6   2  -8   86.69   33.20
  -6   2   8   39.70   29.70
   6   2  -8  -10.10   27.00
  -6   2   8   -8.50   25.00
   5  -2  -8  346.47   44.20
  -5  -2   8  315.47   41.20
   5  -2  -8  323.77   37.80
  -5  -2   8  348.27   40.60
  -5  -2   8  251.07   31.00
   5   2  -8  307.27   39.20
  -5   2   8  237.78   35.40
  -5   2   8  301.37   14.90
   5   2  -8  321.67   39.50
  -5   2   8  318.97   40.00
  -5   2   8  279.57   36.30
  -4  -2   8   80.19   29.70
  -4  -2   8   89.69   29.50
   4  -2  -8   16.80   29.50
   4  -2  -8   55.89   26.30
  -4  -2   8   16.60   21.60
   4   2  -8   56.59   28.00
  -4   2   8   53.29   25.00
  -4   2   8   33.20   10.90
   4   2  -8   21.60   25.00
  -4   2   8   32.20   24.90
  -4   2   8   27.30   25.20
   3  -2  -8 1364.96   66.79
   3  -2  -8 1324.07   66.49
   3  -2  -8 1273.87   68.79
  -3  -2   8 1326.37   67.29
  -3  -2   8 1285.37   67.69
  -3   2   8 1293.97   63.99
   3   2  -8 1361.86   68.19
  -3   2   8 1309.37   64.79
  -3   2   8 1255.77   62.29
   3   2  -8 1334.37   67.29
  -3   2   8 1396.56   52.49
  -2  -2   8   22.60   24.70
   2  -2  -8   23.60   26.40
  -2  -2   8   17.20   29.10
  -2  -2   8   56.09   23.40
   2  -2  -8   42.00   25.80
   2  -2  -8    4.70   22.00
   2   2  -8   46.20   25.20
  -2   2   8   46.00   24.80
  -2   2   8   47.90   22.50
   2   2  -8   26.70   25.80
   2   2  -8   74.69   28.70
  -2   2   8   77.69   17.60
  -2   2   8   28.60   21.30
  -1  -2   8 1833.32   78.59
  -1  -2   8 1672.13   76.19
   1  -2  -8 2038.50   91.39
   1  -2  -8 1779.72   79.59
   1  -2  -8 1758.22   79.39
  -1  -2   8 1777.82   78.39
  -1   2   8 1701.63   76.79
  -1   2   8 1877.11   78.49
   1   2  -8 1832.02   77.29
   1   2  -8 1804.12   78.09
  -1   2   8 1847.52   71.39
   1   2  -8 1713.33   74.39
   0  -2   8   40.10   25.10
   0  -2  -8  -17.90   22.80
   0  -2   8   21.50   24.00
   0  -2   8    0.60   21.60
   0  -2  -8   11.60   25.70
   0   2  -8  -31.40   21.20
   0   2  -8    2.00   20.60
   0   2   8   34.80   24.40
   0   2   8   -7.60   23.00
   0   2   8  -20.90   21.00
  -1  -2  -8 1712.13   81.89
   1  -2   8 1751.42   78.79
   1  -2   8 1748.43   78.99
   1  -2   8 1840.02   80.29
  -1  -2  -8 1714.23   82.69
  -1   2  -8 1722.03   78.09
   1   2   8 1785.92   81.99
   1   2   8 1788.82   80.89
  -1   2  -8 1843.92   74.09
  -1   2  -8 1842.62   79.59
   2  -2   8  -20.20   23.50
  -2  -2  -8   55.09   29.60
   2  -2   8  -37.90   22.30
  -2  -2  -8  -22.10   23.40
   2  -2   8   21.30   31.10
   2   2   8    3.60   27.30
  -2   2  -8  -35.70   22.50
  -2   2  -8   42.80   26.60
  -2   2  -8   47.00   26.90
   2   2   8    1.00   26.20
  -3  -2  -8 1645.24   81.79
   3  -2   8 1452.75   75.69
  -3  -2  -8 1477.85   80.19
   3  -2   8 1522.85   75.99
  -3   2  -8 1567.24   74.89
  -3   2  -8 1484.15   73.49
  -3   2  -8 1583.94   73.79
   3   2   8 1521.05   79.39
   3   2   8 1505.15   78.69
  -4  -2  -8   24.80   32.00
  -4  -2  -8  -20.70   34.60
   4  -2   8   68.49   32.70
   4  -2   8   24.80   32.10
   4   2   8   81.79   35.20
   4   2   8   27.80   34.30
  -4   2  -8   15.30   28.70
  -4   2  -8   36.30   27.40
   5  -2   8  494.85   78.79
  -5  -2  -8  502.85   59.19
  -5  -2  -8  499.05   61.99
   5  -2   8  431.86   54.59
   5   2   8  513.85   66.09
  -5   2  -8  503.65   51.89
  -5   2  -8  461.25   54.59
   6  -2   8   80.39   38.10
   6  -2   8   -7.90   33.50
  -6  -2  -8   16.70   41.90
  -6  -2  -8  -10.20   50.99
   6   2   8  -14.90   39.80
   6   2   8   15.00   39.70
  -6   2  -8  -76.99   32.50
  -9  -3   8  210.78   48.60
   9  -3  -8  159.88   45.60
  -9  -3   8   38.40   51.09
   9  -3  -8  156.58   43.10
  -9  -3   8  107.49   51.19
   9   3  -8  108.29   44.50
   9   3  -8   38.40   46.20
   8  -3  -8  330.57   58.19
   8  -3  -8  221.48   41.20
  -8  -3   8  288.87   40.50
  -8  -3   8  125.89   48.30
  -8  -3   8  234.18   51.39
   8   3  -8  238.18   48.80
   8   3  -8  259.97   47.80
  -8   3   8  247.68   53.29
  -8   3   8  248.28   35.40
   7  -3  -8  714.03   59.89
  -7  -3   8  627.54   66.79
  -7  -3   8  547.55   53.39
   7  -3  -8  581.14   59.99
  -7  -3   8  609.44   69.19
   7   3  -8  556.44   65.89
  -7   3   8  616.24   49.99
  -7   3   8  574.74   55.69
   7   3  -8  690.23   69.39
   6  -3  -8   31.90   27.80
  -6  -3   8   23.80   33.30
  -6  -3   8   60.59   29.00
   6  -3  -8   -9.10   26.90
  -6  -3   8   26.70   27.00
  -6   3   8  -16.70   25.70
   6   3  -8  -13.60   27.20
   6   3  -8   11.70   32.90
  -6   3   8   -5.70   25.20
  -5  -3   8 1358.46   75.39
   5  -3  -8 1280.37   68.89
  -5  -3   8 1349.86   66.29
  -5  -3   8 1284.77   72.79
   5  -3  -8 1359.16   70.69
   5  -3  -8 1345.97   75.99
  -5   3   8 1352.36   66.19
   5   3  -8 1293.07   71.19
   5   3  -8 1348.37   73.79
  -5   3   8 1298.87   67.89
  -5   3   8 1382.46   68.69
   4  -3  -8  155.78   31.50
  -4  -3   8  119.79   31.70
   4  -3  -8  180.48   32.50
  -4  -3   8  148.89   28.40
  -4  -3   8  165.28   33.90
  -4   3   8  170.58   30.00
   4   3  -8  148.89   32.80
   4   3  -8  123.99   30.90
  -4   3   8  133.29   27.30
  -4   3   8  152.28   28.70
  -3  -3   8  666.53   49.40
   3  -3  -8  494.15   48.60
  -3  -3   8  623.04   50.79
   3  -3  -8  652.23   50.79
   3  -3  -8  592.84   47.90
  -3   3   8  607.94   46.70
  -3   3   8  687.13   40.80
  -3   3   8  627.94   43.90
  -3   3   8  607.84   44.30
   3   3  -8  609.34   48.10
   3   3  -8  632.84   48.40
   2  -3  -8 2029.10   87.89
  -2  -3   8 2055.59   87.09
   2  -3  -8 2089.69   87.39
  -2  -3   8 2100.39   86.79
   2  -3  -8 2090.89   87.29
  -2  -3   8 2095.29   86.99
  -2   3   8 2249.38   86.79
  -2   3   8 1950.80   83.69
  -2   3   8 2057.09   85.29
  -2   3   8 2146.69   75.69
   2   3  -8 2096.59   86.39
   2   3  -8 1938.61   81.69
   2   3  -8 2067.29   86.89
   1  -3  -8  -14.50   24.20
  -1  -3   8    5.00   25.10
  -1  -3   8    5.40   22.90
   1  -3  -8   -6.80   23.80
   1  -3  -8   45.40   26.20
  -1  -3   8  -16.50   23.10
   1   3  -8    5.40   22.70
  -1   3   8   10.10   25.10
  -1   3   8   55.09   20.00
   1   3  -8   13.30   22.40
   1   3  -8   51.49   23.80
  -1   3   8   42.60   24.20
  -1   3   8    9.00   23.10
   0  -3  -8 2818.72  109.39
   0  -3   8 2862.81  106.59
   0  -3   8 2721.43  105.19
   0  -3   8 2817.92  106.99
   0  -3  -8 2812.32  110.09
   0   3  -8 2782.02  105.69
   0   3   8 2810.92  107.19
   0   3   8 2734.23  102.89
   0   3   8 2816.62  107.09
   0   3  -8 2752.12  100.29
   0   3  -8 2777.52  102.99
  -1  -3  -8   16.50   28.60
   1  -3   8   25.70   23.90
   1  -3   8   16.50   23.40
   1  -3   8   68.49   27.30
  -1  -3  -8   38.90   27.10
   1   3   8   20.90   25.50
  -1   3  -8   49.10   22.00
   1   3   8  -13.40   24.40
  -1   3  -8   34.50   23.30
   2  -3   8 1375.86   69.29
   2  -3   8 1394.26   70.69
  -2  -3  -8 1481.45   76.19
   2  -3   8 1419.96   72.99
  -2  -3  -8 1309.07   74.89
  -2   3  -8 1349.36   67.09
  -2   3  -8 1484.85   65.59
   2   3   8 1411.36   73.89
   2   3   8 1450.85   75.29
   3  -3   8  308.77   38.90
  -3  -3  -8  421.96   51.99
   3  -3   8  255.67   47.20
  -3  -3  -8  368.66   47.60
   3  -3   8  335.47   41.10
   3   3   8  395.86   49.90
   3   3   8  327.87   43.70
  -3   3  -8  421.36   46.20
   4  -3   8  310.07   44.10
  -4  -3  -8  370.56   48.00
   4  -3   8  340.97   41.80
  -4  -3  -8  367.66   54.39
   4   3   8  397.46   51.79
   4   3   8  284.17   45.60
  -4   3  -8  458.75   47.70
   5  -3   8  701.23   68.39
  -5  -3  -8  675.23   72.09
   5  -3   8  550.24   57.49
  -5  -3  -8  633.14   77.79
  -5   3  -8  581.04   57.19
   5   3   8  535.25   68.39
  -6  -3  -8  -33.00   44.60
   6  -3   8   -2.30   34.10
   6  -3   8  -52.89   36.20
   6   3   8  -26.30   41.00
   6   3   8  -26.20   41.00
   9  -4  -8  114.29   46.30
  -9  -4   8   12.60   48.90
  -9  -4   8  -37.90   47.70
   9  -4  -8   -2.00   36.80
   9   4  -8  -48.60   42.90
   9   4  -8   96.29   49.10
  -8  -4   8 1087.89   87.99
   8  -4  -8 1044.20   90.49
   8  -4  -8 1186.58   75.69
  -8  -4   8 1043.10   78.99
   8   4  -8 1175.68   88.29
   8   4  -8 1120.79   84.49
   7  -4  -8   -1.60   34.50
  -7  -4   8   -7.80   40.50
  -7  -4   8  -15.50   29.20
   7  -4  -8   15.20   29.90
   7   4  -8   23.00   39.50
  -7   4   8   26.10   23.40
  -7   4   8  -17.00   31.30
  -6  -4   8 1044.50   72.69
  -6  -4   8  869.41   72.39
   6  -4  -8  998.50   65.99
   6  -4  -8 1074.69   66.39
  -6  -4   8 1079.29   64.29
   6   4  -8  980.80   67.59
   6   4  -8  984.80   75.59
  -5  -4   8    1.80   26.60
   5  -4  -8    6.80   26.20
  -5  -4   8    7.40   25.60
   5  -4  -8  -10.70   34.50
  -5  -4   8  -12.70   28.70
   5  -4  -8   16.90   24.10
  -5   4   8   41.80   20.00
   5   4  -8  -20.50   27.50
  -5   4   8  -34.80   23.90
   5   4  -8  -33.50   26.30
  -5   4   8   32.40   23.30
  -4  -4   8  875.41   59.09
  -4  -4   8  878.71   59.89
   4  -4  -8 1008.60   63.79
   4  -4  -8  828.42   60.29
   4  -4  -8  807.62   53.79
  -4  -4   8  774.02   58.89
   4   4  -8  874.41   60.79
   4   4  -8  911.11   58.39
  -4   4   8  817.42   52.49
  -4   4   8  882.91   50.79
  -4   4   8  844.22   58.19
  -3  -4   8   92.89   29.40
   3  -4  -8   70.39   27.60
   3  -4  -8   77.89   28.40
  -3  -4   8   86.49   28.10
   3  -4  -8   65.59   25.50
  -3   4   8   49.99   24.60
   3   4  -8   60.29   26.20
  -3   4   8   85.59   24.80
  -3   4   8   66.09   10.40
  -3   4   8   80.39   25.10
   3   4  -8   90.09   27.70
   2  -4  -8  862.51   57.19
  -2  -4   8  885.81   55.19
   2  -4  -8  904.21   58.19
  -2  -4   8 1057.59   59.29
   2  -4  -8  989.00   56.49
  -2  -4   8  828.92   55.29
  -2   4   8  991.00   51.79
  -2   4   8  912.41   41.90
  -2   4   8  864.51   51.99
   2   4  -8  932.91   55.99
   2   4  -8  843.42   50.79
   2   4  -8  913.81   55.39
  -2   4   8  833.22   50.59
  -1  -4   8  123.89   28.10
  -1  -4   8  193.08   30.40
   1  -4  -8  193.58   31.50
   1  -4  -8  140.79   31.90
  -1  -4   8  149.49   32.80
   1  -4  -8  140.89   28.90
   1   4  -8  168.58   27.30
  -1   4   8  133.29   29.50
  -1   4   8  100.69   27.50
  -1   4   8  179.18   29.60
   1   4  -8  207.58   30.00
   1   4  -8  224.38   26.40
  -1   4   8  184.28   24.90
   0  -4  -8   34.90   25.70
   0  -4  -8    1.40   24.00
   0  -4   8   42.60   23.80
   0  -4   8   12.00   21.20
   0  -4   8   22.80   25.10
   0   4  -8   44.00   21.00
   0   4  -8   16.70   21.90
   0   4   8   36.80   22.90
   0   4   8   18.10   25.30
   0   4   8   52.09   24.60
  -1  -4  -8  102.89   30.90
   1  -4   8  162.68   29.00
   1  -4   8   97.39   31.80
  -1  -4  -8   94.79   32.30
   1  -4   8  146.19   29.10
   1   4   8   98.19   28.20
   1   4   8  114.49   30.60
  -1   4  -8  140.79   24.00
  -1   4  -8  152.28   25.60
  -1   4  -8  111.59   24.60
   2  -4   8   94.99   28.20
   2  -4   8   36.80   23.50
  -2  -4  -8   50.59   30.40
   2  -4   8   80.79   34.30
  -2  -4  -8   94.69   32.30
  -2   4  -8   92.59   23.20
  -2   4  -8  118.49   32.70
  -2   4  -8   42.60   20.90
   2   4   8  124.29   31.50
   2   4   8   23.80   28.60
   3  -4   8   11.80   25.30
  -3  -4  -8   45.60   31.40
  -3  -4  -8   -9.90   31.40
   3  -4   8    3.50   24.60
   3   4   8   73.09   32.90
  -3   4  -8  -26.00   19.00
  -3   4  -8   13.20   29.10
   3   4   8   25.90   28.70
   4  -4   8  488.75   55.69
  -4  -4  -8  510.35   58.89
   4  -4   8  521.75   47.90
  -4  -4  -8  503.65   62.69
   4   4   8  614.34   68.99
   4   4   8  536.65   61.19
   5  -4   8   26.30   36.00
  -5  -4  -8    3.20   41.60
  -5  -4  -8  107.99   45.70
   5  -4   8   38.90   29.40
   5   4   8   71.69   39.20
   6  -4   8 1098.69   73.29
   6  -4   8  924.91   75.49
  -6  -4  -8  856.11   84.09
  -6  -4  -8  891.51   82.89
   6   4   8 1087.89   85.19
   6   4   8 1109.39   84.49
   6   4   8 1040.20   76.29
   8  -5  -8   15.80   70.89
  -8  -5   8  -10.90   42.10
  -8  -5   8  -32.50   41.90
  -8  -5   8    7.50   46.30
   8  -5  -8  117.49   36.90
   8   5  -8   49.70   47.00
   8   5  -8  -47.20   39.20
  -7  -5   8  977.20   83.39
   7  -5  -8  902.61   77.19
  -7  -5   8  910.51   88.79
   7  -5  -8  967.70   66.59
  -7  -5   8 1072.39   77.99
   7   5  -8  998.30   80.29
   7   5  -8  916.11   80.89
  -6  -5   8  -16.60   36.00
  -6  -5   8   39.50   40.60
   6  -5  -8   -3.60   29.30
   6  -5  -8  -24.40   26.60
  -6  -5   8  -30.80   28.50
  -6   5   8  -21.50   22.40
  -6   5   8   18.50   20.00
   6   5  -8  -93.29   34.20
   6   5  -8  -37.70   29.20
  -5  -5   8 2285.47  103.39
  -5  -5   8 2230.58  102.79
   5  -5  -8 2222.18   94.59
  -5  -5   8 2098.29   97.39
   5   5  -8 2297.47   99.89
  -5   5   8 2184.18   81.59
  -5   5   8 2239.38   80.19
   5   5  -8 2228.28   97.79
   4  -5  -8   19.30   33.20
  -4  -5   8   48.90   28.10
   4  -5  -8   24.10   22.70
   4  -5  -8   -6.40   27.30
  -4  -5   8   -5.00   27.90
  -4  -5   8   37.90   29.80
  -4   5   8   49.50   21.50
  -4   5   8   23.30   21.40
  -4   5   8   -4.60   21.50
  -4   5   8   -3.70   27.40
   4   5  -8   78.09   28.50
   4   5  -8    7.40   25.50
  -3  -5   8 1213.78   67.29
  -3  -5   8 1108.79   66.09
   3  -5  -8 1179.68   62.69
   3  -5  -8 1127.49   63.89
  -3  -5   8 1198.08   66.59
   3  -5  -8 1285.17   68.99
  -3   5   8 1180.08   57.89
  -3   5   8 1070.69   56.49
   3   5  -8 1219.28   65.49
  -3   5   8 1220.18   58.49
  -3   5   8 1268.07   62.69
   3   5  -8 1322.47   70.69
   3   5  -8 1133.09   62.79
   2  -5  -8  701.03   53.09
   2  -5  -8  852.21   55.59
  -2  -5   8  749.03   58.19
   2  -5  -8  672.13   51.39
  -2  -5   8  659.13   51.19
  -2  -5   8  810.92   52.69
  -2   5   8  735.03   48.20
  -2   5   8  723.73   36.40
   2   5  -8  710.33   51.69
   2   5  -8  777.62   49.10
   2   5  -8  759.02   50.19
  -2   5   8  655.53   45.70
  -2   5   8  734.43   49.00
  -1  -5   8   69.19   25.20
  -1  -5   8  114.39   28.50
   1  -5  -8   35.00   26.20
   1  -5  -8   86.89   29.70
   1  -5  -8   82.19   29.10
  -1  -5   8   81.59   30.40
   1   5  -8   90.19   23.70
  -1   5   8   55.89   21.60
  -1   5   8   70.99   24.80
  -1   5   8  138.99   28.80
  -1   5   8   78.79   26.30
   1   5  -8   56.29   22.90
   0  -5   8  870.81   53.09
   0  -5  -8  905.11   62.59
   0  -5   8 1001.20   58.09
   0  -5   8  866.41   53.79
   0  -5  -8  876.01   58.39
   0   5  -8  974.00   48.60
   0   5   8  895.41   55.29
   0   5   8  853.91   56.59
   0   5  -8  875.01   46.40
   0   5   8  902.01   53.09
  -1  -5  -8  153.28   34.80
   1  -5   8  147.89   33.10
   1  -5   8  129.69   27.20
   1  -5   8  124.19   29.00
  -1  -5  -8  171.58   36.60
   1   5   8  165.18   31.40
   1   5   8  102.59   29.80
  -1   5  -8  123.09   20.50
  -1   5  -8  149.99   23.30
   2  -5   8  543.95   47.50
   2  -5   8  489.05   48.10
  -2  -5  -8  555.64   55.99
  -2  -5  -8  527.25   55.69
   2  -5   8  488.65   52.89
  -2   5  -8  550.24   33.40
  -2   5  -8  472.55   39.50
   2   5   8  550.74   54.69
   2   5   8  544.25   52.29
  -3  -5  -8  666.13   64.59
   3  -5   8  526.55   51.29
  -3  -5  -8  577.94   69.09
   3  -5   8  618.94   52.59
   3   5   8  567.54   56.19
  -3   5  -8  652.83   44.00
   3   5   8  606.44   60.59
   4  -5   8  172.38   38.70
  -4  -5  -8  248.38   49.40
   4  -5   8  270.77   38.30
   4   5   8  200.88   45.50
   5  -5   8  744.93   61.09
   5  -5   8  890.41   72.79
  -5  -5  -8  797.42   76.59
  -5  -5  -8  832.92   79.39
   5   5   8  753.22   68.39
   5   5   8  928.61   78.49
   6  -5   8   40.90   35.60
   6  -5   8    4.30   37.20
  -6  -5  -8  -48.10   43.30
  -6  -5  -8   67.99   50.39
   6   5   8  -60.49   35.20
   6   5   8   11.90   43.80
   6   5   8  -20.40   47.10
  -8  -6   8  195.58   51.49
   8  -6  -8  194.38   39.20
  -8  -6   8   62.19   46.30
  -8  -6   8  190.08   55.29
   8   6  -8  117.49   46.30
   8   6  -8  223.98   51.09
  -7  -6   8   14.00   37.10
   7  -6  -8  -27.10   34.40
  -7  -6   8   37.90   41.00
  -7  -6   8   24.70   42.10
   7  -6  -8    3.40   28.00
   7   6  -8  -34.10   34.50
   7   6  -8    9.00   43.00
  -6  -6   8  235.48   46.70
   6  -6  -8  198.78   38.30
  -6  -6   8  253.27   49.80
   6  -6  -8  249.48   39.00
  -6  -6   8  290.97   49.30
   6   6  -8  195.38   42.30
   6   6  -8  245.58   40.30
   5  -6  -8  253.87   36.10
  -5  -6   8  264.77   46.80
  -5  -6   8  200.18   43.60
  -5  -6   8  287.47   45.00
  -5   6   8  240.58   29.90
  -5   6   8  274.77   34.90
   5   6  -8  326.37   41.10
   5   6  -8  276.77   39.50
  -4  -6   8   85.99   32.70
   4  -6  -8  141.39   32.30
   4  -6  -8  159.38   33.30
  -4  -6   8   92.99   33.80
   4  -6  -8  127.49   29.90
  -4  -6   8   21.10   30.80
  -4   6   8  139.49   27.40
  -4   6   8  126.39   23.20
   4   6  -8   75.19   30.80
   4   6  -8   98.69   31.60
  -4   6   8  112.49   25.60
  -4   6   8   79.89   16.50
  -3  -6   8  955.90   61.49
   3  -6  -8  923.91   56.79
   3  -6  -8  856.11   62.59
  -3  -6   8 1013.40   65.89
   3  -6  -8  939.81   58.69
  -3  -6   8  957.40   62.59
  -3   6   8  905.91   54.39
  -3   6   8  882.41   46.30
  -3   6   8  926.11   55.39
   3   6  -8 1006.40   56.19
   3   6  -8  907.31   57.69
   3   6  -8  919.01   58.99
  -2  -6   8   40.70   27.20
   2  -6  -8   60.19   32.90
  -2  -6   8   41.70   33.30
   2  -6  -8   59.19   28.10
   2  -6  -8   27.50   23.00
   2   6  -8   42.80   24.00
  -2   6   8   52.39   15.30
   2   6  -8   68.29   24.50
  -2   6   8    7.10   22.90
  -2   6   8   40.60   22.10
   2   6  -8   24.20   24.40
  -2   6   8   85.29   21.90
  -2   6   8   73.49   28.00
   1  -6  -8  851.71   55.89
  -1  -6   8  858.61   59.79
  -1  -6   8  905.51   55.59
   1  -6  -8  885.61   63.09
   1  -6  -8  823.62   60.39
  -1  -6   8  872.71   54.49
   1   6  -8  853.31   63.99
   1   6  -8  854.81   46.70
  -1   6   8  863.91   51.49
  -1   6   8  871.71   49.50
  -1   6   8  873.71   54.49
  -1   6   8  957.40   55.39
  -1   6   8  882.11   59.49
   1   6  -8  874.71   47.00
   0  -6   8   41.00   25.90
   0  -6   8   20.00   29.30
   0  -6  -8   29.60   26.30
   0  -6   8   19.20   21.40
   0  -6  -8   28.10   29.00
   0   6   8   16.90   30.70
   0   6  -8   27.90   16.40
   0   6   8    7.50   37.90
   0   6   8   27.10   25.10
   0   6  -8   39.00   16.30
   0   6   8   21.20   32.00
   0   6  -8   15.60   19.10
   0   6   8   37.00   23.80
  -1  -6  -8 1407.76   77.19
   1  -6   8 1454.85   67.29
   1  -6   8 1387.76   67.99
  -1  -6  -8 1298.37   75.89
   1  -6   8 1454.35   68.89
   1   6   8 1310.27   79.69
   1   6   8 1269.07   71.59
   1   6   8 1380.66   70.29
  -1   6  -8 1354.26   61.59
  -2  -6  -8  156.18   37.80
   2  -6   8  130.99   29.00
   2  -6   8  139.89   30.30
  -2  -6  -8  142.29   39.20
  -2   6  -8  109.59   23.40
   2   6   8  130.29   32.40
   2   6   8  165.78   38.70
   2   6   8  183.58   35.50
   3  -6   8 1123.59   67.99
  -3  -6  -8 1216.68   82.89
  -3  -6  -8 1027.20   83.99
   3  -6   8 1232.68   63.39
   3   6   8 1164.38   76.49
   3   6   8 1110.69   75.29
   3   6   8 1058.29   71.29
  -4  -6  -8   88.19   55.79
   4  -6   8   55.19   30.40
  -4  -6  -8   -0.60   36.70
   4   6   8    0.50   35.60
   4   6   8    1.70   38.10
   4   6   8   22.00   39.20
  -5  -6  -8  600.94   68.59
   5  -6   8  481.85   56.09
   5  -6   8  543.25   64.69
  -5  -6  -8  528.05   63.39
   5   6   8  526.25   61.79
   5   6   8  488.65   62.29
   5   6   8  537.15   63.79
  -7  -7   8  248.28   53.09
  -7  -7   8  181.28   52.59
   7  -7  -8  235.48   40.60
  -7  -7   8  190.28   47.10
   7  -7  -8  254.27   43.30
   7   7  -8  286.47   58.19
   7   7  -8  219.28   49.20
  -6  -7   8    8.00   41.70
  -6  -7   8   -2.60   40.80
   6  -7  -8  -21.20   28.40
  -6  -7   8    3.10   37.00
   6   7  -8   61.49   40.30
   6   7  -8   41.80   35.60
  -5  -7   8  576.64   65.09
  -5  -7   8  516.25   67.79
   5  -7  -8  636.64   54.79
  -5  -7   8  681.83   70.29
   5   7  -8  590.24   59.19
  -5   7   8  615.54   45.00
   5   7  -8  431.16   55.89
  -4  -7   8  454.75   54.09
   4  -7  -8  483.55   49.30
  -4  -7   8  510.05   57.79
   4  -7  -8  592.64   50.29
  -4  -7   8  498.55   61.19
  -4   7   8  529.55   45.80
  -4   7   8  431.96   39.50
   4   7  -8  587.74   49.90
   4   7  -8  553.24   53.69
   3  -7  -8  176.28   32.00
  -3  -7   8  150.98   34.80
  -3  -7   8  206.88   36.50
  -3  -7   8  145.29   40.40
   3  -7  -8  187.28   33.00
  -3   7   8  284.97   35.10
   3   7  -8  167.38   30.20
  -3   7   8  209.68   33.90
   3   7  -8  186.88   34.10
  -2  -7   8 1499.55   77.19
   2  -7  -8 1561.64   76.39
  -2  -7   8 1541.25   83.89
   2  -7  -8 1708.63   77.59
   2  -7  -8 1461.85   75.79
  -2  -7   8 1502.35   77.59
  -2  -7   8 1612.34   82.89
   2   7  -8 1591.84   66.29
  -2   7   8 1549.14   61.49
   2   7  -8 1595.44   78.09
  -2   7   8 1348.86   58.49
  -2   7   8 1499.35   76.79
   1  -7  -8   37.50   31.60
   1  -7  -8    9.20   26.80
   1  -7  -8  186.98   41.40
  -1  -7   8   25.90   31.50
  -1  -7   8   14.00   24.40
  -1  -7   8   56.49   26.90
  -1   7   8   63.89   31.60
  -1   7   8   52.69   29.60
  -1   7   8   69.09   26.70
   1   7  -8   38.80   16.00
   1   7  -8   -4.00   19.60
  -1   7   8   59.19   23.30
   1   7  -8   33.40   17.40
   0  -7   8 2138.39   91.69
   0  -7   8 2253.17   93.49
   0  -7  -8 2372.86   98.89
   0  -7  -8 2162.48   99.69
   0   7   8 2105.59  102.09
   0   7   8 2187.08   91.79
   0   7  -8 2225.58   84.99
   0   7   8 2334.87   89.99
  -1  -7  -8   14.60   32.80
   1  -7   8   74.39   27.00
  -1  -7  -8  -17.20   30.90
   1  -7   8   41.90   22.10
   1   7   8   11.10   25.90
   1   7   8   19.40   27.20
  -1   7  -8    6.90   20.40
   1   7   8   76.99   37.50
   2  -7   8 1361.06   68.29
   2  -7   8 1295.67   69.99
  -2  -7  -8 1353.76   89.19
  -2  -7  -8 1375.36   83.39
   2   7   8 1282.67   74.39
   2   7   8 1381.26   76.39
   3  -7   8  204.18   31.20
   3  -7   8  259.57   38.40
   3   7   8  229.78   41.90
   3   7   8  223.88   45.10
   3   7   8  290.97   47.40
  -4  -7  -8  328.27   53.99
   4  -7   8  233.28   35.80
  -4  -7  -8  374.56   55.39
   4  -7   8  245.08   39.90
   4   7   8  261.67   48.10
   4   7   8  314.37   54.69
   4   7   8  287.37   49.90
  -5  -7  -8  169.98   49.20
  -5  -7  -8  220.18   52.49
   5  -7   8  169.58   34.60
   5  -7   8  142.99   49.20
   5   7   8   84.59   45.50
   5   7   8  171.98   50.39
   5   7   8  160.08   45.30
   7  -8  -8   29.20   31.60
  -7  -8   8  -82.39   45.10
   7  -8  -8   22.30   49.80
  -7  -8   8   29.30   46.10
  -7  -8   8  125.99   48.60
   7   8  -8  -17.70   51.39
   7   8  -8   16.00   43.90
  -6  -8   8  674.13   73.99
  -6  -8   8  770.72   76.89
  -6  -8   8  691.53   77.99
   6  -8  -8  918.41   60.09
   6  -8  -8  821.42   63.09
   6   8  -8  862.41   72.59
  -5  -8   8   21.70   37.50
   5  -8  -8    5.80   31.40
  -5  -8   8   26.30   41.90
  -5   8   8  -33.50   25.50
   5   8  -8   76.09   35.40
   5   8  -8   14.30   36.20
   4  -8  -8  816.62   59.49
  -4  -8   8  913.61   77.89
  -4  -8   8  863.41   73.99
  -4  -8   8  863.51   75.79
   4  -8  -8  716.83   53.59
   4   8  -8  872.71   60.79
   4   8  -8  890.51   57.39
  -4   8   8  987.10   57.39
   3  -8  -8   37.70   29.50
  -3  -8   8   45.80   32.50
  -3  -8   8   16.80   38.20
   3  -8  -8   28.90   29.20
  -3  -8   8   71.09   35.70
  -3   8   8   42.20   24.60
   3   8  -8   11.30   24.20
   3   8  -8   75.69   29.10
  -3   8   8   58.69   29.80
  -2  -8   8  235.98   47.70
   2  -8  -8  169.18   36.10
   2  -8  -8  273.87   38.10
  -2  -8   8  216.18   36.30
  -2  -8   8  210.38   37.70
   2   8  -8  247.18   28.80
  -2   8   8  199.78   38.80
   2   8  -8  197.28   31.60
  -2   8   8  310.47   35.80
   1  -8  -8  404.86   44.30
   1  -8  -8  358.56   43.30
  -1  -8   8  336.07   39.60
  -1  -8   8  375.66   41.60
  -1   8   8  332.67   33.20
  -1   8   8  381.06   48.30
   1   8  -8  367.56   36.80
  -1   8   8  279.27   43.70
   0  -8  -8   -8.10   31.30
   0  -8   8   -2.80   25.40
   0  -8  -8   65.49   33.20
   0  -8   8  -12.50   23.70
   0   8   8   40.90   24.70
   0   8   8   23.40   33.10
   0   8   8    9.60   26.70
   0   8  -8   13.80   26.00
  -1  -8  -8  240.08   46.40
  -1  -8  -8  176.58   40.10
   1  -8   8  189.18   33.40
   1  -8   8  128.59   32.10
   1   8   8  146.59   30.70
   1   8   8  128.29   31.50
   1   8   8  178.68   58.19
   2  -8   8   67.99   30.20
  -2  -8  -8   28.80   44.00
   2  -8   8  123.49   29.00
  -2  -8  -8   29.10   46.80
   2   8   8   82.49   34.40
   2   8   8   56.99   32.20
   2   8   8   94.99   37.70
  -3  -8  -8   57.09   43.50
  -3  -8  -8  197.98   45.90
   3  -8   8  141.59   32.00
   3   8   8  200.68   41.00
   3   8   8  185.28   44.50
   3   8   8  260.97   45.70
   4  -8   8  284.37   44.00
  -4  -8  -8  355.16   55.99
  -4  -8  -8  409.36   58.59
   4  -8   8  382.76   45.90
   4   8   8  326.67   49.60
   4   8   8  274.47   51.89
   4   8   8  377.16   64.69
  -6  -9   8   34.40   47.80
  -6  -9   8   39.50   42.30
  -6  -9   8   82.29   46.90
   6  -9  -8   26.70   26.80
   6  -9  -8   81.29   38.50
   6   9  -8   20.00   45.30
   6   9  -8   32.80   44.30
   5  -9  -8 1208.28   75.29
   5  -9  -8 1232.68   68.29
  -5  -9   8 1317.37   90.09
  -5  -9   8 1170.18   82.39
  -5  -9   8  982.70   84.49
   5   9  -8 1350.86   77.59
   5   9  -8 1276.37   80.59
   4  -9  -8  117.29   30.60
  -4  -9   8   47.80   41.80
  -4  -9   8  -10.30   40.60
  -4  -9   8   61.89   34.80
   4   9  -8   55.69   28.20
   4   9  -8   84.99   34.60
   4   9  -8   77.49   35.60
  -4   9   8   39.60   30.40
  -3  -9   8  986.40   70.29
   3  -9  -8 1030.30   64.19
   3  -9  -8 1063.49   66.19
  -3  -9   8 1185.18  107.09
  -3   9   8 1116.19   69.69
   2  -9  -8  410.36   47.90
  -2  -9   8  435.36   49.10
   2  -9  -8  427.16   52.39
  -2  -9   8  444.76   50.69
  -1  -9   8  139.69   31.40
  -1  -9   8  138.49   34.90
   1  -9  -8  104.99   35.30
   1  -9  -8   92.69   35.50
  -1   9   8  180.38   49.40
   0  -9   8  332.77   38.20
   0  -9   8  373.66   43.40
   0  -9  -8  525.65   56.89
   0   9   8  432.36   51.99
   0   9   8  368.06   63.79
  -1  -9  -8  146.29   38.10
  -1  -9  -8  128.19   43.60
   1  -9   8  156.38   36.10
   1  -9   8  190.88   31.50
   1   9   8  115.39   34.80
   1   9   8  129.79   39.90
   1   9   8  180.88   30.80
  -2  -9  -8   98.49   45.20
  -2  -9  -8   75.19   37.90
   2  -9   8   79.19   33.20
   2   9   8   69.09   35.60
   2   9   8  134.79   41.80
   2   9   8   26.90   37.40
   3  -9   8  542.95   48.60
  -3  -9  -8  757.62   71.09
  -3  -9  -8  459.45   62.39
   3  -9   8  513.25   54.99
   3   9   8  505.45   54.09
   3   9   8  429.06   58.69
  -5 -10   8  142.49   49.20
  -5 -10   8  179.28   45.30
  -5 -10   8  114.99   43.80
   5 -10  -8  109.59   30.00
   5 -10  -8   94.69   44.30
   5  10  -8  151.98   41.10
  -5  10   8  139.09   36.50
  -4 -10   8  155.18   49.90
   4 -10  -8  125.39   29.00
   4 -10  -8  122.19   39.70
  -4 -10   8  146.99   67.69
  -4 -10   8  143.99   43.30
   4  10  -8  302.97   49.30
  -3 -10   8  523.65   59.69
   3 -10  -8  420.76   45.10
   3 -10  -8  447.76   51.29
  -3 -10   8  431.16   60.09
  -3 -10   8  390.86   52.89
  -3  10   8  393.56   55.29
   3  10  -8  567.74   61.89
  -2 -10   8  102.39   38.60
  -2 -10   8  122.59   38.60
   2 -10  -8  177.68   35.20
  -2 -10   8   79.59   33.00
   2 -10  -8   50.89   31.80
  -2  10   8   56.29   31.50
   1 -10  -8  752.32   59.89
  -1 -10   8  733.63   63.39
   1 -10  -8  804.72   68.79
  -1 -10   8  853.91   59.49
  -1 -10   8  743.73   75.69
  -1  10   8  845.02   64.89
   0 -10   8   63.79   28.10
   0 -10   8   49.99   34.20
   0 -10  -8  -43.80   38.40
   0 -10  -8  -11.20   29.50
   0 -10   8    9.10   39.10
   0  10   8  -34.90   31.30
   1 -10   8  576.74   57.59
  -1 -10  -8  623.74   61.19
   1 -10   8  614.24   50.89
   1  10   8  529.35   66.59
   2 -10   8   23.90   25.20
   2 -10   8   -9.40   33.70
  -2 -10  -8   15.80   37.50
  -2 -10  -8   38.30   41.00
   2  10   8  124.09   36.70
   2  10   8   46.60   40.30
  -4 -11   8  207.58   57.99
   4 -11  -8  264.37   36.20
  -4 -11   8  195.58   47.40
  -4 -11   8  253.97   52.49
  -4  11   8  139.99   30.20
   4  11  -8  279.87   50.59
   3 -11  -8   44.40   29.40
  -3 -11   8   99.59   49.10
  -3 -11   8   88.09   39.00
   3 -11  -8   81.49   41.00
  -3  11   8  137.39   32.50
   3  11  -8  149.29   45.00
   2 -11  -8  936.51   66.59
  -2 -11   8 1075.39   88.69
   2 -11  -8  972.50   79.69
  -2 -11   8  946.31   79.39
  -2 -11   8 1019.10   73.89
  -2  11   8 1049.00   72.59
   1 -11  -8  -16.10   31.10
  -1 -11   8  -65.79   41.20
  -1 -11   8   -6.90   30.60
  -1 -11   8   77.79   44.90
   1 -11  -8   -3.50   42.20
  -1  11   8  -13.70   32.00
   0 -11   8 1638.54  107.09
   0 -11   8 1713.53   83.09
   0 -11   8 1591.74   88.79
   0 -11  -8 1833.22   92.39
   0  11   8 1741.33   99.89
   1 -11   8  137.99   48.30
  -1 -11  -8   47.80   37.20
   1 -11   8  -13.70   25.80
  -1 -11  -8 -102.69   39.60
   1  11   8   39.50   40.40
   9   0  -9   77.29   48.10
  -9   0   9   32.40   47.80
   9   0  -9  -41.20   42.00
  -9   0   9   25.30   58.69
  -8   0   9  101.59   63.59
  -8   0   9   -1.60   40.40
   8   0  -9   -1.30   37.40
   8   0  -9  -48.70   38.10
   7   0  -9  419.96   54.39
  -7   0   9  519.85   58.39
  -7   0   9  432.26   54.79
   7   0  -9  605.54   64.89
  -6   0   9  -29.70   27.40
   6   0  -9  -34.40   30.80
  -6   0   9   12.30   18.90
  -6   0   9  -36.60   34.50
   6   0  -9   -7.20   33.10
   5   0  -9  802.82   60.79
  -5   0   9  892.11   63.79
  -5   0   9  899.01   47.00
  -5   0   9  811.22   59.59
   5   0  -9  819.92   59.79
  -4   0   9  -22.20   26.60
   4   0  -9  -21.50   28.10
  -4   0   9   -5.70   17.90
  -4   0   9  -12.20   28.20
   4   0  -9   17.70   26.90
  -3   0   9 1579.84   76.09
  -3   0   9 1604.84   76.69
   3   0  -9 1558.24   77.29
   3   0  -9 1532.25   77.49
  -2   0   9   -9.00   24.60
   2   0  -9    5.70   24.80
  -2   0   9   15.20   24.20
   1   0  -9 2188.28   93.29
  -1   0   9 2189.88   92.09
   1   0  -9 2101.29   93.79
  -1   0   9 2184.98   91.79
   0   0   9  -31.60   23.30
   0   0   9  -26.20   23.00
   0   0  -9  -24.70   26.20
   0   0  -9   -1.20   26.80
   1   0   9 1007.60   63.59
  -1   0  -9 1139.09   66.69
  -1   0  -9 1103.19   65.49
   1   0   9 1224.18   67.49
  -2   0  -9   -4.30   30.70
   2   0   9  -22.20   24.50
  -2   0  -9   -1.40   28.90
   2   0   9   13.50   27.50
  -3   0  -9  666.73   58.69
   3   0   9  689.33   60.19
   3   0   9  685.93   62.89
  -3   0  -9  708.23   64.19
   4   0   9    9.10   37.20
  -4   0  -9  -20.80   37.20
  -4   0  -9   -5.30   33.80
   4   0   9   66.39   38.80
   5   0   9  -10.60   37.60
   5   0   9   44.00   37.70
  -5   0  -9  -24.50   50.09
  -5   0  -9  -42.10   35.50
   6   0   9   33.20   45.30
  -6   0  -9   58.39   44.50
  -6   0  -9   56.19   51.89
   6   0   9   -9.40   42.00
   9  -1  -9  577.54   73.09
   9  -1  -9  532.35   63.79
  -9  -1   9  497.55   64.19
  -9   1   9  665.83   77.69
   9   1  -9  586.84   74.49
   9   1  -9  645.44   78.49
  -8  -1   9  -16.50   36.90
   8  -1  -9  -23.50   35.90
   8  -1  -9  -11.40   35.00
  -8  -1   9  -30.70   44.10
  -8   1   9  -61.89   37.10
   8   1  -9   47.30   40.10
  -8   1   9   10.50   41.10
   8   1  -9    7.00   38.50
  -7  -1   9  928.01   54.99
   7  -1  -9  869.81   79.39
  -7  -1   9  988.00   72.69
  -7  -1   9 1061.69   83.79
   7  -1  -9 1106.79   77.29
  -7   1   9  985.40   74.09
   7   1  -9 1132.59   85.59
  -7   1   9 1012.60   72.29
   7   1  -9  983.60   76.19
  -6  -1   9  509.35   57.49
   6  -1  -9  544.85   60.19
   6  -1  -9  582.24   58.59
  -6  -1   9  705.63   45.50
  -6  -1   9  543.85   60.69
  -6   1   9  612.54   30.30
   6   1  -9  567.74   59.79
  -6   1   9  524.85   56.79
  -6   1   9  655.03   57.99
   6   1  -9  543.85   63.79
   5  -1  -9  453.35   50.69
  -5  -1   9  429.86   50.89
  -5  -1   9  434.46   52.59
  -5  -1   9  427.16   38.70
   5  -1  -9  434.26   50.69
  -5   1   9  463.05   48.70
   5   1  -9  322.27   43.90
  -5   1   9  476.05   49.10
   5   1  -9  454.75   50.79
  -4  -1   9 1631.74   80.19
  -4  -1   9 1662.23   80.79
  -4  -1   9 1642.54   69.69
   4  -1  -9 1567.34   80.29
   4  -1  -9 1638.44   80.39
   4   1  -9 1646.94   80.89
  -4   1   9 1781.42   80.29
   4   1  -9 1580.64   80.59
  -4   1   9 1586.84   77.99
  -3  -1   9  106.49   31.70
  -3  -1   9   56.09   28.80
   3  -1  -9  113.49   31.50
  -3   1   9   69.69   26.60
   3   1  -9   72.29   29.10
   3   1  -9   76.79   30.90
  -3   1   9   92.19   31.20
  -2  -1   9 1276.67   67.99
   2  -1  -9 1214.18   70.09
  -2  -1   9 1285.67   68.49
   2  -1  -9 1321.07   70.59
  -2   1   9 1311.97   67.19
   2   1  -9 1267.67   68.19
   2   1  -9 1463.15   70.29
  -2   1   9 1373.36   68.89
   1  -1  -9  365.96   44.90
  -1  -1   9  267.87   34.60
  -1  -1   9  333.77   37.80
   1  -1  -9  333.17   41.10
   1   1  -9  376.26   44.20
  -1   1   9  343.97   39.10
  -1   1   9  300.07   36.70
  -1   1   9  343.77   43.00
   0  -1  -9 1162.28   68.39
   0  -1   9 1159.98   65.89
   0  -1  -9 1211.68   68.59
   0  -1   9 1277.27   66.49
   0   1  -9 1086.49   65.39
   0   1   9 1239.98   66.69
   0   1  -9 1202.48   66.19
   0   1   9 1304.77   67.99
   1  -1   9  812.32   56.39
   1  -1   9  724.53   56.69
  -1  -1  -9  776.42   57.19
  -1  -1  -9  769.32   61.09
   1   1   9  826.42   56.99
   1   1   9  782.32   56.79
  -1   1  -9  630.84   53.99
  -1   1  -9  739.53   55.39
   2  -1   9  394.96   47.60
  -2  -1  -9  308.47   43.20
  -2  -1  -9  367.16   43.80
   2  -1   9  378.36   47.80
  -2   1  -9  462.25   49.00
   2   1   9  330.77   42.00
   2   1   9  372.36   42.90
  -2   1  -9  349.87   42.70
  -3  -1  -9  770.52   65.09
   3  -1   9  742.23   65.29
   3  -1   9  834.52   65.99
  -3  -1  -9  895.91   67.19
  -3   1  -9  869.31   62.89
   3   1   9  903.81   66.19
   3   1   9  861.71   67.59
  -3   1  -9  895.01   62.39
   4  -1   9   39.60   39.20
   4  -1   9  -23.90   37.10
  -4  -1  -9   31.30   41.30
  -4  -1  -9   39.90   31.80
   4   1   9   70.49   41.00
   4   1   9    0.90   40.00
  -4   1  -9   35.40   33.60
  -4   1  -9   15.90   33.90
  -5  -1  -9  427.16   55.89
   5  -1   9  353.56   51.59
   5  -1   9  587.34   64.59
  -5  -1  -9  501.65   58.89
   5   1   9  395.46   54.49
   5   1   9  571.24   66.79
  -5   1  -9  406.06   51.79
  -5   1  -9  420.46   53.09
  -6  -1  -9   44.20   44.10
   6  -1   9    4.40   45.10
  -6  -1  -9  142.49   60.39
   6  -1   9   76.59   44.40
   6   1   9   72.69   46.70
   6   1   9   80.29   46.70
  -6   1  -9  156.48   54.49
  -9  -2   9   56.09   50.09
   9  -2  -9   15.50   42.10
   9  -2  -9   -5.20   45.10
   9   2  -9   51.99   45.10
   9   2  -9   27.90   47.90
  -8  -2   9 1000.90   84.49
   8  -2  -9 1025.70   76.69
  -8  -2   9  974.50   66.19
   8  -2  -9 1180.18   85.09
  -8  -2   9  996.60   90.69
   8   2  -9 1048.50   81.69
   8   2  -9 1173.98   86.69
  -8   2   9  964.40   79.49
  -7  -2   9   52.29   38.60
   7  -2  -9   48.70   39.10
  -7  -2   9   10.90   45.00
  -7  -2   9   64.49   30.20
  -7   2   9    7.70   33.30
  -7   2   9   54.99   35.40
   6  -2  -9  940.71   67.69
  -6  -2   9  866.51   66.39
   6  -2  -9  938.41   68.69
  -6  -2   9  837.12   76.89
  -6  -2   9  919.61   56.09
   6   2  -9  830.92   70.29
  -6   2   9  964.40   62.39
  -6   2   9  958.70   64.79
   6   2  -9  898.11   67.99
  -5  -2   9    4.10   31.60
  -5  -2   9   -4.00   27.00
   5  -2  -9    8.70   26.80
  -5  -2   9   15.90   23.60
   5  -2  -9  -38.00   25.70
  -5   2   9    5.50   26.70
   5   2  -9  -30.00   26.90
   5   2  -9  -15.00   29.70
  -5   2   9   -3.60    8.00
  -5   2   9   19.00   27.80
  -5   2   9   18.40    9.40
  -4  -2   9  159.08   34.20
  -4  -2   9  167.68   34.40
  -4  -2   9  131.89   28.20
   4  -2  -9  119.19   31.00
   4   2  -9  140.69   31.80
  -4   2   9  108.69   30.20
  -4   2   9  149.09   33.90
  -4   2   9  188.18   19.10
  -4   2   9  104.69   18.40
   4   2  -9  167.38   34.40
  -3  -2   9   19.90   25.80
  -3  -2   9   33.60   28.40
   3  -2  -9   30.40   28.80
   3  -2  -9  -28.80   23.70
  -3   2   9   32.90   24.40
   3   2  -9   -7.50   26.80
  -3   2   9   51.59   18.50
  -3   2   9  -20.70   25.40
   3   2  -9    2.50   26.40
  -2  -2   9   19.00   25.00
   2  -2  -9  -19.10   23.10
   2  -2  -9   -3.90   27.60
  -2  -2   9   10.30   24.80
   2   2  -9    2.10   25.40
   2   2  -9   10.60   25.00
  -2   2   9   -1.70   21.50
  -2   2   9    5.10   22.90
  -2   2   9    1.30   25.00
   1  -2  -9   -5.40   26.90
  -1  -2   9   -6.90   23.60
  -1  -2   9   22.60   25.70
   1  -2  -9  -30.10   25.50
  -1   2   9   -7.80   24.60
  -1   2   9  -17.10   23.30
   1   2  -9  -31.60   24.40
   1   2  -9   -5.60   23.30
  -1   2   9   11.80   23.30
   0  -2   9   99.29   28.80
   0  -2  -9  138.09   32.60
   0  -2  -9  119.99   30.70
   0  -2   9   76.19   29.00
   0   2   9  106.69   29.90
   0   2  -9  140.79   29.80
   0   2   9  115.29   30.50
  -1  -2  -9  -28.20   26.90
   1  -2   9    6.00   26.70
  -1  -2  -9   -2.80   28.40
   1  -2   9   26.30   25.30
   1   2   9   40.10   28.20
   1   2   9    0.40   26.70
  -1   2  -9   28.40   29.10
  -1   2  -9   30.10   24.70
  -2  -2  -9  910.11   65.89
  -2  -2  -9  903.21   64.19
   2  -2   9  791.42   60.99
   2  -2   9  954.70   62.59
  -2   2  -9  823.92   58.19
  -2   2  -9  823.42   58.89
   2   2   9  863.51   62.29
   2   2   9  918.11   63.49
   3  -2   9  -20.30   32.30
   3  -2   9   15.70   31.70
  -3  -2  -9   32.50   31.60
  -3  -2  -9  -75.79   35.00
   3   2   9    1.80   32.70
  -3   2  -9   61.29   30.30
  -3   2  -9   35.80   30.40
   3   2   9   31.40   35.50
   4  -2   9 1412.46   88.09
  -4  -2  -9 1474.35   87.89
  -4  -2  -9 1436.96  102.19
  -4   2  -9 1562.04   78.69
  -4   2  -9 1505.55   81.99
   4   2   9 1492.85   92.29
  -5  -2  -9   49.50   44.20
   5  -2   9   12.70   37.50
   5  -2   9  -41.20   32.90
  -5  -2  -9  -24.30   46.20
  -5   2  -9   26.10   37.10
  -5   2  -9   54.99   41.70
   5   2   9   46.50   37.70
   5   2   9   36.40   40.40
   6  -2   9 1076.69   87.99
  -6  -2  -9 1064.29  101.09
   6  -2   9 1277.27   89.59
  -6  -2  -9 1222.98   87.49
   6   2   9 1297.87   93.59
   6   2   9 1254.37   91.59
  -8  -3   9  -70.19   34.60
  -8  -3   9    9.50   43.10
   8  -3  -9   12.50   38.00
   8  -3  -9  -28.10   33.10
   8   3  -9  -38.20   38.20
   8   3  -9   22.60   41.40
  -8   3   9   61.19   35.20
  -7  -3   9 1090.79   67.79
  -7  -3   9  971.80   83.79
   7  -3  -9 1004.80   82.19
  -7  -3   9 1047.70   83.39
   7  -3  -9  990.90   72.99
  -7   3   9  961.30   71.69
   7   3  -9  989.40   76.39
   7   3  -9 1050.29   80.89
  -6  -3   9  214.58   48.60
  -6  -3   9   97.59   38.60
   6  -3  -9  231.88   43.70
   6  -3  -9  285.97   43.40
  -6  -3   9  158.38   33.80
  -6   3   9  282.57   37.80
   6   3  -9  214.28   46.00
  -6   3   9  183.78   34.10
   6   3  -9  201.08   42.50
  -5  -3   9  626.64   56.89
   5  -3  -9  532.65   53.89
  -5  -3   9  529.85   49.99
   5  -3  -9  585.64   56.09
  -5  -3   9  573.94   57.59
   5   3  -9  564.84   55.39
  -5   3   9  514.65   50.39
  -5   3   9  439.16   47.60
   5   3  -9  435.16   54.79
   4  -3  -9 1223.58   68.19
  -4  -3   9 1233.38   64.29
  -4  -3   9 1210.58   69.89
  -4  -3   9 1151.98   68.59
  -4   3   9 1167.28   39.80
  -4   3   9 1141.19   64.39
  -4   3   9 1190.18   64.69
   4   3  -9 1160.88   68.79
  -4   3   9 1196.58   40.40
   4   3  -9 1127.89   71.29
   3  -3  -9   24.40   29.50
  -3  -3   9   44.90   28.10
  -3  -3   9   19.00   27.90
   3  -3  -9   -2.70   24.70
   3   3  -9   24.80   24.70
   3   3  -9   40.50   28.10
  -3   3   9   51.49   25.50
  -3   3   9   10.90   16.00
  -3   3   9  -14.60   23.20
   2  -3  -9 1194.48   68.49
  -2  -3   9 1272.27   69.49
   2  -3  -9 1242.08   70.79
  -2  -3   9 1377.36   70.09
  -2   3   9 1369.86   67.29
   2   3  -9 1268.37   67.39
  -2   3   9 1291.27   69.29
  -2   3   9 1363.16   58.89
   2   3  -9 1223.28   67.19
   1  -3  -9  242.28   36.20
  -1  -3   9  158.68   32.00
   1  -3  -9  172.58   34.60
  -1  -3   9  118.99   30.40
  -1   3   9  222.08   35.40
  -1   3   9  184.68   30.90
   1   3  -9  153.48   31.50
  -1   3   9  174.78   32.20
   1   3  -9  142.59   30.40
   0  -3   9  828.62   54.29
   0  -3  -9  644.54   55.49
   0  -3  -9  704.03   56.39
   0  -3   9  657.53   53.19
   0   3  -9  661.83   50.49
   0   3   9  758.52   54.49
   0   3  -9  711.13   52.19
   0   3   9  791.02   56.19
   0   3  -9  770.32   55.39
   1  -3   9  705.93   55.69
  -1  -3  -9  737.53   59.29
   1  -3   9  724.03   54.49
  -1  -3  -9  631.74   57.69
  -1   3  -9  704.83   55.29
   1   3   9  717.93   54.69
   1   3   9  653.13   54.49
  -1   3  -9  721.13   51.69
  -2  -3  -9   43.80   28.90
   2  -3   9   32.80   29.30
  -2  -3  -9  100.69   37.70
   2  -3   9   76.29   29.80
   2   3   9   50.99   32.10
  -2   3  -9  129.39   29.70
   2   3   9   73.19   31.80
  -3  -3  -9  803.62   72.49
   3  -3   9  827.32   66.59
   3  -3   9  847.82   66.29
  -3  -3  -9  663.33   66.19
  -3   3  -9  776.62   58.39
   3   3   9  703.53   64.49
   3   3   9  942.71   72.19
   4  -3   9   39.80   33.50
   4  -3   9   36.70   41.90
  -4  -3  -9   -7.20   41.80
  -4  -3  -9   35.10   68.39
   4   3   9   -9.50   38.50
  -4   3  -9    8.40   31.70
   4   3   9   51.29   41.30
   5  -3   9  624.74   62.79
   5  -3   9  816.52   67.89
  -5  -3  -9  657.23   79.79
   5   3   9  704.13   72.49
   5   3   9  681.83   71.49
  -8  -4   9   27.00   45.70
  -8  -4   9   41.80   45.60
   8  -4  -9   20.20   33.90
  -8  -4   9   30.20   45.70
   8  -4  -9  114.39   42.40
   8   4  -9  -56.09   39.30
   8   4  -9   48.00   46.60
   7  -4  -9  448.36   54.79
  -7  -4   9  301.47   79.39
  -7  -4   9  381.56   80.69
  -7  -4   9  425.06   55.69
   7  -4  -9  396.26   46.40
   7   4  -9  318.47   56.19
   7   4  -9  422.36   53.99
  -7   4   9  310.97   46.60
   6  -4  -9   24.70   32.40
  -6  -4   9   35.30   39.90
  -6  -4   9   79.59   30.40
  -6  -4   9   92.69   42.60
   6  -4  -9   14.30   32.50
   6   4  -9   54.89   36.20
  -6   4   9   30.30   26.90
  -6   4   9   60.39   30.20
   6   4  -9   80.69   43.30
   5  -4  -9  858.81   62.99
  -5  -4   9  980.10   65.49
   5  -4  -9 1125.19   66.69
  -5  -4   9  942.01   69.59
  -5  -4   9  959.50   69.89
   5   4  -9 1053.19   69.99
   5   4  -9  951.20   67.09
  -5   4   9  990.50   61.49
  -5   4   9 1004.80   59.19
  -5   4   9  942.41   51.89
  -4  -4   9   33.80   27.50
   4  -4  -9  -42.20   30.20
  -4  -4   9    3.50   29.50
   4  -4  -9    0.00   26.40
  -4  -4   9   31.70   27.70
  -4   4   9  -24.80   31.10
  -4   4   9   17.80   26.70
   4   4  -9   -1.70   27.60
   4   4  -9   -0.70   30.00
  -4   4   9   34.30   26.00
   3  -4  -9 1088.09   64.19
   3  -4  -9 1166.28   67.69
  -3  -4   9 1106.19   65.89
  -3  -4   9 1114.79   67.29
   3   4  -9  965.90   62.29
  -3   4   9 1159.08   67.49
  -3   4   9 1155.48   61.09
   3   4  -9 1151.38   64.99
  -3   4   9 1194.98   62.29
  -2  -4   9  -59.59   21.60
  -2  -4   9   45.20   28.20
   2  -4  -9  -32.60   22.20
   2  -4  -9   17.10   29.00
  -2   4   9    2.70   20.80
  -2   4   9  -11.90   25.30
  -2   4   9   62.19   24.90
   2   4  -9   30.00   24.90
   2   4  -9   18.60   24.40
   1  -4  -9 1130.89   69.69
   1  -4  -9 1279.67   71.89
  -1  -4   9 1267.67   69.89
  -1  -4   9 1236.88   67.29
   1   4  -9 1266.87   64.49
  -1   4   9 1304.27   65.19
  -1   4   9 1299.77   66.99
   1   4  -9 1303.17   63.29
  -1   4   9 1186.68   67.69
   1   4  -9 1220.38   64.89
   0  -4   9   41.00   25.50
   0  -4   9   88.39   28.50
   0  -4  -9   38.20   27.30
   0  -4  -9   19.30   28.40
   0   4  -9   25.90   24.00
   0   4   9   54.79   29.60
   0   4  -9   33.50   26.40
   0   4   9   34.40   28.60
   0   4  -9   29.50   23.50
  -1  -4  -9 1334.07   78.69
   1  -4   9 1359.56   71.39
   1  -4   9 1482.75   75.29
  -1  -4  -9 1298.97   76.69
  -1   4  -9 1320.67   70.09
  -1   4  -9 1399.06   66.69
   1   4   9 1356.66   74.59
  -1   4  -9 1477.85   66.79
   1   4   9 1303.07   72.59
   2  -4   9   10.90   27.10
   2  -4   9    5.20   28.50
  -2  -4  -9  -19.30   33.40
  -2  -4  -9   49.99   34.50
   2   4   9   -9.60   35.70
  -2   4  -9   -3.90   25.30
   2   4   9  -25.10   27.90
  -2   4  -9   -1.50   23.10
  -3  -4  -9  348.07   55.49
   3  -4   9  364.86   45.10
   3  -4   9  309.37   44.50
  -3  -4  -9  332.27   51.19
   3   4   9  315.47   48.00
   3   4   9  322.87   50.19
  -3   4  -9  306.17   32.90
  -3   4  -9  345.47   40.30
   4  -4   9   68.09   31.60
  -4  -4  -9   40.90   40.50
  -4  -4  -9  118.59   45.10
   4  -4   9   15.90   41.90
   4   4   9   76.59   43.00
   4   4   9   28.40   38.40
  -4   4  -9   59.29   22.50
  -5  -4  -9   53.49   44.70
   5  -4   9   56.79   34.80
   5  -4   9   84.29   38.30
  -5  -4  -9   23.00   45.10
   5   4   9  -23.40   39.30
   5   4   9    8.40   42.90
   8  -5  -9  -16.60   39.40
  -8  -5   9  -55.99   44.50
  -8  -5   9  -83.09   45.80
   8  -5  -9   20.30   35.90
  -8  -5   9  -31.80   58.09
   8   5  -9   96.59   50.99
   8   5  -9 -112.49   43.70
   7  -5  -9  362.36   45.90
   7  -5  -9  406.96   55.89
  -7  -5   9  307.17   55.09
  -7  -5   9  287.17   54.59
  -7  -5   9  440.96   56.69
   7   5  -9  318.67   52.49
   7   5  -9  379.26   58.09
  -6  -5   9  484.05   54.09
  -6  -5   9  402.96   56.69
   6  -5  -9  464.85   54.69
   6   5  -9  417.46   54.29
   6   5  -9  512.75   63.09
   5  -5  -9  267.27   42.10
  -5  -5   9  305.57   43.50
  -5  -5   9  250.17   48.00
  -5  -5   9  288.47   48.80
   5   5  -9  283.97   44.80
  -5   5   9  291.27   37.60
  -5   5   9  276.27   32.00
   5   5  -9  216.88   39.70
  -5   5   9  354.96   37.70
   4  -5  -9 1703.63   81.19
  -4  -5   9 1609.94   81.89
  -4  -5   9 1630.14   86.59
  -4  -5   9 1519.05   85.69
   4  -5  -9 1503.85   84.19
   4   5  -9 1662.43   82.39
  -4   5   9 1625.24   71.79
  -4   5   9 1557.64   75.69
   4   5  -9 1699.63   80.19
  -4   5   9 1621.44   73.19
  -3  -5   9   51.89   28.90
   3  -5  -9  -12.60   30.10
   3  -5  -9   19.90   25.90
  -3  -5   9   11.20   26.80
  -3  -5   9   22.90   26.80
   3   5  -9   29.20   27.10
   3   5  -9  -42.60   24.60
  -3   5   9   53.99   30.60
  -3   5   9   10.50    8.40
  -3   5   9   -4.00   24.00
  -3   5   9    8.60   24.70
  -2  -5   9 2625.84  107.39
   2  -5  -9 2612.14  108.29
   2  -5  -9 2444.26  105.99
  -2  -5   9 2519.45  105.09
  -2   5   9 2558.14   99.79
   2   5  -9 2566.04  103.79
  -2   5   9 2695.73  102.49
  -2   5   9 2636.34  104.59
   2   5  -9 2528.65   99.89
   2   5  -9 2501.85   99.69
   1  -5  -9  114.99   32.80
   1  -5  -9   97.89   32.40
  -1  -5   9  115.69   30.90
  -1  -5   9  158.78   32.30
  -1   5   9   48.00   28.40
  -1   5   9   46.20   26.80
   1   5  -9  135.69   30.40
   1   5  -9  136.99   28.90
  -1   5   9  121.39   29.90
   1   5  -9   75.89   28.20
   0  -5   9  909.31   63.09
   0  -5  -9  919.91   65.19
   0  -5  -9 1055.19   67.69
   0  -5   9  946.91   73.49
   0  -5   9 1008.00   60.79
   0   5   9 1053.89   59.59
   0   5   9  950.80   61.79
   0   5  -9  963.90   54.99
   0   5  -9  985.10   58.49
   0   5  -9  957.90   53.99
   1  -5   9  457.25   45.80
  -1  -5  -9  400.86   50.19
   1  -5   9  485.55   48.00
  -1  -5  -9  435.06   50.29
   1   5   9  462.65   50.59
  -1   5  -9  451.15   54.09
  -1   5  -9  478.25   39.90
   1   5   9  414.36   49.80
   2  -5   9  218.38   35.80
   2  -5   9  236.88   39.10
  -2  -5  -9  207.68   47.70
  -2  -5  -9  146.19   42.90
   2   5   9  233.18   45.60
  -2   5  -9  142.19   22.70
   2   5   9  205.38   39.00
  -3  -5  -9  301.57   52.09
   3  -5   9  304.67   42.70
   3   5   9  277.87   46.80
   4  -5   9   28.80   39.20
   4  -5   9    4.00   31.50
  -4  -5  -9  -36.60   41.90
  -4  -5  -9   34.40   39.30
   4   5   9   48.80   40.80
   4   5   9  -64.19   56.59
  -5  -5  -9  107.79   54.79
  -5  -5  -9  165.58   51.29
   5  -5   9  236.28   41.20
   5  -5   9  206.78   42.40
   5   5   9  216.98   54.69
   5   5   9  161.78   47.20
   5   5   9  159.18   45.60
  -7  -6   9   73.19   43.50
  -7  -6   9   41.50   41.70
  -7  -6   9  -54.79   51.49
   7  -6  -9   10.30   31.00
   7  -6  -9   47.80   46.40
   7   6  -9   67.09   41.70
   7   6  -9  -10.10   46.60
  -6  -6   9  627.14   69.79
   6  -6  -9  704.03   64.09
  -6  -6   9  769.62   70.99
  -6  -6   9  628.64   71.19
   6  -6  -9  772.12   59.99
   6   6  -9  766.32   72.09
   6   6  -9  599.84   77.59
  -5  -6   9  167.08   43.50
  -5  -6   9  112.69   43.90
  -5  -6   9  188.38   47.40
   5  -6  -9   90.39   34.80
   5   6  -9   85.69   38.30
   5   6  -9  179.48   39.40
  -5   6   9  198.68   30.20
   4  -6  -9  177.48   38.40
  -4  -6   9  107.19   39.90
  -4  -6   9  142.89   41.70
   4  -6  -9  134.39   36.80
  -4  -6   9  211.98   41.20
  -4   6   9  112.99   29.10
   4   6  -9  179.88   36.60
  -4   6   9  158.68   24.60
  -4   6   9  191.48   29.50
   4   6  -9  198.88   38.80
   3  -6  -9  168.98   37.70
   3  -6  -9  188.78   35.50
  -3  -6   9  170.38   36.90
  -3  -6   9  256.87   41.80
  -3  -6   9  193.08   40.40
  -3   6   9  201.08   33.40
   3   6  -9  243.28   36.30
  -3   6   9  139.99   31.30
  -3   6   9  256.87   30.90
   3   6  -9  167.98   31.90
   2  -6  -9   15.80   28.30
  -2  -6   9   67.59   30.60
   2  -6  -9  -16.60   26.40
  -2  -6   9   14.40   26.90
   2   6  -9  -35.10   24.40
  -2   6   9   -3.00   24.00
  -2   6   9  -30.80   27.00
  -2   6   9   15.90   24.80
   2   6  -9    7.80   23.90
   1  -6  -9  123.39   34.90
  -1  -6   9  209.68   34.50
   1  -6  -9  156.88   35.20
  -1  -6   9  190.48   34.40
  -1   6   9  137.19   31.60
  -1   6   9  174.38   39.30
  -1   6   9  181.88   32.10
   1   6  -9  187.68   31.70
   1   6  -9  120.49   26.60
   0  -6   9  250.67   36.70
   0  -6  -9  146.79   37.90
   0  -6   9  214.98   33.70
   0  -6  -9  188.88   41.30
   0   6   9  188.78   35.30
   0   6   9  182.68   34.50
   0   6  -9  190.08   29.80
   0   6  -9  279.37   33.90
  -1  -6  -9  121.89   41.40
   1  -6   9  129.09   30.70
  -1  -6  -9   55.69   37.40
   1  -6   9   87.49   31.90
   1   6   9   64.99   32.60
   1   6   9  155.28   35.30
  -1   6  -9  121.39   23.20
  -2  -6  -9  642.44   70.59
  -2  -6  -9  577.34   69.09
   2  -6   9  644.94   58.79
   2  -6   9  701.93   51.79
   2   6   9  564.64   60.59
   2   6   9  613.14   62.09
   2   6   9  657.43   62.19
  -2   6  -9  645.04   69.79
   3  -6   9   73.89   32.80
   3  -6   9  -23.30   28.10
  -3  -6  -9    0.50   37.70
  -3  -6  -9   81.79   42.40
   3   6   9   71.39   38.60
   3   6   9   26.50   40.10
   3   6   9   74.69   37.90
  -4  -6  -9 1182.58   88.99
   4  -6   9 1032.00   74.69
  -4  -6  -9 1097.09   86.79
   4  -6   9 1091.69   69.99
   4   6   9 1117.99   81.39
   4   6   9 1136.49   82.89
   7  -7  -9 1359.26   78.99
  -7  -7   9 1272.37   95.99
  -7  -7   9 1398.86   95.39
  -7  -7   9 1212.28   89.79
   7   7  -9 1228.98   90.59
  -6  -7   9  258.57   50.09
  -6  -7   9  279.87   52.59
  -6  -7   9  167.28   48.50
   6  -7  -9  218.18   49.99
   6  -7  -9  272.67   40.50
   6   7  -9  233.48   48.80
   6   7  -9  195.78   42.90
   5  -7  -9  627.64   73.59
  -5  -7   9  806.22   74.69
  -5  -7   9  801.02   72.99
   5   7  -9  808.82   71.69
   5   7  -9  753.22   68.39
  -4  -7   9  353.96   50.99
  -4  -7   9  416.96   56.69
   4  -7  -9  365.26   45.60
   4  -7  -9  490.65   55.69
  -4  -7   9  373.96   54.69
  -4   7   9  441.66   46.20
  -4   7   9  551.84   48.50
   4   7  -9  354.36   43.10
   4   7  -9  408.16   47.30
   3  -7  -9  106.99   32.80
   3  -7  -9   26.30   30.40
  -3  -7   9   82.39   35.20
  -3  -7   9   61.59   38.70
  -3  -7   9   11.70   32.40
   3   7  -9   45.40   28.30
   3   7  -9  103.39   31.00
  -3   7   9   62.09   21.40
  -3   7   9   87.19   31.20
  -3   7   9   46.20   29.60
   2  -7  -9  402.26   46.70
   2  -7  -9  408.16   46.40
  -2  -7   9  342.07   46.60
  -2  -7   9  396.06   48.90
  -2   7   9  424.26   46.10
   2   7  -9  362.66   41.40
   2   7  -9  461.25   48.30
  -2   7   9  493.55   53.49
   1  -7  -9  351.06   47.20
   1  -7  -9  358.86   46.80
  -1  -7   9  420.36   44.40
  -1  -7   9  307.77   43.50
  -1   7   9  403.76   43.80
  -1   7   9  368.26   45.70
   1   7  -9  287.17   35.90
   0  -7  -9  269.47   48.70
   0  -7  -9  335.87   46.30
   0  -7   9  400.46   45.10
   0  -7   9  334.97   43.40
   0   7   9  400.66   43.00
   0   7   9  384.76   51.79
   0   7   9  363.26   44.40
  -1  -7  -9  943.91   83.09
  -1  -7  -9  976.00   82.19
   1  -7   9 1011.00   62.79
   1  -7   9 1031.10   66.09
   1   7   9  881.31   70.39
   1   7   9  943.51   65.29
   1   7   9  918.11   63.89
  -2  -7  -9   61.19   38.70
   2  -7   9  128.99   30.60
   2   7   9   26.80   34.40
   2   7   9   94.19   40.10
   2   7   9   87.89   41.50
   3  -7   9  946.41   64.29
  -3  -7  -9  951.70   85.79
  -3  -7  -9  875.51   80.19
   3  -7   9 1116.39   68.59
   3   7   9 1025.40   75.49
   3   7   9  955.10   77.19
   3   7   9  935.01   82.29
  -4  -7  -9   -2.60   43.50
   4  -7   9  -20.40   42.40
   4  -7   9   83.49   35.50
  -4  -7  -9  149.79   45.60
   4   7   9   95.49   44.90
   4   7   9   28.00   41.90
   4   7   9   50.49   73.09
   6  -8  -9  151.98   43.40
   6  -8  -9  100.39   35.50
  -6  -8   9  158.68   50.39
  -6  -8   9  189.58   51.89
  -6  -8   9  123.39   47.10
   6   8  -9  114.69   50.39
   6   8  -9   98.39   44.80
   5  -8  -9  520.55   54.89
  -5  -8   9  527.15   69.09
  -5  -8   9  570.44   67.39
  -5  -8   9  750.22   73.19
   5   8  -9  509.85   56.79
   5   8  -9  461.45   53.49
  -4  -8   9   94.19   46.20
  -4  -8   9   85.19   35.10
  -4  -8   9  165.28   52.09
   4  -8  -9  109.69   34.20
   4  -8  -9   56.69   34.90
  -4   8   9  214.68   37.20
   4   8  -9  176.98   46.90
   4   8  -9  103.09   38.50
  -3  -8   9  810.62   77.99
   3  -8  -9  824.32   67.09
  -3  -8   9 1010.80   77.29
   3   8  -9  939.51   64.49
  -3   8   9  921.11   64.19
  -2  -8   9   21.40   35.70
   2  -8  -9   30.80   49.40
   2  -8  -9   10.80   33.00
  -2  -8   9  -73.69   28.20
  -2  -8   9  -52.49   59.29
  -2   8   9   -9.30   33.40
   2   8  -9   48.60   21.40
  -2   8   9   20.90   31.40
  -2   8   9   77.49   19.60
  -1  -8   9 1165.08   67.79
   1  -8  -9 1225.78   77.29
   1  -8  -9 1182.28  106.99
  -1  -8   9 1138.49   72.59
  -1   8   9 1162.08   68.29
   0  -8   9  123.89   30.00
   0  -8  -9   96.09   45.30
   0  -8   9  115.29   38.50
   0  -8  -9  105.29   38.50
   0   8   9  166.78   34.90
   0   8   9   78.19   34.90
   0   8   9  156.48   31.90
  -1  -8  -9  724.73   68.29
   1  -8   9  674.13   76.59
   1  -8   9  815.52   59.59
   1   8   9  712.83   65.29
   1   8   9  773.62   61.99
   1   8   9  642.54   62.09
   2  -8   9  103.59   32.10
  -2  -8  -9  178.58   43.10
   2  -8   9  103.09   32.80
  -2  -8  -9   74.69   43.20
   2   8   9   84.19   42.50
   2   8   9   87.69   41.30
   2   8   9   97.69   38.20
  -3  -8  -9  148.29   50.29
  -3  -8  -9  254.97   50.79
   3  -8   9  295.17   39.40
   3  -8   9  226.18   49.20
   3   8   9  198.58   55.99
   3   8   9  225.28   50.39
   3   8   9  244.08   47.60
  -5  -9   9   -9.20   40.00
   5  -9  -9  159.18   35.80
  -5  -9   9  169.28   49.70
  -5  -9   9  -10.10   46.80
   5   9  -9  -15.70   44.10
  -5   9   9   92.69   33.50
  -4  -9   9 1666.23   91.19
  -4  -9   9 1602.54   91.39
  -4  -9   9 1505.05  100.99
   4  -9  -9 1491.85   81.09
   4  -9  -9 1588.04   89.59
   4   9  -9 1516.95   73.49
  -3  -9   9   22.10   40.40
   3  -9  -9   27.00   28.60
   3  -9  -9  -72.79   36.30
  -3  -9   9   54.39   33.70
  -3  -9   9  -20.40   40.60
  -3   9   9   14.90   33.70
  -2  -9   9 1648.44   93.29
   2  -9  -9 1662.23   92.09
   2  -9  -9 1606.54   82.79
  -2  -9   9 1549.45   97.29
  -2  -9   9 1575.24   86.09
  -2   9   9 1520.95   83.19
  -1  -9   9   31.70   29.80
   1  -9  -9   45.10   39.00
   1  -9  -9    7.30   29.80
  -1  -9   9   22.70   30.40
  -1  -9   9  118.29   42.80
  -1   9   9   66.19   33.20
   0  -9   9 1002.80   67.09
   0  -9   9  908.71   64.69
   0  -9  -9 1026.10   70.59
   0   9   9 1042.90   56.89
   0   9   9  958.20   72.09
   1  -9   9  140.29   35.30
  -1  -9  -9  134.79   41.10
   1  -9   9  203.08   39.00
  -1  -9  -9  256.27   48.60
   1   9   9  284.97   40.30
   1   9   9  189.58   45.30
  -2  -9  -9  204.58   53.39
   2  -9   9  276.77   47.80
   2  -9   9  137.09   33.80
  -2  -9  -9  137.89   44.70
   2   9   9   47.70   49.80
   2   9   9  152.48   47.20
  -4 -10   9   94.49   40.90
   4 -10  -9   87.79   50.49
  -4 -10   9   58.59   47.80
  -4 -10   9  -34.10   46.30
   4 -10  -9  138.09   35.20
  -4  10   9  100.29   38.00
   3 -10  -9  330.17   44.10
  -3 -10   9  387.16   51.09
   3 -10  -9  280.07   49.80
  -3 -10   9  482.45   60.79
  -3 -10   9  369.16   59.99
  -3  10   9  447.56   47.60
  -2 -10   9  -27.60   31.50
  -2 -10   9  -18.90   40.50
   2 -10  -9    0.80   40.80
   2 -10  -9  -18.80   32.30
  -2 -10   9  -19.90   44.60
  -2  10   9  -32.00   29.50
   1 -10  -9  151.38   40.10
  -1 -10   9  134.59   38.60
  -1 -10   9  233.18   51.59
  -1 -10   9  225.58   47.10
  -1  10   9  198.38   43.50
   0 -10   9   58.79   44.30
   0 -10  -9    0.10   34.00
   0 -10  -9   55.99   44.20
   0 -10   9   72.29   33.80
   0  10   9   45.20   37.20
   1 -10   9   51.49   45.50
  -1 -10  -9  184.98   44.80
  -1 -10  -9  -20.80   46.50
   1 -10   9  116.99   31.80
   1  10   9   95.39   41.80
   8   0 -10  183.48   49.80
   8   0 -10  238.28   51.99
  -8   0  10  258.07   61.39
  -8   0  10  194.58   52.09
   7   0 -10   20.50   35.60
  -7   0  10  -70.59   61.19
   7   0 -10  -49.60   34.70
   6   0 -10   31.70   39.50
  -6   0  10   58.39   21.80
  -6   0  10   31.20   40.20
  -6   0  10  128.09   34.60
   6   0 -10   60.49   39.30
  -5   0  10  -18.70   19.10
   5   0 -10   29.80   34.50
  -5   0  10   23.50   29.90
  -5   0  10   -9.80   35.50
   5   0 -10  -30.30   30.40
  -4   0  10   16.00   29.40
   4   0 -10    2.20   27.70
  -4   0  10   25.00   32.10
   4   0 -10  -11.30   29.30
  -4   0  10   96.99   22.30
   3   0 -10  -21.90   30.20
  -3   0  10  -44.70   27.70
   3   0 -10   19.80   25.80
  -3   0  10   17.00   28.00
   2   0 -10  265.87   39.00
  -2   0  10  299.47   39.40
  -2   0  10  314.87   41.00
  -1   0  10  -16.70   26.80
   1   0 -10   23.30   31.30
  -1   0  10  -19.90   26.20
   1   0 -10   -7.70   27.50
   0   0  10 1368.56   74.09
   0   0 -10 1296.87   73.19
   0   0 -10 1315.07   75.69
   0   0  10 1166.78   70.49
  -1   0 -10   -2.70   33.80
   1   0  10   -9.80   29.40
  -1   0 -10  -16.50   28.30
   1   0  10   11.50   32.30
  -2   0 -10 1963.50   94.49
   2   0  10 1978.80   98.29
  -2   0 -10 1800.32   97.09
   2   0  10 1851.21   96.59
  -3   0 -10  -10.10   38.80
   3   0  10    8.90   37.40
   3   0  10   31.00   43.60
  -3   0 -10   36.50   34.60
   4   0  10 1508.25   91.49
  -4   0 -10 1560.84   94.69
   4   0  10 1403.86   90.39
   5   0  10   54.09   46.00
  -5   0 -10   59.09   56.19
   5   0  10  -26.40   42.20
  -5   0 -10   85.89   45.60
   8  -1 -10  288.67   52.09
   8  -1 -10  348.27   53.49
  -8  -1  10  357.86   57.39
  -8  -1  10  337.67   69.79
   8   1 -10  301.17   52.59
  -8   1  10  260.97   58.29
   8   1 -10  303.17   54.39
  -8   1  10  340.17   50.39
  -7  -1  10  279.77   52.99
  -7  -1  10  392.66   52.79
   7  -1 -10  358.06   51.89
   7  -1 -10  499.75   62.09
  -7  -1  10  342.37   44.70
  -7   1  10  300.07   47.80
   7   1 -10  361.96   51.99
   7   1 -10  384.06   52.69
  -7   1  10  338.47   52.09
   6  -1 -10  654.93   66.69
   6  -1 -10  631.14   66.69
  -6  -1  10  545.65   67.59
  -6  -1  10  591.94   46.70
  -6  -1  10  634.54   63.89
  -6   1  10  612.54   64.39
   6   1 -10  594.84   66.09
   6   1 -10  620.94   68.29
  -6   1  10  694.63   45.10
  -6   1  10  573.14   60.99
   5  -1 -10   21.20   32.70
  -5  -1  10   35.40   23.60
   5  -1 -10   14.50   34.40
  -5  -1  10  -15.60   35.70
  -5  -1  10  -17.60   28.80
   5   1 -10   -3.00   35.20
  -5   1  10  -39.00   27.80
  -5   1  10   76.69   34.90
   5   1 -10   12.90   32.80
  -4  -1  10 1377.06   76.79
  -4  -1  10 1353.86   76.19
   4  -1 -10 1286.87   79.09
  -4  -1  10 1348.57   64.49
   4  -1 -10 1320.27   77.39
  -4   1  10 1400.06   75.39
   4   1 -10 1300.97   74.19
  -4   1  10 1372.26   58.39
  -4   1  10 1227.68   72.99
   4   1 -10 1320.27   78.19
  -3  -1  10  412.36   51.79
  -3  -1  10  426.96   50.29
   3  -1 -10  542.75   53.19
  -3   1  10  384.36   48.50
  -3   1  10  378.16   48.20
   3   1 -10  409.46   47.70
   3   1 -10  412.06   50.99
   2  -1 -10  688.03   56.59
   2  -1 -10  725.83   60.19
  -2  -1  10  740.63   57.49
  -2  -1  10  711.93   54.89
   2   1 -10  661.63   55.79
  -2   1  10  676.23   54.39
  -2   1  10  674.13   53.99
   2   1 -10  770.02   58.09
  -1  -1  10  827.92   60.69
  -1  -1  10  930.81   60.69
   1  -1 -10  971.00   62.89
   1  -1 -10  900.61   65.09
  -1   1  10  855.41   60.59
   1   1 -10 1004.40   63.39
  -1   1  10  897.91   60.39
   0  -1  10  209.28   34.50
   0  -1 -10  126.59   37.10
   0  -1  10  125.29   33.60
   0  -1 -10  156.18   34.60
   0   1 -10  230.78   40.50
   0   1  10  129.09   34.00
   0   1 -10  192.28   36.00
   0   1  10  175.78   35.60
  -1  -1 -10  933.51   72.79
   1  -1  10  882.61   64.19
  -1  -1 -10  853.11   65.29
   1  -1  10  987.70   68.19
   1   1  10  913.31   65.69
   1   1  10  897.61   65.29
  -1   1 -10 1153.88   67.09
  -1   1 -10  863.91   64.29
  -2  -1 -10  -23.60   37.90
   2  -1  10   23.10   37.90
  -2  -1 -10   16.40   31.00
   2  -1  10    2.10   34.60
   2   1  10   55.19   34.90
  -2   1 -10   55.09   35.60
  -2   1 -10  -51.39   28.00
   2   1  10   -4.30   37.00
  -3  -1 -10  699.13   73.99
   3  -1  10  733.83   68.59
  -3  -1 -10  624.24   65.59
  -3   1 -10  635.24   62.59
  -3   1 -10  675.73   70.69
   3   1  10  562.54   61.99
  -4  -1 -10  142.29   42.50
   4  -1  10  146.29   42.80
  -4  -1 -10   65.99   46.50
   4  -1  10  149.29   42.50
  -4   1 -10  152.48   42.30
  -4   1 -10  175.68   48.10
   4   1  10  103.49   42.40
   4   1  10  155.08   43.80
   5  -1  10  206.68   49.90
   5  -1  10  195.08   49.80
  -5  -1 -10  269.67   63.29
  -5  -1 -10  220.78   50.49
   5   1  10  220.18   51.69
   5   1  10  251.57   53.19
  -5   1 -10  262.07   96.79
  -5   1 -10  147.79   48.10
  -8  -2  10   25.20   44.60
   8  -2 -10   -4.30   41.50
   8  -2 -10  -38.60   36.30
  -8  -2  10   58.29   49.00
   8   2 -10   59.19   42.80
   8   2 -10   38.30   42.20
  -8   2  10   30.20   45.40
  -7  -2  10  621.84   76.99
  -7  -2  10  701.83   56.79
  -7  -2  10  766.82   72.59
   7  -2 -10  770.32   67.69
   7  -2 -10  736.33   69.59
  -7   2  10  589.54   67.59
  -7   2  10  561.84   70.99
   7   2 -10  770.32   72.39
   7   2 -10  814.92   72.49
   6  -2 -10  -46.00   34.20
  -6  -2  10  -37.40   34.50
  -6  -2  10   29.20   27.60
   6  -2 -10  111.99   39.40
  -6  -2  10 -111.69   41.40
  -6   2  10  -54.89   31.00
  -6   2  10   -1.00   34.40
   6   2 -10   -1.20   39.60
  -5  -2  10 1081.09   73.19
  -5  -2  10 1163.38   63.09
   5  -2 -10 1209.68   77.69
  -5  -2  10 1060.89   77.79
   5  -2 -10 1232.88   79.79
  -5   2  10 1123.99   69.19
  -5   2  10 1084.99   67.49
   5   2 -10 1046.80   77.19
   5   2 -10 1101.59   73.39
  -5   2  10 1105.59   40.60
  -4  -2  10   11.20   32.90
   4  -2 -10   47.10   31.50
  -4  -2  10   47.70   29.60
   4  -2 -10   44.50   31.50
  -4  -2  10   -1.70   24.40
   4   2 -10   31.70   28.70
  -4   2  10   -3.00   17.90
  -4   2  10   32.00   27.50
   4   2 -10   27.00   33.10
  -4   2  10  -32.20   27.80
   3  -2 -10 1341.07   79.19
  -3  -2  10 1354.76   76.59
  -3  -2  10 1442.06   76.49
   3  -2 -10 1398.36   76.69
  -3   2  10 1391.76   73.59
   3   2 -10 1311.07   75.19
   3   2 -10 1421.76   78.29
  -3   2  10 1429.46   73.99
   2  -2 -10  -37.40   26.30
  -2  -2  10    3.10   27.50
   2  -2 -10   25.60   31.00
  -2  -2  10   26.30   29.10
  -2   2  10   -8.80   25.80
   2   2 -10   25.10   28.80
  -2   2  10    5.60   27.70
  -2   2  10    0.70   27.90
   2   2 -10   42.90   29.70
   1  -2 -10 1172.68   70.69
  -1  -2  10 1284.97   69.89
   1  -2 -10 1236.48   75.59
  -1  -2  10 1247.78   69.39
  -1   2  10 1084.59   67.59
   1   2 -10 1195.28   69.89
  -1   2  10 1056.29   70.89
   1   2 -10 1152.38   66.49
   0  -2 -10    3.70   32.90
   0  -2 -10   57.59   33.00
   0  -2  10   95.79   35.20
   0  -2  10   61.79   29.60
   0   2  10   62.59   31.80
   0   2 -10   69.49   30.10
   0   2  10   55.19   29.30
   1  -2  10  325.17   44.70
  -1  -2 -10  336.17   48.70
  -1  -2 -10  316.27   43.80
   1  -2  10  379.16   44.60
   1   2  10  322.27   45.10
  -1   2 -10  320.57   41.00
   1   2  10  309.77   42.20
  -2  -2 -10  -37.50   33.40
   2  -2  10    7.10   34.90
  -2  -2 -10   42.60   41.90
   2  -2  10   46.90   35.10
  -2   2 -10   15.10   32.10
   2   2  10    5.70   35.80
   2   2  10   74.89   36.20
  -2   2 -10   49.60   35.40
   3  -2  10  -69.79   36.60
  -3  -2 -10  -21.20   35.10
   3  -2  10   53.89   44.20
  -3   2 -10  -15.20   32.60
   3   2  10  -53.19   39.20
   3   2  10  -25.50   38.20
  -3   2 -10    7.80   34.40
  -4  -2 -10  -45.90   38.50
   4  -2  10  -46.00   35.90
   4  -2  10  -10.90   39.90
  -4  -2 -10  -17.40   43.90
   4   2  10  -16.50   36.90
  -4   2 -10  -14.00   43.70
   4   2  10   67.29   40.10
  -4   2 -10   17.20   38.80
   5  -2  10  401.46   56.59
   5  -2  10  415.86   56.49
  -5  -2 -10  283.37   59.39
  -5  -2 -10  299.27   54.89
   5   2  10  381.86   58.59
   5   2  10  396.96   58.59
   8  -3 -10  445.86   57.29
  -8  -3  10  351.26   59.79
  -8  -3  10  375.66   62.49
   8  -3 -10  398.06   57.89
  -8  -3  10  446.86   60.09
   8   3 -10  631.84   78.59
   8   3 -10  453.05   63.19
  -8   3  10  303.37   53.59
  -7  -3  10  222.08   51.09
  -7  -3  10  147.09   35.50
   7  -3 -10  135.19   44.30
   7  -3 -10  178.08   41.70
   7   3 -10  209.48   48.60
   7   3 -10  102.49   44.60
  -7   3  10  134.59   40.90
  -7   3  10  186.58   42.40
  -6  -3  10 1324.97   74.89
   6  -3 -10 1315.27  114.79
   6  -3 -10 1445.36   89.79
  -6  -3  10 1467.15  143.79
  -6  -3  10 1448.46   91.79
   6   3 -10 1483.35   92.89
  -6   3  10 1406.86   79.19
  -6   3  10 1532.65   82.39
  -5  -3  10   -9.90   27.60
  -5  -3  10   -0.70   35.00
  -5  -3  10  -23.40   32.50
   5  -3 -10   15.80   36.10
   5  -3 -10  -22.10   31.30
  -5   3  10    5.80   31.70
   5   3 -10   16.70   31.90
   5   3 -10   20.30   41.80
  -5   3  10  -12.80   29.60
  -4  -3  10 1563.24   84.29
   4  -3 -10 1520.15   83.09
  -4  -3  10 1476.15   74.59
  -4  -3  10 1600.44   85.69
  -4   3  10 1410.66   51.19
   4   3 -10 1544.45   81.39
  -4   3  10 1373.46   73.79
  -4   3  10 1492.55   78.29
   4   3 -10 1499.25   82.79
   3  -3 -10  144.19   38.10
   3  -3 -10  151.28   36.80
  -3  -3  10  118.09   35.60
  -3  -3  10  110.39   35.70
   3   3 -10  160.38   38.20
  -3   3  10  149.59   43.00
  -3   3  10  105.89   30.10
  -3   3  10   79.59   30.60
   3   3 -10  103.19   33.70
  -2  -3  10 1003.60   65.89
   2  -3 -10 1065.99   67.89
  -2  -3  10 1032.00   67.59
   2  -3 -10  872.21   65.09
  -2   3  10  894.81   58.69
   2   3 -10  985.20   64.39
  -2   3  10 1008.70   62.19
   2   3 -10 1039.20   63.19
  -2   3  10 1090.89   64.19
   1  -3 -10  524.25   56.99
  -1  -3  10  561.74   51.79
   1  -3 -10  628.74   57.99
  -1  -3  10  548.05   53.89
   1   3 -10  557.34   49.60
  -1   3  10  566.34   52.49
  -1   3  10  507.05   52.19
   1   3 -10  611.24   53.69
   0  -3 -10   95.39   35.70
   0  -3  10   47.20   31.40
   0  -3 -10   66.69   34.70
   0  -3  10   15.80   28.40
   0   3 -10   58.59   29.10
   0   3  10   23.80   28.40
   0   3  10   71.89   34.40
   0   3 -10   93.99   30.70
   1  -3  10  798.62   63.19
   1  -3  10  656.33   57.29
  -1  -3 -10  591.74   65.49
  -1  -3 -10  648.84   62.99
  -1   3 -10  613.24   56.79
  -1   3 -10  620.64   51.59
   1   3  10  656.83   66.09
   1   3  10  736.63   58.29
  -2  -3 -10   38.80   37.10
   2  -3  10   17.80   35.20
  -2  -3 -10   15.80   39.30
   2  -3  10   48.20   36.40
  -2   3 -10   39.50   30.90
   2   3  10   12.00   37.60
   2   3  10   53.79   37.00
  -3  -3 -10  361.06   55.59
   3  -3  10  274.07   49.60
  -3  -3 -10  406.36   56.19
   3  -3  10  353.76   46.90
  -3   3 -10  298.97   43.60
   3   3  10  285.97   47.90
   3   3  10  339.77   54.19
  -4  -3 -10  282.37   90.99
   4  -3  10  213.08   45.00
   4  -3  10  161.78   41.00
  -4  -3 -10  246.38   52.19
   4   3  10  210.68   47.20
   4   3  10  223.88   52.09
  -8  -4  10  276.67   60.59
   8  -4 -10  415.46   56.79
  -8  -4  10  218.28   56.59
   8  -4 -10  338.87   51.69
  -8  -4  10  298.67   61.39
   8   4 -10  370.56   64.59
   8   4 -10  375.26   59.79
  -7  -4  10   19.50   42.30
   7  -4 -10   34.60   37.10
  -7  -4  10  -59.49   38.30
   7  -4 -10  -68.79   31.40
  -7  -4  10   28.20   40.30
   7   4 -10  -42.10   40.70
   7   4 -10   49.90   44.30
  -7   4  10  -18.70   32.60
  -6  -4  10   87.29   35.10
  -6  -4  10  -54.49   66.39
   6  -4 -10  106.19   45.10
   6  -4 -10   52.89   33.70
  -6  -4  10   58.19   39.30
   6   4 -10   60.89   42.10
   6   4 -10   -2.40   42.90
  -6   4  10   37.70   32.20
  -6   4  10   -6.50   33.40
  -5  -4  10   75.69   40.50
  -5  -4  10   53.39   37.60
   5  -4 -10   78.89   39.70
  -5  -4  10   95.79   30.80
   5  -4 -10   27.50   35.30
   5   4 -10   51.39   35.60
  -5   4  10  107.19   28.20
   5   4 -10  145.99   43.70
  -5   4  10   80.49   32.90
  -5   4  10   77.99   29.90
  -4  -4  10   38.00   28.90
  -4  -4  10    2.10   36.10
  -4  -4  10   25.40   36.90
   4  -4 -10    4.70   34.30
  -4   4  10   10.40   28.10
   4   4 -10   35.90   34.90
   4   4 -10    5.90   30.70
  -4   4  10   86.09   30.30
  -3  -4  10   87.39   35.10
   3  -4 -10   26.50   32.10
  -3  -4  10  117.49   34.20
   3  -4 -10   48.10   36.60
   3   4 -10   83.79   32.00
   3   4 -10   86.69   31.40
  -3   4  10  131.79   30.50
  -3   4  10  108.39   30.00
  -2  -4  10  337.27   43.90
   2  -4 -10  297.27   42.90
   2  -4 -10  290.07   45.70
  -2  -4  10  299.77   41.90
   2   4 -10  277.27   38.30
   2   4 -10  332.37   42.40
  -2   4  10  292.87   37.90
  -2   4  10  319.37   39.20
   1  -4 -10   -6.10   32.10
   1  -4 -10   11.10   32.90
  -1  -4  10   58.79   30.20
  -1  -4  10   48.00   29.60
  -1   4  10   20.60   27.90
   1   4 -10  -27.40   24.80
  -1   4  10   46.40   30.10
   1   4 -10   26.40   28.20
   0  -4 -10  837.62   68.09
   0  -4 -10  738.13   66.19
   0  -4  10  822.62   63.29
   0  -4  10  745.93   63.49
   0   4  10  766.62   61.39
   0   4 -10  796.62   56.19
   0   4  10  883.21   60.69
   0   4 -10  740.53   58.49
  -1  -4 -10  -43.60   37.40
   1  -4  10  -30.30   29.80
   1  -4  10  -28.70   30.60
  -1  -4 -10  -17.20   38.10
   1   4  10  -57.99   25.10
   1   4  10   19.80   38.10
  -1   4 -10   13.10   26.40
  -1   4 -10    3.20   27.30
  -2  -4 -10 1344.37   90.99
   2  -4  10 1518.15   84.69
   2   4  10 1529.45  123.79
  -2   4 -10 1509.35   76.99
  -2   4 -10 1374.36   70.59
   2   4  10 1510.75   87.29
  -3  -4 -10   43.10   42.30
   3  -4  10   34.20   38.30
   3  -4  10    5.10   31.00
  -3   4 -10  -12.60   26.40
   3   4  10   25.90   40.00
   3   4  10   -0.40   41.50
  -3   4 -10  -79.89   41.40
  -4  -4 -10 1743.13  103.59
  -4  -4 -10 1753.02  104.49
   4  -4  10 1614.74   93.39
   4  -4  10 1778.32   94.09
   4   4  10 1793.92  103.89
   4   4  10 1696.03  100.19
   7  -5 -10  271.87   47.00
  -7  -5  10  121.39   47.90
  -7  -5  10  260.87   53.89
   7  -5 -10  147.59   39.90
   7   5 -10  321.47   52.99
   7   5 -10   24.20   49.40
  -6  -5  10  428.76   57.99
  -6  -5  10  611.84   68.79
   6  -5 -10  598.84   67.49
   6  -5 -10  554.54   60.09
  -6  -5  10  559.44   62.79
  -6   5  10  529.75   48.20
   6   5 -10  557.54   59.09
   6   5 -10  639.14   77.79
  -5  -5  10   75.69   37.30
   5  -5 -10  -30.50   35.60
  -5   5  10   37.40   28.00
   5   5 -10  -34.20   33.30
  -5   5  10   20.90   26.30
  -5   5  10   38.20   32.50
   5   5 -10    3.30   36.00
   4  -5 -10  529.25   57.79
  -4  -5  10  520.45   58.39
  -4  -5  10  563.64   64.89
  -4  -5  10  648.94   60.59
   4  -5 -10  616.54   64.79
   4   5 -10  482.15   57.49
   4   5 -10  483.05   57.69
  -4   5  10  588.14   54.39
  -4   5  10  545.85   50.49
  -4   5  10  485.95   48.00
   3  -5 -10  251.77   44.20
   3  -5 -10  178.78   41.40
  -3  -5  10  397.96   51.19
  -3  -5  10  217.08   44.90
  -3  -5  10  283.97   45.10
   3   5 -10  265.17   41.40
  -3   5  10  328.77   41.00
   3   5 -10  257.17   39.90
  -3   5  10  221.58   34.40
  -2  -5  10  427.96   49.20
   2  -5 -10  394.36   51.19
   2  -5 -10  411.46   48.40
  -2  -5  10  381.16   46.30
  -2   5  10  511.95   49.20
   2   5 -10  378.66   42.40
   2   5 -10  429.66   52.19
  -2   5  10  441.96   47.70
  -1  -5  10  859.31   63.09
   1  -5 -10  871.11   69.09
  -1  -5  10  838.52   66.09
   1  -5 -10  837.72   68.39
   1   5 -10  798.12   55.19
  -1   5  10  824.72   61.79
  -1   5  10  836.22   59.59
   1   5 -10  789.32   59.79
   0  -5  10  -37.70   32.00
   0  -5  10   -5.00   29.80
   0  -5 -10   31.50   37.40
   0  -5 -10  -10.50   40.30
   0   5  10   39.10   32.90
   0   5 -10  -22.90   25.00
   0   5  10  -10.20   26.50
   0   5 -10  -19.30   26.00
  -1  -5 -10 1128.19   82.69
   1  -5  10 1150.48   71.49
   1  -5  10 1119.59   71.59
  -1  -5 -10 1126.99   82.49
  -1   5 -10 1152.98   69.99
   1   5  10 1214.08   80.39
   1   5  10 1340.57   75.99
   2  -5  10   69.59   33.40
   2  -5  10   34.40   37.10
  -2  -5 -10  -42.00   39.60
  -2   5 -10  -15.40   34.70
  -2   5 -10   -4.80   22.50
   2   5  10    0.30   37.20
   3  -5  10  707.33   60.49
  -3  -5 -10  661.03   72.89
  -3  -5 -10  639.54   66.79
   3  -5  10  720.83   67.99
   3   5  10  693.53   72.49
   3   5  10  651.53   77.19
   4  -5  10   71.19   38.50
  -4  -5 -10  -42.80   48.00
   4  -5  10   93.29   38.20
  -4  -5 -10   29.60   48.70
   4   5  10   13.60   44.30
   4   5  10  128.09   48.80
   7  -6 -10  500.25   58.59
  -7  -6  10  574.94   67.59
  -7  -6  10  568.74   66.49
  -7  -6  10  704.33   84.79
   7  -6 -10  468.15   55.29
   7   6 -10  531.85   64.59
   7   6 -10  487.15   59.39
   6  -6 -10    3.70   32.70
  -6  -6  10   86.39   44.20
  -6  -6  10  -16.40   40.40
  -6  -6  10   35.80   53.79
   6   6 -10  -32.90   49.10
   6   6 -10   62.49   39.40
   5  -6 -10  703.63   60.09
  -5  -6  10  934.21   74.49
  -5  -6  10  724.73   70.59
  -5  -6  10  739.33   71.79
  -5   6  10  823.32   53.99
   5   6 -10  766.02   72.39
   4  -6 -10    9.60   39.50
  -4  -6  10   21.90   44.00
   4  -6 -10  -33.00   34.80
  -4  -6  10  -53.59   36.70
  -4  -6  10  -30.80   35.50
   4   6 -10   83.29   34.30
   4   6 -10   78.89   40.30
  -4   6  10   -6.50   29.30
  -4   6  10  -32.50   26.30
  -4   6  10   35.70   26.50
   3  -6 -10  916.81   66.59
   3  -6 -10  935.61   74.29
  -3  -6  10  880.01   77.29
  -3  -6  10  911.91   74.99
  -3  -6  10  924.21   79.09
  -3   6  10  780.52   55.29
  -3   6  10  909.11   60.99
   3   6 -10  951.00   62.89
  -3   6  10  853.31   63.09
   3   6 -10  824.72   66.59
  -2  -6  10  -32.60   33.10
   2  -6 -10   68.39   37.10
   2  -6 -10    1.60   38.00
  -2  -6  10   38.40   36.10
   2   6 -10   10.90   28.40
   2   6 -10   39.00   27.50
  -2   6  10  -57.69   26.20
  -2   6  10    6.80   27.10
  -2   6  10   19.20   35.00
  -1  -6  10  828.72   65.59
   1  -6 -10  714.13   71.39
  -1  -6  10  631.24   59.89
   1  -6 -10  720.73   66.99
  -1   6  10  867.51   67.19
   1   6 -10  918.81   58.29
  -1   6  10  867.91   62.19
  -1   6  10  764.82   58.79
   1   6 -10  842.72   53.99
   0  -6 -10   80.69   42.60
   0  -6  10   77.89   33.50
   0  -6 -10   89.19   43.40
   0  -6  10   33.00   31.10
   0   6 -10   11.60   28.50
   0   6  10   -9.20   35.00
   0   6 -10  -26.80   22.80
   0   6  10  -17.30   31.00
   1  -6  10  392.66   47.90
  -1  -6 -10  370.46   55.49
   1  -6  10  429.36   50.79
   1   6  10  339.07   46.20
   1   6  10  330.17   48.60
  -2  -6 -10  203.08   47.10
   2  -6  10  269.97   48.80
  -2  -6 -10  324.97   52.49
   2  -6  10  294.57   42.50
   2   6  10  227.08   49.30
   2   6  10  317.07   47.40
   2   6  10  221.18   47.80
   3  -6  10   15.50   32.60
  -3  -6 -10   46.40   44.30
  -3  -6 -10  -79.09   36.60
   3   6  10   61.49   40.50
   3   6  10    3.30   36.70
   6  -7 -10  969.10   84.09
   6  -7 -10 1146.69   75.79
  -6  -7  10 1092.89   87.79
  -6  -7  10 1060.39   89.59
  -6  -7  10  966.30   87.89
   6   7 -10  927.21   79.49
   6   7 -10 1168.08   96.29
   5  -7 -10   -5.80   31.20
  -5  -7  10   38.70   41.40
  -5  -7  10   47.00   42.60
  -5  -7  10   79.69   42.10
   5   7 -10   16.40   38.70
  -5   7  10   34.00   30.00
   5   7 -10   21.20   66.69
  -4  -7  10 1157.78  103.19
  -4  -7  10 1143.19   85.09
  -4  -7  10 1067.69   79.29
   4  -7 -10 1166.48   72.79
   4  -7 -10 1087.99   86.39
  -4   7  10 1253.67   71.49
   4   7 -10 1218.98   78.79
   4   7 -10 1192.98   79.79
   3  -7 -10  162.38   38.50
   3  -7 -10  127.89   43.20
  -3  -7  10  166.38   39.90
  -3  -7  10  195.78   46.00
   3   7 -10  171.18   38.80
   3   7 -10  147.89   36.00
  -3   7  10  169.78   35.60
  -3   7  10  155.08   28.90
   2  -7 -10  706.93   61.39
  -2  -7  10  722.23   69.19
   2  -7 -10  649.04   76.19
  -2  -7  10  649.43   64.69
  -2   7  10  702.83   59.89
  -2   7  10  659.03   62.29
  -2   7  10  732.03   52.89
   2   7 -10  717.73   60.79
   1  -7 -10  309.97   48.20
   1  -7 -10  195.08   48.00
  -1  -7  10  196.98   41.50
  -1  -7  10  218.88   40.90
  -1   7  10  263.07   39.30
  -1   7  10  254.17   49.10
   1   7 -10  205.58   37.60
  -1   7  10  180.98   36.40
   0  -7  10  293.77   41.60
   0  -7  10  318.87   47.60
   0  -7 -10  270.57   46.50
   0   7  10  418.06   48.70
   0   7  10  410.86   47.80
   0   7  10  315.57   48.70
   1  -7  10  316.37   49.60
  -1  -7 -10  366.56   52.19
  -1  -7 -10  263.07   50.29
   1  -7  10  335.67   43.90
   1   7  10  269.97   49.90
   1   7  10  294.37   46.70
   1   7  10  261.77   47.80
  -2  -7 -10   41.80   42.00
   2  -7  10   37.50   40.70
  -2  -7 -10   34.00   45.50
   2  -7  10   38.30   30.40
   2   7  10  -15.10   33.90
   2   7  10   -5.20   36.60
   2   7  10  -29.60   43.70
  -3  -7 -10   77.49   47.00
   3  -7  10  149.39   38.30
  -3  -7 -10   93.09   46.50
   3  -7  10  147.29   41.30
   3   7  10   67.49   44.40
   3   7  10  209.48   49.30
   5  -8 -10  121.69   37.40
  -5  -8  10  111.09   44.40
  -5  -8  10  173.48   51.49
  -5  -8  10  136.29   45.60
   5   8 -10  -30.00   50.79
   5   8 -10  123.39   50.29
  -5   8  10  183.08   37.50
   4  -8 -10    0.20   34.00
   4  -8 -10   12.90   39.50
  -4  -8  10   28.10   41.00
  -4  -8  10   -5.40   39.50
  -4  -8  10   33.10   36.20
   4   8 -10   28.50   41.20
   4   8 -10   54.09   70.69
  -4   8  10   11.10   52.79
   3  -8 -10   59.69   40.40
  -3  -8  10  221.58   48.20
   3  -8 -10   97.29   35.50
  -3  -8  10  119.49   39.50
  -3   8  10   79.29   59.09
   3   8 -10  128.39   31.00
   2  -8 -10   93.69   34.10
  -2  -8  10  105.69   44.60
  -2  -8  10   41.50   45.00
  -2  -8  10   47.70   34.40
   2  -8 -10  123.99   43.60
  -2   8  10   37.00   32.20
  -2   8  10   72.19   25.90
   2   8 -10   69.49   28.10
  -1  -8  10  137.89   37.30
  -1  -8  10   40.90   39.70
   1  -8 -10  153.08   39.30
  -1   8  10  128.59   31.70
  -1   8  10   89.99   36.00
  -1   8  10   34.90   68.89
   0  -8 -10  559.94   69.89
   0  -8  10  749.23   62.79
   0  -8 -10  555.74   61.29
   0  -8  10  572.14   68.89
   0   8  10  600.24   63.19
   0   8  10  684.03   64.49
  -1  -8 -10   -2.60   36.80
   1  -8  10   94.09   34.20
  -1  -8 -10   80.59   47.60
   1  -8  10   47.50   39.60
   1   8  10   -2.80   47.20
   1   8  10   -7.90   40.20
   1   8  10   21.70   39.60
  -2  -8 -10 1256.77   96.39
   2  -8  10 1263.97   76.29
  -2  -8 -10 1403.76   94.19
   2   8  10 1154.98   92.79
   2   8  10  990.70   78.99
   2   8  10 1085.49   84.69
  -4  -9  10  190.48   48.10
  -4  -9  10  349.27   58.79
  -4  -9  10  235.48   47.60
   4  -9 -10  346.47   45.20
   4  -9 -10  261.87   58.19
   3  -9 -10  189.48   55.69
  -3  -9  10  161.38   52.29
  -3  -9  10  243.78   47.60
   3  -9 -10  212.78   40.90
  -3  -9  10  304.87   46.60
  -3   9  10  220.98   39.20
  -2  -9  10  125.89   38.70
   2  -9 -10  165.88   50.19
  -2  -9  10  230.68   53.59
   2  -9 -10  256.67   42.50
  -2  -9  10  121.69   50.99
  -2   9  10  178.78   40.00
  -1  -9  10  809.42   68.49
   1  -9 -10  936.71   72.29
  -1  -9  10 1010.10   81.99
   1  -9 -10  884.61   73.79
  -1   9  10  828.82   69.79
   0  -9 -10   27.50   42.50
   0  -9  10  -29.20   34.50
   0  -9 -10  -54.59   36.10
   0   9  10   21.00   36.60
   0   9  10   22.10   36.20
   1  -9  10  621.44   64.19
  -1  -9 -10  802.32   79.09
  -1  -9 -10  760.52   82.09
   1   9  10  825.62   74.89
   1   9  10  841.52   86.49
   7   0 -11  860.31   78.79
  -7   0  11  934.41   91.29
  -7   0  11  988.70   76.39
   7   0 -11  886.01   77.49
   6   0 -11   -9.50   36.50
   6   0 -11   33.20   36.20
  -6   0  11  -30.80   38.30
  -6   0  11  -15.20   41.70
  -6   0  11    3.50   32.80
  -5   0  11  652.83   69.29
  -5   0  11  713.33   65.59
   5   0 -11  609.84   93.59
  -5   0  11  714.13   47.70
   5   0 -11  745.13   71.89
   4   0 -11  -20.50   34.50
  -4   0  11    2.70   32.00
  -4   0  11   65.59   23.70
  -4   0  11   16.20   40.40
   4   0 -11  -12.40   36.50
  -3   0  11  535.75   61.69
  -3   0  11  539.35   56.29
   3   0 -11  784.22   63.69
   3   0 -11  506.15   64.79
  -2   0  11   18.20   29.40
   2   0 -11   22.30   31.40
  -2   0  11   43.00   37.30
  -1   0  11  221.08   43.70
   1   0 -11  307.27   50.29
   1   0 -11  310.27   43.00
  -1   0  11  322.47   44.50
   0   0  11   50.29   35.40
   0   0  11  -38.30   33.10
   0   0 -11   41.60   41.50
   0   0 -11   -4.80   28.70
   1   0  11   24.50   37.10
  -1   0 -11   52.49   41.00
  -1   0 -11   23.30   32.80
   1   0  11    7.90   37.70
   2   0  11   25.20   48.60
   2   0  11   39.40   39.50
  -2   0 -11    2.10   37.10
   3   0  11  601.14   69.29
  -3   0 -11  810.42   68.49
  -3   0 -11  605.54   67.39
   3   0  11  643.94   71.69
  -4   0 -11  -99.99   43.90
  -4   0 -11   24.70   55.49
   4   0  11  -14.60   42.40
   4   0  11  -44.60   42.80
  -7  -1  11   21.80   43.60
   7  -1 -11  -40.00   40.30
   7  -1 -11   66.69   41.70
   7   1 -11   25.50   42.10
  -7   1  11   68.69   41.70
   7   1 -11  -56.49   38.10
  -7   1  11    6.30   46.30
  -6  -1  11  843.42   74.79
  -6  -1  11  891.11   56.39
   6  -1 -11  708.23   69.69
   6  -1 -11  931.31   75.19
  -6  -1  11  782.42   79.19
  -6   1  11  718.03   75.89
   6   1 -11  811.12   71.59
   6   1 -11  901.01   77.69
  -5  -1  11  442.56   44.70
  -5  -1  11  475.15   92.99
  -5  -1  11  304.27   47.40
   5  -1 -11  271.07   48.60
  -5   1  11  299.97   34.60
  -5   1  11  323.97   52.69
  -5   1  11  325.77   45.50
   5   1 -11  284.07   50.79
   4  -1 -11  587.34   66.39
  -4  -1  11  677.93   69.99
   4  -1 -11  498.95   58.49
  -4  -1  11  552.14   61.29
  -4  -1  11  697.73   51.69
  -4   1  11  588.64   56.99
  -4   1  11  507.55   64.59
   4   1 -11  483.75   58.59
   4   1 -11  615.74   63.89
  -4   1  11  612.04   41.90
  -3  -1  11  585.34   59.49
   3  -1 -11  485.05   60.69
  -3  -1  11  566.14   64.69
   3   1 -11  658.83   65.29
  -3   1  11  523.45   66.79
   3   1 -11  651.43   62.29
  -3   1  11  519.85   53.99
   2  -1 -11   35.20   32.10
  -2  -1  11   23.50   35.90
   2  -1 -11   55.99   41.30
  -2  -1  11   15.50   30.90
  -2   1  11   87.99   32.50
   2   1 -11   63.39   29.80
  -2   1  11   18.20   34.50
   2   1 -11   51.99   38.30
   1  -1 -11  622.04   69.59
   1  -1 -11  754.92   65.29
  -1  -1  11  774.62   65.39
  -1  -1  11  723.83   64.59
  -1   1  11  704.63   64.79
  -1   1  11  694.33   60.89
   1   1 -11  725.13   61.39
   0  -1 -11  -26.60   40.70
   0  -1  11   39.70   37.70
   0  -1  11   -6.70   37.90
   0  -1 -11  117.19   38.10
   0   1  11  -19.10   30.80
   0   1  11   44.10   36.10
   0   1 -11   37.90   32.30
  -1  -1 -11  350.96   51.09
   1  -1  11  360.46   52.29
  -1  -1 -11  451.95   60.29
   1  -1  11  431.36   52.29
  -1   1 -11  351.86   55.29
  -1   1 -11  379.26   48.40
   1   1  11  364.86   53.19
   1   1  11  376.66   59.69
  -2  -1 -11  268.47   61.29
   2  -1  11  296.57   49.90
  -2  -1 -11  295.77   52.89
   2  -1  11  166.98   46.10
   2   1  11  306.67   49.60
  -2   1 -11  284.77   45.70
  -2   1 -11  362.76   54.09
   3  -1  11  307.47   52.99
  -3  -1 -11  321.97   57.19
   3  -1  11  423.66   54.99
  -3  -1 -11  380.66   61.59
  -3   1 -11  296.57   61.79
   3   1  11  356.46   52.69
   3   1  11  332.07   51.89
  -3   1 -11  415.16   55.19
   4  -1  11  466.65   60.99
   4  -1  11  528.75   64.49
  -4  -1 -11  473.65   63.39
  -4   1 -11  447.46   63.49
   4   1  11  439.36   59.99
   4   1  11  492.05   61.79
  -4   1 -11  388.66   58.59
  -7  -2  11   -9.30   41.80
  -7  -2  11  100.09   46.60
   7  -2 -11   56.69   42.80
  -7  -2  11  107.19   42.80
   7  -2 -11   13.00   38.30
  -7   2  11   38.30   41.50
  -7   2  11   12.30   45.10
   7   2 -11   33.30   45.10
   7   2 -11   60.49   41.30
   6  -2 -11   27.70   37.90
  -6  -2  11  -10.80   40.10
  -6  -2  11    9.30   30.50
   6  -2 -11  122.69   39.30
  -6  -2  11   25.50   41.80
  -6   2  11   68.99   37.80
   6   2 -11   12.40   37.80
  -6   2  11   43.50   45.40
  -5  -2  11   33.50   42.80
  -5  -2  11   44.00   27.60
   5  -2 -11   81.09   46.60
  -5  -2  11   81.69   51.29
  -5   2  11   31.10   40.10
   5   2 -11    5.00   49.10
  -5   2  11   16.10   33.70
   5   2 -11   38.90   41.80
  -4  -2  11  433.46   53.09
  -4  -2  11  408.56   55.29
  -4  -2  11  320.07   40.00
   4  -2 -11  380.66   51.39
   4  -2 -11  303.07   49.10
   4   2 -11  395.56   49.90
   4   2 -11  382.06   55.89
  -4   2  11  327.47   50.59
  -4   2  11  375.26   45.90
  -4   2  11  370.36   33.80
   3  -2 -11   -8.60   35.30
  -3  -2  11    8.90   36.10
  -3  -2  11  -37.80   33.60
   3   2 -11    2.90   30.70
  -3   2  11   47.00   30.80
   3   2 -11   33.60   40.80
  -3   2  11   57.49   37.00
   2  -2 -11  952.40   73.09
  -2  -2  11  960.50   69.59
  -2  -2  11 1066.49   76.59
   2   2 -11 1065.69   70.89
  -2   2  11 1052.89   66.89
  -2   2  11  949.01   74.69
   2   2 -11  952.60   76.29
   1  -2 -11    4.90   41.70
  -1  -2  11  -19.00   33.90
  -1  -2  11  -32.70   34.00
   1  -2 -11  -26.50   31.80
  -1   2  11  -14.00   30.30
  -1   2  11   51.09   41.10
   1   2 -11   64.29   37.80
   1   2 -11  103.79   32.30
   0  -2 -11 2325.27  108.79
   0  -2  11 2218.08  107.49
   0  -2  11 2142.89  106.69
   0  -2 -11 2165.68  110.19
   0   2 -11 2224.58  100.99
   0   2 -11 2342.67  103.09
   0   2  11 2332.17  106.09
   0   2  11 2158.98  105.39
  -1  -2 -11  -31.20   60.99
   1  -2  11    4.20   47.40
  -1  -2 -11   37.70   39.20
   1  -2  11    4.90   38.50
   1   2  11   17.80   39.10
  -1   2 -11   43.40   34.70
   2  -2  11 1725.43   96.39
   2  -2  11 1617.64  123.39
  -2  -2 -11 1920.21  107.69
  -2  -2 -11 1887.71  101.59
   2   2  11 1854.41   98.89
  -2   2 -11 1999.30   99.09
  -3  -2 -11  108.99   48.80
   3  -2  11  102.69   39.10
   3  -2  11  112.09   45.00
   3   2  11   42.10   42.60
   3   2  11   48.10   39.40
  -3   2 -11   52.49   41.00
  -4  -2 -11  318.57   59.69
   4  -2  11  340.27   54.69
  -4  -2 -11  220.38   57.49
   4  -2  11  291.57   54.99
   4   2  11  346.47   58.19
   4   2  11  383.96   60.39
  -7  -3  11   13.90   45.90
   7  -3 -11   55.99   39.00
  -7  -3  11  -55.89   38.60
  -7  -3  11   46.20   46.00
   7  -3 -11   55.69   43.00
   7   3 -11  122.19   44.40
   7   3 -11   19.00   47.40
  -7   3  11  -20.90   65.69
  -7   3  11  -75.79   78.29
   6  -3 -11  621.74   69.49
  -6  -3  11  627.14   72.69
  -6  -3  11  786.82   65.99
   6  -3 -11  626.24   66.49
  -6  -3  11  679.03   75.39
  -6   3  11  708.13   66.59
  -6   3  11  636.04   72.09
   6   3 -11  718.43   74.09
  -5  -3  11  359.76   53.89
  -5  -3  11  290.77   40.70
  -5  -3  11  286.87   50.69
   5  -3 -11  288.67   47.50
  -5   3  11  278.67   44.00
   5   3 -11  319.07   55.19
   5   3 -11  195.68   49.20
  -5   3  11  300.67   51.99
  -4  -3  11  309.37   48.80
  -4  -3  11  333.37   40.30
   4  -3 -11  269.47   48.60
  -4  -3  11  230.78   52.29
  -4   3  11  278.27   44.10
   4   3 -11  307.87   51.69
   4   3 -11  312.27   47.20
  -4   3  11  255.67   47.70
   3  -3 -11 1063.49   76.99
  -3  -3  11  977.50   77.79
   3  -3 -11 1060.79   86.69
  -3  -3  11 1041.00   75.39
  -3   3  11 1055.89   70.69
   3   3 -11 1216.88   81.59
  -3   3  11 1168.28   71.49
   3   3 -11 1012.90   70.19
   2  -3 -11  -32.20   40.60
  -2  -3  11   61.69   37.40
  -2  -3  11   10.70   37.60
   2  -3 -11  -27.30   37.30
  -2   3  11   34.50   38.20
   2   3 -11   87.09   33.70
  -2   3  11   39.80   30.50
   2   3 -11   38.90   37.50
   1  -3 -11  975.40   76.09
  -1  -3  11  975.70   74.89
   1  -3 -11 1128.49   77.79
  -1  -3  11 1046.80   75.19
   1   3 -11 1025.40   68.09
  -1   3  11  806.52   63.99
  -1   3  11 1000.40   73.29
   1   3 -11  902.91   69.49
   0  -3  11  -46.10   34.60
   0  -3  11    9.60   34.60
   0  -3 -11   14.20   39.90
   0  -3 -11   18.80   39.10
   0   3 -11   42.70   33.50
   0   3  11   11.10   41.40
   0   3  11   25.40   34.80
   0   3 -11   48.60   33.60
  -1  -3 -11 1092.79   97.69
  -1  -3 -11  988.90   81.39
   1  -3  11  932.11   73.29
   1  -3  11  882.51   85.39
   1   3  11  973.80   79.59
  -1   3 -11 1085.89   72.59
  -1   3 -11  907.01   69.79
  -2  -3 -11  334.27   56.69
   2  -3  11  338.97   49.70
  -2  -3 -11  309.37   85.39
   2  -3  11  299.27   60.39
   2   3  11  405.86   53.49
  -2   3 -11  386.76   50.29
  -2   3 -11  302.77   45.50
  -3  -3 -11  323.47   56.19
   3  -3  11  222.88   50.99
  -3  -3 -11  276.77   50.69
   3  -3  11  279.27   49.50
   3   3  11  214.58   48.60
   3   3  11  246.18   53.29
  -3   3 -11  188.98   48.10
  -7  -4  11  689.33   81.49
  -7  -4  11  704.73   81.09
  -7  -4  11  557.14   70.09
   7  -4 -11  629.34   73.29
   7  -4 -11  666.83   74.49
   7   4 -11  529.35   66.39
   7   4 -11  650.83   72.99
  -6  -4  11    8.70   39.40
   6  -4 -11   42.30   37.90
   6  -4 -11  -11.80   40.30
  -6  -4  11   -1.70   44.30
  -6  -4  11  -63.79   39.20
  -6   4  11   -2.30   44.00
  -6   4  11   51.59   40.60
   6   4 -11  -44.10   40.60
  -5  -4  11 1260.77   84.99
  -5  -4  11 1248.88   86.79
   5  -4 -11 1377.66   82.39
  -5  -4  11 1306.37   83.79
   5   4 -11 1222.08   81.69
   5   4 -11 1303.07   89.99
  -5   4  11 1154.28   75.59
  -5   4  11 1353.36   80.19
  -4  -4  11  -50.49   33.10
   4  -4 -11  -29.00   42.50
   4   4 -11   29.70   35.40
  -4   4  11   -6.00   33.60
  -4   4  11   61.69   35.00
   4   4 -11   39.80   37.70
  -3  -4  11  797.52   72.99
  -3  -4  11  739.53   71.09
   3  -4 -11  810.92   75.29
   3  -4 -11  810.12   77.19
  -3   4  11  810.22   64.79
   3   4 -11 1012.80   69.39
   3   4 -11  696.73   70.89
  -3   4  11  814.62   62.99
  -2  -4  11  138.99   39.90
  -2  -4  11   82.99   41.20
   2  -4 -11  109.69   42.60
   2  -4 -11  112.49   40.90
   2   4 -11   69.69   33.60
   2   4 -11  109.49   36.10
  -2   4  11  118.99   40.60
  -2   4  11   51.89   31.80
   1  -4 -11  148.49   42.70
  -1  -4  11   79.79   37.00
  -1  -4  11  155.28   41.90
   1  -4 -11   97.59   43.90
  -1   4  11  139.59   34.30
   1   4 -11  127.89   36.10
  -1   4  11   38.60   37.10
   1   4 -11  120.69   36.30
   0  -4 -11  133.09   43.80
   0  -4  11   87.59   40.00
   0   4 -11   62.29   33.90
   0   4  11  124.69   41.10
   0   4  11   57.39   36.10
   0   4 -11   65.19   34.40
   1  -4  11   78.29   34.70
   1  -4  11   98.69   49.10
  -1  -4 -11   92.89   40.80
  -1   4 -11   49.10   35.90
  -1   4 -11  111.39   35.40
   1   4  11   42.20   42.50
   1   4  11   90.49   41.00
  -2  -4 -11    9.70   43.80
   2  -4  11   70.99   40.20
   2  -4  11   28.60   34.70
  -2  -4 -11  -47.80   36.30
   2   4  11   61.39   42.20
  -2   4 -11   86.39   47.10
  -2   4 -11   44.60   33.90
  -3  -4 -11  813.02   86.69
   3  -4  11  776.32   69.19
  -3  -4 -11  666.43   78.39
   3  -4  11  822.22   70.99
   3   4  11  671.13   77.29
   3   4  11  780.62   76.49
  -3   4 -11  789.42   87.29
   6  -5 -11 1212.98   81.99
  -6  -5  11  864.11   81.79
   6  -5 -11  924.21   75.79
  -6  -5  11 1112.59   85.09
   6   5 -11 1052.79   78.89
  -6   5  11  995.30   66.09
  -5  -5  11   96.89   43.70
  -5  -5  11  102.19   45.30
  -5  -5  11  118.49   44.20
   5  -5 -11   69.09   36.70
  -5   5  11  109.79   31.10
  -5   5  11   74.19   36.10
   5   5 -11  114.69   42.30
  -5   5  11  167.28   41.00
   5   5 -11  165.18   50.79
  -4  -5  11  591.44   65.29
  -4  -5  11  699.03   74.69
  -4  -5  11  594.24   65.89
   4  -5 -11  488.65   62.09
   4   5 -11  418.46   53.99
  -4   5  11  442.46   50.99
  -4   5  11  465.25   54.19
   4   5 -11  577.04   89.79
  -4   5  11  636.94   60.49
  -3  -5  11  585.94   73.89
   3  -5 -11  679.03   73.79
   3  -5 -11  617.34   63.39
   3   5 -11  768.72   68.39
  -3   5  11  733.13   61.49
   3   5 -11  625.04   65.59
  -3   5  11  555.94   57.79
  -2  -5  11  165.48   59.99
   2  -5 -11  167.38   48.30
   2  -5 -11  140.09   51.39
  -2  -5  11   86.99   40.10
  -2   5  11  207.58   43.60
   2   5 -11  158.18   40.60
   2   5 -11  158.98   37.60
  -2   5  11  179.68   37.10
  -1  -5  11  419.56   53.69
   1  -5 -11  432.16   70.69
  -1  -5  11  466.05   56.19
   1   5 -11  380.06   46.10
  -1   5  11  466.25   52.19
  -1   5  11  440.96   48.90
   1   5 -11  497.85   55.89
   0  -5 -11  101.59   42.40
   0  -5  11   71.19   34.10
   0  -5  11  119.69   42.40
   0  -5 -11   46.60   39.60
   0   5  11   26.90   41.50
   0   5 -11  101.19   36.10
   0   5  11  146.09   68.19
   0   5 -11   78.39   32.30
  -1  -5 -11  167.18   48.40
  -1  -5 -11  205.18   47.20
   1  -5  11  278.27   44.40
   1   5  11  224.08   43.20
  -1   5 -11  210.58   34.30
  -1   5 -11  240.18   60.49
   1   5  11  245.78   51.09
  -2  -5 -11  419.26   60.69
   2  -5  11  464.75   52.79
  -2  -5 -11  482.45   59.69
   2  -5  11  381.46   51.79
   2   5  11  588.44   69.29
  -3  -5 -11   60.79   53.09
  -3  -5 -11   47.30   47.00
   3  -5  11  110.09   38.30
   3  -5  11   41.40   43.20
   3   5  11   42.60   46.10
   3   5  11    2.10   46.90
  -6  -6  11   28.90   45.00
   6  -6 -11   59.79   47.60
  -6  -6  11  -25.60   46.60
   6  -6 -11   39.80   37.60
  -6  -6  11  118.59   48.80
   6   6 -11   59.29   45.40
   6   6 -11   41.90   66.39
  -5  -6  11   96.49   43.90
  -5  -6  11  145.79   44.40
  -5  -6  11   51.39   41.90
   5  -6 -11   46.50   36.40
   5   6 -11   65.59   49.20
   5   6 -11   78.89   41.10
  -5   6  11   47.20   32.60
   4  -6 -11   97.59   55.49
  -4  -6  11  265.07   50.59
   4  -6 -11  228.18   44.80
  -4  -6  11  219.28   47.60
  -4  -6  11  220.98   53.09
  -4   6  11  157.58   61.39
  -4   6  11  196.58   35.70
   4   6 -11  206.08   44.50
  -4   6  11  178.88   56.99
  -3  -6  11  101.69   38.10
  -3  -6  11   90.09   41.70
  -3  -6  11   80.69   43.60
   3  -6 -11   93.79   35.40
   3   6 -11  137.69   38.20
  -3   6  11   68.89   36.20
  -3   6  11  110.69   38.10
   3   6 -11  108.89   42.20
  -3   6  11   -0.10   33.90
  -2  -6  11 1065.59   74.39
   2  -6 -11  951.70   71.19
   2   6 -11 1010.70   71.59
   2   6 -11  946.91   68.39
  -2   6  11  836.32   75.89
  -2   6  11  921.41   69.99
  -2   6  11 1063.49   72.29
  -1  -6  11   25.10   32.90
   1  -6 -11  -16.10   36.10
  -1  -6  11  -47.10   42.10
   1  -6 -11   23.00   35.40
  -1   6  11  -30.60   35.70
  -1   6  11   11.50   34.20
   1   6 -11   37.50   34.40
   1   6 -11  -28.80   29.70
   0  -6 -11 1671.93   98.49
   0  -6 -11 1607.64   96.49
   0  -6  11 1563.14   88.89
   0   6 -11 1596.34   73.29
   0   6  11 1706.83   93.19
   1  -6  11   20.80   32.90
   1  -6  11  -43.00   42.60
  -1  -6 -11  -39.50   41.70
  -1  -6 -11    3.70   40.30
   1   6  11    9.60   47.70
   1   6  11  -25.50   39.10
  -2  -6 -11 1129.69   87.39
  -2  -6 -11 1086.09   86.39
   2  -6  11 1086.39   75.69
   2  -6  11 1142.49   80.29
   2   6  11 1111.69   84.29
   2   6  11  980.40   81.89
   5  -7 -11  308.27   49.00
  -5  -7  11  483.15   62.89
  -5  -7  11  383.86   59.39
  -5  -7  11  272.67   53.29
   5   7 -11  352.36   61.19
  -5   7  11  272.97   39.50
   5   7 -11  257.57   49.50
  -4  -7  11   82.59   46.70
  -4  -7  11   99.39   47.70
  -4  -7  11   78.99   42.20
   4  -7 -11  121.09   47.00
   4  -7 -11  109.69   36.60
   4   7 -11   51.39   40.70
  -4   7  11  160.58   37.80
  -3  -7  11  767.42   72.39
  -3  -7  11  756.32   76.19
   3  -7 -11  719.33   68.19
   3  -7 -11  739.83   69.59
  -3  -7  11  702.73   78.49
   3   7 -11  799.52   69.89
  -3   7  11  946.71   58.39
  -3   7  11  676.33   59.09
   2  -7 -11  -29.10   36.80
  -2  -7  11   66.09   37.20
  -2  -7  11  -59.09   33.30
   2  -7 -11   -8.80   35.20
   2   7 -11  -37.70   32.00
  -2   7  11   37.70   30.10
  -2   7  11   15.10   35.40
  -2   7  11    3.30   44.00
   1  -7 -11 1228.08   87.59
  -1  -7  11 1104.39  103.79
   1  -7 -11  931.21   77.99
  -1  -7  11 1150.48   77.99
  -1   7  11 1042.00   79.89
   1   7 -11 1158.58   59.29
  -1   7  11 1144.09   78.39
  -1   7  11 1203.58   80.19
   0  -7  11   -0.20   42.70
   0  -7 -11    2.60   43.60
   0  -7  11    9.30   34.40
   0  -7 -11   52.99   40.70
   0   7  11   13.10   39.10
   0   7  11   38.70   46.80
   0   7  11    1.10   37.60
   1  -7  11  725.73   71.99
  -1  -7 -11  873.51   85.59
  -1  -7 -11  662.13   79.39
   1  -7  11  788.42   67.79
   1   7  11  875.71   90.29
   1   7  11  733.03   73.29
   1   7  11  718.13   74.39
   4  -8 -11   56.99   44.20
  -4  -8  11   37.00   46.60
   4  -8 -11   98.29   38.80
  -4  -8  11    3.10   45.00
  -4  -8  11   18.20   44.10
  -4   8  11   15.10   30.50
  -3  -8  11  328.67   57.19
   3  -8 -11  256.97   52.59
  -3  -8  11  398.56   53.79
  -3  -8  11  282.07   50.09
   3  -8 -11  354.66   49.40
  -3   8  11  489.35   53.19
   3   8 -11  337.57   50.49
  -2  -8  11  302.57   51.89
   2  -8 -11  317.77   47.20
  -2  -8  11  341.57   48.20
   2  -8 -11  365.06   53.69
  -2  -8  11  285.07   54.99
  -2   8  11  202.28   42.60
  -1  -8  11  235.08   43.80
   1  -8 -11  154.28   44.20
   1  -8 -11   89.59   49.00
  -1  -8  11  177.38   45.30
  -1   8  11   58.49   44.70
  -1   8  11  186.18   44.50
   0  -8 -11  235.68   57.49
   0  -8  11  151.48   44.90
   0  -8 -11  253.77   51.79
   0   8  11  219.88   49.90
   0   8  11  214.98   57.69
   7   0 -12  -64.89   43.60
   7   0 -12  -22.60   43.10
  -7   0  12 -104.79   47.20
  -6   0  12  295.57   52.09
   6   0 -12  253.97   51.39
   5   0 -12   31.80   40.30
  -5   0  12  -13.50   42.60
  -5   0  12   46.90   41.80
   5   0 -12  -29.10   34.30
  -5   0  12    7.00   26.60
   4   0 -12 1774.52   97.19
  -4   0  12 1636.54   99.79
  -4   0  12 1688.53   98.49
  -4   0  12 1687.23   78.69
   3   0 -12   46.90   41.70
  -3   0  12   10.00   45.30
   3   0 -12    3.30   38.80
  -3   0  12  -12.20   37.20
   2   0 -12 2097.59  107.49
  -2   0  12 1932.41  102.99
  -2   0  12 1892.71  115.29
  -1   0  12  -55.29   36.60
   1   0 -12   51.99   42.30
  -1   0  12  -12.60   38.30
   0   0 -12 1052.19   84.59
   0   0  12  973.70   75.79
   0   0 -12 1095.49   85.89
   1   0  12  -38.40   34.30
  -1   0 -12   83.29   48.90
  -1   0 -12  -81.09   41.70
   1   0  12   45.20   39.50
   2   0  12  334.97   54.19
  -2   0 -12  271.57   56.39
  -2   0 -12  296.47   60.09
   2   0  12  312.17   52.69
   3   0  12   47.70   45.50
   3   0  12   66.09   47.90
  -3   0 -12   56.29   45.20
  -6  -1  12  235.18   51.49
   6  -1 -12  299.37   52.39
   6  -1 -12  328.07   54.69
  -6  -1  12  262.27   54.09
   6   1 -12  323.77   53.99
   6   1 -12  248.78   50.99
  -6   1  12  214.98   55.79
  -6   1  12  286.17   51.59
  -5  -1  12  726.23   79.39
   5  -1 -12  728.73   70.59
   5  -1 -12  634.94   69.39
  -5   1  12  650.83   70.29
  -5   1  12  648.14   68.29
   5   1 -12  551.64   70.89
   5   1 -12  538.75   66.99
   4  -1 -12  -35.70   36.40
  -4  -1  12  -75.99   37.60
  -4  -1  12   83.99   40.60
  -4  -1  12    4.80   27.90
   4  -1 -12  -47.20   49.80
  -4   1  12   68.89   25.40
   4   1 -12  108.39   44.10
  -4   1  12  -19.20   38.30
  -4   1  12   -6.10   36.90
   4   1 -12   14.70   39.10
   3  -1 -12 1013.90   78.19
   3  -1 -12 1089.49   80.69
  -3  -1  12  975.30   78.59
  -3  -1  12 1009.80   82.29
   3   1 -12 1013.20   82.79
  -3   1  12 1069.39   77.79
   3   1 -12  941.31   82.29
  -3   1  12 1065.49   91.29
   2  -1 -12  315.37   51.19
  -2  -1  12  223.18   48.80
  -2  -1  12  272.47   49.70
  -2   1  12  344.07   63.19
  -2   1  12  248.08   48.90
   2   1 -12  246.78   47.10
   1  -1 -12  852.71   77.29
   1  -1 -12  835.42   83.79
  -1  -1  12  779.12   69.89
  -1   1  12  849.02   71.19
   1   1 -12  829.82   73.39
  -1   1  12  751.22   72.29
   0  -1  12  196.58   44.70
   0  -1 -12  301.67   54.09
   0  -1 -12  389.16   54.69
   0  -1  12  411.86   54.89
   0   1  12  200.48   45.80
   0   1 -12  390.36   51.79
   1  -1  12   83.49   41.70
  -1  -1 -12   17.40   46.70
  -1  -1 -12  124.59   47.10
   1  -1  12  184.68   46.00
   1   1  12   94.59   39.50
  -1   1 -12  116.29   46.30
   1   1  12   91.39   40.40
  -2  -1 -12  307.67   56.89
   2  -1  12  218.68   48.90
   2  -1  12  263.57   51.49
   2   1  12  310.17   53.19
  -2   1 -12  319.07   61.29
   2   1  12  286.47   52.39
   3  -1  12  -40.30   46.80
   3   1  12  -26.00   43.20
  -6  -2  12   28.40   34.50
  -6  -2  12  -20.60   45.20
   6  -2 -12  -28.30   43.10
  -6  -2  12   27.50   42.80
   6  -2 -12  -17.30   39.60
   6   2 -12  -19.20   43.00
  -6   2  12   34.50   51.19
   6   2 -12  116.29   45.10
  -6   2  12   42.40   44.90
  -5  -2  12  381.76   57.99
   5  -2 -12  466.45   59.99
   5  -2 -12  482.15   59.39
  -5  -2  12  516.75   57.09
  -5  -2  12  505.95   58.59
   5   2 -12  313.37   55.79
  -5   2  12  454.85   59.29
   5   2 -12  286.47   56.59
  -5   2  12  474.35   58.79
  -4  -2  12   42.30   41.60
   4  -2 -12   40.40   37.60
  -4  -2  12  106.79   36.50
   4  -2 -12    7.90   37.80
   4   2 -12   -1.90   42.50
  -4   2  12   -9.10   41.90
   4   2 -12   36.90   40.80
  -4   2  12   74.29   40.20
  -3  -2  12  100.59   40.30
   3   2 -12   90.99   42.10
  -3   2  12   99.79   40.70
   3   2 -12  197.88   50.79
  -2  -2  12   46.00   39.40
   2  -2 -12   59.69   42.10
   2  -2 -12  -33.90   40.90
   2   2 -12  -29.10   36.20
  -2   2  12   87.49   52.19
  -2   2  12   34.10   38.20
  -1  -2  12  100.49   39.40
   1  -2 -12  186.08   49.60
   1  -2 -12  141.79   47.60
  -1  -2  12  208.98   47.90
  -1   2  12  174.58   42.40
   1   2 -12  167.28   42.10
  -1   2  12   65.29   44.50
   0  -2 -12   18.80   41.90
   0  -2  12   -1.30   35.00
   0  -2 -12  106.79   49.10
   0  -2  12   -0.20   35.70
   0   2  12   38.90   41.70
   0   2  12  -20.30   39.20
   0   2 -12    2.80   39.40
   1  -2  12 1262.57   84.59
  -1  -2 -12 1086.39  101.59
   1  -2  12 1248.58   86.59
  -1  -2 -12 1151.58   94.79
   1   2  12 1402.76   88.49
   1   2  12 1366.46   88.79
  -1   2 -12 1230.98   88.69
  -1   2 -12 1275.07   79.39
  -2  -2 -12   37.30   46.20
  -2  -2 -12 -111.29   47.80
   2  -2  12  -12.30   40.30
   2  -2  12   10.60   40.50
   2   2  12  -66.79   41.20
  -2   2 -12   40.00   47.90
   2   2  12   48.40   41.60
  -6  -3  12  295.97   55.49
   6  -3 -12  576.64   65.69
  -6  -3  12  445.26   63.79
  -6  -3  12  567.34   66.39
   6  -3 -12  539.15   63.89
  -6   3  12  545.95   67.79
   6   3 -12  525.35   63.99
  -6   3  12  499.75   61.19
   6   3 -12  434.96   60.29
   5  -3 -12  483.45   64.09
  -5  -3  12  601.04   69.89
  -5  -3  12  466.25   63.39
  -5  -3  12  640.14   70.79
   5  -3 -12  609.54   73.19
  -5   3  12  498.85   60.29
   5   3 -12  475.95   76.99
   5   3 -12  561.94   64.49
  -5   3  12  534.35   68.49
  -4  -3  12   54.19   38.00
  -4  -3  12   47.40   36.80
   4  -3 -12   90.69   39.80
  -4  -3  12   87.29   42.00
  -4   3  12  107.69   42.00
   4   3 -12   32.00   45.60
  -4   3  12    2.90   50.09
   4   3 -12  -53.19   37.10
   3  -3 -12  305.67   50.49
  -3  -3  12  289.37   48.60
  -3  -3  12  364.46   51.49
   3   3 -12  363.96   50.79
  -3   3  12  308.67   54.99
   3   3 -12  371.46   52.99
   2  -3 -12   81.69   44.60
   2  -3 -12   30.10   41.60
  -2  -3  12  121.49   37.30
  -2  -3  12   67.99   40.70
  -2   3  12  163.18   41.40
  -2   3  12  162.28   45.80
   2   3 -12  140.99   60.79
  -1  -3  12  359.56   50.49
   1  -3 -12  401.56   58.29
   1  -3 -12  450.15   60.19
  -1  -3  12  386.16   51.99
   1   3 -12  478.25   87.09
  -1   3  12  363.66   53.99
   1   3 -12  380.66   50.29
  -1   3  12  358.36   50.49
   0  -3  12  563.84   65.49
   0  -3 -12  612.94   70.99
   0  -3  12  672.23   71.49
   0  -3 -12  722.73   73.69
   0   3 -12  465.05   73.19
   0   3  12  568.04   68.59
   0   3 -12  601.94   58.99
   0   3  12  570.54   64.29
  -1  -3 -12  159.78   45.10
   1  -3  12  156.68   48.70
  -1  -3 -12  114.99   47.30
   1  -3  12  195.58   46.80
   1   3  12  175.38   45.70
   1   3  12  136.19   46.80
  -1   3 -12  183.78   45.30
  -2  -3 -12  486.95   65.69
   2  -3  12  387.66   57.89
  -2  -3 -12  397.06   61.59
   2  -3  12  455.45   58.69
  -2   3 -12  313.77   55.79
   2   3  12  313.77   57.29
   2   3  12  482.35   64.99
   6  -4 -12  159.18   55.59
   6  -4 -12  265.87   51.49
  -6  -4  12  112.89   49.99
  -6  -4  12  223.38   57.89
  -6   4  12  205.88   49.70
   6   4 -12  234.88   55.99
   6   4 -12  221.58   52.19
  -5  -4  12  -34.80   43.60
   5  -4 -12  -34.40   41.80
  -5  -4  12   66.79   53.39
   5  -4 -12   79.09   41.00
  -5  -4  12   91.89   44.00
  -5   4  12   18.40   52.99
   5   4 -12  194.68   45.50
  -5   4  12  133.89   42.50
  -4  -4  12 1001.70   82.59
   4  -4 -12  856.91   79.89
  -4  -4  12  978.50   79.99
  -4  -4  12  948.41   81.29
   4   4 -12 1070.79   74.99
   4   4 -12  813.92   86.89
  -4   4  12  839.22   73.89
  -3  -4  12  -48.00   35.10
   3  -4 -12  -62.79   33.40
   3  -4 -12   65.29   44.30
  -3  -4  12   96.49   41.40
  -3   4  12  -65.19   35.90
   3   4 -12   16.00   36.60
   3   4 -12  -39.50   37.60
  -2  -4  12 1996.80  103.19
   2  -4 -12 1987.10  107.59
   2  -4 -12 1912.21  106.39
  -2  -4  12 1978.20  104.79
  -2   4  12 2162.48  106.79
   2   4 -12 1944.11  101.19
  -2   4  12 2187.48  101.69
  -1  -4  12   16.70   36.40
   1  -4 -12  133.69   42.50
   1  -4 -12  -58.19   36.50
  -1  -4  12   51.39   37.10
  -1   4  12   64.49   45.10
   1   4 -12   76.29   39.00
   1   4 -12   78.79   40.70
  -1   4  12   56.09   37.30
   0  -4 -12 1114.99   86.39
   0  -4 -12 1111.69   86.29
   0  -4  12 1104.09   82.49
   0  -4  12 1159.08   80.59
   0   4 -12 1247.58   81.79
   0   4 -12 1209.48   82.99
   0   4  12 1230.98   84.79
   0   4  12 1174.18   88.89
   1  -4  12   49.80   44.00
  -1  -4 -12   96.19   49.90
   1  -4  12   52.79   37.50
  -1  -4 -12    2.70   42.80
  -1   4 -12  132.49   47.10
   1   4  12   38.10   43.60
  -1   4 -12  -22.30   58.29
   1   4  12    9.80   42.50
   2  -4  12  304.97   51.99
  -2  -4 -12  361.96   59.99
   2  -4  12  275.97   50.59
  -2  -4 -12  348.57   63.49
   2   4  12  269.97   52.89
   2   4  12  382.26   59.89
  -2   4 -12  299.97   51.39
  -5  -5  12  874.81   81.99
  -5  -5  12  859.81   80.59
  -5  -5  12  848.02   80.19
   5  -5 -12  736.13   79.29
   5  -5 -12  863.11   80.79
   5   5 -12  777.02   78.89
  -4  -5  12   11.90   41.10
  -4  -5  12   -6.00   41.60
  -4  -5  12  -43.20   40.30
   4  -5 -12   93.09   39.70
  -4   5  12    1.90   49.20
   4   5 -12   -9.90   50.69
   4   5 -12   59.79   41.20
  -4   5  12   35.00   40.30
   3  -5 -12  898.31   82.99
   3  -5 -12 1049.00   80.49
  -3  -5  12 1158.28   87.49
  -3  -5  12 1124.59   78.59
  -3  -5  12 1065.99   83.09
   3   5 -12  975.70   86.89
   3   5 -12 1279.07   79.79
  -3   5  12  993.90   76.39
  -2  -5  12  -56.39   36.40
   2  -5 -12   -4.40   42.60
   2  -5 -12   64.99   42.30
  -2  -5  12   33.60   39.00
   2   5 -12  127.59   41.50
  -2   5  12   57.99   40.20
  -2   5  12  101.19   43.20
  -1  -5  12  535.75   68.09
   1  -5 -12  641.14   72.09
   1  -5 -12  617.84   69.29
  -1  -5  12  542.65   67.89
   1   5 -12  634.94   73.19
   1   5 -12  730.63   71.09
  -1   5  12  613.04   67.19
  -1   5  12  663.33   76.99
   0  -5 -12  153.58   49.60
   0  -5  12  234.28   48.40
   0  -5 -12   54.89   44.70
   0  -5  12  218.08   47.10
   0   5  12  184.88   53.79
   0   5  12  187.28   45.80
   0   5 -12  177.58   48.30
  -1  -5 -12  285.77   53.69
   1  -5  12  218.28   46.70
   1  -5  12  232.08   48.70
  -1  -5 -12  280.37   56.09
   1   5  12  240.48   53.69
   1   5  12  239.68   50.99
  -1   5 -12  228.88   46.60
   4  -6 -12  191.38   54.69
  -4  -6  12  123.69   48.00
  -4  -6  12   75.29   49.00
  -4  -6  12  119.09   48.90
   4  -6 -12   45.40   40.60
   4   6 -12   59.09   56.69
  -4   6  12  172.38   50.19
   4   6 -12  207.58   47.10
  -4   6  12  125.59   32.90
   3  -6 -12    9.00   50.19
  -3  -6  12  132.99   45.50
  -3  -6  12   58.79   47.40
  -3  -6  12   37.40   40.40
   3  -6 -12  -12.30   36.90
  -3   6  12  104.09   35.30
   3   6 -12   71.79   41.60
  -3   6  12   49.60   52.09
   3   6 -12   15.20   44.70
  -2  -6  12  109.69   45.60
   2  -6 -12   76.69   40.50
  -2  -6  12   58.59   40.40
   2  -6 -12   50.79   47.70
  -2   6  12   72.99   43.10
   2   6 -12   -3.00   65.59
  -2   6  12   76.29   38.10
  -2   6  12  121.29   45.20
   2   6 -12  138.59   46.50
  -1  -6  12  130.19   40.80
   1  -6 -12  100.39   50.09
   1  -6 -12   73.99   42.10
  -1  -6  12  115.69   44.10
  -1   6  12   77.39   40.80
  -1   6  12   26.20   39.40
  -1   6  12  108.29   49.10
   1   6 -12  122.69   45.20
   0  -6  12   80.69   41.20
   0  -6  12   77.79   40.60
   0  -6 -12   79.69   46.10
   0  -6 -12  -11.00   47.70
   0   6  12   76.49   42.30
   0   6  12   14.40   51.69
  -3  -7  12  234.68   53.19
   3  -7 -12  214.58   54.09
  -3   7  12  147.39   43.10
  -2  -7  12  186.38   47.30
   2  -7 -12  126.79   52.69
  -2  -7  12  114.79   47.60
   2  -7 -12  191.98   49.30
  -2   7  12  156.48   42.80
   2   7 -12  174.28   59.49
  -1  -7  12  239.98   49.50
   1  -7 -12  130.89   56.89
  -1  -7  12  144.99   46.90
  -1   7  12  167.98   48.10
  -1   7  12  127.99   46.00
   5   0 -13   78.99   42.70
   5   0 -13  128.89   50.89
  -5   0  13   -8.60   45.80
  -5   0  13  -50.39   41.90
  -4   0  13   26.50   39.80
   4   0 -13  -35.20   41.80
  -4   0  13   51.49   31.70
   4   0 -13   54.69   45.30
  -4   0  13    4.10   43.10
  -3   0  13  482.85   59.79
   3   0 -13  396.06   56.59
   3   0 -13  450.65   59.59
  -3   0  13  298.17   51.19
   2   0 -13   -9.10   37.80
  -2   0  13   12.60   37.70
   2   0 -13    5.00   42.60
  -2   0  13   65.59   39.80
  -1   0  13 1216.18   89.99
   1   0 -13 1073.59   88.69
  -1   0  13 1102.59   82.49
   0   0 -13   36.80   46.00
   0   0  13  -72.79   39.80
   0   0  13   12.10   41.10
   1   0  13 1046.40   87.99
   1   0  13  871.21   83.79
  -1   0 -13 1072.49   95.49
   5  -1 -13  802.92   79.59
  -5  -1  13  698.83   76.09
   5  -1 -13  675.43   77.99
  -5  -1  13  625.54   76.09
   5   1 -13  649.83   72.59
  -5   1  13  735.33   82.19
  -5   1  13  731.53   78.79
   5   1 -13  670.03   78.49
  -4  -1  13  173.88   50.09
   4  -1 -13  220.78   49.80
   4  -1 -13  219.08   49.70
  -4  -1  13  159.88   48.40
  -4  -1  13  212.58   42.80
   4   1 -13  220.08   50.89
   4   1 -13  317.57   55.29
  -4   1  13  164.88   49.40
  -4   1  13  203.78   54.39
   3  -1 -13  352.56   57.49
  -3  -1  13  267.57   50.99
  -3  -1  13  334.47   54.19
   3  -1 -13  365.56   55.79
  -3   1  13  423.66   56.69
   3   1 -13  355.66   54.09
   3   1 -13  320.77   55.69
  -3   1  13  421.56   60.09
   2  -1 -13  345.27   52.79
  -2  -1  13  229.08   47.50
  -2  -1  13  261.37   49.40
   2   1 -13  208.78   50.89
  -2   1  13  204.38   45.10
  -2   1  13  280.87   52.19
  -1  -1  13  116.09   43.60
  -1  -1  13  -35.90   39.00
   1  -1 -13   -0.70   40.40
   1   1 -13   14.80   40.60
  -1   1  13   38.00   40.90
  -1   1  13   51.49   43.50
   0  -1  13  356.76   55.99
   0  -1  13  521.65   66.19
   0  -1 -13  439.56   59.89
   0  -1 -13  419.76   66.79
   0   1  13  441.26   61.29
   0   1  13  263.57   53.89
   1  -1  13  -61.09   41.80
  -1  -1 -13   50.49   52.19
  -1  -1 -13  -85.09   49.70
   1  -1  13   32.90   45.60
   1   1  13   24.10   42.90
   1   1  13 -118.19   44.80
  -5  -2  13  -27.30   49.70
   5  -2 -13  109.49   45.50
  -5  -2  13    6.90   46.40
   5  -2 -13   -0.60   48.30
  -5  -2  13   36.70   44.80
  -5   2  13    5.60   44.00
   5   2 -13   55.99   52.19
   5   2 -13   15.10   46.60
  -4  -2  13 1097.29   87.89
  -4  -2  13 1252.07   87.49
   4  -2 -13 1258.07   87.89
   4  -2 -13 1155.98   87.79
  -4  -2  13 1166.28   88.09
   4   2 -13 1392.36   93.29
  -4   2  13 1064.89   82.39
   4   2 -13 1178.38   87.29
  -3  -2  13  -58.19   36.50
   3  -2 -13   42.80   43.00
  -3  -2  13   -3.30   39.20
   3   2 -13    8.20   42.50
  -3   2  13   -4.00   39.80
   3   2 -13  -25.00   58.29
  -2  -2  13  820.32   75.89
   2  -2 -13  850.51   78.49
  -2  -2  13  907.41   76.79
  -2   2  13  998.10   76.89
   2   2 -13  774.42   78.39
  -2   2  13  799.72   92.39
   2   2 -13  702.73   84.19
  -1  -2  13   29.80   40.00
   1  -2 -13   31.10   46.60
  -1  -2  13   62.49   42.80
   1  -2 -13   35.90   42.10
  -1   2  13   62.49   38.50
   1   2 -13  -81.89   47.90
   1   2 -13  -93.99   40.20
  -1   2  13    6.60   42.50
   0  -2  13  277.37   51.29
   0  -2  13  306.17   53.99
   0  -2 -13  182.28   60.69
   0   2  13  281.37   54.69
   0   2 -13  323.17   55.39
   0   2 -13  262.07   62.09
   0   2  13  302.37   55.89
   1  -2  13  -37.80   47.90
  -1  -2 -13   69.09   57.19
   1  -2  13  -40.50   44.20
   1   2  13   -4.30   41.90
   1   2  13   -7.70   45.20
  -1   2 -13   30.90   60.99
  -4  -3  13  224.18   47.30
   4  -3 -13  126.39   50.49
   4  -3 -13  130.89   49.20
  -4  -3  13  197.38   51.99
   4   3 -13  188.08   51.29
  -4   3  13   68.39   44.20
   4   3 -13  145.89   50.09
  -4   3  13   84.09   56.29
   3  -3 -13  328.87   56.69
  -3  -3  13  338.57   53.29
  -3  -3  13  381.36   54.39
   3   3 -13  587.44   71.19
  -3   3  13  433.76   56.89
  -3   3  13  453.55   68.59
   2  -3 -13  228.28   49.60
  -2  -3  13  209.28   49.60
  -2  -3  13  222.68   48.80
  -2   3  13  253.07   48.30
   2   3 -13  315.97   60.19
   2   3 -13  266.57   48.30
   1  -3 -13   -9.30   46.30
  -1  -3  13  129.79   45.40
  -1  -3  13   59.69   42.20
   1  -3 -13   45.30   44.60
   1   3 -13    5.90   44.70
  -1   3  13  138.89   49.10
  -1   3  13   57.09   43.80
   1   3 -13   56.59   56.49
   0  -3 -13  253.07   53.59
   0  -3 -13  232.18   57.29
   0  -3  13  117.69   48.40
   0  -3  13  188.98   49.30
   0   3 -13  183.68   64.09
   0   3  13  174.58   49.70
   0   3 -13  220.68   51.09
   0   3  13  209.98   52.99
  -4  -4  13   55.79   45.20
   4  -4 -13    2.40   44.70
  -4  -4  13   93.39   43.70
  -4  -4  13    2.80   44.00
   4   4 -13  -52.69   42.40
  -4   4  13   98.69   57.69
   4   4 -13    9.30   49.60
  -4   4  13   67.09   44.20
  -3  -4  13  326.37   55.59
  -3  -4  13  385.56   58.19
   3  -4 -13  301.47   56.79
   3   4 -13  317.27   67.89
  -3   4  13  345.67   52.59
  -3   4  13  295.17   61.39
   3   4 -13  229.88   51.89
  -2  -4  13   44.20   46.20
   2  -4 -13   38.90   41.70
  -2  -4  13  198.88   49.50
   2  -4 -13   58.59   49.50
  -2   4  13   20.20   42.60
   2   4 -13   40.40   42.10
   2   4 -13   61.09   54.79
  -1  -4  13  913.81   79.39
   1  -4 -13  912.71   81.79
  -1  -4  13  920.31   83.29
   1  -4 -13  830.22   90.69
   1   4 -13  940.11   95.89
   1   4 -13  790.12   77.99
  -1   4  13  773.32   80.39
  -1   4  13  874.11   86.79
   0   0   0    0.00    0.00

_computing_structure_solution     'SHELXT 2014/5 (Sheldrick, 2014)'
;
_shelx_hkl_checksum              14909
loop_
_space_group_symop_operation_xyz
'x, y, z'
'-x+1/2, y+1/2, -z+1/2'
'-x, -y, -z'
'x-1/2, -y-1/2, z-1/2'
loop_
_atom_site_label
_atom_site_type_symbol
_atom_site_fract_x
_atom_site_fract_y
_atom_site_fract_z
_atom_site_U_iso_or_equiv
_atom_site_adp_type
_atom_site_occupancy
_atom_site_site_symmetry_order
_atom_site_calc_flag
_atom_site_refinement_flags_posn
_atom_site_refinement_flags_adp
_atom_site_refinement_flags_occupancy
_atom_site_disorder_assembly
_atom_site_disorder_group
Ho Ho 0.53732(2) 0.88288(2) 0.34214(2) 0.00490(4) Uani 1 1 d . . . . .
K K 0.57442(9) 0.37574(6) 0.41377(7) 0.01071(11) Uani 1 1 d . . . . .
O1 O 0.7233(3) 0.72717(19) 0.8172(2) 0.0075(4) Uani 1 1 d . . . . .
O2 O 0.6006(3) 0.9643(2) 0.8586(2) 0.0084(4) Uani 1 1 d . . . . .
O3 O 0.6021(3) 0.8943(2) 0.6075(2) 0.0100(4) Uani 1 1 d . . . . .
O4 O 0.6579(3) 0.4983(2) 0.1496(2) 0.0078(4) Uani 1 1 d . . . . .
O5 O 0.5740(3) 0.7480(2) 0.1239(2) 0.0090(4) Uani 1 1 d . . . . .
O6 O 0.6593(3) 0.6505(2) 0.3700(2) 0.0090(4) Uani 1 1 d . . . . .
B1 B 0.6489(5) 0.8589(3) 0.7626(4) 0.0071(5) Uani 1 1 d . . . . .
B2 B 0.6314(4) 0.6300(3) 0.2151(3) 0.0065(5) Uani 1 1 d . . . . .
Li1 Li 0.4176(8) 0.8833(6) 0.9949(6) 0.0132(10) Uani 1 1 d . . . . .
Li2 Li 0.4179(8) 0.3848(6) 0.0505(6) 0.0145(10) Uani 1 1 d . . . . .
loop_
_atom_site_aniso_label
_atom_site_aniso_U_11
_atom_site_aniso_U_22
_atom_site_aniso_U_33
_atom_site_aniso_U_23
_atom_site_aniso_U_13
_atom_site_aniso_U_12
Ho 0.00613(6) 0.00409(6) 0.00460(6) -0.00003(5) 0.00146(4) 0.00008(5)
K 0.0134(3) 0.0091(2) 0.0094(3) 0.0002(2) 0.0023(2) -0.0021(2)
O1 0.0080(9) 0.0070(8) 0.0077(9) 0.0016(7) 0.0018(7) 0.0030(7)
O2 0.0115(9) 0.0073(8) 0.0063(9) -0.0005(7) 0.0019(8) 0.0025(7)
O3 0.0162(10) 0.0100(9) 0.0031(8) 0.0008(7) 0.0011(7) 0.0035(8)
O4 0.0072(9) 0.0071(8) 0.0090(10) -0.0023(7) 0.0018(7) 0.0002(7)
O5 0.0141(10) 0.0069(8) 0.0066(10) 0.0012(7) 0.0034(8) 0.0018(7)
O6 0.0134(10) 0.0079(8) 0.0053(9) -0.0009(7) 0.0012(7) 0.0023(7)
B1 0.0056(13) 0.0064(13) 0.0091(14) -0.0012(10) 0.0016(10) -0.0001(10)
B2 0.0039(12) 0.0071(13) 0.0088(13) 0.0004(11) 0.0023(10) -0.0004(10)
Li1 0.012(2) 0.012(2) 0.012(2) 0.001(2) -0.003(2) -0.002(2)
Li2 0.017(3) 0.013(2) 0.014(3) -0.002(2) 0.003(2) -0.003(2)
loop_
_atom_type_symbol
_atom_type_description
_atom_type_scat_dispersion_real
_atom_type_scat_dispersion_imag
_atom_type_scat_source
B B 0.0013 0.0007 'International Tables Vol C Tables 4.2.6.8 and 6.1.1.4'
Ho Ho -0.2175 4.6783 'International Tables Vol C Tables 4.2.6.8 and 6.1.1.4'
K K 0.2009 0.2494 'International Tables Vol C Tables 4.2.6.8 and 6.1.1.4'
Li Li -0.0003 0.0001 'International Tables Vol C Tables 4.2.6.8 and 6.1.1.4'
O O 0.0106 0.0060 'International Tables Vol C Tables 4.2.6.8 and 6.1.1.4'
loop_
_geom_angle_atom_site_label_1
_geom_angle_atom_site_label_2
_geom_angle_atom_site_label_3
_geom_angle
_geom_angle_site_symmetry_1
_geom_angle_site_symmetry_3
O4 Ho O6 98.25(7) 2_655 .
O4 Ho O1 176.09(7) 2_655 4_575
O6 Ho O1 83.58(7) . 4_575
O4 Ho O2 86.36(7) 2_655 3_676
O6 Ho O2 136.84(7) . 3_676
O1 Ho O2 89.95(7) 4_575 3_676
O4 Ho O3 89.05(7) 2_655 .
O6 Ho O3 87.17(7) . .
O1 Ho O3 94.50(7) 4_575 .
O2 Ho O3 135.95(7) 3_676 .
O4 Ho O3 88.29(7) 2_655 3_676
O6 Ho O3 161.74(7) . 3_676
O1 Ho O3 90.98(7) 4_575 3_676
O2 Ho O3 60.25(7) 3_676 3_676
O3 Ho O3 75.85(7) . 3_676
O4 Ho O5 91.11(7) 2_655 .
O6 Ho O5 59.79(7) . .
O1 Ho O5 86.84(7) 4_575 .
O2 Ho O5 77.31(7) 3_676 .
O3 Ho O5 146.63(7) . .
O3 Ho O5 137.51(7) 3_676 .
O4 Ho B2 97.44(8) 2_655 .
O6 Ho B2 29.96(8) . .
O1 Ho B2 82.41(8) 4_575 .
O2 Ho B2 106.90(8) 3_676 .
O3 Ho B2 117.13(8) . .
O3 Ho B2 165.73(8) 3_676 .
O5 Ho B2 29.96(8) . .
O4 Ho B1 86.33(8) 2_655 3_676
O6 Ho B1 166.21(8) . 3_676
O1 Ho B1 91.11(8) 4_575 3_676
O2 Ho B1 30.02(8) 3_676 3_676
O3 Ho B1 105.98(8) . 3_676
O3 Ho B1 30.23(8) 3_676 3_676
O5 Ho B1 107.33(8) . 3_676
B2 Ho B1 136.73(9) . 3_676
O4 Ho Li1 93.60(11) 2_655 1_554
O6 Ho Li1 96.83(11) . 1_554
O1 Ho Li1 82.74(11) 4_575 1_554
O2 Ho Li1 40.03(11) 3_676 1_554
O3 Ho Li1 174.83(11) . 1_554
O3 Ho Li1 99.77(11) 3_676 1_554
O5 Ho Li1 37.86(11) . 1_554
B2 Ho Li1 66.94(12) . 1_554
B1 Ho Li1 69.81(12) 3_676 1_554
O4 Ho Li2 146.88(10) 2_655 2
O6 Ho Li2 107.07(10) . 2
O1 Ho Li2 34.14(10) 4_575 2
O2 Ho Li2 89.38(10) 3_676 2
O3 Ho Li2 71.61(10) . 2
O3 Ho Li2 61.46(10) 3_676 2
O5 Ho Li2 119.91(10) . 2
B2 Ho Li2 115.17(11) . 2
B1 Ho Li2 74.14(11) 3_676 2
Li1 Ho Li2 103.98(13) 1_554 2
O4 Ho K 128.59(5) 2_655 3_666
O6 Ho K 53.01(5) . 3_666
O1 Ho K 55.21(5) 4_575 3_666
O2 Ho K 144.71(5) 3_676 3_666
O3 Ho K 53.02(5) . 3_666
O3 Ho K 109.92(5) 3_676 3_666
O5 Ho K 103.38(5) . 3_666
B2 Ho K 76.61(6) . 3_666
B1 Ho K 132.48(6) 3_676 3_666
Li1 Ho K 127.40(10) 1_554 3_666
Li2 Ho K 59.19(9) 2 3_666
O6 K O1 111.74(6) . 3_666
O6 K O5 100.43(6) . 2_645
O1 K O5 105.09(6) 3_666 2_645
O6 K O2 70.36(6) . 2_646
O1 K O2 175.21(6) 3_666 2_646
O5 K O2 70.16(6) 2_645 2_646
O6 K O6 111.17(5) . 3_666
O1 K O6 94.04(6) 3_666 3_666
O5 K O6 133.56(6) 2_645 3_666
O2 K O6 89.05(6) 2_646 3_666
O6 K O3 164.29(6) . 3_666
O1 K O3 52.83(6) 3_666 3_666
O5 K O3 87.91(6) 2_645 3_666
O2 K O3 125.27(6) 2_646 3_666
O6 K O3 70.60(6) 3_666 3_666
O6 K O4 52.77(6) . .
O1 K O4 75.37(6) 3_666 .
O5 K O4 74.43(6) 2_645 .
O2 K O4 103.45(6) 2_646 .
O6 K O4 152.00(6) 3_666 .
O3 K O4 118.33(6) 3_666 .
O6 K O1 120.84(6) . 2_646
O1 K O1 127.38(3) 3_666 2_646
O5 K O1 68.43(6) 2_645 2_646
O2 K O1 50.88(5) 2_646 2_646
O6 K O1 66.36(6) 3_666 2_646
O3 K O1 74.56(6) 3_666 2_646
O4 K O1 140.25(6) . 2_646
O6 K B1 137.73(8) . 3_666
O1 K B1 27.97(7) 3_666 3_666
O5 K B1 87.68(7) 2_645 3_666
O2 K B1 148.53(7) 2_646 3_666
O6 K B1 90.73(8) 3_666 3_666
O3 K B1 28.36(7) 3_666 3_666
O4 K B1 91.14(8) . 3_666
O1 K B1 100.82(7) 2_646 3_666
O6 K B2 26.89(7) . .
O1 K B2 89.60(7) 3_666 .
O5 K B2 92.41(7) 2_645 .
O2 K B2 91.20(7) 2_646 .
O6 K B2 130.26(7) 3_666 .
O3 K B2 140.76(7) 3_666 .
O4 K B2 27.12(7) . .
O1 K B2 140.99(7) 2_646 .
B1 K B2 112.42(9) 3_666 .
O6 K K 57.06(5) . 3_666
O1 K K 112.65(5) 3_666 3_666
O5 K K 141.03(5) 2_645 3_666
O2 K K 72.13(5) 2_646 3_666
O6 K K 54.11(4) 3_666 3_666
O3 K K 122.50(5) 3_666 3_666
O4 K K 105.61(5) . 3_666
O1 K K 94.85(5) 2_646 3_666
B1 K K 130.87(7) 3_666 3_666
B2 K K 78.86(6) . 3_666
O6 K B1 94.82(7) . 2_646
O1 K B1 152.68(7) 3_666 2_646
O5 K B1 74.90(7) 2_645 2_646
O2 K B1 26.79(7) 2_646 2_646
O6 K B1 69.49(7) 3_666 2_646
O3 K B1 100.23(7) 3_666 2_646
O4 K B1 128.88(7) . 2_646
O1 K B1 26.36(6) 2_646 2_646
B1 K B1 127.14(6) 3_666 2_646
B2 K B1 117.71(8) . 2_646
K K B1 75.98(6) 3_666 2_646
B1 O1 Li2 120.1(2) . 3_666
B1 O1 Ho 133.06(18) . 4_676
Li2 O1 Ho 104.85(18) 3_666 4_676
B1 O1 K 83.99(16) . 3_666
Li2 O1 K 84.50(17) 3_666 3_666
Ho O1 K 114.71(7) 4_676 3_666
B1 O1 K 86.33(15) . 2_656
Li2 O1 K 86.99(17) 3_666 2_656
Ho O1 K 83.16(6) 4_676 2_656
K O1 K 161.68(8) 3_666 2_656
B1 O2 Li1 170.3(2) . 3_677
B1 O2 Li1 111.2(2) . .
Li1 O2 Li1 74.4(2) 3_677 .
B1 O2 Ho 93.35(16) . 3_676
Li1 O2 Ho 90.27(17) 3_677 3_676
Li1 O2 Ho 119.95(17) . 3_676
B1 O2 K 89.66(16) . 2_656
Li1 O2 K 82.82(16) 3_677 2_656
Li1 O2 K 85.79(16) . 2_656
Ho O2 K 150.52(9) 3_676 2_656
B1 O3 Ho 163.57(17) . .
B1 O3 Ho 91.55(15) . 3_676
Ho O3 Ho 104.15(7) . 3_676
B1 O3 K 81.54(15) . 3_666
Ho O3 K 84.72(6) . 3_666
Ho O3 K 129.08(8) 3_676 3_666
B2 O4 Li2 119.8(2) . .
B2 O4 Li2 82.7(2) . 3_665
Li2 O4 Li2 82.6(2) . 3_665
B2 O4 Ho 126.63(17) . 2_645
Li2 O4 Ho 113.38(18) . 2_645
Li2 O4 Ho 108.63(17) 3_665 2_645
B2 O4 K 86.12(15) . .
Li2 O4 K 82.36(17) . .
Li2 O4 K 153.58(18) 3_665 .
Ho O4 K 97.24(7) 2_645 .
B2 O5 Li1 162.5(3) . 1_554
B2 O5 Li2 85.4(2) . 3_665
Li1 O5 Li2 92.3(2) 1_554 3_665
B2 O5 Ho 89.84(16) . .
Li1 O5 Ho 90.51(18) 1_554 .
Li2 O5 Ho 172.56(18) 3_665 .
B2 O5 K 106.71(16) . 2_655
Li1 O5 K 90.60(18) 1_554 2_655
Li2 O5 K 89.86(17) 3_665 2_655
Ho O5 K 97.01(7) . 2_655
B2 O6 Li1 118.9(2) . 4_675
B2 O6 Ho 93.15(15) . .
Li1 O6 Ho 118.82(18) 4_675 .
B2 O6 K 91.74(15) . .
Li1 O6 K 87.12(18) 4_675 .
Ho O6 K 146.38(9) . .
B2 O6 K 136.66(17) . 3_666
Li1 O6 K 99.07(19) 4_675 3_666
Ho O6 K 85.20(6) . 3_666
K O6 K 68.83(5) . 3_666
O1 B1 O2 121.7(3) . .
O1 B1 O3 123.3(2) . .
O2 B1 O3 114.8(2) . .
O1 B1 Ho 174.5(2) . 3_676
O2 B1 Ho 56.63(13) . 3_676
O3 B1 Ho 58.22(13) . 3_676
O1 B1 K 68.04(14) . 3_666
O2 B1 K 134.77(19) . 3_666
O3 B1 K 70.10(14) . 3_666
Ho B1 K 109.09(10) 3_676 3_666
O1 B1 K 67.31(15) . 2_656
O2 B1 K 63.55(14) . 2_656
O3 B1 K 151.89(19) . 2_656
Ho B1 K 114.00(10) 3_676 2_656
K B1 K 132.84(10) 3_666 2_656
O5 B2 O6 116.7(2) . .
O5 B2 O4 119.9(2) . .
O6 B2 O4 123.3(2) . .
O5 B2 Li2 58.75(19) . 3_665
O6 B2 Li2 175.4(2) . 3_665
O4 B2 Li2 61.19(19) . 3_665
O5 B2 Ho 60.21(13) . .
O6 B2 Ho 56.89(13) . .
O4 B2 Ho 174.1(2) . .
Li2 B2 Ho 118.71(18) 3_665 .
O5 B2 Li1 127.9(2) . 4_675
O6 B2 Li1 35.66(16) . 4_675
O4 B2 Li1 102.3(2) . 4_675
Li2 B2 Li1 145.5(2) 3_665 4_675
Ho B2 Li1 80.82(13) . 4_675
O5 B2 K 156.68(19) . .
O6 B2 K 61.36(13) . .
O4 B2 K 66.76(14) . .
Li2 B2 K 123.05(17) 3_665 .
Ho B2 K 110.66(10) . .
Li1 B2 K 65.78(13) 4_675 .
O5 B2 K 50.45(13) . 2_655
O6 B2 K 107.03(17) . 2_655
O4 B2 K 108.21(16) . 2_655
Li2 B2 K 69.65(15) 3_665 2_655
Ho B2 K 76.61(7) . 2_655
Li1 B2 K 90.08(14) 4_675 2_655
K B2 K 152.26(10) . 2_655
O5 Li1 O6 125.2(3) 1_556 4_576
O5 Li1 O2 100.5(3) 1_556 3_677
O6 Li1 O2 109.8(3) 4_576 3_677
O5 Li1 O2 106.8(3) 1_556 .
O6 Li1 O2 107.4(3) 4_576 .
O2 Li1 O2 105.6(2) 3_677 .
O5 Li1 Li1 113.0(3) 1_556 3_677
O6 Li1 Li1 121.7(4) 4_576 3_677
O2 Li1 Li1 54.7(2) 3_677 3_677
O2 Li1 Li1 50.9(2) . 3_677
O5 Li1 Li2 45.83(17) 1_556 3_666
O6 Li1 Li2 96.0(2) 4_576 3_666
O2 Li1 Li2 146.2(3) 3_677 3_666
O2 Li1 Li2 86.2(2) . 3_666
Li1 Li1 Li2 127.8(3) 3_677 3_666
O5 Li1 B2 134.8(3) 1_556 4_576
O6 Li1 B2 25.40(12) 4_576 4_576
O2 Li1 B2 120.1(2) 3_677 4_576
O2 Li1 B2 82.12(19) . 4_576
Li1 Li1 B2 106.8(3) 3_677 4_576
Li2 Li1 B2 92.5(2) 3_666 4_576
O5 Li1 Ho 51.62(14) 1_556 1_556
O6 Li1 Ho 127.8(3) 4_576 1_556
O2 Li1 Ho 49.70(13) 3_677 1_556
O2 Li1 Ho 123.6(2) . 1_556
Li1 Li1 Ho 87.0(3) 3_677 1_556
Li2 Li1 Ho 97.22(19) 3_666 1_556
B2 Li1 Ho 152.9(2) 4_576 1_556
O5 Li1 K 153.6(3) 1_556 4_576
O6 Li1 K 56.94(15) 4_576 4_576
O2 Li1 K 59.54(15) 3_677 4_576
O2 Li1 K 95.84(19) . 4_576
Li1 Li1 K 71.2(2) 3_677 4_576
Li2 Li1 K 152.3(2) 3_666 4_576
B2 Li1 K 60.64(12) 4_576 4_576
Ho Li1 K 104.39(16) 1_556 4_576
O5 Li1 K 55.18(14) 1_556 2_656
O6 Li1 K 155.1(3) 4_576 2_656
O2 Li1 K 93.60(19) 3_677 2_656
O2 Li1 K 56.03(13) . 2_656
Li1 Li1 K 65.0(2) 3_677 2_656
Li2 Li1 K 66.48(16) 3_666 2_656
B2 Li1 K 132.9(2) 4_576 2_656
Ho Li1 K 73.99(11) 1_556 2_656
K Li1 K 136.18(17) 4_576 2_656
O5 Li1 K 105.3(2) 1_556 2_556
O6 Li1 K 49.82(14) 4_576 2_556
O2 Li1 K 70.20(16) 3_677 2_556
O2 Li1 K 147.8(2) . 2_556
Li1 Li1 K 116.4(3) 3_677 2_556
Li2 Li1 K 115.49(19) 3_666 2_556
B2 Li1 K 73.85(13) 4_576 2_556
Ho Li1 K 79.13(12) 1_556 2_556
K Li1 K 53.73(8) 4_576 2_556
K Li1 K 153.02(17) 2_656 2_556
O5 Li1 Ho 91.43(19) 1_556 4_576
O6 Li1 Ho 34.13(12) 4_576 4_576
O2 Li1 Ho 127.6(2) 3_677 4_576
O2 Li1 Ho 119.4(2) . 4_576
Li1 Li1 Ho 155.1(3) 3_677 4_576
Li2 Li1 Ho 66.36(15) 3_666 4_576
B2 Li1 Ho 48.91(10) 4_576 4_576
Ho Li1 Ho 113.13(15) 1_556 4_576
K Li1 Ho 89.02(12) 4_576 4_576
K Li1 Ho 132.83(16) 2_656 4_576
K Li1 Ho 57.46(8) 2_556 4_576
O4 Li2 O1 117.7(3) . 3_666
O4 Li2 O5 121.6(3) . 3_665
O1 Li2 O5 104.2(2) 3_666 3_665
O4 Li2 O4 97.4(2) . 3_665
O1 Li2 O4 138.1(3) 3_666 3_665
O5 Li2 O4 71.87(19) 3_665 3_665
O4 Li2 B2 114.2(3) . 3_665
O1 Li2 B2 127.2(3) 3_666 3_665
O5 Li2 B2 35.81(13) 3_665 3_665
O4 Li2 B2 36.07(13) 3_665 3_665
O4 Li2 Li2 50.36(18) . 3_665
O1 Li2 Li2 157.1(4) 3_666 3_665
O5 Li2 Li2 98.3(3) 3_665 3_665
O4 Li2 Li2 47.08(18) 3_665 3_665
B2 Li2 Li2 71.0(2) 3_665 3_665
O4 Li2 Li1 103.6(2) . 3_666
O1 Li2 Li1 82.7(2) 3_666 3_666
O5 Li2 Li1 41.90(16) 3_665 3_666
O4 Li2 Li1 111.8(2) 3_665 3_666
B2 Li2 Li1 76.7(2) 3_665 3_666
Li2 Li2 Li1 117.6(3) 3_665 3_666
O4 Li2 K 60.13(15) . .
O1 Li2 K 57.63(15) 3_666 .
O5 Li2 K 136.1(2) 3_665 .
O4 Li2 K 149.7(2) 3_665 .
B2 Li2 K 168.2(2) 3_665 .
Li2 Li2 K 107.6(3) 3_665 .
Li1 Li2 K 94.27(19) 3_666 .
O4 Li2 K 166.7(3) . 4_565
O1 Li2 K 57.38(14) 3_666 4_565
O5 Li2 K 53.75(13) 3_665 4_565
O4 Li2 K 92.61(18) 3_665 4_565
B2 Li2 K 69.92(15) 3_665 4_565
Li2 Li2 K 138.9(3) 3_665 4_565
Li1 Li2 K 64.25(15) 3_666 4_565
K Li2 K 113.23(15) . 4_565
O4 Li2 Ho 124.8(2) . 2_545
O1 Li2 Ho 41.02(12) 3_666 2_545
O5 Li2 Ho 113.6(2) 3_665 2_545
O4 Li2 Ho 100.8(2) 3_665 2_545
B2 Li2 Ho 110.9(2) 3_665 2_545
Li2 Li2 Ho 124.5(3) 3_665 2_545
Li1 Li2 Ho 116.4(2) 3_666 2_545
K Li2 Ho 79.78(12) . 2_545
K Li2 Ho 61.14(9) 4_565 2_545
O4 Li2 Ho 109.4(2) . 4_575
O1 Li2 Ho 104.8(2) 3_666 4_575
O5 Li2 Ho 96.00(19) 3_665 4_575
O4 Li2 Ho 37.84(11) 3_665 4_575
B2 Li2 Ho 64.87(14) 3_665 4_575
Li2 Li2 Ho 68.4(2) 3_665 4_575
Li1 Li2 Ho 136.8(2) 3_666 4_575
K Li2 Ho 126.11(16) . 4_575
K Li2 Ho 83.89(12) 4_565 4_575
Ho Li2 Ho 64.32(10) 2_545 4_575
O4 Li2 Ho 36.23(12) . 2_645
O1 Li2 Ho 115.7(2) 3_666 2_645
O5 Li2 Ho 90.24(19) 3_665 2_645
O4 Li2 Ho 106.1(2) 3_665 2_645
B2 Li2 Ho 100.34(19) 3_665 2_645
Li2 Li2 Ho 67.6(2) 3_665 2_645
Li1 Li2 Ho 67.73(15) 3_666 2_645
K Li2 Ho 68.87(10) . 2_645
K Li2 Ho 131.97(16) 4_565 2_645
Ho Li2 Ho 148.65(17) 2_545 2_645
Ho Li2 Ho 136.05(16) 4_575 2_645
loop_
_geom_bond_atom_site_label_1
_geom_bond_atom_site_label_2
_geom_bond_distance
_geom_bond_site_symmetry_2
Ho O4 2.2975(19) 2_655
Ho O6 2.3087(19) .
Ho O1 2.3095(19) 4_575
Ho O2 2.323(2) 3_676
Ho O3 2.3310(19) .
Ho O3 2.3618(19) 3_676
Ho O5 2.388(2) .
Ho B2 2.752(3) .
Ho B1 2.777(3) 3_676
Ho Li1 3.046(5) 1_554
Ho Li2 3.402(5) 2
Ho K 3.4519(6) 3_666
K O6 2.671(2) .
K O1 2.717(2) 3_666
K O5 2.730(2) 2_645
K O2 2.765(2) 2_646
K O6 2.767(2) 3_666
K O3 2.769(2) 3_666
K O4 2.801(2) .
K O1 2.855(2) 2_646
K B1 2.913(3) 3_666
K B2 3.042(3) .
K K 3.0743(12) 3_666
K B1 3.089(3) 2_646
O1 B1 1.374(3) .
O1 Li2 1.975(6) 3_666
O2 B1 1.392(4) .
O2 Li1 1.959(6) 3_677
O2 Li1 2.061(6) .
O3 B1 1.399(4) .
O4 B2 1.390(3) .
O4 Li2 1.967(6) .
O4 Li2 2.068(6) 3_665
O5 B2 1.374(3) .
O5 Li1 1.870(5) 1_554
O5 Li2 2.008(6) 3_665
O6 B2 1.377(4) .
O6 Li1 1.871(5) 4_675
B2 Li2 2.342(6) 3_665
B2 Li1 2.808(6) 4_675
Li1 Li1 2.432(10) 3_677
Li1 Li2 2.798(7) 3_666
Li2 Li2 2.663(10) 3_665
