#------------------------------------------------------------------------------
#$Date: 2016-03-24 14:47:55 +0200 (Thu, 24 Mar 2016) $
#$Revision: 179674 $
#$URL: svn://www.crystallography.net/cod/cif/4/51/26/4512666.cif $
#------------------------------------------------------------------------------
#
# This file is available in the Crystallography Open Database (COD),
# http://www.crystallography.net/
#
# All data on this site have been placed in the public domain by the
# contributors.
#
data_4512666
loop_
_publ_author_name
'Drees, Yvo'
'Agrestini, Stefano'
'Zaharko, Oksana'
'Komarek, Alexander Christoph'
_publ_section_title
;
 Floating Zone Single Crystal Growth of \g-CoV2O6with Substantially
 Enhanced Crystal Size and Quality
;
_journal_issue                   3
_journal_name_full               'Crystal Growth &amp; Design'
_journal_page_first              1168
_journal_paper_doi               10.1021/cg5015303
_journal_volume                  15
_journal_year                    2015
_chemical_formula_sum            'Co1.478 O9 V3'
_chemical_formula_weight         383.9
_chemical_name_systematic        ' ?'
_space_group_IT_number           2
_symmetry_cell_setting           triclinic
_symmetry_Int_Tables_number      2
_symmetry_space_group_name_Hall  '-P 1'
_symmetry_space_group_name_H-M   'P -1'
_cell_angle_alpha                90.281
_cell_angle_beta                 93.692
_cell_angle_gamma                102.185
_cell_formula_units_Z            2
_cell_length_a                   7.1792
_cell_length_b                   8.8975
_cell_length_c                   4.8117
_cell_measurement_temperature    293
_cell_volume                     299.755
_diffrn_ambient_temperature      293
_diffrn_measured_fraction_theta_full 0.98
_diffrn_measured_fraction_theta_max 0.98
_diffrn_radiation_probe          x-ray
_diffrn_radiation_source         'X-ray tube'
_diffrn_radiation_type           'Mo K\a'
_diffrn_radiation_wavelength     0.71069
_diffrn_reflns_av_R_equivalents  0.0237
_diffrn_reflns_av_sigmaI/netI    0.0087
_diffrn_reflns_limit_h_max       19
_diffrn_reflns_limit_h_min       -19
_diffrn_reflns_limit_k_max       23
_diffrn_reflns_limit_k_min       -23
_diffrn_reflns_limit_l_max       12
_diffrn_reflns_limit_l_min       -12
_diffrn_reflns_number            171748
_diffrn_reflns_theta_full        71.56
_diffrn_reflns_theta_max         71.56
_diffrn_reflns_theta_min         2.34
_exptl_absorpt_coefficient_mu    8.553
_exptl_absorpt_correction_T_max  0.4704
_exptl_absorpt_correction_T_min  0.3913
_exptl_absorpt_correction_type   multi-scan
_exptl_crystal_colour            black
_exptl_crystal_density_diffrn    4.2535
_exptl_crystal_description       spherical
_exptl_crystal_F_000             359
_exptl_crystal_size_max          0.07
_exptl_crystal_size_mid          0.07
_exptl_crystal_size_min          0.07
_exptl_crystal_size_rad          0.07
_refine_diff_density_max         1.11
_refine_diff_density_min         -1.00
_refine_ls_extinction_coef       360(50)
_refine_ls_extinction_method
'B-C type 1 Lorentzian isotropic (Becker & Coppens, 1974)'
_refine_ls_goodness_of_fit_gt    1.80
_refine_ls_goodness_of_fit_ref   1.76
_refine_ls_number_constraints    11
_refine_ls_number_parameters     127
_refine_ls_number_reflns         11803
_refine_ls_number_restraints     0
_refine_ls_R_factor_all          0.0209
_refine_ls_R_factor_gt           0.0185
_refine_ls_shift/su_max          0.0032
_refine_ls_shift/su_mean         0.0001
_refine_ls_structure_factor_coef Fsqd
_refine_ls_weighting_details     w=1/(\s^2^(I)+0.0004I^2^)
_refine_ls_weighting_scheme      sigma
_refine_ls_wR_factor_gt          0.0498
_refine_ls_wR_factor_ref         0.0505
_reflns_number_gt                11029
_reflns_number_total             11803
_reflns_threshold_expression     I>3\s(I)
_cod_data_source_file            cg5015303_si_001.cif
_cod_data_source_block           I
_cod_depositor_comments
;
The following automatic conversions were performed:

'_diffrn_radiation_probe' value 'X-ray' changed to 'x-ray' according
to
/usr/data/users/saulius/crontab/automatic-downloads/rss-feeds/ACS/lib/dictionaries/cif_core.dic
dictionary named 'cif_core.dic' version 2.4.2 from 2011-04-26.

Automatic conversion script
Id: cif_fix_values 3008 2015-01-20 13:52:24Z robertas 

 Adding full bibliography for 4512666.cif.
;
_cod_original_cell_volume        299.7549
_cod_database_code               4512666
loop_
_space_group_symop_id
_space_group_symop_operation_xyz
1 x,y,z
2 -x,-y,-z
loop_
_atom_site_label
_atom_site_type_symbol
_atom_site_fract_x
_atom_site_fract_y
_atom_site_fract_z
_atom_site_adp_type
_atom_site_U_iso_or_equiv
_atom_site_site_symmetry_multiplicity
_atom_site_occupancy
_atom_site_calc_flag
Co1 Co 0 0.5 0 Uani 0.006125(12) 1 0.9829(9) d
Co2 Co 0.019736(8) 0.168530(6) 0.019978(11) Uani 0.006032(9) 2 0.9829(9) d
V1 V 0.712140(8) 0.969727(7) 0.459117(12) Uani 0.004736(9) 2 0.9776(9) d
V2 V 0.711652(8) 0.606743(7) 0.455070(12) Uani 0.004797(9) 2 0.9776(9) d
V3 V 0.580616(8) 0.262860(6) 0.120465(11) Uani 0.004451(9) 2 0.9776(9) d
O1 O 0.16566(5) 0.48969(4) 0.34720(7) Uani 0.00967(6) 2 1 d
O2 O 0.84533(4) 0.63918(4) 0.16956(6) Uani 0.00759(5) 2 1 d
O3 O 0.17883(4) 0.69881(4) 0.89001(7) Uani 0.00849(5) 2 1 d
O4 O 0.15470(4) 0.01892(4) 0.82691(6) Uani 0.00753(5) 2 1 d
O5 O 0.16627(5) 0.89240(4) 0.34168(7) Uani 0.00956(5) 2 1 d
O6 O 0.78512(4) 0.79907(3) 0.63613(6) Uani 0.00692(4) 2 1 d
O7 O 0.47579(4) 0.91448(4) 0.70188(6) Uani 0.00714(5) 2 1 d
O8 O 0.47437(4) 0.57763(3) 0.70195(6) Uani 0.00721(5) 2 1 d
O9 O 0.52414(5) 0.75366(4) 0.20293(7) Uani 0.00942(6) 2 1 d
loop_
_atom_site_aniso_label
_atom_site_aniso_type_symbol
_atom_site_aniso_U_11
_atom_site_aniso_U_22
_atom_site_aniso_U_33
_atom_site_aniso_U_12
_atom_site_aniso_U_13
_atom_site_aniso_U_23
Co1 Co 0.00620(2) 0.00522(2) 0.00723(2) 0.001682(16) 0.000945(15) 0.000664(15)
Co2 Co 0.006493(15) 0.004808(15) 0.006853(15) 0.001166(11) 0.000984(11)
0.000284(10)
V1 V 0.004136(15) 0.005138(16) 0.005011(15) 0.001010(12) 0.000749(11)
0.000708(11)
V2 V 0.004363(15) 0.005029(16) 0.005009(15) 0.000887(12) 0.000788(11)
-0.000379(11)
V3 V 0.004840(15) 0.004026(16) 0.004536(14) 0.001037(12) 0.000358(11)
0.000088(11)
O1 O 0.01033(9) 0.01042(10) 0.00866(8) 0.00378(8) -0.00171(7) 0.00096(7)
O2 O 0.00854(8) 0.00705(8) 0.00754(7) 0.00171(7) 0.00309(6) 0.00068(6)
O3 O 0.00677(8) 0.00742(8) 0.01138(9) 0.00136(7) 0.00194(7) 0.00051(7)
O4 O 0.00792(8) 0.00757(8) 0.00762(7) 0.00208(7) 0.00282(6) 0.00086(6)
O5 O 0.00974(9) 0.00918(9) 0.00925(9) 0.00159(8) -0.00168(7) -0.00187(7)
O6 O 0.00827(8) 0.00541(7) 0.00690(7) 0.00166(6) -0.00150(6) -0.00037(6)
O7 O 0.00607(7) 0.00745(8) 0.00839(8) 0.00220(6) 0.00150(6) 0.00241(6)
O8 O 0.00639(7) 0.00657(8) 0.00846(8) 0.00064(6) 0.00143(6) -0.00161(6)
O9 O 0.01008(9) 0.01079(10) 0.00734(8) 0.00238(8) -0.00038(7) -0.00013(7)
loop_
_atom_type_symbol
_atom_type_scat_dispersion_real
_atom_type_scat_dispersion_imag
_atom_type_scat_source
Co 0.3494 0.9721 'International Tables Vol C tables 4.2.6.8 and 6.1.1.1'
O 0.0106 0.0060 'International Tables Vol C tables 4.2.6.8 and 6.1.1.1'
V 0.3005 0.5294 'International Tables Vol C tables 4.2.6.8 and 6.1.1.1'
loop_
_geom_angle_atom_site_label_1
_geom_angle_atom_site_label_2
_geom_angle_atom_site_label_3
_geom_angle_site_symmetry_1
_geom_angle_site_symmetry_3
_geom_angle
_geom_angle_publ_flag
O1 V2 O2 2_666 . 101.95(2) no
V2 Co1 O2 1_455 1_455 23.59(1) no
O2 Co1 O3 1_455 2_566 94.18(1) no
O2 Co1 O3 2_665 1_554 94.18(1) no
Co1 O2 O3 2_665 2_666 43.15(1) no
O3 V3 O8 2_666 2_666 105.94(1) no
O3 V3 O7 2_666 2_666 104.89(2) no
Co1 O3 O2 2_566 2_666 42.67(1) no
O1 Co1 O2 . 1_455 95.03(1) no
O1 Co1 O3 . 2_566 89.29(1) no
O2 Co1 O3 2_665 2_566 85.82(1) no
O1 Co1 O2 2_565 2_665 95.03(1) no
O1 Co1 O3 2_565 1_554 89.29(1) no
O4 Co2 O5 1_554 2_565 79.48(1) no
O4 Co2 O4 2_556 1_554 87.42(1) no
O4 Co2 O5 2_556 2_565 82.11(1) no
O4 Co2 O6 2_556 2_666 94.99(1) no
O3 Co2 O6 2_566 2_666 104.63(1) no
Co2 O2 O3 2_665 1_654 48.75(1) no
O2 Co2 O5 2_665 2_565 89.98(1) no
O5 Co2 O6 2_565 2_666 172.19(1) no
O3 Co2 O4 2_566 1_554 162.12(1) no
O4 Co2 O6 1_554 2_666 93.17(1) no
Co2 O3 V3 2_566 2_666 133.93(2) no
loop_
_geom_bond_atom_site_label_1
_geom_bond_atom_site_label_2
_geom_bond_site_symmetry_2
_geom_bond_distance
Co1 O1 . 2.0014(3)
Co1 O1 2_565 2.0014(3)
Co1 O2 1_455 2.0297(3)
Co1 O2 2_665 2.0297(3)
Co1 O3 1_554 2.0483(3)
Co1 O3 2_566 2.0483(3)
Co2 O2 2_665 2.0314(3)
Co2 O3 2_566 2.0971(4)
Co2 O4 1_554 2.0548(3)
Co2 O4 2_556 2.0352(3)
Co2 O5 2_565 2.1193(3)
Co2 O6 2_666 2.0761(3)
V1 O4 2_666 1.7171(3)
V1 O5 2_676 1.6168(3)
V1 O6 . 1.8964(3)
V1 O7 . 2.0962(3)
V1 O7 2_676 1.9854(3)
V2 O1 2_666 1.6236(4)
V2 O2 . 1.7171(3)
V2 O6 . 1.8737(3)
V2 O8 . 2.1113(3)
V2 O8 2_666 1.9946(3)
V3 O3 2_666 1.6924(3)
V3 O7 2_666 1.7811(3)
V3 O8 2_666 1.7800(3)
V3 O9 2_665 1.6760(3)
loop_
_refln_index_h
_refln_index_k
_refln_index_l
_refln_F_squared_calc
_refln_F_squared_meas
_refln_F_squared_sigma
_refln_observed_status
1 0 0 262.51 271.97 1.37 o
2 0 0 250.39 259.81 1.36 o
3 0 0 173.14 123.40 0.82 o
4 0 0 5094.44 5344.43 28.16 o
5 0 0 367.97 387.41 2.18 o
6 0 0 1339.49 1370.37 6.55 o
7 0 0 6129.23 6503.35 29.95 o
8 0 0 13.23 17.15 0.27 o
9 0 0 297.30 293.83 1.63 o
10 0 0 877.15 924.60 4.91 o
11 0 0 186.41 185.15 1.63 o
12 0 0 0.22 2.45 0.54 o
13 0 0 3.25 3.27 0.54 o
14 0 0 551.57 594.93 4.90 o
15 0 0 62.94 62.07 1.63 o
16 0 0 331.67 343.95 3.00 o
17 0 0 293.26 303.09 2.72 o
18 0 0 1.57 4.36 0.82 o
-18 1 0 20.14 17.42 0.82 o
-17 1 0 84.87 84.13 1.63 o
-16 1 0 11.72 13.07 0.82 o
-15 1 0 8.09 7.62 0.82 o
-14 1 0 189.68 186.51 2.18 o
-13 1 0 110.00 110.26 1.63 o
-12 1 0 6.29 7.08 0.54 o
-11 1 0 510.70 502.82 3.27 o
-10 1 0 32.42 34.57 0.82 o
-9 1 0 243.29 238.27 1.63 o
-8 1 0 57.17 55.54 0.54 o
-7 1 0 273.97 289.22 1.63 o
-6 1 0 6.65 6.26 0.27 o
-5 1 0 9.62 11.71 0.27 o
-4 1 0 3962.45 4146.93 20.92 o
-3 1 0 1689.76 1769.58 8.77 o
-2 1 0 281.66 311.12 1.64 o
-1 1 0 552.89 582.31 3.01 o
0 1 0 41.68 40.04 0.27 o
1 1 0 463.74 473.04 2.46 o
2 1 0 1344.16 1439.07 7.40 o
3 1 0 1879.20 1969.52 9.32 o
4 1 0 2894.93 3076.64 15.09 o
5 1 0 432.91 421.78 2.45 o
6 1 0 25.37 26.41 0.27 o
7 1 0 414.86 434.46 2.18 o
8 1 0 173.99 168.00 1.09 o
9 1 0 747.80 745.20 3.81 o
10 1 0 1.96 4.08 0.27 o
11 1 0 929.73 913.74 5.45 o
12 1 0 202.46 199.86 2.18 o
13 1 0 6.03 6.53 0.82 o
14 1 0 305.22 318.62 3.00 o
15 1 0 160.36 163.64 1.91 o
16 1 0 274.26 282.66 3.00 o
17 1 0 0.37 0.27 0.82 <
18 1 0 101.20 100.19 2.45 o
-18 2 0 180.26 187.60 2.18 o
-17 2 0 213.74 217.29 2.18 o
-16 2 0 34.97 39.20 1.36 o
-15 2 0 17.23 16.88 0.82 o
-14 2 0 149.96 153.29 1.91 o
-13 2 0 885.10 890.56 6.00 o
-12 2 0 13.99 13.07 0.54 o
-11 2 0 759.19 746.82 4.36 o
-10 2 0 735.57 731.82 4.09 o
-9 2 0 25.55 22.32 0.54 o
-8 2 0 85.18 82.49 0.82 o
-7 2 0 696.48 679.66 3.00 o
-6 2 0 3688.20 3905.53 18.91 o
-5 2 0 653.12 648.56 3.27 o
-4 2 0 384.45 372.53 1.91 o
-3 2 0 1864.21 1918.94 9.59 o
-2 2 0 2306.19 2421.83 11.84 o
-1 2 0 63.61 62.09 0.54 o
0 2 0 133.17 129.43 0.82 o
1 2 0 2220.27 2309.35 12.95 o
2 2 0 2535.00 2586.87 13.48 o
3 2 0 22.49 27.50 0.27 o
4 2 0 389.43 374.11 1.91 o
5 2 0 3990.95 4205.38 20.57 o
6 2 0 29.87 31.58 0.54 o
7 2 0 46.10 44.92 0.54 o
8 2 0 72.51 66.43 0.54 o
9 2 0 716.82 694.22 3.81 o
10 2 0 183.60 179.16 1.36 o
11 2 0 160.48 156.83 1.63 o
12 2 0 506.18 506.64 4.09 o
13 2 0 10.73 12.25 0.82 o
14 2 0 35.30 37.02 1.09 o
15 2 0 0.02 1.09 0.82 <
16 2 0 80.38 81.40 1.63 o
17 2 0 2.36 4.36 0.82 o
18 2 0 106.28 102.37 2.72 o
-19 3 0 36.34 29.95 1.91 o
-18 3 0 78.69 78.68 1.36 o
-17 3 0 21.96 23.41 0.82 o
-16 3 0 386.86 404.16 3.81 o
-15 3 0 49.37 52.00 1.36 o
-14 3 0 101.21 97.74 1.36 o
-13 3 0 497.06 498.73 3.81 o
-12 3 0 12.17 14.43 0.54 o
-11 3 0 21.50 21.78 0.54 o
-10 3 0 5.51 7.89 0.27 o
-9 3 0 4575.40 4811.90 20.81 o
-8 3 0 326.48 316.19 1.63 o
-7 3 0 28.91 28.58 0.54 o
-6 3 0 3474.33 3775.65 17.80 o
-5 3 0 3352.01 3589.86 16.45 o
-4 3 0 418.76 439.58 2.45 o
-3 3 0 2070.68 2317.64 11.79 o
-2 3 0 16898.80 15866.00 80.24 o
-1 3 0 203.38 213.09 1.09 o
0 3 0 100.51 105.13 0.54 o
1 3 0 16524.40 15430.60 80.40 o
2 3 0 2728.25 2961.91 16.20 o
3 3 0 412.30 432.21 2.45 o
4 3 0 2758.20 2967.75 14.51 o
5 3 0 3916.31 4220.94 20.56 o
6 3 0 84.98 80.32 0.54 o
7 3 0 379.34 371.50 1.91 o
8 3 0 4417.37 4629.73 21.62 o
9 3 0 1.20 3.81 0.27 o
10 3 0 25.74 27.22 0.82 o
11 3 0 3.46 5.17 0.54 o
12 3 0 582.97 583.51 4.63 o
13 3 0 68.38 70.78 1.36 o
14 3 0 68.11 68.61 1.63 o
15 3 0 365.37 382.91 3.54 o
16 3 0 9.94 11.43 1.09 o
17 3 0 75.82 75.69 1.91 o
-19 4 0 29.58 23.96 1.36 o
-18 4 0 7.97 8.17 0.82 o
-17 4 0 0.22 0.82 0.82 <
-16 4 0 0.85 0.54 0.82 <
-15 4 0 7.11 7.35 0.82 o
-14 4 0 24.05 25.59 0.82 o
-13 4 0 288.04 283.21 2.72 o
-12 4 0 31.41 29.13 0.82 o
-11 4 0 127.33 127.15 1.09 o
-10 4 0 73.21 69.15 0.82 o
-9 4 0 7.50 6.81 0.27 o
-8 4 0 247.77 240.45 1.36 o
-7 4 0 0.77 0.82 0.27 o
-6 4 0 1663.61 1726.21 7.64 o
-5 4 0 125.96 120.08 0.82 o
-4 4 0 4.82 4.90 0.27 o
-3 4 0 526.73 534.09 3.00 o
-2 4 0 25.56 18.51 0.27 o
-1 4 0 1652.04 1763.54 8.76 o
0 4 0 1077.09 1126.10 5.47 o
1 4 0 12.88 9.26 0.27 o
2 4 0 758.15 779.88 4.64 o
3 4 0 89.36 85.22 0.54 o
4 4 0 235.38 230.68 1.36 o
5 4 0 1372.74 1420.38 6.82 o
6 4 0 113.82 106.46 0.82 o
7 4 0 698.68 686.08 3.54 o
8 4 0 37.50 40.29 0.82 o
9 4 0 158.57 150.02 1.36 o
10 4 0 463.17 455.40 3.00 o
11 4 0 7.75 8.17 0.54 o
12 4 0 593.35 581.88 4.90 o
13 4 0 56.63 56.35 1.63 o
14 4 0 166.08 170.45 2.18 o
15 4 0 70.54 71.06 1.91 o
16 4 0 39.70 37.30 1.63 o
17 4 0 151.15 155.47 2.45 o
-19 5 0 195.41 176.73 2.18 o
-18 5 0 4.68 4.90 0.54 o
-17 5 0 175.55 173.71 1.91 o
-16 5 0 307.58 312.08 3.27 o
-15 5 0 290.86 296.83 3.00 o
-14 5 0 131.06 130.14 1.91 o
-13 5 0 286.49 285.39 2.72 o
-12 5 0 1481.24 1450.45 8.18 o
-11 5 0 10.22 10.62 0.54 o
-10 5 0 365.89 355.13 1.91 o
-9 5 0 434.56 424.62 2.18 o
-8 5 0 293.72 301.74 1.63 o
-7 5 0 66.51 72.96 0.54 o
-6 5 0 880.48 866.92 4.09 o
-5 5 0 4020.11 4265.30 20.85 o
-4 5 0 2402.85 2515.01 13.13 o
-3 5 0 127.39 122.81 0.82 o
-2 5 0 1061.27 1096.95 5.46 o
-1 5 0 1.62 1.09 0.27 o
0 5 0 791.76 828.01 4.09 o
1 5 0 18.30 17.15 0.27 o
2 5 0 1928.69 2011.45 10.66 o
3 5 0 4887.61 5187.05 28.31 o
4 5 0 95.07 97.47 0.82 o
5 5 0 321.21 323.29 1.63 o
6 5 0 145.98 155.74 1.09 o
7 5 0 278.75 276.13 1.91 o
8 5 0 78.45 73.51 0.82 o
9 5 0 88.26 86.03 1.09 o
10 5 0 937.36 922.75 6.81 o
11 5 0 0.43 3.81 0.82 o
12 5 0 353.89 353.49 3.81 o
13 5 0 201.01 204.22 3.00 o
14 5 0 84.03 82.22 2.45 o
15 5 0 1.79 5.72 1.09 o
16 5 0 125.32 125.24 2.45 o
17 5 0 74.82 69.42 2.18 o
-19 6 0 12.46 10.89 0.82 o
-18 6 0 227.13 234.99 2.45 o
-17 6 0 201.12 205.30 2.18 o
-16 6 0 46.59 47.64 1.36 o
-15 6 0 361.78 369.02 3.54 o
-14 6 0 4.23 5.44 0.82 o
-13 6 0 0.23 0.27 0.54 <
-12 6 0 57.13 55.81 1.09 o
-11 6 0 723.38 730.71 4.36 o
-10 6 0 74.92 74.87 0.82 o
-9 6 0 15.37 17.97 0.54 o
-8 6 0 3186.47 3374.26 15.31 o
-7 6 0 586.03 581.13 2.72 o
-6 6 0 241.35 235.02 1.36 o
-5 6 0 2264.16 2378.43 11.75 o
-4 6 0 850.34 931.44 4.91 o
-3 6 0 535.93 558.42 3.00 o
-2 6 0 13.08 15.79 0.27 o
-1 6 0 27465.00 26638.70 126.11 o
0 6 0 216.27 217.34 1.09 o
1 6 0 541.50 569.05 3.00 o
2 6 0 540.91 604.96 3.27 o
3 6 0 2939.21 3083.72 15.60 o
4 6 0 314.28 304.77 1.91 o
5 6 0 358.49 358.70 1.91 o
6 6 0 3368.67 3525.08 19.14 o
7 6 0 8.50 9.26 0.54 o
8 6 0 68.54 69.69 1.09 o
9 6 0 606.75 620.29 4.63 o
10 6 0 130.13 128.24 1.91 o
11 6 0 0.74 1.36 0.82 <
12 6 0 1.70 2.18 1.09 <
13 6 0 427.99 440.41 5.45 o
14 6 0 9.08 9.53 1.09 o
15 6 0 206.36 212.93 3.00 o
16 6 0 166.26 179.16 2.72 o
17 6 0 3.72 7.35 2.45 o
-19 7 0 2.00 1.91 0.82 <
-18 7 0 46.14 46.83 1.09 o
-17 7 0 42.07 45.46 1.09 o
-16 7 0 25.39 27.22 0.82 o
-15 7 0 86.90 91.75 1.63 o
-14 7 0 5.73 6.26 0.82 o
-13 7 0 1.16 2.45 0.54 o
-12 7 0 49.13 45.74 1.09 o
-11 7 0 16.42 16.33 0.54 o
-10 7 0 422.67 411.26 2.45 o
-9 7 0 16.30 17.42 0.54 o
-8 7 0 187.02 182.16 1.36 o
-7 7 0 324.45 318.91 1.63 o
-6 7 0 9.12 9.53 0.27 o
-5 7 0 198.26 200.42 1.09 o
-4 7 0 286.49 276.72 1.63 o
-3 7 0 983.47 993.52 5.18 o
-2 7 0 7.31 7.35 0.27 o
-1 7 0 20.94 22.32 0.27 o
0 7 0 73.38 77.05 0.54 o
1 7 0 1203.69 1215.67 5.73 o
2 7 0 17.51 19.06 0.27 o
3 7 0 336.55 326.84 1.91 o
4 7 0 26.98 29.13 0.54 o
5 7 0 216.64 211.58 1.36 o
6 7 0 416.45 396.01 2.45 o
7 7 0 0.46 1.63 0.54 o
8 7 0 795.20 783.90 5.45 o
9 7 0 62.73 62.89 1.36 o
10 7 0 249.81 235.27 3.00 o
11 7 0 31.93 29.95 1.36 o
12 7 0 70.63 69.97 2.18 o
13 7 0 323.90 325.70 4.36 o
14 7 0 21.55 20.96 1.36 o
15 7 0 278.72 286.74 4.63 o
16 7 0 16.52 15.52 1.09 o
-18 8 0 278.88 278.58 2.72 o
-17 8 0 27.85 30.49 1.09 o
-16 8 0 0.95 1.63 0.82 <
-15 8 0 180.53 183.79 2.18 o
-14 8 0 889.16 907.74 6.81 o
-13 8 0 74.32 73.78 1.36 o
-12 8 0 494.11 482.66 3.27 o
-11 8 0 931.41 909.11 4.91 o
-10 8 0 24.56 25.59 0.54 o
-9 8 0 0.79 1.91 0.27 o
-8 8 0 553.63 533.37 3.00 o
-7 8 0 2357.56 2425.69 10.92 o
-6 8 0 653.41 663.18 3.00 o
-5 8 0 209.56 195.24 1.09 o
-4 8 0 1531.44 1597.38 7.09 o
-3 8 0 689.61 706.94 3.27 o
-2 8 0 58.06 59.62 0.54 o
-1 8 0 188.25 183.26 1.09 o
0 8 0 919.27 952.59 4.91 o
1 8 0 1485.69 1569.22 7.91 o
2 8 0 6.52 7.35 0.27 o
3 8 0 608.22 616.29 3.27 o
4 8 0 2188.56 2266.13 10.65 o
5 8 0 125.48 125.79 1.09 o
6 8 0 112.16 109.72 1.09 o
7 8 0 137.47 135.32 1.36 o
8 8 0 814.65 793.73 5.72 o
9 8 0 132.85 123.88 1.91 o
10 8 0 246.36 239.63 3.27 o
11 8 0 518.32 509.37 5.72 o
12 8 0 1.65 4.36 1.09 o
13 8 0 70.39 71.06 2.18 o
14 8 0 2.37 1.36 1.09 <
15 8 0 139.68 133.41 2.72 o
16 8 0 2.08 3.54 1.09 o
-18 9 0 25.01 25.32 0.82 o
-17 9 0 229.78 230.91 2.18 o
-16 9 0 3.15 4.63 0.82 o
-15 9 0 30.72 28.86 1.09 o
-14 9 0 119.85 121.70 1.63 o
-13 9 0 3.47 4.08 0.54 o
-12 9 0 70.70 68.61 1.09 o
-11 9 0 0.72 2.99 0.54 o
-10 9 0 2595.71 2636.99 13.38 o
-9 9 0 81.53 80.04 0.82 o
-8 9 0 3.04 4.36 0.27 o
-7 9 0 631.45 629.05 3.27 o
-6 9 0 967.14 956.15 4.36 o
-5 9 0 756.80 749.92 3.27 o
-4 9 0 690.56 686.13 3.27 o
-3 9 0 3865.10 4172.94 18.34 o
-2 9 0 78.61 75.69 0.54 o
-1 9 0 12.01 13.07 0.27 o
0 9 0 3292.77 3578.06 17.23 o
1 9 0 1058.92 1068.43 5.18 o
2 9 0 825.90 815.67 4.09 o
3 9 0 721.25 708.71 3.54 o
4 9 0 1069.74 1093.86 5.45 o
5 9 0 51.30 46.28 0.82 o
6 9 0 152.28 149.21 1.36 o
7 9 0 2290.10 2315.63 14.47 o
8 9 0 25.88 23.68 1.09 o
9 9 0 119.57 116.80 2.18 o
10 9 0 12.04 13.61 1.09 o
11 9 0 215.61 219.20 3.27 o
12 9 0 8.43 8.71 1.09 o
13 9 0 18.57 18.24 1.36 o
14 9 0 200.57 207.76 3.54 o
15 9 0 3.08 2.99 1.09 <
-18 10 0 57.63 58.80 1.36 o
-17 10 0 7.95 8.44 0.82 o
-16 10 0 95.08 95.29 1.63 o
-15 10 0 30.20 30.22 1.09 o
-14 10 0 58.59 59.62 1.36 o
-13 10 0 1.24 3.54 0.54 o
-12 10 0 143.64 139.13 1.36 o
-11 10 0 43.54 46.01 0.82 o
-10 10 0 4.75 6.81 0.54 o
-9 10 0 713.07 689.84 4.09 o
-8 10 0 9.83 11.98 0.54 o
-7 10 0 210.99 199.32 1.36 o
-6 10 0 2.07 4.08 0.27 o
-5 10 0 14.42 14.97 0.27 o
-4 10 0 7.07 8.17 0.27 o
-3 10 0 1.93 2.72 0.27 o
-2 10 0 1606.26 1606.05 7.64 o
-1 10 0 550.85 543.49 2.72 o
0 10 0 109.58 104.55 0.82 o
1 10 0 18.80 21.51 0.54 o
2 10 0 0.36 1.91 0.27 o
3 10 0 2.06 3.54 0.27 o
4 10 0 319.10 299.01 1.91 o
5 10 0 46.13 49.82 0.82 o
6 10 0 790.29 767.82 4.90 o
7 10 0 176.01 167.45 1.91 o
8 10 0 0.53 1.36 0.82 <
9 10 0 173.77 163.91 2.72 o
10 10 0 88.40 87.67 2.18 o
11 10 0 311.25 307.45 4.36 o
12 10 0 0.24 -0.27 1.09 <
13 10 0 276.01 275.30 4.08 o
14 10 0 119.43 123.06 2.72 o
15 10 0 0.44 1.63 1.09 <
-18 11 0 71.09 69.97 1.36 o
-17 11 0 264.03 259.78 2.45 o
-16 11 0 320.22 318.07 2.72 o
-15 11 0 118.43 118.98 1.63 o
-14 11 0 162.34 163.64 1.91 o
-13 11 0 988.30 1006.51 6.00 o
-12 11 0 26.11 27.77 0.82 o
-11 11 0 152.39 142.13 1.36 o
-10 11 0 481.11 459.50 3.00 o
-9 11 0 305.37 289.20 2.18 o
-8 11 0 124.82 124.97 1.09 o
-7 11 0 190.05 182.16 1.36 o
-6 11 0 1603.18 1593.61 7.64 o
-5 11 0 798.59 782.58 4.09 o
-4 11 0 79.39 72.69 0.82 o
-3 11 0 678.58 673.23 3.54 o
-2 11 0 11.11 13.61 0.27 o
-1 11 0 628.71 628.78 3.27 o
0 11 0 6.18 7.89 0.27 o
1 11 0 963.58 959.34 5.45 o
2 11 0 1455.81 1466.00 8.18 o
3 11 0 16.90 19.06 0.54 o
4 11 0 229.81 222.19 1.91 o
5 11 0 99.13 98.01 1.36 o
6 11 0 372.82 365.21 3.27 o
7 11 0 36.89 35.94 1.36 o
8 11 0 169.64 161.73 2.45 o
9 11 0 575.72 550.54 5.99 o
10 11 0 4.76 4.63 1.09 o
11 11 0 240.68 247.25 3.81 o
12 11 0 158.30 157.65 2.99 o
13 11 0 96.28 94.20 2.45 o
14 11 0 0.29 -2.18 1.09 <
-18 12 0 55.15 49.82 1.91 o
-17 12 0 4.59 4.63 0.82 o
-16 12 0 114.43 113.53 1.63 o
-15 12 0 0.48 1.36 0.82 <
-14 12 0 9.75 11.71 0.82 o
-13 12 0 0.11 1.91 0.54 o
-12 12 0 266.94 263.32 2.45 o
-11 12 0 8.68 9.53 0.54 o
-10 12 0 1.23 3.27 0.54 o
-9 12 0 821.65 797.28 4.63 o
-8 12 0 96.00 92.02 1.09 o
-7 12 0 212.39 210.48 1.63 o
-6 12 0 485.48 479.38 2.72 o
-5 12 0 330.69 319.17 2.18 o
-4 12 0 556.36 549.71 3.27 o
-3 12 0 3.93 4.63 0.27 o
-2 12 0 3952.55 4148.20 19.97 o
-1 12 0 36.02 36.48 0.54 o
0 12 0 517.19 506.37 3.00 o
1 12 0 207.42 204.76 1.63 o
2 12 0 830.51 827.26 5.45 o
3 12 0 328.32 316.99 2.45 o
4 12 0 52.38 51.18 1.09 o
5 12 0 860.23 841.47 6.27 o
6 12 0 29.10 26.41 1.09 o
7 12 0 20.57 20.15 1.09 o
8 12 0 259.49 258.96 3.27 o
9 12 0 24.26 26.41 1.36 o
10 12 0 22.21 21.23 1.36 o
11 12 0 6.08 6.26 1.36 o
12 12 0 148.11 145.94 2.72 o
13 12 0 1.97 3.81 1.09 o
14 12 0 40.87 35.94 3.27 o
-17 13 0 65.89 62.34 1.36 o
-16 13 0 4.95 7.08 0.82 o
-15 13 0 52.40 52.00 1.36 o
-14 13 0 1.13 0.27 0.54 <
-13 13 0 3.27 4.08 0.54 o
-12 13 0 0.36 1.63 0.54 o
-11 13 0 518.16 501.20 3.81 o
-10 13 0 134.31 129.87 1.63 o
-9 13 0 7.11 7.89 0.54 o
-8 13 0 474.35 449.42 3.00 o
-7 13 0 0.64 1.09 0.54 <
-6 13 0 0.69 2.18 0.54 o
-5 13 0 32.36 32.40 0.82 o
-4 13 0 689.69 664.48 3.81 o
-3 13 0 103.90 103.18 1.09 o
-2 13 0 8.95 9.80 0.54 o
-1 13 0 366.10 354.04 2.18 o
0 13 0 277.07 266.59 1.91 o
1 13 0 44.10 43.56 1.09 o
2 13 0 43.50 43.01 1.09 o
3 13 0 141.51 138.31 1.63 o
4 13 0 328.66 306.91 3.00 o
5 13 0 276.58 261.96 3.00 o
6 13 0 116.35 112.44 2.18 o
7 13 0 412.36 403.09 4.36 o
8 13 0 163.78 162.82 2.72 o
9 13 0 75.08 71.06 2.18 o
10 13 0 0.53 0.82 1.09 <
11 13 0 149.19 148.39 2.99 o
12 13 0 226.66 214.84 3.27 o
13 13 0 4.53 1.91 1.36 <
-17 14 0 0.27 0.27 0.82 <
-16 14 0 124.43 121.70 1.63 o
-15 14 0 603.70 595.77 4.36 o
-14 14 0 59.18 59.89 1.36 o
-13 14 0 165.71 161.46 1.63 o
-12 14 0 498.65 503.37 3.81 o
-11 14 0 0.90 1.91 0.54 o
-10 14 0 3.71 3.27 0.54 o
-9 14 0 234.91 223.56 2.18 o
-8 14 0 1031.75 1034.89 7.36 o
-7 14 0 435.25 422.43 3.27 o
-6 14 0 42.24 39.75 1.09 o
-5 14 0 738.17 727.73 4.63 o
-4 14 0 63.38 64.52 1.09 o
-3 14 0 17.54 17.42 0.54 o
-2 14 0 15.69 17.69 0.54 o
-1 14 0 241.14 240.44 1.91 o
0 14 0 568.99 558.42 3.81 o
1 14 0 0.26 1.63 0.54 o
2 14 0 475.90 458.40 3.81 o
3 14 0 762.07 748.19 7.08 o
4 14 0 112.96 115.71 2.18 o
5 14 0 7.25 8.17 0.82 o
6 14 0 91.39 90.12 1.91 o
7 14 0 368.75 376.38 4.63 o
8 14 0 58.53 55.81 1.91 o
9 14 0 161.06 159.28 3.00 o
10 14 0 306.65 295.19 3.81 o
11 14 0 13.31 13.61 1.36 o
12 14 0 20.45 20.69 1.63 o
-17 15 0 0.80 -2.18 1.63 <
-16 15 0 1.98 3.81 0.82 o
-15 15 0 6.29 7.62 0.82 o
-14 15 0 29.74 32.12 1.09 o
-13 15 0 131.82 135.86 1.63 o
-12 15 0 0.03 1.09 0.82 <
-11 15 0 844.79 852.37 6.27 o
-10 15 0 5.95 4.90 0.82 o
-9 15 0 38.94 39.20 1.09 o
-8 15 0 51.52 52.00 1.36 o
-7 15 0 172.06 166.91 1.91 o
-6 15 0 690.88 683.56 4.90 o
-5 15 0 199.94 194.68 1.91 o
-4 15 0 745.66 736.19 4.90 o
-3 15 0 66.47 63.71 1.09 o
-2 15 0 46.01 44.10 1.09 o
-1 15 0 576.32 566.06 3.54 o
0 15 0 220.15 211.30 2.45 o
1 15 0 788.41 788.27 7.90 o
2 15 0 206.58 197.14 3.00 o
3 15 0 179.79 172.35 2.72 o
4 15 0 72.90 69.42 1.91 o
5 15 0 10.51 11.71 1.09 o
6 15 0 718.31 735.63 7.63 o
7 15 0 9.08 6.53 1.09 o
8 15 0 236.59 238.26 3.54 o
9 15 0 15.28 15.79 1.36 o
10 15 0 27.12 26.13 1.63 o
11 15 0 4.68 6.26 1.63 o
-16 16 0 29.65 30.76 1.36 o
-15 16 0 0.23 1.91 0.82 <
-14 16 0 8.42 10.07 0.82 o
-13 16 0 192.66 191.41 2.18 o
-12 16 0 73.79 72.96 1.36 o
-11 16 0 9.93 9.80 0.82 o
-10 16 0 547.26 545.89 4.36 o
-9 16 0 36.77 35.66 1.36 o
-8 16 0 7.46 8.71 0.82 o
-7 16 0 54.49 53.90 1.36 o
-6 16 0 103.63 98.83 1.36 o
-5 16 0 76.77 75.41 1.36 o
-4 16 0 10.40 11.71 0.82 o
-3 16 0 930.26 912.13 6.27 o
-2 16 0 270.08 263.87 2.45 o
-1 16 0 95.02 93.38 1.63 o
0 16 0 31.75 35.12 1.36 o
1 16 0 23.61 26.68 1.36 o
2 16 0 81.23 79.50 1.91 o
3 16 0 191.54 178.89 3.00 o
4 16 0 153.66 154.92 2.72 o
5 16 0 391.33 392.18 5.17 o
6 16 0 143.68 135.59 2.72 o
7 16 0 22.97 21.23 1.36 o
8 16 0 64.93 59.35 2.18 o
9 16 0 155.19 151.66 2.72 o
10 16 0 163.81 153.57 3.54 o
-15 17 0 63.63 59.35 1.63 o
-14 17 0 373.15 374.20 3.54 o
-13 17 0 7.89 10.07 0.82 o
-12 17 0 77.16 76.50 1.36 o
-11 17 0 228.10 228.46 2.45 o
-10 17 0 254.01 252.43 2.72 o
-9 17 0 25.51 27.50 1.09 o
-8 17 0 16.17 14.43 0.82 o
-7 17 0 501.78 521.89 4.09 o
-6 17 0 240.97 242.62 2.18 o
-5 17 0 80.81 78.41 1.36 o
-4 17 0 270.70 271.49 2.45 o
-3 17 0 22.65 23.41 0.82 o
-2 17 0 255.55 250.79 2.45 o
-1 17 0 51.66 55.54 1.63 o
0 17 0 375.95 381.56 4.90 o
1 17 0 358.59 311.56 4.09 o
2 17 0 0.40 1.09 1.09 <
3 17 0 53.90 54.45 1.91 o
4 17 0 47.70 47.91 2.18 o
5 17 0 186.30 191.14 3.27 o
6 17 0 42.68 41.65 1.91 o
7 17 0 96.86 101.28 2.45 o
8 17 0 175.87 174.26 3.27 o
9 17 0 5.34 7.62 1.63 o
-15 18 0 65.70 61.26 1.91 o
-14 18 0 3.75 5.17 0.82 o
-13 18 0 26.80 26.13 0.82 o
-12 18 0 36.92 41.11 1.36 o
-11 18 0 16.71 17.42 0.82 o
-10 18 0 147.12 150.02 1.91 o
-9 18 0 22.49 21.51 1.09 o
-8 18 0 317.21 327.33 3.00 o
-7 18 0 90.40 92.02 1.63 o
-6 18 0 20.32 19.87 0.82 o
-5 18 0 390.03 405.80 3.27 o
-4 18 0 21.78 21.23 0.82 o
-3 18 0 876.74 896.83 6.54 o
-2 18 0 12.24 13.07 1.09 o
-1 18 0 482.53 495.19 5.18 o
0 18 0 26.17 26.41 1.63 o
1 18 0 126.06 133.41 2.99 o
2 18 0 350.98 353.22 4.90 o
3 18 0 53.70 52.81 1.91 o
4 18 0 168.12 166.90 3.00 o
5 18 0 17.81 17.69 1.36 o
6 18 0 99.51 103.73 2.45 o
7 18 0 59.45 58.26 2.18 o
8 18 0 0.29 3.81 1.91 <
-14 19 0 10.93 12.79 0.82 o
-13 19 0 1.82 2.99 0.82 o
-12 19 0 396.58 395.73 3.27 o
-11 19 0 117.67 116.25 1.63 o
-10 19 0 16.76 18.51 0.82 o
-9 19 0 253.60 252.15 2.45 o
-8 19 0 14.86 14.70 0.82 o
-7 19 0 1.74 3.54 0.82 o
-6 19 0 2.84 4.36 0.82 o
-5 19 0 403.65 403.90 3.54 o
-4 19 0 148.82 148.93 1.91 o
-3 19 0 44.32 45.46 1.63 o
-2 19 0 315.65 315.08 3.54 o
-1 19 0 31.63 34.57 1.91 o
0 19 0 34.01 37.57 1.91 o
1 19 0 17.92 20.96 1.36 o
2 19 0 94.80 96.65 2.45 o
3 19 0 248.04 246.98 4.08 o
4 19 0 152.90 151.65 2.99 o
5 19 0 161.31 160.91 3.00 o
6 19 0 121.54 114.62 2.72 o
7 19 0 133.99 120.62 3.81 o
-13 20 0 134.27 128.79 1.91 o
-12 20 0 8.35 6.81 0.82 o
-11 20 0 22.49 22.87 0.82 o
-10 20 0 49.72 50.91 1.36 o
-9 20 0 393.92 400.62 3.27 o
-8 20 0 98.67 99.64 1.63 o
-7 20 0 15.64 15.79 0.82 o
-6 20 0 184.25 185.15 2.18 o
-5 20 0 1.67 2.72 0.82 o
-4 20 0 0.59 2.18 0.82 <
-3 20 0 1.85 3.54 0.82 o
-2 20 0 71.06 75.14 2.18 o
-1 20 0 118.56 123.33 2.45 o
0 20 0 0.54 2.18 1.09 <
1 20 0 128.90 129.32 2.72 o
2 20 0 222.68 224.64 3.81 o
3 20 0 22.12 21.78 1.36 o
4 20 0 7.30 8.44 1.09 o
5 20 0 32.18 33.21 1.91 o
6 20 0 84.12 81.68 3.27 o
-12 21 0 125.61 116.54 2.72 o
-11 21 0 0.45 0.27 0.54 <
-10 21 0 111.77 111.90 1.63 o
-9 21 0 6.72 5.44 0.82 o
-8 21 0 17.50 19.87 0.82 o
-7 21 0 438.28 460.29 4.36 o
-6 21 0 48.89 48.73 1.36 o
-5 21 0 96.32 99.37 1.91 o
-4 21 0 73.08 74.60 1.63 o
-3 21 0 153.18 160.64 2.72 o
-2 21 0 119.93 119.79 2.45 o
-1 21 0 14.70 17.15 1.36 o
0 21 0 483.03 507.98 6.54 o
1 21 0 69.06 67.79 2.45 o
2 21 0 22.09 22.87 1.63 o
3 21 0 92.98 95.29 2.45 o
4 21 0 16.68 16.61 1.63 o
-10 22 0 21.02 23.41 1.09 o
-9 22 0 0.20 -0.27 0.82 <
-8 22 0 32.62 32.40 1.09 o
-7 22 0 101.43 104.00 1.63 o
-6 22 0 35.11 38.66 1.36 o
-5 22 0 17.60 18.51 1.09 o
-4 22 0 375.37 366.03 4.36 o
-3 22 0 92.73 95.29 2.72 o
-2 22 0 39.16 43.83 1.91 o
-1 22 0 28.90 27.77 1.63 o
0 22 0 27.65 35.12 1.91 o
1 22 0 53.83 55.54 2.18 o
2 22 0 109.24 110.00 2.45 o
3 22 0 90.22 81.95 4.08 o
-8 23 0 119.86 114.90 2.72 o
-7 23 0 39.05 39.75 2.18 o
-6 23 0 53.53 52.82 1.91 o
-5 23 0 28.86 29.95 1.36 o
-4 23 0 13.99 15.24 1.36 o
-3 23 0 20.56 19.06 1.36 o
-2 23 0 35.09 38.93 2.18 o
-1 23 0 74.89 74.33 2.45 o
0 23 0 72.10 67.25 2.45 o
0 -23 1 5.95 7.08 1.36 o
1 -23 1 13.81 15.24 1.36 o
2 -23 1 0.06 1.63 1.36 <
3 -23 1 12.28 13.61 1.09 o
4 -23 1 37.00 37.02 1.63 o
5 -23 1 59.17 56.63 1.91 o
6 -23 1 141.69 134.23 2.72 o
7 -23 1 3.88 5.17 1.09 o
8 -23 1 10.38 8.71 1.09 o
-2 -22 1 0.15 3.54 1.09 o
-1 -22 1 73.75 73.24 2.18 o
0 -22 1 20.61 20.96 1.36 o
1 -22 1 136.27 140.22 2.99 o
2 -22 1 285.46 273.13 4.36 o
3 -22 1 27.74 24.23 1.63 o
4 -22 1 26.05 25.05 1.63 o
5 -22 1 57.58 54.99 1.63 o
6 -22 1 106.61 102.91 1.91 o
7 -22 1 0.35 1.36 0.82 <
8 -22 1 66.52 73.23 1.91 o
9 -22 1 244.41 238.28 3.27 o
10 -22 1 2.95 3.27 0.82 o
-4 -21 1 61.70 59.62 2.45 o
-3 -21 1 10.84 12.52 1.36 o
-2 -21 1 379.90 395.72 5.72 o
-1 -21 1 8.63 10.07 1.36 o
0 -21 1 219.25 224.37 3.54 o
1 -21 1 138.48 145.93 2.99 o
2 -21 1 344.80 361.66 5.17 o
3 -21 1 44.63 44.65 2.45 o
4 -21 1 9.71 10.07 1.09 o
5 -21 1 262.01 269.86 3.00 o
6 -21 1 31.38 34.30 1.36 o
7 -21 1 97.85 95.56 1.63 o
8 -21 1 188.68 193.05 1.91 o
9 -21 1 10.90 12.52 0.82 o
10 -21 1 42.24 43.29 1.36 o
11 -21 1 3.18 4.90 0.82 o
12 -21 1 150.89 134.24 3.27 o
-5 -20 1 1.96 1.91 1.36 <
-4 -20 1 149.07 148.12 3.27 o
-3 -20 1 143.42 153.29 3.27 o
-2 -20 1 5.39 4.63 1.36 o
-1 -20 1 181.23 182.97 3.27 o
0 -20 1 14.69 15.79 1.36 o
1 -20 1 2.75 2.72 1.09 <
2 -20 1 18.34 20.96 1.36 o
3 -20 1 22.19 22.60 1.09 o
4 -20 1 300.39 309.90 3.00 o
5 -20 1 1.27 2.72 0.82 o
6 -20 1 126.70 129.60 1.91 o
7 -20 1 209.05 213.20 2.18 o
8 -20 1 77.30 80.04 1.63 o
9 -20 1 45.33 46.82 1.36 o
10 -20 1 7.10 5.17 0.82 o
11 -20 1 199.91 198.23 2.18 o
12 -20 1 88.61 87.67 1.36 o
13 -20 1 30.99 29.95 1.63 o
-6 -19 1 160.39 156.56 3.27 o
-5 -19 1 228.21 221.10 3.54 o
-4 -19 1 31.11 31.85 1.63 o
-3 -19 1 0.53 1.63 1.09 <
-2 -19 1 30.83 29.95 1.63 o
-1 -19 1 125.20 125.51 2.72 o
0 -19 1 253.73 252.70 4.36 o
1 -19 1 47.86 53.09 1.91 o
2 -19 1 105.38 109.72 1.91 o
3 -19 1 349.80 349.95 3.27 o
4 -19 1 0.22 1.91 0.82 <
5 -19 1 15.86 17.15 0.82 o
6 -19 1 3.24 3.81 0.82 o
7 -19 1 420.02 423.79 3.54 o
8 -19 1 0.23 1.63 0.82 <
9 -19 1 152.51 156.56 1.91 o
10 -19 1 361.30 364.93 3.27 o
11 -19 1 1.31 2.72 0.82 o
12 -19 1 0.92 2.72 0.82 o
13 -19 1 0.31 1.09 0.54 <
14 -19 1 97.56 85.49 2.18 o
-7 -18 1 53.40 51.73 2.72 o
-6 -18 1 34.96 35.12 1.91 o
-5 -18 1 1.86 1.91 1.09 <
-4 -18 1 260.25 261.41 3.81 o
-3 -18 1 164.56 169.90 3.00 o
-2 -18 1 209.23 208.30 3.54 o
-1 -18 1 337.91 343.68 4.63 o
0 -18 1 5.41 4.90 1.09 o
1 -18 1 312.51 319.17 3.81 o
2 -18 1 29.78 29.13 1.09 o
3 -18 1 529.49 543.16 4.63 o
4 -18 1 247.95 254.33 2.45 o
5 -18 1 98.67 100.46 1.63 o
6 -18 1 355.87 368.20 3.27 o
7 -18 1 28.40 29.40 1.09 o
8 -18 1 254.45 259.51 2.72 o
9 -18 1 4.80 5.99 0.82 o
10 -18 1 361.67 378.55 3.54 o
11 -18 1 30.43 29.13 1.09 o
12 -18 1 0.07 0.54 0.54 <
13 -18 1 10.87 11.16 0.82 o
14 -18 1 2.31 1.91 0.82 <
15 -18 1 33.08 28.58 1.91 o
-8 -17 1 4.59 5.44 1.63 o
-7 -17 1 29.67 32.94 1.63 o
-6 -17 1 133.02 131.78 2.72 o
-5 -17 1 47.40 52.54 2.18 o
-4 -17 1 30.55 29.40 1.36 o
-3 -17 1 349.15 351.59 4.36 o
-2 -17 1 297.71 307.72 4.36 o
-1 -17 1 0.44 3.27 1.09 o
0 -17 1 182.29 185.70 3.00 o
1 -17 1 7.98 10.34 0.82 o
2 -17 1 203.66 205.31 2.45 o
3 -17 1 69.67 68.33 1.36 o
4 -17 1 376.36 376.11 3.27 o
5 -17 1 486.35 485.39 3.81 o
6 -17 1 34.49 34.03 1.09 o
7 -17 1 3.05 4.08 0.82 o
8 -17 1 176.95 175.89 2.18 o
9 -17 1 222.19 224.37 2.45 o
10 -17 1 65.49 67.52 1.63 o
11 -17 1 85.18 84.40 1.63 o
12 -17 1 623.09 626.84 4.90 o
13 -17 1 151.05 151.65 1.91 o
14 -17 1 1.04 1.36 0.82 <
15 -17 1 143.66 136.41 2.18 o
-10 -16 1 132.55 132.32 7.08 o
-9 -16 1 10.28 9.80 1.91 o
-8 -16 1 130.26 127.69 2.99 o
-7 -16 1 276.03 264.41 4.08 o
-6 -16 1 130.36 129.05 2.72 o
-5 -16 1 143.60 140.49 2.72 o
-4 -16 1 136.42 133.41 2.72 o
-3 -16 1 9.98 10.62 1.09 o
-2 -16 1 94.95 91.21 1.91 o
-1 -16 1 44.19 45.74 1.63 o
0 -16 1 355.02 341.78 4.36 o
1 -16 1 703.29 681.94 6.27 o
2 -16 1 28.51 28.58 0.82 o
3 -16 1 46.70 47.10 1.09 o
4 -16 1 32.96 32.40 1.09 o
5 -16 1 184.48 175.90 1.91 o
6 -16 1 5.23 5.72 0.54 o
7 -16 1 114.75 112.72 1.63 o
8 -16 1 581.41 578.33 4.36 o
9 -16 1 2.28 3.81 0.82 o
10 -16 1 35.46 35.39 1.09 o
11 -16 1 169.84 170.45 2.18 o
12 -16 1 32.80 33.48 1.09 o
13 -16 1 1.42 3.54 0.82 o
14 -16 1 75.76 75.14 1.63 o
15 -16 1 231.84 223.56 2.45 o
16 -16 1 0.06 0.82 0.82 <
-11 -15 1 1.13 0.00 2.18 <
-10 -15 1 48.10 48.19 2.45 o
-9 -15 1 0.26 0.82 1.36 <
-8 -15 1 287.56 282.12 3.81 o
-7 -15 1 4.25 4.63 1.09 o
-6 -15 1 91.97 88.48 2.18 o
-5 -15 1 374.42 371.75 4.09 o
-4 -15 1 46.14 43.29 1.63 o
-3 -15 1 516.71 509.92 5.18 o
-2 -15 1 2.53 4.63 0.82 o
-1 -15 1 1014.45 996.71 8.99 o
0 -15 1 68.11 67.79 1.36 o
1 -15 1 602.14 583.24 4.36 o
2 -15 1 454.61 444.50 3.27 o
3 -15 1 86.27 83.31 1.36 o
4 -15 1 245.50 246.43 2.18 o
5 -15 1 185.59 180.52 1.91 o
6 -15 1 463.26 459.49 3.54 o
7 -15 1 177.99 171.81 1.91 o
8 -15 1 4.58 4.36 0.54 o
9 -15 1 477.14 473.39 4.09 o
10 -15 1 3.07 4.08 0.82 o
11 -15 1 117.78 120.34 1.91 o
12 -15 1 1.62 4.63 0.82 o
13 -15 1 39.70 39.20 1.36 o
14 -15 1 30.97 33.21 1.09 o
15 -15 1 14.44 14.97 0.82 o
16 -15 1 96.09 97.20 1.91 o
-12 -14 1 150.59 139.95 4.08 o
-11 -14 1 211.00 209.12 3.81 o
-10 -14 1 5.62 4.08 1.36 <
-9 -14 1 366.89 370.65 4.63 o
-8 -14 1 2.44 4.90 1.09 o
-7 -14 1 7.87 7.35 1.09 o
-6 -14 1 17.70 17.97 1.09 o
-5 -14 1 566.91 551.35 5.18 o
-4 -14 1 460.89 456.49 4.36 o
-3 -14 1 1.43 2.72 0.82 o
-2 -14 1 696.72 669.94 4.90 o
-1 -14 1 48.68 52.81 1.36 o
0 -14 1 12.63 13.61 0.54 o
1 -14 1 2.18 2.72 0.54 o
2 -14 1 218.47 217.56 1.91 o
3 -14 1 1071.70 1058.35 6.00 o
4 -14 1 24.45 23.96 0.54 o
5 -14 1 518.18 508.55 3.27 o
6 -14 1 496.77 481.30 3.00 o
7 -14 1 310.72 302.82 2.45 o
8 -14 1 28.37 28.04 0.82 o
9 -14 1 0.59 1.63 0.54 o
10 -14 1 762.93 755.02 5.18 o
11 -14 1 261.21 257.33 2.45 o
12 -14 1 177.94 180.52 1.91 o
13 -14 1 506.39 508.82 3.54 o
14 -14 1 166.21 168.27 1.91 o
15 -14 1 37.03 39.75 1.09 o
16 -14 1 37.13 37.30 1.63 o
17 -14 1 257.80 244.82 4.36 o
-13 -13 1 139.26 123.61 3.54 o
-12 -13 1 21.28 21.23 1.63 o
-11 -13 1 21.03 18.78 1.36 o
-10 -13 1 83.53 74.87 2.45 o
-9 -13 1 363.05 361.67 4.36 o
-8 -13 1 87.15 85.76 2.18 o
-7 -13 1 326.08 314.54 3.54 o
-6 -13 1 295.18 283.76 3.00 o
-5 -13 1 29.02 31.85 1.09 o
-4 -13 1 0.51 2.18 0.82 <
-3 -13 1 31.79 31.58 1.09 o
-2 -13 1 490.36 469.58 3.54 o
-1 -13 1 259.05 247.80 2.18 o
0 -13 1 24.56 25.05 0.82 o
1 -13 1 52.56 53.63 0.82 o
2 -13 1 544.09 522.45 3.27 o
3 -13 1 17.79 18.24 0.54 o
4 -13 1 16.07 16.33 0.54 o
5 -13 1 28.03 29.95 0.82 o
6 -13 1 815.76 794.28 4.63 o
7 -13 1 55.19 55.54 1.09 o
8 -13 1 195.19 188.42 1.91 o
9 -13 1 411.40 394.92 3.27 o
10 -13 1 4.66 5.72 0.54 o
11 -13 1 13.98 14.43 0.82 o
12 -13 1 0.06 0.00 0.54 <
13 -13 1 182.87 184.88 1.91 o
14 -13 1 0.34 2.18 0.54 o
15 -13 1 119.95 121.16 1.63 o
16 -13 1 107.10 106.72 1.63 o
17 -13 1 4.04 3.81 1.09 o
-13 -12 1 42.77 42.47 2.18 o
-12 -12 1 16.04 18.24 1.36 o
-11 -12 1 6.61 8.44 1.36 o
-10 -12 1 509.54 524.34 5.99 o
-9 -12 1 10.25 10.89 1.09 o
-8 -12 1 70.10 65.88 1.63 o
-7 -12 1 253.16 245.89 2.72 o
-6 -12 1 2.36 4.90 0.82 o
-5 -12 1 150.59 142.40 1.91 o
-4 -12 1 832.32 809.82 5.45 o
-3 -12 1 1040.60 1016.88 6.00 o
-2 -12 1 334.47 328.43 2.72 o
-1 -12 1 2.50 4.90 0.54 o
0 -12 1 1581.49 1608.28 8.73 o
1 -12 1 30.86 30.22 0.54 o
2 -12 1 739.98 725.02 4.09 o
3 -12 1 1462.87 1467.36 7.64 o
4 -12 1 677.59 677.01 3.81 o
5 -12 1 295.05 298.73 1.91 o
6 -12 1 110.89 105.09 1.09 o
7 -12 1 1320.32 1331.56 6.82 o
8 -12 1 0.48 3.54 0.54 o
9 -12 1 488.11 472.58 3.00 o
10 -12 1 286.13 276.40 2.45 o
11 -12 1 34.79 35.12 1.09 o
12 -12 1 36.58 35.66 0.82 o
13 -12 1 5.89 7.89 0.82 o
14 -12 1 253.84 254.60 2.18 o
15 -12 1 5.83 7.62 0.82 o
16 -12 1 24.65 27.50 1.09 o
17 -12 1 54.36 51.18 1.36 o
-14 -11 1 98.02 91.48 2.45 o
-13 -11 1 160.41 160.91 3.27 o
-12 -11 1 15.16 16.33 1.36 o
-11 -11 1 605.43 617.02 7.08 o
-10 -11 1 106.80 108.09 2.45 o
-9 -11 1 0.33 2.18 0.82 <
-8 -11 1 55.33 54.45 1.63 o
-7 -11 1 293.56 286.48 3.00 o
-6 -11 1 184.27 181.61 2.18 o
-5 -11 1 97.23 95.02 1.36 o
-4 -11 1 1263.50 1247.24 7.63 o
-3 -11 1 655.85 649.48 3.81 o
-2 -11 1 40.31 42.74 0.82 o
-1 -11 1 406.61 399.55 2.45 o
0 -11 1 85.61 84.94 0.82 o
1 -11 1 547.09 539.64 2.72 o
2 -11 1 87.61 85.76 0.82 o
3 -11 1 1242.30 1252.51 6.27 o
4 -11 1 1421.79 1443.37 7.36 o
5 -11 1 309.92 302.28 1.91 o
6 -11 1 28.52 28.58 0.54 o
7 -11 1 195.93 186.24 1.36 o
8 -11 1 499.39 484.56 3.00 o
9 -11 1 147.64 138.59 1.36 o
10 -11 1 224.69 217.29 1.91 o
11 -11 1 1527.38 1516.03 8.73 o
12 -11 1 404.47 396.55 3.00 o
13 -11 1 29.50 32.12 0.82 o
14 -11 1 161.26 159.28 1.63 o
15 -11 1 287.91 286.75 2.45 o
16 -11 1 88.78 89.84 1.36 o
17 -11 1 14.47 14.43 0.82 o
18 -11 1 346.25 345.09 5.45 o
-15 -10 1 192.55 180.81 3.54 o
-14 -10 1 0.72 2.99 1.09 <
-13 -10 1 93.90 92.02 2.45 o
-12 -10 1 42.39 41.11 1.91 o
-11 -10 1 275.51 273.95 4.08 o
-10 -10 1 8.14 7.89 1.09 o
-9 -10 1 198.38 193.05 2.72 o
-8 -10 1 438.07 424.34 4.09 o
-7 -10 1 61.59 60.44 1.36 o
-6 -10 1 240.06 225.46 2.18 o
-5 -10 1 32.44 32.40 0.82 o
-4 -10 1 106.13 99.10 0.82 o
-3 -10 1 0.06 1.36 0.27 o
-2 -10 1 49.74 44.92 0.54 o
-1 -10 1 592.86 584.91 3.27 o
0 -10 1 1184.59 1176.19 5.45 o
1 -10 1 16.91 19.06 0.27 o
2 -10 1 3.81 4.36 0.27 o
3 -10 1 8.07 8.44 0.27 o
4 -10 1 50.64 49.00 0.54 o
5 -10 1 151.45 147.03 1.09 o
6 -10 1 40.40 40.56 0.54 o
7 -10 1 881.40 860.30 4.09 o
8 -10 1 0.09 1.63 0.27 o
9 -10 1 4.82 5.99 0.54 o
10 -10 1 102.93 98.83 1.09 o
11 -10 1 4.02 5.72 0.54 o
12 -10 1 57.75 54.45 1.09 o
13 -10 1 49.14 43.01 1.09 o
14 -10 1 238.88 242.35 2.18 o
15 -10 1 0.07 1.36 0.54 <
16 -10 1 73.89 75.41 1.36 o
17 -10 1 11.15 11.98 0.82 o
18 -10 1 7.35 7.62 0.82 o
-15 -9 1 24.27 26.13 1.63 o
-14 -9 1 0.33 0.54 1.09 <
-13 -9 1 129.77 131.50 2.72 o
-12 -9 1 27.65 28.86 1.63 o
-11 -9 1 0.15 0.54 1.09 <
-10 -9 1 2.57 4.36 0.82 o
-9 -9 1 965.17 961.77 8.72 o
-8 -9 1 2.33 4.36 0.82 o
-7 -9 1 51.14 46.83 1.09 o
-6 -9 1 1543.72 1548.99 8.45 o
-5 -9 1 203.02 195.50 1.36 o
-4 -9 1 343.59 335.52 1.91 o
-3 -9 1 4.23 7.35 0.27 o
-2 -9 1 4751.04 4941.93 24.38 o
-1 -9 1 94.41 91.48 0.82 o
0 -9 1 1400.73 1415.41 6.82 o
1 -9 1 2435.06 2644.77 12.84 o
2 -9 1 432.72 436.38 2.18 o
3 -9 1 46.48 47.10 0.54 o
4 -9 1 967.96 968.78 4.91 o
5 -9 1 2805.34 2969.51 12.84 o
6 -9 1 275.18 271.77 1.63 o
7 -9 1 25.77 28.58 0.54 o
8 -9 1 1747.64 1775.81 8.46 o
9 -9 1 0.90 2.72 0.27 o
10 -9 1 34.93 36.21 0.82 o
11 -9 1 48.31 48.19 0.82 o
12 -9 1 339.70 337.96 2.45 o
13 -9 1 0.96 4.08 0.54 o
14 -9 1 103.90 109.18 1.63 o
15 -9 1 398.08 405.26 3.27 o
16 -9 1 96.65 96.92 1.63 o
17 -9 1 3.06 4.08 0.82 o
18 -9 1 0.35 0.00 0.54 <
-16 -8 1 25.09 27.50 1.91 o
-15 -8 1 41.79 46.82 1.91 o
-14 -8 1 6.44 7.08 1.09 o
-13 -8 1 261.34 261.69 3.81 o
-12 -8 1 307.26 301.46 4.36 o
-11 -8 1 15.76 16.06 1.09 o
-10 -8 1 686.21 671.03 7.08 o
-9 -8 1 6.74 7.35 0.82 o
-8 -8 1 92.66 90.39 1.36 o
-7 -8 1 5.54 7.35 0.54 o
-6 -8 1 1481.33 1486.20 7.64 o
-5 -8 1 487.28 487.30 2.72 o
-4 -8 1 6.35 6.53 0.27 o
-3 -8 1 1389.31 1431.08 7.09 o
-2 -8 1 228.94 231.47 1.36 o
-1 -8 1 108.00 105.10 0.82 o
0 -8 1 0.08 2.18 0.27 o
1 -8 1 1540.43 1632.84 8.19 o
2 -8 1 2428.40 2543.64 11.75 o
3 -8 1 251.90 247.28 1.36 o
4 -8 1 749.58 779.44 3.82 o
5 -8 1 1265.69 1292.66 5.73 o
6 -8 1 632.30 622.01 3.00 o
7 -8 1 14.22 15.52 0.27 o
8 -8 1 49.89 52.54 0.82 o
9 -8 1 1631.82 1630.44 7.64 o
10 -8 1 848.00 824.01 4.63 o
11 -8 1 215.09 210.75 1.63 o
12 -8 1 649.92 644.57 4.36 o
13 -8 1 213.29 213.75 1.91 o
14 -8 1 47.01 46.28 1.36 o
15 -8 1 54.20 55.54 1.36 o
16 -8 1 513.88 522.16 4.09 o
17 -8 1 151.78 154.11 1.91 o
18 -8 1 119.30 119.80 1.63 o
-16 -7 1 1.92 3.81 1.09 o
-15 -7 1 237.24 236.08 3.27 o
-14 -7 1 80.80 83.31 2.45 o
-13 -7 1 99.42 100.73 2.45 o
-12 -7 1 131.01 124.97 2.45 o
-11 -7 1 16.11 16.06 1.09 o
-10 -7 1 512.77 509.36 5.72 o
-9 -7 1 0.36 2.18 0.82 <
-8 -7 1 573.46 551.62 3.81 o
-7 -7 1 159.34 150.29 1.36 o
-6 -7 1 6.95 8.17 0.27 o
-5 -7 1 104.60 103.46 0.82 o
-4 -7 1 14.15 16.06 0.27 o
-3 -7 1 1152.02 1141.51 5.45 o
-2 -7 1 16.05 18.24 0.54 o
-1 -7 1 15.52 17.42 0.27 o
0 -7 1 62.31 59.35 0.54 o
1 -7 1 731.60 737.93 4.09 o
2 -7 1 420.14 410.29 2.45 o
3 -7 1 86.92 97.74 0.82 o
4 -7 1 46.53 45.19 0.54 o
5 -7 1 869.53 866.83 4.09 o
6 -7 1 361.90 353.80 1.91 o
7 -7 1 47.13 46.83 0.54 o
8 -7 1 307.85 301.19 1.91 o
9 -7 1 74.30 68.06 0.82 o
10 -7 1 300.89 292.47 1.91 o
11 -7 1 0.20 1.63 0.54 o
12 -7 1 74.21 69.42 1.09 o
13 -7 1 25.67 27.22 0.82 o
14 -7 1 51.01 53.63 1.36 o
15 -7 1 48.01 50.64 1.36 o
16 -7 1 21.76 20.96 0.82 o
17 -7 1 6.54 7.89 0.82 o
18 -7 1 0.12 0.82 0.54 <
-17 -6 1 52.50 43.56 2.45 o
-16 -6 1 32.90 32.12 1.36 o
-15 -6 1 337.11 347.22 4.90 o
-14 -6 1 42.19 41.38 2.18 o
-13 -6 1 0.38 0.00 1.09 <
-12 -6 1 2.53 4.36 1.09 o
-11 -6 1 1164.64 1186.90 11.45 o
-10 -6 1 30.24 29.67 1.09 o
-9 -6 1 37.13 36.48 1.09 o
-8 -6 1 1048.72 1057.24 6.81 o
-7 -6 1 16.84 18.51 0.54 o
-6 -6 1 30.31 28.58 0.54 o
-5 -6 1 2180.60 2200.70 11.19 o
-4 -6 1 3381.18 3542.83 17.51 o
-3 -6 1 365.87 370.45 1.91 o
-2 -6 1 8.26 10.34 0.27 o
-1 -6 1 9788.64 10170.70 50.53 o
0 -6 1 190.29 189.82 1.09 o
1 -6 1 761.75 832.50 4.36 o
2 -6 1 5705.82 6109.85 28.93 o
3 -6 1 3866.96 4171.22 20.58 o
4 -6 1 643.18 620.04 3.27 o
5 -6 1 184.31 173.73 1.09 o
6 -6 1 5488.05 5851.86 24.98 o
7 -6 1 29.88 31.85 0.54 o
8 -6 1 286.38 274.50 1.63 o
9 -6 1 800.87 795.10 3.81 o
10 -6 1 405.34 396.27 2.45 o
11 -6 1 137.78 131.51 1.36 o
12 -6 1 12.54 14.43 0.82 o
13 -6 1 649.83 647.85 4.90 o
14 -6 1 0.73 1.36 0.82 <
15 -6 1 158.89 165.00 1.91 o
16 -6 1 217.86 226.55 2.45 o
17 -6 1 2.66 4.36 0.82 o
18 -6 1 14.61 14.43 0.82 o
-17 -5 1 6.15 5.17 1.09 o
-16 -5 1 1.14 0.00 1.09 <
-15 -5 1 123.38 122.52 2.72 o
-14 -5 1 220.43 224.10 3.27 o
-13 -5 1 5.81 8.44 1.09 o
-12 -5 1 840.33 842.29 7.90 o
-11 -5 1 56.50 57.99 1.63 o
-10 -5 1 0.93 1.36 0.54 <
-9 -5 1 10.06 10.89 0.54 o
-8 -5 1 403.50 407.17 2.72 o
-7 -5 1 200.99 197.41 1.36 o
-6 -5 1 215.67 207.77 1.36 o
-5 -5 1 2951.38 3074.30 15.86 o
-4 -5 1 948.57 963.57 5.45 o
-3 -5 1 190.06 182.73 1.36 o
-2 -5 1 360.64 364.25 2.18 o
-1 -5 1 400.83 423.45 2.18 o
0 -5 1 793.55 821.09 4.09 o
1 -5 1 132.71 122.00 0.82 o
2 -5 1 4171.30 4387.49 20.63 o
3 -5 1 3797.43 4024.09 19.22 o
4 -5 1 1447.85 1502.21 7.10 o
5 -5 1 5.19 3.81 0.27 o
6 -5 1 246.65 249.73 1.36 o
7 -5 1 462.92 463.63 2.45 o
8 -5 1 378.47 365.23 1.91 o
9 -5 1 220.37 215.11 1.36 o
10 -5 1 2403.16 2424.63 11.74 o
11 -5 1 686.93 672.65 3.81 o
12 -5 1 15.93 17.42 0.82 o
13 -5 1 123.49 123.61 1.63 o
14 -5 1 300.94 288.39 2.72 o
15 -5 1 226.84 229.82 2.72 o
16 -5 1 5.41 6.53 0.82 o
17 -5 1 421.20 433.86 3.81 o
18 -5 1 182.74 187.06 1.91 o
-17 -4 1 140.76 138.86 2.18 o
-16 -4 1 102.33 107.00 2.72 o
-15 -4 1 41.18 43.56 1.91 o
-14 -4 1 224.66 219.20 2.72 o
-13 -4 1 0.63 -0.27 0.82 <
-12 -4 1 460.03 460.85 4.36 o
-11 -4 1 232.82 222.74 2.18 o
-10 -4 1 128.09 129.60 1.63 o
-9 -4 1 238.02 229.55 1.91 o
-8 -4 1 16.49 16.33 0.54 o
-7 -4 1 902.67 889.84 4.63 o
-6 -4 1 37.05 39.20 0.54 o
-5 -4 1 345.52 336.38 1.91 o
-4 -4 1 431.77 435.91 2.45 o
-3 -4 1 5.60 5.99 0.27 o
-2 -4 1 865.15 899.24 5.18 o
-1 -4 1 1094.92 1161.23 6.01 o
0 -4 1 382.20 364.96 1.91 o
1 -4 1 1654.37 1753.49 9.03 o
2 -4 1 138.76 151.96 0.82 o
3 -4 1 127.17 120.36 0.82 o
4 -4 1 1128.44 1209.01 5.73 o
5 -4 1 2.42 4.36 0.27 o
6 -4 1 534.81 524.49 2.45 o
7 -4 1 0.28 1.09 0.27 o
8 -4 1 313.93 303.65 1.63 o
9 -4 1 108.00 107.81 0.82 o
10 -4 1 95.57 91.20 0.82 o
11 -4 1 267.41 265.77 1.91 o
12 -4 1 10.35 11.16 0.54 o
13 -4 1 102.11 101.55 1.36 o
14 -4 1 0.88 2.18 0.54 o
15 -4 1 0.06 1.09 0.82 <
16 -4 1 0.16 0.82 0.82 <
17 -4 1 89.58 89.03 1.36 o
18 -4 1 73.20 69.97 1.36 o
-17 -3 1 151.80 156.29 2.45 o
-16 -3 1 57.00 53.09 2.18 o
-15 -3 1 23.90 24.50 1.09 o
-14 -3 1 344.42 354.58 3.54 o
-13 -3 1 149.76 159.55 2.18 o
-12 -3 1 46.00 47.91 1.36 o
-11 -3 1 73.14 70.78 1.09 o
-10 -3 1 1660.07 1724.56 9.82 o
-9 -3 1 3.10 4.36 0.27 o
-8 -3 1 58.68 56.90 0.82 o
-7 -3 1 4100.65 4271.70 19.71 o
-6 -3 1 653.72 701.67 3.54 o
-5 -3 1 42.14 43.83 0.54 o
-4 -3 1 391.94 415.48 2.45 o
-3 -3 1 19506.30 18614.60 98.17 o
-2 -3 1 927.75 1030.29 6.01 o
-1 -3 1 8093.71 8736.14 47.64 o
0 -3 1 8723.04 8690.83 41.15 o
1 -3 1 836.66 881.45 4.37 o
2 -3 1 1556.30 1830.19 8.49 o
3 -3 1 4125.08 4514.79 22.04 o
4 -3 1 14523.10 14253.50 69.87 o
5 -3 1 1398.23 1441.13 7.37 o
6 -3 1 286.18 285.97 1.63 o
7 -3 1 3438.30 3691.52 14.50 o
8 -3 1 1.89 4.08 0.27 o
9 -3 1 1.72 2.18 0.27 o
10 -3 1 185.07 184.88 1.36 o
11 -3 1 1122.59 1142.09 6.27 o
12 -3 1 1.91 2.45 0.54 o
13 -3 1 350.40 346.68 2.72 o
14 -3 1 638.80 651.39 5.45 o
15 -3 1 85.22 86.85 1.91 o
16 -3 1 18.36 16.06 0.82 o
17 -3 1 5.12 6.53 0.82 o
18 -3 1 123.26 128.24 1.91 o
-18 -2 1 7.39 5.99 1.09 o
-17 -2 1 35.92 38.11 1.91 o
-16 -2 1 19.12 19.60 1.09 o
-15 -2 1 0.75 2.18 0.82 <
-14 -2 1 222.12 226.55 2.45 o
-13 -2 1 222.84 215.11 2.45 o
-12 -2 1 42.41 43.83 1.09 o
-11 -2 1 532.90 516.45 3.54 o
-10 -2 1 24.06 28.31 0.54 o
-9 -2 1 38.89 38.11 0.54 o
-8 -2 1 11.66 13.88 0.27 o
-7 -2 1 2021.11 2107.52 9.83 o
-6 -2 1 219.79 221.40 1.36 o
-5 -2 1 53.22 54.45 0.54 o
-4 -2 1 1662.06 1793.19 9.02 o
-3 -2 1 556.80 584.04 3.00 o
-2 -2 1 2.16 2.45 0.27 o
-1 -2 1 141.16 134.02 0.82 o
0 -2 1 5718.04 5940.26 26.37 o
1 -2 1 4514.58 4723.83 22.00 o
2 -2 1 630.08 647.68 3.00 o
3 -2 1 559.66 536.71 2.73 o
4 -2 1 2465.98 2578.64 12.33 o
5 -2 1 628.45 619.57 3.27 o
6 -2 1 172.45 175.91 1.09 o
7 -2 1 54.78 52.54 0.54 o
8 -2 1 1687.86 1712.30 7.64 o
9 -2 1 1317.39 1296.23 6.27 o
10 -2 1 59.01 60.17 0.82 o
11 -2 1 644.00 643.74 3.81 o
12 -2 1 140.00 138.31 1.63 o
13 -2 1 147.35 141.85 1.91 o
14 -2 1 91.46 82.22 1.63 o
15 -2 1 422.27 428.97 3.81 o
16 -2 1 234.66 242.35 2.45 o
17 -2 1 71.25 72.15 1.36 o
18 -2 1 208.17 208.04 2.45 o
-18 -1 1 70.84 66.70 1.91 o
-17 -1 1 46.67 46.28 1.36 o
-16 -1 1 270.51 275.85 3.00 o
-15 -1 1 0.81 2.72 0.82 o
-14 -1 1 258.04 269.86 2.72 o
-13 -1 1 616.73 603.69 4.90 o
-12 -1 1 3.70 4.08 0.54 o
-11 -1 1 313.10 310.99 2.18 o
-10 -1 1 71.14 71.33 0.82 o
-9 -1 1 768.28 766.47 4.09 o
-8 -1 1 12.10 12.79 0.27 o
-7 -1 1 492.53 483.27 2.45 o
-6 -1 1 1275.36 1350.96 6.27 o
-5 -1 1 840.26 877.24 4.64 o
-4 -1 1 585.36 595.96 3.27 o
-3 -1 1 452.47 484.18 2.45 o
-2 -1 1 291.99 294.10 1.64 o
-1 -1 1 812.45 850.41 4.38 o
0 -1 1 134.80 139.78 0.82 o
1 -1 1 3688.90 3831.71 19.49 o
2 -1 1 4293.85 4430.97 20.26 o
3 -1 1 149.70 174.58 1.09 o
4 -1 1 120.17 129.07 0.82 o
5 -1 1 290.24 299.08 1.63 o
6 -1 1 19.16 23.41 0.27 o
7 -1 1 184.54 188.98 1.09 o
8 -1 1 167.87 162.82 1.09 o
9 -1 1 1508.72 1517.15 7.64 o
10 -1 1 6.06 9.26 0.27 o
11 -1 1 45.95 47.10 0.82 o
12 -1 1 31.89 36.21 1.09 o
13 -1 1 8.58 7.89 0.54 o
14 -1 1 24.13 26.41 1.09 o
15 -1 1 57.51 55.81 1.36 o
16 -1 1 96.91 96.92 1.36 o
17 -1 1 0.15 1.09 0.82 <
18 -1 1 98.03 96.38 1.91 o
-18 0 1 78.71 74.32 2.18 o
-17 0 1 91.55 90.66 1.63 o
-16 0 1 436.10 458.38 4.63 o
-15 0 1 19.75 20.69 1.09 o
-14 0 1 6.31 6.26 0.82 o
-13 0 1 6.56 9.26 0.82 o
-12 0 1 1581.20 1630.62 10.09 o
-11 0 1 107.79 105.09 1.09 o
-10 0 1 3.89 7.35 0.27 o
-9 0 1 1709.85 1809.97 9.00 o
-8 0 1 153.07 160.37 1.09 o
-7 0 1 2.55 3.54 0.27 o
-6 0 1 3089.53 3200.65 15.05 o
-5 0 1 5960.29 6207.17 31.43 o
-4 0 1 370.26 422.64 2.45 o
-3 0 1 157.21 175.95 1.09 o
-2 0 1 30391.20 23689.50 115.78 o
-1 0 1 1106.45 1173.90 5.76 o
0 0 1 378.93 407.67 2.18 o
1 0 1 10897.20 9862.98 47.98 o
2 0 1 9829.58 9396.68 45.18 o
3 0 1 1790.48 1997.08 9.31 o
4 0 1 295.61 313.29 1.63 o
5 0 1 11726.20 11832.50 58.81 o
6 0 1 54.73 60.98 0.54 o
7 0 1 115.14 109.72 0.82 o
8 0 1 962.66 1023.48 5.18 o
9 0 1 972.54 959.35 5.45 o
10 0 1 117.50 114.89 1.09 o
11 0 1 20.42 23.14 0.54 o
12 0 1 873.87 879.64 5.72 o
13 0 1 3.02 4.63 0.54 o
14 0 1 297.99 302.82 3.00 o
15 0 1 293.02 305.54 3.00 o
16 0 1 5.66 7.35 0.82 o
17 0 1 19.17 18.78 0.82 o
18 0 1 72.58 70.51 1.91 o
-18 1 1 0.01 -0.27 0.82 <
-17 1 1 11.47 12.79 0.82 o
-16 1 1 101.97 104.82 1.91 o
-15 1 1 69.02 70.78 1.36 o
-14 1 1 2.52 3.81 0.54 o
-13 1 1 402.48 399.00 3.27 o
-12 1 1 30.54 31.31 0.82 o
-11 1 1 68.76 70.24 1.09 o
-10 1 1 7.76 10.34 0.54 o
-9 1 1 449.13 454.32 2.45 o
-8 1 1 8.36 11.16 0.27 o
-7 1 1 103.94 101.28 0.82 o
-6 1 1 1827.15 1949.50 9.56 o
-5 1 1 650.78 663.26 3.54 o
-4 1 1 60.70 62.08 0.54 o
-3 1 1 176.61 199.12 1.09 o
-2 1 1 625.29 652.58 3.28 o
-1 1 1 521.40 519.78 2.73 o
0 1 1 1325.71 1341.51 6.59 o
1 1 1 4063.00 4206.05 18.93 o
2 1 1 2083.75 2083.73 9.33 o
3 1 1 489.88 512.55 2.45 o
4 1 1 436.05 457.27 2.45 o
5 1 1 741.42 755.42 3.82 o
6 1 1 179.11 178.36 1.09 o
7 1 1 718.60 726.76 3.27 o
8 1 1 97.81 93.66 0.82 o
9 1 1 1656.67 1652.38 8.73 o
10 1 1 462.83 455.40 2.72 o
11 1 1 53.50 53.36 0.82 o
12 1 1 196.05 196.59 1.91 o
13 1 1 120.97 118.98 1.63 o
14 1 1 314.45 323.25 3.00 o
15 1 1 1.20 2.18 0.82 <
16 1 1 269.27 273.40 2.45 o
17 1 1 153.98 157.92 2.18 o
18 1 1 0.31 0.54 1.09 <
-19 2 1 124.68 118.44 3.54 o
-18 2 1 134.14 135.86 1.91 o
-17 2 1 6.61 7.35 0.82 o
-16 2 1 95.48 101.28 1.91 o
-15 2 1 416.32 422.97 3.81 o
-14 2 1 37.25 35.39 1.09 o
-13 2 1 526.35 527.90 4.09 o
-12 2 1 758.38 738.38 4.63 o
-11 2 1 35.94 42.20 0.82 o
-10 2 1 2.05 2.72 0.27 o
-9 2 1 212.19 209.40 1.36 o
-8 2 1 2279.11 2376.46 11.20 o
-7 2 1 240.93 242.91 1.36 o
-6 2 1 409.15 409.73 2.18 o
-5 2 1 1399.41 1498.21 7.37 o
-4 2 1 547.77 578.23 3.27 o
-3 2 1 122.93 127.45 0.82 o
-2 2 1 44.17 44.11 0.27 o
-1 2 1 4052.04 4135.62 21.12 o
0 2 1 7102.45 7356.02 33.88 o
1 2 1 3.88 7.08 0.27 o
2 2 1 722.52 719.40 3.55 o
3 2 1 2344.20 2445.80 11.23 o
4 2 1 94.74 98.57 0.54 o
5 2 1 1.53 2.18 0.27 o
6 2 1 55.52 53.36 0.54 o
7 2 1 1659.08 1696.53 7.91 o
8 2 1 235.79 233.36 1.63 o
9 2 1 475.14 470.12 2.72 o
10 2 1 400.01 406.34 2.45 o
11 2 1 0.84 2.45 0.54 o
12 2 1 6.70 6.81 0.54 o
13 2 1 1.00 2.72 0.54 o
14 2 1 128.46 132.05 1.91 o
15 2 1 0.62 1.63 0.82 <
16 2 1 280.09 285.38 2.72 o
17 2 1 123.28 123.61 1.91 o
18 2 1 0.09 -4.08 1.91 <
-19 3 1 34.89 33.21 1.91 o
-18 3 1 142.28 145.94 1.91 o
-17 3 1 46.05 44.92 1.63 o
-16 3 1 37.23 36.75 1.36 o
-15 3 1 300.14 310.45 2.72 o
-14 3 1 205.29 213.48 2.18 o
-13 3 1 42.38 43.83 1.09 o
-12 3 1 141.97 140.76 1.63 o
-11 3 1 1599.11 1678.07 10.09 o
-10 3 1 0.24 1.63 0.27 o
-9 3 1 34.54 35.94 0.54 o
-8 3 1 3801.24 3940.88 17.24 o
-7 3 1 873.63 932.51 4.36 o
-6 3 1 46.33 49.00 0.54 o
-5 3 1 721.97 762.56 4.09 o
-4 3 1 19108.20 18589.30 97.52 o
-3 3 1 1169.81 1287.87 6.83 o
-2 3 1 7845.92 8463.95 42.84 o
-1 3 1 8501.55 8458.58 43.36 o
0 3 1 1418.60 1503.32 7.39 o
1 3 1 1514.01 1785.23 8.48 o
2 3 1 3076.62 3390.16 16.76 o
3 3 1 14679.20 14303.00 69.88 o
4 3 1 1809.94 1873.15 9.29 o
5 3 1 289.62 297.14 1.63 o
6 3 1 3330.17 3609.90 16.14 o
7 3 1 10.82 10.89 0.27 o
8 3 1 4.68 5.17 0.27 o
9 3 1 108.60 111.63 1.09 o
10 3 1 1196.86 1208.97 6.81 o
11 3 1 1.42 3.81 0.54 o
12 3 1 355.03 350.50 3.00 o
13 3 1 608.21 615.67 4.63 o
14 3 1 55.81 60.44 1.63 o
15 3 1 18.32 17.69 0.82 o
16 3 1 0.32 0.54 0.82 <
17 3 1 138.80 142.67 2.45 o
-19 4 1 14.51 16.33 1.36 o
-18 4 1 12.36 14.70 0.82 o
-17 4 1 5.50 5.99 0.82 o
-16 4 1 3.77 2.99 0.82 o
-15 4 1 85.82 84.67 1.63 o
-14 4 1 79.99 79.50 1.36 o
-13 4 1 68.76 69.15 1.36 o
-12 4 1 70.53 65.88 1.09 o
-11 4 1 25.99 30.22 0.82 o
-10 4 1 109.54 106.72 1.09 o
-9 4 1 24.89 24.77 0.54 o
-8 4 1 840.33 849.74 3.82 o
-7 4 1 44.75 46.01 0.54 o
-6 4 1 70.52 69.70 0.54 o
-5 4 1 274.04 277.82 1.63 o
-4 4 1 22.01 19.33 0.27 o
-3 4 1 1481.60 1579.75 8.20 o
-2 4 1 679.15 691.25 3.55 o
-1 4 1 575.95 578.19 2.73 o
0 4 1 1876.12 2002.06 9.86 o
1 4 1 57.64 49.01 0.27 o
2 4 1 125.02 130.16 0.82 o
3 4 1 816.36 845.90 4.64 o
4 4 1 11.88 15.79 0.27 o
5 4 1 966.56 973.59 4.36 o
6 4 1 56.54 56.35 0.54 o
7 4 1 547.49 523.58 2.72 o
8 4 1 624.23 614.32 3.27 o
9 4 1 2.28 4.90 0.27 o
10 4 1 480.93 464.40 3.00 o
11 4 1 31.60 33.76 0.82 o
12 4 1 403.95 404.72 3.27 o
13 4 1 178.53 182.70 2.45 o
14 4 1 104.08 101.01 1.91 o
15 4 1 160.62 162.82 2.18 o
16 4 1 2.71 3.81 0.82 o
17 4 1 185.89 179.99 3.54 o
-19 5 1 23.57 23.14 0.82 o
-18 5 1 102.47 103.73 1.63 o
-17 5 1 283.48 289.20 3.00 o
-16 5 1 42.75 42.47 1.36 o
-15 5 1 286.50 295.19 3.00 o
-14 5 1 1100.47 1112.95 7.63 o
-13 5 1 18.18 17.15 0.82 o
-12 5 1 95.28 91.75 1.36 o
-11 5 1 173.16 169.90 1.36 o
-10 5 1 720.27 722.00 3.54 o
-9 5 1 54.98 57.99 0.54 o
-8 5 1 816.14 787.56 3.54 o
-7 5 1 2412.67 2508.49 10.65 o
-6 5 1 1130.08 1159.34 5.18 o
-5 5 1 1.52 2.99 0.27 o
-4 5 1 747.66 753.06 3.82 o
-3 5 1 423.25 442.80 2.45 o
-2 5 1 752.23 783.88 4.09 o
-1 5 1 77.21 80.59 0.54 o
0 5 1 3644.49 3840.23 18.68 o
1 5 1 5516.63 5796.07 29.23 o
2 5 1 594.31 623.63 3.00 o
3 5 1 80.50 85.49 0.54 o
4 5 1 23.79 30.76 0.54 o
5 5 1 193.40 205.31 1.09 o
6 5 1 50.14 49.00 0.54 o
7 5 1 288.48 282.94 1.63 o
8 5 1 2204.97 2239.62 11.46 o
9 5 1 47.50 52.00 0.82 o
10 5 1 286.43 279.12 2.18 o
11 5 1 11.87 16.06 0.82 o
12 5 1 110.68 108.36 1.91 o
13 5 1 13.41 14.43 1.09 o
14 5 1 101.64 101.55 1.91 o
15 5 1 200.83 204.21 3.00 o
16 5 1 0.85 0.27 0.82 <
17 5 1 197.99 181.90 4.36 o
-19 6 1 35.92 32.67 1.36 o
-18 6 1 58.65 57.17 1.36 o
-17 6 1 290.16 296.28 2.72 o
-16 6 1 17.43 17.69 0.82 o
-15 6 1 4.00 3.54 0.82 o
-14 6 1 37.37 36.21 1.36 o
-13 6 1 1283.20 1308.93 10.09 o
-12 6 1 14.82 15.24 0.82 o
-11 6 1 5.38 7.08 0.54 o
-10 6 1 872.72 896.52 4.36 o
-9 6 1 57.62 57.72 0.54 o
-8 6 1 8.05 8.71 0.27 o
-7 6 1 1570.62 1563.49 7.09 o
-6 6 1 3866.08 4109.84 18.35 o
-5 6 1 517.99 523.67 2.72 o
-4 6 1 103.06 104.83 0.82 o
-3 6 1 9346.08 9755.24 49.93 o
-2 6 1 500.78 502.80 2.73 o
-1 6 1 709.80 777.33 4.36 o
0 6 1 4227.90 4574.42 22.52 o
1 6 1 4698.91 5021.50 24.73 o
2 6 1 999.12 986.71 5.18 o
3 6 1 258.96 256.00 1.36 o
4 6 1 5477.54 5862.73 27.17 o
5 6 1 1.63 3.27 0.27 o
6 6 1 253.64 245.90 1.63 o
7 6 1 594.08 594.41 3.54 o
8 6 1 649.47 640.48 4.09 o
9 6 1 52.90 51.45 1.09 o
10 6 1 39.26 40.84 1.36 o
11 6 1 636.20 635.85 5.72 o
12 6 1 5.68 5.99 0.82 o
13 6 1 159.79 157.38 2.72 o
14 6 1 158.62 166.63 2.72 o
15 6 1 1.08 3.54 1.09 o
16 6 1 4.35 4.08 1.09 o
-19 7 1 14.55 13.07 0.82 o
-18 7 1 57.07 56.08 1.36 o
-17 7 1 37.11 41.11 1.09 o
-16 7 1 2.13 2.18 0.82 <
-15 7 1 11.17 10.89 0.82 o
-14 7 1 25.96 19.87 1.09 o
-13 7 1 34.03 29.40 1.09 o
-12 7 1 264.08 254.06 2.18 o
-11 7 1 52.61 51.45 0.82 o
-10 7 1 246.54 237.17 1.63 o
-9 7 1 141.49 132.87 1.09 o
-8 7 1 14.70 13.88 0.27 o
-7 7 1 63.39 65.88 0.54 o
-6 7 1 175.06 168.82 1.09 o
-5 7 1 961.29 962.39 4.36 o
-4 7 1 8.59 7.08 0.27 o
-3 7 1 100.58 100.47 0.82 o
-2 7 1 6.01 7.89 0.27 o
-1 7 1 972.05 972.53 5.18 o
0 7 1 74.56 76.51 0.82 o
1 7 1 122.94 129.88 0.82 o
2 7 1 223.87 220.85 1.36 o
3 7 1 539.37 540.25 2.72 o
4 7 1 845.97 830.97 4.09 o
5 7 1 1.20 2.45 0.27 o
6 7 1 618.07 601.52 3.81 o
7 7 1 0.83 4.36 0.54 o
8 7 1 498.89 476.12 3.54 o
9 7 1 58.26 54.72 1.36 o
10 7 1 300.46 290.84 3.27 o
11 7 1 327.51 323.53 4.08 o
12 7 1 5.04 5.99 1.09 o
13 7 1 272.83 275.31 3.81 o
14 7 1 30.52 35.93 1.63 o
15 7 1 96.00 89.84 2.18 o
16 7 1 62.59 63.16 2.45 o
-19 8 1 126.10 108.37 4.63 o
-18 8 1 2.15 2.99 0.82 o
-17 8 1 109.71 114.89 1.63 o
-16 8 1 468.58 479.37 3.81 o
-15 8 1 84.03 84.67 1.63 o
-14 8 1 293.35 291.38 3.27 o
-13 8 1 907.23 892.77 6.00 o
-12 8 1 39.27 39.47 1.09 o
-11 8 1 26.44 29.67 0.82 o
-10 8 1 213.85 199.86 1.36 o
-9 8 1 1906.14 1924.81 9.00 o
-8 8 1 394.53 387.29 2.18 o
-7 8 1 147.80 136.14 1.09 o
-6 8 1 1312.44 1333.80 5.73 o
-5 8 1 122.58 127.69 0.82 o
-4 8 1 18.19 19.87 0.27 o
-3 8 1 83.87 80.32 0.54 o
-2 8 1 1573.02 1659.65 7.91 o
-1 8 1 2813.26 2982.82 13.40 o
0 8 1 6.13 9.26 0.27 o
1 8 1 914.45 955.75 4.63 o
2 8 1 900.72 936.85 4.63 o
3 8 1 263.10 271.77 1.63 o
4 8 1 17.10 19.06 0.54 o
5 8 1 116.60 114.35 1.09 o
6 8 1 1421.11 1436.18 9.00 o
7 8 1 172.91 172.35 1.63 o
8 8 1 641.39 627.94 5.18 o
9 8 1 379.73 369.84 4.36 o
10 8 1 37.40 37.57 1.63 o
11 8 1 0.04 1.36 1.09 <
12 8 1 3.87 3.27 1.09 o
13 8 1 205.40 212.38 3.81 o
14 8 1 0.16 0.54 1.09 <
15 8 1 308.94 306.37 4.08 o
16 8 1 123.66 106.19 3.54 o
-18 9 1 12.39 13.07 0.82 o
-17 9 1 6.05 6.53 0.82 o
-16 9 1 81.71 82.22 1.36 o
-15 9 1 69.78 74.32 1.63 o
-14 9 1 0.51 0.82 0.82 <
-13 9 1 65.75 64.79 1.09 o
-12 9 1 910.57 912.93 5.72 o
-11 9 1 2.12 2.72 0.54 o
-10 9 1 18.80 19.60 0.54 o
-9 9 1 1128.25 1134.20 5.72 o
-8 9 1 338.26 330.07 1.91 o
-7 9 1 329.19 318.08 1.63 o
-6 9 1 86.61 95.83 0.82 o
-5 9 1 4807.17 5023.44 21.92 o
-4 9 1 204.98 197.15 1.09 o
-3 9 1 1162.48 1162.15 5.45 o
-2 9 1 1967.49 2139.27 9.83 o
-1 9 1 845.91 862.65 4.09 o
0 9 1 85.73 85.22 0.82 o
1 9 1 586.11 586.57 3.00 o
2 9 1 3122.84 3298.16 15.85 o
3 9 1 516.60 514.84 3.00 o
4 9 1 41.53 42.20 0.82 o
5 9 1 1583.46 1612.37 10.09 o
6 9 1 47.25 46.28 1.09 o
7 9 1 88.17 86.85 1.36 o
8 9 1 5.51 7.08 0.82 o
9 9 1 409.71 406.90 4.63 o
10 9 1 22.62 24.50 1.36 o
11 9 1 104.39 102.64 2.45 o
12 9 1 373.22 395.44 5.72 o
13 9 1 34.70 37.02 1.91 o
14 9 1 1.55 0.27 1.09 <
15 9 1 7.05 8.44 1.36 o
-18 10 1 56.27 53.90 1.36 o
-17 10 1 4.49 2.99 0.82 o
-16 10 1 3.17 4.63 0.82 o
-15 10 1 8.69 8.98 0.82 o
-14 10 1 142.56 141.31 1.63 o
-13 10 1 15.76 16.61 0.82 o
-12 10 1 0.58 2.45 0.54 o
-11 10 1 416.48 401.73 3.00 o
-10 10 1 22.21 24.23 0.54 o
-9 10 1 113.68 105.91 1.09 o
-8 10 1 2.48 3.27 0.27 o
-7 10 1 148.70 137.50 1.09 o
-6 10 1 20.46 20.96 0.54 o
-5 10 1 7.15 9.80 0.27 o
-4 10 1 1529.30 1520.37 6.82 o
-3 10 1 288.93 280.77 1.63 o
-2 10 1 5.86 5.99 0.27 o
-1 10 1 113.76 110.54 0.82 o
0 10 1 21.07 21.23 0.27 o
1 10 1 29.77 29.67 0.54 o
2 10 1 225.09 214.57 1.36 o
3 10 1 193.93 194.14 1.36 o
4 10 1 779.56 758.02 5.18 o
5 10 1 235.38 228.46 2.18 o
6 10 1 47.36 44.92 1.09 o
7 10 1 133.39 122.25 1.91 o
8 10 1 90.69 87.39 1.91 o
9 10 1 304.52 290.57 3.81 o
10 10 1 11.09 12.79 1.09 o
11 10 1 453.54 454.58 5.72 o
12 10 1 260.71 267.68 4.36 o
13 10 1 3.96 5.44 1.09 o
14 10 1 67.31 65.88 1.91 o
15 10 1 22.27 16.06 1.36 o
-18 11 1 280.65 268.25 2.45 o
-17 11 1 44.39 41.92 1.09 o
-16 11 1 155.32 154.38 2.18 o
-15 11 1 805.73 821.79 5.99 o
-14 11 1 16.07 18.51 0.82 o
-13 11 1 35.85 33.48 0.82 o
-12 11 1 197.04 188.70 1.63 o
-11 11 1 617.73 595.79 3.81 o
-10 11 1 117.71 116.53 1.36 o
-9 11 1 279.93 265.50 1.91 o
-8 11 1 1357.15 1351.25 7.09 o
-7 11 1 411.13 406.35 2.18 o
-6 11 1 0.91 3.54 0.27 o
-5 11 1 449.22 435.52 2.45 o
-4 11 1 173.16 172.90 1.36 o
-3 11 1 545.14 536.91 3.00 o
-2 11 1 0.04 1.36 0.27 o
-1 11 1 1568.27 1601.59 7.64 o
0 11 1 1352.53 1367.18 6.82 o
1 11 1 158.13 155.74 1.36 o
2 11 1 51.06 48.73 0.82 o
3 11 1 11.63 13.61 0.54 o
4 11 1 259.46 262.50 2.18 o
5 11 1 15.54 16.88 0.82 o
6 11 1 380.37 363.58 3.27 o
7 11 1 1264.26 1251.91 12.00 o
8 11 1 81.75 82.22 2.18 o
9 11 1 171.86 176.71 3.27 o
10 11 1 8.39 10.07 1.36 o
11 11 1 115.08 116.53 2.72 o
12 11 1 5.26 7.89 1.09 o
13 11 1 116.89 114.08 2.45 o
14 11 1 163.35 152.75 3.27 o
-18 12 1 99.76 98.56 4.36 o
-17 12 1 22.92 23.41 0.82 o
-16 12 1 2.68 3.54 0.82 o
-15 12 1 69.41 68.61 1.63 o
-14 12 1 534.14 547.24 4.09 o
-13 12 1 18.24 18.24 0.82 o
-12 12 1 46.08 46.01 1.09 o
-11 12 1 181.90 179.71 1.91 o
-10 12 1 0.94 2.18 0.54 o
-9 12 1 54.44 53.09 1.09 o
-8 12 1 466.31 456.49 3.00 o
-7 12 1 1270.07 1252.70 6.27 o
-6 12 1 489.89 478.57 2.72 o
-5 12 1 12.80 15.79 0.54 o
-4 12 1 1406.87 1447.62 7.63 o
-3 12 1 58.48 56.08 0.82 o
-2 12 1 639.48 636.94 3.27 o
-1 12 1 1022.05 1030.79 5.45 o
0 12 1 1077.99 1090.00 6.00 o
1 12 1 561.78 557.60 3.27 o
2 12 1 108.03 106.18 1.36 o
3 12 1 1239.29 1256.19 8.18 o
4 12 1 5.61 5.99 0.54 o
5 12 1 476.73 461.13 3.81 o
6 12 1 243.89 236.63 3.00 o
7 12 1 171.02 164.73 2.72 o
8 12 1 1.86 3.27 1.09 o
9 12 1 23.40 23.14 1.36 o
10 12 1 220.90 225.46 3.54 o
11 12 1 21.70 22.32 1.36 o
12 12 1 13.14 12.25 1.09 o
13 12 1 40.96 38.66 1.91 o
-17 13 1 26.32 28.86 1.09 o
-16 13 1 24.84 23.68 0.82 o
-15 13 1 11.56 13.61 0.82 o
-14 13 1 17.59 16.61 0.82 o
-13 13 1 403.75 400.90 3.00 o
-12 13 1 99.03 99.10 1.36 o
-11 13 1 22.43 21.78 0.82 o
-10 13 1 258.95 246.71 2.18 o
-9 13 1 31.13 29.40 0.82 o
-8 13 1 21.56 21.23 0.54 o
-7 13 1 50.51 49.55 0.82 o
-6 13 1 888.51 860.83 5.72 o
-5 13 1 43.27 42.74 0.82 o
-4 13 1 1.80 2.99 0.27 o
-3 13 1 188.43 183.25 1.36 o
-2 13 1 160.92 155.20 1.36 o
-1 13 1 34.58 34.30 0.82 o
0 13 1 18.31 19.60 0.54 o
1 13 1 407.59 397.36 3.00 o
2 13 1 425.76 411.26 3.27 o
3 13 1 522.78 500.92 4.09 o
4 13 1 104.74 97.20 1.91 o
5 13 1 245.78 235.54 3.00 o
6 13 1 67.30 69.97 1.91 o
7 13 1 185.64 162.83 3.00 o
8 13 1 2.73 2.99 1.09 <
9 13 1 326.30 328.43 4.36 o
10 13 1 277.28 279.12 3.81 o
11 13 1 19.03 19.60 1.36 o
12 13 1 172.81 168.27 3.27 o
13 13 1 90.67 83.86 2.45 o
-17 14 1 320.38 301.22 3.54 o
-16 14 1 55.58 57.44 1.36 o
-15 14 1 90.52 89.30 1.36 o
-14 14 1 486.71 493.27 3.81 o
-13 14 1 74.02 71.33 1.36 o
-12 14 1 0.73 1.63 0.54 o
-11 14 1 100.53 99.92 1.63 o
-10 14 1 928.37 911.05 6.27 o
-9 14 1 321.61 314.81 2.72 o
-8 14 1 28.53 26.13 0.82 o
-7 14 1 695.42 672.94 4.63 o
-6 14 1 1.00 4.36 0.54 o
-5 14 1 2.71 4.63 0.54 o
-4 14 1 0.71 2.45 0.54 o
-3 14 1 400.82 398.99 2.72 o
-2 14 1 1008.24 997.49 5.45 o
-1 14 1 0.32 1.09 0.54 <
0 14 1 604.84 595.77 4.09 o
1 14 1 196.82 189.51 1.91 o
2 14 1 189.25 182.97 2.45 o
3 14 1 9.86 11.71 0.82 o
4 14 1 60.92 62.62 1.91 o
5 14 1 558.65 551.35 5.99 o
6 14 1 61.15 62.89 2.18 o
7 14 1 403.85 416.70 4.90 o
8 14 1 231.41 230.91 3.27 o
9 14 1 56.79 54.18 1.91 o
10 14 1 7.59 7.89 1.09 o
11 14 1 12.02 11.43 1.36 o
12 14 1 90.44 85.49 2.45 o
-16 15 1 2.56 2.99 1.09 <
-15 15 1 20.37 21.23 1.09 o
-14 15 1 13.86 16.33 0.82 o
-13 15 1 254.48 254.06 2.45 o
-12 15 1 4.91 6.81 0.82 o
-11 15 1 75.89 77.05 1.36 o
-10 15 1 222.04 223.55 2.45 o
-9 15 1 40.64 42.47 1.36 o
-8 15 1 442.52 439.05 3.81 o
-7 15 1 11.39 12.25 0.82 o
-6 15 1 1048.88 1040.90 7.36 o
-5 15 1 68.47 68.33 1.36 o
-4 15 1 562.68 545.62 3.81 o
-3 15 1 339.84 339.32 2.72 o
-2 15 1 145.90 139.67 1.63 o
-1 15 1 317.83 317.80 3.00 o
0 15 1 174.60 174.26 2.18 o
1 15 1 570.16 563.06 5.18 o
2 15 1 219.26 211.30 3.00 o
3 15 1 7.95 7.08 0.82 o
4 15 1 471.63 470.12 5.45 o
5 15 1 9.93 9.26 1.09 o
6 15 1 228.67 229.27 3.27 o
7 15 1 0.31 0.54 1.09 <
8 15 1 51.37 45.19 1.91 o
9 15 1 43.29 46.01 1.91 o
10 15 1 3.41 3.81 1.09 o
11 15 1 115.21 113.81 2.72 o
-16 16 1 0.18 1.91 0.82 <
-15 16 1 205.92 201.22 2.45 o
-14 16 1 35.65 38.39 1.36 o
-13 16 1 8.62 8.17 0.82 o
-12 16 1 322.19 322.16 3.00 o
-11 16 1 26.71 26.41 1.09 o
-10 16 1 2.64 3.27 0.82 o
-9 16 1 41.53 40.02 1.36 o
-8 16 1 275.46 266.05 2.72 o
-7 16 1 97.23 96.11 1.63 o
-6 16 1 60.65 60.44 1.09 o
-5 16 1 873.89 857.85 6.27 o
-4 16 1 111.48 104.82 1.63 o
-3 16 1 24.35 25.86 0.82 o
-2 16 1 1.60 2.72 0.54 o
-1 16 1 85.29 81.40 1.63 o
0 16 1 141.66 134.77 2.18 o
1 16 1 199.46 192.78 3.00 o
2 16 1 301.17 299.28 3.81 o
3 16 1 299.05 270.42 4.08 o
4 16 1 167.00 164.73 3.27 o
5 16 1 0.16 1.91 1.09 <
6 16 1 28.57 26.13 1.36 o
7 16 1 180.74 177.25 3.00 o
8 16 1 197.55 194.68 3.27 o
9 16 1 70.17 67.52 2.18 o
10 16 1 228.14 222.20 4.36 o
-15 17 1 2.50 2.99 0.82 o
-14 17 1 30.81 32.40 1.09 o
-13 17 1 85.29 84.13 1.36 o
-12 17 1 386.34 390.00 3.27 o
-11 17 1 31.07 32.40 1.09 o
-10 17 1 62.53 65.61 1.63 o
-9 17 1 464.83 470.93 4.09 o
-8 17 1 99.16 101.82 1.63 o
-7 17 1 14.82 14.97 0.82 o
-6 17 1 161.27 160.37 1.91 o
-5 17 1 85.36 86.03 1.36 o
-4 17 1 201.25 199.04 2.18 o
-3 17 1 19.59 19.60 0.82 o
-2 17 1 606.92 609.41 5.18 o
-1 17 1 314.01 310.18 3.27 o
0 17 1 18.46 17.15 1.09 o
1 17 1 0.89 2.72 1.09 <
2 17 1 8.29 9.53 1.09 o
3 17 1 112.04 117.89 2.72 o
4 17 1 17.65 17.15 1.36 o
5 17 1 197.91 198.77 3.27 o
6 17 1 427.54 432.78 5.72 o
7 17 1 45.02 45.74 2.18 o
8 17 1 25.33 25.86 1.63 o
9 17 1 6.28 5.99 1.36 o
-15 18 1 90.81 86.03 2.18 o
-14 18 1 28.91 31.31 1.09 o
-13 18 1 77.10 78.68 1.36 o
-12 18 1 18.82 18.24 0.82 o
-11 18 1 6.65 7.35 0.82 o
-10 18 1 164.66 170.44 1.91 o
-9 18 1 118.96 120.61 1.91 o
-8 18 1 210.93 209.66 2.18 o
-7 18 1 314.58 322.98 2.72 o
-6 18 1 14.51 13.88 0.82 o
-5 18 1 280.10 284.30 2.72 o
-4 18 1 6.86 7.62 0.82 o
-3 18 1 550.91 567.69 5.18 o
-2 18 1 231.21 232.54 2.72 o
-1 18 1 145.92 146.48 2.18 o
0 18 1 433.83 446.13 5.72 o
1 18 1 1.67 2.45 1.09 <
2 18 1 267.07 270.95 4.08 o
3 18 1 0.69 0.27 1.09 <
4 18 1 428.82 454.57 5.45 o
5 18 1 62.15 62.07 2.18 o
6 18 1 13.03 14.97 1.36 o
7 18 1 34.05 37.57 1.91 o
8 18 1 0.03 -2.18 1.09 <
-14 19 1 310.76 290.87 3.54 o
-13 19 1 64.35 65.88 1.36 o
-12 19 1 3.97 3.81 0.82 o
-11 19 1 135.74 135.86 1.63 o
-10 19 1 47.50 46.82 1.09 o
-9 19 1 16.93 17.97 0.82 o
-8 19 1 15.18 15.52 0.82 o
-7 19 1 523.07 518.63 3.81 o
-6 19 1 71.92 73.51 1.63 o
-5 19 1 31.83 34.85 1.36 o
-4 19 1 184.71 182.70 2.45 o
-3 19 1 6.75 8.71 1.09 o
-2 19 1 34.21 35.39 1.36 o
-1 19 1 16.43 17.97 1.09 o
0 19 1 242.71 251.88 3.81 o
1 19 1 254.04 258.96 3.81 o
2 19 1 260.33 266.59 4.36 o
3 19 1 149.19 154.10 2.99 o
4 19 1 55.68 53.36 2.18 o
5 19 1 86.47 89.84 2.45 o
6 19 1 112.33 114.08 2.72 o
7 19 1 11.38 7.89 1.36 o
-13 20 1 14.03 16.33 0.82 o
-12 20 1 24.25 24.77 0.82 o
-11 20 1 336.42 326.26 3.00 o
-10 20 1 81.62 82.76 1.63 o
-9 20 1 13.88 13.34 0.82 o
-8 20 1 170.93 172.08 2.18 o
-7 20 1 16.08 17.15 0.82 o
-6 20 1 11.88 15.24 1.09 o
-5 20 1 7.74 7.89 0.82 o
-4 20 1 100.38 102.10 1.91 o
-3 20 1 268.68 276.12 3.00 o
-2 20 1 1.05 2.45 0.82 <
-1 20 1 162.07 169.90 3.27 o
0 20 1 38.44 43.29 1.91 o
1 20 1 35.11 38.11 2.18 o
2 20 1 39.11 41.38 1.91 o
3 20 1 11.59 11.71 1.36 o
4 20 1 128.87 121.43 2.45 o
5 20 1 25.52 25.86 1.36 o
6 20 1 99.14 89.30 3.27 o
-12 21 1 136.86 128.52 1.91 o
-11 21 1 55.04 50.09 1.36 o
-10 21 1 0.26 -0.27 0.82 <
-9 21 1 297.56 292.74 2.72 o
-8 21 1 1.52 2.18 0.82 <
-7 21 1 166.66 164.46 2.45 o
-6 21 1 43.67 46.55 1.36 o
-5 21 1 479.97 494.90 4.63 o
-4 21 1 76.75 78.14 1.63 o
-3 21 1 2.70 4.63 0.82 o
-2 21 1 264.56 274.48 3.54 o
-1 21 1 77.74 78.14 1.91 o
0 21 1 101.10 102.91 2.18 o
1 21 1 131.91 134.77 2.45 o
2 21 1 69.16 65.07 2.18 o
3 21 1 92.46 96.65 2.45 o
4 21 1 3.87 5.99 1.36 o
-10 22 1 25.24 24.50 0.82 o
-9 22 1 198.44 196.87 2.18 o
-8 22 1 43.17 45.74 1.36 o
-7 22 1 55.74 56.63 1.63 o
-6 22 1 326.30 318.08 3.27 o
-5 22 1 31.61 34.03 1.36 o
-4 22 1 8.70 10.34 1.09 o
-3 22 1 7.78 7.35 1.09 o
-2 22 1 68.49 70.51 1.91 o
-1 22 1 80.95 83.58 2.18 o
0 22 1 129.77 132.60 2.99 o
1 22 1 146.70 152.75 3.00 o
2 22 1 81.44 81.40 2.45 o
-8 23 1 23.15 19.87 1.63 o
-7 23 1 11.65 13.88 1.36 o
-6 23 1 26.43 29.40 2.18 o
-5 23 1 9.99 10.62 1.91 o
-4 23 1 10.32 10.34 1.91 o
-3 23 1 130.20 133.14 3.27 o
-2 23 1 69.67 71.60 2.45 o
-1 23 1 0.03 0.00 1.36 <
0 23 1 14.06 14.70 1.36 o
1 -23 2 46.71 46.83 2.18 o
2 -23 2 22.13 23.41 1.63 o
3 -23 2 47.41 47.64 2.18 o
4 -23 2 70.28 65.88 2.99 o
5 -23 2 0.41 1.63 1.09 <
6 -23 2 3.27 4.36 1.36 o
7 -23 2 60.06 61.53 3.81 o
-2 -22 2 36.61 38.39 2.18 o
-1 -22 2 171.23 176.71 3.81 o
0 -22 2 241.48 238.54 3.81 o
1 -22 2 3.13 3.54 1.09 o
2 -22 2 19.13 20.15 1.09 o
3 -22 2 3.93 4.90 1.09 o
4 -22 2 99.49 93.93 2.18 o
5 -22 2 0.18 -1.09 0.82 <
6 -22 2 74.19 72.15 1.91 o
7 -22 2 343.79 330.35 3.81 o
8 -22 2 5.25 6.26 1.09 o
9 -22 2 13.65 13.07 1.09 o
10 -22 2 49.65 48.19 2.72 o
-4 -21 2 422.43 394.97 7.90 o
-3 -21 2 4.78 5.99 1.36 o
-2 -21 2 113.69 112.99 2.45 o
-1 -21 2 26.81 24.77 1.36 o
0 -21 2 203.20 209.93 3.54 o
1 -21 2 107.32 111.08 2.99 o
2 -21 2 34.94 39.75 2.18 o
3 -21 2 530.92 560.03 6.81 o
4 -21 2 2.04 4.63 0.82 o
5 -21 2 102.04 102.64 1.91 o
6 -21 2 28.90 32.12 1.09 o
7 -21 2 106.48 115.17 1.91 o
8 -21 2 62.58 62.89 1.63 o
9 -21 2 19.07 18.78 1.09 o
10 -21 2 149.52 151.11 2.18 o
11 -21 2 2.96 4.08 1.09 o
-5 -20 2 54.16 54.99 3.27 o
-4 -20 2 0.23 2.99 1.36 <
-3 -20 2 93.87 99.10 2.45 o
-2 -20 2 10.81 11.16 1.36 o
-1 -20 2 3.38 3.27 1.09 o
0 -20 2 7.49 7.08 1.36 o
1 -20 2 112.24 113.26 2.45 o
2 -20 2 280.64 292.46 4.08 o
3 -20 2 1.24 3.54 1.09 o
4 -20 2 95.20 100.73 1.91 o
5 -20 2 174.29 182.43 2.45 o
6 -20 2 91.16 92.84 1.63 o
7 -20 2 68.11 69.97 1.36 o
8 -20 2 23.43 24.50 0.82 o
9 -20 2 214.84 216.20 2.45 o
10 -20 2 84.02 83.04 1.63 o
11 -20 2 1.55 2.99 0.82 o
12 -20 2 287.79 280.51 3.00 o
-6 -19 2 0.28 -3.81 1.91 <
-5 -19 2 0.16 1.91 1.36 <
-4 -19 2 19.35 20.42 1.36 o
-3 -19 2 146.43 147.30 2.99 o
-2 -19 2 300.68 305.27 4.63 o
-1 -19 2 77.68 78.95 2.45 o
0 -19 2 132.69 132.87 2.72 o
1 -19 2 144.49 145.94 2.99 o
2 -19 2 34.23 37.30 1.91 o
3 -19 2 4.21 5.99 1.09 o
4 -19 2 29.23 30.22 1.09 o
5 -19 2 407.59 416.97 3.54 o
6 -19 2 1.17 2.99 0.82 o
7 -19 2 163.11 166.63 1.91 o
8 -19 2 357.65 357.58 3.27 o
9 -19 2 26.59 25.86 1.09 o
10 -19 2 0.17 0.54 0.82 <
11 -19 2 22.93 24.77 1.09 o
12 -19 2 130.23 132.05 1.63 o
13 -19 2 0.07 1.09 0.82 <
-7 -18 2 1.47 1.09 2.99 <
-6 -18 2 319.16 310.72 4.90 o
-5 -18 2 3.75 4.36 1.36 o
-4 -18 2 167.18 163.37 3.00 o
-3 -18 2 84.34 81.40 2.45 o
-2 -18 2 153.49 150.29 2.72 o
-1 -18 2 376.95 379.10 4.63 o
0 -18 2 103.74 103.73 2.72 o
1 -18 2 252.01 258.42 4.08 o
2 -18 2 64.68 68.33 1.91 o
3 -18 2 60.33 57.99 1.63 o
4 -18 2 558.21 576.68 4.63 o
5 -18 2 26.05 26.95 1.09 o
6 -18 2 394.77 403.90 3.54 o
7 -18 2 3.77 5.44 0.82 o
8 -18 2 196.73 205.85 2.45 o
9 -18 2 30.41 28.31 1.09 o
10 -18 2 8.25 8.71 0.82 o
11 -18 2 116.72 120.88 1.91 o
12 -18 2 4.86 5.44 0.82 o
13 -18 2 88.83 90.39 1.63 o
14 -18 2 7.66 8.44 0.82 o
-7 -17 2 121.42 125.24 3.54 o
-6 -17 2 1.52 2.45 1.36 <
-5 -17 2 357.32 357.58 4.63 o
-4 -17 2 117.47 118.98 2.45 o
-3 -17 2 13.71 13.07 1.36 o
-2 -17 2 83.26 83.31 2.18 o
-1 -17 2 94.40 93.38 2.45 o
0 -17 2 352.22 309.65 4.09 o
1 -17 2 59.57 60.17 1.63 o
2 -17 2 313.66 319.17 3.27 o
3 -17 2 240.27 239.90 2.45 o
4 -17 2 21.76 23.68 0.82 o
5 -17 2 17.76 17.69 0.82 o
6 -17 2 101.33 104.82 1.91 o
7 -17 2 349.30 354.58 3.27 o
8 -17 2 195.15 197.95 2.18 o
9 -17 2 173.05 172.35 2.18 o
10 -17 2 577.97 585.13 4.63 o
11 -17 2 95.86 100.73 1.63 o
12 -17 2 0.23 0.54 0.82 <
13 -17 2 138.84 138.58 1.91 o
14 -17 2 264.68 261.42 2.45 o
15 -17 2 107.74 101.83 2.18 o
-8 -16 2 27.70 31.85 2.18 o
-7 -16 2 60.63 60.44 2.45 o
-6 -16 2 83.78 84.67 2.45 o
-5 -16 2 42.94 43.01 1.91 o
-4 -16 2 97.23 97.19 2.18 o
-3 -16 2 73.84 73.23 2.18 o
-2 -16 2 420.04 409.90 4.90 o
-1 -16 2 538.42 517.01 5.72 o
0 -16 2 1.15 2.99 0.82 o
1 -16 2 32.50 34.57 1.09 o
2 -16 2 4.70 5.72 0.54 o
3 -16 2 169.42 161.46 1.91 o
4 -16 2 21.73 21.78 0.82 o
5 -16 2 129.66 128.24 1.63 o
6 -16 2 762.17 741.67 5.45 o
7 -16 2 16.49 15.52 0.82 o
8 -16 2 31.38 32.94 1.09 o
9 -16 2 58.63 58.80 1.63 o
10 -16 2 188.56 187.06 2.45 o
11 -16 2 1.50 3.27 0.82 o
12 -16 2 119.01 122.52 1.91 o
13 -16 2 216.73 215.93 2.45 o
14 -16 2 0.29 0.00 0.82 <
15 -16 2 71.12 66.97 1.36 o
16 -16 2 35.26 31.04 3.27 o
-10 -15 2 189.35 173.17 5.17 o
-9 -15 2 0.23 -0.27 1.91 <
-8 -15 2 4.33 1.63 1.36 <
-7 -15 2 120.84 114.35 2.18 o
-6 -15 2 99.65 98.28 2.18 o
-5 -15 2 687.59 701.55 6.81 o
-4 -15 2 29.08 28.04 1.09 o
-3 -15 2 591.64 577.25 6.27 o
-2 -15 2 5.11 6.26 0.82 o
-1 -15 2 196.73 186.79 3.00 o
0 -15 2 713.47 707.83 7.36 o
1 -15 2 281.10 273.67 2.72 o
2 -15 2 803.98 813.90 5.72 o
3 -15 2 12.42 14.16 0.82 o
4 -15 2 502.75 498.73 3.81 o
5 -15 2 2.16 2.72 0.54 o
6 -15 2 147.85 147.84 1.63 o
7 -15 2 593.94 585.69 4.63 o
8 -15 2 138.70 137.49 1.63 o
9 -15 2 85.31 83.58 1.63 o
10 -15 2 3.51 5.99 0.82 o
11 -15 2 8.51 8.98 0.82 o
12 -15 2 46.49 48.19 1.63 o
13 -15 2 0.00 0.00 0.82 <
14 -15 2 235.01 235.26 2.72 o
15 -15 2 65.92 62.62 1.36 o
16 -15 2 1.82 -0.27 0.82 <
-11 -14 2 98.49 86.03 2.99 o
-10 -14 2 13.21 13.88 1.63 o
-9 -14 2 63.92 65.88 2.18 o
-8 -14 2 38.27 38.66 1.63 o
-7 -14 2 648.76 644.31 5.18 o
-6 -14 2 186.04 189.78 2.45 o
-5 -14 2 7.76 10.07 0.82 o
-4 -14 2 396.85 391.37 4.09 o
-3 -14 2 16.09 17.97 0.82 o
-2 -14 2 14.24 15.52 0.82 o
-1 -14 2 1.73 1.09 0.82 <
0 -14 2 547.45 527.63 4.09 o
1 -14 2 876.88 855.92 5.18 o
2 -14 2 30.66 31.58 0.82 o
3 -14 2 448.09 438.23 2.72 o
4 -14 2 383.35 372.84 2.45 o
5 -14 2 404.60 392.73 2.45 o
6 -14 2 96.22 92.02 1.36 o
7 -14 2 186.85 184.61 1.91 o
8 -14 2 744.68 746.01 5.45 o
9 -14 2 269.62 270.95 2.72 o
10 -14 2 43.87 44.65 1.36 o
11 -14 2 582.46 585.69 4.63 o
12 -14 2 280.48 282.12 2.72 o
13 -14 2 13.85 14.43 0.82 o
14 -14 2 0.41 0.54 0.82 <
15 -14 2 340.09 341.78 3.27 o
16 -14 2 213.38 211.03 3.00 o
-12 -13 2 107.58 107.82 2.99 o
-11 -13 2 377.00 367.12 4.90 o
-10 -13 2 72.74 71.33 2.45 o
-9 -13 2 140.43 134.23 2.72 o
-8 -13 2 181.57 172.35 2.18 o
-7 -13 2 5.90 5.17 0.82 o
-6 -13 2 6.00 7.62 0.82 o
-5 -13 2 20.12 19.60 0.82 o
-4 -13 2 485.61 470.94 4.09 o
-3 -13 2 350.92 333.07 3.00 o
-2 -13 2 84.20 79.22 1.36 o
-1 -13 2 59.92 60.98 1.09 o
0 -13 2 179.23 166.36 1.63 o
1 -13 2 8.84 8.98 0.54 o
2 -13 2 6.38 7.89 0.54 o
3 -13 2 98.91 95.83 1.09 o
4 -13 2 736.82 711.92 3.81 o
5 -13 2 47.86 50.64 0.82 o
6 -13 2 156.95 149.75 1.36 o
7 -13 2 425.38 401.73 2.72 o
8 -13 2 1.77 3.27 0.54 o
9 -13 2 25.59 25.05 0.82 o
10 -13 2 31.39 31.85 0.82 o
11 -13 2 256.39 235.00 2.18 o
12 -13 2 15.21 17.97 0.82 o
13 -13 2 106.92 107.81 1.63 o
14 -13 2 168.98 169.08 1.91 o
15 -13 2 15.83 15.24 0.82 o
16 -13 2 6.32 9.53 0.82 o
17 -13 2 9.55 12.25 1.36 o
-13 -12 2 7.00 8.71 1.36 o
-12 -12 2 175.34 178.89 3.00 o
-11 -12 2 1.12 1.63 1.09 <
-10 -12 2 9.07 9.80 1.09 o
-9 -12 2 484.33 492.46 5.45 o
-8 -12 2 3.02 3.27 0.82 o
-7 -12 2 254.85 245.89 2.72 o
-6 -12 2 45.18 44.37 1.36 o
-5 -12 2 810.84 799.73 6.27 o
-4 -12 2 17.35 18.51 0.82 o
-3 -12 2 214.18 194.96 1.63 o
-2 -12 2 1696.27 1709.09 10.91 o
-1 -12 2 293.44 281.03 2.45 o
0 -12 2 156.27 151.11 1.36 o
1 -12 2 475.03 474.75 2.72 o
2 -12 2 509.86 500.64 2.72 o
3 -12 2 727.55 733.17 3.81 o
4 -12 2 16.32 16.06 0.54 o
5 -12 2 1982.70 2023.16 10.64 o
6 -12 2 13.66 14.16 0.54 o
7 -12 2 152.85 153.29 1.36 o
8 -12 2 236.41 231.45 1.63 o
9 -12 2 147.56 145.66 1.36 o
10 -12 2 34.01 36.75 0.82 o
11 -12 2 27.27 29.67 0.82 o
12 -12 2 539.73 545.34 3.54 o
13 -12 2 24.01 25.86 0.82 o
14 -12 2 3.37 4.08 0.54 o
15 -12 2 11.39 11.16 0.54 o
16 -12 2 0.42 1.36 0.82 <
17 -12 2 0.70 0.00 1.09 <
-14 -11 2 8.25 8.17 1.36 o
-13 -11 2 281.23 270.41 3.81 o
-12 -11 2 24.93 26.41 1.63 o
-11 -11 2 6.13 8.71 1.09 o
-10 -11 2 51.63 49.00 1.91 o
-9 -11 2 331.95 332.79 3.81 o
-8 -11 2 311.54 305.28 3.00 o
-7 -11 2 5.88 5.44 0.82 o
-6 -11 2 1130.17 1111.86 8.45 o
-5 -11 2 250.39 250.79 2.45 o
-4 -11 2 4.24 5.44 0.54 o
-3 -11 2 147.23 143.49 1.36 o
-2 -11 2 447.19 427.61 2.72 o
-1 -11 2 756.30 741.66 4.63 o
0 -11 2 88.16 87.12 0.82 o
1 -11 2 915.79 911.05 4.63 o
2 -11 2 764.60 758.30 3.81 o
3 -11 2 250.68 245.89 1.63 o
4 -11 2 96.27 91.75 0.82 o
5 -11 2 42.98 40.84 0.82 o
6 -11 2 792.03 786.63 4.36 o
7 -11 2 530.34 512.09 2.72 o
8 -11 2 355.34 342.60 2.18 o
9 -11 2 1397.35 1373.96 7.09 o
10 -11 2 284.45 278.58 2.18 o
11 -11 2 28.47 29.67 0.82 o
12 -11 2 133.56 132.87 1.63 o
13 -11 2 643.98 654.93 4.36 o
14 -11 2 318.62 322.43 2.45 o
15 -11 2 86.40 89.03 1.36 o
16 -11 2 327.49 324.89 2.72 o
17 -11 2 129.12 133.41 1.91 o
-15 -10 2 86.21 78.96 2.99 o
-14 -10 2 25.67 23.96 1.36 o
-13 -10 2 212.51 212.39 3.54 o
-12 -10 2 4.49 5.72 1.09 o
-11 -10 2 193.18 188.42 3.27 o
-10 -10 2 332.75 333.06 4.08 o
-9 -10 2 0.17 2.45 0.82 <
-8 -10 2 133.49 121.16 1.91 o
-7 -10 2 14.90 14.43 0.82 o
-6 -10 2 138.46 130.69 1.63 o
-5 -10 2 1.41 2.18 0.54 o
-4 -10 2 97.76 87.39 0.82 o
-3 -10 2 564.84 550.26 3.00 o
-2 -10 2 753.69 730.23 4.09 o
-1 -10 2 4.06 5.44 0.27 o
0 -10 2 4.40 5.44 0.27 o
1 -10 2 131.66 123.88 0.82 o
2 -10 2 37.53 35.66 0.54 o
3 -10 2 267.13 266.05 1.63 o
4 -10 2 32.24 33.48 0.54 o
5 -10 2 1180.50 1141.71 5.45 o
6 -10 2 70.18 61.26 0.82 o
7 -10 2 0.64 2.45 0.27 o
8 -10 2 26.17 26.41 0.54 o
9 -10 2 186.96 183.25 1.36 o
10 -10 2 118.27 114.35 1.36 o
11 -10 2 75.80 71.60 1.09 o
12 -10 2 156.14 156.56 1.63 o
13 -10 2 0.88 1.63 0.54 o
14 -10 2 37.87 38.11 1.09 o
15 -10 2 39.47 40.29 1.09 o
16 -10 2 0.82 1.63 0.82 <
17 -10 2 17.82 18.51 0.82 o
18 -10 2 94.00 88.76 2.45 o
-15 -9 2 0.36 -0.27 1.09 <
-14 -9 2 75.86 84.94 2.18 o
-13 -9 2 10.36 9.53 1.09 o
-12 -9 2 28.32 28.86 1.36 o
-11 -9 2 668.60 686.55 7.08 o
-10 -9 2 2.87 4.08 0.82 o
-9 -9 2 47.08 49.28 1.63 o
-8 -9 2 492.14 478.03 4.09 o
-7 -9 2 374.50 363.85 3.00 o
-6 -9 2 680.78 666.65 4.09 o
-5 -9 2 44.55 38.93 0.54 o
-4 -9 2 2614.35 2676.68 13.11 o
-3 -9 2 36.70 38.11 0.54 o
-2 -9 2 152.38 133.69 1.09 o
-1 -9 2 2910.24 3026.01 14.48 o
0 -9 2 1344.82 1363.08 6.55 o
1 -9 2 1043.97 1064.57 4.91 o
2 -9 2 97.90 95.84 0.82 o
3 -9 2 3101.69 3313.51 15.04 o
4 -9 2 31.91 28.04 0.54 o
5 -9 2 76.37 74.32 0.54 o
6 -9 2 2109.12 2134.83 9.55 o
7 -9 2 595.65 593.87 3.00 o
8 -9 2 12.55 14.97 0.54 o
9 -9 2 4.15 4.90 0.54 o
10 -9 2 213.11 212.39 1.63 o
11 -9 2 11.96 13.34 0.54 o
12 -9 2 63.33 62.07 1.09 o
13 -9 2 792.36 691.83 4.90 o
14 -9 2 56.09 56.63 1.09 o
15 -9 2 12.73 13.34 0.82 o
16 -9 2 9.75 10.62 0.82 o
17 -9 2 69.52 68.88 1.36 o
18 -9 2 14.13 15.79 0.82 o
-16 -8 2 0.09 0.27 1.09 <
-15 -8 2 318.42 323.80 4.36 o
-14 -8 2 115.46 115.44 2.45 o
-13 -8 2 10.60 11.43 1.36 o
-12 -8 2 173.42 171.81 3.00 o
-11 -8 2 32.85 34.03 1.63 o
-10 -8 2 202.78 200.68 2.72 o
-9 -8 2 22.16 23.68 1.09 o
-8 -8 2 1374.65 1342.83 8.72 o
-7 -8 2 154.24 151.38 1.36 o
-6 -8 2 9.80 11.16 0.54 o
-5 -8 2 661.77 656.31 3.54 o
-4 -8 2 52.07 54.45 0.54 o
-3 -8 2 85.29 81.13 0.82 o
-2 -8 2 0.79 2.45 0.27 o
-1 -8 2 2219.03 2328.21 11.47 o
0 -8 2 1627.76 1673.37 7.64 o
1 -8 2 232.27 234.20 1.36 o
2 -8 2 697.40 722.16 3.54 o
3 -8 2 1051.64 1072.86 4.91 o
4 -8 2 883.90 897.01 4.36 o
5 -8 2 153.81 145.67 0.82 o
6 -8 2 706.83 696.43 3.54 o
7 -8 2 1629.66 1629.49 7.64 o
8 -8 2 917.02 908.30 4.36 o
9 -8 2 20.30 22.05 0.54 o
10 -8 2 781.70 774.08 4.36 o
11 -8 2 377.53 361.40 2.72 o
12 -8 2 18.35 18.24 0.82 o
13 -8 2 0.31 0.54 0.54 <
14 -8 2 674.77 686.28 4.36 o
15 -8 2 484.02 487.28 3.54 o
16 -8 2 94.33 96.11 1.63 o
17 -8 2 287.05 287.57 2.72 o
18 -8 2 100.22 100.74 1.63 o
-16 -7 2 17.83 19.87 1.36 o
-15 -7 2 53.62 53.36 1.91 o
-14 -7 2 78.47 77.86 2.45 o
-13 -7 2 64.28 66.43 2.18 o
-12 -7 2 485.07 491.92 5.99 o
-11 -7 2 1.34 2.99 0.82 o
-10 -7 2 272.14 261.96 3.27 o
-9 -7 2 46.68 44.65 1.36 o
-8 -7 2 65.01 63.43 1.09 o
-7 -7 2 182.56 170.18 1.36 o
-6 -7 2 4.00 6.26 0.27 o
-5 -7 2 850.59 838.25 4.09 o
-4 -7 2 90.96 90.39 0.82 o
-3 -7 2 205.73 193.34 1.36 o
-2 -7 2 72.43 66.16 0.54 o
-1 -7 2 164.91 160.38 1.09 o
0 -7 2 80.78 82.22 0.54 o
1 -7 2 36.67 46.83 0.54 o
2 -7 2 168.52 165.29 1.09 o
3 -7 2 655.21 646.95 3.00 o
4 -7 2 352.86 355.44 1.91 o
5 -7 2 0.09 1.09 0.27 o
6 -7 2 476.37 473.70 2.45 o
7 -7 2 85.68 79.23 0.82 o
8 -7 2 312.53 305.82 1.63 o
9 -7 2 24.11 22.32 0.54 o
10 -7 2 145.40 142.94 1.36 o
11 -7 2 92.70 92.29 1.36 o
12 -7 2 11.54 12.79 0.54 o
13 -7 2 98.19 97.47 1.36 o
14 -7 2 107.45 104.00 1.63 o
15 -7 2 14.91 14.43 0.82 o
16 -7 2 5.45 5.72 0.82 o
17 -7 2 9.71 10.07 0.82 o
18 -7 2 2.28 1.63 0.54 o
-17 -6 2 150.38 139.14 5.72 o
-16 -6 2 1.14 0.54 1.09 <
-15 -6 2 0.15 -0.27 1.09 <
-14 -6 2 9.80 9.53 1.36 o
-13 -6 2 438.16 463.57 5.72 o
-12 -6 2 73.09 68.33 2.18 o
-11 -6 2 5.60 5.17 0.82 o
-10 -6 2 1432.75 1427.75 12.00 o
-9 -6 2 77.61 77.32 1.36 o
-8 -6 2 130.50 129.05 1.36 o
-7 -6 2 51.76 46.01 0.82 o
-6 -6 2 2133.64 2216.30 11.19 o
-5 -6 2 11.16 14.16 0.27 o
-4 -6 2 509.15 469.11 2.72 o
-3 -6 2 7725.83 8088.81 41.60 o
-2 -6 2 1551.15 1602.20 8.46 o
-1 -6 2 28.64 24.50 0.27 o
0 -6 2 1253.10 1339.30 6.82 o
1 -6 2 2739.90 2970.20 14.50 o
2 -6 2 2438.94 2543.97 12.31 o
3 -6 2 107.14 109.46 0.82 o
4 -6 2 8712.51 9192.53 41.42 o
5 -6 2 79.21 80.04 0.54 o
6 -6 2 1.37 1.91 0.27 o
7 -6 2 656.85 665.88 3.00 o
8 -6 2 1046.95 1042.58 4.91 o
9 -6 2 28.73 28.86 0.54 o
10 -6 2 80.20 81.95 1.09 o
11 -6 2 1292.01 1286.00 6.82 o
12 -6 2 77.65 79.22 1.09 o
13 -6 2 96.98 98.56 1.36 o
14 -6 2 80.34 80.31 1.36 o
15 -6 2 66.31 68.61 1.63 o
16 -6 2 25.62 24.23 1.09 o
17 -6 2 36.77 38.66 1.09 o
18 -6 2 86.57 85.22 1.36 o
-17 -5 2 135.19 135.32 3.00 o
-16 -5 2 151.50 146.48 2.99 o
-15 -5 2 18.81 19.06 1.36 o
-14 -5 2 369.45 379.37 4.90 o
-13 -5 2 5.72 5.99 1.09 o
-12 -5 2 13.24 12.79 1.09 o
-11 -5 2 8.33 10.62 0.82 o
-10 -5 2 399.02 391.37 3.54 o
-9 -5 2 305.23 294.38 2.45 o
-8 -5 2 26.53 28.58 0.82 o
-7 -5 2 2025.87 2059.79 11.46 o
-6 -5 2 283.42 279.13 1.63 o
-5 -5 2 25.96 25.59 0.54 o
-4 -5 2 28.39 30.22 0.54 o
-3 -5 2 1394.08 1440.30 7.64 o
-2 -5 2 879.88 896.05 4.64 o
-1 -5 2 80.93 75.69 0.54 o
0 -5 2 2033.18 2139.48 9.84 o
1 -5 2 2232.00 2386.72 11.49 o
2 -5 2 1177.85 1200.82 5.73 o
3 -5 2 73.11 85.49 0.54 o
4 -5 2 4.34 5.72 0.27 o
5 -5 2 857.59 896.59 3.82 o
6 -5 2 1329.20 1326.94 6.00 o
7 -5 2 272.97 275.32 1.63 o
8 -5 2 2479.65 2529.88 11.47 o
9 -5 2 493.74 480.21 2.45 o
10 -5 2 23.16 24.23 0.54 o
11 -5 2 98.30 98.56 1.09 o
12 -5 2 708.69 701.56 4.63 o
13 -5 2 699.24 685.49 4.63 o
14 -5 2 55.81 53.90 1.36 o
15 -5 2 398.95 404.17 3.54 o
16 -5 2 141.36 145.66 1.91 o
17 -5 2 2.22 2.18 0.54 o
18 -5 2 112.59 112.44 1.63 o
-17 -4 2 62.26 63.16 2.18 o
-16 -4 2 248.98 251.61 3.81 o
-15 -4 2 0.41 -0.54 1.09 <
-14 -4 2 276.10 282.39 3.81 o
-13 -4 2 42.55 41.38 1.91 o
-12 -4 2 175.91 173.99 2.72 o
-11 -4 2 122.43 119.79 1.91 o
-10 -4 2 99.91 95.56 1.36 o
-9 -4 2 604.07 592.23 3.81 o
-8 -4 2 22.33 23.14 0.54 o
-7 -4 2 197.59 196.87 1.36 o
-6 -4 2 197.92 188.43 1.36 o
-5 -4 2 27.71 27.77 0.54 o
-4 -4 2 469.74 465.61 2.72 o
-3 -4 2 387.42 387.39 2.18 o
-2 -4 2 457.91 455.62 2.45 o
-1 -4 2 971.63 1021.35 4.91 o
0 -4 2 327.77 347.65 1.63 o
1 -4 2 160.32 151.69 0.82 o
2 -4 2 1737.96 1860.58 8.47 o
3 -4 2 40.05 47.92 0.54 o
4 -4 2 936.98 922.61 4.64 o
5 -4 2 463.77 432.63 2.18 o
6 -4 2 546.92 561.24 2.72 o
7 -4 2 89.70 91.75 0.82 o
8 -4 2 22.60 24.23 0.54 o
9 -4 2 359.23 356.49 2.18 o
10 -4 2 12.57 13.34 0.54 o
11 -4 2 23.68 25.05 0.54 o
12 -4 2 2.85 3.27 0.54 o
13 -4 2 27.69 26.41 0.82 o
14 -4 2 39.73 42.47 1.36 o
15 -4 2 91.47 90.93 1.63 o
16 -4 2 81.51 82.76 1.63 o
17 -4 2 50.40 50.36 1.36 o
18 -4 2 0.75 1.36 0.54 <
-17 -3 2 11.76 10.62 1.09 o
-16 -3 2 6.91 8.98 1.09 o
-15 -3 2 227.92 241.25 3.27 o
-14 -3 2 78.60 76.23 1.91 o
-13 -3 2 1.22 3.81 0.82 o
-12 -3 2 1144.20 1175.15 9.00 o
-11 -3 2 0.30 1.91 0.54 o
-10 -3 2 149.13 140.49 1.36 o
-9 -3 2 1083.73 1097.63 6.27 o
-8 -3 2 868.69 886.47 4.36 o
-7 -3 2 496.25 494.13 2.45 o
-6 -3 2 1.63 2.72 0.27 o
-5 -3 2 7786.64 8272.69 39.42 o
-4 -3 2 4.65 4.63 0.27 o
-3 -3 2 255.76 265.57 1.36 o
-2 -3 2 9173.59 9307.44 46.23 o
-1 -3 2 4379.88 4728.09 23.70 o
0 -3 2 1151.18 1304.90 6.28 o
1 -3 2 251.49 285.50 1.36 o
2 -3 2 16788.90 16493.60 74.82 o
3 -3 2 12.09 15.24 0.27 o
4 -3 2 2.38 2.99 0.27 o
5 -3 2 4213.52 4539.95 20.84 o
6 -3 2 1485.58 1511.33 6.55 o
7 -3 2 1.14 2.18 0.27 o
8 -3 2 82.85 79.77 0.82 o
9 -3 2 967.83 996.12 4.91 o
10 -3 2 5.03 7.08 0.54 o
11 -3 2 376.67 374.20 2.45 o
12 -3 2 1165.97 1188.24 8.18 o
13 -3 2 19.73 20.15 0.82 o
14 -3 2 26.48 26.95 1.09 o
15 -3 2 4.91 5.17 0.82 o
16 -3 2 190.60 195.77 2.18 o
17 -3 2 56.74 53.63 1.36 o
18 -3 2 191.99 198.23 2.72 o
-18 -2 2 59.41 55.54 2.18 o
-17 -2 2 5.66 4.90 1.09 o
-16 -2 2 264.11 266.32 3.00 o
-15 -2 2 83.38 85.21 1.91 o
-14 -2 2 31.15 32.94 1.36 o
-13 -2 2 90.50 87.39 1.63 o
-12 -2 2 56.94 60.17 1.36 o
-11 -2 2 109.77 106.72 1.36 o
-10 -2 2 0.84 1.91 0.54 o
-9 -2 2 1401.63 1414.62 6.82 o
-8 -2 2 43.10 43.56 0.54 o
-7 -2 2 2.33 4.08 0.27 o
-6 -2 2 571.16 581.16 3.00 o
-5 -2 2 62.36 59.08 0.54 o
-4 -2 2 1.94 2.72 0.27 o
-3 -2 2 103.38 101.57 0.82 o
-2 -2 2 4792.43 5056.49 26.49 o
-1 -2 2 2095.39 2207.61 10.41 o
0 -2 2 283.28 270.85 1.36 o
1 -2 2 722.84 722.31 3.82 o
2 -2 2 2850.83 3043.07 13.45 o
3 -2 2 1096.27 1113.76 5.19 o
4 -2 2 783.46 779.60 3.82 o
5 -2 2 1193.71 1185.39 5.73 o
6 -2 2 1773.18 1853.84 8.74 o
7 -2 2 1339.21 1338.57 6.00 o
8 -2 2 36.51 32.67 0.54 o
9 -2 2 941.00 930.14 4.63 o
10 -2 2 267.78 257.88 1.91 o
11 -2 2 91.81 89.84 1.09 o
12 -2 2 7.09 8.17 0.54 o
13 -2 2 572.43 566.34 4.63 o
14 -2 2 616.03 623.31 4.36 o
15 -2 2 34.65 35.66 1.09 o
16 -2 2 280.86 284.29 2.72 o
17 -2 2 66.04 68.61 1.36 o
18 -2 2 32.85 32.94 1.36 o
-18 -1 2 180.59 179.71 3.00 o
-17 -1 2 7.81 5.99 0.82 o
-16 -1 2 93.46 99.10 1.91 o
-15 -1 2 386.56 389.18 3.81 o
-14 -1 2 22.95 25.05 1.09 o
-13 -1 2 281.10 282.93 2.72 o
-12 -1 2 42.48 43.01 1.09 o
-11 -1 2 456.69 456.49 3.00 o
-10 -1 2 8.71 9.80 0.54 o
-9 -1 2 333.86 329.52 1.91 o
-8 -1 2 1130.27 1135.98 5.45 o
-7 -1 2 251.57 243.45 1.36 o
-6 -1 2 397.12 396.33 2.18 o
-5 -1 2 49.07 50.37 0.54 o
-4 -1 2 1223.03 1272.78 7.37 o
-3 -1 2 987.96 1027.85 5.73 o
-2 -1 2 9.69 11.71 0.27 o
-1 -1 2 969.36 941.90 4.37 o
0 -1 2 1781.48 1794.83 8.50 o
1 -1 2 2.17 6.53 0.27 o
2 -1 2 10.89 15.52 0.27 o
3 -1 2 238.79 273.21 1.36 o
4 -1 2 449.45 464.87 2.45 o
5 -1 2 738.76 751.53 3.82 o
6 -1 2 392.99 391.15 1.91 o
7 -1 2 1494.25 1543.71 6.82 o
8 -1 2 7.48 8.98 0.27 o
9 -1 2 16.10 16.33 0.54 o
10 -1 2 93.75 94.74 1.09 o
11 -1 2 127.75 123.61 1.36 o
12 -1 2 91.12 89.57 1.36 o
13 -1 2 282.59 279.12 2.45 o
14 -1 2 108.43 107.00 1.63 o
15 -1 2 3.15 3.81 0.82 o
16 -1 2 18.57 19.60 0.82 o
17 -1 2 15.92 15.52 0.82 o
18 -1 2 2.40 4.90 0.82 o
-18 0 2 185.60 187.06 3.54 o
-17 0 2 15.86 18.51 0.82 o
-16 0 2 0.24 0.82 0.82 <
-15 0 2 21.48 24.23 1.09 o
-14 0 2 581.41 613.75 4.63 o
-13 0 2 158.97 156.56 1.91 o
-12 0 2 53.80 50.64 1.09 o
-11 0 2 2034.04 2101.03 10.91 o
-10 0 2 283.84 292.46 1.91 o
-9 0 2 100.38 103.73 0.82 o
-8 0 2 9.52 11.43 0.27 o
-7 0 2 3073.08 3373.44 16.13 o
-6 0 2 78.48 71.33 0.54 o
-5 0 2 845.65 831.08 4.36 o
-4 0 2 17794.40 17019.10 91.46 o
-3 0 2 5323.32 5690.22 30.66 o
-2 0 2 1225.93 1394.51 7.11 o
-1 0 2 790.39 822.12 4.37 o
0 0 2 5197.48 5146.63 23.89 o
1 0 2 7854.32 8046.07 38.35 o
2 0 2 476.76 546.61 2.73 o
3 0 2 20511.10 18780.50 86.18 o
4 0 2 173.76 183.82 1.09 o
5 0 2 129.42 129.88 0.82 o
6 0 2 730.48 767.99 3.54 o
7 0 2 2277.94 2346.23 10.92 o
8 0 2 93.74 86.58 0.82 o
9 0 2 119.09 119.25 1.09 o
10 0 2 1717.30 1768.59 9.82 o
11 0 2 89.48 86.85 1.36 o
12 0 2 209.07 210.21 2.18 o
13 0 2 101.42 103.73 1.63 o
14 0 2 181.67 183.79 1.91 o
15 0 2 28.53 26.95 0.82 o
16 0 2 75.93 73.78 1.36 o
17 0 2 114.34 110.54 1.91 o
18 0 2 16.59 14.70 1.36 o
-18 1 2 89.10 87.39 1.63 o
-17 1 2 58.22 55.81 1.63 o
-16 1 2 10.69 10.89 1.09 o
-15 1 2 147.96 148.93 1.91 o
-14 1 2 2.20 2.72 0.82 o
-13 1 2 96.79 96.11 1.36 o
-12 1 2 5.98 7.08 0.54 o
-11 1 2 312.42 319.16 2.18 o
-10 1 2 63.54 63.16 0.82 o
-9 1 2 26.43 27.77 0.54 o
-8 1 2 1197.52 1209.20 5.73 o
-7 1 2 189.80 184.35 1.09 o
-6 1 2 117.55 117.08 0.82 o
-5 1 2 14.90 13.88 0.27 o
-4 1 2 1707.60 1796.70 9.02 o
-3 1 2 361.88 356.97 1.91 o
-2 1 2 269.18 262.38 1.63 o
-1 1 2 901.50 875.93 4.64 o
0 1 2 1455.49 1446.83 6.84 o
1 1 2 230.76 240.84 1.36 o
2 1 2 30.04 25.05 0.27 o
3 1 2 190.86 205.08 1.09 o
4 1 2 403.80 413.03 2.18 o
5 1 2 1878.53 1918.59 9.01 o
6 1 2 72.65 75.41 0.54 o
7 1 2 1878.72 1911.72 8.73 o
8 1 2 250.80 238.00 1.63 o
9 1 2 50.22 50.09 0.82 o
10 1 2 228.74 226.55 1.91 o
11 1 2 340.81 323.26 2.45 o
12 1 2 786.81 782.55 5.18 o
13 1 2 8.28 8.44 0.54 o
14 1 2 278.81 280.76 2.72 o
15 1 2 90.97 94.74 1.36 o
16 1 2 26.86 29.95 1.09 o
17 1 2 137.01 138.59 1.91 o
-18 2 2 92.23 94.20 1.63 o
-17 2 2 476.65 484.28 4.63 o
-16 2 2 15.72 15.52 1.09 o
-15 2 2 257.11 268.77 2.45 o
-14 2 2 237.07 233.91 2.45 o
-13 2 2 115.03 120.88 1.63 o
-12 2 2 6.77 8.17 0.54 o
-11 2 2 299.98 295.19 2.18 o
-10 2 2 1615.80 1643.50 8.18 o
-9 2 2 91.96 92.02 0.82 o
-8 2 2 119.96 123.06 1.09 o
-7 2 2 656.93 665.13 3.27 o
-6 2 2 38.87 36.75 0.54 o
-5 2 2 22.90 22.32 0.27 o
-4 2 2 54.54 53.63 0.54 o
-3 2 2 3930.88 4155.15 21.73 o
-2 2 2 3566.33 3730.00 18.99 o
-1 2 2 2.70 4.08 0.27 o
0 2 2 516.36 493.58 2.45 o
1 2 2 3185.82 3380.90 15.94 o
2 2 2 266.86 274.60 1.36 o
3 2 2 2.35 3.54 0.27 o
4 2 2 1514.39 1519.05 7.37 o
5 2 2 2645.69 2778.93 12.58 o
6 2 2 463.65 454.92 2.45 o
7 2 2 54.67 58.80 0.54 o
8 2 2 388.39 392.18 2.45 o
9 2 2 2.05 5.17 0.27 o
10 2 2 16.23 18.51 0.54 o
11 2 2 10.03 11.43 0.54 o
12 2 2 359.01 351.05 2.72 o
13 2 2 65.48 59.08 1.36 o
14 2 2 361.15 365.21 3.00 o
15 2 2 106.64 105.91 1.63 o
16 2 2 6.92 7.62 0.82 o
17 2 2 12.57 12.52 0.82 o
-18 3 2 16.46 13.34 0.82 o
-17 3 2 0.91 2.45 0.82 <
-16 3 2 261.39 273.94 2.45 o
-15 3 2 70.36 72.42 1.36 o
-14 3 2 1.23 4.36 0.54 o
-13 3 2 1097.14 1135.83 7.90 o
-12 3 2 1.64 4.36 0.54 o
-11 3 2 182.35 173.17 1.63 o
-10 3 2 893.14 901.18 4.91 o
-9 3 2 981.43 1012.24 4.91 o
-8 3 2 537.84 538.29 2.45 o
-7 3 2 14.05 18.51 0.27 o
-6 3 2 7641.13 8167.56 37.48 o
-5 3 2 6.11 9.80 0.27 o
-4 3 2 231.68 239.95 1.36 o
-3 3 2 8283.68 8505.59 42.51 o
-2 3 2 4969.23 5273.87 25.67 o
-1 3 2 1196.69 1315.98 6.83 o
0 3 2 92.58 112.73 0.82 o
1 3 2 17187.60 16448.60 74.58 o
2 3 2 22.84 20.96 0.27 o
3 3 2 1.27 2.72 0.27 o
4 3 2 3682.17 3998.49 18.08 o
5 3 2 1696.82 1744.08 8.19 o
6 3 2 3.37 4.08 0.27 o
7 3 2 51.43 52.54 0.54 o
8 3 2 1065.43 1078.28 5.72 o
9 3 2 25.83 26.68 0.54 o
10 3 2 405.81 404.17 2.72 o
11 3 2 1039.85 1057.24 6.54 o
12 3 2 5.93 6.81 0.54 o
13 3 2 14.72 16.33 0.82 o
14 3 2 12.93 11.71 0.82 o
15 3 2 202.99 209.12 2.45 o
16 3 2 39.28 40.29 1.36 o
17 3 2 211.24 207.49 4.08 o
-18 4 2 3.12 3.27 0.82 o
-17 4 2 98.05 99.10 1.91 o
-16 4 2 39.76 39.75 1.36 o
-15 4 2 63.51 66.43 1.36 o
-14 4 2 0.39 1.63 0.54 o
-13 4 2 45.08 49.00 1.36 o
-12 4 2 20.88 19.87 0.82 o
-11 4 2 0.06 0.82 0.54 <
-10 4 2 480.18 478.29 2.72 o
-9 4 2 16.55 18.78 0.54 o
-8 4 2 55.04 57.72 0.54 o
-7 4 2 103.68 101.28 0.82 o
-6 4 2 2.82 4.36 0.27 o
-5 4 2 717.36 719.60 3.54 o
-4 4 2 405.14 404.31 2.18 o
-3 4 2 547.46 560.94 3.00 o
-2 4 2 961.77 1014.01 4.91 o
-1 4 2 44.74 56.08 0.54 o
0 4 2 345.96 346.84 1.91 o
1 4 2 1096.92 1136.73 5.46 o
2 4 2 64.61 73.78 0.54 o
3 4 2 2128.67 2163.70 10.66 o
4 4 2 89.23 85.49 0.54 o
5 4 2 499.77 492.27 2.45 o
6 4 2 330.57 325.45 1.63 o
7 4 2 188.51 181.34 1.36 o
8 4 2 853.72 841.19 4.63 o
9 4 2 76.38 71.33 0.82 o
10 4 2 320.87 316.44 2.45 o
11 4 2 75.66 74.60 1.09 o
12 4 2 154.66 150.29 1.91 o
13 4 2 347.18 351.86 3.27 o
14 4 2 5.30 5.72 0.82 o
15 4 2 293.35 300.91 3.00 o
16 4 2 14.98 15.79 1.09 o
17 4 2 78.44 74.33 3.81 o
-19 5 2 218.71 207.24 6.54 o
-18 5 2 60.50 59.62 1.36 o
-17 5 2 78.11 78.41 1.63 o
-16 5 2 689.39 701.81 5.45 o
-15 5 2 10.09 10.62 0.82 o
-14 5 2 90.03 85.22 1.63 o
-13 5 2 112.57 108.90 1.63 o
-12 5 2 581.53 577.23 3.81 o
-11 5 2 128.07 125.79 1.36 o
-10 5 2 403.35 389.19 2.18 o
-9 5 2 1908.41 1923.83 8.73 o
-8 5 2 389.68 381.30 1.91 o
-7 5 2 12.92 13.61 0.27 o
-6 5 2 275.21 263.62 1.36 o
-5 5 2 1478.76 1509.16 6.82 o
-4 5 2 1184.14 1220.36 6.28 o
-3 5 2 13.50 14.16 0.27 o
-2 5 2 1720.24 1791.67 8.47 o
-1 5 2 2545.66 2703.45 12.59 o
0 5 2 283.11 286.01 1.63 o
1 5 2 444.26 459.11 2.45 o
2 5 2 0.12 2.18 0.27 o
3 5 2 950.18 1015.10 5.18 o
4 5 2 499.27 490.92 2.72 o
5 5 2 664.16 665.10 3.00 o
6 5 2 1934.28 1990.43 9.28 o
7 5 2 8.37 11.16 0.27 o
8 5 2 208.09 201.49 1.36 o
9 5 2 29.38 32.12 0.82 o
10 5 2 436.61 420.53 3.27 o
11 5 2 84.90 83.31 1.36 o
12 5 2 413.99 371.50 3.27 o
13 5 2 188.45 185.70 2.45 o
14 5 2 0.57 2.72 0.82 o
15 5 2 85.17 84.67 1.63 o
16 5 2 16.69 16.06 1.09 o
-19 6 2 108.48 99.92 2.45 o
-18 6 2 11.70 14.16 0.82 o
-17 6 2 1.01 1.63 0.82 <
-16 6 2 41.45 43.01 1.36 o
-15 6 2 445.07 457.58 4.09 o
-14 6 2 62.19 52.00 1.63 o
-13 6 2 34.59 33.48 1.09 o
-12 6 2 1215.03 1236.83 7.63 o
-11 6 2 168.98 167.99 1.36 o
-10 6 2 128.83 127.69 1.09 o
-9 6 2 1.94 4.08 0.27 o
-8 6 2 2206.07 2303.58 10.10 o
-7 6 2 2.91 4.36 0.27 o
-6 6 2 277.49 255.18 1.36 o
-5 6 2 7041.02 7495.48 31.93 o
-4 6 2 2297.57 2375.49 11.48 o
-3 6 2 9.14 6.53 0.27 o
-2 6 2 696.22 755.07 3.82 o
-1 6 2 2976.46 3264.98 15.61 o
0 6 2 2875.25 2991.28 14.78 o
1 6 2 37.30 39.20 0.54 o
2 6 2 8493.36 9015.23 41.68 o
3 6 2 2.29 4.36 0.27 o
4 6 2 12.64 13.88 0.27 o
5 6 2 405.76 409.09 2.18 o
6 6 2 1261.51 1263.41 6.27 o
7 6 2 83.81 80.86 0.82 o
8 6 2 125.74 121.97 1.36 o
9 6 2 1276.85 1279.16 7.91 o
10 6 2 11.67 11.98 0.82 o
11 6 2 75.30 77.32 1.36 o
12 6 2 29.23 30.49 1.09 o
13 6 2 87.63 89.57 1.91 o
14 6 2 7.56 7.08 1.09 o
15 6 2 56.60 55.54 1.91 o
16 6 2 85.09 81.40 2.18 o
-18 7 2 0.68 1.09 0.54 <
-17 7 2 0.72 1.36 0.82 <
-16 7 2 1.99 1.91 0.82 <
-15 7 2 10.35 11.43 0.82 o
-14 7 2 270.28 275.85 3.00 o
-13 7 2 36.21 36.21 1.09 o
-12 7 2 117.26 117.34 1.36 o
-11 7 2 19.81 18.78 0.54 o
-10 7 2 34.91 34.57 0.82 o
-9 7 2 96.46 93.38 0.82 o
-8 7 2 114.86 109.99 0.82 o
-7 7 2 750.57 729.72 3.54 o
-6 7 2 35.67 37.02 0.54 o
-5 7 2 366.83 351.36 1.63 o
-4 7 2 3.32 5.99 0.27 o
-3 7 2 205.33 198.79 1.09 o
-2 7 2 6.20 4.90 0.27 o
-1 7 2 165.97 176.18 1.09 o
0 7 2 458.48 454.96 2.45 o
1 7 2 218.64 218.13 1.36 o
2 7 2 522.44 521.44 2.72 o
3 7 2 24.36 23.41 0.54 o
4 7 2 932.88 913.60 4.09 o
5 7 2 8.22 11.43 0.27 o
6 7 2 577.30 556.26 3.27 o
7 7 2 0.77 1.91 0.54 o
8 7 2 297.22 287.29 2.18 o
9 7 2 468.81 461.13 3.81 o
10 7 2 44.18 40.56 1.09 o
11 7 2 514.74 511.28 4.63 o
12 7 2 10.90 14.16 1.09 o
13 7 2 127.12 125.51 2.45 o
14 7 2 18.29 18.24 1.36 o
15 7 2 137.10 135.86 2.72 o
16 7 2 172.55 160.38 3.54 o
-18 8 2 516.09 511.58 4.36 o
-17 8 2 30.05 29.40 0.82 o
-16 8 2 135.90 136.95 1.91 o
-15 8 2 332.49 333.88 3.27 o
-14 8 2 125.15 124.43 2.18 o
-13 8 2 71.69 73.51 1.36 o
-12 8 2 253.21 242.08 2.18 o
-11 8 2 1629.76 1594.43 8.45 o
-10 8 2 134.53 133.41 1.36 o
-9 8 2 32.95 29.67 0.54 o
-8 8 2 760.11 747.93 3.81 o
-7 8 2 10.98 13.34 0.27 o
-6 8 2 45.77 46.83 0.54 o
-5 8 2 63.57 57.44 0.54 o
-4 8 2 2421.96 2523.28 10.11 o
-3 8 2 1736.04 1789.86 7.64 o
-2 8 2 16.72 20.42 0.27 o
-1 8 2 572.94 595.33 2.72 o
0 8 2 919.98 941.54 4.36 o
1 8 2 442.83 468.25 2.45 o
2 8 2 8.90 9.80 0.27 o
3 8 2 1138.14 1140.11 5.73 o
4 8 2 1803.01 1795.47 8.46 o
5 8 2 385.78 379.38 2.45 o
6 8 2 160.50 157.92 1.36 o
7 8 2 305.89 300.37 2.45 o
8 8 2 47.90 50.36 1.09 o
9 8 2 36.04 40.29 1.36 o
10 8 2 47.65 46.55 1.36 o
11 8 2 447.24 457.31 4.90 o
12 8 2 84.30 87.66 2.45 o
13 8 2 398.48 401.17 5.45 o
14 8 2 100.75 100.73 2.45 o
15 8 2 0.82 0.27 1.09 <
-18 9 2 10.75 11.71 0.82 o
-17 9 2 98.25 102.37 1.36 o
-16 9 2 10.76 12.25 0.82 o
-15 9 2 2.33 3.81 0.82 o
-14 9 2 632.46 650.83 5.45 o
-13 9 2 3.62 2.72 0.54 o
-12 9 2 89.25 87.94 1.36 o
-11 9 2 226.52 224.92 1.91 o
-10 9 2 432.19 421.61 2.72 o
-9 9 2 738.05 723.37 3.81 o
-8 9 2 1.92 2.45 0.27 o
-7 9 2 2647.32 2742.06 12.29 o
-6 9 2 3.64 5.44 0.27 o
-5 9 2 93.26 82.22 0.82 o
-4 9 2 2028.99 2105.33 9.01 o
-3 9 2 1709.55 1747.12 7.64 o
-2 9 2 1249.90 1278.39 5.73 o
-1 9 2 32.32 31.58 0.54 o
0 9 2 3500.79 3719.74 16.68 o
1 9 2 10.38 14.16 0.27 o
2 9 2 42.13 43.01 0.54 o
3 9 2 1510.95 1572.26 7.91 o
4 9 2 882.76 873.11 4.91 o
5 9 2 98.18 97.74 1.09 o
6 9 2 0.37 2.99 0.54 o
7 9 2 296.45 285.39 2.45 o
8 9 2 50.24 51.73 1.36 o
9 9 2 91.73 91.75 2.18 o
10 9 2 629.12 668.81 7.63 o
11 9 2 7.19 8.44 1.09 o
12 9 2 0.01 1.63 1.09 <
13 9 2 31.17 30.22 1.63 o
14 9 2 75.54 76.50 2.18 o
15 9 2 3.61 2.99 1.09 <
-18 10 2 5.68 4.63 0.82 o
-17 10 2 13.21 12.25 0.82 o
-16 10 2 123.82 121.16 1.63 o
-15 10 2 61.06 59.62 1.36 o
-14 10 2 4.18 5.17 0.82 o
-13 10 2 226.64 194.15 2.18 o
-12 10 2 1.17 1.09 0.54 <
-11 10 2 36.51 36.21 0.82 o
-10 10 2 2.15 3.27 0.54 o
-9 10 2 182.10 173.17 1.36 o
-8 10 2 10.67 9.80 0.27 o
-7 10 2 0.01 2.18 0.27 o
-6 10 2 1150.96 1125.28 5.45 o
-5 10 2 180.78 174.26 1.09 o
-4 10 2 12.74 12.79 0.27 o
-3 10 2 123.24 118.71 0.82 o
-2 10 2 229.18 217.30 1.36 o
-1 10 2 0.61 1.91 0.27 o
0 10 2 311.53 306.64 1.91 o
1 10 2 159.62 160.64 1.09 o
2 10 2 1140.84 1093.11 5.45 o
3 10 2 67.32 69.42 0.82 o
4 10 2 43.96 44.65 0.82 o
5 10 2 3.80 4.63 0.54 o
6 10 2 295.45 283.48 2.45 o
7 10 2 581.33 555.17 5.45 o
8 10 2 5.25 5.44 0.82 o
9 10 2 360.92 363.58 4.90 o
10 10 2 203.53 205.58 3.54 o
11 10 2 14.78 14.97 1.36 o
12 10 2 106.33 103.46 2.45 o
13 10 2 65.39 68.88 2.45 o
14 10 2 239.57 232.01 3.81 o
-18 11 2 31.76 31.58 1.09 o
-17 11 2 500.21 494.66 4.09 o
-16 11 2 5.89 6.53 0.82 o
-15 11 2 40.32 40.02 1.36 o
-14 11 2 131.80 129.05 1.63 o
-13 11 2 579.65 578.33 4.36 o
-12 11 2 164.78 165.27 1.63 o
-11 11 2 129.88 122.79 1.36 o
-10 11 2 1193.62 1176.01 7.09 o
-9 11 2 153.54 154.92 1.36 o
-8 11 2 5.81 5.44 0.54 o
-7 11 2 257.13 243.71 1.63 o
-6 11 2 704.73 691.74 3.54 o
-5 11 2 805.41 788.02 4.09 o
-4 11 2 10.60 12.79 0.27 o
-3 11 2 1006.91 986.65 5.18 o
-2 11 2 547.87 539.09 3.00 o
-1 11 2 69.82 74.05 0.82 o
0 11 2 157.46 154.65 1.09 o
1 11 2 0.05 2.45 0.27 o
2 11 2 706.42 706.73 3.81 o
3 11 2 217.97 217.02 1.91 o
4 11 2 714.48 697.19 4.36 o
5 11 2 917.01 898.20 6.00 o
6 11 2 31.09 32.67 1.36 o
7 11 2 89.45 86.03 1.91 o
8 11 2 15.38 16.33 1.09 o
9 11 2 373.75 380.19 5.17 o
10 11 2 42.66 44.65 1.91 o
11 11 2 379.03 382.10 4.90 o
12 11 2 141.60 142.40 2.99 o
13 11 2 15.00 13.88 1.36 o
14 11 2 54.36 55.54 2.18 o
-18 12 2 14.30 22.05 1.91 o
-17 12 2 41.84 40.02 1.09 o
-16 12 2 155.72 157.65 2.18 o
-15 12 2 1.88 2.45 0.82 <
-14 12 2 0.50 2.18 0.82 <
-13 12 2 369.62 376.92 3.00 o
-12 12 2 16.05 15.24 0.82 o
-11 12 2 195.85 194.14 1.91 o
-10 12 2 0.77 1.63 0.54 o
-9 12 2 859.97 839.56 5.18 o
-8 12 2 38.91 38.11 0.82 o
-7 12 2 130.31 118.98 1.09 o
-6 12 2 1354.71 1371.69 6.82 o
-5 12 2 412.50 399.27 2.45 o
-4 12 2 184.07 177.80 1.36 o
-3 12 2 285.54 286.47 1.91 o
-2 12 2 694.03 698.00 3.81 o
-1 12 2 955.29 965.83 5.18 o
0 12 2 4.12 5.72 0.27 o
1 12 2 1799.38 1834.78 9.27 o
2 12 2 4.09 4.36 0.54 o
3 12 2 263.41 261.41 2.18 o
4 12 2 177.29 170.17 1.91 o
5 12 2 279.08 272.86 3.27 o
6 12 2 80.29 79.77 1.91 o
7 12 2 54.65 54.99 1.91 o
8 12 2 513.31 518.36 5.72 o
9 12 2 0.30 1.36 1.09 <
10 12 2 1.53 1.63 1.09 <
11 12 2 1.17 3.54 1.09 o
12 12 2 2.48 1.91 1.09 <
13 12 2 0.85 0.00 1.09 <
-17 13 2 16.08 14.43 0.82 o
-16 13 2 11.74 10.89 0.82 o
-15 13 2 351.21 352.13 3.00 o
-14 13 2 62.65 61.80 1.36 o
-13 13 2 1.45 2.45 0.82 <
-12 13 2 87.87 86.30 1.36 o
-11 13 2 100.78 93.66 1.36 o
-10 13 2 1.74 2.72 0.54 o
-9 13 2 74.93 74.32 1.36 o
-8 13 2 770.76 731.58 4.63 o
-7 13 2 91.56 89.03 1.09 o
-6 13 2 12.39 12.25 0.54 o
-5 13 2 142.95 140.22 1.36 o
-4 13 2 3.19 5.44 0.54 o
-3 13 2 112.33 107.81 1.09 o
-2 13 2 72.82 71.87 1.09 o
-1 13 2 577.55 562.79 3.54 o
0 13 2 220.04 208.30 1.63 o
1 13 2 382.06 366.30 2.45 o
2 13 2 61.12 57.72 1.09 o
3 13 2 226.76 211.30 2.18 o
4 13 2 109.04 107.81 2.18 o
5 13 2 259.99 246.44 3.27 o
6 13 2 63.57 68.06 1.91 o
7 13 2 296.04 293.56 3.81 o
8 13 2 411.32 404.99 4.90 o
9 13 2 5.16 5.44 1.09 o
10 13 2 250.52 255.42 4.08 o
11 13 2 77.06 73.23 2.18 o
12 13 2 69.98 67.79 2.18 o
-17 14 2 49.07 46.28 1.91 o
-16 14 2 182.94 174.81 1.91 o
-15 14 2 136.75 133.41 1.63 o
-14 14 2 20.05 22.87 0.82 o
-13 14 2 115.30 112.17 1.63 o
-12 14 2 851.70 858.10 5.72 o
-11 14 2 97.63 97.19 1.63 o
-10 14 2 7.84 7.62 0.54 o
-9 14 2 461.25 449.96 3.54 o
-8 14 2 11.21 11.98 0.82 o
-7 14 2 17.20 17.97 0.82 o
-6 14 2 0.11 2.45 0.54 o
-5 14 2 842.90 831.36 4.90 o
-4 14 2 643.32 632.30 3.81 o
-3 14 2 0.13 0.82 0.54 <
-2 14 2 354.27 352.67 2.72 o
-1 14 2 196.06 190.87 1.63 o
0 14 2 279.81 274.22 2.18 o
1 14 2 13.22 14.43 0.82 o
2 14 2 521.86 511.00 4.63 o
3 14 2 601.23 594.69 4.90 o
4 14 2 137.18 137.49 2.45 o
5 14 2 100.24 96.38 2.18 o
6 14 2 193.42 203.67 3.54 o
7 14 2 65.97 67.52 2.18 o
8 14 2 3.31 2.45 1.09 <
9 14 2 57.70 59.35 2.18 o
10 14 2 188.20 191.41 3.27 o
11 14 2 58.30 59.35 2.18 o
12 14 2 182.18 180.81 4.36 o
-16 15 2 13.20 13.88 1.09 o
-15 15 2 182.66 176.98 1.91 o
-14 15 2 1.64 2.99 0.82 o
-13 15 2 1.40 0.82 0.82 <
-12 15 2 27.16 28.04 1.09 o
-11 15 2 64.39 64.52 1.36 o
-10 15 2 650.76 663.93 5.18 o
-9 15 2 21.60 19.06 0.82 o
-8 15 2 643.79 633.41 5.45 o
-7 15 2 4.84 6.81 0.54 o
-6 15 2 156.36 150.02 1.91 o
-5 15 2 437.93 434.15 3.27 o
-4 15 2 313.74 309.63 2.72 o
-3 15 2 920.62 908.57 6.27 o
-2 15 2 25.32 26.95 0.82 o
-1 15 2 658.53 659.83 4.90 o
0 15 2 5.29 6.53 0.54 o
1 15 2 131.91 132.05 1.91 o
2 15 2 421.33 418.07 4.36 o
3 15 2 218.39 220.83 3.27 o
4 15 2 241.14 214.57 3.27 o
5 15 2 0.68 1.36 1.09 <
6 15 2 24.46 24.23 1.63 o
7 15 2 47.48 46.55 1.91 o
8 15 2 0.04 0.00 1.09 <
9 15 2 212.53 220.83 3.54 o
10 15 2 21.02 23.41 1.36 o
11 15 2 21.64 21.23 1.63 o
-16 16 2 55.34 52.27 1.91 o
-15 16 2 3.31 4.36 0.82 o
-14 16 2 206.40 202.85 2.18 o
-13 16 2 0.25 1.36 0.82 <
-12 16 2 1.84 2.45 0.82 <
-11 16 2 2.18 2.72 0.82 o
-10 16 2 303.63 293.83 3.27 o
-9 16 2 53.47 54.45 1.63 o
-8 16 2 33.33 31.58 1.09 o
-7 16 2 742.81 726.39 5.45 o
-6 16 2 51.60 50.91 1.09 o
-5 16 2 44.69 45.19 1.36 o
-4 16 2 4.64 5.17 0.82 o
-3 16 2 267.61 257.88 2.72 o
-2 16 2 55.10 53.09 1.36 o
-1 16 2 255.49 245.89 2.72 o
0 16 2 285.72 271.77 2.72 o
1 16 2 356.16 343.69 3.54 o
2 16 2 89.44 84.40 2.18 o
3 16 2 1.90 2.99 1.09 <
4 16 2 6.96 7.89 1.09 o
5 16 2 307.95 305.27 4.36 o
6 16 2 357.52 361.93 5.17 o
7 16 2 78.52 74.32 2.45 o
8 16 2 165.21 166.63 3.27 o
9 16 2 208.31 213.21 3.81 o
10 16 2 4.25 5.17 1.36 o
-15 17 2 61.43 57.72 1.63 o
-14 17 2 364.25 346.97 3.00 o
-13 17 2 48.75 50.64 1.36 o
-12 17 2 27.80 26.13 1.09 o
-11 17 2 390.80 400.08 3.54 o
-10 17 2 28.69 31.03 1.09 o
-9 17 2 31.86 29.95 1.09 o
-8 17 2 111.15 111.35 1.91 o
-7 17 2 311.02 315.90 2.72 o
-6 17 2 326.81 339.87 3.00 o
-5 17 2 40.80 42.47 1.36 o
-4 17 2 369.39 373.11 3.81 o
-3 17 2 84.80 87.66 1.63 o
-2 17 2 0.40 1.63 0.54 o
-1 17 2 19.98 21.78 0.82 o
0 17 2 3.77 4.36 0.82 o
1 17 2 289.43 296.28 3.54 o
2 17 2 121.10 125.79 2.72 o
3 17 2 360.88 370.93 4.90 o
4 17 2 276.75 283.75 4.08 o
5 17 2 11.08 12.25 1.36 o
6 17 2 2.15 2.18 1.09 <
7 17 2 12.43 14.43 1.36 o
8 17 2 136.08 135.04 2.72 o
9 17 2 23.45 27.22 1.91 o
-15 18 2 25.86 27.50 1.91 o
-14 18 2 75.86 76.23 1.63 o
-13 18 2 0.66 0.00 0.54 <
-12 18 2 251.74 254.33 2.18 o
-11 18 2 0.45 1.36 0.82 <
-10 18 2 144.10 143.21 1.91 o
-9 18 2 47.93 49.00 1.36 o
-8 18 2 165.37 164.46 2.18 o
-7 18 2 301.65 306.09 2.72 o
-6 18 2 68.33 67.52 1.36 o
-5 18 2 304.33 308.81 3.00 o
-4 18 2 80.38 79.50 1.63 o
-3 18 2 72.37 75.41 1.63 o
-2 18 2 510.01 524.08 4.63 o
-1 18 2 54.01 55.54 1.63 o
0 18 2 414.58 432.23 4.36 o
1 18 2 2.89 6.53 1.09 o
2 18 2 335.43 351.31 4.63 o
3 18 2 62.02 60.71 2.18 o
4 18 2 21.76 20.96 1.36 o
5 18 2 112.01 119.25 2.72 o
6 18 2 0.40 -0.27 1.09 <
7 18 2 113.85 115.17 2.72 o
8 18 2 0.76 0.00 1.09 <
-14 19 2 14.72 13.88 1.36 o
-13 19 2 47.26 46.01 1.36 o
-12 19 2 117.02 108.36 1.36 o
-11 19 2 2.15 4.08 0.82 o
-10 19 2 34.29 35.93 1.09 o
-9 19 2 429.32 422.43 3.81 o
-8 19 2 90.65 91.48 1.63 o
-7 19 2 8.06 9.53 0.82 o
-6 19 2 146.75 145.94 1.91 o
-5 19 2 26.46 25.05 1.09 o
-4 19 2 64.54 67.24 1.63 o
-3 19 2 65.10 62.89 1.63 o
-2 19 2 308.28 310.72 3.54 o
-1 19 2 146.32 145.66 2.18 o
0 19 2 199.56 201.49 3.27 o
1 19 2 114.59 116.53 2.72 o
2 19 2 27.60 24.23 1.63 o
3 19 2 110.28 114.62 2.72 o
4 19 2 177.33 172.62 3.27 o
5 19 2 52.89 51.73 2.18 o
6 19 2 140.20 136.95 2.99 o
7 19 2 198.56 184.90 3.81 o
-13 20 2 290.61 270.17 3.81 o
-12 20 2 14.02 13.07 0.82 o
-11 20 2 11.55 10.89 0.82 o
-10 20 2 113.02 112.71 1.63 o
-9 20 2 15.21 15.52 0.82 o
-8 20 2 2.77 2.99 0.82 o
-7 20 2 7.43 5.99 0.82 o
-6 20 2 247.70 253.24 2.72 o
-5 20 2 160.36 166.90 1.91 o
-4 20 2 5.19 5.44 0.82 o
-3 20 2 70.86 74.87 1.63 o
-2 20 2 47.13 47.37 1.63 o
-1 20 2 56.30 57.99 2.45 o
0 20 2 33.26 35.12 1.91 o
1 20 2 145.59 152.47 2.99 o
2 20 2 131.22 133.95 2.72 o
3 20 2 42.51 40.29 1.91 o
4 20 2 9.67 9.53 1.36 o
5 20 2 78.32 76.50 2.18 o
-11 21 2 326.61 334.99 3.81 o
-10 21 2 22.39 23.68 1.09 o
-9 21 2 102.84 101.01 1.63 o
-8 21 2 0.75 1.63 0.82 <
-7 21 2 257.68 266.86 3.27 o
-6 21 2 120.10 117.35 1.91 o
-5 21 2 13.13 12.25 0.82 o
-4 21 2 472.80 489.73 4.36 o
-3 21 2 32.17 34.03 1.09 o
-2 21 2 139.63 147.57 2.72 o
-1 21 2 12.31 13.07 1.09 o
0 21 2 193.18 202.85 3.81 o
1 21 2 83.68 83.04 2.45 o
2 21 2 8.51 7.35 1.36 o
3 21 2 215.65 217.57 4.08 o
4 21 2 12.77 14.16 1.63 o
-10 22 2 22.38 22.05 1.09 o
-9 22 2 34.39 36.21 1.36 o
-8 22 2 278.51 272.60 2.72 o
-7 22 2 9.68 10.34 0.82 o
-6 22 2 15.58 16.33 1.09 o
-5 22 2 0.07 0.00 0.82 <
-4 22 2 150.42 147.03 2.18 o
-3 22 2 37.32 38.66 1.63 o
-2 22 2 145.64 150.84 2.45 o
-1 22 2 145.52 142.40 2.45 o
0 22 2 85.32 87.12 2.45 o
1 22 2 35.51 33.49 1.91 o
2 22 2 1.04 1.91 1.09 <
-7 23 2 33.92 31.31 2.18 o
-6 23 2 13.45 12.79 2.45 o
-5 23 2 58.93 57.17 4.36 o
-4 23 2 15.61 16.61 2.45 o
-3 23 2 8.89 13.61 1.91 o
-2 23 2 1.19 2.72 1.63 <
-1 23 2 3.22 4.63 2.45 <
3 -23 3 0.72 -0.27 2.45 <
4 -23 3 13.20 14.16 2.45 o
5 -23 3 11.91 16.88 2.45 o
-1 -22 3 0.73 -0.54 1.36 <
0 -22 3 12.84 13.61 1.36 o
1 -22 3 0.66 0.00 1.09 <
2 -22 3 131.57 129.06 2.72 o
3 -22 3 0.01 2.99 1.09 <
4 -22 3 141.91 142.94 2.72 o
5 -22 3 303.99 294.39 3.54 o
6 -22 3 0.08 2.45 1.09 <
7 -22 3 1.25 1.36 1.09 <
8 -22 3 19.59 20.15 1.36 o
-3 -21 3 87.37 84.94 2.72 o
-2 -21 3 237.23 248.07 4.08 o
-1 -21 3 77.03 77.59 2.45 o
0 -21 3 1.58 2.45 1.09 <
1 -21 3 357.74 375.55 5.17 o
2 -21 3 9.80 8.98 1.09 o
3 -21 3 290.56 297.91 3.54 o
4 -21 3 57.31 57.17 1.63 o
5 -21 3 121.17 125.24 2.18 o
6 -21 3 13.97 16.06 1.09 o
7 -21 3 0.20 1.91 0.82 <
8 -21 3 270.36 279.12 3.27 o
9 -21 3 1.01 1.09 0.82 <
10 -21 3 22.66 20.42 1.09 o
-4 -20 3 6.95 8.17 1.63 o
-3 -20 3 3.51 5.72 1.36 o
-2 -20 3 4.43 7.62 1.09 o
-1 -20 3 85.66 84.40 2.18 o
0 -20 3 194.97 199.04 3.54 o
1 -20 3 4.36 5.44 1.09 o
2 -20 3 156.30 166.36 2.72 o
3 -20 3 71.71 74.32 1.91 o
4 -20 3 55.07 59.35 1.63 o
5 -20 3 170.31 175.62 2.45 o
6 -20 3 43.21 43.83 1.63 o
7 -20 3 309.12 303.91 3.27 o
8 -20 3 37.55 39.20 1.63 o
9 -20 3 9.43 9.26 1.09 o
10 -20 3 183.57 184.07 2.72 o
11 -20 3 118.24 117.89 2.18 o
12 -20 3 78.18 75.69 1.63 o
-5 -19 3 228.98 224.37 4.08 o
-4 -19 3 204.37 203.13 3.54 o
-3 -19 3 49.98 51.45 2.18 o
-2 -19 3 76.01 72.15 2.18 o
-1 -19 3 59.49 60.44 2.18 o
0 -19 3 38.64 34.57 1.63 o
1 -19 3 7.42 6.81 1.09 o
2 -19 3 116.92 120.34 2.99 o
3 -19 3 553.53 566.05 6.54 o
4 -19 3 0.18 1.91 0.82 <
5 -19 3 106.52 112.44 2.18 o
6 -19 3 133.74 134.50 2.18 o
7 -19 3 59.06 66.15 1.63 o
8 -19 3 2.38 3.81 0.82 o
9 -19 3 18.39 19.87 1.09 o
10 -19 3 181.11 180.79 2.18 o
11 -19 3 0.33 1.09 0.82 <
12 -19 3 126.01 127.97 1.91 o
13 -19 3 188.54 178.90 2.45 o
-6 -18 3 279.99 267.96 5.17 o
-5 -18 3 47.59 44.92 2.18 o
-4 -18 3 29.18 28.86 1.36 o
-3 -18 3 148.32 146.48 2.72 o
-2 -18 3 38.63 37.30 1.63 o
-1 -18 3 638.24 662.54 7.63 o
0 -18 3 96.50 101.01 2.72 o
1 -18 3 193.99 196.05 3.54 o
2 -18 3 116.43 118.43 2.45 o
3 -18 3 24.83 26.13 1.36 o
4 -18 3 234.16 238.53 3.00 o
5 -18 3 43.96 45.19 1.36 o
6 -18 3 339.19 355.12 3.00 o
7 -18 3 97.61 101.55 1.63 o
8 -18 3 0.73 1.09 0.82 <
9 -18 3 71.86 75.96 1.63 o
10 -18 3 20.77 22.05 1.09 o
11 -18 3 215.21 216.74 2.18 o
12 -18 3 0.75 1.09 0.82 <
13 -18 3 45.69 46.01 1.36 o
14 -18 3 4.64 5.17 1.09 o
-7 -17 3 318.64 297.65 6.81 o
-6 -17 3 99.24 103.46 2.99 o
-5 -17 3 1.45 3.81 1.09 o
-4 -17 3 14.17 13.07 1.36 o
-3 -17 3 265.89 264.68 3.81 o
-2 -17 3 254.96 260.60 4.08 o
-1 -17 3 22.34 24.50 1.63 o
0 -17 3 309.42 313.99 4.63 o
1 -17 3 176.83 180.25 3.27 o
2 -17 3 34.23 35.93 1.63 o
3 -17 3 1.57 2.99 0.82 o
4 -17 3 4.51 7.62 0.82 o
5 -17 3 350.57 357.31 3.27 o
6 -17 3 78.74 77.86 1.36 o
7 -17 3 203.61 206.67 2.18 o
8 -17 3 580.97 591.67 4.36 o
9 -17 3 308.55 317.26 3.27 o
10 -17 3 3.72 5.72 0.82 o
11 -17 3 52.25 49.82 1.36 o
12 -17 3 148.00 151.11 1.91 o
13 -17 3 179.06 173.17 1.91 o
14 -17 3 42.10 39.47 1.09 o
-7 -16 3 142.54 142.12 3.27 o
-6 -16 3 165.39 159.28 3.00 o
-5 -16 3 49.69 46.01 1.91 o
-4 -16 3 313.05 311.27 4.36 o
-3 -16 3 164.20 162.55 3.00 o
-2 -16 3 0.16 2.72 1.09 <
-1 -16 3 22.10 22.87 1.36 o
0 -16 3 9.81 9.53 1.09 o
1 -16 3 191.49 180.52 2.72 o
2 -16 3 14.08 14.97 0.82 o
3 -16 3 259.88 252.70 2.72 o
4 -16 3 709.90 690.67 5.18 o
5 -16 3 1.08 1.63 0.54 o
6 -16 3 1.72 1.63 0.54 o
7 -16 3 7.21 8.71 0.82 o
8 -16 3 228.88 228.19 2.45 o
9 -16 3 4.38 5.99 0.82 o
10 -16 3 179.39 179.98 2.18 o
11 -16 3 363.93 369.56 3.54 o
12 -16 3 3.36 5.17 0.82 o
13 -16 3 37.21 38.93 1.36 o
14 -16 3 0.78 1.09 0.54 <
15 -16 3 14.31 15.24 0.82 o
-8 -15 3 100.08 92.57 3.54 o
-7 -15 3 90.15 88.21 2.18 o
-6 -15 3 22.50 23.68 1.36 o
-5 -15 3 450.12 451.86 5.18 o
-4 -15 3 95.73 92.84 2.18 o
-3 -15 3 236.43 230.09 3.00 o
-2 -15 3 489.06 487.56 5.18 o
-1 -15 3 28.90 28.58 1.09 o
0 -15 3 447.54 447.23 4.63 o
1 -15 3 12.44 11.98 0.82 o
2 -15 3 1260.64 1260.09 8.45 o
3 -15 3 36.66 39.47 1.09 o
4 -15 3 145.29 145.39 1.63 o
5 -15 3 248.24 247.25 2.45 o
6 -15 3 38.88 41.92 1.09 o
7 -15 3 228.72 233.90 2.18 o
8 -15 3 0.90 2.72 0.54 o
9 -15 3 208.94 210.21 2.45 o
10 -15 3 4.87 5.72 0.82 o
11 -15 3 4.22 5.99 0.82 o
12 -15 3 111.01 109.72 1.91 o
13 -15 3 21.17 21.78 1.09 o
14 -15 3 1.06 0.00 0.82 <
15 -15 3 0.72 0.82 0.82 <
-11 -14 3 60.08 49.82 3.54 o
-10 -14 3 0.62 1.91 1.91 <
-9 -14 3 400.02 383.47 5.17 o
-8 -14 3 142.19 141.58 2.72 o
-7 -14 3 0.76 2.99 0.82 o
-6 -14 3 252.62 249.70 3.00 o
-5 -14 3 38.13 40.56 1.63 o
-4 -14 3 72.07 71.06 1.91 o
-3 -14 3 0.71 1.63 0.82 <
-2 -14 3 438.99 429.52 4.63 o
-1 -14 3 579.18 561.71 5.72 o
0 -14 3 85.20 84.13 1.63 o
1 -14 3 590.56 566.07 4.09 o
2 -14 3 98.12 95.29 1.36 o
3 -14 3 238.38 228.73 1.91 o
4 -14 3 328.62 319.98 2.45 o
5 -14 3 254.54 249.43 2.18 o
6 -14 3 1009.23 1002.15 7.09 o
7 -14 3 181.47 181.88 1.91 o
8 -14 3 102.47 98.56 1.63 o
9 -14 3 294.04 294.11 3.00 o
10 -14 3 404.30 410.44 3.81 o
11 -14 3 154.78 160.10 2.18 o
12 -14 3 0.58 2.99 0.82 o
13 -14 3 465.09 481.00 4.36 o
14 -14 3 165.25 167.99 2.18 o
15 -14 3 88.55 87.12 1.36 o
16 -14 3 234.18 224.66 3.54 o
-12 -13 3 11.55 11.98 1.91 o
-11 -13 3 100.35 91.21 2.72 o
-10 -13 3 140.66 137.77 2.72 o
-9 -13 3 16.87 16.06 1.36 o
-8 -13 3 0.09 1.09 1.09 <
-7 -13 3 14.15 14.16 1.09 o
-6 -13 3 573.38 563.62 4.63 o
-5 -13 3 231.30 218.38 2.45 o
-4 -13 3 72.72 67.24 1.63 o
-3 -13 3 23.98 24.77 1.09 o
-2 -13 3 47.88 46.28 1.36 o
-1 -13 3 7.00 6.81 0.54 o
0 -13 3 5.65 6.26 0.54 o
1 -13 3 244.29 239.62 1.91 o
2 -13 3 1032.86 999.70 5.72 o
3 -13 3 33.74 35.93 0.82 o
4 -13 3 85.34 82.49 1.09 o
5 -13 3 83.98 78.14 1.09 o
6 -13 3 28.14 28.58 0.82 o
7 -13 3 61.28 59.35 1.09 o
8 -13 3 5.01 4.36 0.54 o
9 -13 3 301.49 293.83 3.00 o
10 -13 3 11.03 13.07 0.82 o
11 -13 3 220.13 222.74 2.45 o
12 -13 3 219.29 216.75 2.18 o
13 -13 3 0.51 1.63 0.82 <
14 -13 3 7.41 7.62 0.82 o
15 -13 3 51.00 48.19 1.36 o
16 -13 3 50.29 47.91 1.63 o
-13 -12 3 8.36 6.81 1.91 o
-12 -12 3 0.34 1.09 1.36 <
-11 -12 3 162.95 163.37 3.00 o
-10 -12 3 19.27 19.33 1.36 o
-9 -12 3 169.26 170.72 2.72 o
-8 -12 3 84.33 80.31 1.91 o
-7 -12 3 1206.63 1208.51 9.00 o
-6 -12 3 9.33 9.26 0.82 o
-5 -12 3 1.66 1.63 0.82 <
-4 -12 3 656.96 632.31 4.90 o
-3 -12 3 140.49 126.88 1.63 o
-2 -12 3 773.89 753.37 5.18 o
-1 -12 3 485.95 465.76 3.54 o
0 -12 3 1125.55 1120.84 6.54 o
1 -12 3 47.69 49.55 0.82 o
2 -12 3 1.29 2.18 0.27 o
3 -12 3 1233.25 1244.47 6.54 o
4 -12 3 181.67 181.07 1.36 o
5 -12 3 346.75 348.31 2.45 o
6 -12 3 468.99 465.48 3.27 o
7 -12 3 80.97 79.77 1.09 o
8 -12 3 10.49 13.61 0.54 o
9 -12 3 142.76 139.95 1.63 o
10 -12 3 1009.86 994.27 6.00 o
11 -12 3 0.06 1.09 0.54 <
12 -12 3 11.32 11.71 0.82 o
13 -12 3 0.56 0.82 0.54 <
14 -12 3 0.07 1.36 0.54 <
15 -12 3 0.77 2.18 0.82 <
16 -12 3 25.53 29.13 1.09 o
17 -12 3 94.59 91.21 2.18 o
-14 -11 3 1.42 3.27 1.63 <
-13 -11 3 26.37 25.86 1.63 o
-12 -11 3 15.63 18.78 1.36 o
-11 -11 3 305.23 300.37 4.08 o
-10 -11 3 97.80 101.28 2.45 o
-9 -11 3 0.27 0.54 1.09 <
-8 -11 3 896.16 889.49 7.36 o
-7 -11 3 165.54 165.00 2.18 o
-6 -11 3 15.94 17.42 0.82 o
-5 -11 3 14.14 14.97 0.82 o
-4 -11 3 818.13 785.83 5.18 o
-3 -11 3 512.91 484.84 3.27 o
-2 -11 3 40.47 41.11 0.82 o
-1 -11 3 907.79 901.19 5.72 o
0 -11 3 457.85 454.04 2.72 o
1 -11 3 257.86 254.61 1.63 o
2 -11 3 0.80 2.72 0.27 o
3 -11 3 28.12 29.67 0.54 o
4 -11 3 799.10 783.10 4.36 o
5 -11 3 232.66 234.18 1.63 o
6 -11 3 430.84 416.98 2.72 o
7 -11 3 1320.36 1317.93 6.82 o
8 -11 3 860.31 844.73 4.63 o
9 -11 3 2.99 3.81 0.54 o
10 -11 3 21.91 21.23 0.82 o
11 -11 3 367.96 368.75 2.72 o
12 -11 3 518.94 525.99 3.54 o
13 -11 3 104.38 105.36 1.36 o
14 -11 3 697.92 705.90 4.36 o
15 -11 3 196.05 195.77 1.91 o
16 -11 3 1.93 4.63 0.82 o
17 -11 3 26.06 27.22 1.63 o
-14 -10 3 0.13 0.54 1.09 <
-13 -10 3 149.26 151.11 2.99 o
-12 -10 3 141.95 138.58 2.72 o
-11 -10 3 0.31 0.27 1.09 <
-10 -10 3 102.23 102.64 2.45 o
-9 -10 3 25.54 23.96 1.36 o
-8 -10 3 316.12 300.92 3.27 o
-7 -10 3 39.47 37.57 1.09 o
-6 -10 3 96.98 88.75 1.63 o
-5 -10 3 290.61 276.40 2.18 o
-4 -10 3 166.82 158.74 1.36 o
-3 -10 3 0.72 1.09 0.27 o
-2 -10 3 3.06 3.81 0.27 o
-1 -10 3 95.56 91.75 0.82 o
0 -10 3 19.05 18.51 0.54 o
1 -10 3 144.53 142.40 1.09 o
2 -10 3 122.25 118.43 0.82 o
3 -10 3 1308.58 1265.94 6.00 o
4 -10 3 30.91 28.04 0.54 o
5 -10 3 28.34 28.86 0.54 o
6 -10 3 6.06 5.72 0.27 o
7 -10 3 184.69 182.70 1.36 o
8 -10 3 140.63 136.95 1.36 o
9 -10 3 70.49 65.88 1.09 o
10 -10 3 380.43 375.02 2.72 o
11 -10 3 2.13 4.63 0.54 o
12 -10 3 11.71 12.52 0.54 o
13 -10 3 0.39 0.54 0.54 <
14 -10 3 3.97 4.63 0.54 o
15 -10 3 38.09 40.02 1.09 o
16 -10 3 50.91 51.73 1.36 o
17 -10 3 11.84 11.98 0.82 o
-15 -9 3 25.30 24.77 1.36 o
-14 -9 3 20.06 20.69 1.36 o
-13 -9 3 413.18 420.79 4.90 o
-12 -9 3 0.05 1.91 1.09 <
-11 -9 3 35.64 39.75 1.63 o
-10 -9 3 150.86 148.12 2.72 o
-9 -9 3 373.84 373.11 4.09 o
-8 -9 3 5.77 8.17 0.82 o
-7 -9 3 6.38 6.53 0.82 o
-6 -9 3 1747.63 1745.19 10.37 o
-5 -9 3 238.16 225.74 1.63 o
-4 -9 3 155.07 140.49 1.09 o
-3 -9 3 1639.86 1644.18 8.46 o
-2 -9 3 241.55 231.46 1.63 o
-1 -9 3 401.49 393.02 2.18 o
0 -9 3 27.32 24.77 0.54 o
1 -9 3 5763.26 6054.21 26.33 o
2 -9 3 83.14 90.39 0.82 o
3 -9 3 56.06 54.18 0.54 o
4 -9 3 933.11 964.24 4.63 o
5 -9 3 344.19 345.05 1.91 o
6 -9 3 150.34 151.93 1.09 o
7 -9 3 13.68 13.88 0.27 o
8 -9 3 1091.46 1087.81 5.45 o
9 -9 3 0.79 1.36 0.54 <
10 -9 3 42.76 42.47 0.82 o
11 -9 3 438.26 425.43 3.00 o
12 -9 3 0.39 2.18 0.54 o
13 -9 3 26.65 25.86 0.82 o
14 -9 3 1.01 2.18 0.54 o
15 -9 3 122.84 124.42 1.63 o
16 -9 3 1.03 2.99 0.82 o
17 -9 3 168.72 172.35 1.91 o
-15 -8 3 1.54 2.18 1.09 <
-14 -8 3 96.23 98.01 2.45 o
-13 -8 3 169.39 172.62 3.00 o
-12 -8 3 159.93 162.55 3.00 o
-11 -8 3 2.97 2.45 1.09 <
-10 -8 3 849.90 843.12 8.45 o
-9 -8 3 115.87 116.53 2.18 o
-8 -8 3 0.88 1.09 0.82 <
-7 -8 3 293.44 279.39 2.18 o
-6 -8 3 53.54 51.18 0.82 o
-5 -8 3 182.31 175.62 1.36 o
-4 -8 3 2.42 3.27 0.27 o
-3 -8 3 1464.27 1489.34 7.36 o
-2 -8 3 876.59 872.92 4.09 o
-1 -8 3 474.52 474.52 2.45 o
0 -8 3 844.23 848.14 3.82 o
1 -8 3 207.54 206.13 1.09 o
2 -8 3 336.16 333.63 1.63 o
3 -8 3 576.09 568.57 2.72 o
4 -8 3 801.65 801.72 3.54 o
5 -8 3 2374.58 2433.03 9.83 o
6 -8 3 799.12 801.39 3.54 o
7 -8 3 89.09 87.39 0.82 o
8 -8 3 318.41 311.54 1.91 o
9 -8 3 494.84 490.28 2.72 o
10 -8 3 284.39 269.86 1.91 o
11 -8 3 0.28 2.18 0.54 o
12 -8 3 965.89 958.24 6.00 o
13 -8 3 389.77 390.01 2.72 o
14 -8 3 165.69 169.08 1.91 o
15 -8 3 227.81 233.09 2.45 o
16 -8 3 303.74 308.81 2.72 o
17 -8 3 73.46 74.32 1.36 o
18 -8 3 0.28 3.81 1.09 o
-16 -7 3 14.39 15.52 1.36 o
-15 -7 3 38.14 40.56 1.91 o
-14 -7 3 217.15 216.20 3.54 o
-13 -7 3 9.81 10.34 1.36 o
-12 -7 3 227.29 229.00 3.54 o
-11 -7 3 47.60 47.91 1.91 o
-10 -7 3 55.30 51.18 1.63 o
-9 -7 3 102.31 92.29 1.91 o
-8 -7 3 2.52 4.08 0.54 o
-7 -7 3 711.57 691.20 4.36 o
-6 -7 3 60.93 60.98 0.82 o
-5 -7 3 244.45 229.82 1.63 o
-4 -7 3 67.65 63.43 0.54 o
-3 -7 3 13.35 14.97 0.27 o
-2 -7 3 107.02 111.08 0.82 o
-1 -7 3 34.92 41.92 0.54 o
0 -7 3 250.38 254.08 1.36 o
1 -7 3 1200.47 1186.86 5.45 o
2 -7 3 96.78 100.19 0.82 o
3 -7 3 14.06 16.88 0.27 o
4 -7 3 32.54 35.94 0.54 o
5 -7 3 16.86 15.79 0.27 o
6 -7 3 512.80 508.57 2.45 o
7 -7 3 20.06 20.42 0.54 o
8 -7 3 147.50 148.66 1.09 o
9 -7 3 32.08 33.76 0.82 o
10 -7 3 79.70 74.05 1.09 o
11 -7 3 204.10 202.04 1.91 o
12 -7 3 55.41 51.73 1.09 o
13 -7 3 138.63 137.50 1.63 o
14 -7 3 38.52 40.56 1.36 o
15 -7 3 7.92 7.89 0.82 o
16 -7 3 0.87 1.63 0.54 o
17 -7 3 53.76 56.08 1.36 o
18 -7 3 4.62 3.81 0.82 o
-16 -6 3 2.07 1.36 1.09 <
-15 -6 3 361.67 382.64 5.17 o
-14 -6 3 0.18 1.91 1.09 <
-13 -6 3 42.86 43.01 1.91 o
-12 -6 3 492.70 509.36 6.26 o
-11 -6 3 1.49 1.63 0.82 <
-10 -6 3 66.99 65.07 1.91 o
-9 -6 3 77.89 75.14 1.36 o
-8 -6 3 2802.62 2864.56 18.02 o
-7 -6 3 1.80 4.08 0.54 o
-6 -6 3 13.97 17.97 0.54 o
-5 -6 3 2399.15 2513.65 12.83 o
-4 -6 3 645.45 631.83 3.27 o
-3 -6 3 640.32 625.87 3.00 o
-2 -6 3 1071.52 1103.75 5.18 o
-1 -6 3 4913.71 5314.80 24.69 o
0 -6 3 126.07 133.15 0.82 o
1 -6 3 1.83 2.99 0.27 o
2 -6 3 5012.72 5486.77 24.42 o
3 -6 3 535.33 547.90 2.72 o
4 -6 3 107.00 102.64 0.54 o
5 -6 3 1313.22 1328.94 5.45 o
6 -6 3 972.84 1005.77 4.36 o
7 -6 3 20.32 22.32 0.54 o
8 -6 3 458.85 463.30 2.45 o
9 -6 3 2189.50 2210.58 10.10 o
10 -6 3 3.37 4.36 0.54 o
11 -6 3 10.75 13.34 0.54 o
12 -6 3 29.14 28.04 0.82 o
13 -6 3 103.40 100.46 1.36 o
14 -6 3 26.74 26.41 1.09 o
15 -6 3 129.04 137.49 1.91 o
16 -6 3 223.92 227.09 2.18 o
17 -6 3 25.44 25.86 0.82 o
18 -6 3 74.94 77.86 1.63 o
-17 -5 3 0.00 0.82 1.09 <
-16 -5 3 160.73 157.38 2.72 o
-15 -5 3 0.89 0.82 1.09 <
-14 -5 3 23.11 22.32 1.63 o
-13 -5 3 0.77 2.72 1.09 <
-12 -5 3 351.25 345.33 4.63 o
-11 -5 3 83.22 82.76 1.91 o
-10 -5 3 2.06 4.08 0.82 o
-9 -5 3 1317.71 1296.66 8.72 o
-8 -5 3 146.53 144.57 1.63 o
-7 -5 3 19.61 20.15 0.54 o
-6 -5 3 12.63 13.61 0.54 o
-5 -5 3 1521.65 1537.06 7.64 o
-4 -5 3 453.52 452.45 2.45 o
-3 -5 3 21.58 24.23 0.27 o
-2 -5 3 1733.15 1814.41 8.46 o
-1 -5 3 1045.52 1083.54 5.45 o
0 -5 3 772.56 767.11 3.82 o
1 -5 3 135.68 131.24 0.82 o
2 -5 3 206.89 201.79 1.09 o
3 -5 3 925.89 952.90 4.09 o
4 -5 3 503.00 505.92 2.18 o
5 -5 3 357.57 367.96 1.91 o
6 -5 3 2516.82 2582.50 10.93 o
7 -5 3 1528.29 1530.90 7.36 o
8 -5 3 1.53 3.54 0.27 o
9 -5 3 6.75 7.62 0.27 o
10 -5 3 352.91 348.59 2.18 o
11 -5 3 1058.35 1032.18 6.00 o
12 -5 3 50.54 50.36 1.09 o
13 -5 3 884.32 889.21 6.54 o
14 -5 3 199.74 203.13 2.45 o
15 -5 3 0.58 1.09 0.82 <
16 -5 3 28.73 28.86 1.09 o
17 -5 3 189.85 190.87 2.18 o
18 -5 3 150.81 154.66 2.45 o
-17 -4 3 1.00 0.00 1.09 <
-16 -4 3 247.73 255.96 3.27 o
-15 -4 3 51.91 50.09 1.91 o
-14 -4 3 200.54 203.67 3.81 o
-13 -4 3 23.12 26.41 1.36 o
-12 -4 3 33.96 36.75 1.36 o
-11 -4 3 442.73 428.98 4.63 o
-10 -4 3 5.13 5.99 0.82 o
-9 -4 3 338.05 331.97 2.72 o
-8 -4 3 32.23 31.85 0.82 o
-7 -4 3 123.85 120.34 1.09 o
-6 -4 3 85.21 80.86 0.82 o
-5 -4 3 6.53 8.44 0.27 o
-4 -4 3 205.85 214.04 1.36 o
-3 -4 3 479.71 485.76 2.72 o
-2 -4 3 51.46 51.73 0.54 o
-1 -4 3 394.25 377.05 1.91 o
0 -4 3 538.21 562.75 3.00 o
1 -4 3 1.24 1.91 0.27 o
2 -4 3 1891.77 1929.16 9.02 o
3 -4 3 371.97 361.21 1.91 o
4 -4 3 1052.95 1092.96 4.64 o
5 -4 3 1.47 2.72 0.27 o
6 -4 3 0.81 3.54 0.27 o
7 -4 3 327.09 330.89 1.91 o
8 -4 3 4.08 5.44 0.27 o
9 -4 3 258.88 256.51 1.63 o
10 -4 3 20.29 20.42 0.54 o
11 -4 3 67.62 66.43 1.09 o
12 -4 3 1.40 2.45 0.54 o
13 -4 3 68.45 66.43 1.36 o
14 -4 3 120.81 123.61 1.91 o
15 -4 3 1.37 2.99 0.82 o
16 -4 3 0.01 0.54 0.82 <
17 -4 3 43.61 44.92 1.09 o
18 -4 3 10.14 11.98 0.82 o
-17 -3 3 211.57 211.03 3.54 o
-16 -3 3 88.68 89.57 2.18 o
-15 -3 3 113.98 117.89 2.45 o
-14 -3 3 670.72 710.25 7.90 o
-13 -3 3 5.05 8.44 0.82 o
-12 -3 3 16.38 18.78 0.82 o
-11 -3 3 310.28 310.17 3.00 o
-10 -3 3 761.76 774.88 5.18 o
-9 -3 3 54.05 52.27 0.82 o
-8 -3 3 24.87 26.68 0.54 o
-7 -3 3 3983.67 4213.78 20.24 o
-6 -3 3 951.83 961.08 4.63 o
-5 -3 3 188.96 177.81 1.09 o
-4 -3 3 3636.81 3910.40 19.17 o
-3 -3 3 479.37 549.28 3.27 o
-2 -3 3 195.60 201.80 1.36 o
-1 -3 3 20.43 19.60 0.27 o
0 -3 3 24572.20 23742.00 107.80 o
1 -3 3 750.80 809.28 4.36 o
2 -3 3 2.20 3.81 0.27 o
3 -3 3 1415.67 1597.60 7.37 o
4 -3 3 1001.36 1029.40 4.36 o
5 -3 3 156.53 146.49 0.82 o
6 -3 3 117.69 109.72 0.82 o
7 -3 3 3259.86 3391.01 14.49 o
8 -3 3 1.28 2.72 0.27 o
9 -3 3 358.15 364.66 1.91 o
10 -3 3 619.33 620.29 3.27 o
11 -3 3 27.48 26.41 0.54 o
12 -3 3 47.31 48.73 1.09 o
13 -3 3 0.45 1.91 0.54 o
14 -3 3 306.78 317.26 3.00 o
15 -3 3 12.34 11.43 0.82 o
16 -3 3 401.83 422.96 3.81 o
17 -3 3 191.72 186.79 2.18 o
18 -3 3 7.87 7.35 0.82 o
-18 -2 3 118.68 108.09 4.63 o
-17 -2 3 91.09 93.66 2.18 o
-16 -2 3 14.74 14.70 1.09 o
-15 -2 3 40.55 41.65 1.63 o
-14 -2 3 175.15 185.15 2.72 o
-13 -2 3 96.52 93.66 1.63 o
-12 -2 3 17.19 16.06 0.82 o
-11 -2 3 813.88 806.55 5.99 o
-10 -2 3 36.26 37.57 0.82 o
-9 -2 3 37.89 38.66 0.82 o
-8 -2 3 120.80 116.80 1.09 o
-7 -2 3 60.01 63.16 0.54 o
-6 -2 3 58.16 56.35 0.54 o
-5 -2 3 1.33 2.45 0.27 o
-4 -2 3 2118.76 2249.18 12.30 o
-3 -2 3 812.47 826.14 4.36 o
-2 -2 3 829.99 863.13 4.64 o
-1 -2 3 800.60 825.82 4.36 o
0 -2 3 536.36 544.87 2.73 o
1 -2 3 66.09 58.81 0.54 o
2 -2 3 1639.41 1698.16 8.20 o
3 -2 3 1198.47 1188.05 5.46 o
4 -2 3 3296.16 3416.97 14.78 o
5 -2 3 1224.33 1216.17 5.18 o
6 -2 3 0.82 2.18 0.27 o
7 -2 3 443.20 437.98 2.18 o
8 -2 3 298.67 287.30 1.63 o
9 -2 3 557.31 543.16 2.72 o
10 -2 3 12.56 13.34 0.54 o
11 -2 3 938.33 910.49 5.45 o
12 -2 3 457.91 448.05 3.27 o
13 -2 3 63.75 65.07 1.36 o
14 -2 3 225.42 228.73 2.18 o
15 -2 3 223.42 228.18 2.45 o
16 -2 3 147.43 149.20 1.91 o
17 -2 3 3.74 4.08 0.82 o
18 -2 3 60.96 55.54 1.63 o
-18 -1 3 112.42 110.81 4.63 o
-17 -1 3 144.65 144.03 2.72 o
-16 -1 3 22.42 24.50 1.09 o
-15 -1 3 63.73 64.52 1.91 o
-14 -1 3 73.48 77.86 1.63 o
-13 -1 3 429.50 436.33 3.81 o
-12 -1 3 0.05 0.54 0.54 <
-11 -1 3 161.16 153.84 1.63 o
-10 -1 3 708.06 690.38 4.09 o
-9 -1 3 111.52 103.73 1.09 o
-8 -1 3 228.28 223.01 1.63 o
-7 -1 3 5.73 7.08 0.27 o
-6 -1 3 1137.79 1148.21 5.73 o
-5 -1 3 454.59 458.49 2.45 o
-4 -1 3 21.21 19.33 0.27 o
-3 -1 3 928.37 973.14 5.18 o
-2 -1 3 1119.69 1151.99 5.73 o
-1 -1 3 8.83 11.98 0.27 o
0 -1 3 340.19 346.83 1.63 o
1 -1 3 74.10 62.08 0.54 o
2 -1 3 554.72 549.48 2.73 o
3 -1 3 56.47 64.80 0.54 o
4 -1 3 174.49 173.46 1.09 o
5 -1 3 2203.45 2299.47 9.01 o
6 -1 3 182.21 172.91 1.09 o
7 -1 3 48.05 47.37 0.54 o
8 -1 3 0.72 3.81 0.27 o
9 -1 3 40.78 39.20 0.82 o
10 -1 3 331.63 321.89 2.18 o
11 -1 3 221.28 208.30 1.91 o
12 -1 3 370.75 364.67 3.00 o
13 -1 3 26.33 26.13 0.82 o
14 -1 3 34.25 35.93 1.09 o
15 -1 3 0.23 0.54 0.82 <
16 -1 3 2.85 2.72 0.82 o
17 -1 3 1.35 2.45 0.82 <
-18 0 3 52.05 47.64 2.72 o
-17 0 3 9.74 10.62 0.82 o
-16 0 3 477.77 509.88 4.63 o
-15 0 3 0.34 2.45 0.82 <
-14 0 3 117.00 113.26 1.91 o
-13 0 3 664.61 681.92 5.18 o
-12 0 3 19.25 22.32 0.82 o
-11 0 3 39.92 40.84 0.82 o
-10 0 3 22.96 24.23 0.54 o
-9 0 3 3698.23 3912.96 20.51 o
-8 0 3 3.68 4.08 0.27 o
-7 0 3 35.26 34.57 0.54 o
-6 0 3 4210.31 4553.73 20.82 o
-5 0 3 1605.55 1733.49 9.01 o
-4 0 3 498.09 475.47 3.00 o
-3 0 3 979.07 1021.86 5.46 o
-2 0 3 9969.85 10056.30 47.91 o
-1 0 3 475.97 538.01 2.73 o
0 0 3 4.11 4.90 0.27 o
1 0 3 10382.60 10323.40 47.71 o
2 0 3 1025.06 1083.46 5.18 o
3 0 3 1.51 0.82 0.27 o
4 0 3 1744.83 1843.10 7.92 o
5 0 3 2481.29 2606.13 10.11 o
6 0 3 152.28 138.32 0.82 o
7 0 3 694.88 713.04 3.54 o
8 0 3 2731.67 2818.50 13.11 o
9 0 3 6.50 8.71 0.54 o
10 0 3 49.61 50.91 0.82 o
11 0 3 45.30 44.92 1.09 o
12 0 3 306.44 306.36 2.45 o
13 0 3 23.16 23.41 0.82 o
14 0 3 245.44 252.15 2.45 o
15 0 3 243.90 250.79 2.18 o
16 0 3 21.01 21.51 1.09 o
17 0 3 101.42 100.74 1.63 o
-18 1 3 1.63 3.81 1.36 <
-17 1 3 42.00 41.92 1.36 o
-16 1 3 0.47 1.36 0.82 <
-15 1 3 2.35 2.18 0.82 <
-14 1 3 3.11 3.81 0.82 o
-13 1 3 233.38 235.54 2.45 o
-12 1 3 10.21 10.89 0.54 o
-11 1 3 3.92 6.26 0.54 o
-10 1 3 687.89 675.38 4.09 o
-9 1 3 88.20 82.49 0.82 o
-8 1 3 106.94 104.55 0.82 o
-7 1 3 75.57 72.69 0.82 o
-6 1 3 1210.38 1251.22 5.73 o
-5 1 3 200.57 194.43 1.09 o
-4 1 3 34.53 37.30 0.54 o
-3 1 3 1047.09 1090.78 6.00 o
-2 1 3 577.78 577.35 3.00 o
-1 1 3 25.27 25.86 0.27 o
0 1 3 932.25 944.61 4.64 o
1 1 3 0.22 1.63 0.27 o
2 1 3 587.23 570.75 2.73 o
3 1 3 462.69 478.99 2.45 o
4 1 3 126.81 127.43 0.82 o
5 1 3 2021.35 2085.29 9.01 o
6 1 3 1010.95 973.44 4.36 o
7 1 3 181.39 177.53 1.09 o
8 1 3 114.30 109.99 1.09 o
9 1 3 102.55 95.02 1.09 o
10 1 3 1023.49 1008.42 5.45 o
11 1 3 1.96 2.72 0.54 o
12 1 3 728.33 717.39 4.63 o
13 1 3 110.88 110.26 1.63 o
14 1 3 45.76 46.82 1.36 o
15 1 3 67.31 71.87 1.63 o
16 1 3 67.68 67.79 1.63 o
17 1 3 159.56 157.92 2.18 o
-18 2 3 13.47 12.25 0.82 o
-17 2 3 183.00 185.15 2.45 o
-16 2 3 192.73 194.96 2.18 o
-15 2 3 220.30 229.00 2.45 o
-14 2 3 34.07 31.58 1.09 o
-13 2 3 97.30 98.28 1.63 o
-12 2 3 1117.15 1115.12 7.09 o
-11 2 3 44.75 44.65 0.82 o
-10 2 3 169.22 168.81 1.36 o
-9 2 3 232.45 227.37 1.63 o
-8 2 3 92.69 96.65 0.82 o
-7 2 3 17.95 19.06 0.54 o
-6 2 3 159.20 151.39 1.09 o
-5 2 3 1499.01 1568.38 7.64 o
-4 2 3 1663.75 1746.56 9.28 o
-3 2 3 134.55 148.13 1.09 o
-2 2 3 1448.26 1501.04 7.37 o
-1 2 3 559.00 570.52 3.00 o
0 2 3 76.54 71.61 0.54 o
1 2 3 747.68 785.03 3.82 o
2 2 3 1395.81 1389.81 6.55 o
3 2 3 3935.17 4201.59 18.92 o
4 2 3 132.29 130.15 0.82 o
5 2 3 229.67 233.10 1.36 o
6 2 3 206.08 215.39 1.36 o
7 2 3 118.49 115.17 1.09 o
8 2 3 100.42 93.93 0.82 o
9 2 3 50.87 51.18 0.82 o
10 2 3 476.46 463.04 3.00 o
11 2 3 3.34 5.44 0.54 o
12 2 3 399.45 396.00 3.00 o
13 2 3 121.93 122.79 1.63 o
14 2 3 33.62 34.03 1.09 o
15 2 3 2.12 3.54 0.82 o
16 2 3 70.62 67.79 1.63 o
17 2 3 4.54 3.27 1.09 o
-18 3 3 240.71 250.52 3.00 o
-17 3 3 77.10 79.22 1.91 o
-16 3 3 160.15 160.91 1.91 o
-15 3 3 593.90 628.73 5.18 o
-14 3 3 13.75 15.79 0.82 o
-13 3 3 15.49 18.51 0.82 o
-12 3 3 237.62 238.26 2.18 o
-11 3 3 832.02 858.60 4.90 o
-10 3 3 43.02 42.20 0.82 o
-9 3 3 74.16 72.96 0.82 o
-8 3 3 3727.50 3967.42 17.78 o
-7 3 3 1130.02 1141.25 5.18 o
-6 3 3 201.72 192.52 1.09 o
-5 3 3 3258.07 3516.38 16.15 o
-4 3 3 621.00 703.94 3.54 o
-3 3 3 235.38 248.38 1.36 o
-2 3 3 5.20 6.53 0.27 o
-1 3 3 23941.40 22600.10 111.07 o
0 3 3 1163.38 1245.56 6.00 o
1 3 3 1.94 6.26 0.27 o
2 3 3 1173.82 1329.48 6.55 o
3 3 3 1173.51 1214.63 5.73 o
4 3 3 208.83 198.24 1.09 o
5 3 3 60.22 57.99 0.54 o
6 3 3 3283.02 3443.01 15.58 o
7 3 3 9.52 8.98 0.27 o
8 3 3 327.39 330.61 2.18 o
9 3 3 528.50 535.52 3.27 o
10 3 3 45.12 41.38 0.82 o
11 3 3 31.76 32.67 0.82 o
12 3 3 5.90 6.26 0.54 o
13 3 3 319.30 328.70 3.00 o
14 3 3 2.07 2.18 0.82 <
15 3 3 401.35 417.24 3.81 o
16 3 3 152.44 154.38 1.91 o
17 3 3 4.72 3.27 1.91 <
-18 4 3 55.18 53.90 1.63 o
-17 4 3 54.77 56.08 1.36 o
-16 4 3 1.02 2.45 0.82 <
-15 4 3 89.45 94.20 1.63 o
-14 4 3 1.34 2.45 0.82 <
-13 4 3 6.07 5.17 0.54 o
-12 4 3 276.08 270.13 2.45 o
-11 4 3 17.21 16.88 0.54 o
-10 4 3 165.02 162.28 1.36 o
-9 4 3 0.57 2.18 0.27 o
-8 4 3 58.86 58.80 0.82 o
-7 4 3 160.50 155.74 1.09 o
-6 4 3 5.17 5.44 0.27 o
-5 4 3 322.58 334.73 1.63 o
-4 4 3 407.97 402.63 2.18 o
-3 4 3 28.15 25.05 0.27 o
-2 4 3 284.21 276.73 1.63 o
-1 4 3 266.72 276.45 1.63 o
0 4 3 135.28 130.43 0.82 o
1 4 3 2441.05 2529.01 11.49 o
2 4 3 54.30 55.27 0.54 o
3 4 3 1259.88 1269.18 6.00 o
4 4 3 159.12 154.11 0.82 o
5 4 3 91.53 95.56 0.82 o
6 4 3 590.92 587.07 3.00 o
7 4 3 61.07 54.72 0.82 o
8 4 3 844.00 835.18 4.36 o
9 4 3 104.22 102.37 1.09 o
10 4 3 346.53 335.52 2.72 o
11 4 3 172.66 168.27 1.91 o
12 4 3 4.95 5.72 0.82 o
13 4 3 308.97 311.27 3.00 o
14 4 3 79.30 80.31 1.63 o
15 4 3 186.89 189.78 2.18 o
16 4 3 23.95 24.77 1.09 o
-18 5 3 306.13 305.55 3.54 o
-17 5 3 21.93 22.05 1.09 o
-16 5 3 1.83 2.18 0.82 <
-15 5 3 108.68 109.99 1.63 o
-14 5 3 564.59 579.41 4.90 o
-13 5 3 32.78 33.48 1.09 o
-12 5 3 176.51 172.90 1.91 o
-11 5 3 1344.94 1325.61 7.36 o
-10 5 3 171.68 164.73 1.36 o
-9 5 3 0.75 2.45 0.27 o
-8 5 3 49.09 47.10 0.54 o
-7 5 3 1661.19 1681.31 7.09 o
-6 5 3 591.80 593.66 2.72 o
-5 5 3 63.80 55.81 0.54 o
-4 5 3 1474.78 1541.47 7.09 o
-3 5 3 1555.46 1581.77 6.55 o
-2 5 3 462.38 460.44 2.18 o
-1 5 3 5.48 5.99 0.27 o
0 5 3 570.75 564.35 2.72 o
1 5 3 841.59 885.45 4.09 o
2 5 3 95.54 99.10 0.82 o
3 5 3 389.46 407.21 2.18 o
4 5 3 2543.43 2635.21 11.75 o
5 5 3 382.43 385.93 2.18 o
6 5 3 327.49 318.08 1.91 o
7 5 3 44.76 44.92 0.82 o
8 5 3 268.06 261.69 1.91 o
9 5 3 396.06 382.11 2.72 o
10 5 3 361.03 356.22 3.00 o
11 5 3 479.04 475.30 3.81 o
12 5 3 3.30 4.90 0.82 o
13 5 3 123.14 128.78 1.91 o
14 5 3 2.98 3.81 0.82 o
15 5 3 66.89 61.26 1.63 o
16 5 3 2.02 4.63 1.09 o
-18 6 3 18.27 18.51 0.82 o
-17 6 3 354.32 370.38 3.54 o
-16 6 3 5.27 5.99 0.82 o
-15 6 3 70.17 67.24 1.63 o
-14 6 3 358.98 370.11 3.54 o
-13 6 3 4.51 6.26 0.54 o
-12 6 3 67.41 67.79 1.36 o
-11 6 3 9.30 11.43 0.54 o
-10 6 3 2807.76 2896.53 14.20 o
-9 6 3 7.49 8.71 0.54 o
-8 6 3 37.99 41.11 0.54 o
-7 6 3 1947.40 2057.05 9.28 o
-6 6 3 903.12 892.06 4.09 o
-5 6 3 676.18 668.14 3.27 o
-4 6 3 583.35 593.97 3.00 o
-3 6 3 5062.93 5415.81 23.05 o
-2 6 3 362.98 369.35 1.91 o
-1 6 3 3.34 4.90 0.27 o
0 6 3 4520.04 4983.12 21.94 o
1 6 3 782.68 811.39 3.82 o
2 6 3 132.39 130.69 0.82 o
3 6 3 901.03 918.52 4.09 o
4 6 3 1294.48 1336.11 6.27 o
5 6 3 141.54 135.59 1.09 o
6 6 3 508.50 506.36 3.00 o
7 6 3 1874.21 1913.50 9.82 o
8 6 3 2.99 4.36 0.54 o
9 6 3 1.45 3.27 0.54 o
10 6 3 8.04 8.44 0.54 o
11 6 3 157.45 150.57 1.91 o
12 6 3 3.37 3.54 0.82 o
13 6 3 174.44 177.25 2.18 o
14 6 3 172.83 172.90 2.45 o
15 6 3 9.05 9.26 1.36 o
16 6 3 60.11 55.54 2.72 o
-18 7 3 3.43 3.54 0.82 o
-17 7 3 5.25 5.17 0.82 o
-16 7 3 84.08 82.76 1.63 o
-15 7 3 5.81 7.08 0.82 o
-14 7 3 71.31 75.68 1.63 o
-13 7 3 13.81 12.52 0.82 o
-12 7 3 18.33 18.24 0.82 o
-11 7 3 54.82 53.09 1.09 o
-10 7 3 77.50 74.32 1.09 o
-9 7 3 688.98 658.22 3.54 o
-8 7 3 49.07 49.82 0.54 o
-7 7 3 268.71 254.61 1.63 o
-6 7 3 9.54 8.98 0.27 o
-5 7 3 21.02 22.60 0.27 o
-4 7 3 20.91 23.41 0.54 o
-3 7 3 77.07 80.86 0.54 o
-2 7 3 727.24 723.81 3.27 o
-1 7 3 649.53 628.90 3.00 o
0 7 3 313.69 307.21 1.63 o
1 7 3 114.04 107.00 0.82 o
2 7 3 154.09 153.84 1.09 o
3 7 3 0.79 3.54 0.27 o
4 7 3 609.93 594.98 3.00 o
5 7 3 72.72 68.88 0.82 o
6 7 3 482.80 482.10 2.72 o
7 7 3 446.93 437.96 2.72 o
8 7 3 1.03 1.36 0.54 <
9 7 3 515.01 504.74 4.09 o
10 7 3 23.74 25.32 0.82 o
11 7 3 419.49 418.35 3.81 o
12 7 3 13.05 13.88 0.82 o
13 7 3 178.18 176.98 2.72 o
14 7 3 154.81 157.92 3.27 o
15 7 3 1.03 -0.27 0.82 <
-18 8 3 84.23 85.76 1.63 o
-17 8 3 234.35 233.63 2.45 o
-16 8 3 256.55 258.96 2.72 o
-15 8 3 89.41 89.84 1.91 o
-14 8 3 80.49 81.40 1.63 o
-13 8 3 1163.78 1166.74 7.63 o
-12 8 3 71.94 70.24 1.36 o
-11 8 3 46.01 42.20 0.82 o
-10 8 3 373.15 359.76 2.45 o
-9 8 3 131.09 121.70 1.09 o
-8 8 3 109.60 105.36 0.82 o
-7 8 3 92.07 84.13 0.82 o
-6 8 3 1366.33 1400.23 6.27 o
-5 8 3 1107.39 1108.16 4.91 o
-4 8 3 113.01 119.52 0.82 o
-3 8 3 1095.53 1104.15 4.63 o
-2 8 3 107.15 108.36 0.82 o
-1 8 3 287.89 289.22 1.63 o
0 8 3 252.87 254.62 1.63 o
1 8 3 1101.25 1109.55 5.18 o
2 8 3 2288.24 2376.30 11.47 o
3 8 3 136.37 142.94 1.09 o
4 8 3 346.63 334.97 1.91 o
5 8 3 109.23 109.99 1.09 o
6 8 3 272.05 269.86 2.18 o
7 8 3 47.16 46.01 1.09 o
8 8 3 118.83 116.80 1.63 o
9 8 3 505.46 502.83 4.90 o
10 8 3 21.70 20.69 1.09 o
11 8 3 457.58 464.12 4.90 o
12 8 3 102.12 101.01 2.18 o
13 8 3 81.21 85.21 2.45 o
14 8 3 2.94 4.90 1.09 o
15 8 3 97.45 90.39 2.18 o
-18 9 3 20.23 22.32 1.09 o
-17 9 3 66.83 65.07 1.36 o
-16 9 3 310.49 320.52 3.00 o
-15 9 3 6.97 7.62 0.82 o
-14 9 3 30.97 34.85 1.09 o
-13 9 3 50.72 47.91 1.36 o
-12 9 3 417.31 415.35 3.27 o
-11 9 3 11.52 10.34 0.54 o
-10 9 3 8.38 10.62 0.54 o
-9 9 3 1523.11 1534.76 7.91 o
-8 9 3 366.62 349.95 2.18 o
-7 9 3 139.01 129.33 1.09 o
-6 9 3 1140.42 1129.36 5.18 o
-5 9 3 394.51 375.30 1.91 o
-4 9 3 562.95 556.27 2.45 o
-3 9 3 2.31 4.90 0.27 o
-2 9 3 5455.97 5742.21 24.95 o
-1 9 3 255.97 264.96 1.63 o
0 9 3 89.90 90.12 0.82 o
1 9 3 650.66 681.92 3.54 o
2 9 3 588.97 579.70 3.27 o
3 9 3 307.21 310.45 1.91 o
4 9 3 0.21 1.63 0.27 o
5 9 3 1066.36 1084.51 6.27 o
6 9 3 24.25 25.05 0.82 o
7 9 3 21.69 22.87 0.82 o
8 9 3 346.00 344.78 3.54 o
9 9 3 10.52 10.34 0.82 o
10 9 3 5.18 5.72 1.09 o
11 9 3 22.54 22.87 1.36 o
12 9 3 126.15 129.87 2.72 o
13 9 3 7.09 8.17 1.09 o
14 9 3 151.76 148.93 2.72 o
-18 10 3 117.97 114.08 1.91 o
-17 10 3 35.70 36.75 1.09 o
-16 10 3 7.91 9.80 0.82 o
-15 10 3 78.82 79.22 1.63 o
-14 10 3 0.74 1.63 0.82 <
-13 10 3 20.98 20.42 0.82 o
-12 10 3 6.41 7.62 0.54 o
-11 10 3 334.75 320.53 2.72 o
-10 10 3 58.24 55.81 1.09 o
-9 10 3 0.96 2.18 0.54 o
-8 10 3 542.92 523.81 3.00 o
-7 10 3 0.19 1.91 0.27 o
-6 10 3 4.81 5.44 0.27 o
-5 10 3 109.26 105.36 0.82 o
-4 10 3 126.30 118.71 0.82 o
-3 10 3 1.43 2.99 0.27 o
-2 10 3 166.36 162.28 1.09 o
-1 10 3 446.90 440.42 2.45 o
0 10 3 964.22 937.26 5.45 o
1 10 3 94.43 97.47 1.09 o
2 10 3 238.50 233.90 1.63 o
3 10 3 23.77 25.86 0.54 o
4 10 3 186.90 187.33 1.63 o
5 10 3 533.68 517.00 3.54 o
6 10 3 16.59 17.15 0.82 o
7 10 3 616.99 607.23 5.18 o
8 10 3 241.05 240.71 3.00 o
9 10 3 81.97 78.41 1.91 o
10 10 3 17.07 16.06 1.36 o
11 10 3 80.18 85.49 2.45 o
12 10 3 314.65 319.16 4.08 o
13 10 3 2.93 4.08 1.09 o
14 10 3 150.16 151.39 2.72 o
-18 11 3 21.91 22.05 1.36 o
-17 11 3 0.47 2.18 0.82 <
-16 11 3 93.98 95.29 1.63 o
-15 11 3 509.39 512.62 4.36 o
-14 11 3 47.41 49.82 1.36 o
-13 11 3 61.52 60.17 1.36 o
-12 11 3 999.56 973.28 6.27 o
-11 11 3 60.52 62.34 1.09 o
-10 11 3 0.73 2.18 0.54 o
-9 11 3 44.66 42.74 0.82 o
-8 11 3 1038.77 1021.52 5.45 o
-7 11 3 493.84 475.30 2.72 o
-6 11 3 4.87 4.36 0.27 o
-5 11 3 968.44 967.21 4.91 o
-4 11 3 383.02 376.11 2.18 o
-3 11 3 211.53 211.02 1.63 o
-2 11 3 3.17 4.63 0.27 o
-1 11 3 219.65 215.66 1.63 o
0 11 3 532.02 532.80 3.00 o
1 11 3 51.33 55.54 0.82 o
2 11 3 497.20 494.10 3.00 o
3 11 3 1118.04 1116.73 6.27 o
4 11 3 330.77 333.06 2.45 o
5 11 3 121.82 117.89 1.63 o
6 11 3 44.40 43.01 1.36 o
7 11 3 212.28 212.12 2.45 o
8 11 3 227.65 233.09 3.27 o
9 11 3 340.03 340.96 4.63 o
10 11 3 347.93 357.03 4.63 o
11 11 3 6.39 6.26 1.09 o
12 11 3 67.68 65.61 2.18 o
13 11 3 8.17 11.16 1.09 o
-17 12 3 19.86 22.05 0.82 o
-16 12 3 1.63 0.27 0.82 <
-15 12 3 89.23 90.12 1.63 o
-14 12 3 16.36 17.42 0.82 o
-13 12 3 123.02 127.69 1.63 o
-12 12 3 9.46 10.34 0.82 o
-11 12 3 1246.96 1260.37 7.36 o
-10 12 3 40.51 38.39 1.09 o
-9 12 3 1.43 2.72 0.54 o
-8 12 3 394.53 383.47 2.72 o
-7 12 3 159.94 147.57 1.36 o
-6 12 3 738.07 718.19 3.81 o
-5 12 3 280.00 270.68 1.91 o
-4 12 3 1339.14 1340.04 7.09 o
-3 12 3 184.12 183.52 1.36 o
-2 12 3 1.46 2.18 0.54 o
-1 12 3 943.54 969.08 5.18 o
0 12 3 219.06 220.56 1.63 o
1 12 3 427.86 429.78 2.72 o
2 12 3 382.05 387.00 2.72 o
3 12 3 248.52 241.53 1.91 o
4 12 3 97.01 98.01 1.63 o
5 12 3 174.37 170.99 2.45 o
6 12 3 743.89 751.46 7.08 o
7 12 3 7.10 5.99 1.09 o
8 12 3 57.90 60.98 2.18 o
9 12 3 0.21 -0.27 1.09 <
10 12 3 8.16 7.35 1.09 o
11 12 3 2.57 2.72 1.09 <
12 12 3 49.11 49.82 1.63 o
13 12 3 62.50 62.07 2.72 o
-17 13 3 162.92 156.29 2.45 o
-16 13 3 7.14 6.81 0.82 o
-15 13 3 0.39 1.09 0.82 <
-14 13 3 35.43 35.66 1.09 o
-13 13 3 75.44 72.96 1.36 o
-12 13 3 3.63 5.72 0.82 o
-11 13 3 73.44 78.13 1.36 o
-10 13 3 798.09 777.40 5.18 o
-9 13 3 48.13 48.73 1.09 o
-8 13 3 7.22 6.81 0.54 o
-7 13 3 24.93 24.50 0.82 o
-6 13 3 13.91 12.79 0.54 o
-5 13 3 38.46 34.85 0.82 o
-4 13 3 64.18 64.25 1.09 o
-3 13 3 841.58 818.28 4.90 o
-2 13 3 324.26 309.09 2.18 o
-1 13 3 327.77 325.16 2.45 o
0 13 3 3.45 4.63 0.54 o
1 13 3 5.84 7.89 0.54 o
2 13 3 75.77 75.96 1.36 o
3 13 3 302.41 291.65 2.72 o
4 13 3 23.97 24.23 1.09 o
5 13 3 352.22 349.95 3.81 o
6 13 3 446.30 462.21 5.99 o
7 13 3 35.54 35.12 1.63 o
8 13 3 199.66 195.50 3.27 o
9 13 3 107.47 111.62 2.72 o
10 13 3 240.95 241.26 3.81 o
11 13 3 8.51 7.62 1.09 o
12 13 3 159.06 159.01 3.27 o
-17 14 3 225.80 207.78 3.27 o
-16 14 3 25.56 26.68 1.09 o
-15 14 3 39.17 39.75 1.36 o
-14 14 3 596.29 597.12 4.09 o
-13 14 3 53.46 54.72 1.36 o
-12 14 3 14.41 13.88 0.82 o
-11 14 3 263.37 262.78 2.45 o
-10 14 3 184.33 157.92 1.91 o
-9 14 3 37.55 38.66 1.09 o
-8 14 3 2.55 3.54 0.54 o
-7 14 3 523.18 520.54 3.81 o
-6 14 3 488.16 479.66 3.54 o
-5 14 3 13.34 13.88 0.82 o
-4 14 3 619.83 611.58 3.81 o
-3 14 3 5.01 6.53 0.54 o
-2 14 3 202.01 196.05 1.91 o
-1 14 3 262.05 259.78 2.18 o
0 14 3 485.94 478.30 3.54 o
1 14 3 731.20 739.72 5.45 o
2 14 3 21.89 23.96 0.82 o
3 14 3 180.68 177.26 2.18 o
4 14 3 70.94 70.51 1.63 o
5 14 3 239.51 249.43 3.54 o
6 14 3 57.38 58.26 2.18 o
7 14 3 108.15 107.54 2.45 o
8 14 3 185.49 184.88 3.27 o
9 14 3 19.14 21.51 1.36 o
10 14 3 198.82 194.69 3.00 o
11 14 3 76.84 74.87 2.45 o
-16 15 3 0.14 0.00 0.82 <
-15 15 3 84.43 87.39 1.91 o
-14 15 3 4.23 3.81 0.82 o
-13 15 3 76.51 75.68 1.36 o
-12 15 3 72.50 75.41 1.63 o
-11 15 3 10.50 9.53 0.82 o
-10 15 3 387.23 383.20 3.54 o
-9 15 3 82.30 80.59 1.63 o
-8 15 3 209.71 205.58 2.45 o
-7 15 3 330.22 328.70 3.00 o
-6 15 3 53.61 49.28 1.09 o
-5 15 3 544.45 543.98 4.36 o
-4 15 3 7.06 7.35 0.54 o
-3 15 3 1178.92 1198.90 8.18 o
-2 15 3 48.19 47.37 1.09 o
-1 15 3 208.97 210.48 2.18 o
0 15 3 215.46 216.20 2.18 o
1 15 3 107.83 105.64 1.63 o
2 15 3 373.90 379.10 3.54 o
3 15 3 0.69 1.63 0.82 <
4 15 3 193.34 199.59 3.00 o
5 15 3 15.13 14.16 1.09 o
6 15 3 30.36 32.40 1.36 o
7 15 3 132.19 136.68 2.45 o
8 15 3 3.33 4.63 1.09 o
9 15 3 8.80 9.80 1.09 o
10 15 3 7.86 7.89 1.09 o
-16 16 3 71.84 66.70 2.72 o
-15 16 3 3.28 3.27 0.82 o
-14 16 3 0.78 2.45 0.82 <
-13 16 3 0.03 0.54 0.82 <
-12 16 3 400.13 395.18 3.81 o
-11 16 3 81.92 83.31 1.63 o
-10 16 3 38.55 40.29 1.36 o
-9 16 3 400.44 402.54 3.81 o
-8 16 3 6.29 6.81 0.82 o
-7 16 3 22.00 18.78 0.82 o
-6 16 3 16.29 17.69 0.82 o
-5 16 3 222.27 212.66 2.18 o
-4 16 3 43.45 43.01 1.36 o
-3 16 3 213.84 207.76 2.18 o
-2 16 3 436.36 432.79 3.54 o
-1 16 3 219.52 215.11 2.45 o
0 16 3 98.67 102.10 1.91 o
1 16 3 59.59 53.09 1.63 o
2 16 3 57.95 59.89 1.91 o
3 16 3 224.46 220.56 3.27 o
4 16 3 389.10 394.09 5.17 o
5 16 3 112.08 113.26 2.99 o
6 16 3 218.87 220.28 3.81 o
7 16 3 226.32 230.09 3.81 o
8 16 3 41.79 38.11 1.91 o
9 16 3 0.97 1.63 1.09 <
10 16 3 95.30 87.67 3.27 o
-15 17 3 10.16 11.43 0.82 o
-14 17 3 19.11 18.78 0.82 o
-13 17 3 370.08 377.47 3.54 o
-12 17 3 7.17 8.17 0.82 o
-11 17 3 10.37 10.34 0.82 o
-10 17 3 12.36 11.98 0.82 o
-9 17 3 452.73 467.11 4.36 o
-8 17 3 202.14 200.13 2.45 o
-7 17 3 0.31 0.27 0.82 <
-6 17 3 361.29 366.30 3.00 o
-5 17 3 58.57 58.80 1.63 o
-4 17 3 28.32 27.77 1.09 o
-3 17 3 4.96 4.90 0.82 o
-2 17 3 47.75 47.91 1.36 o
-1 17 3 188.21 192.23 2.45 o
0 17 3 27.07 28.31 1.36 o
1 17 3 253.85 259.23 3.27 o
2 17 3 360.43 360.85 4.09 o
3 17 3 124.75 127.96 2.72 o
4 17 3 3.52 3.81 1.09 o
5 17 3 10.52 10.07 1.36 o
6 17 3 59.63 62.34 2.18 o
7 17 3 97.48 95.56 2.45 o
8 17 3 142.40 141.58 2.72 o
9 17 3 147.63 138.32 3.81 o
-14 18 3 152.12 148.12 2.18 o
-13 18 3 8.64 8.71 0.82 o
-12 18 3 271.69 275.85 2.72 o
-11 18 3 31.44 33.21 1.09 o
-10 18 3 44.76 45.46 1.36 o
-9 18 3 89.38 87.39 1.63 o
-8 18 3 9.51 9.53 0.82 o
-7 18 3 594.37 610.48 4.90 o
-6 18 3 104.31 103.73 1.63 o
-5 18 3 227.09 232.27 2.72 o
-4 18 3 129.04 135.59 2.18 o
-3 18 3 70.24 72.69 1.63 o
-2 18 3 218.83 224.64 2.45 o
-1 18 3 17.78 19.33 1.09 o
0 18 3 406.82 425.14 4.36 o
1 18 3 154.60 159.28 2.45 o
2 18 3 17.71 17.42 1.36 o
3 18 3 109.09 115.44 2.72 o
4 18 3 5.90 5.17 1.09 o
5 18 3 181.41 190.05 3.27 o
6 18 3 1.43 0.00 1.09 <
7 18 3 110.63 117.07 2.99 o
-13 19 3 4.39 5.72 0.82 o
-12 19 3 40.36 43.01 1.09 o
-11 19 3 439.60 436.06 3.54 o
-10 19 3 36.09 38.39 1.09 o
-9 19 3 7.20 8.17 0.82 o
-8 19 3 40.30 41.65 1.36 o
-7 19 3 67.11 65.61 1.63 o
-6 19 3 31.22 30.49 1.09 o
-5 19 3 71.82 72.42 1.63 o
-4 19 3 440.49 441.23 4.09 o
-3 19 3 149.75 149.48 2.18 o
-2 19 3 174.57 178.89 2.45 o
-1 19 3 34.60 37.02 1.36 o
0 19 3 6.65 8.44 1.09 o
1 19 3 87.38 87.12 2.18 o
2 19 3 217.73 219.20 3.27 o
3 19 3 43.22 45.19 1.91 o
4 19 3 137.41 138.31 2.99 o
5 19 3 214.63 218.11 3.81 o
6 19 3 35.09 32.94 2.18 o
-12 20 3 66.19 64.80 1.36 o
-11 20 3 97.98 94.47 1.63 o
-10 20 3 0.53 2.18 0.82 <
-9 20 3 0.98 1.09 0.82 <
-8 20 3 129.29 129.32 1.91 o
-7 20 3 137.58 141.85 2.18 o
-6 20 3 0.63 1.09 0.82 <
-5 20 3 160.39 168.26 2.18 o
-4 20 3 0.04 1.36 0.82 <
-3 20 3 31.64 33.21 1.36 o
-2 20 3 171.42 171.26 2.45 o
-1 20 3 119.09 118.98 2.18 o
0 20 3 179.60 181.34 3.27 o
1 20 3 0.93 1.36 1.09 <
2 20 3 23.83 27.77 1.36 o
3 20 3 33.08 34.03 1.91 o
4 20 3 56.89 55.81 1.91 o
5 20 3 49.87 46.55 2.18 o
-11 21 3 62.15 60.17 1.63 o
-10 21 3 17.04 19.60 1.09 o
-9 21 3 265.84 269.32 2.45 o
-8 21 3 111.63 109.99 1.63 o
-7 21 3 3.07 1.91 0.82 <
-6 21 3 289.26 291.11 3.00 o
-5 21 3 29.32 29.13 1.09 o
-4 21 3 275.72 275.31 2.72 o
-3 21 3 19.45 20.69 1.09 o
-2 21 3 248.81 254.06 3.00 o
-1 21 3 54.63 53.63 2.18 o
0 21 3 0.19 0.27 1.09 <
1 21 3 267.49 284.57 4.36 o
2 21 3 18.89 21.51 1.63 o
3 21 3 31.56 34.03 2.18 o
-9 22 3 7.52 6.81 0.82 o
-8 22 3 4.17 4.90 0.82 o
-7 22 3 2.96 3.27 0.82 o
-6 22 3 135.81 135.86 2.18 o
-5 22 3 33.02 34.03 1.36 o
-4 22 3 132.59 130.69 2.18 o
-3 22 3 185.47 185.16 3.27 o
-2 22 3 37.59 39.75 1.63 o
-1 22 3 31.34 33.21 1.36 o
0 22 3 21.73 21.51 1.36 o
1 22 3 26.06 28.31 3.54 o
-5 23 3 0.13 4.36 2.45 <
-4 23 3 17.18 18.51 2.72 o
0 -22 4 131.10 121.17 3.54 o
1 -22 4 0.02 0.82 1.36 <
2 -22 4 83.68 82.49 2.72 o
3 -22 4 218.16 212.95 4.08 o
4 -22 4 2.40 1.63 1.36 <
5 -22 4 8.53 10.34 2.45 o
6 -22 4 3.25 4.90 2.18 <
-2 -21 4 53.86 52.00 2.45 o
-1 -21 4 262.97 264.42 4.08 o
0 -21 4 12.32 13.07 1.36 o
1 -21 4 87.17 85.76 2.18 o
2 -21 4 34.33 33.48 1.63 o
3 -21 4 168.62 177.25 3.54 o
4 -21 4 97.98 101.55 2.18 o
5 -21 4 1.73 1.36 1.09 <
6 -21 4 288.57 289.75 3.00 o
7 -21 4 7.81 8.98 0.82 o
8 -21 4 32.05 31.58 1.36 o
9 -21 4 3.19 1.36 0.82 <
-4 -20 4 0.62 2.45 1.91 <
-3 -20 4 124.54 115.71 2.72 o
-2 -20 4 110.37 107.00 2.45 o
-1 -20 4 6.41 5.99 1.09 o
0 -20 4 64.18 65.34 2.18 o
1 -20 4 22.78 24.50 1.36 o
2 -20 4 70.91 74.32 1.91 o
3 -20 4 99.90 102.64 2.18 o
4 -20 4 105.07 108.36 2.18 o
5 -20 4 191.88 190.60 2.45 o
6 -20 4 76.98 76.50 1.63 o
7 -20 4 0.15 -0.82 0.82 <
8 -20 4 232.67 229.28 3.00 o
9 -20 4 68.20 68.33 1.63 o
10 -20 4 75.11 75.96 1.63 o
11 -20 4 22.84 23.14 1.09 o
-5 -19 4 33.22 34.03 1.91 o
-4 -19 4 110.32 108.09 2.72 o
-3 -19 4 13.61 14.97 1.36 o
-2 -19 4 68.26 66.16 2.18 o
-1 -19 4 1.28 0.82 1.09 <
0 -19 4 231.93 238.53 3.81 o
1 -19 4 427.31 432.50 4.90 o
2 -19 4 1.52 3.81 1.09 o
3 -19 4 39.47 41.65 1.63 o
4 -19 4 73.35 76.50 1.91 o
5 -19 4 114.64 118.98 2.18 o
6 -19 4 2.97 3.81 0.82 o
7 -19 4 78.47 81.40 1.91 o
8 -19 4 237.10 242.07 3.27 o
9 -19 4 3.79 4.36 0.82 o
10 -19 4 68.30 60.44 1.63 o
11 -19 4 130.75 128.78 1.91 o
12 -19 4 9.49 9.53 0.82 o
-6 -18 4 71.90 63.71 2.99 o
-5 -18 4 266.47 257.33 3.81 o
-4 -18 4 9.19 10.07 1.36 o
-3 -18 4 365.80 374.46 5.17 o
-2 -18 4 1.56 2.45 1.09 <
-1 -18 4 238.70 242.35 4.08 o
0 -18 4 165.02 175.62 3.54 o
1 -18 4 187.80 193.87 3.00 o
2 -18 4 258.75 264.95 3.27 o
3 -18 4 0.71 1.91 0.82 <
4 -18 4 210.06 218.92 2.72 o
5 -18 4 38.77 42.74 1.63 o
6 -18 4 87.09 86.03 1.91 o
7 -18 4 106.44 111.35 1.91 o
8 -18 4 0.50 0.54 0.82 <
9 -18 4 116.34 116.80 1.91 o
10 -18 4 2.69 2.99 0.82 o
11 -18 4 35.11 36.48 1.09 o
12 -18 4 0.43 1.91 0.82 <
13 -18 4 7.09 8.71 0.82 o
-7 -17 4 0.00 1.36 2.18 <
-6 -17 4 10.16 7.35 1.63 o
-5 -17 4 214.59 215.38 3.54 o
-4 -17 4 165.19 173.17 3.27 o
-3 -17 4 60.41 61.25 2.18 o
-2 -17 4 329.07 332.24 4.63 o
-1 -17 4 105.85 109.45 2.72 o
0 -17 4 0.63 2.72 1.09 <
1 -17 4 14.20 14.16 1.09 o
2 -17 4 31.29 32.12 1.36 o
3 -17 4 633.81 646.47 5.45 o
4 -17 4 104.13 107.00 1.91 o
5 -17 4 191.61 195.50 2.45 o
6 -17 4 236.97 237.45 2.72 o
7 -17 4 219.78 224.91 2.72 o
8 -17 4 19.19 20.69 1.09 o
9 -17 4 47.64 48.19 1.36 o
10 -17 4 305.12 311.80 3.00 o
11 -17 4 243.88 248.34 2.45 o
12 -17 4 96.91 93.93 1.63 o
13 -17 4 256.72 252.71 2.72 o
14 -17 4 123.78 123.34 3.00 o
-7 -16 4 64.25 59.89 2.72 o
-6 -16 4 206.32 204.49 3.27 o
-5 -16 4 65.25 65.88 2.18 o
-4 -16 4 5.84 5.72 1.09 o
-3 -16 4 13.80 14.16 1.36 o
-2 -16 4 101.98 106.18 2.45 o
-1 -16 4 214.75 208.58 3.27 o
0 -16 4 9.17 11.43 1.09 o
1 -16 4 137.41 125.79 2.18 o
2 -16 4 424.03 399.28 4.36 o
3 -16 4 0.97 1.09 0.82 <
4 -16 4 15.10 14.70 0.82 o
5 -16 4 0.66 1.91 0.82 <
6 -16 4 332.14 337.42 3.27 o
7 -16 4 62.24 63.98 1.36 o
8 -16 4 321.96 325.16 3.00 o
9 -16 4 326.49 327.61 3.00 o
10 -16 4 0.21 1.91 0.82 <
11 -16 4 0.08 1.36 0.82 <
12 -16 4 0.62 0.00 0.82 <
13 -16 4 54.04 53.36 1.36 o
14 -16 4 0.56 1.91 0.82 <
-9 -15 4 133.86 119.53 4.36 o
-8 -15 4 35.72 35.93 2.18 o
-7 -15 4 215.90 210.48 3.54 o
-6 -15 4 5.21 6.81 1.36 o
-5 -15 4 159.13 160.37 3.00 o
-4 -15 4 363.02 364.67 4.36 o
-3 -15 4 394.21 390.01 4.63 o
-2 -15 4 335.08 341.23 4.36 o
-1 -15 4 3.79 3.27 0.82 o
0 -15 4 441.32 429.80 4.90 o
1 -15 4 26.16 26.95 1.36 o
2 -15 4 189.67 187.06 2.45 o
3 -15 4 637.82 648.11 5.99 o
4 -15 4 93.45 90.93 1.63 o
5 -15 4 282.58 293.01 2.72 o
6 -15 4 64.63 65.07 1.36 o
7 -15 4 264.78 275.85 2.72 o
8 -15 4 0.45 1.09 0.82 <
9 -15 4 90.71 94.20 1.91 o
10 -15 4 177.17 176.16 2.18 o
11 -15 4 6.94 7.89 0.82 o
12 -15 4 0.39 1.63 0.82 <
13 -15 4 24.70 25.59 1.09 o
14 -15 4 48.21 47.10 1.09 o
15 -15 4 0.98 0.54 1.09 <
-10 -14 4 90.43 91.75 3.27 o
-9 -14 4 1.27 -1.09 1.36 <
-8 -14 4 46.47 41.38 1.91 o
-7 -14 4 120.87 119.52 2.72 o
-6 -14 4 112.69 116.25 2.45 o
-5 -14 4 1.26 0.54 1.09 <
-4 -14 4 522.18 516.46 5.18 o
-3 -14 4 278.11 270.68 3.54 o
-2 -14 4 78.21 77.05 1.91 o
-1 -14 4 258.50 253.79 3.54 o
0 -14 4 11.71 13.07 1.09 o
1 -14 4 317.20 310.18 3.27 o
2 -14 4 212.80 208.03 2.45 o
3 -14 4 477.37 470.39 4.09 o
4 -14 4 533.74 527.08 4.09 o
5 -14 4 337.02 339.87 2.72 o
6 -14 4 27.45 27.22 0.82 o
7 -14 4 391.11 380.75 3.27 o
8 -14 4 262.89 264.96 2.72 o
9 -14 4 171.74 178.34 2.45 o
10 -14 4 142.51 140.76 2.18 o
11 -14 4 751.91 777.88 5.99 o
12 -14 4 323.27 336.32 3.27 o
13 -14 4 10.75 10.89 0.82 o
14 -14 4 133.93 129.60 1.63 o
15 -14 4 188.57 193.05 2.72 o
-11 -13 4 84.78 77.05 2.45 o
-10 -13 4 0.33 0.27 1.36 <
-9 -13 4 22.48 20.15 1.63 o
-8 -13 4 317.43 313.72 4.08 o
-7 -13 4 111.06 110.26 2.45 o
-6 -13 4 47.08 46.83 1.91 o
-5 -13 4 68.43 66.97 1.63 o
-4 -13 4 9.31 8.17 0.82 o
-3 -13 4 18.96 16.88 1.09 o
-2 -13 4 7.37 7.89 0.82 o
-1 -13 4 493.78 467.40 4.63 o
0 -13 4 796.21 743.59 5.72 o
1 -13 4 3.82 4.36 0.54 o
2 -13 4 1.74 3.54 0.54 o
3 -13 4 27.28 24.50 0.82 o
4 -13 4 64.83 62.07 1.09 o
5 -13 4 35.44 38.11 1.09 o
6 -13 4 57.07 53.63 1.09 o
7 -13 4 438.97 434.42 3.54 o
8 -13 4 30.72 35.12 1.09 o
9 -13 4 94.80 92.02 1.63 o
10 -13 4 115.79 111.36 1.91 o
11 -13 4 0.62 2.45 0.82 <
12 -13 4 3.59 2.99 0.82 o
13 -13 4 53.04 50.36 1.36 o
14 -13 4 97.43 98.01 1.63 o
15 -13 4 5.26 5.17 0.82 o
16 -13 4 171.96 163.10 3.54 o
-12 -12 4 25.37 29.95 1.91 o
-11 -12 4 23.26 22.60 1.63 o
-10 -12 4 2.43 3.54 1.09 o
-9 -12 4 408.23 402.54 4.63 o
-8 -12 4 36.53 37.30 1.36 o
-7 -12 4 24.11 22.05 1.36 o
-6 -12 4 957.48 948.42 8.72 o
-5 -12 4 64.66 58.26 1.63 o
-4 -12 4 326.63 314.27 3.54 o
-3 -12 4 7.77 8.17 0.82 o
-2 -12 4 1190.32 1143.28 8.18 o
-1 -12 4 152.53 148.12 1.63 o
0 -12 4 172.21 162.01 1.63 o
1 -12 4 1185.72 1202.14 7.36 o
2 -12 4 39.12 39.47 0.82 o
3 -12 4 125.83 127.96 1.36 o
4 -12 4 166.74 166.90 1.36 o
5 -12 4 581.37 574.78 3.27 o
6 -12 4 65.33 68.88 1.09 o
7 -12 4 30.50 31.03 0.82 o
8 -12 4 685.15 680.84 5.18 o
9 -12 4 0.86 1.09 0.54 <
10 -12 4 0.51 1.91 0.54 o
11 -12 4 7.51 6.53 0.82 o
12 -12 4 6.10 7.62 0.82 o
13 -12 4 13.99 14.70 0.82 o
14 -12 4 61.36 63.70 1.36 o
15 -12 4 184.67 174.53 2.18 o
16 -12 4 57.94 56.63 1.91 o
-13 -11 4 220.96 219.20 4.08 o
-12 -11 4 122.23 120.34 2.45 o
-11 -11 4 3.35 2.99 1.09 <
-10 -11 4 500.96 503.09 5.99 o
-9 -11 4 1.89 3.81 1.09 o
-8 -11 4 29.52 30.22 1.36 o
-7 -11 4 9.26 10.89 0.82 o
-6 -11 4 663.94 644.04 5.72 o
-5 -11 4 258.32 249.98 3.00 o
-4 -11 4 150.64 145.94 1.91 o
-3 -11 4 798.29 777.91 5.45 o
-2 -11 4 270.31 265.23 2.18 o
-1 -11 4 23.17 23.14 0.54 o
0 -11 4 16.46 16.61 0.54 o
1 -11 4 316.93 306.64 2.18 o
2 -11 4 1365.25 1347.18 6.82 o
3 -11 4 366.67 364.12 2.45 o
4 -11 4 353.47 347.23 2.18 o
5 -11 4 503.76 503.63 3.00 o
6 -11 4 573.91 574.77 3.54 o
7 -11 4 6.30 7.35 0.54 o
8 -11 4 13.19 13.61 0.54 o
9 -11 4 754.09 754.73 4.90 o
10 -11 4 732.31 728.56 4.90 o
11 -11 4 204.69 207.49 2.18 o
12 -11 4 409.60 410.44 3.00 o
13 -11 4 246.66 254.06 2.18 o
14 -11 4 10.45 11.43 0.82 o
15 -11 4 70.57 68.06 1.63 o
16 -11 4 217.18 205.31 2.18 o
-14 -10 4 135.80 130.42 3.00 o
-13 -10 4 4.85 4.63 1.09 o
-12 -10 4 63.90 65.61 2.18 o
-11 -10 4 1.87 2.18 1.09 <
-10 -10 4 360.42 362.76 4.63 o
-9 -10 4 43.12 43.56 1.91 o
-8 -10 4 139.77 135.04 2.18 o
-7 -10 4 138.32 135.04 2.18 o
-6 -10 4 41.26 41.11 1.36 o
-5 -10 4 0.73 2.45 0.54 o
-4 -10 4 1.11 1.09 0.54 <
-3 -10 4 243.39 235.27 2.18 o
-2 -10 4 67.40 59.62 1.09 o
-1 -10 4 72.43 70.78 0.82 o
0 -10 4 21.62 23.14 0.54 o
1 -10 4 612.35 589.79 3.27 o
2 -10 4 32.22 30.22 0.54 o
3 -10 4 1.46 3.54 0.27 o
4 -10 4 0.02 0.82 0.27 o
5 -10 4 330.61 324.07 1.91 o
6 -10 4 360.33 358.12 2.18 o
7 -10 4 244.48 230.91 1.63 o
8 -10 4 320.35 308.27 2.18 o
9 -10 4 36.65 33.48 0.82 o
10 -10 4 47.05 46.55 1.09 o
11 -10 4 0.36 1.63 0.54 o
12 -10 4 44.42 45.46 1.09 o
13 -10 4 10.91 12.25 0.82 o
14 -10 4 104.08 105.36 1.36 o
15 -10 4 21.39 21.51 0.82 o
16 -10 4 6.28 7.89 0.82 o
17 -10 4 20.43 19.60 1.09 o
-15 -9 4 294.59 288.15 5.72 o
-14 -9 4 18.81 20.96 1.36 o
-13 -9 4 0.26 -0.82 1.09 <
-12 -9 4 5.74 7.08 1.36 o
-11 -9 4 558.55 585.94 6.81 o
-10 -9 4 77.46 80.04 2.45 o
-9 -9 4 12.67 11.43 1.09 o
-8 -9 4 822.48 821.83 8.17 o
-7 -9 4 3.83 6.81 0.82 o
-6 -9 4 43.72 38.39 1.09 o
-5 -9 4 953.29 931.75 6.00 o
-4 -9 4 1424.69 1405.89 9.00 o
-3 -9 4 318.05 309.09 2.18 o
-2 -9 4 1.61 3.54 0.27 o
-1 -9 4 2114.18 2137.70 10.92 o
0 -9 4 78.08 79.50 0.82 o
1 -9 4 64.96 61.53 0.82 o
2 -9 4 1870.14 1862.66 9.28 o
3 -9 4 674.19 673.75 3.54 o
4 -9 4 296.55 305.00 1.91 o
5 -9 4 150.70 149.75 1.09 o
6 -9 4 1275.26 1288.97 6.00 o
7 -9 4 4.39 4.36 0.54 o
8 -9 4 6.64 7.62 0.54 o
9 -9 4 569.41 542.36 3.54 o
10 -9 4 28.57 29.40 0.82 o
11 -9 4 34.02 33.48 0.82 o
12 -9 4 68.65 72.96 1.36 o
13 -9 4 245.14 243.17 2.18 o
14 -9 4 1.44 3.27 0.82 o
15 -9 4 120.76 126.06 1.91 o
16 -9 4 93.35 93.93 1.63 o
17 -9 4 5.91 4.36 0.82 o
-15 -8 4 87.58 86.85 2.18 o
-14 -8 4 68.44 67.79 2.18 o
-13 -8 4 10.19 8.71 1.09 o
-12 -8 4 788.13 815.52 8.72 o
-11 -8 4 81.74 85.49 2.18 o
-10 -8 4 2.72 3.27 1.09 o
-9 -8 4 36.08 35.66 1.36 o
-8 -8 4 204.45 198.50 2.72 o
-7 -8 4 237.15 226.82 2.18 o
-6 -8 4 3.51 4.63 0.54 o
-5 -8 4 1302.58 1288.46 7.36 o
-4 -8 4 305.46 300.64 2.18 o
-3 -8 4 268.76 261.15 1.91 o
-2 -8 4 256.74 256.51 1.63 o
-1 -8 4 14.05 17.97 0.54 o
0 -8 4 497.17 481.32 2.72 o
1 -8 4 329.73 329.80 1.91 o
2 -8 4 1222.94 1234.79 6.00 o
3 -8 4 1095.45 1112.45 5.45 o
4 -8 4 1188.13 1189.42 5.45 o
5 -8 4 6.53 7.62 0.27 o
6 -8 4 508.74 493.56 2.72 o
7 -8 4 275.31 276.12 1.91 o
8 -8 4 339.72 330.06 2.18 o
9 -8 4 220.26 209.66 1.63 o
10 -8 4 1501.42 1505.33 8.45 o
11 -8 4 702.61 686.30 4.36 o
12 -8 4 22.38 19.33 0.82 o
13 -8 4 96.20 94.20 1.36 o
14 -8 4 269.88 276.39 2.72 o
15 -8 4 101.39 105.09 1.63 o
16 -8 4 1.36 2.45 0.54 o
17 -8 4 192.04 192.51 2.18 o
-16 -7 4 130.01 120.35 3.27 o
-15 -7 4 6.70 5.17 1.09 o
-14 -7 4 107.19 105.91 2.72 o
-13 -7 4 10.43 10.34 1.36 o
-12 -7 4 128.14 130.96 2.72 o
-11 -7 4 63.04 59.08 2.18 o
-10 -7 4 10.62 11.43 1.09 o
-9 -7 4 303.19 297.65 3.54 o
-8 -7 4 12.53 12.25 0.82 o
-7 -7 4 167.26 157.65 1.63 o
-6 -7 4 3.61 5.17 0.54 o
-5 -7 4 9.81 8.71 0.54 o
-4 -7 4 74.95 77.05 0.82 o
-3 -7 4 73.60 75.41 0.82 o
-2 -7 4 625.85 612.45 3.27 o
-1 -7 4 845.85 819.75 3.82 o
0 -7 4 1.18 3.27 0.27 o
1 -7 4 330.28 314.83 1.63 o
2 -7 4 6.09 8.44 0.27 o
3 -7 4 12.17 11.71 0.27 o
4 -7 4 208.53 215.93 1.36 o
5 -7 4 0.04 1.36 0.27 o
6 -7 4 367.20 366.03 1.91 o
7 -7 4 73.13 75.68 0.82 o
8 -7 4 1.06 2.18 0.54 o
9 -7 4 92.79 90.39 1.09 o
10 -7 4 80.98 75.41 1.09 o
11 -7 4 93.68 89.03 1.36 o
12 -7 4 11.82 12.25 0.54 o
13 -7 4 46.82 50.36 1.36 o
14 -7 4 8.82 10.34 0.82 o
15 -7 4 102.10 106.18 1.63 o
16 -7 4 2.68 2.72 0.54 o
17 -7 4 66.69 68.88 1.36 o
-16 -6 4 25.82 25.32 1.36 o
-15 -6 4 4.38 3.27 1.09 o
-14 -6 4 302.15 313.17 4.63 o
-13 -6 4 143.52 154.38 2.99 o
-12 -6 4 0.93 3.27 1.09 o
-11 -6 4 8.42 9.53 1.09 o
-10 -6 4 945.89 952.76 9.27 o
-9 -6 4 31.08 29.67 1.09 o
-8 -6 4 2.22 2.72 0.54 o
-7 -6 4 2512.46 2544.19 15.56 o
-6 -6 4 320.30 310.99 2.45 o
-5 -6 4 124.21 118.98 1.09 o
-4 -6 4 8.45 11.43 0.27 o
-3 -6 4 3940.91 4133.36 19.70 o
-2 -6 4 433.78 428.73 2.18 o
-1 -6 4 329.75 309.66 1.63 o
0 -6 4 3921.94 4265.78 18.89 o
1 -6 4 182.91 190.61 1.09 o
2 -6 4 3.27 4.36 0.27 o
3 -6 4 393.75 389.76 1.91 o
4 -6 4 2864.82 3003.18 12.57 o
5 -6 4 194.67 197.95 1.09 o
6 -6 4 198.89 202.04 1.36 o
7 -6 4 1559.75 1583.14 7.36 o
8 -6 4 4.52 5.99 0.27 o
9 -6 4 53.20 53.36 0.82 o
10 -6 4 45.51 43.56 0.82 o
11 -6 4 199.99 196.86 1.63 o
12 -6 4 2.91 4.08 0.54 o
13 -6 4 263.25 272.85 2.45 o
14 -6 4 399.99 407.17 3.54 o
15 -6 4 60.09 60.44 1.36 o
16 -6 4 83.40 84.40 1.36 o
17 -6 4 4.22 5.72 0.82 o
-16 -5 4 12.99 14.70 1.09 o
-15 -5 4 0.28 1.09 1.09 <
-14 -5 4 249.32 254.60 3.81 o
-13 -5 4 105.07 102.91 2.45 o
-12 -5 4 0.14 2.18 0.82 <
-11 -5 4 641.91 633.13 6.81 o
-10 -5 4 0.10 1.63 0.82 <
-9 -5 4 46.25 44.92 1.09 o
-8 -5 4 4.16 5.17 0.54 o
-7 -5 4 1041.86 1033.24 6.00 o
-6 -5 4 109.03 106.18 1.09 o
-5 -5 4 155.01 148.66 1.36 o
-4 -5 4 1060.69 1076.21 5.18 o
-3 -5 4 616.53 623.64 3.00 o
-2 -5 4 33.34 34.30 0.54 o
-1 -5 4 127.36 121.16 0.82 o
0 -5 4 1038.15 1055.70 4.91 o
1 -5 4 1812.92 1870.64 8.19 o
2 -5 4 804.64 819.00 3.54 o
3 -5 4 190.01 196.87 1.09 o
4 -5 4 1042.32 1047.09 4.36 o
5 -5 4 878.45 873.46 4.09 o
6 -5 4 22.40 23.14 0.54 o
7 -5 4 1.98 2.99 0.27 o
8 -5 4 893.59 888.64 4.36 o
9 -5 4 1445.20 1427.46 7.09 o
10 -5 4 99.76 99.10 1.09 o
11 -5 4 499.03 488.66 3.27 o
12 -5 4 228.96 224.65 2.18 o
13 -5 4 21.00 20.69 0.82 o
14 -5 4 97.48 99.37 1.63 o
15 -5 4 265.33 267.13 2.45 o
16 -5 4 270.67 274.49 2.45 o
17 -5 4 102.17 105.09 1.63 o
-17 -4 4 21.44 23.41 2.18 o
-16 -4 4 134.56 135.86 2.45 o
-15 -4 4 38.87 38.93 1.91 o
-14 -4 4 32.58 33.76 1.63 o
-13 -4 4 347.30 350.22 4.09 o
-12 -4 4 20.01 17.42 1.09 o
-11 -4 4 317.74 315.90 3.81 o
-10 -4 4 1.93 4.36 0.82 o
-9 -4 4 228.87 223.55 1.91 o
-8 -4 4 5.85 7.08 0.54 o
-7 -4 4 6.44 7.62 0.54 o
-6 -4 4 229.01 224.92 1.63 o
-5 -4 4 172.59 171.54 1.36 o
-4 -4 4 103.90 101.83 0.82 o
-3 -4 4 27.59 28.58 0.54 o
-2 -4 4 138.10 140.77 0.82 o
-1 -4 4 63.48 62.62 0.54 o
0 -4 4 513.42 519.83 2.45 o
1 -4 4 507.19 498.57 2.45 o
2 -4 4 490.60 509.99 2.18 o
3 -4 4 106.53 106.18 0.82 o
4 -4 4 62.26 65.88 0.54 o
5 -4 4 617.52 608.64 3.00 o
6 -4 4 66.11 62.89 0.54 o
7 -4 4 238.21 239.62 1.36 o
8 -4 4 172.91 160.64 1.09 o
9 -4 4 515.62 502.82 2.72 o
10 -4 4 3.10 4.08 0.54 o
11 -4 4 12.62 13.07 0.54 o
12 -4 4 21.93 22.32 0.82 o
13 -4 4 9.24 9.53 0.82 o
14 -4 4 2.98 4.08 0.82 o
15 -4 4 31.40 32.40 1.09 o
16 -4 4 0.93 1.36 0.54 <
17 -4 4 1.47 3.81 0.82 o
-17 -3 4 56.44 47.10 2.18 o
-16 -3 4 479.83 505.81 5.99 o
-15 -3 4 7.50 8.17 1.36 o
-14 -3 4 11.17 11.71 1.09 o
-13 -3 4 8.58 10.62 0.82 o
-12 -3 4 1017.37 1061.33 7.90 o
-11 -3 4 19.16 21.23 0.82 o
-10 -3 4 4.95 7.08 0.54 o
-9 -3 4 1678.02 1743.41 9.27 o
-8 -3 4 31.98 34.30 0.82 o
-7 -3 4 10.34 11.71 0.27 o
-6 -3 4 1463.92 1510.59 7.36 o
-5 -3 4 2840.55 2969.05 13.66 o
-4 -3 4 261.10 255.17 1.36 o
-3 -3 4 13.16 17.97 0.27 o
-2 -3 4 7122.91 7636.55 34.97 o
-1 -3 4 564.68 588.83 3.00 o
0 -3 4 3.00 3.81 0.27 o
1 -3 4 3149.80 3373.72 15.33 o
2 -3 4 1896.78 2000.44 8.74 o
3 -3 4 562.54 561.54 2.45 o
4 -3 4 144.41 153.29 0.82 o
5 -3 4 3754.22 3932.32 16.42 o
6 -3 4 7.40 10.34 0.27 o
7 -3 4 93.28 98.28 0.82 o
8 -3 4 740.85 726.10 3.81 o
9 -3 4 233.72 225.19 1.63 o
10 -3 4 31.17 30.76 0.82 o
11 -3 4 91.73 91.75 1.36 o
12 -3 4 484.30 481.02 4.09 o
13 -3 4 16.13 16.06 0.82 o
14 -3 4 356.97 370.11 3.00 o
15 -3 4 176.39 182.15 2.18 o
16 -3 4 6.36 7.89 0.82 o
17 -3 4 27.90 27.22 1.09 o
-17 -2 4 3.54 5.17 1.09 o
-16 -2 4 84.90 84.40 1.91 o
-15 -2 4 29.36 29.40 1.36 o
-14 -2 4 24.00 23.68 1.09 o
-13 -2 4 676.75 699.36 5.72 o
-12 -2 4 45.58 43.01 1.09 o
-11 -2 4 53.23 50.36 1.36 o
-10 -2 4 1.91 2.18 0.54 o
-9 -2 4 214.45 215.11 1.63 o
-8 -2 4 120.24 115.44 1.09 o
-7 -2 4 0.78 2.72 0.27 o
-6 -2 4 1359.94 1356.93 6.27 o
-5 -2 4 171.23 175.62 1.09 o
-4 -2 4 165.98 163.10 1.09 o
-3 -2 4 99.13 105.37 0.82 o
-2 -2 4 61.90 58.26 0.54 o
-1 -2 4 340.15 330.40 1.91 o
0 -2 4 701.72 710.57 3.27 o
1 -2 4 1591.37 1610.86 7.37 o
2 -2 4 1153.59 1203.37 5.45 o
3 -2 4 1650.59 1653.68 6.82 o
4 -2 4 79.77 73.78 0.54 o
5 -2 4 915.84 892.36 3.82 o
6 -2 4 101.46 101.01 0.82 o
7 -2 4 615.05 594.97 3.00 o
8 -2 4 129.00 127.42 1.09 o
9 -2 4 1592.35 1575.79 7.91 o
10 -2 4 764.84 730.75 4.36 o
11 -2 4 2.10 2.45 0.54 o
12 -2 4 107.59 102.64 1.63 o
13 -2 4 163.80 161.19 1.91 o
14 -2 4 194.44 196.86 2.18 o
15 -2 4 4.57 4.08 0.82 o
16 -2 4 159.66 164.45 2.45 o
17 -2 4 201.68 204.22 2.45 o
-17 -1 4 33.21 34.57 1.63 o
-16 -1 4 43.18 43.01 1.36 o
-15 -1 4 262.49 268.77 2.72 o
-14 -1 4 9.10 8.17 0.82 o
-13 -1 4 154.92 166.90 2.18 o
-12 -1 4 413.81 405.81 3.54 o
-11 -1 4 0.39 1.36 0.54 <
-10 -1 4 47.62 46.28 0.82 o
-9 -1 4 25.70 25.32 0.54 o
-8 -1 4 716.21 708.10 4.09 o
-7 -1 4 134.53 129.87 1.09 o
-6 -1 4 14.86 14.16 0.27 o
-5 -1 4 627.22 632.66 3.27 o
-4 -1 4 510.19 518.44 2.45 o
-3 -1 4 273.82 249.47 1.63 o
-2 -1 4 271.93 260.91 1.36 o
-1 -1 4 342.66 332.05 1.91 o
0 -1 4 2235.69 2294.64 10.66 o
1 -1 4 62.63 68.61 0.54 o
2 -1 4 258.05 254.10 1.36 o
3 -1 4 734.81 772.65 3.54 o
4 -1 4 103.85 99.92 0.54 o
5 -1 4 12.34 16.88 0.27 o
6 -1 4 15.27 16.06 0.27 o
7 -1 4 304.59 298.47 1.63 o
8 -1 4 242.33 237.99 1.63 o
9 -1 4 408.79 396.27 2.45 o
10 -1 4 214.68 205.85 1.91 o
11 -1 4 0.01 -0.54 0.54 <
12 -1 4 0.43 1.91 0.54 o
13 -1 4 8.74 9.80 0.82 o
14 -1 4 0.03 0.54 0.82 <
15 -1 4 2.21 1.91 0.82 <
16 -1 4 249.88 254.33 3.00 o
17 -1 4 61.48 56.90 1.36 o
-18 0 4 189.56 188.16 5.99 o
-17 0 4 35.43 35.94 1.36 o
-16 0 4 26.70 25.86 1.09 o
-15 0 4 387.87 401.98 3.81 o
-14 0 4 300.94 324.61 3.27 o
-13 0 4 6.44 5.44 0.82 o
-12 0 4 63.34 61.53 1.36 o
-11 0 4 1139.24 1176.48 7.90 o
-10 0 4 40.43 41.38 0.82 o
-9 0 4 0.19 1.36 0.27 o
-8 0 4 3615.28 3818.92 19.68 o
-7 0 4 716.35 736.47 4.09 o
-6 0 4 51.15 52.00 0.54 o
-5 0 4 157.12 149.76 1.09 o
-4 0 4 6436.42 6818.13 29.42 o
-3 0 4 1054.13 1086.99 5.18 o
-2 0 4 719.07 694.78 3.27 o
-1 0 4 7046.82 7340.90 34.74 o
0 0 4 377.12 384.65 1.91 o
1 0 4 194.95 183.82 1.09 o
2 0 4 360.85 367.18 1.91 o
3 0 4 5815.25 6069.94 25.55 o
4 0 4 627.04 604.61 2.72 o
5 0 4 321.83 338.52 1.63 o
6 0 4 1972.63 2051.63 8.46 o
7 0 4 9.25 9.26 0.27 o
8 0 4 126.23 128.24 1.09 o
9 0 4 52.30 49.28 0.82 o
10 0 4 478.93 472.30 3.27 o
11 0 4 11.98 13.34 0.54 o
12 0 4 440.77 446.95 3.54 o
13 0 4 432.26 443.68 3.27 o
14 0 4 49.05 50.09 1.36 o
15 0 4 111.11 114.62 1.91 o
16 0 4 4.98 4.63 0.82 o
17 0 4 59.98 58.26 1.36 o
-18 1 4 18.22 19.33 1.63 o
-17 1 4 0.87 0.27 0.82 <
-16 1 4 2.01 2.72 0.82 o
-15 1 4 140.37 144.30 1.91 o
-14 1 4 30.99 30.49 1.09 o
-13 1 4 7.98 8.98 0.82 o
-12 1 4 290.57 286.48 2.45 o
-11 1 4 0.20 1.36 0.54 <
-10 1 4 12.73 13.07 0.54 o
-9 1 4 24.51 23.68 0.54 o
-8 1 4 704.79 693.12 3.81 o
-7 1 4 6.17 7.35 0.27 o
-6 1 4 94.79 88.48 0.82 o
-5 1 4 506.54 514.60 2.72 o
-4 1 4 559.97 553.09 2.45 o
-3 1 4 212.81 198.25 1.09 o
-2 1 4 460.19 453.08 2.45 o
-1 1 4 543.33 531.91 3.00 o
0 1 4 1475.45 1487.32 6.55 o
1 1 4 651.83 651.90 3.27 o
2 1 4 17.92 20.96 0.27 o
3 1 4 879.33 896.01 3.82 o
4 1 4 382.20 360.08 1.63 o
5 1 4 279.44 278.59 1.36 o
6 1 4 115.67 110.81 0.82 o
7 1 4 461.50 448.05 2.45 o
8 1 4 1217.50 1192.11 6.00 o
9 1 4 6.36 7.89 0.54 o
10 1 4 456.39 439.60 3.00 o
11 1 4 114.35 109.45 1.36 o
12 1 4 124.55 121.16 1.63 o
13 1 4 190.87 190.60 2.18 o
14 1 4 94.96 95.83 1.63 o
15 1 4 248.95 252.42 2.72 o
16 1 4 28.87 28.31 1.09 o
17 1 4 131.51 123.89 3.54 o
-18 2 4 82.00 81.40 2.72 o
-17 2 4 166.78 167.99 2.45 o
-16 2 4 3.76 4.08 0.82 o
-15 2 4 53.11 56.90 1.36 o
-14 2 4 903.50 924.10 7.09 o
-13 2 4 44.61 44.92 1.09 o
-12 2 4 138.52 138.31 1.63 o
-11 2 4 46.70 44.65 1.09 o
-10 2 4 257.62 256.78 2.18 o
-9 2 4 85.75 83.31 1.09 o
-8 2 4 160.19 152.47 1.36 o
-7 2 4 1255.32 1267.28 6.27 o
-6 2 4 509.89 514.31 2.72 o
-5 2 4 54.38 53.63 0.54 o
-4 2 4 209.73 217.85 1.09 o
-3 2 4 66.31 68.61 0.54 o
-2 2 4 269.75 275.62 1.36 o
-1 2 4 60.12 65.07 0.54 o
0 2 4 1831.41 1854.62 7.65 o
1 2 4 2283.47 2384.07 10.11 o
2 2 4 897.44 883.82 3.82 o
3 2 4 40.67 42.20 0.54 o
4 2 4 293.30 297.93 1.36 o
5 2 4 2.07 4.08 0.27 o
6 2 4 115.40 108.63 0.82 o
7 2 4 320.29 314.81 1.91 o
8 2 4 1454.93 1451.20 7.36 o
9 2 4 53.30 54.45 0.82 o
10 2 4 253.84 249.98 2.18 o
11 2 4 2.42 3.27 0.54 o
12 2 4 27.00 24.77 0.82 o
13 2 4 1.33 2.45 0.82 <
14 2 4 62.11 62.34 1.36 o
15 2 4 42.44 44.10 1.36 o
16 2 4 4.39 5.17 0.82 o
-18 3 4 73.24 66.70 1.63 o
-17 3 4 429.98 439.05 4.09 o
-16 3 4 2.57 3.54 0.82 o
-15 3 4 10.38 9.80 0.82 o
-14 3 4 0.73 1.91 0.82 <
-13 3 4 1036.77 1091.61 7.63 o
-12 3 4 28.34 28.58 0.82 o
-11 3 4 18.37 16.61 0.82 o
-10 3 4 1538.05 1605.14 9.82 o
-9 3 4 65.12 65.88 0.82 o
-8 3 4 13.12 12.79 0.54 o
-7 3 4 1186.45 1219.18 5.45 o
-6 3 4 2886.33 3036.72 13.12 o
-5 3 4 322.87 323.55 1.63 o
-4 3 4 40.96 45.19 0.54 o
-3 3 4 6984.56 7425.53 31.65 o
-2 3 4 842.27 873.70 4.09 o
-1 3 4 0.99 1.09 0.27 o
0 3 4 2522.71 2720.60 12.03 o
1 3 4 1968.99 2078.21 9.01 o
2 3 4 747.78 751.92 3.27 o
3 3 4 156.24 164.46 0.82 o
4 3 4 3774.35 3962.46 16.42 o
5 3 4 1.50 2.99 0.27 o
6 3 4 93.23 95.83 0.82 o
7 3 4 581.09 580.77 3.54 o
8 3 4 289.68 282.12 1.91 o
9 3 4 7.02 7.35 0.54 o
10 3 4 111.96 112.17 1.36 o
11 3 4 463.97 469.57 3.54 o
12 3 4 5.87 6.53 0.82 o
13 3 4 355.92 363.03 3.27 o
14 3 4 135.43 139.13 1.91 o
15 3 4 11.76 13.07 0.82 o
16 3 4 16.02 13.88 1.09 o
-18 4 4 5.68 6.81 0.82 o
-17 4 4 35.80 38.66 1.36 o
-16 4 4 6.95 7.08 0.82 o
-15 4 4 6.36 6.26 0.82 o
-14 4 4 211.69 214.84 2.45 o
-13 4 4 50.29 49.00 1.36 o
-12 4 4 214.79 208.85 1.91 o
-11 4 4 14.51 13.61 0.54 o
-10 4 4 149.39 147.03 1.36 o
-9 4 4 13.27 14.16 0.54 o
-8 4 4 0.61 0.82 0.27 o
-7 4 4 229.90 228.73 1.36 o
-6 4 4 104.42 102.91 0.82 o
-5 4 4 52.34 52.82 0.54 o
-4 4 4 28.75 29.95 0.54 o
-3 4 4 66.90 68.88 0.54 o
-2 4 4 5.44 5.17 0.27 o
-1 4 4 1085.39 1095.42 4.64 o
0 4 4 161.26 161.47 1.09 o
1 4 4 324.29 332.55 1.63 o
2 4 4 173.48 166.91 1.09 o
3 4 4 216.93 221.65 1.09 o
4 4 4 1277.19 1271.74 5.73 o
5 4 4 4.17 4.63 0.27 o
6 4 4 799.91 789.65 4.09 o
7 4 4 4.91 4.90 0.27 o
8 4 4 733.21 713.83 4.09 o
9 4 4 255.06 240.45 2.18 o
10 4 4 110.21 108.09 1.63 o
11 4 4 253.82 255.15 2.45 o
12 4 4 39.26 37.57 1.09 o
13 4 4 216.58 223.28 2.45 o
14 4 4 33.62 35.12 1.36 o
15 4 4 54.50 54.18 1.36 o
16 4 4 109.76 111.08 3.27 o
-18 5 4 0.37 1.91 0.82 <
-17 5 4 62.69 62.62 1.36 o
-16 5 4 396.92 408.25 3.81 o
-15 5 4 47.95 47.10 1.36 o
-14 5 4 102.61 104.27 1.63 o
-13 5 4 766.15 762.38 5.45 o
-12 5 4 0.97 1.63 0.54 o
-11 5 4 10.76 10.89 0.54 o
-10 5 4 73.00 69.42 1.09 o
-9 5 4 1203.32 1179.00 5.72 o
-8 5 4 273.55 269.59 1.63 o
-7 5 4 24.93 24.77 0.54 o
-6 5 4 1066.90 1090.64 5.18 o
-5 5 4 565.99 573.19 2.72 o
-4 5 4 0.49 2.45 0.27 o
-3 5 4 6.39 7.35 0.27 o
-2 5 4 952.48 974.86 4.36 o
-1 5 4 2469.55 2576.58 10.11 o
0 5 4 161.77 170.18 0.82 o
1 5 4 523.83 535.59 2.45 o
2 5 4 770.47 788.92 3.54 o
3 5 4 309.57 311.82 1.63 o
4 5 4 59.71 57.99 0.54 o
5 5 4 18.03 21.78 0.54 o
6 5 4 723.25 719.82 4.09 o
7 5 4 384.40 374.74 2.45 o
8 5 4 668.75 649.21 3.81 o
9 5 4 247.49 242.89 2.18 o
10 5 4 15.40 14.43 0.82 o
11 5 4 28.53 29.67 1.09 o
12 5 4 0.51 2.18 0.82 <
13 5 4 60.94 59.35 1.63 o
14 5 4 7.33 7.89 0.82 o
15 5 4 383.01 371.22 3.81 o
-18 6 4 16.11 16.88 1.09 o
-17 6 4 11.45 9.53 0.82 o
-16 6 4 212.45 222.73 2.72 o
-15 6 4 202.00 213.75 2.45 o
-14 6 4 0.66 1.63 0.82 <
-13 6 4 54.44 52.81 1.36 o
-12 6 4 841.45 851.55 5.99 o
-11 6 4 60.13 58.80 1.09 o
-10 6 4 0.41 1.09 0.54 <
-9 6 4 2070.93 2124.31 10.10 o
-8 6 4 473.51 468.21 2.45 o
-7 6 4 194.11 187.33 1.36 o
-6 6 4 77.89 82.76 0.82 o
-5 6 4 3703.66 3930.77 18.05 o
-4 6 4 617.91 619.55 3.00 o
-3 6 4 302.27 284.86 1.63 o
-2 6 4 3488.82 3801.62 16.69 o
-1 6 4 407.48 418.38 1.91 o
0 6 4 10.28 12.52 0.27 o
1 6 4 171.76 173.72 1.09 o
2 6 4 2876.20 3048.53 13.94 o
3 6 4 404.19 411.81 2.45 o
4 6 4 187.11 183.52 1.36 o
5 6 4 1374.47 1414.56 7.09 o
6 6 4 45.98 43.83 0.82 o
7 6 4 16.58 18.24 0.54 o
8 6 4 6.46 7.08 0.54 o
9 6 4 214.91 216.47 2.18 o
10 6 4 30.12 30.49 1.09 o
11 6 4 265.72 271.22 2.72 o
12 6 4 336.41 351.03 3.54 o
13 6 4 29.45 30.49 1.09 o
14 6 4 65.32 60.17 1.63 o
15 6 4 0.39 1.91 1.09 <
-18 7 4 40.91 39.75 1.36 o
-17 7 4 2.14 1.91 0.82 <
-16 7 4 27.43 29.67 1.09 o
-15 7 4 0.12 1.36 0.82 <
-14 7 4 54.22 53.09 1.36 o
-13 7 4 16.07 13.61 0.82 o
-12 7 4 13.97 13.07 0.82 o
-11 7 4 272.26 262.51 2.18 o
-10 7 4 12.13 12.25 0.54 o
-9 7 4 162.72 156.29 1.36 o
-8 7 4 9.57 9.80 0.54 o
-7 7 4 9.05 10.07 0.27 o
-6 7 4 11.93 13.07 0.27 o
-5 7 4 242.19 242.90 1.36 o
-4 7 4 1109.17 1102.98 5.18 o
-3 7 4 332.14 317.01 1.63 o
-2 7 4 3.02 4.63 0.27 o
-1 7 4 432.58 410.75 1.91 o
0 7 4 120.08 119.80 0.82 o
1 7 4 18.84 20.96 0.54 o
2 7 4 321.54 323.53 1.91 o
3 7 4 3.18 5.17 0.27 o
4 7 4 542.35 546.70 3.27 o
5 7 4 497.12 488.38 3.00 o
6 7 4 84.05 78.95 1.09 o
7 7 4 433.41 412.90 2.72 o
8 7 4 19.95 22.32 0.82 o
9 7 4 326.24 314.00 2.72 o
10 7 4 9.84 8.98 0.82 o
11 7 4 272.17 277.48 3.27 o
12 7 4 335.60 337.96 3.81 o
13 7 4 2.21 4.08 0.82 o
14 7 4 110.12 107.82 2.18 o
15 7 4 0.99 0.27 1.36 <
-18 8 4 188.55 182.99 2.45 o
-17 8 4 28.13 26.68 1.09 o
-16 8 4 32.64 37.57 1.36 o
-15 8 4 987.83 1023.92 8.18 o
-14 8 4 37.47 38.39 1.09 o
-13 8 4 43.37 44.92 1.36 o
-12 8 4 89.33 86.58 1.36 o
-11 8 4 285.75 278.03 2.45 o
-10 8 4 203.16 193.32 1.63 o
-9 8 4 115.88 109.45 1.09 o
-8 8 4 1412.87 1404.78 7.09 o
-7 8 4 376.10 370.11 2.18 o
-6 8 4 130.82 131.50 1.09 o
-5 8 4 266.93 262.23 1.63 o
-4 8 4 3.04 4.36 0.27 o
-3 8 4 359.33 355.68 1.91 o
-2 8 4 25.86 30.22 0.54 o
-1 8 4 1610.08 1649.46 7.64 o
0 8 4 1456.83 1476.21 7.09 o
1 8 4 707.83 718.74 3.81 o
2 8 4 100.25 95.83 0.82 o
3 8 4 102.38 103.73 1.09 o
4 8 4 43.25 47.37 0.82 o
5 8 4 58.18 57.72 0.82 o
6 8 4 437.93 425.70 3.00 o
7 8 4 1291.66 1297.47 9.27 o
8 8 4 115.88 115.98 1.63 o
9 8 4 295.95 301.19 3.54 o
10 8 4 0.54 1.91 0.82 <
11 8 4 78.59 77.59 1.91 o
12 8 4 0.59 3.54 0.82 o
13 8 4 95.46 93.66 2.18 o
14 8 4 61.83 59.62 2.18 o
-18 9 4 231.07 231.75 3.27 o
-17 9 4 5.05 5.44 0.82 o
-16 9 4 0.23 1.91 0.82 <
-15 9 4 10.33 11.98 0.82 o
-14 9 4 542.51 569.04 4.36 o
-13 9 4 105.59 105.64 1.63 o
-12 9 4 0.79 2.18 0.54 o
-11 9 4 679.42 681.11 4.63 o
-10 9 4 5.55 5.44 0.54 o
-9 9 4 36.03 35.94 0.82 o
-8 9 4 518.41 516.17 3.00 o
-7 9 4 1470.92 1462.14 7.09 o
-6 9 4 490.64 476.39 2.45 o
-5 9 4 10.08 13.07 0.27 o
-4 9 4 2013.63 2074.68 8.73 o
-3 9 4 214.26 211.84 1.36 o
-2 9 4 74.18 71.87 0.82 o
-1 9 4 1167.21 1185.29 5.72 o
0 9 4 843.89 855.64 4.63 o
1 9 4 640.94 652.47 3.81 o
2 9 4 134.75 130.96 1.09 o
3 9 4 1238.92 1273.37 6.82 o
4 9 4 4.04 5.44 0.54 o
5 9 4 6.32 7.35 0.54 o
6 9 4 377.55 372.57 3.54 o
7 9 4 103.44 102.10 1.63 o
8 9 4 0.73 1.63 0.82 <
9 9 4 106.40 108.63 2.18 o
10 9 4 192.77 196.86 2.72 o
11 9 4 1.40 1.63 0.82 <
12 9 4 104.06 107.81 2.18 o
13 9 4 52.71 55.26 1.91 o
14 9 4 0.22 1.91 1.63 <
-17 10 4 62.70 60.44 1.36 o
-16 10 4 2.26 1.91 0.82 <
-15 10 4 11.91 11.98 0.82 o
-14 10 4 50.90 53.90 1.36 o
-13 10 4 384.89 385.37 3.27 o
-12 10 4 46.85 41.38 1.09 o
-11 10 4 22.43 23.14 0.82 o
-10 10 4 190.98 179.44 1.63 o
-9 10 4 3.03 3.54 0.54 o
-8 10 4 5.03 6.26 0.54 o
-7 10 4 72.47 71.06 1.09 o
-6 10 4 374.47 356.22 2.18 o
-5 10 4 0.79 2.45 0.27 o
-4 10 4 97.23 96.11 0.82 o
-3 10 4 120.70 120.34 1.09 o
-2 10 4 458.03 439.06 2.45 o
-1 10 4 45.48 44.65 0.82 o
0 10 4 67.46 67.52 0.82 o
1 10 4 57.10 55.26 0.82 o
2 10 4 214.79 212.66 1.63 o
3 10 4 1030.22 1017.69 5.72 o
4 10 4 54.69 53.09 1.09 o
5 10 4 493.18 490.56 3.81 o
6 10 4 58.26 59.35 1.36 o
7 10 4 258.18 252.16 2.72 o
8 10 4 13.68 14.70 1.09 o
9 10 4 206.53 210.48 2.72 o
10 10 4 342.60 348.31 3.81 o
11 10 4 0.53 0.00 1.09 <
12 10 4 158.32 164.18 2.72 o
13 10 4 89.73 90.66 2.72 o
-17 11 4 365.21 358.70 3.27 o
-16 11 4 47.12 49.28 1.36 o
-15 11 4 25.84 26.95 1.09 o
-14 11 4 565.62 578.04 4.36 o
-13 11 4 5.06 8.17 0.82 o
-12 11 4 6.86 7.08 0.82 o
-11 11 4 61.34 58.53 1.09 o
-10 11 4 892.85 879.67 5.45 o
-9 11 4 300.84 288.39 2.18 o
-8 11 4 52.36 54.45 1.09 o
-7 11 4 805.99 788.82 4.36 o
-6 11 4 118.71 117.62 1.09 o
-5 11 4 1.69 2.45 0.54 o
-4 11 4 5.22 6.26 0.54 o
-3 11 4 441.08 437.41 2.72 o
-2 11 4 1358.76 1342.80 7.63 o
-1 11 4 89.94 95.56 1.09 o
0 11 4 573.69 568.23 3.27 o
1 11 4 253.71 254.88 1.91 o
2 11 4 283.46 288.65 2.18 o
3 11 4 6.59 6.81 0.54 o
4 11 4 19.78 20.96 0.82 o
5 11 4 464.20 464.94 3.81 o
6 11 4 227.75 228.73 2.45 o
7 11 4 593.01 597.68 5.18 o
8 11 4 180.61 177.80 2.45 o
9 11 4 50.65 49.00 1.91 o
10 11 4 7.59 8.44 1.09 o
11 11 4 2.41 3.81 1.09 o
12 11 4 47.05 46.28 1.91 o
13 11 4 6.70 6.26 1.63 o
-17 12 4 57.44 55.81 1.36 o
-16 12 4 37.19 40.56 1.36 o
-15 12 4 22.37 22.60 0.82 o
-14 12 4 10.04 11.16 0.82 o
-13 12 4 349.58 357.30 2.72 o
-12 12 4 61.42 59.89 1.36 o
-11 12 4 14.37 14.97 0.82 o
-10 12 4 633.71 639.39 4.09 o
-9 12 4 86.40 81.95 1.36 o
-8 12 4 404.77 394.64 3.00 o
-7 12 4 3.29 4.63 0.54 o
-6 12 4 1177.17 1157.44 6.27 o
-5 12 4 224.80 215.66 1.63 o
-4 12 4 152.65 145.94 1.36 o
-3 12 4 906.57 936.88 6.00 o
-2 12 4 114.46 111.90 1.36 o
-1 12 4 266.79 266.59 1.91 o
0 12 4 102.79 107.27 1.09 o
1 12 4 650.60 655.73 4.09 o
2 12 4 149.86 150.84 1.91 o
3 12 4 29.31 28.31 0.82 o
4 12 4 568.82 581.32 4.36 o
5 12 4 35.17 37.57 1.09 o
6 12 4 38.88 41.65 1.36 o
7 12 4 0.14 2.18 0.82 <
8 12 4 6.94 5.99 1.09 o
9 12 4 37.51 42.47 1.91 o
10 12 4 55.12 57.99 2.18 o
11 12 4 160.26 165.54 3.27 o
12 12 4 24.32 25.59 1.63 o
-17 13 4 1.21 3.54 1.09 o
-16 13 4 3.07 4.08 0.82 o
-15 13 4 134.35 127.96 1.63 o
-14 13 4 4.03 3.54 0.82 o
-13 13 4 42.25 46.01 1.09 o
-12 13 4 380.12 378.56 3.00 o
-11 13 4 10.07 10.34 0.82 o
-10 13 4 3.45 2.72 0.54 o
-9 13 4 46.52 44.65 1.09 o
-8 13 4 42.21 38.39 1.09 o
-7 13 4 28.73 29.67 0.82 o
-6 13 4 215.23 212.66 1.91 o
-5 13 4 1030.42 993.99 6.27 o
-4 13 4 155.12 140.76 1.63 o
-3 13 4 87.83 83.85 1.36 o
-2 13 4 34.43 34.30 0.82 o
-1 13 4 0.55 2.45 0.54 o
0 13 4 98.19 95.83 1.36 o
1 13 4 250.54 247.52 2.18 o
2 13 4 138.30 136.13 1.63 o
3 13 4 332.60 326.52 3.00 o
4 13 4 478.39 478.30 4.09 o
5 13 4 0.81 3.27 0.82 o
6 13 4 104.35 105.36 2.18 o
7 13 4 106.54 112.99 2.18 o
8 13 4 248.62 249.97 3.81 o
9 13 4 14.14 13.88 1.36 o
10 13 4 194.38 197.95 3.54 o
11 13 4 327.94 322.18 3.81 o
-16 14 4 528.54 529.32 7.90 o
-15 14 4 17.52 16.33 0.82 o
-14 14 4 23.77 22.05 0.82 o
-13 14 4 63.90 62.62 1.36 o
-12 14 4 256.13 250.79 2.45 o
-11 14 4 96.56 98.83 1.63 o
-10 14 4 18.86 17.97 0.82 o
-9 14 4 659.49 605.63 4.09 o
-8 14 4 150.82 149.21 1.63 o
-7 14 4 30.96 33.21 1.09 o
-6 14 4 181.38 179.43 1.91 o
-5 14 4 1.95 4.36 0.54 o
-4 14 4 221.94 213.48 2.18 o
-3 14 4 78.65 78.95 1.36 o
-2 14 4 784.08 780.10 5.45 o
-1 14 4 450.01 448.86 3.54 o
0 14 4 205.25 209.12 2.18 o
1 14 4 37.69 36.75 1.09 o
2 14 4 66.06 68.61 1.36 o
3 14 4 64.88 68.61 1.36 o
4 14 4 56.37 60.17 1.63 o
5 14 4 323.33 322.98 3.54 o
6 14 4 519.45 539.06 5.99 o
7 14 4 77.37 79.22 2.18 o
8 14 4 97.66 96.92 2.18 o
9 14 4 3.12 1.63 1.09 <
10 14 4 49.10 47.91 1.91 o
11 14 4 0.76 0.27 1.09 <
-16 15 4 12.35 8.71 1.09 o
-15 15 4 122.33 122.52 2.18 o
-14 15 4 119.98 116.53 1.63 o
-13 15 4 36.78 37.57 1.09 o
-12 15 4 181.60 179.16 2.18 o
-11 15 4 6.15 8.17 0.82 o
-10 15 4 120.25 122.52 1.91 o
-9 15 4 183.71 186.24 2.18 o
-8 15 4 377.24 379.11 3.27 o
-7 15 4 429.27 434.42 3.27 o
-6 15 4 10.88 10.07 0.82 o
-5 15 4 439.24 442.60 3.54 o
-4 15 4 30.20 29.40 1.09 o
-3 15 4 199.60 198.50 1.91 o
-2 15 4 432.68 442.59 3.54 o
-1 15 4 148.67 149.21 1.91 o
0 15 4 527.20 542.34 4.36 o
1 15 4 19.00 19.87 0.82 o
2 15 4 261.59 272.31 2.72 o
3 15 4 0.60 0.54 0.82 <
4 15 4 109.96 118.16 2.18 o
5 15 4 163.78 170.44 3.00 o
6 15 4 2.92 3.54 1.09 o
7 15 4 25.65 26.95 1.36 o
8 15 4 28.08 25.86 1.36 o
9 15 4 29.53 30.49 1.63 o
10 15 4 1.61 1.36 1.09 <
-15 16 4 25.60 26.95 1.63 o
-14 16 4 382.36 370.40 3.27 o
-13 16 4 39.89 40.56 1.36 o
-12 16 4 6.64 8.17 0.82 o
-11 16 4 171.59 167.72 2.18 o
-10 16 4 20.61 19.33 1.09 o
-9 16 4 24.34 24.50 1.09 o
-8 16 4 31.10 30.76 1.09 o
-7 16 4 405.70 399.82 3.54 o
-6 16 4 26.65 25.86 1.09 o
-5 16 4 156.22 160.91 2.18 o
-4 16 4 193.65 163.92 2.18 o
-3 16 4 73.30 70.78 1.36 o
-2 16 4 76.47 66.70 1.36 o
-1 16 4 33.23 35.12 1.09 o
0 16 4 111.92 113.81 1.91 o
1 16 4 191.59 193.87 2.72 o
2 16 4 637.26 654.65 5.45 o
3 16 4 148.41 147.57 2.18 o
4 16 4 143.49 141.85 2.45 o
5 16 4 115.44 119.52 2.72 o
6 16 4 147.14 150.84 2.99 o
7 16 4 0.54 -0.27 1.09 <
8 16 4 147.89 149.21 3.00 o
9 16 4 229.47 223.30 3.54 o
-14 17 4 11.77 11.71 0.82 o
-13 17 4 5.68 4.90 0.82 o
-12 17 4 24.88 25.59 1.09 o
-11 17 4 393.50 398.99 3.54 o
-10 17 4 137.96 141.58 1.91 o
-9 17 4 36.79 39.75 1.36 o
-8 17 4 300.03 306.90 3.27 o
-7 17 4 6.75 7.89 0.82 o
-6 17 4 13.30 13.61 0.82 o
-5 17 4 19.41 19.06 1.09 o
-4 17 4 109.21 112.44 1.91 o
-3 17 4 539.83 551.06 4.63 o
-2 17 4 34.29 36.75 1.09 o
-1 17 4 276.90 286.74 3.27 o
0 17 4 54.34 55.54 1.91 o
1 17 4 97.64 100.73 2.18 o
2 17 4 13.32 14.43 1.09 o
3 17 4 0.84 1.09 1.09 <
4 17 4 139.57 142.12 2.99 o
5 17 4 88.20 86.30 2.45 o
6 17 4 249.83 255.42 3.81 o
7 17 4 83.60 83.31 2.18 o
8 17 4 25.81 26.95 1.63 o
-14 18 4 56.97 60.17 3.54 o
-13 18 4 24.52 25.32 0.82 o
-12 18 4 73.99 74.87 1.36 o
-11 18 4 187.79 188.96 2.18 o
-10 18 4 1.23 2.18 0.82 <
-9 18 4 382.84 392.72 3.54 o
-8 18 4 4.10 3.54 0.82 o
-7 18 4 226.48 227.91 2.72 o
-6 18 4 99.95 99.92 1.91 o
-5 18 4 226.71 232.00 2.72 o
-4 18 4 256.50 263.86 3.00 o
-3 18 4 2.12 3.54 0.82 o
-2 18 4 319.56 327.33 3.54 o
-1 18 4 66.67 71.33 1.63 o
0 18 4 97.62 99.64 1.91 o
1 18 4 91.42 92.57 1.91 o
2 18 4 11.96 11.71 1.09 o
3 18 4 151.31 156.83 2.99 o
4 18 4 0.03 -0.54 1.09 <
5 18 4 100.55 99.92 2.45 o
6 18 4 1.95 -0.27 1.09 <
7 18 4 9.97 10.89 1.36 o
-13 19 4 210.90 184.90 4.36 o
-12 19 4 9.60 10.34 0.82 o
-11 19 4 5.08 5.99 0.82 o
-10 19 4 41.10 40.02 1.09 o
-9 19 4 110.78 110.26 1.91 o
-8 19 4 21.93 20.69 1.09 o
-7 19 4 168.76 168.81 2.18 o
-6 19 4 474.37 474.47 4.36 o
-5 19 4 64.41 62.07 1.36 o
-4 19 4 63.55 64.79 1.63 o
-3 19 4 0.64 2.18 0.82 <
-2 19 4 26.46 26.95 1.09 o
-1 19 4 86.88 90.11 1.91 o
0 19 4 226.81 231.72 2.72 o
1 19 4 108.45 112.99 2.45 o
2 19 4 118.14 120.61 2.45 o
3 19 4 212.38 211.57 3.27 o
4 19 4 3.25 4.08 1.09 o
5 19 4 25.96 26.13 1.63 o
-11 20 4 3.95 5.99 0.82 o
-10 20 4 180.73 179.71 2.18 o
-9 20 4 32.61 35.12 1.09 o
-8 20 4 0.05 0.00 0.82 <
-7 20 4 35.33 38.66 1.36 o
-6 20 4 0.60 2.99 0.82 o
-5 20 4 35.03 35.39 1.09 o
-4 20 4 59.98 61.80 1.63 o
-3 20 4 216.98 220.28 2.72 o
-2 20 4 109.92 111.35 1.91 o
-1 20 4 31.49 35.12 1.36 o
0 20 4 0.01 0.00 1.09 <
1 20 4 38.22 39.20 1.63 o
2 20 4 8.65 7.08 1.36 o
3 20 4 39.66 39.75 1.91 o
4 20 4 87.17 76.78 2.99 o
-10 21 4 72.11 67.25 1.63 o
-9 21 4 30.64 34.30 1.36 o
-8 21 4 193.37 191.69 2.18 o
-7 21 4 46.96 45.74 1.36 o
-6 21 4 111.21 108.09 1.91 o
-5 21 4 7.17 7.62 0.82 o
-4 21 4 230.63 232.00 2.72 o
-3 21 4 127.83 129.33 1.91 o
-2 21 4 0.55 2.45 0.82 <
-1 21 4 304.04 312.09 4.36 o
0 21 4 10.40 8.98 1.36 o
1 21 4 61.37 61.80 2.45 o
2 21 4 1.57 1.63 2.18 <
-7 22 4 18.01 17.69 1.09 o
-6 22 4 91.55 89.85 1.91 o
-5 22 4 93.10 91.48 2.45 o
-4 22 4 6.16 7.62 1.36 o
-3 22 4 25.76 27.22 1.63 o
-2 22 4 21.31 15.24 1.36 o
-1 22 4 50.75 46.01 3.81 o
-1 -21 5 173.10 170.46 3.54 o
0 -21 5 34.70 35.12 2.18 o
1 -21 5 152.84 152.48 3.00 o
2 -21 5 13.57 15.52 1.36 o
3 -21 5 1.70 -0.54 1.09 <
4 -21 5 263.51 271.77 4.36 o
5 -21 5 18.34 19.33 1.63 o
6 -21 5 56.05 58.80 2.18 o
7 -21 5 0.70 1.09 1.36 <
-3 -20 5 0.61 1.36 1.36 <
-2 -20 5 23.97 25.59 1.63 o
-1 -20 5 14.11 11.98 1.36 o
0 -20 5 101.93 100.74 2.72 o
1 -20 5 87.64 89.57 2.45 o
2 -20 5 38.91 40.56 2.18 o
3 -20 5 123.93 116.80 2.99 o
4 -20 5 43.18 43.83 1.91 o
5 -20 5 16.20 15.24 1.09 o
6 -20 5 134.64 137.49 1.91 o
7 -20 5 109.07 108.09 1.91 o
8 -20 5 188.25 190.88 2.18 o
9 -20 5 32.07 31.31 1.36 o
-4 -19 5 56.52 49.00 2.18 o
-3 -19 5 0.00 1.09 1.09 <
-2 -19 5 208.74 218.92 3.54 o
-1 -19 5 322.43 321.89 4.63 o
0 -19 5 2.71 2.72 1.09 <
1 -19 5 40.55 45.46 2.18 o
2 -19 5 13.25 15.24 1.63 o
3 -19 5 91.31 93.93 2.45 o
4 -19 5 36.13 37.30 1.36 o
5 -19 5 113.36 114.62 1.91 o
6 -19 5 320.44 317.26 3.27 o
7 -19 5 0.65 1.91 0.82 <
8 -19 5 44.19 44.37 1.36 o
9 -19 5 61.47 60.71 1.36 o
10 -19 5 69.37 72.15 1.36 o
11 -19 5 1.22 0.54 0.82 <
-6 -18 5 30.75 27.50 2.18 o
-5 -18 5 384.48 387.56 5.45 o
-4 -18 5 49.91 47.64 2.18 o
-3 -18 5 134.86 131.23 2.72 o
-2 -18 5 37.15 36.21 1.91 o
-1 -18 5 46.88 47.37 2.18 o
0 -18 5 321.91 332.51 4.90 o
1 -18 5 15.57 16.06 1.36 o
2 -18 5 453.45 471.47 5.17 o
3 -18 5 9.13 10.07 1.09 o
4 -18 5 95.25 96.38 1.91 o
5 -18 5 15.28 18.24 1.09 o
6 -18 5 10.15 11.71 1.09 o
7 -18 5 167.88 170.99 2.45 o
8 -18 5 2.88 2.99 0.82 o
9 -18 5 82.39 83.85 1.63 o
10 -18 5 2.09 2.45 0.82 <
11 -18 5 3.99 4.63 0.82 o
12 -18 5 16.32 17.69 0.82 o
-7 -17 5 198.47 188.70 5.17 o
-6 -17 5 54.92 59.62 2.45 o
-5 -17 5 31.33 32.40 1.91 o
-4 -17 5 248.15 252.15 3.54 o
-3 -17 5 54.06 55.81 2.18 o
-2 -17 5 8.05 9.53 1.36 o
-1 -17 5 34.09 35.12 1.63 o
0 -17 5 108.72 109.72 2.72 o
1 -17 5 329.09 329.79 4.63 o
2 -17 5 75.14 77.32 1.91 o
3 -17 5 216.34 218.11 2.45 o
4 -17 5 313.95 317.80 3.27 o
5 -17 5 242.36 247.52 2.72 o
6 -17 5 103.79 110.54 1.91 o
7 -17 5 22.86 24.23 1.09 o
8 -17 5 260.68 267.68 3.27 o
9 -17 5 186.83 188.15 2.45 o
10 -17 5 13.71 12.52 0.82 o
11 -17 5 307.11 297.65 3.00 o
12 -17 5 201.59 200.95 2.45 o
13 -17 5 3.52 5.44 0.82 o
-8 -16 5 173.74 158.74 4.63 o
-7 -16 5 7.30 7.62 1.36 o
-6 -16 5 0.35 1.91 1.09 <
-5 -16 5 0.73 -0.82 1.09 <
-4 -16 5 160.93 163.64 3.00 o
-3 -16 5 249.24 243.17 3.81 o
-2 -16 5 5.12 6.26 1.09 o
-1 -16 5 104.75 106.72 2.45 o
0 -16 5 206.26 204.49 3.54 o
1 -16 5 49.33 47.91 1.63 o
2 -16 5 2.69 2.99 0.82 o
3 -16 5 22.61 20.42 1.09 o
4 -16 5 264.18 267.68 3.00 o
5 -16 5 67.75 69.42 1.63 o
6 -16 5 222.73 223.55 2.72 o
7 -16 5 316.09 316.71 3.27 o
8 -16 5 8.59 11.16 0.82 o
9 -16 5 0.00 2.45 0.82 <
10 -16 5 16.46 17.97 0.82 o
11 -16 5 65.25 65.88 1.63 o
12 -16 5 13.38 12.25 0.82 o
13 -16 5 142.27 142.95 1.91 o
-9 -15 5 321.72 303.38 5.17 o
-8 -15 5 4.33 3.81 1.36 <
-7 -15 5 222.69 220.29 3.54 o
-6 -15 5 51.20 51.73 2.18 o
-5 -15 5 186.84 184.61 3.27 o
-4 -15 5 102.48 101.01 2.45 o
-3 -15 5 44.49 45.46 1.91 o
-2 -15 5 728.49 743.00 8.45 o
-1 -15 5 69.62 67.24 2.18 o
0 -15 5 142.72 147.30 2.72 o
1 -15 5 145.82 152.47 2.18 o
2 -15 5 87.46 83.31 1.63 o
3 -15 5 271.21 276.94 3.00 o
4 -15 5 3.60 4.63 0.82 o
5 -15 5 392.64 397.36 3.81 o
6 -15 5 2.02 2.72 0.82 o
7 -15 5 20.32 22.05 1.09 o
8 -15 5 156.49 158.46 2.18 o
9 -15 5 4.96 6.26 0.82 o
10 -15 5 30.27 30.22 1.09 o
11 -15 5 43.40 46.82 1.36 o
12 -15 5 146.36 147.30 1.91 o
13 -15 5 1.39 2.18 0.82 <
14 -15 5 8.16 8.71 0.82 o
-10 -14 5 39.46 39.75 2.45 o
-9 -14 5 148.78 138.31 2.99 o
-8 -14 5 67.45 69.69 2.18 o
-7 -14 5 14.07 14.16 1.36 o
-6 -14 5 505.14 509.63 5.99 o
-5 -14 5 247.19 253.51 3.54 o
-4 -14 5 16.25 16.61 1.36 o
-3 -14 5 91.06 90.39 2.45 o
-2 -14 5 127.76 123.61 2.72 o
-1 -14 5 351.36 346.41 4.63 o
0 -14 5 207.82 203.67 2.72 o
1 -14 5 199.57 197.95 2.18 o
2 -14 5 327.31 316.72 3.00 o
3 -14 5 234.23 232.00 2.45 o
4 -14 5 115.32 109.45 1.63 o
5 -14 5 154.62 156.29 1.91 o
6 -14 5 370.58 380.19 3.54 o
7 -14 5 498.64 515.90 4.63 o
8 -14 5 161.14 159.83 2.45 o
9 -14 5 588.29 603.67 4.90 o
10 -14 5 232.23 240.17 2.72 o
11 -14 5 22.96 22.05 0.82 o
12 -14 5 146.19 145.39 1.91 o
13 -14 5 304.20 309.90 3.00 o
14 -14 5 173.20 175.35 2.18 o
15 -14 5 43.33 40.29 3.27 o
-11 -13 5 41.89 41.11 2.45 o
-10 -13 5 218.12 216.74 3.81 o
-9 -13 5 30.83 30.49 1.63 o
-8 -13 5 12.50 13.61 1.36 o
-7 -13 5 40.24 42.47 1.91 o
-6 -13 5 9.68 9.26 1.36 o
-5 -13 5 15.77 14.97 1.09 o
-4 -13 5 2.92 3.81 0.82 o
-3 -13 5 355.57 348.59 4.36 o
-2 -13 5 557.56 529.83 5.45 o
-1 -13 5 9.18 8.71 0.82 o
0 -13 5 12.95 14.70 0.82 o
1 -13 5 0.34 0.54 0.54 <
2 -13 5 46.77 43.01 1.36 o
3 -13 5 183.11 180.79 2.18 o
4 -13 5 95.35 92.02 1.36 o
5 -13 5 572.83 564.70 4.09 o
6 -13 5 3.78 4.36 0.54 o
7 -13 5 44.59 45.74 1.36 o
8 -13 5 43.09 45.74 1.36 o
9 -13 5 92.18 95.83 1.63 o
10 -13 5 21.02 21.51 0.82 o
11 -13 5 98.14 97.19 1.63 o
12 -13 5 57.00 56.63 1.36 o
13 -13 5 7.42 7.89 0.82 o
14 -13 5 118.89 117.62 1.63 o
15 -13 5 24.81 20.42 1.36 o
-12 -12 5 20.68 22.87 1.63 o
-11 -12 5 455.22 459.76 5.72 o
-10 -12 5 2.74 4.63 1.09 o
-9 -12 5 3.98 5.44 1.09 o
-8 -12 5 205.55 208.30 3.27 o
-7 -12 5 159.20 152.20 2.72 o
-6 -12 5 437.39 451.04 5.17 o
-5 -12 5 108.16 101.01 2.18 o
-4 -12 5 730.49 713.85 7.36 o
-3 -12 5 14.68 13.07 1.09 o
-2 -12 5 1.48 1.09 0.82 <
-1 -12 5 1156.42 1144.34 9.27 o
0 -12 5 173.53 166.36 1.63 o
1 -12 5 531.22 521.63 3.54 o
2 -12 5 30.19 32.12 0.82 o
3 -12 5 614.21 606.67 4.36 o
4 -12 5 1.52 2.72 0.54 o
5 -12 5 13.01 13.07 0.82 o
6 -12 5 776.78 769.47 5.72 o
7 -12 5 72.15 71.06 1.36 o
8 -12 5 29.99 34.03 1.09 o
9 -12 5 2.33 3.81 0.82 o
10 -12 5 18.34 18.51 0.82 o
11 -12 5 0.81 0.54 0.82 <
12 -12 5 44.22 43.56 1.09 o
13 -12 5 233.23 233.09 2.18 o
14 -12 5 20.07 21.23 0.82 o
15 -12 5 26.05 27.22 1.36 o
-13 -11 5 0.44 -0.54 1.63 <
-12 -11 5 159.88 154.65 3.00 o
-11 -11 5 21.63 22.05 1.36 o
-10 -11 5 83.86 87.66 2.45 o
-9 -11 5 2.41 5.44 1.09 o
-8 -11 5 524.45 528.17 6.27 o
-7 -11 5 77.27 82.22 2.18 o
-6 -11 5 87.73 90.12 2.18 o
-5 -11 5 593.89 577.79 5.72 o
-4 -11 5 96.58 97.19 1.91 o
-3 -11 5 74.03 74.32 1.91 o
-2 -11 5 71.71 66.70 1.36 o
-1 -11 5 500.43 478.57 3.27 o
0 -11 5 604.49 582.96 3.54 o
1 -11 5 266.01 265.50 1.91 o
2 -11 5 434.69 420.80 2.72 o
3 -11 5 623.99 615.12 3.54 o
4 -11 5 604.38 601.22 3.54 o
5 -11 5 158.88 156.29 1.63 o
6 -11 5 176.69 173.71 1.91 o
7 -11 5 617.63 623.03 4.63 o
8 -11 5 587.12 585.42 4.36 o
9 -11 5 26.39 23.96 0.82 o
10 -11 5 465.96 468.49 3.54 o
11 -11 5 401.23 412.34 3.00 o
12 -11 5 1.97 2.18 0.54 o
13 -11 5 8.71 8.17 0.82 o
14 -11 5 229.15 228.18 2.18 o
15 -11 5 346.35 333.62 3.27 o
16 -11 5 90.09 87.12 2.99 o
-14 -10 5 32.90 33.49 4.08 o
-13 -10 5 10.61 9.26 1.36 o
-12 -10 5 277.75 278.03 4.36 o
-11 -10 5 23.96 23.68 1.36 o
-10 -10 5 61.45 60.71 2.18 o
-9 -10 5 117.14 113.26 2.45 o
-8 -10 5 4.41 5.17 1.09 o
-7 -10 5 14.71 16.06 1.09 o
-6 -10 5 38.71 38.93 1.63 o
-5 -10 5 340.62 329.79 3.81 o
-4 -10 5 115.25 101.55 1.63 o
-3 -10 5 7.48 6.26 0.82 o
-2 -10 5 1.40 3.54 0.54 o
-1 -10 5 301.76 286.48 2.18 o
0 -10 5 10.87 11.43 0.54 o
1 -10 5 1.80 3.27 0.54 o
2 -10 5 48.19 46.83 0.82 o
3 -10 5 185.16 182.43 1.63 o
4 -10 5 347.45 348.86 2.45 o
5 -10 5 82.78 77.32 1.09 o
6 -10 5 391.17 377.20 2.45 o
7 -10 5 26.65 22.87 0.82 o
8 -10 5 27.60 25.86 0.82 o
9 -10 5 17.08 16.06 0.82 o
10 -10 5 58.14 57.72 1.36 o
11 -10 5 89.40 89.84 1.36 o
12 -10 5 103.24 103.18 1.36 o
13 -10 5 60.78 62.62 1.36 o
14 -10 5 54.04 55.26 1.36 o
15 -10 5 5.76 7.35 0.82 o
16 -10 5 4.74 7.62 0.82 o
-14 -9 5 4.87 5.17 1.36 o
-13 -9 5 160.16 162.82 3.00 o
-12 -9 5 2.73 1.63 1.09 <
-11 -9 5 12.84 13.61 1.36 o
-10 -9 5 969.35 1006.20 9.81 o
-9 -9 5 35.52 37.57 1.63 o
-8 -9 5 129.18 126.06 2.45 o
-7 -9 5 103.72 99.92 1.91 o
-6 -9 5 710.22 683.58 7.08 o
-5 -9 5 47.79 43.01 1.09 o
-4 -9 5 18.60 15.52 0.82 o
-3 -9 5 2500.93 2521.76 14.74 o
-2 -9 5 251.65 243.71 1.91 o
-1 -9 5 26.59 26.13 0.54 o
0 -9 5 381.38 383.46 2.45 o
1 -9 5 596.44 597.94 3.27 o
2 -9 5 311.51 324.06 2.18 o
3 -9 5 0.31 1.63 0.27 o
4 -9 5 1615.40 1641.56 8.73 o
5 -9 5 6.33 8.98 0.54 o
6 -9 5 22.42 21.78 0.54 o
7 -9 5 435.13 416.71 2.72 o
8 -9 5 48.50 47.10 1.09 o
9 -9 5 3.87 5.17 0.54 o
10 -9 5 150.72 157.37 1.63 o
11 -9 5 549.26 555.43 3.81 o
12 -9 5 4.54 4.90 0.82 o
13 -9 5 103.90 109.72 1.63 o
14 -9 5 30.10 29.67 1.09 o
15 -9 5 1.62 2.99 0.82 o
16 -9 5 8.93 9.26 0.82 o
-15 -8 5 27.79 26.68 1.63 o
-14 -8 5 364.78 364.95 5.17 o
-13 -8 5 18.82 19.60 1.36 o
-12 -8 5 0.31 0.82 1.09 <
-11 -8 5 23.53 23.68 1.36 o
-10 -8 5 236.93 237.17 3.54 o
-9 -8 5 104.65 103.46 2.18 o
-8 -8 5 17.76 16.33 1.09 o
-7 -8 5 1113.77 1096.86 9.81 o
-6 -8 5 310.93 297.92 2.72 o
-5 -8 5 82.28 78.14 1.36 o
-4 -8 5 40.10 40.29 0.82 o
-3 -8 5 325.41 308.55 2.18 o
-2 -8 5 428.83 411.54 2.45 o
-1 -8 5 274.32 270.13 1.91 o
0 -8 5 417.14 411.80 2.45 o
1 -8 5 663.94 662.29 3.54 o
2 -8 5 810.19 810.09 4.36 o
3 -8 5 121.66 117.89 1.09 o
4 -8 5 123.75 122.25 1.09 o
5 -8 5 397.45 393.82 2.18 o
6 -8 5 971.15 963.39 4.91 o
7 -8 5 197.92 193.60 1.63 o
8 -8 5 1190.76 1167.82 6.54 o
9 -8 5 522.23 513.73 3.81 o
10 -8 5 49.60 45.46 1.09 o
11 -8 5 104.13 95.56 1.36 o
12 -8 5 418.81 428.69 3.27 o
13 -8 5 428.63 436.05 3.54 o
14 -8 5 41.81 46.28 1.36 o
15 -8 5 201.89 207.76 2.18 o
16 -8 5 151.73 148.39 1.63 o
-15 -7 5 0.55 1.91 1.09 <
-14 -7 5 135.52 138.04 2.72 o
-13 -7 5 7.93 8.98 1.36 o
-12 -7 5 50.87 52.27 2.18 o
-11 -7 5 139.89 145.12 2.99 o
-10 -7 5 0.01 2.99 1.09 <
-9 -7 5 91.76 86.30 2.18 o
-8 -7 5 0.10 0.27 0.82 <
-7 -7 5 10.23 10.89 0.82 o
-6 -7 5 53.16 53.09 1.36 o
-5 -7 5 36.06 36.21 0.82 o
-4 -7 5 264.86 254.88 1.91 o
-3 -7 5 514.93 486.76 2.72 o
-2 -7 5 5.43 6.81 0.27 o
-1 -7 5 82.19 78.14 0.82 o
0 -7 5 2.63 3.27 0.27 o
1 -7 5 16.61 16.88 0.54 o
2 -7 5 612.85 597.70 3.27 o
3 -7 5 3.25 4.36 0.27 o
4 -7 5 555.06 554.34 3.00 o
5 -7 5 46.86 42.74 0.54 o
6 -7 5 11.03 13.07 0.54 o
7 -7 5 44.27 46.28 0.82 o
8 -7 5 11.89 14.16 0.54 o
9 -7 5 139.51 135.04 1.36 o
10 -7 5 22.73 22.05 0.82 o
11 -7 5 6.08 6.53 0.54 o
12 -7 5 2.97 4.90 0.82 o
13 -7 5 44.59 47.91 1.36 o
14 -7 5 28.77 27.77 1.09 o
15 -7 5 62.96 66.16 1.36 o
16 -7 5 29.00 27.22 0.82 o
17 -7 5 48.23 50.09 3.81 o
-16 -6 5 17.10 16.88 1.91 o
-15 -6 5 76.47 78.95 2.18 o
-14 -6 5 0.15 0.54 1.09 <
-13 -6 5 2.81 4.63 1.09 o
-12 -6 5 999.29 1055.83 9.54 o
-11 -6 5 3.67 4.36 1.09 o
-10 -6 5 67.36 63.16 1.91 o
-9 -6 5 519.31 524.90 5.72 o
-8 -6 5 493.52 476.39 4.90 o
-7 -6 5 294.21 280.21 2.45 o
-6 -6 5 65.74 61.25 1.09 o
-5 -6 5 2179.01 2227.49 12.55 o
-4 -6 5 67.02 65.07 0.82 o
-3 -6 5 27.85 31.58 0.54 o
-2 -6 5 2807.43 2924.94 13.66 o
-1 -6 5 565.03 565.26 3.00 o
0 -6 5 379.21 376.94 2.18 o
1 -6 5 48.37 46.28 0.54 o
2 -6 5 2771.52 2927.98 13.93 o
3 -6 5 11.76 16.33 0.54 o
4 -6 5 181.05 180.79 1.09 o
5 -6 5 1523.54 1538.63 6.55 o
6 -6 5 203.08 197.68 1.36 o
7 -6 5 0.14 1.63 0.27 o
8 -6 5 1.56 2.45 0.54 o
9 -6 5 306.17 295.20 2.18 o
10 -6 5 1.39 2.18 0.54 o
11 -6 5 298.35 306.63 2.45 o
12 -6 5 444.55 447.50 3.54 o
13 -6 5 3.92 3.81 0.82 o
14 -6 5 79.11 80.86 1.63 o
15 -6 5 1.06 1.36 0.54 <
16 -6 5 25.41 28.58 0.82 o
17 -6 5 10.69 10.62 1.09 o
-16 -5 5 275.01 268.52 4.08 o
-15 -5 5 69.35 65.61 2.18 o
-14 -5 5 4.10 5.44 1.09 o
-13 -5 5 175.83 180.79 3.00 o
-12 -5 5 49.63 52.27 2.18 o
-11 -5 5 96.74 99.65 2.45 o
-10 -5 5 5.10 4.36 0.82 o
-9 -5 5 666.20 659.57 6.27 o
-8 -5 5 18.66 19.60 0.82 o
-7 -5 5 65.24 59.89 1.09 o
-6 -5 5 707.56 692.01 4.09 o
-5 -5 5 169.01 169.63 1.36 o
-4 -5 5 90.36 87.67 0.82 o
-3 -5 5 229.02 214.03 1.36 o
-2 -5 5 997.87 1004.68 4.91 o
-1 -5 5 530.06 530.65 3.00 o
0 -5 5 451.43 448.89 2.45 o
1 -5 5 331.59 330.35 1.63 o
2 -5 5 1265.39 1270.89 5.73 o
3 -5 5 817.77 811.24 3.54 o
4 -5 5 332.62 322.71 1.63 o
5 -5 5 374.04 370.12 2.18 o
6 -5 5 728.49 725.00 3.54 o
7 -5 5 1131.77 1115.39 5.45 o
8 -5 5 3.70 4.08 0.54 o
9 -5 5 593.67 569.34 3.54 o
10 -5 5 368.06 355.68 2.72 o
11 -5 5 5.40 5.72 0.54 o
12 -5 5 17.99 17.69 0.82 o
13 -5 5 294.06 300.64 3.00 o
14 -5 5 610.89 629.01 4.90 o
15 -5 5 79.32 84.67 1.36 o
16 -5 5 161.32 160.10 1.63 o
17 -5 5 74.76 72.42 1.63 o
-16 -4 5 19.52 20.42 1.09 o
-15 -4 5 191.14 192.23 3.54 o
-14 -4 5 0.21 1.63 1.09 <
-13 -4 5 208.98 221.10 3.27 o
-12 -4 5 4.30 5.44 1.09 o
-11 -4 5 161.01 154.65 2.72 o
-10 -4 5 8.83 11.16 0.82 o
-9 -4 5 2.39 4.36 0.54 o
-8 -4 5 267.13 257.60 2.18 o
-7 -4 5 253.79 245.35 1.91 o
-6 -4 5 208.99 200.13 1.36 o
-5 -4 5 0.05 1.09 0.27 o
-4 -4 5 86.21 77.32 0.82 o
-3 -4 5 183.31 171.00 1.09 o
-2 -4 5 292.46 283.49 1.63 o
-1 -4 5 44.56 47.10 0.54 o
0 -4 5 201.34 212.94 1.36 o
1 -4 5 0.23 1.91 0.27 o
2 -4 5 0.53 1.63 0.27 o
3 -4 5 504.29 498.22 2.45 o
4 -4 5 12.01 12.79 0.27 o
5 -4 5 515.62 513.19 2.45 o
6 -4 5 232.11 216.75 1.36 o
7 -4 5 325.25 316.71 1.91 o
8 -4 5 2.51 3.27 0.54 o
9 -4 5 6.72 6.26 0.54 o
10 -4 5 122.44 115.98 1.36 o
11 -4 5 0.31 1.09 0.54 <
12 -4 5 47.56 47.91 1.36 o
13 -4 5 189.73 194.96 2.45 o
14 -4 5 8.75 7.89 0.82 o
15 -4 5 1.30 2.99 0.82 o
16 -4 5 15.59 16.06 0.82 o
17 -4 5 4.18 3.27 0.82 o
-16 -3 5 0.19 1.09 0.82 <
-15 -3 5 3.81 4.36 1.09 o
-14 -3 5 317.73 345.03 3.81 o
-13 -3 5 5.27 4.63 1.09 o
-12 -3 5 108.25 107.81 2.18 o
-11 -3 5 1680.97 1739.73 13.91 o
-10 -3 5 187.74 190.33 2.18 o
-9 -3 5 90.14 89.30 1.36 o
-8 -3 5 84.62 87.66 1.09 o
-7 -3 5 1247.76 1278.30 7.09 o
-6 -3 5 11.91 12.79 0.54 o
-5 -3 5 4.56 4.90 0.27 o
-4 -3 5 5889.11 6229.11 29.34 o
-3 -3 5 971.22 978.79 4.63 o
-2 -3 5 10.75 13.34 0.27 o
-1 -3 5 355.40 372.58 1.91 o
0 -3 5 1473.39 1550.21 7.09 o
1 -3 5 581.56 586.57 3.00 o
2 -3 5 4.35 3.81 0.27 o
3 -3 5 4209.92 4446.25 18.34 o
4 -3 5 31.28 29.40 0.54 o
5 -3 5 326.51 325.98 1.63 o
6 -3 5 502.05 482.94 2.45 o
7 -3 5 318.01 310.18 1.91 o
8 -3 5 19.22 19.06 0.54 o
9 -3 5 234.93 233.09 1.91 o
10 -3 5 969.54 974.31 6.00 o
11 -3 5 14.76 14.16 0.82 o
12 -3 5 332.54 346.68 3.54 o
13 -3 5 57.32 56.63 1.36 o
14 -3 5 21.84 21.78 0.82 o
15 -3 5 14.67 14.43 0.82 o
16 -3 5 64.64 63.71 1.36 o
17 -3 5 74.25 71.88 1.63 o
-17 -2 5 19.23 15.79 1.63 o
-16 -2 5 30.79 31.03 1.63 o
-15 -2 5 305.01 305.27 3.54 o
-14 -2 5 7.36 7.89 0.82 o
-13 -2 5 23.08 23.41 1.09 o
-12 -2 5 0.30 0.54 0.82 <
-11 -2 5 193.00 192.51 1.91 o
-10 -2 5 28.96 31.31 0.82 o
-9 -2 5 11.28 10.07 0.54 o
-8 -2 5 1087.15 1070.36 6.00 o
-7 -2 5 257.73 255.42 1.91 o
-6 -2 5 18.88 17.97 0.54 o
-5 -2 5 2.45 2.45 0.27 o
-4 -2 5 365.06 354.60 1.91 o
-3 -2 5 207.63 202.86 1.36 o
-2 -2 5 338.02 327.09 1.63 o
-1 -2 5 281.30 285.13 1.63 o
0 -2 5 731.54 743.94 3.27 o
1 -2 5 924.19 898.42 3.82 o
2 -2 5 12.15 12.79 0.27 o
3 -2 5 268.72 260.07 1.36 o
4 -2 5 178.21 176.17 1.09 o
5 -2 5 1392.93 1356.88 6.27 o
6 -2 5 77.63 80.86 0.82 o
7 -2 5 1335.94 1321.23 6.27 o
8 -2 5 536.72 512.10 3.00 o
9 -2 5 2.36 3.81 0.54 o
10 -2 5 143.95 137.50 1.63 o
11 -2 5 250.87 245.07 2.45 o
12 -2 5 613.96 622.49 4.90 o
13 -2 5 6.91 8.17 0.82 o
14 -2 5 190.35 194.68 1.91 o
15 -2 5 135.71 138.31 1.91 o
16 -2 5 0.97 0.00 0.82 <
-17 -1 5 285.54 282.14 4.90 o
-16 -1 5 14.19 14.16 1.09 o
-15 -1 5 136.71 143.48 2.18 o
-14 -1 5 135.48 133.41 1.91 o
-13 -1 5 42.59 46.82 1.36 o
-12 -1 5 1.40 2.18 0.82 <
-11 -1 5 29.45 31.03 1.09 o
-10 -1 5 479.11 472.03 3.54 o
-9 -1 5 28.52 29.13 0.82 o
-8 -1 5 1.46 3.27 0.54 o
-7 -1 5 383.96 376.65 2.45 o
-6 -1 5 208.63 203.13 1.36 o
-5 -1 5 15.47 16.61 0.27 o
-4 -1 5 161.43 151.66 1.09 o
-3 -1 5 531.96 515.97 2.72 o
-2 -1 5 621.78 632.93 3.00 o
-1 -1 5 43.31 43.83 0.54 o
0 -1 5 199.52 194.97 1.09 o
1 -1 5 1412.73 1439.69 6.27 o
2 -1 5 81.01 78.68 0.54 o
3 -1 5 107.85 110.27 0.82 o
4 -1 5 390.23 378.58 1.91 o
5 -1 5 498.33 495.20 2.45 o
6 -1 5 246.99 238.54 1.36 o
7 -1 5 29.69 31.31 0.54 o
8 -1 5 211.65 206.94 1.63 o
9 -1 5 0.08 1.91 0.54 o
10 -1 5 38.48 38.11 1.09 o
11 -1 5 0.10 0.54 0.54 <
12 -1 5 22.25 21.51 1.09 o
13 -1 5 65.31 65.07 1.36 o
14 -1 5 292.81 299.55 3.00 o
15 -1 5 52.15 50.91 1.36 o
16 -1 5 13.42 16.61 0.82 o
-17 0 5 17.61 19.33 1.36 o
-16 0 5 152.78 159.28 2.18 o
-15 0 5 1.70 2.45 0.82 <
-14 0 5 4.19 4.36 0.82 o
-13 0 5 1190.84 1265.46 9.00 o
-12 0 5 11.23 13.07 0.82 o
-11 0 5 111.25 105.91 1.63 o
-10 0 5 675.42 693.08 4.63 o
-9 0 5 804.53 822.33 4.63 o
-8 0 5 222.68 219.74 1.63 o
-7 0 5 6.13 9.26 0.54 o
-6 0 5 3150.23 3264.92 15.85 o
-5 0 5 240.74 238.81 1.36 o
-4 0 5 26.36 29.67 0.54 o
-3 0 5 4011.98 4278.07 18.34 o
-2 0 5 906.66 930.03 3.82 o
-1 0 5 253.26 247.54 1.36 o
0 0 5 15.01 15.52 0.27 o
1 0 5 5349.04 5618.65 23.04 o
2 0 5 169.25 160.38 1.09 o
3 0 5 316.52 331.43 1.63 o
4 0 5 1680.75 1750.84 7.64 o
5 0 5 264.80 248.89 1.36 o
6 0 5 2.53 4.63 0.27 o
7 0 5 5.54 6.26 0.54 o
8 0 5 705.12 707.27 3.81 o
9 0 5 0.88 4.36 0.54 o
10 0 5 554.26 560.60 4.09 o
11 0 5 419.64 423.79 3.54 o
12 0 5 0.05 0.82 0.82 <
13 0 5 81.40 81.95 1.63 o
14 0 5 2.06 2.99 0.82 o
15 0 5 61.08 62.34 1.36 o
16 0 5 15.98 16.06 0.82 o
-17 1 5 161.46 156.29 3.00 o
-16 1 5 39.29 43.83 1.36 o
-15 1 5 24.76 26.68 1.09 o
-14 1 5 48.93 48.73 1.36 o
-13 1 5 42.07 46.01 1.36 o
-12 1 5 0.67 2.18 0.54 o
-11 1 5 11.26 10.34 0.82 o
-10 1 5 336.40 331.42 2.72 o
-9 1 5 0.23 1.36 0.54 <
-8 1 5 10.28 9.26 0.54 o
-7 1 5 366.20 358.13 2.18 o
-6 1 5 134.09 128.51 1.09 o
-5 1 5 31.32 32.67 0.54 o
-4 1 5 442.59 420.01 2.18 o
-3 1 5 399.93 398.48 1.91 o
-2 1 5 319.87 315.65 1.63 o
-1 1 5 210.49 205.86 1.09 o
0 1 5 140.76 136.96 0.82 o
1 1 5 1287.49 1295.96 5.73 o
2 1 5 310.97 291.95 1.63 o
3 1 5 869.80 860.39 3.82 o
4 1 5 77.84 77.32 0.82 o
5 1 5 383.96 369.85 1.91 o
6 1 5 771.98 747.65 3.54 o
7 1 5 89.39 85.76 0.82 o
8 1 5 634.00 619.49 3.54 o
9 1 5 181.93 173.17 1.91 o
10 1 5 70.38 67.79 1.09 o
11 1 5 92.97 93.66 1.63 o
12 1 5 119.85 123.61 1.91 o
13 1 5 493.20 502.81 4.63 o
14 1 5 12.48 12.79 0.82 o
15 1 5 174.85 169.09 2.18 o
16 1 5 33.09 34.30 1.36 o
-17 2 5 16.83 17.97 1.09 o
-16 2 5 488.13 485.65 4.09 o
-15 2 5 2.63 4.08 0.82 o
-14 2 5 69.87 73.78 1.63 o
-13 2 5 46.62 46.83 1.36 o
-12 2 5 280.91 285.66 2.45 o
-11 2 5 33.26 32.94 1.09 o
-10 2 5 26.80 25.32 0.82 o
-9 2 5 952.81 955.46 5.72 o
-8 2 5 488.38 477.75 2.72 o
-7 2 5 2.56 3.54 0.27 o
-6 2 5 69.78 67.24 0.82 o
-5 2 5 336.52 320.82 1.63 o
-4 2 5 535.01 534.48 2.45 o
-3 2 5 127.95 122.52 0.82 o
-2 2 5 410.30 415.38 1.91 o
-1 2 5 884.60 919.09 4.09 o
0 2 5 283.78 274.51 1.36 o
1 2 5 260.25 247.81 1.36 o
2 2 5 164.83 162.55 1.09 o
3 2 5 170.81 174.81 1.09 o
4 2 5 550.71 533.65 2.45 o
5 2 5 482.54 479.39 2.45 o
6 2 5 964.28 960.66 4.36 o
7 2 5 19.73 19.60 0.54 o
8 2 5 230.98 218.65 1.91 o
9 2 5 36.06 35.66 1.09 o
10 2 5 95.75 89.57 1.36 o
11 2 5 72.51 73.23 1.63 o
12 2 5 304.94 313.99 3.00 o
13 2 5 59.14 58.80 1.36 o
14 2 5 0.14 0.00 0.82 <
15 2 5 110.56 112.72 1.91 o
16 2 5 4.21 4.90 0.82 o
-18 3 5 44.34 46.55 2.45 o
-17 3 5 1.12 1.36 0.82 <
-16 3 5 0.18 0.27 0.82 <
-15 3 5 315.50 334.68 3.27 o
-14 3 5 2.40 2.72 0.82 o
-13 3 5 145.54 144.85 1.91 o
-12 3 5 1507.22 1560.47 9.82 o
-11 3 5 237.67 240.44 2.45 o
-10 3 5 113.83 113.53 1.36 o
-9 3 5 43.65 48.73 1.09 o
-8 3 5 1251.26 1295.20 6.54 o
-7 3 5 22.71 23.68 0.54 o
-6 3 5 0.31 2.18 0.27 o
-5 3 5 5520.41 5814.26 23.57 o
-4 3 5 1220.79 1235.40 5.45 o
-3 3 5 1.42 2.72 0.27 o
-2 3 5 234.90 252.16 1.36 o
-1 3 5 1462.18 1548.27 6.55 o
0 3 5 695.30 700.55 3.00 o
1 3 5 0.48 1.36 0.27 o
2 3 5 4108.93 4324.36 17.52 o
3 3 5 92.61 86.85 0.54 o
4 3 5 259.34 257.60 1.63 o
5 3 5 371.42 364.94 2.18 o
6 3 5 338.08 335.51 1.91 o
7 3 5 46.80 43.29 1.09 o
8 3 5 259.05 253.24 2.18 o
9 3 5 933.41 945.11 6.81 o
10 3 5 2.44 1.91 0.54 o
11 3 5 304.07 315.62 3.00 o
12 3 5 30.25 30.76 1.09 o
13 3 5 24.40 25.59 0.82 o
14 3 5 5.50 4.90 0.82 o
15 3 5 76.21 75.14 1.63 o
16 3 5 65.44 63.71 2.72 o
-18 4 5 0.44 -2.45 1.63 <
-17 4 5 4.42 4.36 0.82 o
-16 4 5 90.11 91.20 1.63 o
-15 4 5 14.33 15.24 1.09 o
-14 4 5 127.72 129.87 1.91 o
-13 4 5 12.24 12.25 0.82 o
-12 4 5 81.66 86.58 1.36 o
-11 4 5 24.14 22.87 0.82 o
-10 4 5 0.52 1.09 0.54 <
-9 4 5 295.33 290.02 2.18 o
-8 4 5 232.52 223.28 1.63 o
-7 4 5 112.55 111.08 0.82 o
-6 4 5 19.95 19.87 0.54 o
-5 4 5 152.06 142.94 1.09 o
-4 4 5 3.00 4.36 0.27 o
-3 4 5 360.10 349.70 1.63 o
-2 4 5 3.60 4.08 0.27 o
-1 4 5 306.62 304.20 1.63 o
0 4 5 31.88 31.58 0.54 o
1 4 5 13.04 17.42 0.27 o
2 4 5 648.19 638.34 3.00 o
3 4 5 28.72 26.41 0.54 o
4 4 5 1235.11 1213.99 5.73 o
5 4 5 0.88 2.72 0.27 o
6 4 5 641.61 629.30 4.09 o
7 4 5 116.36 107.27 1.36 o
8 4 5 70.07 68.88 1.36 o
9 4 5 397.03 385.11 3.27 o
10 4 5 63.63 58.26 1.36 o
11 4 5 499.81 505.00 4.09 o
12 4 5 4.32 5.44 0.82 o
13 4 5 91.19 90.93 1.63 o
14 4 5 55.71 54.18 1.36 o
15 4 5 30.74 33.21 1.63 o
-18 5 5 404.07 381.64 7.08 o
-17 5 5 32.91 31.85 1.09 o
-16 5 5 89.14 94.74 1.63 o
-15 5 5 299.38 300.09 3.27 o
-14 5 5 49.77 54.99 1.36 o
-13 5 5 69.95 67.52 1.63 o
-12 5 5 42.86 44.92 1.36 o
-11 5 5 886.23 882.11 6.54 o
-10 5 5 50.11 50.09 1.09 o
-9 5 5 2.56 2.99 0.54 o
-8 5 5 674.41 664.74 3.54 o
-7 5 5 259.07 255.15 1.63 o
-6 5 5 72.93 70.78 0.82 o
-5 5 5 21.02 21.23 0.54 o
-4 5 5 1352.39 1368.05 6.27 o
-3 5 5 800.48 814.78 3.82 o
-2 5 5 163.84 165.82 1.09 o
-1 5 5 340.84 346.96 1.63 o
0 5 5 1240.38 1256.94 5.45 o
1 5 5 290.17 290.02 1.63 o
2 5 5 0.88 2.99 0.27 o
3 5 5 810.90 794.57 3.81 o
4 5 5 916.97 916.20 4.63 o
5 5 5 488.23 474.21 3.00 o
6 5 5 124.45 124.15 1.36 o
7 5 5 188.95 181.07 1.63 o
8 5 5 24.19 23.14 0.82 o
9 5 5 114.11 112.72 1.63 o
10 5 5 11.36 13.07 0.82 o
11 5 5 148.71 148.39 1.91 o
12 5 5 117.42 119.25 1.63 o
13 5 5 463.26 471.74 4.09 o
14 5 5 48.25 47.10 1.63 o
15 5 5 0.08 3.27 1.36 <
-18 6 5 2.24 5.72 2.18 <
-17 6 5 92.55 95.56 1.63 o
-16 6 5 0.93 1.63 0.82 <
-15 6 5 2.75 2.45 0.82 <
-14 6 5 880.15 930.88 6.81 o
-13 6 5 20.57 19.33 1.09 o
-12 6 5 66.77 63.71 1.63 o
-11 6 5 337.06 341.23 3.54 o
-10 6 5 545.12 538.53 3.54 o
-9 6 5 349.18 339.05 2.18 o
-8 6 5 9.05 10.62 0.54 o
-7 6 5 2043.02 2088.25 9.82 o
-6 6 5 181.32 177.26 1.09 o
-5 6 5 14.83 18.24 0.54 o
-4 6 5 2258.57 2329.54 10.65 o
-3 6 5 653.00 659.31 3.27 o
-2 6 5 480.08 481.85 2.45 o
-1 6 5 6.25 7.08 0.27 o
0 6 5 2926.94 3085.88 13.11 o
1 6 5 129.49 131.50 1.09 o
2 6 5 153.59 150.84 1.09 o
3 6 5 1095.95 1124.64 5.72 o
4 6 5 256.22 249.43 1.63 o
5 6 5 22.36 25.32 0.54 o
6 6 5 0.28 2.99 0.54 o
7 6 5 355.73 348.05 2.72 o
8 6 5 8.80 7.62 0.54 o
9 6 5 320.69 326.79 2.72 o
10 6 5 309.21 321.89 3.00 o
11 6 5 0.01 0.54 0.82 <
12 6 5 36.93 35.39 1.36 o
13 6 5 0.98 2.45 0.82 <
14 6 5 24.63 28.31 1.36 o
15 6 5 2.13 1.09 2.18 <
-17 7 5 14.68 15.79 0.82 o
-16 7 5 72.92 77.32 1.63 o
-15 7 5 1.84 2.18 0.82 <
-14 7 5 4.26 5.44 0.82 o
-13 7 5 125.94 123.88 1.91 o
-12 7 5 0.37 2.18 0.82 <
-11 7 5 41.55 42.20 1.09 o
-10 7 5 0.59 1.91 0.54 o
-9 7 5 11.42 11.98 0.54 o
-8 7 5 36.96 36.75 0.82 o
-7 7 5 87.72 86.58 0.82 o
-6 7 5 558.60 543.71 2.72 o
-5 7 5 278.78 268.23 1.63 o
-4 7 5 2.98 4.36 0.27 o
-3 7 5 141.04 130.15 0.82 o
-2 7 5 2.85 4.63 0.27 o
-1 7 5 13.24 13.07 0.27 o
0 7 5 621.67 617.59 3.27 o
1 7 5 8.86 11.43 0.27 o
2 7 5 944.51 932.58 4.91 o
3 7 5 86.52 89.30 1.09 o
4 7 5 90.51 88.75 1.09 o
5 7 5 146.32 140.76 1.36 o
6 7 5 159.84 160.91 1.91 o
7 7 5 526.31 519.45 4.09 o
8 7 5 17.88 16.06 0.82 o
9 7 5 189.43 193.32 2.18 o
10 7 5 267.03 272.04 3.00 o
11 7 5 9.92 10.89 0.82 o
12 7 5 183.32 184.61 2.45 o
13 7 5 6.62 7.89 0.82 o
14 7 5 183.02 180.53 4.36 o
-17 8 5 522.61 522.21 4.36 o
-16 8 5 2.34 3.27 0.82 o
-15 8 5 15.97 16.33 0.82 o
-14 8 5 75.91 75.14 1.63 o
-13 8 5 366.86 374.74 3.81 o
-12 8 5 89.25 91.48 1.63 o
-11 8 5 8.71 8.98 0.54 o
-10 8 5 1046.64 1031.64 6.27 o
-9 8 5 362.53 357.31 2.45 o
-8 8 5 13.42 13.61 0.54 o
-7 8 5 135.94 133.41 1.09 o
-6 8 5 400.94 390.00 2.18 o
-5 8 5 596.65 580.24 3.00 o
-4 8 5 112.69 111.63 1.09 o
-3 8 5 582.77 584.59 3.00 o
-2 8 5 592.77 587.87 3.00 o
-1 8 5 318.00 322.43 1.91 o
0 8 5 299.56 291.11 1.91 o
1 8 5 35.09 36.48 0.82 o
2 8 5 292.56 290.83 2.18 o
3 8 5 409.82 406.62 2.72 o
4 8 5 620.94 611.58 3.81 o
5 8 5 815.67 797.83 4.90 o
6 8 5 66.70 67.79 1.36 o
7 8 5 252.41 244.53 2.45 o
8 8 5 8.82 8.98 0.82 o
9 8 5 181.47 180.79 2.45 o
10 8 5 65.46 67.24 1.63 o
11 8 5 337.88 349.94 3.54 o
12 8 5 69.43 66.70 1.63 o
13 8 5 8.77 10.34 1.09 o
14 8 5 122.56 118.17 4.90 o
-17 9 5 1.51 2.45 0.82 <
-16 9 5 144.10 146.21 1.91 o
-15 9 5 8.18 8.71 0.82 o
-14 9 5 36.04 38.39 1.36 o
-13 9 5 738.16 775.15 5.99 o
-12 9 5 67.54 67.79 1.36 o
-11 9 5 156.93 158.46 1.63 o
-10 9 5 21.97 23.14 0.82 o
-9 9 5 729.76 724.19 4.36 o
-8 9 5 104.33 98.56 1.09 o
-7 9 5 1.45 1.91 0.54 o
-6 9 5 2037.92 2103.76 10.10 o
-5 9 5 413.62 408.26 2.45 o
-4 9 5 84.86 80.86 0.82 o
-3 9 5 204.61 208.03 1.36 o
-2 9 5 670.17 664.74 3.54 o
-1 9 5 517.94 522.71 3.00 o
0 9 5 5.31 5.44 0.54 o
1 9 5 1423.59 1471.87 8.45 o
2 9 5 63.39 62.34 1.09 o
3 9 5 0.49 2.45 0.54 o
4 9 5 284.73 280.76 2.18 o
5 9 5 87.89 87.94 1.36 o
6 9 5 45.28 45.46 1.36 o
7 9 5 201.08 201.49 2.45 o
8 9 5 464.17 481.83 4.36 o
9 9 5 4.00 4.36 0.82 o
10 9 5 56.23 55.54 1.63 o
11 9 5 5.66 6.81 0.82 o
12 9 5 0.59 0.54 1.09 <
13 9 5 0.25 -0.54 1.63 <
-17 10 5 4.28 5.99 0.82 o
-16 10 5 25.10 23.96 0.82 o
-15 10 5 249.31 252.15 2.72 o
-14 10 5 27.83 29.40 1.09 o
-13 10 5 2.22 2.99 0.82 o
-12 10 5 129.80 125.79 1.63 o
-11 10 5 18.64 17.42 0.82 o
-10 10 5 10.12 10.07 0.54 o
-9 10 5 196.38 187.33 1.63 o
-8 10 5 406.04 385.92 2.72 o
-7 10 5 33.34 32.94 0.82 o
-6 10 5 3.72 4.90 0.54 o
-5 10 5 73.69 77.05 1.09 o
-4 10 5 114.10 110.26 1.09 o
-3 10 5 163.45 155.20 1.36 o
-2 10 5 131.02 127.15 1.09 o
-1 10 5 154.93 148.39 1.36 o
0 10 5 46.71 45.74 0.82 o
1 10 5 722.84 717.91 4.36 o
2 10 5 12.67 13.07 0.54 o
3 10 5 547.24 532.26 3.81 o
4 10 5 78.11 79.77 1.36 o
5 10 5 258.75 256.51 2.45 o
6 10 5 2.16 2.45 0.82 <
7 10 5 154.44 159.01 2.18 o
8 10 5 551.37 559.79 4.63 o
9 10 5 0.13 0.27 0.82 <
10 10 5 266.62 269.04 3.27 o
11 10 5 46.54 47.10 1.91 o
12 10 5 42.65 42.74 1.91 o
13 10 5 4.56 5.99 2.18 <
-17 11 5 34.69 31.85 1.36 o
-16 11 5 236.30 232.55 2.45 o
-15 11 5 68.29 69.42 1.63 o
-14 11 5 58.49 62.07 1.36 o
-13 11 5 24.90 24.77 1.09 o
-12 11 5 696.05 713.00 4.63 o
-11 11 5 53.36 54.72 1.09 o
-10 11 5 12.36 11.71 0.54 o
-9 11 5 563.16 556.25 3.81 o
-8 11 5 68.49 71.33 1.09 o
-7 11 5 69.05 68.61 1.09 o
-6 11 5 27.09 27.77 0.82 o
-5 11 5 848.14 838.73 5.18 o
-4 11 5 517.76 503.37 3.00 o
-3 11 5 93.53 95.29 1.09 o
-2 11 5 364.07 359.49 2.45 o
-1 11 5 470.39 463.30 3.00 o
0 11 5 290.35 287.29 2.18 o
1 11 5 7.10 7.89 0.54 o
2 11 5 543.00 529.54 3.81 o
3 11 5 516.36 517.27 4.09 o
4 11 5 291.35 291.11 2.72 o
5 11 5 145.19 145.12 2.18 o
6 11 5 136.35 135.04 1.91 o
7 11 5 69.69 71.87 1.63 o
8 11 5 46.04 48.46 1.63 o
9 11 5 27.78 30.76 1.36 o
10 11 5 91.68 92.29 2.45 o
11 11 5 91.89 93.93 2.45 o
12 11 5 321.29 312.66 5.17 o
-16 12 5 1.62 2.99 0.82 o
-15 12 5 387.13 397.08 3.81 o
-14 12 5 16.39 16.88 0.82 o
-13 12 5 2.56 3.27 0.82 o
-12 12 5 78.04 76.50 1.36 o
-11 12 5 130.51 129.87 1.63 o
-10 12 5 456.99 467.94 3.54 o
-9 12 5 49.50 46.55 1.09 o
-8 12 5 739.53 732.65 4.90 o
-7 12 5 66.65 65.07 1.09 o
-6 12 5 2.94 4.63 0.54 o
-5 12 5 751.52 747.91 4.90 o
-4 12 5 174.06 164.73 1.91 o
-3 12 5 691.35 682.20 4.36 o
-2 12 5 20.99 21.51 0.82 o
-1 12 5 783.57 793.98 5.45 o
0 12 5 35.19 36.21 1.09 o
1 12 5 10.66 9.53 0.54 o
2 12 5 462.16 471.48 3.81 o
3 12 5 105.50 107.81 1.36 o
4 12 5 151.87 155.47 1.91 o
5 12 5 0.54 0.82 0.82 <
6 12 5 32.99 32.94 1.36 o
7 12 5 10.23 8.71 1.09 o
8 12 5 53.65 51.45 1.63 o
9 12 5 153.63 167.99 3.54 o
10 12 5 3.23 4.63 1.09 o
11 12 5 1.37 0.54 0.82 <
-16 13 5 18.14 23.41 1.36 o
-15 13 5 5.23 5.99 0.82 o
-14 13 5 221.34 216.74 2.45 o
-13 13 5 0.68 0.82 0.82 <
-12 13 5 2.79 3.81 0.82 o
-11 13 5 3.51 3.54 0.54 o
-10 13 5 106.14 102.10 1.36 o
-9 13 5 2.25 2.99 0.54 o
-8 13 5 124.30 121.16 1.36 o
-7 13 5 681.90 667.49 4.36 o
-6 13 5 96.62 93.11 1.36 o
-5 13 5 91.43 89.84 1.36 o
-4 13 5 22.19 20.69 0.82 o
-3 13 5 47.07 46.28 1.09 o
-2 13 5 12.68 11.71 0.82 o
-1 13 5 443.17 434.97 3.54 o
0 13 5 163.13 157.65 1.91 o
1 13 5 444.95 436.06 3.54 o
2 13 5 206.38 209.39 2.18 o
3 13 5 9.63 10.07 0.82 o
4 13 5 8.97 8.44 0.82 o
5 13 5 214.10 223.01 2.72 o
6 13 5 408.46 423.78 4.09 o
7 13 5 17.06 18.24 1.09 o
8 13 5 129.85 134.50 2.45 o
9 13 5 312.15 312.63 3.81 o
10 13 5 0.45 1.36 0.82 <
11 13 5 51.89 41.93 3.54 o
-16 14 5 10.46 8.71 1.09 o
-15 14 5 53.32 50.36 1.63 o
-14 14 5 310.35 301.19 2.72 o
-13 14 5 37.95 41.11 1.09 o
-12 14 5 0.42 1.09 0.82 <
-11 14 5 476.57 488.64 3.54 o
-10 14 5 153.46 154.11 1.63 o
-9 14 5 0.04 1.09 0.54 <
-8 14 5 110.67 111.63 1.63 o
-7 14 5 265.87 256.79 2.45 o
-6 14 5 360.93 356.77 3.27 o
-5 14 5 157.93 157.92 2.18 o
-4 14 5 304.51 304.46 3.00 o
-3 14 5 157.22 154.38 1.91 o
-2 14 5 72.76 76.23 1.36 o
-1 14 5 125.26 125.24 1.63 o
0 14 5 30.86 32.12 1.09 o
1 14 5 224.47 231.72 2.45 o
2 14 5 277.51 288.65 2.72 o
3 14 5 438.88 447.50 3.81 o
4 14 5 298.85 305.27 3.00 o
5 14 5 38.81 40.84 1.36 o
6 14 5 65.94 68.33 1.63 o
7 14 5 13.25 14.70 1.09 o
8 14 5 106.29 109.18 2.18 o
9 14 5 36.63 35.12 1.63 o
10 14 5 222.60 207.51 3.27 o
-15 15 5 1.07 2.72 1.09 <
-14 15 5 235.93 232.00 2.72 o
-13 15 5 1.47 1.63 0.82 <
-12 15 5 211.27 211.84 2.45 o
-11 15 5 15.67 17.15 0.82 o
-10 15 5 194.90 193.32 2.18 o
-9 15 5 130.89 132.32 1.63 o
-8 15 5 37.57 37.02 1.09 o
-7 15 5 542.95 555.70 4.09 o
-6 15 5 66.51 65.61 1.63 o
-5 15 5 230.14 233.63 2.45 o
-4 15 5 127.70 112.17 1.63 o
-3 15 5 126.68 120.07 1.63 o
-2 15 5 365.54 328.45 3.00 o
-1 15 5 5.08 7.35 0.82 o
0 15 5 332.50 349.40 3.27 o
1 15 5 9.20 10.62 0.82 o
2 15 5 89.52 95.83 1.63 o
3 15 5 166.70 175.07 2.18 o
4 15 5 0.21 1.91 0.82 <
5 15 5 60.80 62.34 1.63 o
6 15 5 52.15 52.27 1.91 o
7 15 5 122.70 130.14 2.18 o
8 15 5 1.33 2.99 1.09 <
9 15 5 0.69 1.63 1.09 <
-14 16 5 18.32 19.87 1.36 o
-13 16 5 96.86 93.11 1.63 o
-12 16 5 54.54 53.63 1.36 o
-11 16 5 0.08 0.00 0.82 <
-10 16 5 101.53 105.09 1.91 o
-9 16 5 386.72 382.10 3.54 o
-8 16 5 48.52 49.00 1.36 o
-7 16 5 32.92 34.57 1.09 o
-6 16 5 123.51 123.88 1.91 o
-5 16 5 1.15 2.18 0.82 <
-4 16 5 124.12 123.88 1.63 o
-3 16 5 92.08 95.29 1.63 o
-2 16 5 193.28 192.78 2.18 o
-1 16 5 73.34 74.60 1.63 o
0 16 5 506.32 517.81 4.63 o
1 16 5 75.55 74.60 1.63 o
2 16 5 112.32 114.35 1.91 o
3 16 5 117.72 124.69 1.91 o
4 16 5 175.34 179.98 2.45 o
5 16 5 14.46 14.16 1.09 o
6 16 5 112.36 111.35 2.45 o
7 16 5 362.32 358.96 5.17 o
8 16 5 18.87 15.24 1.36 o
-14 17 5 8.24 6.53 1.63 o
-13 17 5 294.88 282.14 2.72 o
-12 17 5 18.44 21.23 0.82 o
-11 17 5 4.52 5.99 0.82 o
-10 17 5 219.24 221.37 2.45 o
-9 17 5 6.78 7.35 0.82 o
-8 17 5 3.33 4.08 0.82 o
-7 17 5 39.17 39.47 1.36 o
-6 17 5 274.32 282.39 2.72 o
-5 17 5 203.26 206.67 2.45 o
-4 17 5 22.78 24.50 1.09 o
-3 17 5 163.38 169.35 2.18 o
-2 17 5 139.51 142.40 2.18 o
-1 17 5 104.65 106.18 1.91 o
0 17 5 43.25 47.64 1.63 o
1 17 5 169.89 172.90 2.45 o
2 17 5 146.73 152.20 2.45 o
3 17 5 95.59 95.29 2.18 o
4 17 5 52.70 52.27 2.18 o
5 17 5 74.01 74.32 2.45 o
6 17 5 35.16 35.66 1.91 o
7 17 5 1.97 1.09 1.09 <
-13 18 5 24.79 23.14 1.36 o
-12 18 5 5.78 6.53 0.82 o
-11 18 5 326.85 330.34 3.27 o
-10 18 5 59.44 56.35 1.36 o
-9 18 5 149.84 150.84 2.18 o
-8 18 5 26.03 25.86 1.09 o
-7 18 5 77.29 77.86 1.63 o
-6 18 5 260.95 272.30 3.00 o
-5 18 5 4.05 5.17 0.82 o
-4 18 5 497.32 523.24 5.18 o
-3 18 5 35.55 38.11 1.36 o
-2 18 5 160.45 169.08 2.45 o
-1 18 5 22.32 23.41 1.09 o
0 18 5 29.92 33.76 1.36 o
1 18 5 134.05 141.58 2.18 o
2 18 5 1.60 1.63 0.82 <
3 18 5 180.36 182.43 3.00 o
4 18 5 4.88 5.99 1.09 o
5 18 5 0.59 -1.09 1.09 <
6 18 5 9.77 10.07 2.18 o
-12 19 5 3.00 4.08 1.91 <
-11 19 5 141.94 138.32 1.91 o
-10 19 5 4.43 5.72 0.82 o
-9 19 5 111.28 111.35 1.63 o
-8 19 5 333.78 336.87 3.27 o
-7 19 5 25.44 25.59 1.09 o
-6 19 5 60.29 61.25 1.36 o
-5 19 5 0.34 1.91 0.82 <
-4 19 5 71.84 74.05 1.91 o
-3 19 5 26.22 23.96 1.09 o
-2 19 5 317.40 318.62 3.54 o
-1 19 5 128.75 129.87 2.18 o
0 19 5 127.38 130.69 2.18 o
1 19 5 109.15 107.54 2.18 o
2 19 5 0.95 1.63 1.09 <
3 19 5 0.65 -0.27 1.09 <
4 19 5 157.31 150.30 3.00 o
-10 20 5 11.41 11.98 0.82 o
-9 20 5 25.98 26.41 1.09 o
-8 20 5 91.20 93.66 1.63 o
-7 20 5 77.52 78.68 1.63 o
-6 20 5 85.22 83.31 1.63 o
-5 20 5 63.74 60.98 1.36 o
-4 20 5 34.63 34.30 1.36 o
-3 20 5 2.21 1.91 0.82 <
-2 20 5 14.29 14.16 1.09 o
-1 20 5 27.11 30.22 1.09 o
0 20 5 49.84 50.09 1.91 o
1 20 5 129.68 127.15 2.72 o
2 20 5 120.08 111.63 3.54 o
-8 21 5 151.12 144.31 2.18 o
-7 21 5 7.25 8.44 0.82 o
-6 21 5 237.02 238.27 2.72 o
-5 21 5 55.94 57.17 1.36 o
-4 21 5 1.25 1.63 0.82 <
-3 21 5 188.54 186.52 2.45 o
-2 21 5 51.08 51.45 1.91 o
-1 21 5 87.08 85.76 2.18 o
0 21 5 0.28 1.36 1.91 <
-2 -20 6 67.63 62.07 2.99 o
-1 -20 6 39.03 38.39 1.91 o
0 -20 6 96.71 96.11 2.45 o
1 -20 6 99.93 100.19 2.45 o
2 -20 6 39.69 41.38 1.91 o
3 -20 6 6.66 6.26 1.09 o
4 -20 6 42.55 44.65 1.91 o
5 -20 6 102.90 106.73 2.72 o
6 -20 6 68.76 74.05 2.99 o
7 -20 6 42.93 41.38 2.45 o
-4 -19 6 171.84 153.85 4.36 o
-3 -19 6 112.45 104.28 2.45 o
-2 -19 6 8.64 9.26 1.09 o
-1 -19 6 13.13 12.79 1.36 o
0 -19 6 4.75 5.17 1.09 o
1 -19 6 83.28 79.22 2.18 o
2 -19 6 26.04 28.04 1.36 o
3 -19 6 171.59 173.44 3.00 o
4 -19 6 309.93 294.38 3.81 o
5 -19 6 5.34 6.53 0.82 o
6 -19 6 15.77 17.15 1.09 o
7 -19 6 18.27 16.88 0.82 o
8 -19 6 63.55 66.97 1.63 o
9 -19 6 2.12 5.17 0.82 o
-5 -18 6 144.02 130.42 3.27 o
-4 -18 6 69.58 68.06 2.18 o
-3 -18 6 137.99 136.13 2.99 o
-2 -18 6 186.29 195.77 3.81 o
-1 -18 6 1.52 1.36 1.36 <
0 -18 6 188.74 191.96 3.00 o
1 -18 6 17.11 19.60 1.36 o
2 -18 6 186.51 191.14 3.54 o
3 -18 6 76.57 75.96 2.18 o
4 -18 6 11.28 14.16 1.09 o
5 -18 6 135.81 134.50 1.91 o
6 -18 6 9.86 10.34 0.82 o
7 -18 6 141.90 143.21 1.91 o
8 -18 6 3.73 4.36 0.82 o
9 -18 6 15.10 14.70 0.82 o
10 -18 6 5.73 5.99 0.82 o
11 -18 6 0.41 -0.27 1.09 <
-6 -17 6 94.16 89.03 2.72 o
-5 -17 6 1.31 3.27 1.09 o
-4 -17 6 11.40 11.16 1.36 o
-3 -17 6 5.23 4.63 1.09 o
-2 -17 6 76.82 75.41 2.45 o
-1 -17 6 264.21 272.58 3.81 o
0 -17 6 166.76 172.90 3.27 o
1 -17 6 271.74 286.20 4.36 o
2 -17 6 97.59 100.19 2.45 o
3 -17 6 79.88 81.67 1.91 o
4 -17 6 231.96 246.43 2.72 o
5 -17 6 22.47 22.60 1.09 o
6 -17 6 391.42 402.53 3.54 o
7 -17 6 152.60 161.18 2.18 o
8 -17 6 52.79 51.18 1.36 o
9 -17 6 171.51 167.45 2.18 o
10 -17 6 200.62 204.76 2.45 o
11 -17 6 72.48 76.77 1.36 o
12 -17 6 6.09 2.99 1.36 <
-7 -16 6 0.13 -0.82 1.36 <
-6 -16 6 206.78 200.95 3.27 o
-5 -16 6 193.87 190.33 3.27 o
-4 -16 6 0.14 -1.63 1.09 <
-3 -16 6 68.48 68.06 2.45 o
-2 -16 6 75.58 72.96 2.18 o
-1 -16 6 20.84 19.60 1.63 o
0 -16 6 2.17 2.99 1.36 <
1 -16 6 77.39 81.95 2.45 o
2 -16 6 418.92 425.42 4.63 o
3 -16 6 44.23 47.37 1.63 o
4 -16 6 153.33 157.92 2.18 o
5 -16 6 95.62 94.20 1.63 o
6 -16 6 36.25 37.84 1.36 o
7 -16 6 10.33 10.34 0.82 o
8 -16 6 7.65 7.89 0.82 o
9 -16 6 68.21 67.79 1.63 o
10 -16 6 13.09 12.52 0.82 o
11 -16 6 204.80 204.49 2.18 o
12 -16 6 125.30 120.89 1.91 o
-8 -15 6 101.85 103.73 2.72 o
-7 -15 6 289.65 291.11 4.63 o
-6 -15 6 124.18 121.97 2.72 o
-5 -15 6 3.69 4.90 1.09 o
-4 -15 6 354.42 353.76 5.17 o
-3 -15 6 7.81 6.53 1.36 o
-2 -15 6 379.97 392.45 5.17 o
-1 -15 6 161.39 167.18 3.00 o
0 -15 6 246.77 246.98 3.54 o
1 -15 6 84.28 88.48 2.18 o
2 -15 6 2.25 2.99 0.82 o
3 -15 6 295.21 302.55 3.00 o
4 -15 6 12.91 14.70 0.82 o
5 -15 6 99.24 106.18 1.91 o
6 -15 6 162.66 163.91 2.18 o
7 -15 6 2.79 3.27 0.82 o
8 -15 6 9.21 10.62 0.82 o
9 -15 6 62.04 63.16 1.63 o
10 -15 6 144.15 142.67 1.91 o
11 -15 6 1.40 2.99 0.82 o
12 -15 6 2.25 1.91 0.82 <
13 -15 6 10.98 10.07 0.82 o
-9 -14 6 21.14 22.32 1.63 o
-8 -14 6 486.14 479.66 5.99 o
-7 -14 6 94.25 95.29 2.45 o
-6 -14 6 9.39 10.34 1.36 o
-5 -14 6 2.40 1.91 1.09 <
-4 -14 6 158.26 159.28 3.00 o
-3 -14 6 238.27 236.36 3.54 o
-2 -14 6 116.09 117.34 2.72 o
-1 -14 6 391.22 400.63 5.17 o
0 -14 6 207.42 210.48 2.72 o
1 -14 6 203.36 212.39 2.72 o
2 -14 6 2.04 4.63 0.82 o
3 -14 6 20.52 22.32 1.09 o
4 -14 6 340.92 350.49 3.27 o
5 -14 6 200.03 205.85 2.45 o
6 -14 6 198.59 196.05 2.45 o
7 -14 6 488.15 496.28 4.63 o
8 -14 6 593.73 614.02 5.18 o
9 -14 6 3.17 4.08 0.82 o
10 -14 6 73.99 73.51 1.63 o
11 -14 6 126.25 133.95 2.18 o
12 -14 6 271.87 281.57 2.72 o
13 -14 6 63.15 62.07 1.36 o
14 -14 6 263.36 251.10 4.09 o
-10 -13 6 21.95 21.78 1.36 o
-9 -13 6 13.67 14.97 1.36 o
-8 -13 6 63.68 62.07 2.18 o
-7 -13 6 65.14 64.79 2.18 o
-6 -13 6 0.60 0.27 1.09 <
-5 -13 6 256.36 253.52 3.81 o
-4 -13 6 165.71 160.64 2.72 o
-3 -13 6 26.82 25.86 1.36 o
-2 -13 6 0.10 0.54 1.09 <
-1 -13 6 0.04 0.54 0.82 <
0 -13 6 19.51 17.42 1.09 o
1 -13 6 111.06 109.72 1.63 o
2 -13 6 177.25 169.90 1.91 o
3 -13 6 641.71 633.41 4.90 o
4 -13 6 3.65 5.99 0.54 o
5 -13 6 6.07 7.89 0.82 o
6 -13 6 1.37 1.63 0.82 <
7 -13 6 58.41 59.35 1.63 o
8 -13 6 57.74 59.62 1.63 o
9 -13 6 119.24 120.34 1.91 o
10 -13 6 163.32 161.46 2.18 o
11 -13 6 3.25 2.99 0.82 o
12 -13 6 70.70 70.51 1.63 o
13 -13 6 0.03 1.09 0.82 <
14 -13 6 0.05 -1.09 1.09 <
-11 -12 6 51.43 46.55 2.18 o
-10 -12 6 121.42 123.88 2.72 o
-9 -12 6 124.90 119.79 2.45 o
-8 -12 6 59.00 55.27 2.18 o
-7 -12 6 4.76 5.99 1.09 o
-6 -12 6 646.97 655.20 7.36 o
-5 -12 6 101.57 99.92 2.45 o
-4 -12 6 65.73 53.63 1.91 o
-3 -12 6 628.13 629.58 6.81 o
-2 -12 6 79.51 76.23 1.91 o
-1 -12 6 143.01 140.76 1.91 o
0 -12 6 16.13 16.61 0.82 o
1 -12 6 870.56 862.75 5.72 o
2 -12 6 96.90 99.92 1.63 o
3 -12 6 12.60 11.71 0.82 o
4 -12 6 597.80 596.32 4.63 o
5 -12 6 7.24 9.53 0.82 o
6 -12 6 88.51 93.11 1.63 o
7 -12 6 22.13 23.41 1.09 o
8 -12 6 175.51 173.17 2.18 o
9 -12 6 0.39 1.09 0.82 <
10 -12 6 18.26 18.24 1.09 o
11 -12 6 192.07 191.14 2.18 o
12 -12 6 18.26 19.06 0.82 o
13 -12 6 35.63 36.75 1.09 o
14 -12 6 5.59 6.26 1.09 o
15 -12 6 16.40 17.15 2.45 o
-12 -11 6 33.17 33.21 1.91 o
-11 -11 6 3.45 3.54 1.09 o
-10 -11 6 470.23 483.46 5.99 o
-9 -11 6 88.52 95.02 2.45 o
-8 -11 6 38.44 40.29 1.91 o
-7 -11 6 182.83 180.25 3.00 o
-6 -11 6 7.12 7.35 1.09 o
-5 -11 6 62.93 63.16 1.91 o
-4 -11 6 7.07 8.44 1.09 o
-3 -11 6 351.20 339.33 3.81 o
-2 -11 6 445.43 433.88 4.63 o
-1 -11 6 541.17 532.81 4.36 o
0 -11 6 503.71 496.83 3.81 o
1 -11 6 149.70 146.75 1.63 o
2 -11 6 170.62 169.08 1.91 o
3 -11 6 402.10 400.90 3.27 o
4 -11 6 154.33 151.38 1.91 o
5 -11 6 882.96 884.84 6.81 o
6 -11 6 522.35 530.62 4.63 o
7 -11 6 101.06 97.47 1.63 o
8 -11 6 208.05 213.20 2.45 o
9 -11 6 371.73 379.92 3.27 o
10 -11 6 126.91 132.05 1.91 o
11 -11 6 2.30 3.54 0.82 o
12 -11 6 343.69 357.03 3.00 o
13 -11 6 286.07 283.75 2.72 o
14 -11 6 114.91 109.99 1.91 o
15 -11 6 115.28 113.26 2.45 o
-13 -10 6 1.18 0.00 1.09 <
-12 -10 6 31.93 33.76 1.63 o
-11 -10 6 65.41 63.98 2.18 o
-10 -10 6 0.21 2.45 1.09 <
-9 -10 6 24.63 23.68 1.36 o
-8 -10 6 17.26 17.97 1.36 o
-7 -10 6 327.54 332.52 4.36 o
-6 -10 6 135.56 131.78 2.45 o
-5 -10 6 3.13 2.99 0.82 o
-4 -10 6 1.29 2.99 0.82 o
-3 -10 6 79.88 75.14 1.63 o
-2 -10 6 2.88 4.08 0.54 o
-1 -10 6 28.35 28.31 0.82 o
0 -10 6 82.57 78.14 1.09 o
1 -10 6 454.45 427.34 2.72 o
2 -10 6 145.05 144.03 1.36 o
3 -10 6 46.85 44.37 1.09 o
4 -10 6 68.39 69.15 1.36 o
5 -10 6 0.40 1.91 0.54 o
6 -10 6 93.53 91.48 1.36 o
7 -10 6 1.40 1.63 0.54 o
8 -10 6 46.16 49.28 1.09 o
9 -10 6 55.53 57.44 1.36 o
10 -10 6 201.05 202.31 2.18 o
11 -10 6 113.71 111.90 1.63 o
12 -10 6 23.81 23.14 0.82 o
13 -10 6 6.78 6.81 0.82 o
14 -10 6 26.23 25.86 1.09 o
15 -10 6 1.01 -0.27 0.82 <
-13 -9 6 3.61 2.18 1.09 <
-12 -9 6 256.30 260.60 4.36 o
-11 -9 6 1.61 2.99 1.09 <
-10 -9 6 24.88 26.13 1.63 o
-9 -9 6 159.34 164.45 3.00 o
-8 -9 6 947.00 971.58 10.36 o
-7 -9 6 126.42 124.43 2.45 o
-6 -9 6 76.90 77.59 1.91 o
-5 -9 6 1119.89 1120.05 10.90 o
-4 -9 6 58.83 56.08 1.63 o
-3 -9 6 264.95 252.16 2.18 o
-2 -9 6 315.53 308.00 2.45 o
-1 -9 6 1099.38 1084.28 6.00 o
0 -9 6 84.06 89.57 1.09 o
1 -9 6 52.20 50.91 0.82 o
2 -9 6 1094.35 1108.80 6.27 o
3 -9 6 50.51 52.00 1.09 o
4 -9 6 9.22 9.53 0.54 o
5 -9 6 390.41 371.48 3.00 o
6 -9 6 193.05 196.04 1.91 o
7 -9 6 0.45 2.18 0.54 o
8 -9 6 258.76 264.14 2.18 o
9 -9 6 485.92 477.21 3.27 o
10 -9 6 4.97 4.90 0.82 o
11 -9 6 73.00 76.77 1.36 o
12 -9 6 56.33 54.72 1.36 o
13 -9 6 0.87 1.09 0.82 <
14 -9 6 1.07 1.36 0.82 <
15 -9 6 114.66 114.62 1.63 o
-14 -8 6 10.77 8.71 1.36 o
-13 -8 6 9.62 9.53 1.36 o
-12 -8 6 160.67 164.73 3.27 o
-11 -8 6 40.53 45.74 1.91 o
-10 -8 6 43.08 44.10 1.91 o
-9 -8 6 938.72 964.21 10.36 o
-8 -8 6 91.94 93.66 2.45 o
-7 -8 6 30.58 29.40 1.36 o
-6 -8 6 9.00 9.53 1.09 o
-5 -8 6 323.46 302.83 3.27 o
-4 -8 6 275.05 255.43 2.18 o
-3 -8 6 149.53 141.85 1.36 o
-2 -8 6 748.25 738.36 4.36 o
-1 -8 6 355.12 348.86 2.18 o
0 -8 6 560.68 552.42 3.27 o
1 -8 6 34.07 33.76 0.82 o
2 -8 6 0.98 3.54 0.54 o
3 -8 6 365.20 362.75 2.72 o
4 -8 6 381.71 382.10 2.72 o
5 -8 6 235.80 225.46 1.91 o
6 -8 6 942.85 936.11 5.45 o
7 -8 6 1169.46 1168.90 6.81 o
8 -8 6 8.61 7.89 0.54 o
9 -8 6 35.38 35.94 0.82 o
10 -8 6 149.32 156.56 1.91 o
11 -8 6 645.04 663.65 4.63 o
12 -8 6 56.44 58.80 1.36 o
13 -8 6 411.54 422.96 3.27 o
14 -8 6 198.94 203.67 2.18 o
15 -8 6 8.42 8.98 0.82 o
16 -8 6 19.56 16.61 2.45 o
-14 -7 6 44.12 42.20 2.18 o
-13 -7 6 80.11 78.41 2.18 o
-12 -7 6 0.06 -0.82 1.09 <
-11 -7 6 116.53 114.89 2.72 o
-10 -7 6 8.09 8.98 1.36 o
-9 -7 6 58.84 62.89 2.18 o
-8 -7 6 0.09 1.63 0.82 <
-7 -7 6 3.56 4.08 0.82 o
-6 -7 6 150.07 145.39 2.18 o
-5 -7 6 107.05 100.19 1.36 o
-4 -7 6 3.17 4.90 0.54 o
-3 -7 6 116.08 108.90 1.09 o
-2 -7 6 2.36 3.54 0.54 o
-1 -7 6 91.75 88.48 1.09 o
0 -7 6 253.60 253.51 1.91 o
1 -7 6 42.67 39.75 0.82 o
2 -7 6 871.10 851.83 4.63 o
3 -7 6 8.38 8.71 0.54 o
4 -7 6 68.38 69.15 0.82 o
5 -7 6 0.64 1.63 0.54 o
6 -7 6 0.87 1.91 0.54 o
7 -7 6 183.37 176.98 1.63 o
8 -7 6 10.81 10.89 0.54 o
9 -7 6 123.39 122.52 1.36 o
10 -7 6 1.48 3.27 0.54 o
11 -7 6 14.85 16.61 0.82 o
12 -7 6 0.25 0.54 0.82 <
13 -7 6 36.79 39.47 1.36 o
14 -7 6 45.89 44.92 1.36 o
15 -7 6 14.97 15.79 0.82 o
16 -7 6 4.34 1.09 1.09 <
-15 -6 6 87.21 83.31 2.45 o
-14 -6 6 499.32 494.39 5.99 o
-13 -6 6 6.78 7.89 1.09 o
-12 -6 6 18.27 21.23 1.36 o
-11 -6 6 263.82 279.12 4.08 o
-10 -6 6 388.13 398.17 4.63 o
-9 -6 6 5.30 4.63 0.82 o
-8 -6 6 16.71 20.14 1.09 o
-7 -6 6 1617.62 1641.08 15.00 o
-6 -6 6 284.09 268.77 2.18 o
-5 -6 6 25.49 24.77 0.82 o
-4 -6 6 1276.80 1303.96 7.09 o
-3 -6 6 302.50 297.92 1.91 o
-2 -6 6 33.07 32.40 0.54 o
-1 -6 6 3.69 4.36 0.27 o
0 -6 6 2900.59 3027.81 15.02 o
1 -6 6 339.80 343.14 2.18 o
2 -6 6 165.81 162.82 1.36 o
3 -6 6 1082.53 1084.81 5.45 o
4 -6 6 67.28 65.88 0.82 o
5 -6 6 36.41 36.48 0.82 o
6 -6 6 28.52 33.48 0.82 o
7 -6 6 817.41 799.46 4.63 o
8 -6 6 0.23 1.63 0.54 o
9 -6 6 210.60 212.66 1.91 o
10 -6 6 347.26 346.14 2.72 o
11 -6 6 0.25 1.09 0.54 <
12 -6 6 100.79 104.55 1.63 o
13 -6 6 8.90 11.16 0.82 o
14 -6 6 103.69 110.81 1.63 o
15 -6 6 0.11 -0.54 0.82 <
16 -6 6 214.88 206.14 2.72 o
-15 -5 6 61.50 53.63 2.18 o
-14 -5 6 80.50 80.59 2.18 o
-13 -5 6 36.39 37.30 1.63 o
-12 -5 6 22.32 21.78 1.63 o
-11 -5 6 618.34 645.10 7.36 o
-10 -5 6 37.84 43.56 1.63 o
-9 -5 6 19.39 17.69 1.09 o
-8 -5 6 135.90 131.23 1.63 o
-7 -5 6 2.52 3.81 0.54 o
-6 -5 6 59.52 59.35 1.09 o
-5 -5 6 18.13 16.88 0.54 o
-4 -5 6 610.38 596.59 3.54 o
-3 -5 6 347.79 336.88 2.18 o
-2 -5 6 847.06 833.01 4.63 o
-1 -5 6 376.93 375.56 2.18 o
0 -5 6 316.46 309.63 1.91 o
1 -5 6 122.08 116.80 1.09 o
2 -5 6 640.51 628.76 3.27 o
3 -5 6 283.03 277.49 1.63 o
4 -5 6 1114.71 1103.65 5.45 o
5 -5 6 985.41 959.04 4.91 o
6 -5 6 15.07 14.97 0.54 o
7 -5 6 271.14 257.33 1.91 o
8 -5 6 288.91 278.85 2.18 o
9 -5 6 190.04 184.88 1.91 o
10 -5 6 9.03 8.17 0.54 o
11 -5 6 466.80 474.21 3.54 o
12 -5 6 503.35 503.64 3.81 o
13 -5 6 92.59 93.93 1.63 o
14 -5 6 102.44 104.27 1.63 o
15 -5 6 174.36 170.72 1.91 o
16 -5 6 35.33 35.66 1.36 o
-16 -4 6 5.21 4.63 2.18 <
-15 -4 6 81.05 80.31 2.18 o
-14 -4 6 13.97 15.79 1.09 o
-13 -4 6 99.68 105.36 2.18 o
-12 -4 6 5.33 6.53 1.09 o
-11 -4 6 3.07 5.44 0.82 o
-10 -4 6 300.55 295.20 3.00 o
-9 -4 6 104.02 98.56 1.63 o
-8 -4 6 152.31 151.11 1.91 o
-7 -4 6 34.65 32.40 0.82 o
-6 -4 6 85.19 82.76 1.09 o
-5 -4 6 87.76 82.49 0.82 o
-4 -4 6 47.00 45.19 0.82 o
-3 -4 6 188.39 184.34 1.36 o
-2 -4 6 269.53 267.14 1.91 o
-1 -4 6 0.82 1.09 0.27 o
0 -4 6 179.74 170.72 1.36 o
1 -4 6 72.55 73.51 0.82 o
2 -4 6 18.45 19.87 0.54 o
3 -4 6 78.14 79.22 0.82 o
4 -4 6 89.88 83.85 0.82 o
5 -4 6 479.72 466.30 2.45 o
6 -4 6 78.60 75.14 0.82 o
7 -4 6 16.65 15.24 0.54 o
8 -4 6 37.05 36.75 0.82 o
9 -4 6 34.44 34.57 1.09 o
10 -4 6 159.55 157.38 1.63 o
11 -4 6 150.74 153.56 1.91 o
12 -4 6 82.91 82.49 1.63 o
13 -4 6 11.71 13.34 0.82 o
14 -4 6 25.73 26.95 0.82 o
15 -4 6 0.30 0.54 0.82 <
16 -4 6 23.98 25.32 1.09 o
-16 -3 6 375.10 387.31 5.18 o
-15 -3 6 16.11 15.52 1.36 o
-14 -3 6 47.61 45.46 1.63 o
-13 -3 6 444.46 469.83 4.90 o
-12 -3 6 38.04 44.37 1.63 o
-11 -3 6 4.13 4.36 0.82 o
-10 -3 6 117.98 120.61 1.63 o
-9 -3 6 1527.61 1583.66 11.45 o
-8 -3 6 125.01 119.25 1.63 o
-7 -3 6 194.75 190.60 1.63 o
-6 -3 6 2299.54 2381.98 12.01 o
-5 -3 6 281.50 277.21 1.91 o
-4 -3 6 138.68 131.23 1.09 o
-3 -3 6 227.74 229.55 1.63 o
-2 -3 6 2263.73 2292.08 10.92 o
-1 -3 6 203.07 198.23 1.36 o
0 -3 6 61.33 62.07 0.82 o
1 -3 6 2520.40 2612.04 11.20 o
2 -3 6 123.47 117.35 0.82 o
3 -3 6 65.38 65.88 0.54 o
4 -3 6 408.52 390.01 2.18 o
5 -3 6 770.58 761.54 3.81 o
6 -3 6 23.33 23.96 0.54 o
7 -3 6 432.45 440.13 2.72 o
8 -3 6 762.41 747.92 4.63 o
9 -3 6 1.43 1.91 0.54 o
10 -3 6 264.41 267.68 2.45 o
11 -3 6 99.80 99.37 1.63 o
12 -3 6 45.52 49.82 1.36 o
13 -3 6 0.70 -0.27 0.82 <
14 -3 6 265.50 275.85 2.72 o
15 -3 6 115.87 116.53 1.63 o
16 -3 6 14.49 14.70 0.82 o
-16 -2 6 2.70 5.72 1.09 o
-15 -2 6 0.25 -0.82 1.09 <
-14 -2 6 0.77 1.36 0.82 <
-13 -2 6 118.38 122.25 1.91 o
-12 -2 6 10.08 9.80 1.09 o
-11 -2 6 38.06 30.22 1.09 o
-10 -2 6 847.38 849.38 6.27 o
-9 -2 6 64.87 65.61 1.36 o
-8 -2 6 0.44 1.91 0.54 o
-7 -2 6 77.39 70.24 1.09 o
-6 -2 6 264.19 254.88 1.91 o
-5 -2 6 130.83 127.15 1.09 o
-4 -2 6 134.58 126.33 1.09 o
-3 -2 6 630.25 602.07 3.27 o
-2 -2 6 357.14 356.49 2.18 o
-1 -2 6 436.71 414.27 2.18 o
0 -2 6 223.67 210.76 1.09 o
1 -2 6 26.46 25.32 0.54 o
2 -2 6 183.03 177.80 1.09 o
3 -2 6 460.18 444.24 2.45 o
4 -2 6 95.51 96.11 0.82 o
5 -2 6 1094.06 1079.91 4.91 o
6 -2 6 1172.52 1136.98 5.45 o
7 -2 6 9.04 10.07 0.54 o
8 -2 6 72.49 64.25 1.09 o
9 -2 6 50.29 49.55 1.09 o
10 -2 6 845.02 840.93 5.72 o
11 -2 6 7.02 8.17 0.82 o
12 -2 6 425.06 435.23 3.81 o
13 -2 6 153.61 155.47 2.18 o
14 -2 6 0.27 1.09 0.82 <
15 -2 6 35.77 33.48 1.09 o
16 -2 6 60.03 57.99 1.36 o
-16 -1 6 76.85 84.67 2.45 o
-15 -1 6 71.95 76.77 1.63 o
-14 -1 6 1.67 2.45 0.82 <
-13 -1 6 9.82 11.71 0.82 o
-12 -1 6 449.09 458.67 4.09 o
-11 -1 6 64.58 62.89 1.36 o
-10 -1 6 13.33 13.88 0.82 o
-9 -1 6 88.94 86.85 1.36 o
-8 -1 6 2.66 3.54 0.54 o
-7 -1 6 3.66 3.81 0.54 o
-6 -1 6 7.51 6.53 0.54 o
-5 -1 6 156.01 151.11 1.36 o
-4 -1 6 532.79 520.55 2.72 o
-3 -1 6 144.28 135.32 1.09 o
-2 -1 6 507.39 489.22 2.45 o
-1 -1 6 366.64 369.85 1.91 o
0 -1 6 5.05 6.26 0.27 o
1 -1 6 578.33 563.90 2.72 o
2 -1 6 215.22 208.85 1.36 o
3 -1 6 718.47 710.29 3.54 o
4 -1 6 67.26 64.52 0.82 o
5 -1 6 143.45 135.86 1.09 o
6 -1 6 166.53 162.82 1.36 o
7 -1 6 16.95 16.61 0.54 o
8 -1 6 36.34 36.48 1.09 o
9 -1 6 18.88 20.15 0.82 o
10 -1 6 58.02 56.08 1.36 o
11 -1 6 7.72 6.26 0.82 o
12 -1 6 269.11 274.76 3.00 o
13 -1 6 50.02 49.55 1.36 o
14 -1 6 2.68 3.54 0.82 o
15 -1 6 16.53 17.69 0.82 o
16 -1 6 29.22 31.31 1.36 o
-17 0 6 1.48 -0.82 1.91 <
-16 0 6 177.48 174.53 2.45 o
-15 0 6 565.84 598.19 5.18 o
-14 0 6 16.73 18.24 1.09 o
-13 0 6 11.79 12.79 0.82 o
-12 0 6 311.75 328.42 3.27 o
-11 0 6 604.66 626.84 4.90 o
-10 0 6 1.83 2.18 0.54 o
-9 0 6 103.10 100.74 1.36 o
-8 0 6 2062.61 2125.67 11.46 o
-7 0 6 541.66 542.34 3.27 o
-6 0 6 34.50 34.30 0.82 o
-5 0 6 1585.39 1655.47 8.45 o
-4 0 6 484.54 479.66 2.72 o
-3 0 6 5.83 5.99 0.27 o
-2 0 6 7.06 8.17 0.27 o
-1 0 6 4648.78 4903.11 19.44 o
0 0 6 852.57 843.70 3.82 o
1 0 6 249.70 256.51 1.36 o
2 0 6 1142.69 1133.20 5.45 o
3 0 6 102.10 99.37 0.82 o
4 0 6 27.89 27.50 0.54 o
5 0 6 36.50 40.84 0.82 o
6 0 6 1427.36 1439.16 7.09 o
7 0 6 12.67 12.52 0.54 o
8 0 6 396.99 402.26 3.00 o
9 0 6 305.48 302.82 2.72 o
10 0 6 2.62 2.99 0.54 o
11 0 6 99.69 100.19 1.91 o
12 0 6 11.51 12.52 0.82 o
13 0 6 177.01 186.24 2.18 o
14 0 6 0.07 1.63 0.82 <
15 0 6 341.89 351.87 3.27 o
-17 1 6 16.27 17.42 1.63 o
-16 1 6 11.41 10.89 0.82 o
-15 1 6 44.00 44.65 1.36 o
-14 1 6 0.24 1.36 0.82 <
-13 1 6 20.18 20.69 0.82 o
-12 1 6 360.56 368.48 3.00 o
-11 1 6 10.65 10.89 0.82 o
-10 1 6 2.30 2.72 0.54 o
-9 1 6 23.42 22.87 0.82 o
-8 1 6 0.02 0.82 0.54 <
-7 1 6 12.77 13.88 0.54 o
-6 1 6 29.31 28.04 0.54 o
-5 1 6 226.70 226.82 1.63 o
-4 1 6 210.86 200.95 1.36 o
-3 1 6 467.54 443.16 2.45 o
-2 1 6 168.49 162.82 1.09 o
-1 1 6 388.12 384.84 1.91 o
0 1 6 0.67 2.72 0.27 o
1 1 6 1033.21 1013.14 4.63 o
2 1 6 38.65 37.84 0.54 o
3 1 6 727.69 717.11 3.54 o
4 1 6 568.29 540.72 2.72 o
5 1 6 12.68 13.88 0.54 o
6 1 6 404.96 388.37 2.45 o
7 1 6 112.22 102.91 1.09 o
8 1 6 345.91 335.79 2.72 o
9 1 6 74.35 70.51 1.36 o
10 1 6 247.25 237.45 2.72 o
11 1 6 349.35 347.23 3.27 o
12 1 6 10.58 8.98 0.82 o
13 1 6 149.67 151.11 2.18 o
14 1 6 86.79 86.58 1.63 o
15 1 6 63.98 63.16 1.36 o
-17 2 6 7.61 7.62 1.36 o
-16 2 6 9.53 10.34 0.82 o
-15 2 6 38.45 38.66 1.36 o
-14 2 6 189.80 195.23 2.45 o
-13 2 6 13.47 13.61 0.82 o
-12 2 6 9.37 9.26 0.82 o
-11 2 6 914.98 907.50 6.81 o
-10 2 6 177.11 173.99 2.18 o
-9 2 6 0.07 1.09 0.54 <
-8 2 6 6.31 6.26 0.54 o
-7 2 6 344.42 331.97 2.18 o
-6 2 6 239.50 236.35 1.63 o
-5 2 6 8.28 9.80 0.27 o
-4 2 6 673.48 663.40 3.27 o
-3 2 6 739.34 738.66 3.27 o
-2 2 6 319.32 302.01 1.63 o
-1 2 6 7.91 8.44 0.27 o
0 2 6 20.48 22.32 0.54 o
1 2 6 134.21 133.68 1.09 o
2 2 6 111.61 107.54 0.82 o
3 2 6 246.58 244.53 1.36 o
4 2 6 1095.70 1092.46 5.18 o
5 2 6 314.02 300.10 1.91 o
6 2 6 275.51 265.23 1.91 o
7 2 6 2.49 5.44 0.54 o
8 2 6 14.20 13.07 0.82 o
9 2 6 283.12 276.13 2.72 o
10 2 6 282.78 291.11 3.00 o
11 2 6 186.59 187.06 2.45 o
12 2 6 1.60 2.99 0.82 o
13 2 6 136.05 140.49 1.91 o
14 2 6 0.99 1.63 0.82 <
15 2 6 5.02 4.90 0.82 o
-17 3 6 354.62 363.88 5.72 o
-16 3 6 23.33 24.23 1.09 o
-15 3 6 57.24 53.90 1.63 o
-14 3 6 377.43 395.44 3.54 o
-13 3 6 54.37 57.44 1.36 o
-12 3 6 8.69 10.07 0.82 o
-11 3 6 65.90 71.60 1.36 o
-10 3 6 1451.97 1503.07 10.63 o
-9 3 6 162.59 159.28 1.91 o
-8 3 6 207.22 204.22 1.63 o
-7 3 6 2135.44 2227.07 11.73 o
-6 3 6 363.27 354.86 2.18 o
-5 3 6 174.31 169.63 1.09 o
-4 3 6 122.88 127.15 1.09 o
-3 3 6 2182.15 2273.84 10.10 o
-2 3 6 309.95 302.83 1.63 o
-1 3 6 48.39 49.55 0.54 o
0 3 6 2409.45 2510.39 11.19 o
1 3 6 174.87 169.36 1.09 o
2 3 6 51.21 51.18 0.54 o
3 3 6 282.50 277.76 1.63 o
4 3 6 815.69 819.62 4.09 o
5 3 6 76.88 74.05 1.09 o
6 3 6 421.47 421.88 2.72 o
7 3 6 673.85 668.02 5.18 o
8 3 6 5.47 5.72 0.54 o
9 3 6 232.61 231.18 2.45 o
10 3 6 67.49 68.33 1.36 o
11 3 6 53.89 58.53 1.63 o
12 3 6 1.62 1.91 0.82 <
13 3 6 282.64 294.64 3.00 o
14 3 6 91.52 92.84 1.63 o
15 3 6 10.05 9.26 1.36 o
-17 4 6 0.46 -0.82 0.82 <
-16 4 6 44.34 43.29 1.36 o
-15 4 6 0.06 1.09 0.82 <
-14 4 6 38.87 40.56 1.36 o
-13 4 6 9.08 8.17 0.82 o
-12 4 6 8.49 8.44 0.82 o
-11 4 6 258.82 257.33 2.72 o
-10 4 6 81.19 78.14 1.36 o
-9 4 6 192.81 189.24 1.91 o
-8 4 6 70.45 67.79 1.09 o
-7 4 6 72.59 68.88 1.09 o
-6 4 6 12.09 12.25 0.54 o
-5 4 6 107.96 102.37 0.82 o
-4 4 6 89.01 87.94 0.82 o
-3 4 6 193.36 188.69 1.36 o
-2 4 6 1.63 2.99 0.27 o
-1 4 6 288.55 281.03 1.63 o
0 4 6 272.60 267.95 1.63 o
1 4 6 59.06 55.54 0.54 o
2 4 6 346.48 336.33 1.91 o
3 4 6 0.93 2.18 0.27 o
4 4 6 584.14 573.69 3.27 o
5 4 6 347.49 326.25 2.18 o
6 4 6 118.89 118.98 1.36 o
7 4 6 342.86 327.07 3.00 o
8 4 6 1.96 2.18 0.54 o
9 4 6 589.79 563.36 4.36 o
10 4 6 6.42 5.44 0.82 o
11 4 6 266.66 267.95 2.72 o
12 4 6 48.31 48.46 1.36 o
13 4 6 38.43 43.01 1.36 o
14 4 6 113.17 113.81 1.91 o
-17 5 6 147.81 139.95 1.91 o
-16 5 6 106.62 104.00 1.63 o
-15 5 6 24.77 21.23 1.09 o
-14 5 6 12.60 13.88 0.82 o
-13 5 6 747.72 761.54 5.72 o
-12 5 6 91.79 94.74 1.63 o
-11 5 6 1.02 1.63 0.54 o
-10 5 6 221.63 215.93 2.45 o
-9 5 6 9.18 10.34 0.54 o
-8 5 6 48.52 45.46 0.82 o
-7 5 6 1.30 2.72 0.54 o
-6 5 6 557.47 550.24 3.00 o
-5 5 6 682.68 670.20 3.54 o
-4 5 6 357.79 352.13 1.91 o
-3 5 6 728.64 719.01 3.54 o
-2 5 6 244.51 246.98 1.36 o
-1 5 6 89.20 89.57 0.82 o
0 5 6 265.56 260.05 1.36 o
1 5 6 560.99 551.07 2.72 o
2 5 6 1142.36 1135.04 5.45 o
3 5 6 242.12 235.81 1.63 o
4 5 6 304.10 296.28 1.91 o
5 5 6 85.15 84.13 1.09 o
6 5 6 88.14 85.49 1.36 o
7 5 6 5.94 6.26 0.54 o
8 5 6 60.15 63.98 1.09 o
9 5 6 215.20 215.11 2.18 o
10 5 6 47.75 46.28 1.36 o
11 5 6 464.46 473.38 3.81 o
12 5 6 28.31 24.77 1.09 o
13 5 6 30.06 28.58 1.36 o
14 5 6 18.06 19.33 1.09 o
-17 6 6 132.67 131.51 1.91 o
-16 6 6 393.53 402.54 3.81 o
-15 6 6 15.74 16.61 0.82 o
-14 6 6 21.56 22.60 0.82 o
-13 6 6 158.90 165.82 2.18 o
-12 6 6 429.44 439.05 4.09 o
-11 6 6 20.94 19.87 1.09 o
-10 6 6 57.04 56.63 1.36 o
-9 6 6 1353.70 1390.28 8.45 o
-8 6 6 379.50 367.39 2.45 o
-7 6 6 41.88 38.39 0.82 o
-6 6 6 1016.53 1034.02 5.18 o
-5 6 6 394.98 390.00 2.18 o
-4 6 6 89.05 85.76 0.82 o
-3 6 6 8.42 8.44 0.27 o
-2 6 6 2628.96 2706.27 12.29 o
-1 6 6 571.05 571.51 3.00 o
0 6 6 91.54 90.66 0.82 o
1 6 6 845.10 856.71 4.09 o
2 6 6 106.10 104.55 1.09 o
3 6 6 102.30 102.37 1.09 o
4 6 6 66.41 69.42 1.09 o
5 6 6 773.01 778.72 4.90 o
6 6 6 24.24 23.96 0.82 o
7 6 6 165.81 163.09 1.91 o
8 6 6 244.02 236.36 2.18 o
9 6 6 1.01 1.91 0.82 <
10 6 6 52.08 52.54 1.36 o
11 6 6 28.04 30.49 1.09 o
12 6 6 90.93 94.20 1.91 o
13 6 6 4.95 4.63 0.82 o
14 6 6 207.43 198.24 4.63 o
-17 7 6 2.91 2.45 0.82 <
-16 7 6 1.76 2.72 0.82 o
-15 7 6 62.71 62.34 1.63 o
-14 7 6 0.75 0.54 0.82 <
-13 7 6 79.68 81.40 1.63 o
-12 7 6 6.13 6.81 0.82 o
-11 7 6 69.40 67.79 1.63 o
-10 7 6 7.30 8.17 0.54 o
-9 7 6 12.04 12.79 0.54 o
-8 7 6 294.32 281.03 2.18 o
-7 7 6 8.29 7.35 0.54 o
-6 7 6 1.51 2.18 0.54 o
-5 7 6 133.79 127.42 1.09 o
-4 7 6 37.49 37.30 0.82 o
-3 7 6 33.17 34.03 0.82 o
-2 7 6 294.51 287.84 1.91 o
-1 7 6 173.94 168.27 1.36 o
0 7 6 881.45 866.55 4.91 o
1 7 6 106.85 109.18 1.09 o
2 7 6 269.46 267.13 1.91 o
3 7 6 49.12 46.55 1.09 o
4 7 6 50.54 53.63 1.09 o
5 7 6 487.40 476.94 3.81 o
6 7 6 4.01 3.81 0.54 o
7 7 6 415.77 419.98 3.54 o
8 7 6 234.47 235.27 2.72 o
9 7 6 55.68 57.17 1.63 o
10 7 6 80.79 83.04 1.91 o
11 7 6 11.40 12.79 1.09 o
12 7 6 221.38 221.10 2.72 o
13 7 6 17.73 17.42 1.09 o
-17 8 6 0.25 -2.45 0.82 <
-16 8 6 40.47 39.75 1.36 o
-15 8 6 234.68 237.99 2.45 o
-14 8 6 36.37 36.21 1.09 o
-13 8 6 1.79 2.18 0.82 <
-12 8 6 1033.84 1055.07 8.45 o
-11 8 6 112.48 115.17 1.91 o
-10 8 6 25.04 22.87 0.82 o
-9 8 6 0.95 0.54 0.54 <
-8 8 6 441.71 431.42 3.00 o
-7 8 6 288.98 275.58 1.91 o
-6 8 6 11.88 12.79 0.54 o
-5 8 6 815.51 806.27 4.36 o
-4 8 6 505.88 500.64 2.72 o
-3 8 6 439.29 431.15 2.72 o
-2 8 6 0.55 1.63 0.54 o
-1 8 6 78.38 74.87 1.09 o
0 8 6 196.25 194.41 1.63 o
1 8 6 110.45 112.71 1.36 o
2 8 6 381.09 372.02 2.72 o
3 8 6 867.83 849.38 5.45 o
4 8 6 418.69 416.98 3.54 o
5 8 6 264.75 258.42 2.45 o
6 8 6 21.28 24.50 0.82 o
7 8 6 53.94 52.27 1.36 o
8 8 6 260.52 263.32 3.00 o
9 8 6 330.74 338.78 3.54 o
10 8 6 180.87 183.24 2.45 o
11 8 6 4.88 4.36 0.82 o
12 8 6 131.58 131.23 1.91 o
13 8 6 5.46 7.08 2.18 o
-17 9 6 37.51 38.11 2.18 o
-16 9 6 6.69 6.81 0.82 o
-15 9 6 169.14 173.17 2.18 o
-14 9 6 6.52 7.62 0.82 o
-13 9 6 33.82 34.85 1.09 o
-12 9 6 45.55 47.64 1.63 o
-11 9 6 841.79 864.36 6.27 o
-10 9 6 218.80 213.75 1.91 o
-9 9 6 70.35 71.87 1.09 o
-8 9 6 889.46 912.91 5.72 o
-7 9 6 100.69 95.56 1.09 o
-6 9 6 323.01 311.27 2.45 o
-5 9 6 119.79 121.43 1.36 o
-4 9 6 1095.22 1099.27 5.72 o
-3 9 6 267.66 269.86 2.18 o
-2 9 6 24.32 24.50 0.54 o
-1 9 6 896.98 912.62 5.18 o
0 9 6 82.13 83.31 1.09 o
1 9 6 26.25 27.50 0.82 o
2 9 6 233.46 232.54 2.18 o
3 9 6 292.86 293.01 3.00 o
4 9 6 65.27 65.07 1.36 o
5 9 6 257.34 258.42 2.72 o
6 9 6 318.18 311.00 3.27 o
7 9 6 14.95 15.52 1.09 o
8 9 6 28.19 27.77 1.09 o
9 9 6 28.31 29.95 1.09 o
10 9 6 0.22 2.45 0.82 <
11 9 6 5.48 5.72 0.82 o
12 9 6 146.33 143.49 3.27 o
-16 10 6 0.17 1.36 0.82 <
-15 10 6 0.21 -0.54 0.82 <
-14 10 6 44.48 42.47 1.36 o
-13 10 6 7.04 6.26 0.82 o
-12 10 6 17.42 16.33 0.82 o
-11 10 6 109.47 108.90 1.63 o
-10 10 6 470.93 466.85 3.27 o
-9 10 6 34.91 33.76 0.82 o
-8 10 6 0.29 0.82 0.54 <
-7 10 6 13.51 15.79 0.54 o
-6 10 6 18.27 17.42 0.54 o
-5 10 6 11.57 12.79 0.54 o
-4 10 6 141.22 135.86 1.36 o
-3 10 6 284.43 271.50 2.18 o
-2 10 6 179.40 170.18 1.63 o
-1 10 6 468.72 456.77 3.00 o
0 10 6 0.47 3.27 0.54 o
1 10 6 113.40 111.35 1.63 o
2 10 6 52.26 53.63 1.09 o
3 10 6 294.93 291.65 2.45 o
4 10 6 7.32 8.98 0.82 o
5 10 6 164.67 164.18 1.91 o
6 10 6 549.77 560.88 4.90 o
7 10 6 13.91 13.07 0.82 o
8 10 6 262.73 266.59 3.00 o
9 10 6 56.31 57.72 1.63 o
10 10 6 152.39 152.74 2.18 o
11 10 6 0.73 -1.09 1.09 <
12 10 6 73.31 72.42 2.45 o
-16 11 6 16.70 19.06 0.82 o
-15 11 6 7.47 8.71 0.82 o
-14 11 6 566.93 581.58 4.90 o
-13 11 6 79.72 80.31 1.63 o
-12 11 6 10.20 10.62 0.82 o
-11 11 6 209.88 209.94 1.91 o
-10 11 6 46.86 45.74 1.09 o
-9 11 6 39.41 34.85 1.09 o
-8 11 6 1.85 2.18 0.54 o
-7 11 6 391.65 393.27 2.72 o
-6 11 6 475.76 465.22 3.27 o
-5 11 6 230.79 232.54 2.18 o
-4 11 6 635.92 634.48 4.36 o
-3 11 6 60.76 58.80 1.09 o
-2 11 6 117.45 116.25 1.63 o
-1 11 6 260.15 256.51 2.45 o
0 11 6 401.43 396.00 3.27 o
1 11 6 648.21 650.30 4.63 o
2 11 6 140.81 143.49 1.63 o
3 11 6 266.77 262.78 2.45 o
4 11 6 50.88 47.10 1.09 o
5 11 6 141.60 143.76 2.18 o
6 11 6 15.83 15.52 1.09 o
7 11 6 75.60 78.14 1.63 o
8 11 6 124.15 125.79 2.18 o
9 11 6 46.30 45.19 1.63 o
10 11 6 315.83 313.99 3.00 o
11 11 6 24.96 25.05 1.36 o
-16 12 6 4.17 0.00 1.36 <
-15 12 6 55.33 57.99 1.36 o
-14 12 6 43.04 45.19 1.36 o
-13 12 6 118.03 117.89 1.91 o
-12 12 6 90.88 89.03 1.36 o
-11 12 6 0.28 1.09 0.54 <
-10 12 6 515.85 529.25 3.81 o
-9 12 6 124.30 122.25 1.63 o
-8 12 6 76.82 73.23 1.36 o
-7 12 6 423.68 430.33 3.00 o
-6 12 6 122.04 114.08 1.36 o
-5 12 6 282.09 281.03 2.72 o
-4 12 6 3.83 4.90 0.54 o
-3 12 6 751.62 760.73 5.72 o
-2 12 6 166.78 165.27 1.91 o
-1 12 6 0.85 1.36 0.54 <
0 12 6 455.02 464.94 3.81 o
1 12 6 33.07 36.21 1.09 o
2 12 6 236.28 241.80 2.18 o
3 12 6 35.07 34.57 1.09 o
4 12 6 140.73 145.66 1.91 o
5 12 6 10.56 10.07 0.82 o
6 12 6 3.83 3.27 0.82 o
7 12 6 151.32 159.82 2.18 o
8 12 6 3.79 4.08 0.82 o
9 12 6 6.23 6.81 0.82 o
10 12 6 23.12 24.77 1.09 o
-15 13 6 2.03 1.91 0.82 <
-14 13 6 2.64 2.99 0.82 o
-13 13 6 2.02 2.18 0.82 <
-12 13 6 183.92 178.07 1.91 o
-11 13 6 30.39 30.76 0.82 o
-10 13 6 68.44 69.97 1.36 o
-9 13 6 380.08 381.56 3.00 o
-8 13 6 0.32 1.91 0.54 o
-7 13 6 55.31 55.26 1.36 o
-6 13 6 47.64 44.37 1.36 o
-5 13 6 23.54 21.78 1.09 o
-4 13 6 1.37 1.63 0.82 <
-3 13 6 312.71 307.18 3.00 o
-2 13 6 298.54 293.02 2.72 o
-1 13 6 348.36 344.78 3.00 o
0 13 6 214.76 221.65 2.45 o
1 13 6 75.46 79.77 1.63 o
2 13 6 4.00 3.81 0.82 o
3 13 6 97.63 100.19 1.63 o
4 13 6 473.52 481.29 3.81 o
5 13 6 29.24 26.68 1.09 o
6 13 6 210.97 220.28 2.45 o
7 13 6 273.75 278.57 2.72 o
8 13 6 17.61 17.15 1.09 o
9 13 6 10.35 10.62 1.09 o
-15 14 6 14.59 14.16 1.36 o
-14 14 6 0.33 -0.54 0.82 <
-13 14 6 527.82 526.54 4.63 o
-12 14 6 37.08 39.20 1.09 o
-11 14 6 2.82 4.90 0.82 o
-10 14 6 0.20 1.63 0.54 o
-9 14 6 276.02 276.12 2.45 o
-8 14 6 180.58 179.43 2.18 o
-7 14 6 31.30 32.12 1.09 o
-6 14 6 439.16 449.13 4.36 o
-5 14 6 146.02 145.94 2.18 o
-4 14 6 146.16 151.93 2.18 o
-3 14 6 0.76 0.82 0.82 <
-2 14 6 20.65 20.15 0.82 o
-1 14 6 142.38 147.03 1.91 o
0 14 6 83.58 87.66 1.63 o
1 14 6 292.96 295.74 3.00 o
2 14 6 325.55 332.24 3.00 o
3 14 6 228.46 238.53 2.45 o
4 14 6 58.98 60.71 1.63 o
5 14 6 2.56 4.08 0.82 o
6 14 6 27.20 27.22 1.09 o
7 14 6 131.55 131.50 1.91 o
8 14 6 222.72 231.73 3.27 o
9 14 6 88.68 78.96 3.27 o
-14 15 6 73.24 67.52 1.91 o
-13 15 6 36.96 38.39 1.91 o
-12 15 6 245.10 243.71 2.45 o
-11 15 6 160.14 158.19 1.91 o
-10 15 6 1.07 0.27 0.82 <
-9 15 6 272.44 278.30 2.45 o
-8 15 6 2.68 2.45 0.82 <
-7 15 6 393.94 401.44 3.54 o
-6 15 6 96.09 96.38 1.91 o
-5 15 6 281.13 285.66 3.00 o
-4 15 6 187.35 191.69 2.18 o
-3 15 6 5.54 5.72 0.82 o
-2 15 6 234.20 245.89 2.72 o
-1 15 6 5.47 5.99 0.82 o
0 15 6 146.63 153.02 1.91 o
1 15 6 160.82 172.35 2.18 o
2 15 6 29.48 32.12 1.09 o
3 15 6 62.17 67.52 1.63 o
4 15 6 49.82 51.45 1.63 o
5 15 6 82.39 86.03 1.63 o
6 15 6 1.30 1.09 1.09 <
7 15 6 6.01 9.53 1.09 o
8 15 6 13.70 16.88 2.45 o
-13 16 6 0.20 0.82 1.09 <
-12 16 6 77.32 74.60 1.63 o
-11 16 6 391.01 378.84 3.27 o
-10 16 6 22.12 23.41 1.09 o
-9 16 6 35.37 37.30 1.09 o
-8 16 6 38.94 41.38 1.36 o
-7 16 6 7.07 6.81 0.82 o
-6 16 6 27.87 26.68 0.82 o
-5 16 6 130.38 128.51 1.91 o
-4 16 6 285.76 292.47 3.00 o
-3 16 6 107.34 108.63 1.91 o
-2 16 6 357.43 367.65 3.27 o
-1 16 6 19.49 20.96 0.82 o
0 16 6 7.16 8.17 0.82 o
1 16 6 90.10 92.84 1.63 o
2 16 6 231.77 236.35 2.72 o
3 16 6 6.77 6.81 0.82 o
4 16 6 93.66 98.01 1.91 o
5 16 6 360.26 362.21 4.36 o
6 16 6 31.41 29.67 1.63 o
7 16 6 90.99 92.84 4.36 o
-13 17 6 2.94 1.09 1.36 <
-12 17 6 79.77 78.14 2.18 o
-11 17 6 48.15 47.10 1.36 o
-10 17 6 0.32 1.09 0.82 <
-9 17 6 8.77 8.44 0.82 o
-8 17 6 109.39 110.26 1.91 o
-7 17 6 203.99 208.57 2.45 o
-6 17 6 64.94 67.24 1.36 o
-5 17 6 283.68 296.28 3.00 o
-4 17 6 10.85 11.43 0.82 o
-3 17 6 34.12 34.85 1.36 o
-2 17 6 224.82 233.90 2.45 o
-1 17 6 115.07 118.71 1.63 o
0 17 6 207.92 212.11 2.18 o
1 17 6 31.09 35.12 1.09 o
2 17 6 95.53 97.19 1.63 o
3 17 6 33.14 34.85 1.36 o
4 17 6 65.48 67.24 2.18 o
5 17 6 30.05 31.58 1.91 o
6 17 6 28.16 28.04 2.72 o
-12 18 6 18.02 20.15 1.91 o
-11 18 6 115.73 113.26 1.91 o
-10 18 6 26.28 26.41 1.09 o
-9 18 6 148.44 141.58 1.91 o
-8 18 6 179.14 179.43 2.18 o
-7 18 6 3.23 4.36 0.82 o
-6 18 6 244.87 255.15 2.72 o
-5 18 6 28.97 30.22 1.09 o
-4 18 6 162.70 167.72 2.18 o
-3 18 6 50.19 49.28 1.91 o
-2 18 6 48.66 50.91 1.63 o
-1 18 6 177.49 185.69 2.72 o
0 18 6 2.98 4.08 0.82 o
1 18 6 218.33 222.46 2.72 o
2 18 6 0.43 0.82 1.09 <
3 18 6 11.87 11.43 1.36 o
4 18 6 3.07 4.90 1.36 o
-10 19 6 179.59 167.74 2.45 o
-9 19 6 1.90 1.63 0.82 <
-8 19 6 30.46 32.94 1.09 o
-7 19 6 8.81 8.44 0.82 o
-6 19 6 61.24 61.80 1.36 o
-5 19 6 10.36 10.34 0.82 o
-4 19 6 252.09 248.89 2.72 o
-3 19 6 163.10 160.10 2.45 o
-2 19 6 80.66 78.68 1.91 o
-1 19 6 103.45 104.28 1.91 o
0 19 6 19.60 20.15 1.09 o
1 19 6 6.94 5.44 1.36 o
2 19 6 85.85 86.03 3.27 o
-8 20 6 12.85 10.89 1.09 o
-7 20 6 107.91 109.45 1.63 o
-6 20 6 37.75 40.56 1.36 o
-5 20 6 13.45 14.43 0.82 o
-4 20 6 9.64 9.26 0.82 o
-3 20 6 0.11 0.27 0.82 <
-2 20 6 28.87 32.67 1.09 o
-1 20 6 35.44 32.67 2.18 o
0 20 6 76.94 55.81 4.08 o
-2 -19 7 10.05 10.89 1.63 o
-1 -19 7 106.18 99.65 2.72 o
0 -19 7 27.56 28.31 1.91 o
1 -19 7 106.42 110.54 2.99 o
2 -19 7 177.86 173.45 3.27 o
3 -19 7 8.35 9.26 1.36 o
4 -19 7 14.37 17.69 1.63 o
5 -19 7 7.69 7.62 1.63 o
6 -19 7 94.14 100.74 3.27 o
7 -19 7 23.60 23.96 1.63 o
-4 -18 7 108.67 97.75 3.27 o
-3 -18 7 68.09 66.43 2.45 o
-2 -18 7 172.07 175.62 3.27 o
-1 -18 7 13.07 13.34 1.36 o
0 -18 7 87.41 89.03 2.18 o
1 -18 7 24.54 27.77 1.36 o
2 -18 7 28.39 29.67 1.36 o
3 -18 7 164.20 165.82 2.72 o
4 -18 7 0.45 0.82 0.82 <
5 -18 7 140.37 143.49 2.18 o
6 -18 7 3.73 4.36 1.09 o
7 -18 7 10.06 12.25 1.09 o
8 -18 7 2.98 2.18 0.82 <
9 -18 7 0.24 0.00 1.91 <
-5 -17 7 10.81 6.26 1.36 o
-4 -17 7 147.74 146.48 3.00 o
-3 -17 7 97.86 97.47 2.18 o
-2 -17 7 73.52 77.59 2.18 o
-1 -17 7 93.97 99.37 2.45 o
0 -17 7 52.27 54.45 1.91 o
1 -17 7 138.23 144.03 2.72 o
2 -17 7 149.94 156.28 2.45 o
3 -17 7 90.76 90.93 1.63 o
4 -17 7 156.19 156.56 2.18 o
5 -17 7 224.36 228.46 2.72 o
6 -17 7 15.39 15.24 1.09 o
7 -17 7 260.31 258.69 2.72 o
8 -17 7 118.46 121.16 1.63 o
9 -17 7 86.54 91.75 1.63 o
10 -17 7 25.72 29.13 1.63 o
-6 -16 7 0.44 0.54 1.09 <
-5 -16 7 67.23 67.52 2.18 o
-4 -16 7 39.09 40.29 1.91 o
-3 -16 7 34.10 34.57 1.91 o
-2 -16 7 19.49 19.87 1.36 o
-1 -16 7 195.38 199.86 3.27 o
0 -16 7 293.00 293.56 4.08 o
1 -16 7 32.42 33.21 1.36 o
2 -16 7 40.09 41.38 1.63 o
3 -16 7 61.24 59.08 1.63 o
4 -16 7 35.24 37.02 1.36 o
5 -16 7 12.29 12.52 0.82 o
6 -16 7 49.39 50.64 1.36 o
7 -16 7 128.06 126.60 1.91 o
8 -16 7 27.83 28.31 1.09 o
9 -16 7 120.91 120.89 1.63 o
10 -16 7 65.48 65.34 1.36 o
11 -16 7 1.38 0.82 0.82 <
-8 -15 7 58.81 54.72 2.99 o
-7 -15 7 13.95 14.97 1.36 o
-6 -15 7 377.56 384.01 5.45 o
-5 -15 7 23.92 23.96 1.63 o
-4 -15 7 153.43 157.37 2.99 o
-3 -15 7 30.57 32.94 1.63 o
-2 -15 7 143.13 145.66 3.27 o
-1 -15 7 159.24 167.72 3.00 o
0 -15 7 4.99 5.17 1.09 o
1 -15 7 487.21 501.99 4.63 o
2 -15 7 1.43 1.09 0.82 <
3 -15 7 96.67 101.55 1.91 o
4 -15 7 24.66 25.59 1.09 o
5 -15 7 64.27 61.53 1.63 o
6 -15 7 13.59 14.97 0.82 o
7 -15 7 13.51 14.70 0.82 o
8 -15 7 145.92 149.20 2.18 o
9 -15 7 1.85 3.81 0.82 o
10 -15 7 2.87 4.63 0.82 o
11 -15 7 1.93 2.72 0.82 o
12 -15 7 23.27 24.77 1.09 o
-9 -14 7 12.04 14.16 1.91 o
-8 -14 7 15.39 14.97 1.63 o
-7 -14 7 10.04 10.34 1.36 o
-6 -14 7 194.74 197.95 3.27 o
-5 -14 7 91.16 93.11 2.45 o
-4 -14 7 242.32 244.80 3.54 o
-3 -14 7 272.98 280.48 4.36 o
-2 -14 7 164.52 170.72 3.27 o
-1 -14 7 21.53 20.96 1.36 o
0 -14 7 3.12 3.81 0.82 o
1 -14 7 22.60 21.51 1.09 o
2 -14 7 547.50 562.23 5.18 o
3 -14 7 346.65 358.12 3.27 o
4 -14 7 151.87 151.66 1.91 o
5 -14 7 188.02 191.96 2.45 o
6 -14 7 328.79 338.78 3.27 o
7 -14 7 1.94 2.72 0.82 o
8 -14 7 52.03 51.73 1.63 o
9 -14 7 256.88 271.21 3.00 o
10 -14 7 364.27 374.74 3.54 o
11 -14 7 93.36 95.56 1.63 o
12 -14 7 145.01 142.13 1.91 o
-10 -13 7 124.67 112.18 3.27 o
-9 -13 7 44.80 45.74 2.18 o
-8 -13 7 0.64 1.09 1.09 <
-7 -13 7 120.79 122.79 2.72 o
-6 -13 7 76.40 74.87 2.45 o
-5 -13 7 4.91 4.08 1.09 o
-4 -13 7 0.05 -0.27 1.09 <
-3 -13 7 35.65 37.57 1.91 o
-2 -13 7 71.33 66.43 2.18 o
-1 -13 7 104.46 107.27 1.91 o
0 -13 7 86.25 84.67 1.91 o
1 -13 7 301.59 294.65 3.00 o
2 -13 7 1.16 1.91 0.82 <
3 -13 7 8.11 8.98 0.82 o
4 -13 7 4.35 4.90 0.82 o
5 -13 7 108.98 110.54 1.63 o
6 -13 7 148.52 149.20 1.91 o
7 -13 7 239.83 240.44 2.72 o
8 -13 7 127.32 124.42 1.91 o
9 -13 7 0.09 1.36 0.82 <
10 -13 7 3.85 6.26 0.82 o
11 -13 7 0.00 0.54 0.82 <
12 -13 7 2.73 1.91 0.82 <
13 -13 7 3.45 1.91 0.82 <
-11 -12 7 114.61 92.57 4.90 o
-10 -12 7 176.00 181.62 3.27 o
-9 -12 7 2.98 4.08 1.09 o
-8 -12 7 462.72 477.46 5.99 o
-7 -12 7 4.53 7.62 1.36 o
-6 -12 7 34.05 32.12 1.63 o
-5 -12 7 305.97 310.45 4.36 o
-4 -12 7 398.42 401.45 5.17 o
-3 -12 7 175.74 179.71 3.27 o
-2 -12 7 3.41 3.54 1.09 o
-1 -12 7 452.14 463.30 4.36 o
0 -12 7 33.17 29.40 1.09 o
1 -12 7 1.89 2.99 0.82 o
2 -12 7 560.01 555.44 4.36 o
3 -12 7 90.19 87.67 1.63 o
4 -12 7 117.97 124.70 1.63 o
5 -12 7 35.31 35.94 1.09 o
6 -12 7 134.77 131.23 1.91 o
7 -12 7 0.90 0.82 0.82 <
8 -12 7 32.70 32.67 1.09 o
9 -12 7 309.98 314.26 3.27 o
10 -12 7 8.01 8.71 0.82 o
11 -12 7 1.28 2.18 0.82 <
12 -12 7 62.27 65.07 1.63 o
13 -12 7 43.89 40.29 1.63 o
-11 -11 7 41.68 45.74 2.18 o
-10 -11 7 1.63 0.82 1.09 <
-9 -11 7 57.14 57.44 2.18 o
-8 -11 7 40.70 39.75 1.91 o
-7 -11 7 118.12 117.34 2.72 o
-6 -11 7 29.90 29.40 1.63 o
-5 -11 7 459.54 461.13 5.72 o
-4 -11 7 129.65 131.23 2.72 o
-3 -11 7 239.67 245.34 3.54 o
-2 -11 7 162.32 165.00 2.18 o
-1 -11 7 62.24 63.98 1.36 o
0 -11 7 289.41 284.84 2.72 o
1 -11 7 277.92 276.13 2.72 o
2 -11 7 331.77 322.98 2.72 o
3 -11 7 314.83 315.08 2.72 o
4 -11 7 673.35 690.10 4.90 o
5 -11 7 26.87 24.77 0.82 o
6 -11 7 343.66 352.95 3.54 o
7 -11 7 205.99 213.75 2.72 o
8 -11 7 173.94 177.80 2.45 o
9 -11 7 78.51 77.05 1.63 o
10 -11 7 472.14 493.27 4.36 o
11 -11 7 433.16 438.77 3.81 o
12 -11 7 29.03 29.40 1.09 o
13 -11 7 64.88 60.17 1.63 o
14 -11 7 166.95 164.74 3.27 o
-12 -10 7 18.58 21.23 1.36 o
-11 -10 7 3.46 5.17 1.09 o
-10 -10 7 4.28 5.17 1.09 o
-9 -10 7 184.15 185.15 3.54 o
-8 -10 7 31.59 30.76 1.63 o
-7 -10 7 7.33 7.35 1.09 o
-6 -10 7 5.46 3.81 1.09 o
-5 -10 7 78.20 75.41 2.18 o
-4 -10 7 0.14 -0.54 0.82 <
-3 -10 7 55.72 56.08 1.36 o
-2 -10 7 293.08 288.66 2.72 o
-1 -10 7 320.88 309.09 3.00 o
0 -10 7 74.46 74.32 1.36 o
1 -10 7 8.16 9.53 0.54 o
2 -10 7 51.17 49.55 1.09 o
3 -10 7 2.58 2.99 0.54 o
4 -10 7 47.33 48.73 1.09 o
5 -10 7 13.23 12.52 0.82 o
6 -10 7 140.02 145.66 2.18 o
7 -10 7 86.44 88.21 1.91 o
8 -10 7 79.92 77.86 1.63 o
9 -10 7 48.04 48.19 1.63 o
10 -10 7 27.50 27.22 1.09 o
11 -10 7 6.01 6.26 0.82 o
12 -10 7 16.75 16.88 0.82 o
13 -10 7 7.91 8.71 0.82 o
14 -10 7 10.95 9.26 0.82 o
-13 -9 7 78.52 75.14 2.45 o
-12 -9 7 6.91 7.89 1.09 o
-11 -9 7 3.69 3.81 1.09 o
-10 -9 7 358.01 374.19 5.17 o
-9 -9 7 66.16 65.88 2.18 o
-8 -9 7 2.30 3.81 1.09 o
-7 -9 7 999.79 1040.04 10.90 o
-6 -9 7 136.32 135.86 2.45 o
-5 -9 7 63.64 64.25 1.91 o
-4 -9 7 27.83 31.03 1.09 o
-3 -9 7 641.55 626.05 4.63 o
-2 -9 7 231.73 231.45 2.45 o
-1 -9 7 13.07 14.70 0.82 o
0 -9 7 1418.28 1443.28 9.82 o
1 -9 7 9.63 9.80 0.82 o
2 -9 7 17.04 19.60 0.82 o
3 -9 7 38.41 39.20 1.09 o
4 -9 7 470.83 465.22 3.81 o
5 -9 7 6.22 8.98 0.82 o
6 -9 7 124.25 127.96 1.91 o
7 -9 7 478.76 457.33 4.36 o
8 -9 7 21.92 20.96 1.09 o
9 -9 7 78.17 78.41 1.63 o
10 -9 7 8.31 6.53 0.82 o
11 -9 7 0.50 0.27 0.82 <
12 -9 7 1.55 2.45 0.82 <
13 -9 7 95.50 95.83 1.91 o
14 -9 7 136.75 135.59 2.18 o
-13 -8 7 30.21 32.12 1.63 o
-12 -8 7 23.84 21.23 1.36 o
-11 -8 7 361.38 370.92 4.90 o
-10 -8 7 7.73 10.89 1.36 o
-9 -8 7 44.82 45.74 2.18 o
-8 -8 7 0.07 1.36 1.09 <
-7 -8 7 385.55 389.19 5.17 o
-6 -8 7 64.19 66.97 1.63 o
-5 -8 7 352.45 342.33 3.54 o
-4 -8 7 451.91 447.50 4.09 o
-3 -8 7 293.98 287.02 2.45 o
-2 -8 7 78.00 74.32 1.36 o
-1 -8 7 25.02 23.41 0.82 o
0 -8 7 132.43 127.42 1.63 o
1 -8 7 638.91 625.22 4.63 o
2 -8 7 642.66 630.67 4.36 o
3 -8 7 148.06 139.68 1.63 o
4 -8 7 368.30 363.30 3.27 o
5 -8 7 613.47 614.31 5.18 o
6 -8 7 1.90 3.27 0.54 o
7 -8 7 18.67 18.78 0.82 o
8 -8 7 330.58 349.13 3.00 o
9 -8 7 823.01 839.27 5.18 o
10 -8 7 80.74 80.86 1.36 o
11 -8 7 218.21 221.65 2.18 o
12 -8 7 223.08 224.64 2.18 o
13 -8 7 0.42 -0.27 0.82 <
14 -8 7 49.29 50.36 1.36 o
-14 -7 7 0.27 -3.27 1.36 <
-13 -7 7 94.92 100.19 2.45 o
-12 -7 7 7.81 7.89 1.09 o
-11 -7 7 131.15 137.22 2.99 o
-10 -7 7 1.90 2.99 1.09 <
-9 -7 7 6.18 7.08 1.36 o
-8 -7 7 29.41 29.40 1.36 o
-7 -7 7 42.29 41.38 1.63 o
-6 -7 7 19.20 19.60 0.82 o
-5 -7 7 44.84 44.37 1.36 o
-4 -7 7 13.47 13.88 0.82 o
-3 -7 7 0.25 0.82 0.54 <
-2 -7 7 188.36 179.71 1.63 o
-1 -7 7 2.42 4.08 0.54 o
0 -7 7 330.83 320.26 2.18 o
1 -7 7 43.44 41.11 0.82 o
2 -7 7 27.74 28.04 0.82 o
3 -7 7 28.16 28.04 0.82 o
4 -7 7 13.53 14.70 0.82 o
5 -7 7 330.12 324.62 2.72 o
6 -7 7 99.85 95.83 1.36 o
7 -7 7 102.12 102.91 1.36 o
8 -7 7 35.99 36.75 1.09 o
9 -7 7 25.41 23.68 0.82 o
10 -7 7 1.72 1.91 0.82 <
11 -7 7 14.00 14.70 0.82 o
12 -7 7 21.06 19.33 0.82 o
13 -7 7 38.25 40.84 1.36 o
14 -7 7 0.07 1.63 0.82 <
15 -7 7 13.63 13.88 1.09 o
-14 -6 7 16.94 18.51 1.36 o
-13 -6 7 44.03 46.01 1.63 o
-12 -6 7 323.71 349.12 5.45 o
-11 -6 7 148.65 156.28 3.27 o
-10 -6 7 14.01 16.33 1.36 o
-9 -6 7 1084.10 1119.47 11.45 o
-8 -6 7 4.04 3.81 0.82 o
-7 -6 7 2.30 3.27 0.82 o
-6 -6 7 480.94 483.47 4.09 o
-5 -6 7 953.72 950.03 7.09 o
-4 -6 7 106.31 102.91 1.36 o
-3 -6 7 3.29 4.08 0.54 o
-2 -6 7 1500.97 1513.73 8.45 o
-1 -6 7 160.71 160.37 1.36 o
0 -6 7 108.44 107.00 1.09 o
1 -6 7 823.02 820.17 4.63 o
2 -6 7 326.18 317.53 2.18 o
3 -6 7 105.49 104.55 1.36 o
4 -6 7 56.29 56.90 1.09 o
5 -6 7 638.14 623.04 4.09 o
6 -6 7 2.63 4.36 0.54 o
7 -6 7 309.70 309.09 2.72 o
8 -6 7 483.43 473.94 3.27 o
9 -6 7 9.71 9.80 0.82 o
10 -6 7 5.34 5.44 0.82 o
11 -6 7 115.33 122.52 1.63 o
12 -6 7 166.21 166.63 1.91 o
13 -6 7 10.55 11.16 0.82 o
14 -6 7 203.43 209.12 2.45 o
15 -6 7 60.40 59.89 1.63 o
-14 -5 7 56.26 56.90 2.18 o
-13 -5 7 449.99 462.75 5.17 o
-12 -5 7 23.30 25.05 1.63 o
-11 -5 7 2.17 3.81 1.09 o
-10 -5 7 35.51 39.75 1.63 o
-9 -5 7 42.70 42.47 1.63 o
-8 -5 7 122.78 121.70 1.91 o
-7 -5 7 57.06 52.54 1.09 o
-6 -5 7 652.46 638.04 4.90 o
-5 -5 7 64.85 65.34 1.36 o
-4 -5 7 285.09 266.05 2.18 o
-3 -5 7 77.62 78.14 1.09 o
-2 -5 7 133.68 133.14 1.36 o
-1 -5 7 248.58 237.99 1.91 o
0 -5 7 392.39 377.47 2.45 o
1 -5 7 492.26 478.30 3.00 o
2 -5 7 342.30 340.96 2.18 o
3 -5 7 1104.14 1085.37 5.72 o
4 -5 7 1.14 2.45 0.54 o
5 -5 7 473.16 443.42 3.00 o
6 -5 7 113.39 111.08 1.36 o
7 -5 7 250.85 244.26 2.18 o
8 -5 7 67.16 68.33 1.09 o
9 -5 7 662.06 689.82 4.90 o
10 -5 7 689.49 696.10 4.90 o
11 -5 7 12.89 13.07 0.82 o
12 -5 7 50.17 49.55 1.36 o
13 -5 7 131.05 132.87 1.91 o
14 -5 7 69.37 68.88 1.36 o
15 -5 7 1.79 1.91 0.82 <
-15 -4 7 103.05 96.11 2.45 o
-14 -4 7 0.07 0.27 1.09 <
-13 -4 7 14.07 16.61 1.09 o
-12 -4 7 106.80 104.00 2.45 o
-11 -4 7 19.88 20.69 1.09 o
-10 -4 7 71.22 74.60 1.63 o
-9 -4 7 0.16 1.09 0.82 <
-8 -4 7 106.74 104.00 1.63 o
-7 -4 7 40.87 40.02 1.09 o
-6 -4 7 142.39 130.96 1.63 o
-5 -4 7 126.57 120.89 1.36 o
-4 -4 7 190.61 185.97 1.63 o
-3 -4 7 140.40 133.68 1.36 o
-2 -4 7 134.99 127.69 1.36 o
-1 -4 7 6.90 9.80 0.54 o
0 -4 7 303.15 296.55 2.18 o
1 -4 7 102.27 97.47 1.09 o
2 -4 7 132.90 123.06 1.09 o
3 -4 7 165.83 168.54 1.36 o
4 -4 7 15.72 15.24 0.54 o
5 -4 7 14.57 16.06 0.54 o
6 -4 7 59.99 58.26 1.09 o
7 -4 7 1.16 2.18 0.54 o
8 -4 7 97.36 93.66 1.36 o
9 -4 7 211.16 188.97 1.91 o
10 -4 7 47.08 47.37 1.36 o
11 -4 7 0.31 0.82 0.54 <
12 -4 7 5.94 6.53 0.82 o
13 -4 7 9.73 8.71 0.82 o
14 -4 7 43.81 45.74 1.36 o
15 -4 7 0.09 0.54 0.82 <
-15 -3 7 262.90 264.42 4.63 o
-14 -3 7 219.32 230.36 3.27 o
-13 -3 7 0.62 0.82 0.82 <
-12 -3 7 3.44 6.81 1.09 o
-11 -3 7 574.95 605.84 5.18 o
-10 -3 7 73.45 75.68 1.63 o
-9 -3 7 30.21 31.03 1.09 o
-8 -3 7 1725.38 1779.91 12.28 o
-7 -3 7 412.81 409.35 3.27 o
-6 -3 7 12.69 12.52 0.54 o
-5 -3 7 1.85 4.08 0.54 o
-4 -3 7 1199.32 1218.52 6.27 o
-3 -3 7 437.43 436.59 2.72 o
-2 -3 7 26.83 31.31 0.82 o
-1 -3 7 2666.12 2749.17 13.93 o
0 -3 7 54.34 50.36 0.82 o
1 -3 7 17.71 18.78 0.54 o
2 -3 7 6.59 7.08 0.54 o
3 -3 7 1246.53 1256.48 6.27 o
4 -3 7 57.90 56.63 0.82 o
5 -3 7 236.33 237.72 1.63 o
6 -3 7 725.90 713.56 4.36 o
7 -3 7 31.43 31.03 0.82 o
8 -3 7 255.91 256.51 2.18 o
9 -3 7 11.22 8.44 0.54 o
10 -3 7 72.35 75.41 1.36 o
11 -3 7 6.53 7.08 0.82 o
12 -3 7 241.90 249.97 2.72 o
13 -3 7 176.52 185.42 2.45 o
14 -3 7 8.17 8.44 0.82 o
15 -3 7 180.78 176.45 2.18 o
-15 -2 7 136.21 125.79 2.45 o
-14 -2 7 8.63 9.53 1.09 o
-13 -2 7 8.13 8.44 0.82 o
-12 -2 7 294.32 299.55 3.27 o
-11 -2 7 7.07 8.44 0.82 o
-10 -2 7 6.23 6.53 0.82 o
-9 -2 7 12.74 12.52 0.82 o
-8 -2 7 318.17 314.81 3.00 o
-7 -2 7 5.48 7.08 0.54 o
-6 -2 7 284.66 264.69 2.18 o
-5 -2 7 320.28 312.08 2.18 o
-4 -2 7 359.61 355.67 2.18 o
-3 -2 7 14.34 14.16 0.54 o
-2 -2 7 118.88 111.36 1.09 o
-1 -2 7 84.00 79.77 0.82 o
0 -2 7 421.90 407.99 2.18 o
1 -2 7 666.71 630.68 3.00 o
2 -2 7 38.93 39.47 0.82 o
3 -2 7 475.60 464.94 2.72 o
4 -2 7 519.72 496.83 2.72 o
5 -2 7 37.81 38.11 0.82 o
6 -2 7 52.25 47.10 1.09 o
7 -2 7 179.74 171.81 1.63 o
8 -2 7 965.33 953.88 6.00 o
9 -2 7 11.81 11.71 0.82 o
10 -2 7 257.04 256.79 2.45 o
11 -2 7 160.66 158.46 2.18 o
12 -2 7 5.70 8.98 0.82 o
13 -2 7 83.05 83.31 1.63 o
14 -2 7 61.23 63.16 1.36 o
15 -2 7 189.23 175.36 2.45 o
-16 -1 7 2.02 2.45 1.36 <
-15 -1 7 0.33 -1.36 1.09 <
-14 -1 7 371.49 375.01 3.54 o
-13 -1 7 28.95 30.76 1.09 o
-12 -1 7 61.74 66.43 1.63 o
-11 -1 7 18.52 19.33 1.09 o
-10 -1 7 14.75 13.88 0.82 o
-9 -1 7 22.46 21.23 0.82 o
-8 -1 7 2.01 2.18 0.54 o
-7 -1 7 353.14 340.15 2.72 o
-6 -1 7 173.10 167.45 1.63 o
-5 -1 7 45.74 42.20 0.82 o
-4 -1 7 59.61 57.99 0.82 o
-3 -1 7 195.29 193.59 1.36 o
-2 -1 7 49.47 47.91 0.82 o
-1 -1 7 153.05 148.12 1.09 o
0 -1 7 399.61 382.65 1.91 o
1 -1 7 365.86 360.03 1.91 o
2 -1 7 309.40 294.38 1.63 o
3 -1 7 29.81 26.95 0.54 o
4 -1 7 264.20 254.61 1.63 o
5 -1 7 17.19 18.24 0.54 o
6 -1 7 46.62 46.82 1.09 o
7 -1 7 142.25 139.40 1.63 o
8 -1 7 301.76 299.83 2.72 o
9 -1 7 41.06 36.75 1.09 o
10 -1 7 179.98 182.70 2.45 o
11 -1 7 5.92 6.53 0.82 o
12 -1 7 0.06 1.91 0.82 <
13 -1 7 2.08 2.72 0.82 o
14 -1 7 36.75 40.02 1.09 o
15 -1 7 0.34 2.18 0.82 <
-16 0 7 8.33 9.53 1.63 o
-15 0 7 27.65 28.86 1.09 o
-14 0 7 38.71 41.38 1.36 o
-13 0 7 452.35 472.01 4.09 o
-12 0 7 135.84 141.85 1.91 o
-11 0 7 70.28 72.15 1.63 o
-10 0 7 1349.22 1418.67 10.36 o
-9 0 7 36.49 37.02 1.09 o
-8 0 7 1.88 2.45 0.54 o
-7 0 7 474.16 485.10 3.81 o
-6 0 7 1215.82 1227.00 7.09 o
-5 0 7 75.68 74.32 1.09 o
-4 0 7 25.12 25.59 0.54 o
-3 0 7 2326.80 2392.72 10.92 o
-2 0 7 446.05 432.79 2.45 o
-1 0 7 179.53 178.62 1.36 o
0 0 7 713.17 711.91 3.27 o
1 0 7 419.46 410.71 2.18 o
2 0 7 135.32 130.96 1.09 o
3 0 7 52.67 56.35 0.82 o
4 0 7 1128.16 1141.28 6.00 o
5 0 7 21.62 20.15 0.54 o
6 0 7 579.63 587.86 4.09 o
7 0 7 395.43 386.47 3.00 o
8 0 7 37.13 37.57 1.09 o
9 0 7 0.10 0.54 0.82 <
10 0 7 128.82 138.85 2.18 o
11 0 7 245.35 257.33 3.00 o
12 0 7 13.98 14.70 0.82 o
13 0 7 339.89 353.49 3.27 o
14 0 7 55.34 55.81 1.36 o
-16 1 7 3.68 2.18 1.36 <
-15 1 7 42.17 41.92 1.36 o
-14 1 7 240.35 246.98 2.72 o
-13 1 7 18.25 19.60 0.82 o
-12 1 7 52.45 54.18 1.36 o
-11 1 7 4.13 5.44 0.82 o
-10 1 7 18.90 20.69 0.82 o
-9 1 7 6.05 6.26 0.82 o
-8 1 7 56.60 47.91 1.09 o
-7 1 7 269.93 264.68 2.45 o
-6 1 7 36.66 38.11 0.82 o
-5 1 7 62.46 59.35 1.09 o
-4 1 7 18.36 19.60 0.54 o
-3 1 7 203.21 195.77 1.36 o
-2 1 7 43.18 40.56 0.54 o
-1 1 7 540.03 515.37 2.72 o
0 1 7 135.72 131.23 1.09 o
1 1 7 195.29 191.96 1.36 o
2 1 7 573.68 545.08 2.72 o
3 1 7 48.60 48.46 0.82 o
4 1 7 702.61 683.02 3.81 o
5 1 7 19.72 17.15 0.54 o
6 1 7 363.64 353.77 2.72 o
7 1 7 2.43 4.08 0.54 o
8 1 7 431.69 428.97 4.09 o
9 1 7 442.76 442.05 4.36 o
10 1 7 4.63 5.99 0.82 o
11 1 7 111.43 110.26 1.91 o
12 1 7 50.01 49.00 1.36 o
13 1 7 102.13 102.91 1.63 o
14 1 7 21.60 21.23 0.82 o
-16 2 7 216.06 206.68 2.45 o
-15 2 7 16.43 15.52 0.82 o
-14 2 7 5.09 5.99 0.82 o
-13 2 7 355.28 361.12 3.27 o
-12 2 7 24.74 24.23 1.09 o
-11 2 7 0.68 1.09 0.82 <
-10 2 7 14.17 15.79 0.82 o
-9 2 7 372.99 364.67 3.00 o
-8 2 7 135.07 130.42 1.63 o
-7 2 7 181.82 169.36 1.91 o
-6 2 7 444.78 432.79 3.00 o
-5 2 7 362.70 362.48 2.18 o
-4 2 7 0.47 0.82 0.27 o
-3 2 7 15.09 14.43 0.54 o
-2 2 7 107.29 102.91 0.82 o
-1 2 7 678.30 666.11 3.27 o
0 2 7 214.48 205.04 1.36 o
1 2 7 312.80 304.18 1.91 o
2 2 7 341.74 337.96 2.18 o
3 2 7 159.17 153.56 1.36 o
4 2 7 48.85 45.46 0.82 o
5 2 7 0.08 2.72 0.54 o
6 2 7 123.27 119.25 1.36 o
7 2 7 262.03 249.98 2.45 o
8 2 7 401.70 405.54 3.81 o
9 2 7 84.66 84.13 1.63 o
10 2 7 5.77 4.08 0.82 o
11 2 7 72.92 73.51 1.63 o
12 2 7 1.13 0.82 0.82 <
13 2 7 1.48 0.27 0.54 <
14 2 7 6.21 6.53 0.82 o
-16 3 7 210.96 216.48 2.45 o
-15 3 7 240.29 248.34 3.00 o
-14 3 7 3.24 3.81 0.82 o
-13 3 7 11.38 10.89 0.82 o
-12 3 7 523.11 551.05 4.36 o
-11 3 7 91.25 90.12 1.63 o
-10 3 7 36.56 36.48 1.09 o
-9 3 7 1546.71 1589.44 10.09 o
-8 3 7 480.46 475.30 3.54 o
-7 3 7 34.59 29.95 0.82 o
-6 3 7 9.47 10.34 0.54 o
-5 3 7 1096.65 1122.43 6.00 o
-4 3 7 510.24 502.27 3.00 o
-3 3 7 23.24 24.77 0.54 o
-2 3 7 2524.70 2578.63 12.29 o
-1 3 7 95.65 90.39 0.82 o
0 3 7 4.19 5.17 0.27 o
1 3 7 1.18 2.99 0.54 o
2 3 7 1191.20 1215.24 6.00 o
3 3 7 111.71 106.72 1.09 o
4 3 7 211.48 210.48 1.63 o
5 3 7 654.57 644.57 4.09 o
6 3 7 48.99 47.10 1.09 o
7 3 7 207.65 206.67 2.45 o
8 3 7 1.90 0.82 0.82 <
9 3 7 69.24 70.51 1.63 o
10 3 7 21.25 22.87 1.09 o
11 3 7 239.54 246.16 2.72 o
12 3 7 145.72 150.84 1.91 o
13 3 7 5.12 5.99 0.82 o
14 3 7 161.45 154.39 2.45 o
-16 4 7 45.21 50.64 1.36 o
-15 4 7 1.01 1.36 0.82 <
-14 4 7 2.82 2.99 0.82 o
-13 4 7 73.72 71.60 1.63 o
-12 4 7 28.21 26.95 1.09 o
-11 4 7 59.10 57.17 1.63 o
-10 4 7 9.90 8.44 0.82 o
-9 4 7 98.18 95.83 1.63 o
-8 4 7 7.58 9.80 0.82 o
-7 4 7 136.96 126.88 1.63 o
-6 4 7 40.95 41.65 0.82 o
-5 4 7 300.17 288.11 1.91 o
-4 4 7 153.04 150.29 1.36 o
-3 4 7 136.44 131.23 1.09 o
-2 4 7 12.60 13.34 0.54 o
-1 4 7 216.37 208.30 1.36 o
0 4 7 380.07 366.85 2.18 o
1 4 7 0.71 2.18 0.27 o
2 4 7 306.01 300.37 1.91 o
3 4 7 76.86 73.78 1.09 o
4 4 7 165.82 160.91 1.63 o
5 4 7 323.05 315.63 2.45 o
6 4 7 48.23 48.73 1.09 o
7 4 7 541.09 534.99 4.36 o
8 4 7 3.37 3.54 0.82 o
9 4 7 208.04 210.48 2.45 o
10 4 7 48.73 46.01 1.36 o
11 4 7 62.40 63.16 1.63 o
12 4 7 200.27 197.41 2.45 o
13 4 7 4.05 4.63 0.82 o
-16 5 7 0.61 0.00 0.82 <
-15 5 7 610.29 618.12 5.99 o
-14 5 7 25.67 28.31 1.09 o
-13 5 7 13.65 13.88 0.82 o
-12 5 7 54.22 54.72 1.36 o
-11 5 7 31.19 31.58 1.09 o
-10 5 7 147.10 135.86 1.91 o
-9 5 7 0.65 1.63 0.54 o
-8 5 7 828.66 819.92 5.99 o
-7 5 7 193.26 189.24 1.91 o
-6 5 7 214.55 202.31 1.63 o
-5 5 7 116.97 113.26 1.09 o
-4 5 7 109.73 111.08 1.09 o
-3 5 7 159.04 156.83 1.36 o
-2 5 7 56.52 54.99 0.82 o
-1 5 7 850.80 842.81 4.36 o
0 5 7 595.64 590.59 3.27 o
1 5 7 667.92 657.65 3.54 o
2 5 7 99.57 95.83 1.09 o
3 5 7 123.24 117.89 1.36 o
4 5 7 1.90 2.99 0.54 o
5 5 7 20.70 20.15 0.82 o
6 5 7 262.11 262.78 2.45 o
7 5 7 546.67 541.53 4.36 o
8 5 7 130.16 129.05 1.91 o
9 5 7 323.07 326.79 3.00 o
10 5 7 0.64 2.18 0.82 <
11 5 7 20.85 20.15 1.09 o
12 5 7 1.58 3.27 0.82 o
13 5 7 59.08 57.17 1.63 o
-16 6 7 9.01 9.26 0.82 o
-15 6 7 12.36 13.61 0.82 o
-14 6 7 298.82 310.17 3.00 o
-13 6 7 182.42 187.33 2.18 o
-12 6 7 34.81 34.03 1.36 o
-11 6 7 931.65 977.55 7.90 o
-10 6 7 23.21 22.60 0.82 o
-9 6 7 12.68 13.61 0.82 o
-8 6 7 290.49 291.38 2.45 o
-7 6 7 899.75 902.01 6.00 o
-6 6 7 170.52 162.55 1.63 o
-5 6 7 11.85 11.98 0.54 o
-4 6 7 1416.96 1446.78 8.18 o
-3 6 7 321.10 318.08 2.18 o
-2 6 7 60.91 60.71 1.09 o
-1 6 7 514.51 521.34 3.00 o
0 6 7 308.22 302.82 2.18 o
1 6 7 234.65 233.36 1.91 o
2 6 7 52.36 51.73 1.09 o
3 6 7 628.74 638.02 4.36 o
4 6 7 26.08 25.86 0.82 o
5 6 7 276.93 278.30 2.45 o
6 6 7 308.32 311.54 3.00 o
7 6 7 18.54 18.78 0.82 o
8 6 7 4.81 6.81 0.82 o
9 6 7 133.33 139.13 2.18 o
10 6 7 132.77 137.77 2.18 o
11 6 7 2.09 1.36 0.82 <
12 6 7 191.36 190.06 2.72 o
13 6 7 28.22 28.04 1.91 o
-16 7 7 4.48 5.72 0.82 o
-15 7 7 46.43 41.92 1.36 o
-14 7 7 27.80 28.04 0.82 o
-13 7 7 157.07 161.18 2.18 o
-12 7 7 2.85 3.27 0.82 o
-11 7 7 0.01 0.82 0.82 <
-10 7 7 76.58 76.50 1.63 o
-9 7 7 13.02 12.25 0.54 o
-8 7 7 4.49 5.17 0.54 o
-7 7 7 55.01 50.91 1.09 o
-6 7 7 19.71 20.15 0.82 o
-5 7 7 2.05 3.81 0.54 o
-4 7 7 211.71 205.58 1.63 o
-3 7 7 30.46 31.58 0.82 o
-2 7 7 430.74 412.90 2.72 o
-1 7 7 25.67 27.22 0.82 o
0 7 7 89.87 87.39 1.36 o
1 7 7 35.81 36.75 1.09 o
2 7 7 65.10 71.87 1.36 o
3 7 7 793.02 785.28 5.45 o
4 7 7 5.51 5.72 0.54 o
5 7 7 359.85 362.48 3.27 o
6 7 7 67.15 67.52 1.63 o
7 7 7 163.90 166.09 2.18 o
8 7 7 88.43 86.03 1.63 o
9 7 7 41.66 41.65 1.63 o
10 7 7 231.10 232.81 3.27 o
11 7 7 4.96 5.72 0.82 o
12 7 7 95.20 92.84 1.63 o
-16 8 7 26.54 26.13 1.09 o
-15 8 7 0.18 0.82 0.82 <
-14 8 7 397.76 396.81 3.27 o
-13 8 7 7.50 7.08 0.82 o
-12 8 7 17.53 16.88 1.09 o
-11 8 7 20.13 19.06 1.09 o
-10 8 7 473.62 481.84 3.81 o
-9 8 7 171.49 164.73 1.91 o
-8 8 7 209.06 205.85 1.91 o
-7 8 7 544.41 534.45 3.81 o
-6 8 7 223.36 221.10 1.91 o
-5 8 7 22.69 22.32 0.82 o
-4 8 7 2.36 2.45 0.54 o
-3 8 7 202.34 193.87 1.91 o
-2 8 7 685.30 659.03 4.36 o
-1 8 7 232.20 226.28 1.91 o
0 8 7 409.91 391.37 3.00 o
1 8 7 233.76 227.91 2.18 o
2 8 7 251.84 245.89 2.45 o
3 8 7 57.05 52.54 1.09 o
4 8 7 14.92 16.06 0.82 o
5 8 7 177.87 156.29 1.91 o
6 8 7 280.86 282.12 3.00 o
7 8 7 438.15 448.04 4.09 o
8 8 7 74.18 71.87 1.63 o
9 8 7 28.34 27.50 1.09 o
10 8 7 70.82 68.06 1.63 o
11 8 7 1.04 1.36 0.82 <
12 8 7 13.87 10.34 1.36 o
-16 9 7 91.48 90.39 1.63 o
-15 9 7 18.69 18.51 0.82 o
-14 9 7 1.83 2.18 0.54 o
-13 9 7 289.02 296.28 2.72 o
-12 9 7 103.38 102.91 1.63 o
-11 9 7 4.47 4.08 0.82 o
-10 9 7 714.77 745.71 5.18 o
-9 9 7 177.37 179.16 1.91 o
-8 9 7 149.16 146.21 1.63 o
-7 9 7 3.47 3.27 0.54 o
-6 9 7 557.88 552.71 3.54 o
-5 9 7 342.37 342.60 2.72 o
-4 9 7 9.00 10.34 0.54 o
-3 9 7 1159.35 1187.97 7.91 o
-2 9 7 42.98 44.37 1.09 o
-1 9 7 86.12 85.21 1.36 o
0 9 7 6.69 8.44 0.82 o
1 9 7 453.43 454.04 4.09 o
2 9 7 58.02 57.17 1.36 o
3 9 7 103.20 101.28 1.63 o
4 9 7 348.46 328.98 3.00 o
5 9 7 54.05 53.90 1.36 o
6 9 7 18.24 17.15 1.09 o
7 9 7 0.08 0.54 0.82 <
8 9 7 0.16 0.27 0.82 <
9 9 7 19.01 18.78 1.09 o
10 9 7 98.31 96.11 1.63 o
11 9 7 89.45 92.57 1.91 o
-15 10 7 43.87 42.20 1.36 o
-14 10 7 2.21 2.18 0.54 o
-13 10 7 66.29 66.16 1.63 o
-12 10 7 206.57 206.67 2.45 o
-11 10 7 2.01 1.91 0.82 <
-10 10 7 1.22 1.63 0.54 o
-9 10 7 32.46 32.94 0.82 o
-8 10 7 10.27 10.07 0.82 o
-7 10 7 7.63 7.89 0.54 o
-6 10 7 266.16 258.97 2.18 o
-5 10 7 482.61 471.22 3.27 o
-4 10 7 72.68 69.15 1.36 o
-3 10 7 165.40 161.46 1.91 o
-2 10 7 54.23 54.99 1.36 o
-1 10 7 88.02 83.31 1.36 o
0 10 7 37.70 37.30 1.09 o
1 10 7 224.35 220.01 2.45 o
2 10 7 16.45 14.70 0.82 o
3 10 7 185.63 194.68 2.18 o
4 10 7 546.90 554.07 4.09 o
5 10 7 2.42 2.99 0.82 o
6 10 7 169.00 171.54 2.18 o
7 10 7 41.44 42.47 1.36 o
8 10 7 166.83 166.90 1.91 o
9 10 7 0.56 -0.27 0.82 <
10 10 7 87.93 87.39 1.63 o
11 10 7 279.99 261.73 5.45 o
-15 11 7 14.93 16.61 0.82 o
-14 11 7 2.99 2.72 0.54 o
-13 11 7 51.50 49.82 1.36 o
-12 11 7 57.61 58.26 1.63 o
-11 11 7 118.33 117.89 1.63 o
-10 11 7 1.66 2.72 0.82 o
-9 11 7 614.29 633.65 4.36 o
-8 11 7 118.19 116.80 1.63 o
-7 11 7 156.94 160.64 1.63 o
-6 11 7 125.51 119.52 1.63 o
-5 11 7 27.45 28.86 0.82 o
-4 11 7 163.96 159.83 1.91 o
-3 11 7 86.81 86.58 1.36 o
-2 11 7 634.73 627.68 4.90 o
-1 11 7 317.97 316.72 3.00 o
0 11 7 411.57 419.16 3.81 o
1 11 7 88.47 84.40 1.63 o
2 11 7 74.92 76.50 1.36 o
3 11 7 23.55 23.14 0.82 o
4 11 7 33.76 37.02 1.09 o
5 11 7 256.44 268.22 2.72 o
6 11 7 308.86 316.71 3.00 o
7 11 7 109.96 106.18 1.63 o
8 11 7 194.96 196.04 2.18 o
9 11 7 0.16 0.82 0.82 <
10 11 7 32.04 29.95 1.91 o
-15 12 7 77.24 71.88 2.18 o
-14 12 7 187.68 189.24 1.91 o
-13 12 7 0.42 0.27 0.82 <
-12 12 7 397.44 407.98 3.81 o
-11 12 7 1.44 2.18 0.82 <
-10 12 7 52.90 51.73 1.36 o
-9 12 7 134.35 138.04 1.63 o
-8 12 7 335.69 342.05 2.72 o
-7 12 7 274.63 272.04 2.18 o
-6 12 7 6.49 7.35 0.82 o
-5 12 7 443.71 458.40 3.81 o
-4 12 7 83.05 86.85 1.63 o
-3 12 7 1.41 2.18 0.82 <
-2 12 7 313.57 289.48 2.72 o
-1 12 7 94.14 96.92 1.91 o
0 12 7 316.71 330.88 3.27 o
1 12 7 12.61 12.52 0.82 o
2 12 7 126.74 131.78 1.91 o
3 12 7 5.10 5.99 0.82 o
4 12 7 21.19 20.69 0.82 o
5 12 7 209.13 219.74 2.45 o
6 12 7 0.16 -0.27 0.82 <
7 12 7 18.66 20.42 1.09 o
8 12 7 73.32 74.05 1.63 o
9 12 7 19.50 18.24 1.36 o
-14 13 7 222.02 211.31 3.00 o
-13 13 7 7.36 7.62 0.82 o
-12 13 7 25.50 26.41 1.09 o
-11 13 7 147.02 143.76 1.63 o
-10 13 7 0.60 1.09 0.54 <
-9 13 7 17.60 18.51 0.82 o
-8 13 7 46.94 48.19 1.09 o
-7 13 7 127.64 126.60 1.63 o
-6 13 7 3.60 2.99 0.82 o
-5 13 7 245.73 245.07 3.00 o
-4 13 7 121.23 120.34 1.91 o
-3 13 7 137.90 139.95 2.18 o
-2 13 7 120.99 120.07 1.91 o
-1 13 7 49.21 50.36 1.36 o
0 13 7 10.88 11.43 0.82 o
1 13 7 77.74 81.95 1.63 o
2 13 7 663.23 683.81 5.18 o
3 13 7 55.76 52.81 1.36 o
4 13 7 151.72 157.37 2.18 o
5 13 7 152.23 158.19 2.18 o
6 13 7 82.83 84.94 1.63 o
7 13 7 7.49 8.17 0.82 o
8 13 7 55.15 54.45 1.91 o
-14 14 7 0.49 2.45 1.91 <
-13 14 7 0.96 0.27 0.82 <
-12 14 7 14.94 16.61 1.09 o
-11 14 7 289.88 290.83 2.72 o
-10 14 7 109.30 108.90 1.63 o
-9 14 7 171.75 175.07 1.91 o
-8 14 7 287.46 296.82 3.00 o
-7 14 7 55.57 56.90 1.36 o
-6 14 7 0.84 2.18 0.82 <
-5 14 7 6.31 6.26 0.82 o
-4 14 7 75.62 76.23 1.63 o
-3 14 7 424.83 435.50 4.09 o
-2 14 7 149.55 158.73 2.18 o
-1 14 7 286.31 292.19 3.00 o
0 14 7 64.03 66.70 1.63 o
1 14 7 132.29 138.85 1.91 o
2 14 7 2.44 3.54 0.82 o
3 14 7 0.94 1.63 0.82 <
4 14 7 86.56 89.57 1.63 o
5 14 7 141.39 142.67 1.91 o
6 14 7 275.83 279.12 2.72 o
7 14 7 36.10 38.66 2.18 o
8 14 7 28.95 26.68 2.72 o
-13 15 7 61.35 62.07 2.18 o
-12 15 7 13.82 14.16 1.63 o
-11 15 7 246.76 243.71 2.45 o
-10 15 7 14.63 14.70 1.09 o
-9 15 7 230.67 235.54 2.45 o
-8 15 7 28.65 29.40 1.09 o
-7 15 7 138.92 141.85 1.91 o
-6 15 7 170.28 174.80 1.91 o
-5 15 7 10.01 10.07 0.82 o
-4 15 7 396.02 413.15 3.81 o
-3 15 7 0.59 1.91 0.82 <
-2 15 7 219.21 229.82 2.72 o
-1 15 7 28.59 29.95 1.09 o
0 15 7 71.85 74.60 1.63 o
1 15 7 30.52 32.94 1.09 o
2 15 7 6.14 6.81 0.82 o
3 15 7 115.17 120.61 1.91 o
4 15 7 8.98 10.07 0.82 o
5 15 7 10.79 13.07 0.82 o
6 15 7 1.44 -0.54 1.36 <
-12 16 7 1.44 1.63 1.36 <
-11 16 7 15.89 15.79 1.09 o
-10 16 7 32.92 32.94 1.36 o
-9 16 7 16.35 16.61 0.82 o
-8 16 7 14.14 14.16 0.82 o
-7 16 7 211.14 211.30 2.18 o
-6 16 7 350.76 353.76 3.00 o
-5 16 7 38.18 38.93 1.09 o
-4 16 7 182.78 187.87 2.18 o
-3 16 7 0.86 1.63 0.82 <
-2 16 7 1.26 1.09 0.82 <
-1 16 7 51.77 52.54 1.36 o
0 16 7 226.85 231.18 2.45 o
1 16 7 43.47 43.29 1.36 o
2 16 7 97.48 92.84 1.91 o
3 16 7 352.57 354.04 3.81 o
4 16 7 3.39 3.54 0.82 o
5 16 7 38.87 38.39 2.18 o
-11 17 7 4.37 3.54 1.36 <
-10 17 7 208.94 203.68 2.45 o
-9 17 7 44.84 46.83 1.36 o
-8 17 7 36.06 38.93 1.36 o
-7 17 7 53.03 55.81 1.36 o
-6 17 7 7.38 8.44 0.82 o
-5 17 7 53.74 53.90 1.36 o
-4 17 7 92.75 90.66 1.63 o
-3 17 7 209.60 215.93 2.45 o
-2 17 7 92.21 93.11 1.63 o
-1 17 7 111.37 114.89 1.63 o
0 17 7 24.59 25.86 1.09 o
1 17 7 55.57 56.35 1.63 o
2 17 7 11.72 12.79 1.09 o
3 17 7 39.96 38.66 2.18 o
4 17 7 106.72 102.64 3.27 o
-10 18 7 71.82 61.80 3.54 o
-9 18 7 42.04 40.02 1.36 o
-8 18 7 180.25 178.35 2.18 o
-7 18 7 41.44 41.38 1.36 o
-6 18 7 111.67 110.81 1.91 o
-5 18 7 17.11 15.24 0.82 o
-4 18 7 51.63 53.09 1.36 o
-3 18 7 141.95 143.21 2.45 o
-2 18 7 0.21 -0.54 0.82 <
-1 18 7 227.91 236.90 3.00 o
0 18 7 4.70 4.63 1.09 o
1 18 7 17.97 19.60 1.36 o
2 18 7 0.15 -0.82 1.36 <
-8 19 7 118.07 108.37 2.18 o
-7 19 7 8.14 8.44 0.82 o
-6 19 7 186.14 179.17 2.18 o
-5 19 7 81.52 80.86 1.63 o
-4 19 7 19.72 19.33 0.82 o
-3 19 7 63.82 62.62 1.36 o
-2 19 7 26.45 25.05 1.09 o
-1 19 7 14.00 14.70 1.36 o
0 19 7 59.92 57.72 2.72 o
-1 -18 8 14.74 13.07 1.36 o
0 -18 8 74.97 72.15 2.45 o
1 -18 8 36.72 31.31 1.91 o
2 -18 8 2.59 0.82 1.63 <
3 -18 8 74.28 72.42 4.08 o
4 -18 8 4.26 5.17 1.63 o
5 -18 8 29.23 26.68 2.18 o
-3 -17 8 38.94 37.57 2.18 o
-2 -17 8 9.50 11.43 1.36 o
-1 -17 8 92.62 93.93 2.45 o
0 -17 8 158.07 162.28 3.27 o
1 -17 8 23.86 27.50 1.36 o
2 -17 8 133.69 132.05 2.45 o
3 -17 8 142.30 138.31 2.45 o
4 -17 8 47.92 44.65 1.63 o
5 -17 8 108.40 113.53 1.91 o
6 -17 8 139.44 143.22 2.18 o
7 -17 8 208.67 212.13 3.00 o
8 -17 8 22.33 19.06 2.18 o
-5 -16 8 24.35 23.68 1.63 o
-4 -16 8 21.09 18.78 1.36 o
-3 -16 8 126.54 127.15 2.72 o
-2 -16 8 208.52 202.86 3.00 o
-1 -16 8 27.98 31.03 1.63 o
0 -16 8 42.40 45.19 1.91 o
1 -16 8 15.32 15.24 1.36 o
2 -16 8 33.99 34.30 1.36 o
3 -16 8 71.61 74.32 1.63 o
4 -16 8 67.50 66.16 1.63 o
5 -16 8 140.12 139.67 2.45 o
6 -16 8 6.14 5.99 0.82 o
7 -16 8 82.93 88.21 1.91 o
8 -16 8 42.91 42.74 1.36 o
9 -16 8 21.95 21.78 1.36 o
-6 -15 8 152.04 150.85 3.27 o
-5 -15 8 86.45 90.93 2.45 o
-4 -15 8 126.73 121.43 2.72 o
-3 -15 8 62.23 60.17 1.91 o
-2 -15 8 4.54 4.63 1.36 o
-1 -15 8 353.35 371.74 5.72 o
0 -15 8 4.74 4.90 1.09 o
1 -15 8 162.16 165.54 2.45 o
2 -15 8 26.93 28.58 1.09 o
3 -15 8 71.15 71.33 1.63 o
4 -15 8 13.23 15.79 1.09 o
5 -15 8 44.47 45.19 1.63 o
6 -15 8 188.59 188.96 2.45 o
7 -15 8 0.02 1.09 0.82 <
8 -15 8 21.12 25.59 1.09 o
9 -15 8 0.81 1.63 0.82 <
10 -15 8 0.76 0.27 0.82 <
-7 -14 8 32.93 30.49 2.18 o
-6 -14 8 88.12 89.30 2.45 o
-5 -14 8 248.87 255.97 4.36 o
-4 -14 8 58.79 60.17 1.91 o
-3 -14 8 65.17 65.88 2.45 o
-2 -14 8 44.79 44.92 2.45 o
-1 -14 8 54.13 56.63 2.18 o
0 -14 8 195.65 196.86 2.45 o
1 -14 8 229.80 234.72 3.00 o
2 -14 8 200.14 202.31 2.72 o
3 -14 8 256.39 270.12 3.27 o
4 -14 8 326.54 336.60 3.54 o
5 -14 8 71.72 74.05 1.91 o
6 -14 8 7.40 10.07 0.82 o
7 -14 8 169.25 176.98 2.18 o
8 -14 8 289.65 303.90 3.00 o
9 -14 8 26.52 27.22 1.09 o
10 -14 8 172.45 173.45 2.18 o
11 -14 8 223.12 214.86 3.81 o
-8 -13 8 22.96 24.50 1.63 o
-7 -13 8 1.62 2.45 1.09 <
-6 -13 8 21.55 21.78 1.36 o
-5 -13 8 72.08 72.15 2.18 o
-4 -13 8 57.30 55.26 1.91 o
-3 -13 8 16.50 16.61 1.36 o
-2 -13 8 52.92 51.45 2.18 o
-1 -13 8 220.32 216.47 2.72 o
0 -13 8 25.43 24.50 1.09 o
1 -13 8 0.29 0.54 0.82 <
2 -13 8 17.92 19.33 1.09 o
3 -13 8 68.30 67.24 1.63 o
4 -13 8 154.62 158.74 2.18 o
5 -13 8 116.88 118.98 1.91 o
6 -13 8 138.36 137.77 1.91 o
7 -13 8 0.34 1.09 0.82 <
8 -13 8 3.20 5.17 0.82 o
9 -13 8 4.91 6.53 0.82 o
10 -13 8 5.30 5.72 0.82 o
11 -13 8 32.31 31.03 1.09 o
-9 -12 8 20.41 19.87 1.36 o
-8 -12 8 57.02 58.80 2.18 o
-7 -12 8 117.12 120.88 2.45 o
-6 -12 8 135.54 139.13 2.99 o
-5 -12 8 96.65 101.01 2.18 o
-4 -12 8 3.84 2.99 1.09 <
-3 -12 8 738.33 766.42 9.26 o
-2 -12 8 38.87 40.56 1.36 o
-1 -12 8 27.21 29.67 1.09 o
0 -12 8 129.36 134.50 1.91 o
1 -12 8 113.67 117.62 1.91 o
2 -12 8 43.99 47.64 1.36 o
3 -12 8 2.97 3.27 0.82 o
4 -12 8 200.78 204.49 2.18 o
5 -12 8 26.68 28.04 1.09 o
6 -12 8 34.89 33.76 1.09 o
7 -12 8 226.32 229.00 2.45 o
8 -12 8 10.85 12.25 0.82 o
9 -12 8 0.11 -0.82 0.82 <
10 -12 8 82.98 87.39 1.63 o
11 -12 8 102.98 96.92 1.63 o
12 -12 8 3.50 4.90 1.09 o
-10 -11 8 73.19 71.87 2.18 o
-9 -11 8 16.27 22.32 1.63 o
-8 -11 8 51.94 52.81 2.18 o
-7 -11 8 382.78 390.81 5.17 o
-6 -11 8 185.19 191.96 3.54 o
-5 -11 8 129.60 133.68 2.45 o
-4 -11 8 51.64 53.09 1.91 o
-3 -11 8 52.02 52.81 2.18 o
-2 -11 8 164.64 168.27 2.45 o
-1 -11 8 298.51 300.10 3.00 o
0 -11 8 103.49 103.73 1.63 o
1 -11 8 253.50 256.24 2.72 o
2 -11 8 445.37 451.59 3.81 o
3 -11 8 86.94 86.03 1.63 o
4 -11 8 102.79 104.82 1.63 o
5 -11 8 226.83 231.45 2.45 o
6 -11 8 440.97 461.11 4.09 o
7 -11 8 63.61 66.16 1.63 o
8 -11 8 336.99 349.67 3.27 o
9 -11 8 359.36 367.93 3.00 o
10 -11 8 44.13 43.83 1.36 o
11 -11 8 65.87 62.34 1.36 o
12 -11 8 182.48 178.90 2.18 o
-11 -10 8 97.42 92.57 2.45 o
-10 -10 8 25.34 25.59 1.63 o
-9 -10 8 2.83 2.72 1.09 <
-8 -10 8 4.76 5.17 1.36 o
-7 -10 8 0.32 0.54 1.09 <
-6 -10 8 0.67 -0.27 1.09 <
-5 -10 8 59.06 59.08 2.18 o
-4 -10 8 123.66 123.33 2.45 o
-3 -10 8 243.68 238.81 3.00 o
-2 -10 8 26.10 27.77 1.09 o
-1 -10 8 0.76 0.82 0.82 <
0 -10 8 11.63 13.07 0.82 o
1 -10 8 0.75 0.54 0.82 <
2 -10 8 199.90 203.13 2.45 o
3 -10 8 20.20 19.06 0.82 o
4 -10 8 170.42 168.54 1.91 o
5 -10 8 3.96 6.26 0.82 o
6 -10 8 44.12 45.74 1.36 o
7 -10 8 35.03 34.03 1.09 o
8 -10 8 0.29 1.36 0.82 <
9 -10 8 32.15 31.85 1.09 o
10 -10 8 41.73 44.65 1.36 o
11 -10 8 1.75 2.45 0.82 <
12 -10 8 7.72 7.35 0.82 o
13 -10 8 93.46 90.66 2.45 o
-12 -9 8 499.72 485.51 8.72 o
-11 -9 8 14.68 15.52 1.36 o
-10 -9 8 9.61 9.53 1.09 o
-9 -9 8 187.15 190.87 3.00 o
-8 -9 8 175.19 183.79 3.27 o
-7 -9 8 95.49 95.29 2.45 o
-6 -9 8 93.38 93.93 2.18 o
-5 -9 8 529.36 534.71 5.18 o
-4 -9 8 112.08 115.71 1.91 o
-3 -9 8 98.31 103.46 2.18 o
-2 -9 8 871.85 882.38 6.81 o
-1 -9 8 58.86 57.72 1.36 o
0 -9 8 91.42 91.75 1.63 o
1 -9 8 29.94 30.49 1.09 o
2 -9 8 471.31 469.58 4.09 o
3 -9 8 19.34 20.42 0.82 o
4 -9 8 273.56 288.11 3.00 o
5 -9 8 485.37 489.47 4.36 o
6 -9 8 13.10 14.43 0.82 o
7 -9 8 0.91 1.91 0.82 <
8 -9 8 1.02 1.63 0.82 <
9 -9 8 44.32 45.19 1.36 o
10 -9 8 7.92 8.44 0.82 o
11 -9 8 121.84 127.96 1.91 o
12 -9 8 97.64 90.66 1.63 o
13 -9 8 0.45 2.18 1.09 <
-12 -8 8 15.91 14.16 1.36 o
-11 -8 8 42.31 49.00 2.18 o
-10 -8 8 15.20 17.42 1.36 o
-9 -8 8 230.69 236.62 3.54 o
-8 -8 8 19.04 19.87 1.36 o
-7 -8 8 124.73 123.06 2.45 o
-6 -8 8 403.47 408.80 3.81 o
-5 -8 8 90.11 91.48 1.91 o
-4 -8 8 137.72 138.04 1.91 o
-3 -8 8 123.76 117.62 1.63 o
-2 -8 8 175.28 172.35 2.18 o
-1 -8 8 180.46 173.99 2.18 o
0 -8 8 406.67 400.91 3.54 o
1 -8 8 220.15 214.84 2.18 o
2 -8 8 452.49 448.87 4.09 o
3 -8 8 549.47 540.45 4.09 o
4 -8 8 110.64 110.54 1.63 o
5 -8 8 56.89 51.73 1.63 o
6 -8 8 207.18 212.12 2.72 o
7 -8 8 660.16 680.00 5.18 o
8 -8 8 9.49 9.26 0.82 o
9 -8 8 247.35 249.16 2.45 o
10 -8 8 282.05 282.39 3.00 o
11 -8 8 0.92 0.54 0.82 <
12 -8 8 12.12 11.71 0.82 o
13 -8 8 98.41 96.38 2.18 o
-13 -7 8 71.95 68.61 2.18 o
-12 -7 8 0.08 0.27 0.82 <
-11 -7 8 14.65 16.06 1.36 o
-10 -7 8 44.60 45.74 1.91 o
-9 -7 8 23.49 23.68 1.36 o
-8 -7 8 19.91 19.87 1.36 o
-7 -7 8 126.89 126.88 2.18 o
-6 -7 8 52.38 53.63 1.63 o
-5 -7 8 0.20 0.00 0.82 <
-4 -7 8 4.41 4.36 0.54 o
-3 -7 8 1.45 1.91 0.54 o
-2 -7 8 309.51 298.47 2.72 o
-1 -7 8 0.03 1.09 0.54 <
0 -7 8 29.67 29.95 1.09 o
1 -7 8 4.82 4.90 0.54 o
2 -7 8 0.23 2.18 0.54 o
3 -7 8 281.45 278.58 2.72 o
4 -7 8 9.87 10.62 0.82 o
5 -7 8 183.49 183.79 2.18 o
6 -7 8 47.12 49.82 1.36 o
7 -7 8 11.47 11.71 0.82 o
8 -7 8 0.48 0.54 0.82 <
9 -7 8 8.82 9.26 0.82 o
10 -7 8 74.74 74.87 1.36 o
11 -7 8 33.67 34.85 1.09 o
12 -7 8 6.78 6.81 0.82 o
13 -7 8 54.80 58.80 1.63 o
-13 -6 8 18.04 19.33 1.36 o
-12 -6 8 63.93 60.17 1.63 o
-11 -6 8 770.86 812.22 10.35 o
-10 -6 8 92.19 95.29 2.45 o
-9 -6 8 22.60 24.77 1.36 o
-8 -6 8 149.36 155.47 2.45 o
-7 -6 8 375.73 385.37 3.81 o
-6 -6 8 64.74 68.61 1.63 o
-5 -6 8 60.94 63.70 1.36 o
-4 -6 8 1788.47 1826.70 11.73 o
-3 -6 8 175.73 168.81 1.91 o
-2 -6 8 0.30 1.36 0.54 <
-1 -6 8 135.77 135.59 1.63 o
0 -6 8 380.68 378.02 3.27 o
1 -6 8 29.51 30.76 1.09 o
2 -6 8 17.54 19.06 0.82 o
3 -6 8 697.06 695.02 5.18 o
4 -6 8 81.94 78.41 1.36 o
5 -6 8 272.79 276.12 2.72 o
6 -6 8 312.21 307.18 2.72 o
7 -6 8 7.57 6.26 0.82 o
8 -6 8 0.80 1.09 0.54 <
9 -6 8 180.47 194.95 2.18 o
10 -6 8 289.94 296.82 2.45 o
11 -6 8 3.63 5.17 0.82 o
12 -6 8 236.12 238.53 2.45 o
13 -6 8 30.72 32.12 1.36 o
14 -6 8 1.48 1.36 0.82 <
-13 -5 8 2.47 1.63 0.82 <
-12 -5 8 8.99 8.44 1.09 o
-11 -5 8 72.42 72.96 2.18 o
-10 -5 8 7.33 8.71 1.09 o
-9 -5 8 66.03 62.34 1.63 o
-8 -5 8 526.29 537.71 5.45 o
-7 -5 8 155.19 159.01 2.18 o
-6 -5 8 143.04 142.12 1.91 o
-5 -5 8 8.18 8.98 0.82 o
-4 -5 8 45.83 45.19 1.09 o
-3 -5 8 102.00 99.37 1.36 o
-2 -5 8 356.80 340.69 2.72 o
-1 -5 8 133.61 130.41 1.91 o
0 -5 8 290.82 286.48 2.72 o
1 -5 8 676.95 662.84 5.18 o
2 -5 8 23.06 22.05 0.82 o
3 -5 8 143.48 140.22 1.63 o
4 -5 8 125.19 118.98 1.63 o
5 -5 8 585.38 581.06 4.09 o
6 -5 8 45.95 47.91 1.09 o
7 -5 8 491.33 507.18 3.81 o
8 -5 8 551.36 557.61 4.09 o
9 -5 8 23.03 22.32 0.82 o
10 -5 8 55.71 54.45 1.36 o
11 -5 8 132.18 133.41 1.63 o
12 -5 8 243.43 237.72 2.45 o
13 -5 8 2.14 3.81 0.82 o
14 -5 8 62.15 54.18 1.91 o
-14 -4 8 58.18 56.63 2.72 o
-13 -4 8 0.66 0.82 0.82 <
-12 -4 8 15.26 16.33 1.09 o
-11 -4 8 4.50 6.53 1.09 o
-10 -4 8 75.71 75.68 1.91 o
-9 -4 8 7.45 7.08 0.82 o
-8 -4 8 7.77 7.62 0.82 o
-7 -4 8 107.31 105.64 1.63 o
-6 -4 8 147.03 144.30 1.91 o
-5 -4 8 12.34 12.79 0.82 o
-4 -4 8 140.89 134.50 1.63 o
-3 -4 8 13.12 13.07 0.54 o
-2 -4 8 69.96 67.52 1.09 o
-1 -4 8 51.91 48.46 1.09 o
0 -4 8 92.38 87.12 1.36 o
1 -4 8 414.99 403.09 3.00 o
2 -4 8 13.07 12.52 0.54 o
3 -4 8 56.01 57.72 1.09 o
4 -4 8 19.93 19.60 0.82 o
5 -4 8 7.90 7.62 0.54 o
6 -4 8 99.98 95.29 1.36 o
7 -4 8 46.86 46.83 1.09 o
8 -4 8 79.60 78.41 1.36 o
9 -4 8 2.55 4.36 0.82 o
10 -4 8 17.08 17.15 0.82 o
11 -4 8 1.27 1.91 0.82 <
12 -4 8 16.47 19.06 0.82 o
13 -4 8 10.76 9.80 0.82 o
14 -4 8 122.06 116.81 2.45 o
-14 -3 8 4.89 3.81 1.09 o
-13 -3 8 764.97 805.71 8.17 o
-12 -3 8 24.75 26.41 1.09 o
-11 -3 8 42.45 43.29 1.63 o
-10 -3 8 310.72 328.15 3.54 o
-9 -3 8 409.92 427.05 3.81 o
-8 -3 8 43.27 43.83 1.36 o
-7 -3 8 28.32 28.58 1.09 o
-6 -3 8 947.37 957.13 6.81 o
-5 -3 8 261.15 256.51 2.45 o
-4 -3 8 174.54 174.53 1.91 o
-3 -3 8 1405.65 1424.71 8.45 o
-2 -3 8 140.38 132.05 1.63 o
-1 -3 8 15.42 14.43 0.54 o
0 -3 8 3.67 3.27 0.54 o
1 -3 8 1192.11 1183.91 6.54 o
2 -3 8 122.64 118.16 1.36 o
3 -3 8 506.40 509.36 3.81 o
4 -3 8 617.40 612.40 4.36 o
5 -3 8 19.26 16.06 0.82 o
6 -3 8 10.52 10.34 0.54 o
7 -3 8 1.12 2.18 0.54 o
8 -3 8 257.44 265.23 2.45 o
9 -3 8 2.53 3.27 0.82 o
10 -3 8 324.00 339.05 3.00 o
11 -3 8 98.44 98.56 1.63 o
12 -3 8 4.82 5.44 0.82 o
13 -3 8 127.90 126.33 1.63 o
14 -3 8 12.47 12.25 1.09 o
-14 -2 8 112.93 106.73 2.18 o
-13 -2 8 17.92 18.24 1.09 o
-12 -2 8 6.13 6.26 0.82 o
-11 -2 8 38.36 39.47 1.36 o
-10 -2 8 157.15 163.64 2.18 o
-9 -2 8 0.98 1.91 0.82 <
-8 -2 8 69.06 63.98 1.36 o
-7 -2 8 310.52 305.82 3.00 o
-6 -2 8 117.13 115.98 1.63 o
-5 -2 8 46.38 44.37 1.09 o
-4 -2 8 235.24 223.01 2.18 o
-3 -2 8 106.76 99.10 1.36 o
-2 -2 8 81.87 80.86 1.09 o
-1 -2 8 346.33 323.80 2.18 o
0 -2 8 100.21 95.02 1.09 o
1 -2 8 596.61 577.79 3.27 o
2 -2 8 408.92 388.65 2.45 o
3 -2 8 218.49 213.48 1.91 o
4 -2 8 22.13 22.32 0.82 o
5 -2 8 106.89 104.55 1.36 o
6 -2 8 726.25 716.84 4.36 o
7 -2 8 7.19 7.35 0.54 o
8 -2 8 316.27 316.44 2.72 o
9 -2 8 181.67 177.80 1.91 o
10 -2 8 4.77 5.99 0.82 o
11 -2 8 38.63 39.47 1.36 o
12 -2 8 64.15 64.52 1.36 o
13 -2 8 330.16 333.34 3.00 o
14 -2 8 23.18 24.50 1.63 o
-15 -1 8 12.33 13.88 2.18 o
-14 -1 8 18.38 17.97 1.09 o
-13 -1 8 19.08 21.51 1.09 o
-12 -1 8 61.14 60.44 1.36 o
-11 -1 8 0.01 1.09 0.82 <
-10 -1 8 14.57 13.61 0.82 o
-9 -1 8 235.53 237.72 2.45 o
-8 -1 8 277.89 273.13 2.45 o
-7 -1 8 1.04 0.27 0.54 <
-6 -1 8 45.02 43.01 1.09 o
-5 -1 8 11.13 11.16 0.54 o
-4 -1 8 95.31 92.02 1.36 o
-3 -1 8 258.47 240.72 1.91 o
-2 -1 8 98.03 91.21 1.09 o
-1 -1 8 215.24 211.03 1.63 o
0 -1 8 73.20 68.06 1.09 o
1 -1 8 94.77 88.21 1.09 o
2 -1 8 163.02 159.28 1.63 o
3 -1 8 17.00 16.33 0.54 o
4 -1 8 206.49 201.49 1.91 o
5 -1 8 184.87 184.34 1.63 o
6 -1 8 174.14 171.26 1.63 o
7 -1 8 23.24 18.24 0.82 o
8 -1 8 158.44 154.92 1.63 o
9 -1 8 29.63 27.22 1.09 o
10 -1 8 1.95 2.45 0.82 <
11 -1 8 13.53 12.25 0.82 o
12 -1 8 124.05 131.23 1.91 o
13 -1 8 0.24 0.27 0.54 <
-15 0 8 172.12 164.46 3.54 o
-14 0 8 16.68 16.33 0.82 o
-13 0 8 145.25 144.03 1.91 o
-12 0 8 891.97 943.41 6.54 o
-11 0 8 180.82 187.87 2.18 o
-10 0 8 25.47 26.68 1.09 o
-9 0 8 126.77 135.04 1.91 o
-8 0 8 487.99 496.55 3.81 o
-7 0 8 54.83 51.73 1.09 o
-6 0 8 140.24 136.68 1.91 o
-5 0 8 2365.03 2442.90 15.29 o
-4 0 8 398.07 390.55 3.00 o
-3 0 8 1.27 1.63 0.54 o
-2 0 8 74.03 72.42 1.09 o
-1 0 8 484.07 474.21 3.00 o
0 0 8 38.48 37.57 0.82 o
1 0 8 22.30 22.60 0.54 o
2 0 8 1085.64 1077.73 5.72 o
3 0 8 177.99 168.54 1.63 o
4 0 8 460.25 462.21 3.27 o
5 0 8 229.65 220.02 1.91 o
6 0 8 28.53 28.58 0.82 o
7 0 8 2.43 3.54 0.54 o
8 0 8 211.14 223.01 2.45 o
9 0 8 389.16 407.43 3.81 o
10 0 8 5.51 5.72 0.82 o
11 0 8 370.00 381.82 3.27 o
12 0 8 21.94 21.23 0.82 o
13 0 8 1.38 1.36 0.54 <
-15 1 8 4.92 4.36 1.09 o
-14 1 8 11.65 11.16 0.82 o
-13 1 8 0.08 1.63 0.82 <
-12 1 8 25.62 25.59 1.09 o
-11 1 8 10.86 10.89 0.82 o
-10 1 8 36.46 34.30 1.09 o
-9 1 8 260.40 263.87 2.72 o
-8 1 8 137.04 137.49 1.63 o
-7 1 8 15.51 13.88 0.82 o
-6 1 8 0.52 0.27 0.54 <
-5 1 8 6.29 7.08 0.54 o
-4 1 8 5.71 6.53 0.54 o
-3 1 8 359.14 335.52 2.18 o
-2 1 8 9.31 11.16 0.54 o
-1 1 8 210.73 199.59 1.63 o
0 1 8 268.27 250.25 1.91 o
1 1 8 0.83 2.18 0.54 o
2 1 8 326.44 308.27 2.18 o
3 1 8 30.10 30.49 0.82 o
4 1 8 606.38 595.78 3.81 o
5 1 8 0.67 2.72 0.54 o
6 1 8 344.15 344.78 2.72 o
7 1 8 315.54 307.46 2.72 o
8 1 8 1.71 3.54 0.82 o
9 1 8 150.12 149.75 2.18 o
10 1 8 44.74 45.74 1.36 o
11 1 8 243.26 246.98 2.18 o
12 1 8 5.51 5.72 0.54 o
13 1 8 33.70 36.21 1.36 o
-15 2 8 191.15 179.44 2.18 o
-14 2 8 3.70 4.63 0.82 o
-13 2 8 20.38 19.06 0.82 o
-12 2 8 1.36 1.63 0.82 <
-11 2 8 274.41 278.57 3.00 o
-10 2 8 24.12 26.13 1.09 o
-9 2 8 24.66 22.32 0.82 o
-8 2 8 335.64 330.88 3.00 o
-7 2 8 228.31 220.56 2.45 o
-6 2 8 60.29 58.80 1.36 o
-5 2 8 54.49 50.64 1.36 o
-4 2 8 280.64 263.87 2.18 o
-3 2 8 177.91 170.18 1.63 o
-2 2 8 163.95 151.66 1.36 o
-1 2 8 217.97 206.40 1.63 o
0 2 8 589.15 574.51 3.54 o
1 2 8 148.24 139.13 1.36 o
2 2 8 0.58 1.09 0.54 <
3 2 8 216.52 214.02 1.91 o
4 2 8 136.11 129.33 1.36 o
5 2 8 299.60 291.65 2.45 o
6 2 8 129.61 127.69 1.36 o
7 2 8 89.54 87.94 1.91 o
8 2 8 6.25 4.63 0.82 o
9 2 8 96.20 99.37 1.63 o
10 2 8 4.21 6.26 0.82 o
11 2 8 11.74 10.34 0.82 o
12 2 8 48.80 47.10 1.09 o
13 2 8 265.63 263.89 3.27 o
-15 3 8 13.01 14.43 0.82 o
-14 3 8 692.06 719.27 6.81 o
-13 3 8 35.87 35.12 1.09 o
-12 3 8 34.69 34.85 1.09 o
-11 3 8 255.95 269.58 2.72 o
-10 3 8 428.81 445.86 4.36 o
-9 3 8 60.31 57.17 1.36 o
-8 3 8 9.63 10.89 0.82 o
-7 3 8 860.70 872.28 6.81 o
-6 3 8 341.55 337.97 3.54 o
-5 3 8 135.87 131.78 1.63 o
-4 3 8 1281.60 1289.55 7.36 o
-3 3 8 151.00 145.66 1.63 o
-2 3 8 28.02 26.13 0.82 o
-1 3 8 0.48 1.36 0.54 <
0 3 8 1172.24 1171.07 6.81 o
1 3 8 212.46 209.66 1.91 o
2 3 8 439.79 441.50 3.00 o
3 3 8 507.98 506.91 3.54 o
4 3 8 20.00 17.97 0.82 o
5 3 8 2.52 4.08 0.54 o
6 3 8 4.52 5.44 0.82 o
7 3 8 259.80 266.32 3.00 o
8 3 8 0.57 1.91 0.82 <
9 3 8 315.95 328.69 3.27 o
10 3 8 66.19 68.06 1.36 o
11 3 8 5.66 5.72 0.82 o
12 3 8 101.97 98.29 1.63 o
13 3 8 7.17 8.17 0.82 o
-15 4 8 23.25 23.41 1.09 o
-14 4 8 0.78 0.82 0.82 <
-13 4 8 35.96 34.85 1.09 o
-12 4 8 17.31 15.79 0.82 o
-11 4 8 30.09 30.22 1.09 o
-10 4 8 0.95 1.09 0.82 <
-9 4 8 9.73 9.53 0.82 o
-8 4 8 78.85 77.05 1.36 o
-7 4 8 129.15 122.79 1.91 o
-6 4 8 49.66 49.00 1.09 o
-5 4 8 184.35 176.44 1.91 o
-4 4 8 2.28 3.81 0.54 o
-3 4 8 46.52 43.83 1.09 o
-2 4 8 138.45 129.87 1.36 o
-1 4 8 15.43 15.52 0.54 o
0 4 8 468.67 455.14 3.00 o
1 4 8 46.63 42.74 1.09 o
2 4 8 325.76 318.62 2.45 o
3 4 8 65.98 63.98 1.09 o
4 4 8 33.98 35.12 1.09 o
5 4 8 340.78 337.70 2.72 o
6 4 8 37.93 37.84 1.09 o
7 4 8 307.03 309.09 3.00 o
8 4 8 45.11 44.37 1.36 o
9 4 8 48.08 48.73 1.36 o
10 4 8 155.79 157.65 1.91 o
11 4 8 9.62 9.26 0.82 o
12 4 8 159.14 157.38 1.91 o
-15 5 8 0.11 -0.54 0.54 <
-14 5 8 42.72 43.01 1.09 o
-13 5 8 119.46 119.79 1.63 o
-12 5 8 24.14 22.87 1.09 o
-11 5 8 15.89 14.97 0.82 o
-10 5 8 503.29 505.55 4.36 o
-9 5 8 280.11 286.20 2.72 o
-8 5 8 62.19 62.07 1.36 o
-7 5 8 85.46 86.58 1.63 o
-6 5 8 65.57 64.52 1.36 o
-5 5 8 206.52 202.58 1.91 o
-4 5 8 195.66 189.24 1.91 o
-3 5 8 298.74 292.47 2.45 o
-2 5 8 318.97 315.62 2.45 o
-1 5 8 288.55 281.03 2.45 o
0 5 8 194.81 191.96 1.91 o
1 5 8 41.87 43.01 1.09 o
2 5 8 67.19 66.43 1.09 o
3 5 8 198.77 193.05 1.91 o
4 5 8 308.70 307.18 2.45 o
5 5 8 326.79 331.70 2.72 o
6 5 8 102.93 99.65 1.63 o
7 5 8 292.05 294.38 3.00 o
8 5 8 1.00 0.00 0.82 <
9 5 8 34.90 30.76 1.09 o
10 5 8 26.55 28.31 1.09 o
11 5 8 160.76 169.08 2.18 o
12 5 8 9.54 7.62 0.82 o
-15 6 8 34.43 34.57 1.36 o
-14 6 8 87.26 85.49 1.36 o
-13 6 8 600.04 636.36 5.18 o
-12 6 8 113.39 116.25 1.91 o
-11 6 8 48.90 46.83 1.63 o
-10 6 8 86.77 90.12 1.63 o
-9 6 8 367.55 372.29 3.27 o
-8 6 8 113.62 114.08 1.63 o
-7 6 8 92.18 91.20 1.36 o
-6 6 8 1498.25 1552.27 10.09 o
-5 6 8 269.61 265.50 2.45 o
-4 6 8 14.83 14.16 0.54 o
-3 6 8 70.71 75.14 1.36 o
-2 6 8 354.82 354.58 2.72 o
-1 6 8 80.61 78.95 1.36 o
0 6 8 23.30 23.41 0.82 o
1 6 8 610.91 618.40 4.36 o
2 6 8 158.60 157.38 1.63 o
3 6 8 179.65 179.43 1.91 o
4 6 8 200.16 196.87 2.18 o
5 6 8 7.75 7.62 0.82 o
6 6 8 8.83 9.53 0.82 o
7 6 8 196.08 202.31 2.45 o
8 6 8 234.47 241.80 2.45 o
9 6 8 15.13 14.70 0.82 o
10 6 8 189.46 192.51 2.45 o
11 6 8 9.19 9.53 0.82 o
-15 7 8 72.70 71.87 1.63 o
-14 7 8 3.28 3.27 0.54 o
-13 7 8 0.06 0.27 0.82 <
-12 7 8 90.45 92.57 1.63 o
-11 7 8 1.16 1.63 0.82 <
-10 7 8 26.43 25.32 0.82 o
-9 7 8 155.23 154.92 1.91 o
-8 7 8 41.48 43.56 1.36 o
-7 7 8 2.44 2.18 0.54 o
-6 7 8 10.92 12.25 0.54 o
-5 7 8 35.54 38.93 1.09 o
-4 7 8 225.49 215.11 1.91 o
-3 7 8 72.21 71.87 1.36 o
-2 7 8 145.70 142.40 1.63 o
-1 7 8 0.41 1.09 0.54 <
0 7 8 6.68 6.81 0.54 o
1 7 8 527.29 521.91 4.09 o
2 7 8 0.24 0.82 0.54 <
3 7 8 426.85 410.72 4.09 o
4 7 8 56.03 54.45 1.63 o
5 7 8 151.89 155.20 2.18 o
6 7 8 39.66 38.11 1.36 o
7 7 8 30.72 33.48 1.09 o
8 7 8 331.58 336.87 3.27 o
9 7 8 4.05 4.63 0.82 o
10 7 8 154.33 155.74 2.18 o
11 7 8 34.28 34.03 1.09 o
-15 8 8 13.44 14.97 0.82 o
-14 8 8 53.87 54.45 1.36 o
-13 8 8 1.78 1.91 0.54 o
-12 8 8 342.84 350.76 3.27 o
-11 8 8 26.62 26.13 1.09 o
-10 8 8 42.47 42.74 1.36 o
-9 8 8 398.89 406.89 3.27 o
-8 8 8 137.62 140.22 1.63 o
-7 8 8 131.12 132.59 1.63 o
-6 8 8 39.14 38.39 1.09 o
-5 8 8 402.29 398.45 3.00 o
-4 8 8 184.23 185.43 1.91 o
-3 8 8 195.23 192.23 1.91 o
-2 8 8 280.65 275.58 2.45 o
-1 8 8 402.79 402.81 3.27 o
0 8 8 237.46 236.63 2.45 o
1 8 8 0.86 2.45 0.82 <
2 8 8 296.02 282.40 3.00 o
3 8 8 164.61 165.54 2.45 o
4 8 8 317.41 319.44 3.27 o
5 8 8 160.68 157.38 2.18 o
6 8 8 66.31 64.52 1.63 o
7 8 8 35.76 35.12 1.36 o
8 8 8 82.37 84.12 1.63 o
9 8 8 16.87 17.15 0.82 o
10 8 8 25.15 23.68 1.09 o
-15 9 8 392.95 361.20 4.36 o
-14 9 8 34.58 31.58 1.09 o
-13 9 8 2.11 2.45 0.82 <
-12 9 8 103.01 104.55 1.63 o
-11 9 8 166.86 171.53 2.18 o
-10 9 8 130.97 131.50 1.91 o
-9 9 8 35.97 39.47 1.09 o
-8 9 8 450.65 464.66 3.54 o
-7 9 8 234.31 237.45 2.18 o
-6 9 8 46.79 49.00 1.09 o
-5 9 8 643.58 598.26 4.36 o
-4 9 8 54.06 54.99 1.09 o
-3 9 8 161.10 163.91 1.91 o
-2 9 8 8.08 9.26 0.82 o
-1 9 8 502.51 518.35 4.09 o
0 9 8 115.35 112.44 1.91 o
1 9 8 200.46 204.49 2.72 o
2 9 8 282.58 290.83 3.27 o
3 9 8 13.28 13.88 0.82 o
4 9 8 30.79 34.30 1.09 o
5 9 8 2.73 4.08 0.82 o
6 9 8 46.94 49.55 1.36 o
7 9 8 0.53 0.82 0.82 <
8 9 8 121.18 120.88 1.63 o
9 9 8 43.07 45.74 1.36 o
10 9 8 1.79 2.99 0.82 o
-14 10 8 130.73 124.43 1.63 o
-13 10 8 0.82 0.82 0.54 <
-12 10 8 1.09 1.91 0.82 <
-11 10 8 2.44 3.81 0.82 o
-10 10 8 10.22 11.43 0.82 o
-9 10 8 1.32 2.18 0.54 o
-8 10 8 158.92 157.10 1.91 o
-7 10 8 260.01 261.14 2.45 o
-6 10 8 64.26 63.98 1.36 o
-5 10 8 106.02 105.64 1.63 o
-4 10 8 20.05 19.33 0.82 o
-3 10 8 12.18 11.71 0.82 o
-2 10 8 2.80 2.99 0.82 o
-1 10 8 366.02 367.66 3.54 o
0 10 8 25.12 23.96 1.09 o
1 10 8 229.33 236.08 2.72 o
2 10 8 271.72 281.57 3.00 o
3 10 8 6.66 8.44 0.82 o
4 10 8 78.50 78.68 1.63 o
5 10 8 69.88 71.60 1.63 o
6 10 8 272.85 276.94 3.00 o
7 10 8 0.39 -0.82 0.82 <
8 10 8 64.04 63.98 1.63 o
9 10 8 259.02 260.34 3.00 o
-14 11 8 138.95 130.42 2.18 o
-13 11 8 17.93 16.61 0.82 o
-12 11 8 25.61 25.32 0.82 o
-11 11 8 361.70 368.74 3.54 o
-10 11 8 173.37 176.98 1.91 o
-9 11 8 48.22 50.91 1.36 o
-8 11 8 84.19 84.67 1.36 o
-7 11 8 92.84 95.83 1.63 o
-6 11 8 185.44 185.97 2.18 o
-5 11 8 206.37 209.39 2.18 o
-4 11 8 231.57 234.18 2.45 o
-3 11 8 161.13 163.91 2.18 o
-2 11 8 187.62 192.78 2.45 o
-1 11 8 149.71 153.83 2.18 o
0 11 8 20.65 21.23 1.09 o
1 11 8 94.18 97.47 1.91 o
2 11 8 189.18 197.13 2.18 o
3 11 8 278.89 284.84 3.00 o
4 11 8 174.96 176.71 2.18 o
5 11 8 89.46 86.30 1.63 o
6 11 8 170.37 172.08 2.18 o
7 11 8 1.15 3.27 0.82 o
8 11 8 41.18 41.65 1.36 o
9 11 8 24.18 21.78 1.36 o
-13 12 8 18.08 17.42 0.82 o
-12 12 8 82.77 82.76 1.36 o
-11 12 8 58.56 56.63 1.36 o
-10 12 8 134.73 135.86 1.63 o
-9 12 8 165.32 166.09 1.63 o
-8 12 8 5.97 6.26 0.82 o
-7 12 8 543.29 567.13 4.36 o
-6 12 8 55.06 54.45 1.36 o
-5 12 8 87.24 87.12 1.63 o
-4 12 8 84.83 92.29 1.63 o
-3 12 8 123.97 129.05 1.91 o
-2 12 8 123.34 127.96 1.91 o
-1 12 8 2.03 3.27 0.82 o
0 12 8 141.53 148.39 1.91 o
1 12 8 48.75 49.55 1.36 o
2 12 8 3.53 2.99 0.82 o
3 12 8 177.92 188.96 2.18 o
4 12 8 4.60 5.17 0.82 o
5 12 8 15.08 14.70 0.82 o
6 12 8 98.16 99.92 1.91 o
7 12 8 59.25 59.62 1.63 o
8 12 8 10.64 13.07 1.36 o
-13 13 8 100.80 98.02 2.99 o
-12 13 8 9.65 9.26 1.09 o
-11 13 8 0.09 -0.27 0.82 <
-10 13 8 115.21 112.44 1.63 o
-9 13 8 135.68 133.14 1.91 o
-8 13 8 5.51 6.26 0.82 o
-7 13 8 74.62 69.97 1.63 o
-6 13 8 84.89 86.03 1.63 o
-5 13 8 50.61 51.73 1.36 o
-4 13 8 124.34 125.79 1.91 o
-3 13 8 106.23 106.72 2.18 o
-2 13 8 57.24 59.89 1.63 o
-1 13 8 19.46 18.78 1.09 o
0 13 8 522.75 537.15 4.36 o
1 13 8 16.45 16.61 0.82 o
2 13 8 137.81 143.21 1.91 o
3 13 8 114.29 114.89 1.91 o
4 13 8 93.98 96.92 1.91 o
5 13 8 0.41 1.09 0.82 <
6 13 8 42.33 47.64 1.36 o
7 13 8 329.15 314.58 5.17 o
-12 14 8 14.95 16.61 1.63 o
-11 14 8 34.64 37.30 1.63 o
-10 14 8 216.14 214.30 2.18 o
-9 14 8 37.56 39.75 1.36 o
-8 14 8 40.19 40.56 1.36 o
-7 14 8 38.68 38.11 1.36 o
-6 14 8 175.24 179.16 2.18 o
-5 14 8 115.71 115.98 1.63 o
-4 14 8 111.87 114.08 1.91 o
-3 14 8 196.36 204.21 2.45 o
-2 14 8 149.06 155.47 2.18 o
-1 14 8 126.26 129.60 1.91 o
0 14 8 12.39 13.07 0.82 o
1 14 8 117.23 118.16 1.63 o
2 14 8 73.57 78.13 1.63 o
3 14 8 142.31 143.49 2.18 o
4 14 8 105.30 105.91 1.91 o
5 14 8 35.64 32.67 1.09 o
6 14 8 37.37 35.94 3.27 o
-11 15 8 151.57 149.21 3.81 o
-10 15 8 66.28 61.53 1.63 o
-9 15 8 124.40 122.25 1.63 o
-8 15 8 102.96 102.64 1.63 o
-7 15 8 1.49 1.63 0.82 <
-6 15 8 259.68 268.22 2.45 o
-5 15 8 0.54 1.63 0.54 o
-4 15 8 231.44 238.53 2.45 o
-3 15 8 35.60 37.02 1.36 o
-2 15 8 109.61 115.17 1.91 o
-1 15 8 46.01 47.64 1.36 o
0 15 8 21.04 22.32 1.09 o
1 15 8 110.60 118.16 1.63 o
2 15 8 0.41 2.18 0.82 <
3 15 8 85.67 89.57 1.63 o
4 15 8 0.74 -0.82 0.82 <
5 15 8 0.41 -1.91 1.91 <
-10 16 8 0.85 1.91 1.36 <
-9 16 8 147.55 142.13 2.18 o
-8 16 8 208.95 209.67 2.18 o
-7 16 8 16.50 17.69 0.82 o
-6 16 8 117.06 115.71 1.63 o
-5 16 8 1.54 1.63 0.54 o
-4 16 8 4.61 5.44 0.82 o
-3 16 8 14.59 15.52 0.82 o
-2 16 8 308.90 314.53 3.00 o
-1 16 8 53.83 51.45 1.36 o
0 16 8 84.59 89.03 1.63 o
1 16 8 211.74 216.48 2.72 o
2 16 8 0.29 -0.82 0.82 <
3 16 8 14.06 15.79 1.63 o
-9 17 8 35.87 30.22 3.27 o
-8 17 8 48.07 50.36 1.63 o
-7 17 8 63.25 66.16 1.91 o
-6 17 8 143.07 146.76 2.18 o
-5 17 8 61.64 60.98 1.36 o
-4 17 8 47.58 48.19 1.09 o
-3 17 8 37.88 35.12 1.09 o
-2 17 8 49.19 50.91 1.36 o
-1 17 8 23.16 25.86 1.09 o
0 17 8 41.10 41.11 1.63 o
1 17 8 122.36 118.98 2.45 o
2 17 8 110.39 97.20 3.27 o
-7 18 8 3.60 2.72 1.36 <
-6 18 8 137.06 135.87 2.18 o
-5 18 8 63.74 65.34 1.63 o
-4 18 8 5.12 4.36 0.82 o
-3 18 8 91.13 91.21 1.91 o
-2 18 8 12.99 16.61 1.09 o
-1 18 8 27.89 28.86 2.72 o
-2 -16 9 3.00 9.53 1.63 o
-1 -16 9 3.54 3.54 1.09 o
0 -16 9 21.97 20.96 1.36 o
1 -16 9 42.98 43.29 1.63 o
2 -16 9 84.00 86.03 2.18 o
3 -16 9 149.91 150.03 2.45 o
4 -16 9 24.02 24.23 1.36 o
5 -16 9 41.16 40.02 1.91 o
6 -16 9 10.39 13.07 2.18 o
-4 -15 9 25.89 28.86 1.63 o
-3 -15 9 193.96 197.96 3.27 o
-2 -15 9 17.33 18.51 1.09 o
-1 -15 9 38.38 41.65 1.63 o
0 -15 9 15.65 15.79 1.09 o
1 -15 9 62.94 59.89 1.91 o
2 -15 9 66.72 67.24 1.63 o
3 -15 9 25.24 25.86 1.09 o
4 -15 9 219.20 221.11 2.72 o
5 -15 9 6.35 7.35 0.82 o
6 -15 9 26.71 28.58 1.09 o
7 -15 9 12.65 13.61 1.09 o
-6 -14 9 0.67 1.63 1.63 <
-5 -14 9 19.73 20.42 1.36 o
-4 -14 9 9.44 11.16 1.09 o
-3 -14 9 56.74 60.17 1.91 o
-2 -14 9 182.26 184.34 2.72 o
-1 -14 9 339.06 343.68 4.08 o
0 -14 9 169.66 166.36 2.72 o
1 -14 9 60.37 62.89 1.63 o
2 -14 9 107.84 108.09 1.91 o
3 -14 9 135.96 138.86 2.18 o
4 -14 9 3.71 3.81 0.82 o
5 -14 9 220.32 225.46 3.00 o
6 -14 9 293.02 301.19 3.00 o
7 -14 9 60.57 56.35 1.36 o
8 -14 9 94.03 92.02 1.91 o
9 -14 9 170.07 161.20 3.00 o
-7 -13 9 72.07 68.88 2.18 o
-6 -13 9 68.24 67.52 2.45 o
-5 -13 9 25.33 23.68 1.63 o
-4 -13 9 40.45 42.74 1.91 o
-3 -13 9 72.24 67.79 1.91 o
-2 -13 9 3.04 2.18 1.09 <
-1 -13 9 13.48 12.25 1.09 o
0 -13 9 23.44 23.68 1.09 o
1 -13 9 128.35 125.24 2.18 o
2 -13 9 105.16 105.91 1.91 o
3 -13 9 104.70 108.63 1.91 o
4 -13 9 49.88 51.45 1.63 o
5 -13 9 2.22 2.99 0.82 o
6 -13 9 9.51 9.53 0.82 o
7 -13 9 2.56 1.91 0.82 <
8 -13 9 7.83 9.26 0.82 o
9 -13 9 20.93 17.15 0.82 o
-8 -12 9 174.99 173.45 3.54 o
-7 -12 9 156.54 162.55 3.00 o
-6 -12 9 30.52 34.03 1.91 o
-5 -12 9 396.35 409.62 5.17 o
-4 -12 9 4.42 4.36 1.09 o
-3 -12 9 56.65 56.35 1.91 o
-2 -12 9 110.19 112.17 1.91 o
-1 -12 9 186.92 184.34 2.45 o
0 -12 9 72.07 77.32 1.63 o
1 -12 9 31.05 32.67 1.09 o
2 -12 9 216.21 216.47 2.45 o
3 -12 9 0.85 2.45 0.82 <
4 -12 9 0.58 1.91 0.82 <
5 -12 9 119.80 118.98 1.91 o
6 -12 9 24.30 25.32 1.09 o
7 -12 9 0.62 1.09 0.82 <
8 -12 9 79.29 82.22 1.36 o
9 -12 9 39.15 37.57 1.09 o
10 -12 9 10.33 11.98 0.82 o
-9 -11 9 338.31 327.66 5.18 o
-8 -11 9 27.06 29.40 1.63 o
-7 -11 9 52.78 55.54 1.91 o
-6 -11 9 0.11 1.36 1.09 <
-5 -11 9 28.00 30.49 1.36 o
-4 -11 9 103.27 108.36 2.18 o
-3 -11 9 200.07 202.58 2.45 o
-2 -11 9 270.05 275.58 3.00 o
-1 -11 9 127.31 130.14 2.18 o
0 -11 9 319.19 324.61 3.00 o
1 -11 9 2.75 4.08 0.82 o
2 -11 9 29.33 29.13 1.09 o
3 -11 9 169.73 175.89 2.18 o
4 -11 9 244.21 253.51 2.72 o
5 -11 9 103.63 103.18 1.91 o
6 -11 9 250.85 257.60 2.45 o
7 -11 9 550.34 570.67 4.36 o
8 -11 9 7.18 8.17 0.82 o
9 -11 9 33.98 33.48 1.09 o
10 -11 9 80.13 78.68 1.36 o
11 -11 9 207.61 203.42 6.26 o
-9 -10 9 2.10 4.36 1.09 o
-8 -10 9 4.04 2.72 1.09 <
-7 -10 9 13.12 12.79 1.36 o
-6 -10 9 129.27 136.40 3.27 o
-5 -10 9 91.68 92.02 2.18 o
-4 -10 9 30.06 30.76 1.09 o
-3 -10 9 19.34 17.42 1.09 o
-2 -10 9 7.38 6.53 0.82 o
-1 -10 9 8.03 9.53 0.82 o
0 -10 9 88.58 88.75 1.63 o
1 -10 9 39.89 39.47 1.36 o
2 -10 9 241.26 242.62 2.72 o
3 -10 9 21.30 22.05 1.09 o
4 -10 9 10.04 10.89 0.82 o
5 -10 9 4.61 4.36 0.82 o
6 -10 9 3.04 3.54 0.82 o
7 -10 9 63.85 61.53 1.36 o
8 -10 9 38.03 39.20 1.09 o
9 -10 9 24.98 22.87 0.82 o
10 -10 9 3.30 2.45 0.82 <
11 -10 9 64.77 65.61 1.63 o
-10 -9 9 115.35 118.44 2.99 o
-9 -9 9 36.95 41.92 1.91 o
-8 -9 9 2.72 4.63 1.09 o
-7 -9 9 478.65 504.44 7.08 o
-6 -9 9 77.56 75.96 2.72 o
-5 -9 9 0.54 0.27 0.82 <
-4 -9 9 435.82 455.66 4.09 o
-3 -9 9 131.12 133.41 2.18 o
-2 -9 9 5.51 6.81 0.82 o
-1 -9 9 4.49 5.72 0.82 o
0 -9 9 335.24 341.50 3.27 o
1 -9 9 144.96 151.11 2.18 o
2 -9 9 190.47 194.96 2.45 o
3 -9 9 519.36 526.26 4.63 o
4 -9 9 2.41 3.54 0.82 o
5 -9 9 5.50 6.26 0.82 o
6 -9 9 45.12 50.91 1.36 o
7 -9 9 87.75 89.84 1.63 o
8 -9 9 0.94 2.18 0.82 <
9 -9 9 89.49 91.48 1.63 o
10 -9 9 143.11 145.12 1.91 o
11 -9 9 2.70 3.27 0.82 o
-11 -8 9 279.34 272.07 4.63 o
-10 -8 9 23.65 24.23 1.63 o
-9 -8 9 90.61 91.48 2.18 o
-8 -8 9 83.96 84.94 2.18 o
-7 -8 9 1.15 2.72 1.09 <
-6 -8 9 36.91 39.20 1.36 o
-5 -8 9 29.51 27.77 1.09 o
-4 -8 9 160.97 162.00 2.18 o
-3 -8 9 177.22 177.80 2.18 o
-2 -8 9 584.50 590.32 4.63 o
-1 -8 9 176.17 178.07 2.18 o
0 -8 9 106.21 109.72 1.91 o
1 -8 9 154.67 153.29 2.18 o
2 -8 9 211.09 211.03 2.72 o
3 -8 9 34.51 31.31 1.09 o
4 -8 9 282.77 288.65 2.72 o
5 -8 9 625.98 644.01 5.18 o
6 -8 9 38.07 38.93 1.09 o
7 -8 9 127.08 127.69 1.91 o
8 -8 9 199.71 202.31 2.18 o
9 -8 9 44.56 45.19 1.36 o
10 -8 9 4.40 3.54 0.82 o
11 -8 9 132.45 129.06 1.91 o
12 -8 9 284.68 267.99 3.54 o
-11 -7 9 3.10 4.90 0.82 o
-10 -7 9 51.55 51.45 2.18 o
-9 -7 9 40.27 41.11 1.63 o
-8 -7 9 39.34 41.38 1.63 o
-7 -7 9 22.22 23.96 1.09 o
-6 -7 9 7.99 7.62 1.09 o
-5 -7 9 0.00 0.54 0.82 <
-4 -7 9 93.93 93.66 1.63 o
-3 -7 9 28.82 28.86 1.09 o
-2 -7 9 71.88 73.51 1.36 o
-1 -7 9 0.78 1.91 0.82 <
0 -7 9 50.77 52.27 1.36 o
1 -7 9 129.47 131.78 1.91 o
2 -7 9 14.74 14.70 0.82 o
3 -7 9 59.74 59.89 1.63 o
4 -7 9 32.44 30.76 1.09 o
5 -7 9 67.26 67.52 1.36 o
6 -7 9 7.14 5.99 0.82 o
7 -7 9 3.85 5.17 0.82 o
8 -7 9 34.16 33.76 1.09 o
9 -7 9 59.20 62.62 1.63 o
10 -7 9 22.88 22.32 1.09 o
11 -7 9 38.62 41.65 1.36 o
12 -7 9 0.31 0.54 0.82 <
-12 -6 9 39.22 36.48 2.45 o
-11 -6 9 2.37 1.09 1.09 <
-10 -6 9 112.51 116.53 2.45 o
-9 -6 9 414.55 428.41 4.63 o
-8 -6 9 197.15 203.67 2.45 o
-7 -6 9 136.85 143.21 2.18 o
-6 -6 9 916.50 968.26 7.36 o
-5 -6 9 50.22 52.27 1.36 o
-4 -6 9 9.49 10.07 0.82 o
-3 -6 9 84.64 88.21 1.63 o
-2 -6 9 527.92 544.52 4.09 o
-1 -6 9 103.83 94.20 1.63 o
0 -6 9 90.90 85.49 1.63 o
1 -6 9 609.12 526.05 4.63 o
2 -6 9 12.40 13.88 0.82 o
3 -6 9 87.06 87.39 1.63 o
4 -6 9 127.49 125.79 1.91 o
5 -6 9 195.23 197.68 2.18 o
6 -6 9 0.09 0.82 0.82 <
7 -6 9 188.81 199.04 2.18 o
8 -6 9 111.06 107.27 1.63 o
9 -6 9 17.07 18.78 0.82 o
10 -6 9 240.39 244.25 2.45 o
11 -6 9 75.04 71.60 1.91 o
12 -6 9 0.00 -0.54 0.82 <
-12 -5 9 11.83 11.71 1.09 o
-11 -5 9 75.03 74.87 2.18 o
-10 -5 9 426.05 433.87 4.90 o
-9 -5 9 14.25 16.61 1.09 o
-8 -5 9 39.50 41.92 1.63 o
-7 -5 9 12.34 11.98 0.82 o
-6 -5 9 20.62 20.42 1.09 o
-5 -5 9 63.25 63.43 1.63 o
-4 -5 9 222.29 217.84 2.45 o
-3 -5 9 328.62 337.69 3.00 o
-2 -5 9 142.03 143.21 1.91 o
-1 -5 9 427.53 425.70 3.54 o
0 -5 9 41.42 43.01 1.36 o
1 -5 9 45.23 44.37 1.36 o
2 -5 9 84.84 86.03 1.63 o
3 -5 9 315.74 327.34 3.00 o
4 -5 9 80.10 81.40 1.63 o
5 -5 9 382.14 393.54 3.27 o
6 -5 9 746.30 760.45 5.18 o
7 -5 9 0.81 0.54 0.82 <
8 -5 9 26.74 26.41 0.82 o
9 -5 9 41.66 42.20 1.09 o
10 -5 9 338.44 339.60 3.00 o
11 -5 9 3.76 2.72 0.82 o
12 -5 9 105.61 103.73 2.18 o
-13 -4 9 0.36 -1.09 2.18 <
-12 -4 9 98.94 98.83 1.91 o
-11 -4 9 32.81 34.03 1.36 o
-10 -4 9 4.18 6.53 0.82 o
-9 -4 9 22.79 22.60 1.09 o
-8 -4 9 10.26 10.34 1.09 o
-7 -4 9 33.28 34.30 1.09 o
-6 -4 9 46.59 45.46 1.36 o
-5 -4 9 1.62 3.54 0.82 o
-4 -4 9 162.82 166.90 1.91 o
-3 -4 9 71.31 67.24 1.36 o
-2 -4 9 154.89 151.66 1.91 o
-1 -4 9 121.68 123.33 1.63 o
0 -4 9 0.11 0.54 0.54 <
1 -4 9 194.57 192.23 2.45 o
2 -4 9 1.82 1.91 0.54 o
3 -4 9 35.83 34.30 1.09 o
4 -4 9 39.98 36.48 1.09 o
5 -4 9 100.44 99.92 1.36 o
6 -4 9 85.52 84.13 1.36 o
7 -4 9 0.19 1.63 0.54 o
8 -4 9 4.66 6.26 0.82 o
9 -4 9 1.00 2.45 0.82 <
10 -4 9 5.57 6.81 0.82 o
11 -4 9 3.18 2.72 0.82 o
12 -4 9 123.58 121.16 1.91 o
-13 -3 9 0.00 -0.54 1.09 <
-12 -3 9 222.04 231.45 3.00 o
-11 -3 9 272.23 281.02 3.00 o
-10 -3 9 19.33 19.87 1.09 o
-9 -3 9 50.08 51.18 1.63 o
-8 -3 9 770.83 811.96 6.54 o
-7 -3 9 173.76 173.99 2.18 o
-6 -3 9 1.10 1.36 0.82 <
-5 -3 9 639.26 664.73 5.45 o
-4 -3 9 287.51 288.93 2.72 o
-3 -3 9 8.10 8.71 0.82 o
-2 -3 9 5.80 5.99 0.54 o
-1 -3 9 749.88 752.55 5.99 o
0 -3 9 384.38 384.56 3.81 o
1 -3 9 359.31 361.94 3.54 o
2 -3 9 649.99 657.11 4.90 o
3 -3 9 9.15 11.43 0.54 o
4 -3 9 0.24 1.09 0.54 <
5 -3 9 80.74 87.66 1.36 o
6 -3 9 322.82 329.79 2.72 o
7 -3 9 12.30 12.79 0.82 o
8 -3 9 248.49 254.06 2.45 o
9 -3 9 143.55 144.03 1.91 o
10 -3 9 0.02 0.27 0.82 <
11 -3 9 110.31 103.73 1.63 o
12 -3 9 10.48 10.62 0.82 o
-13 -2 9 25.85 26.41 1.63 o
-12 -2 9 224.00 219.47 2.45 o
-11 -2 9 5.78 7.08 0.82 o
-10 -2 9 40.41 39.20 1.36 o
-9 -2 9 42.68 42.74 1.36 o
-8 -2 9 9.76 10.07 0.82 o
-7 -2 9 2.99 2.99 0.82 o
-6 -2 9 53.98 53.09 1.36 o
-5 -2 9 108.58 95.29 1.63 o
-4 -2 9 102.14 100.19 1.63 o
-3 -2 9 477.70 461.41 3.54 o
-2 -2 9 80.64 80.04 1.36 o
-1 -2 9 181.61 175.89 1.91 o
0 -2 9 71.83 67.79 1.36 o
1 -2 9 303.15 300.10 2.45 o
2 -2 9 8.89 8.98 0.54 o
3 -2 9 183.90 183.25 1.91 o
4 -2 9 616.55 539.95 3.81 o
5 -2 9 0.63 2.45 0.54 o
6 -2 9 204.39 205.31 2.18 o
7 -2 9 113.17 110.81 1.63 o
8 -2 9 67.97 66.70 1.36 o
9 -2 9 24.14 22.60 1.09 o
10 -2 9 94.99 95.29 1.63 o
11 -2 9 322.02 311.82 3.00 o
12 -2 9 21.97 20.69 0.82 o
-14 -1 9 30.99 20.15 2.45 o
-13 -1 9 3.90 3.81 0.82 o
-12 -1 9 4.02 3.54 0.82 o
-11 -1 9 295.48 298.73 3.27 o
-10 -1 9 73.81 74.05 1.63 o
-9 -1 9 2.15 3.54 0.82 o
-8 -1 9 3.80 4.08 0.82 o
-7 -1 9 7.28 6.81 0.82 o
-6 -1 9 38.55 40.29 1.36 o
-5 -1 9 78.44 72.15 1.36 o
-4 -1 9 238.80 232.00 2.18 o
-3 -1 9 224.07 220.01 2.18 o
-2 -1 9 103.59 98.01 1.63 o
-1 -1 9 1.41 2.45 0.54 o
0 -1 9 25.13 27.22 0.82 o
1 -1 9 5.44 6.53 0.54 o
2 -1 9 78.13 76.77 1.09 o
3 -1 9 150.62 152.20 1.63 o
4 -1 9 253.36 221.93 1.91 o
5 -1 9 107.02 102.37 1.36 o
6 -1 9 109.71 107.27 1.36 o
7 -1 9 1.66 1.36 0.82 <
8 -1 9 2.24 4.08 0.82 o
9 -1 9 57.17 56.08 1.63 o
10 -1 9 115.72 118.98 1.63 o
11 -1 9 10.37 8.44 0.82 o
12 -1 9 0.98 0.54 0.54 <
-14 0 9 233.58 228.21 4.08 o
-13 0 9 87.05 92.02 1.63 o
-12 0 9 3.36 2.99 0.82 o
-11 0 9 80.27 86.85 1.63 o
-10 0 9 488.43 514.52 4.63 o
-9 0 9 224.60 231.72 2.45 o
-8 0 9 214.09 220.83 2.45 o
-7 0 9 1197.50 1256.47 8.72 o
-6 0 9 138.16 141.85 1.91 o
-5 0 9 4.87 5.72 0.82 o
-4 0 9 28.13 31.85 1.09 o
-3 0 9 639.97 633.40 4.90 o
-2 0 9 160.20 154.65 1.91 o
-1 0 9 94.58 90.39 1.36 o
0 0 9 883.38 891.11 6.00 o
1 0 9 39.61 36.21 1.09 o
2 0 9 186.09 188.42 1.91 o
3 0 9 62.12 63.71 1.09 o
4 0 9 315.86 319.98 2.45 o
5 0 9 14.36 14.70 0.82 o
6 0 9 209.52 215.65 2.18 o
7 0 9 137.27 139.13 1.63 o
8 0 9 18.92 18.78 0.82 o
9 0 9 370.53 382.64 3.54 o
10 0 9 64.67 62.34 1.36 o
11 0 9 8.28 9.26 0.82 o
12 0 9 3.68 5.99 0.82 o
-14 1 9 15.91 16.06 1.36 o
-13 1 9 0.15 0.27 0.82 <
-12 1 9 39.85 37.84 1.09 o
-11 1 9 222.74 223.01 2.45 o
-10 1 9 19.00 19.87 1.09 o
-9 1 9 1.01 1.63 0.82 <
-8 1 9 25.09 23.41 1.09 o
-7 1 9 0.03 1.09 0.82 <
-6 1 9 5.74 4.63 0.82 o
-5 1 9 178.48 170.18 2.18 o
-4 1 9 112.49 109.45 1.63 o
-3 1 9 126.30 124.70 1.63 o
-2 1 9 128.18 120.07 1.63 o
-1 1 9 83.84 80.59 1.36 o
0 1 9 169.91 165.82 1.91 o
1 1 9 19.00 16.88 0.54 o
2 1 9 295.90 287.02 2.18 o
3 1 9 8.99 9.26 0.54 o
4 1 9 317.89 327.61 2.72 o
5 1 9 409.54 405.81 3.00 o
6 1 9 16.31 16.88 0.82 o
7 1 9 110.19 107.54 1.91 o
8 1 9 6.61 6.81 0.82 o
9 1 9 303.53 306.63 2.72 o
10 1 9 5.38 6.53 0.82 o
11 1 9 77.23 78.68 1.36 o
12 1 9 80.37 76.23 1.63 o
-14 2 9 0.07 -0.27 0.82 <
-13 2 9 273.55 276.13 3.00 o
-12 2 9 61.17 63.16 1.36 o
-11 2 9 33.31 34.03 1.09 o
-10 2 9 103.65 108.09 1.91 o
-9 2 9 4.82 5.72 0.82 o
-8 2 9 5.98 6.81 0.82 o
-7 2 9 16.19 14.97 0.82 o
-6 2 9 130.99 131.23 2.18 o
-5 2 9 279.88 286.48 3.00 o
-4 2 9 244.20 239.08 2.45 o
-3 2 9 314.02 308.27 2.72 o
-2 2 9 125.30 128.24 1.63 o
-1 2 9 47.82 44.92 1.09 o
0 2 9 86.18 83.58 1.36 o
1 2 9 117.06 116.80 1.36 o
2 2 9 196.52 193.05 1.91 o
3 2 9 202.69 189.51 1.91 o
4 2 9 217.42 215.11 2.18 o
5 2 9 54.92 54.18 1.36 o
6 2 9 13.54 12.79 0.82 o
7 2 9 2.48 3.27 0.82 o
8 2 9 21.24 23.41 0.82 o
9 2 9 25.70 23.68 0.82 o
10 2 9 39.07 36.21 1.09 o
11 2 9 274.22 282.40 3.27 o
12 2 9 3.44 2.18 1.91 <
-14 3 9 0.16 1.09 0.82 <
-13 3 9 178.52 189.78 2.18 o
-12 3 9 282.38 295.46 3.00 o
-11 3 9 35.65 37.57 1.09 o
-10 3 9 66.65 69.15 1.36 o
-9 3 9 670.71 709.70 5.45 o
-8 3 9 199.11 199.86 2.45 o
-7 3 9 0.01 1.63 0.82 <
-6 3 9 574.54 599.58 5.45 o
-5 3 9 311.11 313.45 3.27 o
-4 3 9 2.01 3.81 0.54 o
-3 3 9 17.13 16.88 0.82 o
-2 3 9 668.92 676.20 4.63 o
-1 3 9 476.33 476.39 3.54 o
0 3 9 288.36 288.38 2.45 o
1 3 9 572.85 580.78 3.81 o
2 3 9 9.93 8.71 0.54 o
3 3 9 1.64 3.27 0.54 o
4 3 9 100.86 108.90 1.36 o
5 3 9 301.52 313.17 2.45 o
6 3 9 30.16 28.58 0.82 o
7 3 9 220.27 221.37 2.45 o
8 3 9 106.92 108.90 1.63 o
9 3 9 0.03 0.82 0.54 <
10 3 9 83.66 78.95 1.63 o
11 3 9 15.72 17.42 1.09 o
-14 4 9 8.16 8.17 0.82 o
-13 4 9 76.66 80.04 1.36 o
-12 4 9 1.85 2.45 0.82 <
-11 4 9 0.41 2.18 0.82 <
-10 4 9 2.31 4.08 0.82 o
-9 4 9 37.75 38.11 1.09 o
-8 4 9 65.23 65.61 1.63 o
-7 4 9 30.69 26.95 1.09 o
-6 4 9 0.57 1.36 0.82 <
-5 4 9 78.79 70.78 1.36 o
-4 4 9 168.64 159.83 1.91 o
-3 4 9 18.28 16.33 0.82 o
-2 4 9 199.41 196.86 1.91 o
-1 4 9 1.94 2.99 0.54 o
0 4 9 334.24 329.79 2.72 o
1 4 9 70.82 69.15 1.09 o
2 4 9 88.18 77.86 1.36 o
3 4 9 226.14 222.74 2.18 o
4 4 9 6.43 7.08 0.82 o
5 4 9 277.73 276.94 2.45 o
6 4 9 23.74 22.32 0.82 o
7 4 9 119.55 122.25 1.91 o
8 4 9 123.44 124.15 1.63 o
9 4 9 23.92 21.78 0.82 o
10 4 9 135.25 133.68 1.91 o
11 4 9 0.61 0.82 0.82 <
-14 5 9 25.60 24.77 1.09 o
-13 5 9 8.58 9.26 0.82 o
-12 5 9 530.92 536.61 4.63 o
-11 5 9 56.91 55.26 1.36 o
-10 5 9 56.23 57.72 1.36 o
-9 5 9 1.59 0.54 0.82 <
-8 5 9 52.48 49.82 1.36 o
-7 5 9 87.73 88.48 1.63 o
-6 5 9 66.87 62.89 1.63 o
-5 5 9 476.71 485.11 3.81 o
-4 5 9 266.17 263.32 2.45 o
-3 5 9 328.81 325.98 2.72 o
-2 5 9 1.93 2.45 0.54 o
-1 5 9 2.54 3.27 0.54 o
0 5 9 31.92 33.48 0.82 o
1 5 9 89.05 84.67 1.36 o
2 5 9 255.42 257.87 2.45 o
3 5 9 349.14 355.94 3.00 o
4 5 9 263.55 260.33 2.45 o
5 5 9 199.20 200.40 2.18 o
6 5 9 12.16 13.88 1.09 o
7 5 9 5.86 4.90 0.82 o
8 5 9 94.89 92.84 1.63 o
9 5 9 162.58 166.63 2.18 o
10 5 9 27.03 26.41 1.09 o
-14 6 9 54.28 53.90 1.63 o
-13 6 9 0.94 2.18 0.54 o
-12 6 9 55.52 57.99 1.36 o
-11 6 9 333.78 346.95 3.27 o
-10 6 9 259.18 271.49 3.00 o
-9 6 9 125.46 130.96 1.91 o
-8 6 9 801.39 841.69 6.27 o
-7 6 9 82.81 82.76 1.63 o
-6 6 9 34.37 35.93 1.09 o
-5 6 9 24.93 26.41 0.82 o
-4 6 9 447.32 461.39 3.27 o
-3 6 9 200.68 206.67 2.18 o
-2 6 9 56.65 47.37 1.36 o
-1 6 9 539.24 552.43 3.81 o
0 6 9 28.64 29.13 0.82 o
1 6 9 53.92 54.72 1.36 o
2 6 9 57.38 58.80 1.36 o
3 6 9 187.63 193.32 2.45 o
4 6 9 25.90 26.41 1.09 o
5 6 9 163.36 165.82 2.18 o
6 6 9 69.04 73.23 1.63 o
7 6 9 23.17 21.78 1.09 o
8 6 9 188.68 188.42 2.18 o
9 6 9 40.82 46.82 1.36 o
10 6 9 0.00 0.27 0.82 <
-14 7 9 17.95 15.79 1.09 o
-13 7 9 1.61 2.45 0.54 o
-12 7 9 35.89 37.02 1.09 o
-11 7 9 50.72 49.82 1.36 o
-10 7 9 81.10 81.67 1.63 o
-9 7 9 10.55 10.34 0.82 o
-8 7 9 23.66 21.78 0.82 o
-7 7 9 11.19 11.98 0.82 o
-6 7 9 82.28 80.31 1.36 o
-5 7 9 0.21 1.09 0.54 <
-4 7 9 132.23 132.32 1.63 o
-3 7 9 7.77 8.71 0.82 o
-2 7 9 52.76 53.36 1.36 o
-1 7 9 354.37 360.85 3.00 o
0 7 9 0.53 2.45 0.82 <
1 7 9 186.89 190.33 2.18 o
2 7 9 20.81 19.87 1.09 o
3 7 9 194.93 196.32 2.45 o
4 7 9 53.42 54.45 1.63 o
5 7 9 42.88 47.10 1.36 o
6 7 9 292.47 296.82 3.27 o
7 7 9 0.29 0.82 0.82 <
8 7 9 164.59 166.09 2.18 o
9 7 9 35.50 34.30 1.36 o
10 7 9 38.64 31.85 3.54 o
-13 8 9 56.67 56.90 1.36 o
-12 8 9 57.01 53.36 1.36 o
-11 8 9 126.92 127.42 1.91 o
-10 8 9 0.41 0.82 0.82 <
-9 8 9 28.81 28.86 1.09 o
-8 8 9 13.75 13.61 0.82 o
-7 8 9 204.12 204.49 1.91 o
-6 8 9 250.15 253.79 2.45 o
-5 8 9 297.12 302.82 2.72 o
-4 8 9 342.88 344.50 3.00 o
-3 8 9 61.91 63.70 1.36 o
-2 8 9 90.76 91.48 1.63 o
-1 8 9 74.15 72.96 1.36 o
0 8 9 184.97 185.70 2.18 o
1 8 9 209.69 210.75 2.72 o
2 8 9 247.02 251.06 3.00 o
3 8 9 228.48 230.63 2.72 o
4 8 9 28.24 25.86 1.09 o
5 8 9 40.57 38.39 1.36 o
6 8 9 1.43 2.18 0.82 <
7 8 9 41.92 45.19 1.36 o
8 8 9 42.50 40.84 1.36 o
9 8 9 59.72 54.72 1.36 o
-13 9 9 113.28 113.26 1.63 o
-12 9 9 80.10 77.59 1.36 o
-11 9 9 8.92 9.80 0.82 o
-10 9 9 353.83 363.84 3.00 o
-9 9 9 104.57 102.37 1.63 o
-8 9 9 6.71 6.81 0.82 o
-7 9 9 315.83 323.79 2.72 o
-6 9 9 152.85 155.47 1.91 o
-5 9 9 45.82 45.19 1.09 o
-4 9 9 0.14 1.36 0.82 <
-3 9 9 253.33 261.96 2.45 o
-2 9 9 239.36 248.07 2.45 o
-1 9 9 109.11 109.18 1.91 o
0 9 9 383.41 403.07 3.81 o
1 9 9 4.48 5.17 0.82 o
2 9 9 50.12 53.63 1.36 o
3 9 9 59.56 62.34 1.36 o
4 9 9 63.44 67.52 1.36 o
5 9 9 13.52 12.52 0.82 o
6 9 9 61.71 59.62 1.36 o
7 9 9 85.21 90.66 1.63 o
8 9 9 1.11 2.18 0.82 <
-13 10 9 1.57 1.63 1.09 <
-12 10 9 26.64 26.95 1.09 o
-11 10 9 3.31 3.27 0.82 o
-10 10 9 87.26 84.94 1.36 o
-9 10 9 191.50 193.05 2.18 o
-8 10 9 3.42 3.27 0.82 o
-7 10 9 44.51 43.56 1.36 o
-6 10 9 56.03 56.08 1.36 o
-5 10 9 9.76 10.34 0.82 o
-4 10 9 0.36 0.82 0.82 <
-3 10 9 218.45 217.56 2.18 o
-2 10 9 70.32 74.05 1.63 o
-1 10 9 193.60 196.86 2.45 o
0 10 9 248.44 256.24 2.72 o
1 10 9 35.65 38.66 1.36 o
2 10 9 26.43 26.13 1.09 o
3 10 9 20.60 22.05 0.82 o
4 10 9 313.13 317.53 3.27 o
5 10 9 0.99 2.45 0.82 <
6 10 9 96.12 95.83 1.63 o
7 10 9 216.00 213.49 2.72 o
8 10 9 3.71 5.44 1.36 o
-12 11 9 26.15 26.68 1.36 o
-11 11 9 42.80 40.29 1.09 o
-10 11 9 0.42 0.54 0.82 <
-9 11 9 64.44 64.25 1.36 o
-8 11 9 78.76 79.77 1.36 o
-7 11 9 80.57 79.77 1.36 o
-6 11 9 363.62 370.65 3.00 o
-5 11 9 130.03 132.59 1.63 o
-4 11 9 218.19 220.56 2.45 o
-3 11 9 1.01 2.18 0.82 <
-2 11 9 3.68 3.81 0.82 o
-1 11 9 50.75 51.45 1.36 o
0 11 9 89.83 92.57 1.63 o
1 11 9 231.83 235.26 2.45 o
2 11 9 173.44 178.34 2.18 o
3 11 9 213.25 213.75 2.18 o
4 11 9 101.39 103.73 1.63 o
5 11 9 5.30 4.63 0.82 o
6 11 9 9.41 9.53 0.82 o
7 11 9 72.67 63.98 1.63 o
-12 12 9 117.21 108.64 2.72 o
-11 12 9 215.57 211.85 3.54 o
-10 12 9 13.52 16.33 1.09 o
-9 12 9 331.64 334.42 3.00 o
-8 12 9 6.23 6.81 0.82 o
-7 12 9 95.20 96.92 1.63 o
-6 12 9 44.05 43.56 1.36 o
-5 12 9 162.75 165.82 2.18 o
-4 12 9 178.14 181.88 2.18 o
-3 12 9 4.96 5.72 0.82 o
-2 12 9 166.58 173.98 2.18 o
-1 12 9 1.17 0.54 0.82 <
0 12 9 2.52 3.81 0.82 o
1 12 9 77.83 82.76 1.63 o
2 12 9 35.57 42.47 1.36 o
3 12 9 22.81 22.87 0.82 o
4 12 9 63.84 64.79 1.63 o
5 12 9 10.97 11.98 0.82 o
6 12 9 9.47 7.35 0.82 o
-11 13 9 141.08 133.69 3.00 o
-10 13 9 3.28 3.54 1.09 o
-9 13 9 71.59 68.33 1.63 o
-8 13 9 34.05 34.57 1.36 o
-7 13 9 7.53 7.35 0.82 o
-6 13 9 23.31 21.78 1.09 o
-5 13 9 132.62 130.14 1.91 o
-4 13 9 77.34 77.32 1.63 o
-3 13 9 30.02 32.40 1.09 o
-2 13 9 372.46 382.37 3.54 o
-1 13 9 6.77 6.26 0.82 o
0 13 9 48.42 50.36 1.36 o
1 13 9 63.37 64.52 1.36 o
2 13 9 153.72 151.66 1.91 o
3 13 9 0.15 0.27 0.82 <
4 13 9 36.77 38.11 1.36 o
5 13 9 296.71 274.53 3.81 o
-10 14 9 4.65 5.17 1.91 <
-9 14 9 14.24 14.16 1.09 o
-8 14 9 84.22 84.67 1.36 o
-7 14 9 146.94 149.21 1.91 o
-6 14 9 166.42 166.91 1.91 o
-5 14 9 216.41 218.65 2.18 o
-4 14 9 15.30 14.16 0.82 o
-3 14 9 42.52 41.92 1.36 o
-2 14 9 94.06 96.38 1.63 o
-1 14 9 69.97 70.24 1.36 o
0 14 9 98.23 101.01 1.63 o
1 14 9 110.17 112.17 1.63 o
2 14 9 136.40 144.58 2.18 o
3 14 9 16.49 17.69 0.82 o
-9 15 9 37.42 31.58 3.81 o
-8 15 9 149.92 141.86 2.18 o
-7 15 9 20.11 21.78 0.82 o
-6 15 9 99.53 99.10 1.63 o
-5 15 9 20.57 21.51 0.82 o
-4 15 9 46.73 48.19 1.36 o
-3 15 9 73.15 75.96 1.36 o
-2 15 9 5.54 6.81 0.82 o
-1 15 9 191.87 202.86 2.18 o
0 15 9 3.29 4.63 0.82 o
1 15 9 91.48 99.10 1.63 o
2 15 9 7.55 8.98 1.09 o
-7 16 9 19.71 19.60 1.36 o
-6 16 9 8.52 10.62 0.82 o
-5 16 9 3.03 4.63 0.82 o
-4 16 9 214.56 211.58 2.45 o
-3 16 9 64.58 63.98 1.36 o
-2 16 9 59.71 60.98 1.36 o
-1 16 9 185.43 182.17 2.72 o
0 16 9 8.61 9.53 1.09 o
-2 -14 10 55.48 49.82 3.81 o
-1 -14 10 37.94 41.92 2.45 o
0 -14 10 137.37 144.58 3.27 o
1 -14 10 122.44 130.42 2.99 o
2 -14 10 37.54 42.20 2.18 o
3 -14 10 73.18 77.59 1.91 o
4 -14 10 285.70 279.42 3.00 o
5 -14 10 20.76 20.69 1.36 o
-4 -13 10 11.03 10.34 2.18 o
-3 -13 10 18.75 15.52 1.63 o
-2 -13 10 70.70 73.78 2.18 o
-1 -13 10 66.84 66.97 2.18 o
0 -13 10 94.14 98.01 2.18 o
1 -13 10 26.12 28.31 1.09 o
2 -13 10 47.48 42.47 1.36 o
3 -13 10 0.11 0.00 0.82 <
4 -13 10 12.47 11.98 0.82 o
5 -13 10 18.39 20.42 1.09 o
6 -13 10 26.66 27.22 1.09 o
7 -13 10 35.85 34.85 1.63 o
-5 -12 10 20.53 22.60 1.63 o
-4 -12 10 50.00 50.36 2.45 o
-3 -12 10 57.73 58.26 1.91 o
-2 -12 10 100.98 103.46 2.18 o
-1 -12 10 40.94 45.19 1.36 o
0 -12 10 384.61 386.19 3.81 o
1 -12 10 0.56 0.54 0.82 <
2 -12 10 6.96 8.17 0.82 o
3 -12 10 12.55 12.79 0.82 o
4 -12 10 34.66 34.85 1.36 o
5 -12 10 0.29 0.82 0.82 <
6 -12 10 54.10 56.90 1.36 o
7 -12 10 88.89 89.57 1.91 o
8 -12 10 14.38 14.70 1.09 o
-7 -11 10 88.47 79.23 4.63 o
-6 -11 10 25.02 23.68 1.36 o
-5 -11 10 259.00 258.97 4.08 o
-4 -11 10 116.44 112.72 2.18 o
-3 -11 10 95.22 94.20 1.91 o
-2 -11 10 96.45 95.29 1.63 o
-1 -11 10 0.35 1.91 0.82 <
0 -11 10 1.76 2.18 0.82 <
1 -11 10 188.60 195.23 2.18 o
2 -11 10 403.14 415.33 3.54 o
3 -11 10 76.63 77.05 1.63 o
4 -11 10 118.13 119.52 1.91 o
5 -11 10 293.24 292.47 3.00 o
6 -11 10 0.34 0.54 0.82 <
7 -11 10 16.48 18.78 0.82 o
8 -11 10 110.71 115.17 2.18 o
-7 -10 10 54.42 54.99 1.91 o
-6 -10 10 0.08 1.36 1.09 <
-5 -10 10 8.18 8.98 1.36 o
-4 -10 10 0.71 -0.54 1.09 <
-3 -10 10 3.00 3.81 0.82 o
-2 -10 10 108.93 115.17 1.91 o
-1 -10 10 22.38 23.14 1.09 o
0 -10 10 121.68 122.79 1.63 o
1 -10 10 0.69 1.09 0.82 <
2 -10 10 1.78 2.18 0.82 <
3 -10 10 6.53 5.99 0.82 o
4 -10 10 3.37 5.99 0.82 o
5 -10 10 94.58 94.47 1.63 o
6 -10 10 61.97 62.89 1.36 o
7 -10 10 12.69 12.52 0.82 o
8 -10 10 0.59 -0.27 0.82 <
9 -10 10 17.98 17.97 1.36 o
-8 -9 10 7.11 6.81 1.36 o
-7 -9 10 0.57 1.36 0.82 <
-6 -9 10 150.38 145.67 2.99 o
-5 -9 10 201.41 207.48 2.72 o
-4 -9 10 48.80 49.82 1.36 o
-3 -9 10 0.13 1.09 0.82 <
-2 -9 10 326.77 339.86 3.54 o
-1 -9 10 54.04 57.44 1.63 o
0 -9 10 113.21 115.44 1.63 o
1 -9 10 212.14 218.10 2.45 o
2 -9 10 56.05 59.08 1.63 o
3 -9 10 18.95 20.69 1.09 o
4 -9 10 7.67 7.62 0.82 o
5 -9 10 50.41 48.46 1.36 o
6 -9 10 5.51 5.17 0.82 o
7 -9 10 216.44 219.74 2.45 o
8 -9 10 190.97 190.88 2.45 o
9 -9 10 0.49 -0.27 0.82 <
-9 -8 10 1.20 1.09 1.63 <
-8 -8 10 51.41 51.18 1.91 o
-7 -8 10 92.11 92.02 2.18 o
-6 -8 10 215.98 221.92 3.54 o
-5 -8 10 35.96 36.48 1.36 o
-4 -8 10 226.06 228.18 2.72 o
-3 -8 10 47.83 49.55 1.63 o
-2 -8 10 63.74 67.52 1.63 o
-1 -8 10 177.92 181.34 2.18 o
0 -8 10 199.01 202.58 2.45 o
1 -8 10 104.15 106.18 1.91 o
2 -8 10 87.40 92.84 1.63 o
3 -8 10 559.45 580.21 5.18 o
4 -8 10 5.72 4.90 0.82 o
5 -8 10 161.26 163.36 2.18 o
6 -8 10 126.87 130.14 1.91 o
7 -8 10 72.85 71.87 1.36 o
8 -8 10 9.55 10.34 0.82 o
9 -8 10 129.75 126.61 1.91 o
10 -8 10 361.01 338.84 6.54 o
-10 -7 10 36.40 37.30 3.54 o
-9 -7 10 1.29 -0.27 1.09 <
-8 -7 10 1.49 0.82 1.09 <
-7 -7 10 1.68 2.72 0.82 o
-6 -7 10 104.65 100.74 1.91 o
-5 -7 10 5.60 5.44 0.82 o
-4 -7 10 51.06 54.45 1.63 o
-3 -7 10 43.15 46.28 1.36 o
-2 -7 10 22.04 22.05 1.09 o
-1 -7 10 86.07 93.65 1.63 o
0 -7 10 6.36 7.62 0.82 o
1 -7 10 88.12 88.48 1.63 o
2 -7 10 54.18 55.26 1.63 o
3 -7 10 38.16 39.75 1.36 o
4 -7 10 0.25 1.09 0.82 <
5 -7 10 4.16 4.36 0.82 o
6 -7 10 45.17 45.19 1.36 o
7 -7 10 23.85 25.32 0.82 o
8 -7 10 19.30 17.97 0.82 o
9 -7 10 55.02 56.08 1.36 o
10 -7 10 0.28 1.09 1.09 <
-10 -6 10 55.33 55.27 3.81 o
-9 -6 10 34.07 37.84 1.91 o
-8 -6 10 527.11 542.06 5.72 o
-7 -6 10 182.02 185.97 2.18 o
-6 -6 10 1.82 2.45 0.82 <
-5 -6 10 26.76 28.04 1.09 o
-4 -6 10 191.00 194.96 2.18 o
-3 -6 10 164.85 172.62 2.18 o
-2 -6 10 137.91 144.57 1.91 o
-1 -6 10 839.08 878.79 6.54 o
0 -6 10 18.06 17.69 1.09 o
1 -6 10 7.02 8.71 0.82 o
2 -6 10 1.34 1.91 0.82 <
3 -6 10 196.33 203.67 2.45 o
4 -6 10 1.19 2.72 0.82 o
5 -6 10 149.02 159.28 2.18 o
6 -6 10 192.19 195.23 2.18 o
7 -6 10 38.91 40.02 1.09 o
8 -6 10 157.47 152.47 1.91 o
9 -6 10 2.56 1.91 0.82 <
10 -6 10 0.48 0.54 0.82 <
-11 -5 10 5.79 4.63 1.36 o
-10 -5 10 30.35 31.03 1.63 o
-9 -5 10 1.96 4.63 1.09 o
-8 -5 10 92.24 91.75 1.91 o
-7 -5 10 6.43 7.62 0.82 o
-6 -5 10 274.04 270.67 2.72 o
-5 -5 10 124.57 124.97 1.91 o
-4 -5 10 118.54 120.34 1.91 o
-3 -5 10 115.61 116.53 1.63 o
-2 -5 10 13.88 14.70 0.82 o
-1 -5 10 0.96 1.09 0.82 <
0 -5 10 112.97 113.53 1.91 o
1 -5 10 490.52 500.91 4.36 o
2 -5 10 53.48 52.00 1.63 o
3 -5 10 194.02 199.59 2.45 o
4 -5 10 380.60 384.82 3.81 o
5 -5 10 5.35 6.26 0.82 o
6 -5 10 14.59 14.43 0.82 o
7 -5 10 63.34 62.62 1.36 o
8 -5 10 417.05 417.80 3.54 o
9 -5 10 5.93 6.53 0.82 o
10 -5 10 73.38 70.51 1.91 o
-11 -4 10 10.36 8.17 1.09 o
-10 -4 10 12.64 14.70 1.09 o
-9 -4 10 0.52 1.36 0.82 <
-8 -4 10 41.00 40.56 1.63 o
-7 -4 10 57.19 57.72 1.63 o
-6 -4 10 54.92 55.26 1.36 o
-5 -4 10 20.44 18.78 1.09 o
-4 -4 10 19.41 18.78 1.09 o
-3 -4 10 122.45 129.32 1.91 o
-2 -4 10 3.51 4.08 0.82 o
-1 -4 10 98.27 96.92 1.63 o
0 -4 10 44.97 45.46 1.36 o
1 -4 10 26.74 26.68 1.09 o
2 -4 10 71.96 69.70 1.63 o
3 -4 10 21.70 20.96 1.09 o
4 -4 10 109.47 110.81 1.91 o
5 -4 10 7.76 10.34 0.82 o
6 -4 10 3.90 3.27 0.82 o
7 -4 10 15.05 17.69 0.82 o
8 -4 10 1.74 1.63 0.82 <
9 -4 10 18.39 15.52 1.09 o
10 -4 10 104.72 101.83 2.18 o
11 -4 10 10.03 9.80 2.45 o
-11 -3 10 39.40 36.48 1.91 o
-10 -3 10 647.82 670.74 5.99 o
-9 -3 10 36.62 36.48 1.36 o
-8 -3 10 5.43 5.99 0.82 o
-7 -3 10 172.79 181.07 2.18 o
-6 -3 10 361.28 369.02 3.27 o
-5 -3 10 23.74 23.96 1.09 o
-4 -3 10 11.87 13.07 0.82 o
-3 -3 10 674.16 705.08 5.18 o
-2 -3 10 190.82 196.59 2.18 o
-1 -3 10 235.71 243.71 2.72 o
0 -3 10 200.46 198.77 2.45 o
1 -3 10 100.12 98.83 1.91 o
2 -3 10 11.50 10.89 0.82 o
3 -3 10 15.49 17.15 1.09 o
4 -3 10 204.95 210.21 2.18 o
5 -3 10 28.87 29.67 1.09 o
6 -3 10 493.44 512.34 3.54 o
7 -3 10 177.23 175.62 1.91 o
8 -3 10 2.47 1.91 0.82 <
9 -3 10 2.59 0.00 0.82 <
10 -3 10 64.02 65.34 1.63 o
11 -3 10 66.51 63.16 4.08 o
-12 -2 10 0.50 1.36 1.09 <
-11 -2 10 31.31 30.49 1.09 o
-10 -2 10 0.49 1.09 0.82 <
-9 -2 10 13.80 13.88 1.09 o
-8 -2 10 112.12 110.54 1.91 o
-7 -2 10 156.20 160.91 2.18 o
-6 -2 10 15.97 15.79 0.82 o
-5 -2 10 145.66 142.40 2.18 o
-4 -2 10 13.70 14.97 1.09 o
-3 -2 10 125.32 128.78 1.91 o
-2 -2 10 85.60 84.13 1.63 o
-1 -2 10 248.72 242.90 2.72 o
0 -2 10 56.77 57.72 1.63 o
1 -2 10 57.35 59.62 1.63 o
2 -2 10 499.80 499.01 4.63 o
3 -2 10 5.63 6.26 0.82 o
4 -2 10 246.89 246.43 2.18 o
5 -2 10 57.83 58.53 1.36 o
6 -2 10 87.70 87.12 1.36 o
7 -2 10 0.46 -1.09 0.82 <
8 -2 10 108.66 106.45 1.63 o
9 -2 10 380.80 372.85 3.27 o
10 -2 10 7.01 6.26 0.82 o
-12 -1 10 31.07 36.48 1.91 o
-11 -1 10 0.03 1.63 0.82 <
-10 -1 10 2.97 5.44 1.09 o
-9 -1 10 53.45 57.17 1.63 o
-8 -1 10 37.21 37.57 1.36 o
-7 -1 10 168.45 166.90 2.18 o
-6 -1 10 102.88 98.83 1.63 o
-5 -1 10 111.08 112.17 1.91 o
-4 -1 10 1.72 3.27 0.82 o
-3 -1 10 0.12 0.00 0.82 <
-2 -1 10 4.26 6.81 0.82 o
-1 -1 10 84.30 84.40 1.63 o
0 -1 10 168.08 162.82 2.18 o
1 -1 10 182.50 185.42 2.45 o
2 -1 10 106.68 109.99 1.63 o
3 -1 10 40.38 37.84 1.09 o
4 -1 10 21.36 20.15 0.82 o
5 -1 10 2.41 3.81 0.54 o
6 -1 10 2.66 2.45 0.82 <
7 -1 10 73.40 69.15 1.36 o
8 -1 10 149.22 153.83 1.91 o
9 -1 10 6.69 5.17 0.82 o
10 -1 10 2.19 1.91 0.82 <
-12 0 10 250.60 248.08 3.00 o
-11 0 10 67.03 64.52 1.36 o
-10 0 10 66.50 66.97 1.36 o
-9 0 10 625.45 653.53 5.99 o
-8 0 10 314.27 328.15 3.00 o
-7 0 10 1.74 2.72 0.82 o
-6 0 10 5.26 6.81 0.82 o
-5 0 10 224.06 226.55 2.72 o
-4 0 10 229.11 234.45 2.72 o
-3 0 10 168.56 167.45 2.18 o
-2 0 10 1086.80 1132.28 7.90 o
-1 0 10 50.93 49.82 1.36 o
0 0 10 22.22 21.51 0.82 o
1 0 10 8.88 10.62 0.82 o
2 0 10 288.15 295.46 2.45 o
3 0 10 17.90 16.88 0.82 o
4 0 10 165.74 168.54 1.91 o
5 0 10 221.80 226.82 2.18 o
6 0 10 49.90 52.54 1.36 o
7 0 10 235.74 241.80 2.45 o
8 0 10 0.09 -0.82 0.82 <
9 0 10 10.46 9.53 0.82 o
10 0 10 5.74 9.53 0.82 o
-12 1 10 14.26 13.34 0.82 o
-11 1 10 0.08 1.09 0.82 <
-10 1 10 5.68 6.53 0.82 o
-9 1 10 27.82 30.22 1.09 o
-8 1 10 1.15 1.36 0.82 <
-7 1 10 171.76 171.26 2.18 o
-6 1 10 32.19 31.03 1.09 o
-5 1 10 129.19 130.14 2.18 o
-4 1 10 10.35 9.53 0.82 o
-3 1 10 28.59 26.95 1.09 o
-2 1 10 33.16 32.94 1.09 o
-1 1 10 43.24 41.38 1.36 o
0 1 10 379.07 374.48 3.00 o
1 1 10 7.46 8.17 0.82 o
2 1 10 193.10 194.41 2.18 o
3 1 10 173.63 170.17 1.91 o
4 1 10 35.81 38.11 1.09 o
5 1 10 93.76 93.38 1.36 o
6 1 10 15.65 14.16 0.82 o
7 1 10 323.42 328.15 3.00 o
8 1 10 1.98 1.36 0.82 <
9 1 10 77.40 78.14 1.36 o
10 1 10 68.00 65.34 1.63 o
-12 2 10 42.44 43.56 1.36 o
-11 2 10 3.75 5.17 0.82 o
-10 2 10 37.92 38.11 1.36 o
-9 2 10 30.65 30.22 1.09 o
-8 2 10 280.35 285.65 3.00 o
-7 2 10 77.55 79.22 1.63 o
-6 2 10 123.23 123.33 1.91 o
-5 2 10 57.01 57.44 1.63 o
-4 2 10 96.71 99.65 1.91 o
-3 2 10 63.92 60.17 1.36 o
-2 2 10 48.56 48.19 1.36 o
-1 2 10 248.46 251.34 2.45 o
0 2 10 106.03 106.18 1.63 o
1 2 10 289.24 284.57 2.45 o
2 2 10 72.37 70.24 1.36 o
3 2 10 63.78 63.98 1.36 o
4 2 10 1.08 1.36 0.54 <
5 2 10 0.12 0.27 0.54 <
6 2 10 73.79 77.32 1.36 o
7 2 10 59.86 57.17 1.36 o
8 2 10 87.87 78.95 1.36 o
9 2 10 222.13 226.01 3.00 o
10 2 10 0.19 1.36 0.82 <
-12 3 10 49.95 50.09 1.36 o
-11 3 10 583.57 612.67 5.18 o
-10 3 10 51.39 49.82 1.36 o
-9 3 10 0.60 -0.27 0.82 <
-8 3 10 135.25 141.03 1.63 o
-7 3 10 338.11 349.13 3.27 o
-6 3 10 36.34 37.02 1.36 o
-5 3 10 17.26 18.51 1.09 o
-4 3 10 627.21 651.64 5.45 o
-3 3 10 255.24 260.32 2.72 o
-2 3 10 180.69 181.88 1.91 o
-1 3 10 148.57 154.92 1.91 o
0 3 10 82.42 83.31 1.36 o
1 3 10 26.28 28.31 0.82 o
2 3 10 16.12 18.24 0.82 o
3 3 10 197.24 202.85 1.91 o
4 3 10 49.68 47.91 1.36 o
5 3 10 450.85 466.29 3.54 o
6 3 10 128.47 131.78 1.91 o
7 3 10 1.47 2.72 0.82 o
8 3 10 0.19 0.82 0.82 <
9 3 10 66.09 66.43 1.63 o
-12 4 10 7.38 8.17 0.82 o
-11 4 10 15.46 15.52 0.82 o
-10 4 10 14.72 15.52 0.82 o
-9 4 10 54.60 51.73 1.36 o
-8 4 10 18.00 17.97 0.82 o
-7 4 10 24.42 22.87 0.82 o
-6 4 10 21.42 21.51 0.82 o
-5 4 10 1.48 1.63 0.82 <
-4 4 10 168.35 170.99 2.18 o
-3 4 10 0.41 0.27 0.82 <
-2 4 10 223.72 224.92 2.18 o
-1 4 10 8.54 8.71 0.82 o
0 4 10 42.92 43.83 1.09 o
1 4 10 152.22 149.21 1.63 o
2 4 10 17.88 19.33 0.82 o
3 4 10 329.80 329.24 2.72 o
4 4 10 7.55 8.17 0.82 o
5 4 10 107.02 107.54 1.63 o
6 4 10 54.95 54.99 1.63 o
7 4 10 44.86 43.83 1.36 o
8 4 10 154.24 153.29 2.18 o
9 4 10 0.27 -0.27 0.82 <
-12 5 10 19.87 19.06 0.82 o
-11 5 10 5.46 5.99 0.82 o
-10 5 10 132.63 132.87 1.91 o
-9 5 10 62.48 62.34 1.36 o
-8 5 10 201.64 200.13 2.18 o
-7 5 10 221.44 220.01 2.18 o
-6 5 10 114.78 117.07 1.91 o
-5 5 10 56.69 53.63 1.36 o
-4 5 10 2.09 3.54 0.82 o
-3 5 10 22.01 22.87 0.82 o
-2 5 10 136.31 138.31 1.63 o
-1 5 10 219.77 220.01 2.18 o
0 5 10 259.14 260.05 2.45 o
1 5 10 133.02 136.13 1.63 o
2 5 10 134.90 131.51 1.91 o
3 5 10 60.02 57.17 1.63 o
4 5 10 14.34 15.24 0.82 o
5 5 10 27.31 24.50 1.09 o
6 5 10 137.03 135.86 1.91 o
7 5 10 185.93 186.51 2.18 o
8 5 10 11.15 10.07 0.82 o
9 5 10 14.87 11.71 0.82 o
-12 6 10 77.16 72.69 1.36 o
-11 6 10 34.40 37.84 1.09 o
-10 6 10 403.37 418.06 3.54 o
-9 6 10 205.17 208.30 2.18 o
-8 6 10 23.31 23.41 0.82 o
-7 6 10 10.92 13.61 0.82 o
-6 6 10 141.60 145.66 1.91 o
-5 6 10 222.68 229.54 2.45 o
-4 6 10 112.65 115.98 1.63 o
-3 6 10 727.57 768.60 5.45 o
-2 6 10 35.31 34.85 1.09 o
-1 6 10 0.60 1.63 0.82 <
0 6 10 2.87 4.36 0.82 o
1 6 10 159.43 163.09 2.18 o
2 6 10 20.42 20.15 1.09 o
3 6 10 116.75 119.79 1.91 o
4 6 10 137.13 142.12 1.91 o
5 6 10 47.71 50.91 1.36 o
6 6 10 101.70 102.37 1.63 o
7 6 10 0.04 0.82 0.82 <
8 6 10 0.03 0.82 0.82 <
-12 7 10 42.83 44.92 1.36 o
-11 7 10 0.86 1.91 0.54 o
-10 7 10 0.28 0.00 0.82 <
-9 7 10 12.45 13.34 0.82 o
-8 7 10 50.64 49.00 1.36 o
-7 7 10 2.28 1.36 0.82 <
-6 7 10 147.30 147.57 2.18 o
-5 7 10 47.54 49.55 1.36 o
-4 7 10 12.15 12.25 0.82 o
-3 7 10 170.46 169.08 1.91 o
-2 7 10 13.40 13.61 0.82 o
-1 7 10 184.69 184.88 2.18 o
0 7 10 6.29 7.08 0.82 o
1 7 10 155.26 156.56 2.18 o
2 7 10 7.06 7.62 0.82 o
3 7 10 56.16 56.63 1.36 o
4 7 10 279.39 280.75 2.72 o
5 7 10 1.94 2.72 0.82 o
6 7 10 137.77 139.40 1.91 o
7 7 10 18.58 18.51 0.82 o
8 7 10 63.03 66.70 1.91 o
-12 8 10 0.30 0.54 0.82 <
-11 8 10 66.18 65.88 1.36 o
-10 8 10 32.79 32.94 1.09 o
-9 8 10 341.80 345.05 3.00 o
-8 8 10 57.49 57.44 1.36 o
-7 8 10 159.26 163.91 2.18 o
-6 8 10 67.41 66.70 1.36 o
-5 8 10 42.94 44.37 1.36 o
-4 8 10 104.29 106.72 1.63 o
-3 8 10 48.41 49.00 1.36 o
-2 8 10 306.72 310.72 2.72 o
-1 8 10 93.46 93.65 1.63 o
0 8 10 333.58 337.42 3.27 o
1 8 10 83.07 81.40 1.63 o
2 8 10 34.63 37.30 1.36 o
3 8 10 12.83 11.98 0.82 o
4 8 10 1.02 2.45 0.82 <
5 8 10 109.39 112.99 1.63 o
6 8 10 66.88 67.79 1.36 o
7 8 10 111.21 104.82 1.91 o
-11 9 10 21.36 20.42 1.09 o
-10 9 10 5.32 5.17 0.82 o
-9 9 10 76.97 78.14 1.63 o
-8 9 10 155.41 155.20 1.91 o
-7 9 10 91.48 91.20 1.63 o
-6 9 10 0.04 0.54 0.82 <
-5 9 10 286.18 294.92 2.45 o
-4 9 10 119.00 119.79 1.63 o
-3 9 10 54.81 54.18 1.36 o
-2 9 10 109.99 118.43 1.91 o
-1 9 10 34.41 35.93 1.36 o
0 9 10 78.20 81.67 1.63 o
1 9 10 3.46 4.08 0.82 o
2 9 10 42.36 46.82 1.36 o
3 9 10 20.01 20.15 0.82 o
4 9 10 169.47 173.17 2.18 o
5 9 10 108.32 112.99 1.63 o
6 9 10 0.64 0.00 0.82 <
-11 10 10 75.00 73.51 2.18 o
-10 10 10 6.02 5.44 0.82 o
-9 10 10 5.28 6.81 0.82 o
-8 10 10 37.65 35.94 1.36 o
-7 10 10 5.11 4.63 0.82 o
-6 10 10 0.44 1.36 0.82 <
-5 10 10 195.48 190.60 1.91 o
-4 10 10 35.20 36.48 1.36 o
-3 10 10 102.39 104.00 1.63 o
-2 10 10 105.74 108.36 1.63 o
-1 10 10 39.42 39.47 1.36 o
0 10 10 8.72 8.44 0.82 o
1 10 10 21.40 21.78 0.82 o
2 10 10 345.99 349.13 3.00 o
3 10 10 3.23 3.54 0.82 o
4 10 10 65.63 64.25 1.36 o
5 10 10 146.94 147.58 1.91 o
-10 11 10 47.20 42.20 1.91 o
-9 11 10 187.65 187.07 3.54 o
-8 11 10 167.96 165.00 2.45 o
-7 11 10 53.48 54.45 1.63 o
-6 11 10 36.26 35.66 1.36 o
-5 11 10 0.61 0.00 0.82 <
-4 11 10 23.44 25.05 1.09 o
-3 11 10 125.78 130.69 1.91 o
-2 11 10 190.54 193.59 2.18 o
-1 11 10 210.17 214.02 2.18 o
0 11 10 58.36 54.72 1.36 o
1 11 10 109.41 105.91 1.63 o
2 11 10 24.14 24.50 0.82 o
3 11 10 9.40 10.07 0.82 o
4 11 10 26.74 25.59 1.09 o
-9 12 10 65.76 63.16 1.91 o
-8 12 10 37.95 38.11 1.63 o
-7 12 10 43.00 43.29 1.63 o
-6 12 10 146.35 148.66 1.91 o
-5 12 10 24.13 24.23 0.82 o
-4 12 10 294.79 305.27 3.00 o
-3 12 10 1.80 1.91 0.82 <
-2 12 10 48.25 51.45 1.36 o
-1 12 10 7.25 8.71 0.82 o
0 12 10 29.44 34.03 1.09 o
1 12 10 9.96 9.26 0.82 o
2 12 10 37.97 35.94 1.36 o
3 12 10 46.48 51.18 1.36 o
-8 13 10 14.31 12.79 1.36 o
-7 13 10 139.53 133.14 2.45 o
-6 13 10 102.11 102.37 1.63 o
-5 13 10 4.21 4.90 0.82 o
-4 13 10 232.49 229.55 2.45 o
-3 13 10 0.48 -0.82 0.54 <
-2 13 10 37.77 38.39 1.09 o
-1 13 10 21.58 22.60 0.82 o
0 13 10 148.57 144.58 1.91 o
1 13 10 6.51 7.08 0.82 o
2 13 10 39.74 39.75 1.36 o
-7 14 10 43.44 34.85 3.54 o
-6 14 10 12.23 13.07 1.09 o
-5 14 10 55.00 55.81 1.63 o
-4 14 10 60.69 58.53 1.36 o
-3 14 10 128.02 122.25 1.63 o
-2 14 10 35.61 37.30 1.36 o
-1 14 10 148.61 148.12 2.18 o
0 14 10 51.58 51.73 1.63 o
-1 -12 11 3.14 -0.54 2.18 <
0 -12 11 6.92 12.52 1.63 o
1 -12 11 25.87 28.58 1.63 o
2 -12 11 45.55 45.74 1.91 o
3 -12 11 16.87 17.97 1.91 o
-3 -11 11 27.55 26.41 2.72 o
-2 -11 11 7.01 6.26 2.18 <
-1 -11 11 55.01 58.80 2.45 o
0 -11 11 256.97 254.89 3.00 o
1 -11 11 90.19 92.02 1.91 o
2 -11 11 108.57 109.72 1.91 o
3 -11 11 259.74 262.79 3.00 o
4 -11 11 25.87 28.58 1.36 o
5 -11 11 0.32 2.72 1.09 <
-4 -10 11 36.45 34.30 2.45 o
-3 -10 11 20.07 18.24 1.63 o
-2 -10 11 138.68 132.32 2.18 o
-1 -10 11 3.85 4.90 0.82 o
0 -10 11 3.07 4.36 0.82 o
1 -10 11 4.38 6.81 0.82 o
2 -10 11 0.83 0.27 0.82 <
3 -10 11 87.02 89.57 1.36 o
4 -10 11 23.15 24.77 0.82 o
5 -10 11 25.93 27.77 1.09 o
6 -10 11 0.04 1.63 0.82 <
-5 -9 11 43.59 43.56 2.18 o
-4 -9 11 374.14 379.67 7.35 o
-3 -9 11 40.45 40.29 1.63 o
-2 -9 11 1.74 1.91 0.82 <
-1 -9 11 71.62 76.23 1.63 o
0 -9 11 70.54 74.32 1.63 o
1 -9 11 1.16 1.63 0.82 <
2 -9 11 19.31 19.06 0.82 o
3 -9 11 71.21 70.24 1.36 o
4 -9 11 39.94 41.38 1.09 o
5 -9 11 113.14 111.63 1.63 o
6 -9 11 120.20 117.08 1.91 o
7 -9 11 1.11 -1.09 1.91 <
-6 -8 11 165.69 160.38 3.27 o
-5 -8 11 17.35 18.78 1.63 o
-4 -8 11 0.96 1.63 0.82 <
-3 -8 11 42.67 41.11 1.36 o
-2 -8 11 232.04 230.37 2.72 o
-1 -8 11 42.27 46.55 1.63 o
0 -8 11 101.55 106.45 1.63 o
1 -8 11 342.01 351.31 3.27 o
2 -8 11 11.22 11.43 0.82 o
3 -8 11 45.31 47.64 1.36 o
4 -8 11 100.91 101.55 1.63 o
5 -8 11 164.45 169.09 1.91 o
6 -8 11 7.18 7.62 0.82 o
7 -8 11 91.18 90.94 1.63 o
-7 -7 11 8.99 11.16 1.63 o
-6 -7 11 55.08 58.53 2.18 o
-5 -7 11 5.62 6.81 0.82 o
-4 -7 11 38.48 35.94 1.63 o
-3 -7 11 19.15 19.60 1.09 o
-2 -7 11 0.16 1.36 0.82 <
-1 -7 11 35.25 34.57 1.36 o
0 -7 11 26.38 26.68 1.09 o
1 -7 11 85.93 87.94 1.63 o
2 -7 11 0.51 1.36 0.82 <
3 -7 11 7.65 7.35 0.82 o
4 -7 11 9.86 9.53 0.82 o
5 -7 11 25.61 27.22 0.82 o
6 -7 11 31.09 31.85 1.09 o
7 -7 11 32.85 32.12 1.36 o
8 -7 11 13.78 11.71 1.36 o
-8 -6 11 5.00 4.08 1.63 <
-7 -6 11 21.16 20.42 1.63 o
-6 -6 11 241.86 245.62 3.00 o
-5 -6 11 146.52 152.20 2.18 o
-4 -6 11 115.09 114.89 1.91 o
-3 -6 11 361.70 374.19 3.81 o
-2 -6 11 26.97 28.04 1.09 o
-1 -6 11 2.16 0.54 0.82 <
0 -6 11 8.94 8.98 0.82 o
1 -6 11 209.73 218.38 2.45 o
2 -6 11 56.98 61.25 1.36 o
3 -6 11 307.55 324.88 3.00 o
4 -6 11 150.48 152.74 1.91 o
5 -6 11 3.30 3.27 0.82 o
6 -6 11 16.56 16.33 0.82 o
7 -6 11 0.15 1.09 0.82 <
8 -6 11 34.85 35.94 1.91 o
-8 -5 11 84.07 80.04 2.99 o
-7 -5 11 120.93 115.99 1.91 o
-6 -5 11 31.25 32.94 1.36 o
-5 -5 11 107.69 103.19 1.63 o
-4 -5 11 68.84 68.88 1.63 o
-3 -5 11 6.32 7.08 0.82 o
-2 -5 11 23.60 24.77 1.09 o
-1 -5 11 293.83 294.92 3.00 o
0 -5 11 62.90 60.17 1.36 o
1 -5 11 170.25 174.26 2.18 o
2 -5 11 308.37 315.07 3.00 o
3 -5 11 46.61 48.73 1.36 o
4 -5 11 0.60 1.36 0.82 <
5 -5 11 21.04 22.05 1.09 o
6 -5 11 382.02 388.10 3.54 o
7 -5 11 2.07 2.72 0.82 o
8 -5 11 92.67 88.48 2.45 o
-9 -4 11 22.55 23.41 1.91 o
-8 -4 11 85.46 80.86 1.91 o
-7 -4 11 7.64 8.44 1.09 o
-6 -4 11 28.48 31.31 1.09 o
-5 -4 11 12.42 12.79 0.82 o
-4 -4 11 1.05 1.09 0.82 <
-3 -4 11 172.89 176.98 2.18 o
-2 -4 11 14.26 14.43 1.09 o
-1 -4 11 42.87 46.01 1.36 o
0 -4 11 9.60 9.53 0.82 o
1 -4 11 27.56 26.95 1.09 o
2 -4 11 69.15 71.87 1.36 o
3 -4 11 0.38 -0.27 0.82 <
4 -4 11 33.47 33.48 1.09 o
5 -4 11 24.73 28.58 1.09 o
6 -4 11 1.85 1.63 0.82 <
7 -4 11 11.41 8.71 1.09 o
8 -4 11 79.11 74.87 2.18 o
-9 -3 11 121.63 123.07 2.99 o
-8 -3 11 155.34 157.38 2.45 o
-7 -3 11 48.67 50.91 1.63 o
-6 -3 11 131.21 134.77 1.91 o
-5 -3 11 635.88 665.80 5.45 o
-4 -3 11 133.42 132.32 1.91 o
-3 -3 11 11.09 11.43 0.82 o
-2 -3 11 51.90 51.45 1.36 o
-1 -3 11 133.76 135.04 1.63 o
0 -3 11 0.41 1.36 0.82 <
1 -3 11 42.70 45.46 1.36 o
2 -3 11 195.21 198.77 2.18 o
3 -3 11 108.84 110.26 1.91 o
4 -3 11 267.53 274.21 2.72 o
5 -3 11 99.68 96.38 1.63 o
6 -3 11 1.38 1.36 0.82 <
7 -3 11 6.64 5.17 1.09 o
8 -3 11 94.52 100.19 2.45 o
-10 -2 11 55.77 53.90 2.45 o
-9 -2 11 108.41 109.99 1.91 o
-8 -2 11 39.35 38.66 1.63 o
-7 -2 11 102.50 100.46 1.63 o
-6 -2 11 3.50 4.63 0.82 o
-5 -2 11 5.71 7.35 0.82 o
-4 -2 11 8.26 8.98 0.82 o
-3 -2 11 251.31 252.15 3.00 o
-2 -2 11 18.80 19.87 0.82 o
-1 -2 11 85.65 86.85 1.63 o
0 -2 11 269.27 273.12 2.72 o
1 -2 11 0.44 1.09 0.82 <
2 -2 11 104.72 105.36 1.91 o
3 -2 11 44.44 44.10 1.36 o
4 -2 11 168.85 171.81 2.18 o
5 -2 11 0.21 1.36 0.82 <
6 -2 11 86.67 87.67 1.63 o
7 -2 11 311.73 305.01 4.08 o
8 -2 11 3.88 2.99 1.09 <
-10 -1 11 10.38 11.43 1.09 o
-9 -1 11 26.02 26.13 1.09 o
-8 -1 11 87.48 87.94 1.91 o
-7 -1 11 78.71 77.05 1.63 o
-6 -1 11 27.03 27.50 1.09 o
-5 -1 11 17.69 17.15 1.09 o
-4 -1 11 8.06 7.35 0.82 o
-3 -1 11 18.73 17.69 1.09 o
-2 -1 11 98.89 97.74 1.63 o
-1 -1 11 114.33 113.53 1.91 o
0 -1 11 147.34 147.03 1.91 o
1 -1 11 55.18 54.72 1.63 o
2 -1 11 1.74 3.27 0.82 o
3 -1 11 10.54 12.52 0.82 o
4 -1 11 0.11 0.27 0.82 <
5 -1 11 103.57 104.27 1.63 o
6 -1 11 99.98 99.37 2.18 o
7 -1 11 22.79 22.32 1.09 o
8 -1 11 0.51 0.27 1.09 <
-10 0 11 182.18 179.71 2.18 o
-9 0 11 3.86 4.63 0.82 o
-8 0 11 3.83 3.27 0.82 o
-7 0 11 278.04 285.11 3.00 o
-6 0 11 225.82 233.63 2.72 o
-5 0 11 128.10 130.41 1.91 o
-4 0 11 445.56 469.01 4.36 o
-3 0 11 49.47 48.19 1.63 o
-2 0 11 10.01 9.26 0.82 o
-1 0 11 0.09 0.27 0.82 <
0 0 11 301.95 313.17 3.00 o
1 0 11 135.97 138.58 2.18 o
2 0 11 340.75 352.12 3.54 o
3 0 11 152.71 153.56 1.91 o
4 0 11 3.44 3.27 0.82 o
5 0 11 32.20 32.67 1.09 o
6 0 11 2.62 2.99 0.82 o
7 0 11 79.12 79.50 1.91 o
8 0 11 0.54 -0.82 1.09 <
-10 1 11 0.05 -0.27 0.82 <
-9 1 11 34.10 32.12 1.09 o
-8 1 11 47.64 46.55 1.36 o
-7 1 11 52.23 49.82 1.36 o
-6 1 11 14.00 12.52 0.82 o
-5 1 11 69.55 69.97 1.36 o
-4 1 11 8.53 9.53 0.82 o
-3 1 11 7.55 6.81 0.82 o
-2 1 11 191.80 190.05 2.18 o
-1 1 11 13.65 13.07 0.82 o
0 1 11 189.04 189.51 2.18 o
1 1 11 132.74 132.59 1.91 o
2 1 11 70.12 68.88 1.63 o
3 1 11 37.20 34.85 1.09 o
4 1 11 3.23 3.27 0.82 o
5 1 11 284.88 285.39 2.72 o
6 1 11 2.91 2.18 0.82 <
7 1 11 115.05 115.17 2.18 o
8 1 11 47.13 43.83 2.72 o
-10 2 11 129.73 125.79 1.91 o
-9 2 11 106.80 104.55 1.63 o
-8 2 11 70.72 69.69 1.36 o
-7 2 11 57.45 56.63 1.36 o
-6 2 11 0.13 0.82 0.82 <
-5 2 11 32.22 33.76 1.09 o
-4 2 11 153.85 157.37 2.18 o
-3 2 11 112.79 114.08 1.91 o
-2 2 11 99.81 99.92 1.91 o
-1 2 11 118.37 117.07 1.63 o
0 2 11 75.64 76.50 1.63 o
1 2 11 18.52 18.78 0.82 o
2 2 11 15.64 14.16 0.82 o
3 2 11 32.55 31.03 0.82 o
4 2 11 82.10 82.22 1.63 o
5 2 11 39.77 37.84 1.36 o
6 2 11 76.58 69.15 1.63 o
7 2 11 180.47 172.36 2.45 o
-10 3 11 103.10 108.63 1.63 o
-9 3 11 148.15 145.67 1.91 o
-8 3 11 66.71 64.79 1.36 o
-7 3 11 141.11 146.21 1.63 o
-6 3 11 560.01 578.85 4.36 o
-5 3 11 158.88 160.10 1.91 o
-4 3 11 1.68 1.91 0.82 <
-3 3 11 37.71 38.39 1.36 o
-2 3 11 116.58 118.98 1.91 o
-1 3 11 2.58 3.81 0.82 o
0 3 11 43.02 44.37 1.36 o
1 3 11 174.24 180.52 1.91 o
2 3 11 136.57 138.31 1.63 o
3 3 11 223.27 219.47 2.18 o
4 3 11 72.35 72.96 1.36 o
5 3 11 0.39 2.18 0.82 <
6 3 11 1.01 2.45 0.82 <
7 3 11 93.28 94.75 2.45 o
-10 4 11 18.57 19.60 1.09 o
-9 4 11 48.83 48.73 1.36 o
-8 4 11 11.47 11.71 0.82 o
-7 4 11 0.83 2.18 0.54 o
-6 4 11 40.15 41.92 1.09 o
-5 4 11 8.08 10.34 0.82 o
-4 4 11 186.85 184.88 2.18 o
-3 4 11 9.68 9.80 0.82 o
-2 4 11 79.31 80.04 1.63 o
-1 4 11 50.51 51.45 1.36 o
0 4 11 4.12 5.99 0.82 o
1 4 11 209.51 209.93 2.18 o
2 4 11 8.73 9.80 0.82 o
3 4 11 142.79 141.04 1.91 o
4 4 11 31.95 33.76 1.36 o
5 4 11 46.90 49.55 1.36 o
6 4 11 110.07 102.92 1.91 o
7 4 11 0.99 1.09 1.36 <
-10 5 11 43.54 40.29 1.36 o
-9 5 11 164.88 163.64 2.18 o
-8 5 11 62.29 62.62 1.36 o
-7 5 11 110.52 107.82 1.63 o
-6 5 11 13.86 13.34 0.82 o
-5 5 11 70.05 74.32 1.63 o
-4 5 11 29.57 28.86 1.09 o
-3 5 11 152.94 151.65 1.91 o
-2 5 11 173.73 172.62 1.91 o
-1 5 11 150.33 154.92 1.91 o
0 5 11 142.78 139.40 1.63 o
1 5 11 7.55 8.17 0.82 o
2 5 11 72.99 77.05 1.63 o
3 5 11 9.65 8.71 0.82 o
4 5 11 171.78 165.27 2.18 o
5 5 11 124.29 120.89 1.63 o
6 5 11 20.53 20.42 1.09 o
-10 6 11 16.51 15.79 1.09 o
-9 6 11 7.14 8.17 0.82 o
-8 6 11 180.48 181.07 1.91 o
-7 6 11 209.78 208.30 2.18 o
-6 6 11 68.55 68.61 1.36 o
-5 6 11 303.23 318.89 3.27 o
-4 6 11 26.08 26.13 1.09 o
-3 6 11 0.88 1.63 0.82 <
-2 6 11 0.83 1.91 0.82 <
-1 6 11 178.72 185.97 1.91 o
0 6 11 123.37 126.06 1.91 o
1 6 11 226.46 229.82 2.45 o
2 6 11 97.34 99.65 1.63 o
3 6 11 1.71 3.81 0.82 o
4 6 11 3.70 3.81 0.82 o
5 6 11 2.02 1.63 0.82 <
6 6 11 27.26 25.59 1.63 o
-10 7 11 1.41 -0.27 1.63 <
-9 7 11 1.90 0.54 0.82 <
-8 7 11 89.51 86.30 1.36 o
-7 7 11 21.35 21.78 0.82 o
-6 7 11 22.24 21.78 0.82 o
-5 7 11 81.09 77.59 1.63 o
-4 7 11 5.07 4.90 0.82 o
-3 7 11 70.89 67.52 1.36 o
-2 7 11 0.91 1.63 0.82 <
-1 7 11 173.81 172.90 2.18 o
0 7 11 4.68 4.08 0.82 o
1 7 11 54.76 54.72 1.36 o
2 7 11 181.88 181.88 2.18 o
3 7 11 0.66 0.54 0.82 <
4 7 11 114.22 116.80 1.63 o
5 7 11 12.91 12.79 1.09 o
-9 8 11 95.32 86.85 2.18 o
-8 8 11 53.24 52.54 1.36 o
-7 8 11 7.35 8.71 0.82 o
-6 8 11 50.63 49.28 1.36 o
-5 8 11 141.69 140.49 1.91 o
-4 8 11 143.94 142.67 1.91 o
-3 8 11 80.96 78.41 1.63 o
-2 8 11 164.38 160.64 1.91 o
-1 8 11 76.05 75.68 1.63 o
0 8 11 3.39 3.81 0.82 o
1 8 11 29.72 29.67 1.09 o
2 8 11 39.56 38.66 1.09 o
3 8 11 102.70 104.28 1.63 o
4 8 11 41.54 37.02 1.36 o
-8 9 11 44.54 41.65 1.63 o
-7 9 11 270.47 275.32 3.27 o
-6 9 11 58.01 57.99 1.63 o
-5 9 11 5.67 7.08 0.82 o
-4 9 11 43.21 42.47 1.36 o
-3 9 11 53.97 52.81 1.36 o
-2 9 11 20.10 22.60 0.82 o
-1 9 11 14.43 14.70 0.82 o
0 9 11 44.61 45.46 1.09 o
1 9 11 60.16 60.98 1.36 o
2 9 11 61.96 59.62 1.36 o
3 9 11 76.58 76.50 1.63 o
-8 10 11 0.45 1.36 1.36 <
-7 10 11 91.25 79.50 1.91 o
-6 10 11 39.17 42.20 1.63 o
-5 10 11 73.95 74.32 2.18 o
-4 10 11 64.36 61.26 1.91 o
-3 10 11 75.84 73.24 1.63 o
-2 10 11 1.45 1.63 0.82 <
-1 10 11 5.06 6.81 0.82 o
0 10 11 272.14 275.32 2.72 o
1 10 11 0.08 0.82 0.82 <
2 10 11 66.83 65.34 1.36 o
-7 11 11 13.97 11.16 1.63 o
-6 11 11 53.46 52.82 1.91 o
-5 11 11 27.05 29.67 1.36 o
-4 11 11 132.26 132.05 2.45 o
-3 11 11 148.57 141.04 2.18 o
-2 11 11 73.05 66.43 1.36 o
-1 11 11 108.82 103.46 1.63 o
0 11 11 0.07 0.27 0.82 <
1 11 11 50.04 43.83 2.18 o
-4 12 11 28.10 27.77 1.63 o
-3 12 11 18.44 18.78 1.09 o
-2 12 11 44.30 37.03 2.72 o
-1 -8 12 220.40 209.96 4.90 o
0 -8 12 2.83 3.54 0.82 o
1 -8 12 27.56 27.22 1.36 o
2 -8 12 52.38 50.37 1.63 o
-3 -7 12 23.46 23.41 1.91 o
-2 -7 12 22.13 20.42 1.09 o
-1 -7 12 26.82 25.86 1.09 o
0 -7 12 0.17 -0.54 0.82 <
1 -7 12 23.65 24.23 1.09 o
2 -7 12 16.68 17.69 0.82 o
3 -7 12 7.58 10.34 0.82 o
-4 -6 12 103.85 93.93 2.99 o
-3 -6 12 3.53 4.36 0.82 o
-2 -6 12 1.21 1.09 0.82 <
-1 -6 12 84.57 83.58 1.63 o
0 -6 12 97.50 102.64 1.63 o
1 -6 12 181.80 185.70 2.45 o
2 -6 12 190.24 197.14 2.18 o
3 -6 12 7.49 7.89 0.82 o
4 -6 12 9.35 8.44 0.82 o
-5 -5 12 26.62 28.86 2.18 o
-4 -5 12 38.35 39.20 1.63 o
-3 -5 12 276.86 272.05 3.00 o
-2 -5 12 24.11 22.60 1.09 o
-1 -5 12 42.61 42.74 1.36 o
0 -5 12 117.90 119.52 1.91 o
1 -5 12 61.94 62.62 1.36 o
2 -5 12 0.47 1.63 0.54 o
3 -5 12 23.35 24.77 0.82 o
4 -5 12 355.25 346.45 3.54 o
5 -5 12 5.63 3.27 1.63 <
-6 -4 12 0.15 0.54 1.36 <
-5 -4 12 70.52 67.79 1.63 o
-4 -4 12 43.31 44.92 1.36 o
-3 -4 12 41.60 40.56 1.36 o
-2 -4 12 19.34 18.51 0.82 o
-1 -4 12 0.86 0.54 0.82 <
0 -4 12 46.04 46.01 1.36 o
1 -4 12 1.54 2.45 0.82 <
2 -4 12 30.50 29.40 1.09 o
3 -4 12 45.91 43.83 1.36 o
4 -4 12 20.53 20.96 0.82 o
5 -4 12 15.25 11.98 1.09 o
-6 -3 12 65.08 62.89 1.63 o
-5 -3 12 15.57 14.43 1.09 o
-4 -3 12 15.59 16.88 0.82 o
-3 -3 12 128.23 132.59 1.91 o
-2 -3 12 66.69 71.87 1.63 o
-1 -3 12 63.31 63.98 1.36 o
0 -3 12 206.40 211.30 2.45 o
1 -3 12 15.00 17.15 0.82 o
2 -3 12 150.93 151.93 1.91 o
3 -3 12 19.11 20.69 0.82 o
4 -3 12 71.58 70.24 1.36 o
5 -3 12 0.62 0.00 1.09 <
-7 -2 12 9.76 10.34 2.18 o
-6 -2 12 3.61 3.54 0.82 o
-5 -2 12 159.61 155.20 1.91 o
-4 -2 12 55.82 57.44 1.36 o
-3 -2 12 39.70 41.65 1.36 o
-2 -2 12 163.75 161.19 2.18 o
-1 -2 12 16.05 17.15 0.82 o
0 -2 12 74.06 72.96 1.36 o
1 -2 12 15.84 15.79 0.82 o
2 -2 12 151.10 149.75 1.91 o
3 -2 12 7.91 7.89 0.82 o
4 -2 12 83.93 80.86 1.63 o
5 -2 12 256.40 252.99 5.17 o
-7 -1 12 14.75 13.34 1.09 o
-6 -1 12 11.57 13.07 0.82 o
-5 -1 12 70.55 71.87 1.36 o
-4 -1 12 95.57 93.66 1.63 o
-3 -1 12 86.14 85.21 1.63 o
-2 -1 12 28.29 26.95 1.09 o
-1 -1 12 22.92 24.23 1.09 o
0 -1 12 7.40 7.62 0.82 o
1 -1 12 2.41 3.81 0.82 o
2 -1 12 3.18 1.91 0.54 o
3 -1 12 91.36 86.03 1.36 o
4 -1 12 109.14 107.54 2.18 o
5 -1 12 17.66 16.88 1.63 o
-7 0 12 18.41 19.87 1.09 o
-6 0 12 225.69 229.01 2.72 o
-5 0 12 155.96 160.64 1.91 o
-4 0 12 6.40 6.81 0.82 o
-3 0 12 14.26 15.24 0.82 o
-2 0 12 112.38 114.08 1.63 o
-1 0 12 179.42 178.89 2.18 o
0 0 12 200.55 202.31 2.45 o
1 0 12 196.88 204.76 2.45 o
2 0 12 9.39 8.71 0.82 o
3 0 12 14.75 14.70 0.82 o
4 0 12 43.56 45.46 2.18 o
5 0 12 47.40 50.37 2.45 o
-7 1 12 32.65 32.67 1.36 o
-6 1 12 0.64 1.09 0.82 <
-5 1 12 25.37 28.58 1.09 o
-4 1 12 152.89 149.21 1.91 o
-3 1 12 4.01 5.17 0.82 o
-2 1 12 70.40 69.70 1.36 o
-1 1 12 39.69 39.20 1.36 o
0 1 12 72.84 72.69 1.63 o
1 1 12 34.74 35.12 1.36 o
2 1 12 7.12 7.89 0.82 o
3 1 12 228.27 223.84 3.27 o
4 1 12 0.24 0.54 1.09 <
5 1 12 102.68 95.84 2.99 o
-7 2 12 12.97 13.61 0.82 o
-6 2 12 79.15 77.32 1.36 o
-5 2 12 162.22 163.91 1.91 o
-4 2 12 65.94 68.61 1.36 o
-3 2 12 121.68 120.61 1.63 o
-2 2 12 6.28 6.26 0.82 o
-1 2 12 5.81 6.81 0.82 o
0 2 12 3.13 3.27 0.82 o
1 2 12 37.90 38.11 1.36 o
2 2 12 113.04 113.53 2.18 o
3 2 12 56.62 54.99 1.63 o
4 2 12 89.48 80.86 2.45 o
-7 3 12 76.90 78.68 1.63 o
-6 3 12 5.46 4.63 0.82 o
-5 3 12 7.56 7.08 0.82 o
-4 3 12 103.32 105.91 1.63 o
-3 3 12 87.04 89.57 1.63 o
-2 3 12 51.74 51.45 1.63 o
-1 3 12 191.79 200.95 2.45 o
0 3 12 21.89 21.23 1.09 o
1 3 12 123.69 118.98 2.18 o
2 3 12 8.82 9.80 1.09 o
3 3 12 57.55 57.17 2.18 o
4 3 12 5.75 9.26 1.36 o
-7 4 12 3.95 4.08 0.82 o
-6 4 12 91.96 89.03 1.63 o
-5 4 12 1.07 1.91 0.82 <
-4 4 12 55.07 54.72 1.36 o
-3 4 12 26.41 26.68 0.82 o
-2 4 12 11.58 12.25 0.82 o
-1 4 12 163.47 157.92 1.91 o
0 4 12 1.24 0.54 1.09 <
1 4 12 115.35 114.35 2.18 o
2 4 12 5.37 5.17 1.09 o
3 4 12 69.97 77.59 2.45 o
-7 5 12 61.10 59.35 2.72 o
-6 5 12 73.82 69.42 1.36 o
-5 5 12 163.99 157.65 1.91 o
-4 5 12 117.53 114.35 1.63 o
-3 5 12 20.39 21.23 1.09 o
-2 5 12 65.54 64.25 1.63 o
-1 5 12 3.24 4.08 1.09 o
0 5 12 39.62 37.57 1.91 o
1 5 12 14.99 13.07 1.09 o
2 5 12 172.66 164.19 3.54 o
3 5 12 127.46 115.72 3.00 o
-6 6 12 104.12 96.65 3.27 o
-5 6 12 1.30 2.72 1.09 <
-4 6 12 4.39 5.72 0.82 o
-3 6 12 54.12 50.91 1.63 o
-2 6 12 140.62 139.95 2.18 o
-1 6 12 122.22 115.71 2.18 o
0 6 12 145.54 152.20 2.45 o
1 6 12 4.74 4.08 1.09 o
2 6 12 0.43 -0.54 1.36 <
-5 7 12 37.78 31.58 1.91 o
-4 7 12 0.36 -0.54 1.09 <
-3 7 12 92.64 89.30 2.18 o
-2 7 12 0.10 0.54 0.82 <
-1 7 12 47.11 50.36 1.91 o
0 7 12 146.16 134.24 2.72 o
1 7 12 4.24 6.81 2.18 o
-4 8 12 146.05 133.69 3.00 o
-3 8 12 4.84 6.81 1.36 o
-2 8 12 0.02 1.91 1.36 <
