#------------------------------------------------------------------------------
#$Date: 2015-08-05 20:11:35 +0300 (Wed, 05 Aug 2015) $
#$Revision: 152786 $
#$URL: svn://www.crystallography.net/cod/cif/4/51/32/4513224.cif $
#------------------------------------------------------------------------------
#
# This file is available in the Crystallography Open Database (COD),
# http://www.crystallography.net/
#
# All data on this site have been placed in the public domain by the
# contributors.
#
data_4513224
loop_
_publ_author_name
'Fukuda, Koichiro'
'Asaka, Toru'
'Hara, Shinji'
'Berghout, Abid'
'B\'echade, Emilie'
'Masson, Olivier'
'Jouin, Jenny'
'Thomas, Philippe'
_publ_section_title
;
 Crystal Structure and Oxide-Ion Conductivity of Highly Grain-Aligned
 Polycrystalline Lanthanum Germanate Oxyapatite Grown by Reactive
 Diffusion between Solid La2GeO5and Gases [GeO + 1/2O2]
;
_journal_issue                   7
_journal_name_full               'Crystal Growth &amp; Design'
_journal_page_first              3435
_journal_paper_doi               10.1021/acs.cgd.5b00509
_journal_volume                  15
_journal_year                    2015
_chemical_formula_moiety         'Ge6 La9.68 O26.51'
_chemical_formula_sum            'Ge6 La9.68 O26.51'
_chemical_formula_weight         2203.82
_chemical_name_systematic        ' ?'
_space_group_IT_number           1
_symmetry_cell_setting           triclinic
_symmetry_Int_Tables_number      1
_symmetry_space_group_name_Hall  'P 1'
_symmetry_space_group_name_H-M   'P 1'
_cell_angle_alpha                89.46(1)
_cell_angle_beta                 89.944(1)
_cell_angle_gamma                60.09(1)
_cell_formula_units_Z            1
_cell_length_a                   9.8949(7)
_cell_length_b                   9.9056(7)
_cell_length_c                   7.2865(5)
_cell_measurement_temperature    293
_cell_volume                     619.03(10)
_diffrn_ambient_temperature      293
_diffrn_measured_fraction_theta_full 0.98
_diffrn_measured_fraction_theta_max 0.95
_diffrn_radiation_probe          x-ray
_diffrn_radiation_source         'X-ray tube'
_diffrn_radiation_type           'Mo K\a'
_diffrn_radiation_wavelength     0.71073
_diffrn_reflns_av_R_equivalents  0.0163
_diffrn_reflns_av_unetI/netI     0.0417
_diffrn_reflns_limit_h_max       16
_diffrn_reflns_limit_h_min       -16
_diffrn_reflns_limit_k_max       16
_diffrn_reflns_limit_k_min       -16
_diffrn_reflns_limit_l_max       12
_diffrn_reflns_limit_l_min       -12
_diffrn_reflns_number            15240
_diffrn_reflns_theta_full        36.32
_diffrn_reflns_theta_max         36.97
_diffrn_reflns_theta_min         2.37
_exptl_absorpt_coefficient_mu    23.547
_exptl_absorpt_correction_T_max  0.790
_exptl_absorpt_correction_T_min  0.754
_exptl_absorpt_correction_type   multi-scan
_exptl_absorpt_process_details   '(SADABS; Sheldrick, 1996)'
_exptl_crystal_colour            colourless
_exptl_crystal_density_diffrn    5.912
_exptl_crystal_description       prism
_exptl_crystal_F_000             955.6
_exptl_crystal_size_max          0.040
_exptl_crystal_size_mid          0.010
_exptl_crystal_size_min          0.010
_refine_diff_density_max         1.22
_refine_diff_density_min         -1.85
_refine_ls_abs_structure_details
'  3437 of Friedel pairs used in the refinement'
_refine_ls_extinction_coef       123(15)
_refine_ls_extinction_method
'B-C type 1 Gaussian isotropic (Becker & Coppens, 1974)'
_refine_ls_goodness_of_fit_gt    1.66
_refine_ls_goodness_of_fit_ref   1.60
_refine_ls_number_constraints    16
_refine_ls_number_parameters     328
_refine_ls_number_reflns         6977
_refine_ls_number_restraints     0
_refine_ls_R_factor_all          0.0382
_refine_ls_R_factor_gt           0.0298
_refine_ls_shift/su_max          0.0462
_refine_ls_shift/su_mean         0.0027
_refine_ls_structure_factor_coef F
_refine_ls_weighting_details     w=1/(\s^2^(F)+0.0001F^2^)
_refine_ls_weighting_scheme      sigma
_refine_ls_wR_factor_gt          0.0333
_refine_ls_wR_factor_ref         0.0346
_reflns_number_gt                6072
_reflns_number_total             12548
_reflns_threshold_expression     I>3\s(I)
_cod_data_source_file            cg5b00509_si_002.cif
_cod_data_source_block           I
_cod_depositor_comments
;
The following automatic conversions were performed:

'_diffrn_radiation_probe' value 'X-ray' changed to 'x-ray' according
to
/usr/data/users/saulius/crontab/automatic-downloads/rss-feeds/ACS/lib/dictionaries/cif_core.dic
dictionary named 'cif_core.dic' version 2.4.2 from 2011-04-26.

Automatic conversion script
Id: cif_fix_values 3271 2015-04-21 07:52:19Z andrius 

 Adding full bibliography for 4513224.cif.
;
_cod_database_code               4513224
loop_
_space_group_symop_id
_space_group_symop_operation_xyz
1 x,y,z
loop_
_atom_site_label
_atom_site_type_symbol
_atom_site_fract_x
_atom_site_fract_y
_atom_site_fract_z
_atom_site_adp_type
_atom_site_U_iso_or_equiv
_atom_site_site_symmetry_multiplicity
_atom_site_occupancy
_atom_site_calc_flag
La1 La 0.3462(3) 0.3209(4) 0.0248(4) Uani 0.0349(8) 1 0.833(3) d
La2 La 0.6725(3) 0.6581(4) 0.5252(4) Uani 0.0424(7) 1 0.842(3) d
La3 La 0.3250(2) 0.3429(2) 0.5272(3) Uani 0.0166(4) 1 1 d
La4 La 0.6579(2) 0.6761(2) 0.0273(3) Uani 0.0160(4) 1 1 d
La5 La 0.23784(13) 0.77177(13) 0.27976(16) Uani 0.0168(4) 1 1 d
La6 La 0.98420(12) 0.24092(13) 0.27740(15) Uani 0.0132(3) 1 1 d
La7 La 0.00854(13) 0.76249(13) 0.77300(15) Uani 0.0138(3) 1 1 d
La8 La 0.22279(13) 0.01448(13) 0.78140(15) Uani 0.0163(3) 1 1 d
La9 La 0.76890(12) 0.98980(13) 0.26760(15) Uani 0.0122(3) 1 1 d
La10 La 0.75472(12) 0.23211(12) 0.77073(15) Uani 0.0124(3) 1 1 d
Ge1 Ge 0.39613(19) 0.62889(19) 0.7783(3) Uani 0.0108(6) 1 1 d
Ge2 Ge 0.02232(19) 0.60173(19) 0.2708(3) Uani 0.0124(6) 1 1 d
Ge3 Ge 0.6235(2) 0.9740(2) 0.7680(3) Uani 0.0157(7) 1 1 d
Ge4 Ge 0.96865(19) 0.4029(2) 0.7803(3) Uani 0.0114(6) 1 1 d
Ge5 Ge 0.36993(19) 0.02897(19) 0.2851(2) Uani 0.0098(6) 1 1 d
Ge6 Ge 0.5957(2) 0.3755(2) 0.2735(3) Uani 0.0147(6) 1 1 d
O1 O 0.9977(10) 0.0010(10) 0.7525(14) Uiso 0.0260(18) 1 1 d
O2 O 0.3039(11) 0.5207(12) 0.8003(14) Uiso 0.020(2) 1 1 d
O3 O 0.6766(12) 0.4993(12) 0.2753(15) Uiso 0.024(2) 1 1 d
O4 O 0.6452(14) 0.2493(13) 0.0834(16) Uiso 0.022(2) 1 1 d
O5 O 0.3982(14) 0.4803(14) 0.2860(16) Uiso 0.033(3) 1 1 d
O6 O 0.0938(15) 0.6417(15) 0.4822(18) Uiso 0.034(3) 1 1 d
O7 O 0.5199(12) 0.8721(12) 0.7676(15) Uiso 0.018(2) 1 1 d
O8 O 0.1251(12) 0.3953(11) 0.2512(14) Uiso 0.015(2) 1 1 d
O9 O 0.8701(15) 0.5989(14) 0.7808(17) Uiso 0.031(3) 1 1 d
O10 O 0.7502(14) 0.9048(14) 0.5842(16) Uiso 0.026(3) 1 1 d
O11 O 0.0840(15) 0.6775(16) 0.0911(17) Uiso 0.035(3) 1 1 d
O12 O 0 0 0.25 Uiso 0.026(2) 1 1 d
O13 O 0.1695(11) 0.3113(12) 0.7920(14) Uiso 0.016(2) 1 1 d
O14 O 0.4811(17) 0.8294(15) 0.2955(19) Uiso 0.032(3) 1 1 d
O15 O 0.4714(14) 0.1273(14) 0.3052(17) Uiso 0.027(3) 1 1 d
O16 O 0.2538(16) 0.0929(16) 0.090(2) Uiso 0.037(3) 1 1 d
O17 O 0.6025(11) 0.5308(10) 0.7915(13) Uiso 0.0143(18) 1 1 d
O18a O 0.360(2) 0.7406(18) 0.977(2) Uiso 0.015(3) 1 0.68(3) d
O18b O 0.296(4) 0.767(3) 0.961(3) Uiso 0.015(3) 1 0.32(3) d
O19a O 0.6332(17) 0.2605(15) 0.4687(18) Uiso 0.006(2) 1 0.55(2) d
O19b O 0.708(3) 0.2317(19) 0.439(2) Uiso 0.006(2) 1 0.45(2) d
O20a O 0.495(3) 0.1768(15) 0.769(2) Uiso 0.006(2) 1 0.64(6) d
O20b O 0.535(4) 0.176(3) 0.753(3) Uiso 0.006(2) 1 0.36(6) d
O21a O 0.8142(19) 0.669(3) 0.277(3) Uiso 0.014(3) 1 0.60(10) d
O21b O 0.820(3) 0.700(5) 0.296(5) Uiso 0.014(3) 1 0.40(10) d
O22a O 0.8940(13) 0.3628(14) 0.5863(15) Uiso 0.003(2) 1 0.750(17) d
O22b O 0.932(3) 0.296(3) 0.618(3) Uiso 0.003(2) 1 0.250(17) d
O23a O 0.7360(17) 0.9010(17) 0.969(2) Uiso 0.009(2) 1 0.609(18) d
O23b O 0.7691(19) 0.9471(19) 0.931(2) Uiso 0.009(2) 1 0.391(18) d
O24a O 0.2444(16) 0.1140(17) 0.477(2) Uiso 0.007(2) 1 0.59(2) d
O24b O 0.2227(18) 0.0649(19) 0.451(2) Uiso 0.007(2) 1 0.41(2) d
O25a O 0.326(2) 0.7596(17) 0.595(2) Uiso 0.026(3) 1 0.75(3) d
O25b O 0.244(5) 0.790(4) 0.643(6) Uiso 0.026(3) 1 0.25(3) d
O26a O 0.9463(15) 0.2849(15) 0.9360(18) Uiso 0.0038(18) 1 0.495(19) d
O26b O 0.8900(16) 0.3620(17) 0.9740(18) Uiso 0.0038(18) 1 0.505(19) d
O27 O 0.4718(16) 0.5694(16) 0.524(2) Uiso 0.02 1 0.513(7) d
loop_
_atom_site_aniso_label
_atom_site_aniso_type_symbol
_atom_site_aniso_U_11
_atom_site_aniso_U_22
_atom_site_aniso_U_33
_atom_site_aniso_U_12
_atom_site_aniso_U_13
_atom_site_aniso_U_23
La1 La 0.0328(9) 0.0630(12) 0.0165(8) -0.0296(9) -0.0049(6) 0.0047(7)
La2 La 0.0351(9) 0.0310(8) 0.0282(9) 0.0083(6) -0.0043(7) 0.0012(7)
La3 La 0.0189(5) 0.0171(5) 0.0124(5) -0.0079(4) -0.0019(4) 0.0028(4)
La4 La 0.0170(5) 0.0158(4) 0.0191(5) -0.0110(4) -0.0023(4) 0.0022(4)
La5 La 0.0135(4) 0.0269(5) 0.0163(5) -0.0146(4) -0.0007(4) -0.0068(4)
La6 La 0.0085(4) 0.0141(4) 0.0159(5) -0.0049(3) 0.0021(3) 0.0031(3)
La7 La 0.0109(4) 0.0099(4) 0.0145(5) -0.0005(3) -0.0049(3) -0.0040(3)
La8 La 0.0220(5) 0.0068(4) 0.0150(5) -0.0033(3) -0.0002(4) -0.0025(3)
La9 La 0.0136(4) 0.0120(4) 0.0151(5) -0.0095(3) -0.0039(3) 0.0038(3)
La10 La 0.0128(4) 0.0090(4) 0.0159(4) -0.0060(3) 0.0016(3) 0.0035(3)
Ge1 Ge 0.0063(7) 0.0067(6) 0.0181(8) -0.0022(6) -0.0040(6) -0.0043(6)
Ge2 Ge 0.0076(8) 0.0094(7) 0.0172(9) -0.0020(6) -0.0058(6) -0.0010(6)
Ge3 Ge 0.0154(8) 0.0099(7) 0.0212(9) -0.0061(7) -0.0045(7) 0.0096(7)
Ge4 Ge 0.0096(8) 0.0118(7) 0.0147(8) -0.0068(6) 0.0021(6) 0.0032(6)
Ge5 Ge 0.0055(7) 0.0089(7) 0.0134(8) -0.0022(6) 0.0018(6) -0.0083(6)
Ge6 Ge 0.0147(9) 0.0123(7) 0.0188(9) -0.0081(7) 0.0006(7) 0.0061(7)
loop_
_atom_type_symbol
_atom_type_scat_dispersion_real
_atom_type_scat_dispersion_imag
_atom_type_scat_source
Ge 0.1547 1.8001 'International Tables Vol C tables 4.2.6.8 and 6.1.1.1'
La -0.2871 2.4523 'International Tables Vol C tables 4.2.6.8 and 6.1.1.1'
O 0.0106 0.0060 'International Tables Vol C tables 4.2.6.8 and 6.1.1.1'
loop_
_geom_angle_atom_site_label_1
_geom_angle_atom_site_label_2
_geom_angle_atom_site_label_3
_geom_angle_site_symmetry_1
_geom_angle_site_symmetry_3
_geom_angle
O2 La1 O4 1_554 . 92.3(4)
O2 La1 O5 1_554 . 90.1(4)
O2 La1 O8 1_554 . 115.1(3)
O2 La1 O13 1_554 1_554 74.7(4)
O2 La1 O15 1_554 . 159.0(5)
O2 La1 O16 1_554 . 139.1(4)
O2 La1 O20a 1_554 1_554 76.5(4)
O2 La1 O20b 1_554 1_554 74.1(6)
O4 La1 O5 . . 62.6(4)
O4 La1 O8 . . 130.1(4)
O4 La1 O13 . 1_554 142.9(3)
O4 La1 O15 . . 68.5(4)
O4 La1 O16 . . 120.4(4)
O4 La1 O20a . 1_554 72.5(6)
O4 La1 O20b . 1_554 65.7(9)
O5 La1 O8 . . 75.8(4)
O5 La1 O13 . 1_554 149.0(3)
O5 La1 O15 . . 73.8(4)
O5 La1 O16 . . 125.4(4)
O5 La1 O20a . 1_554 132.4(7)
O5 La1 O20b . 1_554 124.9(10)
O8 La1 O13 . 1_554 86.3(4)
O8 La1 O15 . . 74.6(3)
O8 La1 O16 . . 63.8(4)
O8 La1 O20a . 1_554 151.0(7)
O8 La1 O20b . 1_554 158.5(10)
O13 La1 O15 1_554 . 125.8(5)
O13 La1 O16 1_554 . 64.4(4)
O13 La1 O20a 1_554 1_554 70.8(6)
O13 La1 O20b 1_554 1_554 77.3(9)
O15 La1 O16 . . 61.6(5)
O15 La1 O20a . 1_554 104.2(4)
O15 La1 O20b . 1_554 103.8(6)
O16 La1 O20a . 1_554 89.7(6)
O16 La1 O20b . 1_554 96.2(9)
O20a La1 O20b 1_554 1_554 7.6(12)
O3 La2 O7 . . 150.5(4)
O3 La2 O9 . . 130.3(4)
O3 La2 O10 . . 137.3(4)
O3 La2 O14 . . 72.0(4)
O3 La2 O17 . . 99.9(4)
O3 La2 O21a . . 67.9(9)
O3 La2 O21b . . 76.6(12)
O3 La2 O22a . . 70.6(4)
O3 La2 O27 . . 61.9(5)
O7 La2 O9 . . 75.7(3)
O7 La2 O10 . . 60.2(4)
O7 La2 O14 . . 88.1(4)
O7 La2 O17 . . 72.4(4)
O7 La2 O21a . . 127.9(9)
O7 La2 O21b . . 119.7(11)
O7 La2 O22a . . 127.6(3)
O7 La2 O27 . . 92.9(4)
O9 La2 O10 . . 65.7(4)
O9 La2 O14 . . 153.2(6)
O9 La2 O17 . . 72.8(4)
O9 La2 O21a . . 99.6(6)
O9 La2 O21b . . 94.7(8)
O9 La2 O22a . . 61.1(4)
O9 La2 O27 . . 124.7(5)
O10 La2 O14 . . 87.8(5)
O10 La2 O17 . . 122.4(4)
O10 La2 O21a . . 70.5(9)
O10 La2 O21b . . 61.7(11)
O10 La2 O22a . . 118.3(4)
O10 La2 O27 . . 149.6(4)
O14 La2 O17 . . 122.7(5)
O14 La2 O21a . . 73.5(6)
O14 La2 O21b . . 74.7(8)
O14 La2 O22a . . 142.4(4)
O14 La2 O27 . . 76.5(6)
O17 La2 O21a . . 156.9(7)
O17 La2 O21b . . 160.7(7)
O17 La2 O22a . . 67.7(3)
O17 La2 O27 . . 52.4(4)
O21a La2 O21b . . 8.8(14)
O21a La2 O22a . . 89.4(7)
O21a La2 O27 . . 127.2(8)
O21b La2 O22a . . 93.4(9)
O21b La2 O27 . . 135.0(11)
O22a La2 O27 . . 88.8(5)
O2 La3 O5 . . 96.6(4)
O2 La3 O6 . . 66.9(4)
O2 La3 O8 . . 130.0(3)
O2 La3 O13 . . 69.9(4)
O2 La3 O15 . . 153.8(4)
O2 La3 O19a . . 91.4(4)
O2 La3 O20a . . 72.4(4)
O2 La3 O20b . . 72.9(6)
O2 La3 O24a . . 134.4(4)
O5 La3 O6 . . 69.4(4)
O5 La3 O8 . . 76.2(4)
O5 La3 O13 . . 158.1(3)
O5 La3 O15 . . 79.0(4)
O5 La3 O19a . . 58.9(4)
O5 La3 O20a . . 125.3(7)
O5 La3 O20b . . 116.0(10)
O5 La3 O24a . . 128.1(4)
O6 La3 O8 . . 64.2(4)
O6 La3 O13 . . 89.2(4)
O6 La3 O15 . . 132.4(4)
O6 La3 O19a . . 120.7(5)
O6 La3 O20a . . 138.4(4)
O6 La3 O20b . . 139.8(6)
O6 La3 O24a . . 116.5(5)
O8 La3 O13 . . 98.9(4)
O8 La3 O15 . . 74.5(3)
O8 La3 O19a . . 122.6(4)
O8 La3 O20a . . 150.4(6)
O8 La3 O20b . . 154.6(8)
O8 La3 O24a . . 64.5(4)
O13 La3 O15 . . 120.7(5)
O13 La3 O19a . . 135.8(3)
O13 La3 O20a . . 68.3(6)
O13 La3 O20b . . 77.4(9)
O13 La3 O24a . . 64.8(4)
O15 La3 O19a . . 64.1(5)
O15 La3 O20a . . 89.0(4)
O15 La3 O20b . . 85.8(6)
O15 La3 O24a . . 59.4(5)
O19a La3 O20a . . 67.9(6)
O19a La3 O20b . . 58.6(10)
O19a La3 O24a . . 117.3(4)
O20a La3 O20b . . 9.3(11)
O20a La3 O24a . . 86.0(6)
O20b La3 O24a . . 91.9(9)
O3 La4 O7 . 1_554 154.6(4)
O3 La4 O9 . 1_554 122.7(3)
O3 La4 O14 . . 69.4(4)
O3 La4 O17 . 1_554 93.2(4)
O3 La4 O18a . 1_554 87.2(5)
O3 La4 O21a . . 66.5(9)
O3 La4 O21b . . 71.6(11)
O3 La4 O23a . 1_554 137.8(5)
O3 La4 O26b . 1_554 65.8(4)
O7 La4 O9 1_554 1_554 76.1(3)
O7 La4 O14 1_554 . 99.5(4)
O7 La4 O17 1_554 1_554 74.9(4)
O7 La4 O18a 1_554 1_554 67.4(5)
O7 La4 O21a 1_554 . 132.9(9)
O7 La4 O21b 1_554 . 127.1(11)
O7 La4 O23a 1_554 1_554 62.1(4)
O7 La4 O26b 1_554 1_554 124.2(4)
O9 La4 O14 1_554 . 157.8(6)
O9 La4 O17 1_554 1_554 73.9(4)
O9 La4 O18a 1_554 1_554 127.3(5)
O9 La4 O21a 1_554 . 96.0(6)
O9 La4 O21b 1_554 . 96.0(7)
O9 La4 O23a 1_554 1_554 67.6(5)
O9 La4 O26b 1_554 1_554 58.4(4)
O14 La4 O17 . 1_554 126.5(5)
O14 La4 O18a . 1_554 67.8(5)
O14 La4 O21a . . 70.8(6)
O14 La4 O21b . . 68.9(7)
O14 La4 O23a . 1_554 91.0(5)
O14 La4 O26b . 1_554 134.7(4)
O17 La4 O18a 1_554 1_554 60.9(4)
O17 La4 O21a 1_554 . 148.2(7)
O17 La4 O21b 1_554 . 153.8(8)
O17 La4 O23a 1_554 1_554 127.3(4)
O17 La4 O26b 1_554 1_554 63.4(4)
O18a La4 O21a 1_554 . 136.7(6)
O18a La4 O21b 1_554 . 136.3(7)
O18a La4 O23a 1_554 1_554 120.4(5)
O18a La4 O26b 1_554 1_554 115.5(5)
O21a La4 O21b . . 6.0(13)
O21a La4 O23a . 1_554 71.9(9)
O21a La4 O26b . 1_554 85.4(7)
O21b La4 O23a . 1_554 66.5(11)
O21b La4 O26b . 1_554 90.6(8)
O23a La4 O26b 1_554 1_554 118.1(5)
O5 La5 O6 . . 68.7(4)
O5 La5 O11 . . 74.5(4)
O5 La5 O12 . 1_565 151.0(4)
O5 La5 O14 . . 97.0(4)
O5 La5 O18a . 1_554 82.7(5)
O5 La5 O18b . 1_554 88.8(6)
O5 La5 O25a . . 86.0(4)
O5 La5 O25b . . 92.8(8)
O5 La5 O27 . . 49.4(5)
O6 La5 O11 . . 65.0(4)
O6 La5 O12 . 1_565 89.5(2)
O6 La5 O14 . . 141.6(4)
O6 La5 O18a . 1_554 138.6(6)
O6 La5 O18b . 1_554 132.9(10)
O6 La5 O25a . . 74.5(6)
O6 La5 O25b . . 62.7(13)
O6 La5 O27 . . 76.6(5)
O11 La5 O12 . 1_565 79.1(3)
O11 La5 O14 . . 147.8(4)
O11 La5 O18a . 1_554 79.2(6)
O11 La5 O18b . 1_554 69.4(11)
O11 La5 O25a . . 139.1(6)
O11 La5 O25b . . 127.2(13)
O11 La5 O27 . . 120.6(5)
O12 La5 O14 1_565 . 111.8(3)
O12 La5 O18a 1_565 1_554 104.0(3)
O12 La5 O18b 1_565 1_554 93.0(6)
O12 La5 O25a 1_565 . 107.0(3)
O12 La5 O25b 1_565 . 93.7(7)
O12 La5 O27 1_565 . 145.6(3)
O14 La5 O18a . 1_554 68.9(6)
O14 La5 O18b . 1_554 79.5(11)
O14 La5 O25a . . 68.9(6)
O14 La5 O25b . . 83.6(13)
O14 La5 O27 . . 67.8(5)
O18a La5 O18b 1_554 1_554 13.2(10)
O18a La5 O25a 1_554 . 134.4(7)
O18a La5 O25b 1_554 . 151.2(12)
O18a La5 O27 1_554 . 107.2(5)
O18b La5 O25a 1_554 . 147.0(11)
O18b La5 O25b 1_554 . 163.1(16)
O18b La5 O27 1_554 . 119.5(7)
O25a La5 O25b . . 17.1(11)
O25a La5 O27 . . 39.2(4)
O25b La5 O27 . . 51.9(8)
O3 La6 O8 . 1_655 97.0(4)
O3 La6 O12 . 1_655 114.8(3)
O3 La6 O16 . 1_655 144.8(4)
O3 La6 O22a . . 66.4(3)
O3 La6 O22b . . 78.0(5)
O3 La6 O24a . 1_655 140.9(4)
O3 La6 O24b . 1_655 148.8(4)
O3 La6 O26a . 1_554 81.1(3)
O3 La6 O26b . 1_554 65.5(4)
O8 La6 O12 1_655 1_655 146.79(19)
O8 La6 O16 1_655 1_655 66.4(4)
O8 La6 O22a 1_655 . 86.7(4)
O8 La6 O22b 1_655 . 93.0(9)
O8 La6 O24a 1_655 1_655 68.2(5)
O8 La6 O24b 1_655 1_655 80.9(6)
O8 La6 O26a 1_655 1_554 84.7(5)
O8 La6 O26b 1_655 1_554 80.4(5)
O12 La6 O16 1_655 1_655 81.4(4)
O12 La6 O22a 1_655 . 114.0(4)
O12 La6 O22b 1_655 . 102.5(8)
O12 La6 O24a 1_655 1_655 90.8(4)
O12 La6 O24b 1_655 1_655 76.8(5)
O12 La6 O26a 1_655 1_554 90.6(4)
O12 La6 O26b 1_655 1_554 103.3(4)
O16 La6 O22a 1_655 . 137.8(5)
O16 La6 O22b 1_655 . 131.1(6)
O16 La6 O24a 1_655 1_655 63.8(4)
O16 La6 O24b 1_655 1_655 62.4(5)
O16 La6 O26a 1_655 1_554 67.1(4)
O16 La6 O26b 1_655 1_554 80.7(4)
O22a La6 O22b . . 14.0(7)
O22a La6 O24a . 1_655 76.5(4)
O22a La6 O24b . 1_655 82.4(4)
O22a La6 O26a . 1_554 145.0(4)
O22a La6 O26b . 1_554 128.0(4)
O22b La6 O24a . 1_655 67.4(6)
O22b La6 O24b . 1_655 71.1(6)
O22b La6 O26a . 1_554 158.6(6)
O22b La6 O26b . 1_554 141.6(6)
O24a La6 O24b 1_655 1_655 13.9(6)
O24a La6 O26a 1_655 1_554 130.0(4)
O24a La6 O26b 1_655 1_554 139.4(5)
O24b La6 O26a 1_655 1_554 129.1(5)
O24b La6 O26b 1_655 1_554 142.8(5)
O26a La6 O26b 1_554 1_554 17.1(4)
O1 La7 O2 1_465 . 112.8(4)
O1 La7 O6 1_465 . 106.7(5)
O1 La7 O9 1_465 1_455 150.4(3)
O1 La7 O10 1_465 1_455 83.4(4)
O1 La7 O11 1_465 1_556 104.7(5)
O1 La7 O23a 1_465 1_455 89.1(4)
O1 La7 O23b 1_465 1_455 74.3(6)
O1 La7 O25b 1_465 . 58.0(8)
O2 La7 O6 . . 70.1(4)
O2 La7 O9 . 1_455 96.9(4)
O2 La7 O10 . 1_455 148.0(4)
O2 La7 O11 . 1_556 67.9(3)
O2 La7 O23a . 1_455 139.9(4)
O2 La7 O23b . 1_455 147.6(4)
O2 La7 O25b . . 59.9(8)
O6 La7 O9 . 1_455 82.3(5)
O6 La7 O10 . 1_455 79.0(4)
O6 La7 O11 . 1_556 134.5(4)
O6 La7 O23a . 1_455 137.2(5)
O6 La7 O23b . 1_455 140.4(5)
O6 La7 O25b . . 67.9(10)
O9 La7 O10 1_455 1_455 70.4(4)
O9 La7 O11 1_455 1_556 86.3(5)
O9 La7 O23a 1_455 1_455 67.1(5)
O9 La7 O23b 1_455 1_455 81.0(6)
O9 La7 O25b 1_455 . 146.7(9)
O10 La7 O11 1_455 1_556 136.9(4)
O10 La7 O23a 1_455 1_455 63.3(4)
O10 La7 O23b 1_455 1_455 61.5(5)
O10 La7 O25b 1_455 . 115.6(9)
O11 La7 O23a 1_556 1_455 74.4(4)
O11 La7 O23b 1_556 1_455 79.7(5)
O11 La7 O25b 1_556 . 103.8(10)
O23a La7 O23b 1_455 1_455 14.9(6)
O23a La7 O25b 1_455 . 146.0(9)
O23b La7 O25b 1_455 . 131.7(10)
O1 La8 O7 1_455 1_545 147.5(4)
O1 La8 O13 1_455 . 113.2(3)
O1 La8 O16 1_455 1_556 112.4(5)
O1 La8 O18a 1_455 1_545 90.3(5)
O1 La8 O18b 1_455 1_545 79.1(10)
O1 La8 O24a 1_455 . 102.6(5)
O1 La8 O24b 1_455 . 91.1(5)
O1 La8 O25a 1_455 1_545 79.4(5)
O1 La8 O25b 1_455 1_545 62.6(12)
O1 La8 O26a 1_455 1_455 66.6(4)
O7 La8 O13 1_545 . 98.5(4)
O7 La8 O16 1_545 1_556 85.6(4)
O7 La8 O18a 1_545 1_545 67.0(5)
O7 La8 O18b 1_545 1_545 78.0(9)
O7 La8 O24a 1_545 . 82.9(4)
O7 La8 O24b 1_545 . 87.3(4)
O7 La8 O25a 1_545 1_545 69.8(6)
O7 La8 O25b 1_545 1_545 85.6(11)
O7 La8 O26a 1_545 1_455 144.3(4)
O13 La8 O16 . 1_556 67.0(4)
O13 La8 O18a . 1_545 141.8(5)
O13 La8 O18b . 1_545 146.5(7)
O13 La8 O24a . . 67.1(4)
O13 La8 O24b . . 80.6(5)
O13 La8 O25a . 1_545 147.4(5)
O13 La8 O25b . 1_545 155.8(10)
O13 La8 O26a . 1_455 53.9(4)
O16 La8 O18a 1_556 1_545 76.4(5)
O16 La8 O18b 1_556 1_545 79.5(7)
O16 La8 O24a 1_556 . 130.2(6)
O16 La8 O24b 1_556 . 145.3(7)
O16 La8 O25a 1_556 1_545 138.2(4)
O16 La8 O25b 1_556 1_545 137.1(10)
O16 La8 O26a 1_556 1_455 63.9(4)
O18a La8 O18b 1_545 1_545 11.4(10)
O18a La8 O24a 1_545 . 138.9(4)
O18a La8 O24b 1_545 . 130.7(5)
O18a La8 O25a 1_545 1_545 63.1(5)
O18a La8 O25b 1_545 1_545 61.5(10)
O18a La8 O26a 1_545 1_455 118.6(4)
O18b La8 O24a 1_545 . 143.2(6)
O18b La8 O24b 1_545 . 131.8(7)
O18b La8 O25a 1_545 1_545 63.0(7)
O18b La8 O25b 1_545 1_545 57.6(12)
O18b La8 O26a 1_545 1_455 111.6(7)
O24a La8 O24b . . 15.2(7)
O24a La8 O25a . 1_545 81.0(5)
O24a La8 O25b . 1_545 90.0(11)
O24a La8 O26a . 1_455 102.2(4)
O24b La8 O25a . 1_545 68.8(5)
O24b La8 O25b . 1_545 75.8(11)
O24b La8 O26a . 1_455 106.9(4)
O25a La8 O25b 1_545 1_545 17.4(13)
O25a La8 O26a 1_545 1_455 145.8(6)
O25b La8 O26a 1_545 1_455 129.2(12)
O4 La9 O10 1_565 . 136.8(3)
O4 La9 O12 1_565 1_665 85.3(3)
O4 La9 O15 1_565 1_565 71.4(4)
O4 La9 O19a 1_565 1_565 63.3(4)
O4 La9 O19b 1_565 1_565 62.6(5)
O4 La9 O21a 1_565 . 144.1(5)
O4 La9 O21b 1_565 . 147.9(8)
O4 La9 O23a 1_565 1_554 79.6(5)
O4 La9 O23b 1_565 1_554 68.1(5)
O10 La9 O12 . 1_665 107.6(3)
O10 La9 O15 . 1_565 79.5(4)
O10 La9 O19a . 1_565 75.4(4)
O10 La9 O19b . 1_565 80.4(5)
O10 La9 O21a . . 68.0(5)
O10 La9 O21b . . 65.1(8)
O10 La9 O23a . 1_554 131.3(6)
O10 La9 O23b . 1_554 148.0(6)
O12 La9 O15 1_665 1_565 150.2(3)
O12 La9 O19a 1_665 1_565 90.0(4)
O12 La9 O19b 1_665 1_565 76.1(6)
O12 La9 O21a 1_665 . 114.6(3)
O12 La9 O21b 1_665 . 112.7(6)
O12 La9 O23a 1_665 1_554 106.1(4)
O12 La9 O23b 1_665 1_554 92.1(5)
O15 La9 O19a 1_565 1_565 63.4(5)
O15 La9 O19b 1_565 1_565 76.8(6)
O15 La9 O21a 1_565 . 95.0(5)
O15 La9 O21b 1_565 . 96.7(7)
O15 La9 O23a 1_565 1_554 88.1(5)
O15 La9 O23b 1_565 1_554 95.9(5)
O19a La9 O19b 1_565 1_565 13.9(7)
O19a La9 O21a 1_565 . 140.5(5)
O19a La9 O21b 1_565 . 138.6(8)
O19a La9 O23a 1_565 1_554 138.3(4)
O19a La9 O23b 1_565 1_554 130.9(4)
O19b La9 O21a 1_565 . 148.3(6)
O19b La9 O21b 1_565 . 145.4(8)
O19b La9 O23a 1_565 1_554 142.0(5)
O19b La9 O23b 1_565 1_554 129.8(6)
O21a La9 O21b . . 3.8(8)
O21a La9 O23a . 1_554 66.5(6)
O21a La9 O23b . 1_554 81.0(6)
O21b La9 O23a . 1_554 70.0(8)
O21b La9 O23b . 1_554 84.3(9)
O23a La9 O23b 1_554 1_554 17.1(7)
O1 La10 O4 . 1_556 108.9(3)
O1 La10 O17 . . 148.3(4)
O1 La10 O19a . . 104.9(4)
O1 La10 O19b . . 92.1(4)
O1 La10 O20a . . 112.9(4)
O1 La10 O20b . . 111.1(6)
O1 La10 O22a . . 85.2(3)
O1 La10 O22b . . 72.7(6)
O1 La10 O23b . 1_545 64.0(4)
O1 La10 O26a . . 73.9(4)
O1 La10 O26b . . 89.5(4)
O4 La10 O17 1_556 . 82.7(3)
O4 La10 O19a 1_556 . 129.8(5)
O4 La10 O19b 1_556 . 145.4(7)
O4 La10 O20a 1_556 . 67.7(5)
O4 La10 O20b 1_556 . 70.6(7)
O4 La10 O22a 1_556 . 137.3(5)
O4 La10 O22b 1_556 . 138.6(8)
O4 La10 O23b 1_556 1_545 61.8(4)
O4 La10 O26a 1_556 . 83.8(5)
O4 La10 O26b 1_556 . 76.4(5)
O17 La10 O19a . . 87.6(4)
O17 La10 O19b . . 93.8(4)
O17 La10 O20a . . 98.8(4)
O17 La10 O20b . . 100.6(5)
O17 La10 O22a . . 67.9(3)
O17 La10 O22b . . 79.3(7)
O17 La10 O23b . 1_545 141.9(4)
O17 La10 O26a . . 78.3(4)
O17 La10 O26b . . 64.0(3)
O19a La10 O19b . . 16.0(6)
O19a La10 O20a . . 65.4(5)
O19a La10 O20b . . 63.0(7)
O19a La10 O22a . . 80.8(5)
O19a La10 O22b . . 86.4(8)
O19a La10 O23b . 1_545 104.0(5)
O19a La10 O26a . . 141.7(6)
O19a La10 O26b . . 140.0(5)
O19b La10 O20a . . 78.9(7)
O19b La10 O20b . . 76.3(8)
O19b La10 O22a . . 69.7(7)
O19b La10 O22b . . 73.2(9)
O19b La10 O23b . 1_545 107.2(6)
O19b La10 O26a . . 129.4(7)
O19b La10 O26b . . 132.6(7)
O20a La10 O20b . . 3.2(6)
O20a La10 O22a . . 144.4(4)
O20a La10 O22b . . 151.8(7)
O20a La10 O23b . 1_545 56.6(4)
O20a La10 O26a . . 151.5(4)
O20a La10 O26b . . 142.1(4)
O20b La10 O22a . . 142.8(6)
O20b La10 O22b . . 149.3(8)
O20b La10 O23b . 1_545 56.4(6)
O20b La10 O26a . . 154.3(7)
O20b La10 O26b . . 145.3(6)
O22a La10 O22b . . 12.7(6)
O22a La10 O23b . 1_545 149.0(4)
O22a La10 O26a . . 60.9(4)
O22a La10 O26b . . 63.2(4)
O22b La10 O23b . 1_545 136.7(6)
O22b La10 O26a . . 56.2(7)
O22b La10 O26b . . 62.2(8)
O23b La10 O26a 1_545 . 109.1(5)
O23b La10 O26b 1_545 . 115.8(5)
O26a La10 O26b . . 15.7(4)
O2 Ge1 O17 . . 118.5(5)
O2 Ge1 O18a . . 108.3(8)
O2 Ge1 O18b . . 98.4(14)
O2 Ge1 O25a . . 112.9(9)
O2 Ge1 O25b . . 97.4(18)
O2 Ge1 O27 . . 97.7(7)
O17 Ge1 O18a . . 97.0(7)
O17 Ge1 O18b . . 114.9(12)
O17 Ge1 O25a . . 111.8(8)
O17 Ge1 O25b . . 136.4(17)
O17 Ge1 O27 . . 73.9(5)
O18a Ge1 O18b . . 17.9(13)
O18a Ge1 O25a . . 106.4(7)
O18a Ge1 O25b . . 94.0(13)
O18a Ge1 O27 . . 153.5(9)
O18b Ge1 O25a . . 97.8(9)
O18b Ge1 O25b . . 80.5(14)
O18b Ge1 O27 . . 154.2(10)
O25a Ge1 O25b . . 25.3(16)
O25a Ge1 O27 . . 57.2(6)
O25b Ge1 O27 . . 77.6(13)
O6 Ge2 O8 . . 105.4(5)
O6 Ge2 O11 . . 106.2(8)
O6 Ge2 O21a . 1_455 112.9(9)
O6 Ge2 O21b . 1_455 104.4(13)
O8 Ge2 O11 . . 107.6(5)
O8 Ge2 O21a . 1_455 108.5(11)
O8 Ge2 O21b . 1_455 119.3(17)
O11 Ge2 O21a . 1_455 115.6(9)
O11 Ge2 O21b . 1_455 113.0(14)
O21a Ge2 O21b 1_455 1_455 11.5(19)
O7 Ge3 O10 . . 106.3(6)
O7 Ge3 O20a . 1_565 110.8(9)
O7 Ge3 O20b . 1_565 123.7(15)
O7 Ge3 O23a . . 101.5(7)
O7 Ge3 O23b . . 125.3(8)
O10 Ge3 O20a . 1_565 115.6(7)
O10 Ge3 O20b . 1_565 105.4(12)
O10 Ge3 O23a . . 107.3(6)
O10 Ge3 O23b . . 95.0(7)
O20a Ge3 O20b 1_565 1_565 13.5(17)
O20a Ge3 O23a 1_565 . 114.0(7)
O20a Ge3 O23b 1_565 . 103.5(9)
O20b Ge3 O23a 1_565 . 111.6(12)
O20b Ge3 O23b 1_565 . 96.5(14)
O23a Ge3 O23b . . 23.9(9)
O9 Ge4 O13 . 1_655 117.3(7)
O9 Ge4 O22a . . 102.0(6)
O9 Ge4 O22b . . 122.1(9)
O9 Ge4 O26a . . 125.5(6)
O9 Ge4 O26b . . 100.8(6)
O13 Ge4 O22a 1_655 . 115.3(5)
O13 Ge4 O22b 1_655 . 104.2(8)
O13 Ge4 O26a 1_655 . 96.8(6)
O13 Ge4 O26b 1_655 . 111.7(5)
O22a Ge4 O22b . . 20.4(9)
O22a Ge4 O26a . . 99.5(7)
O22a Ge4 O26b . . 108.3(8)
O22b Ge4 O26a . . 84.1(11)
O22b Ge4 O26b . . 99.1(12)
O26a Ge4 O26b . . 24.7(6)
O14 Ge5 O15 1_545 . 115.4(7)
O14 Ge5 O16 1_545 . 112.0(7)
O14 Ge5 O24a 1_545 . 114.4(7)
O14 Ge5 O24b 1_545 . 101.3(8)
O15 Ge5 O16 . . 109.6(7)
O15 Ge5 O24a . . 97.3(8)
O15 Ge5 O24b . . 118.2(8)
O16 Ge5 O24a . . 107.0(6)
O16 Ge5 O24b . . 99.0(7)
O24a Ge5 O24b . . 21.0(9)
O3 Ge6 O4 . . 116.1(6)
O3 Ge6 O5 . . 110.9(6)
O3 Ge6 O19a . . 114.9(7)
O3 Ge6 O19b . . 103.3(9)
O3 Ge6 O27 . . 71.0(6)
O4 Ge6 O5 . . 107.8(6)
O4 Ge6 O19a . . 106.5(6)
O4 Ge6 O19b . . 97.0(7)
O4 Ge6 O27 . . 168.6(6)
O5 Ge6 O19a . . 99.1(7)
O5 Ge6 O19b . . 121.7(9)
O5 Ge6 O27 . . 60.8(6)
O19a Ge6 O19b . . 22.6(9)
O19a Ge6 O27 . . 76.5(5)
O19b Ge6 O27 . . 89.6(6)
loop_
_geom_bond_atom_site_label_1
_geom_bond_atom_site_label_2
_geom_bond_site_symmetry_2
_geom_bond_distance
La1 O2 1_554 2.426(12)
La1 O4 . 2.709(14)
La1 O5 . 2.693(15)
La1 O8 . 2.541(11)
La1 O13 1_554 2.473(12)
La1 O15 . 2.636(12)
La1 O16 . 2.863(19)
La1 O20a 1_554 2.370(15)
La1 O20b 1_554 2.62(3)
La2 O3 . 2.404(13)
La2 O7 . 2.602(10)
La2 O9 . 2.546(14)
La2 O10 . 2.941(17)
La2 O14 . 2.452(13)
La2 O17 . 2.580(11)
La2 O21a . 2.33(2)
La2 O21b . 2.38(4)
La2 O22a . 2.673(11)
La2 O27 . 2.54(2)
La3 O2 . 2.608(11)
La3 O5 . 2.530(15)
La3 O6 . 2.707(11)
La3 O8 . 2.682(11)
La3 O13 . 2.579(11)
La3 O15 . 2.501(12)
La3 O19a . 2.769(17)
La3 O20a . 2.413(15)
La3 O20b . 2.51(3)
La3 O24a . 2.78(2)
La4 O3 . 2.446(12)
La4 O7 1_554 2.551(10)
La4 O9 1_554 2.576(13)
La4 O14 . 2.566(13)
La4 O17 1_554 2.483(11)
La4 O18a 1_554 2.71(2)
La4 O21a . 2.36(2)
La4 O21b . 2.62(4)
La4 O23a 1_554 2.73(2)
La4 O26b 1_554 2.828(12)
La5 O5 . 2.507(11)
La5 O6 . 2.767(17)
La5 O11 . 2.554(17)
La5 O12 1_565 2.3200(9)
La5 O14 . 2.739(19)
La5 O18a 1_554 2.461(17)
La5 O18b 1_554 2.39(3)
La5 O25a . 2.439(16)
La5 O25b . 2.66(4)
La5 O27 . 2.803(13)
La6 O3 . 2.837(9)
La6 O8 1_655 2.538(14)
La6 O12 1_655 2.3230(14)
La6 O16 1_655 2.696(14)
La6 O22a . 2.508(11)
La6 O22b . 2.54(2)
La6 O24a 1_655 2.658(14)
La6 O24b 1_655 2.464(14)
La6 O26a 1_554 2.518(13)
La6 O26b 1_554 2.456(13)
La7 O1 1_465 2.314(11)
La7 O2 . 2.707(8)
La7 O6 . 2.382(13)
La7 O9 1_455 2.591(18)
La7 O10 1_455 2.606(12)
La7 O11 1_556 2.445(12)
La7 O23a 1_455 2.746(14)
La7 O23b 1_455 2.450(15)
La7 O25b . 2.65(5)
La8 O1 1_455 2.307(11)
La8 O7 1_545 2.551(11)
La8 O13 . 2.718(12)
La8 O16 1_556 2.452(15)
La8 O18a 1_545 2.737(16)
La8 O18b 1_545 2.53(3)
La8 O24a . 2.472(15)
La8 O24b . 2.453(16)
La8 O25a 1_545 2.598(16)
La8 O25b 1_545 2.36(5)
La8 O26a 1_455 2.945(11)
La9 O4 1_565 2.590(12)
La9 O10 . 2.486(12)
La9 O12 1_665 2.3421(14)
La9 O15 1_565 2.569(12)
La9 O19a 1_565 2.761(13)
La9 O19b 1_565 2.505(19)
La9 O21a . 2.98(3)
La9 O21b . 2.66(5)
La9 O23a 1_554 2.434(16)
La9 O23b 1_554 2.490(17)
La10 O1 . 2.357(7)
La10 O4 1_556 2.492(12)
La10 O17 . 2.571(9)
La10 O19a . 2.454(14)
La10 O19b . 2.465(18)
La10 O20a . 2.89(3)
La10 O20b . 2.50(5)
La10 O22a . 2.669(15)
La10 O22b . 2.41(3)
La10 O23b 1_545 2.98(2)
La10 O26a . 2.514(17)
La10 O26b . 2.720(18)
Ge1 O2 . 1.726(14)
Ge1 O17 . 1.773(9)
Ge1 O18a . 1.755(16)
Ge1 O18b . 1.82(2)
Ge1 O25a . 1.735(15)
Ge1 O25b . 1.84(3)
Ge1 O27 . 1.980(15)
Ge2 O6 . 1.823(15)
Ge2 O8 . 1.780(10)
Ge2 O11 . 1.757(15)
Ge2 O21a 1_455 1.821(19)
Ge2 O21b 1_455 1.74(2)
Ge3 O7 . 1.762(15)
Ge3 O10 . 1.730(12)
Ge3 O20a 1_565 1.763(12)
Ge3 O20b 1_565 1.74(2)
Ge3 O23a . 1.760(14)
Ge3 O23b . 1.783(19)
Ge4 O9 . 1.683(12)
Ge4 O13 1_655 1.727(9)
Ge4 O22a . 1.734(13)
Ge4 O22b . 1.75(3)
Ge4 O26a . 1.714(16)
Ge4 O26b . 1.751(16)
Ge5 O14 1_545 1.719(13)
Ge5 O15 . 1.719(17)
Ge5 O16 . 1.735(14)
Ge5 O24a . 1.783(14)
Ge5 O24b . 1.789(17)
Ge6 O3 . 1.767(15)
Ge6 O4 . 1.773(12)
Ge6 O5 . 1.698(12)
Ge6 O19a . 1.734(14)
Ge6 O19b . 1.762(16)
loop_
_refln_index_h
_refln_index_k
_refln_index_l
_refln_F_squared_calc
_refln_F_squared_meas
_refln_F_squared_sigma
_refln_observed_status
1 0 0 148.46 85.73 13.40 o
-1 0 0 152.70 40.19 10.72 o
2 0 0 11989.60 12451.50 151.55 o
-2 0 0 12051.90 12121.90 146.15 o
3 0 0 85924.10 88277.90 972.28 o
-3 0 0 85889.40 86289.60 969.45 o
4 0 0 11791.80 11520.50 158.81 o
-4 0 0 11781.80 11305.10 153.43 o
5 0 0 26771.00 26972.50 324.25 o
-5 0 0 26633.60 26720.00 318.83 o
6 0 0 3095.78 3259.68 93.82 o
-6 0 0 3205.56 3369.68 91.14 o
7 0 0 4903.89 5191.20 120.66 o
-7 0 0 4972.09 4976.76 115.30 o
8 0 0 19369.90 18941.30 268.86 o
-8 0 0 19389.00 19186.00 263.48 o
9 0 0 13877.80 14369.50 230.90 o
-9 0 0 13912.40 14340.10 349.04 o
10 0 0 351.07 476.78 115.18 o
-10 0 0 373.29 310.71 115.18 <
11 0 0 1489.74 1703.85 163.42 o
-11 0 0 1469.51 1551.14 166.10 o
12 0 0 2740.18 2751.80 211.68 o
-12 0 0 2750.38 2762.52 211.68 o
-11 1 0 1439.16 1376.99 166.10 o
11 -1 0 1419.03 1366.27 160.74 o
-10 1 0 1996.27 2381.83 187.55 o
10 -1 0 1954.96 2269.29 168.79 o
-9 1 0 1741.46 2081.73 160.75 o
9 -1 0 1733.01 1778.98 147.35 o
-8 1 0 773.79 1307.25 83.04 o
8 -1 0 834.78 1285.84 77.69 o
-7 1 0 131.36 56.25 45.53 <
7 -1 0 107.31 136.60 50.89 <
-6 1 0 19985.20 20073.30 263.77 o
6 -1 0 19884.00 20158.90 266.45 o
-5 1 0 16298.00 16478.40 220.68 o
5 -1 0 16534.60 16964.00 223.39 o
-4 1 0 27459.00 28076.90 332.73 o
4 -1 0 27525.10 28386.00 332.74 o
-3 1 0 13723.20 13430.00 172.52 o
3 -1 0 13782.80 13910.20 175.23 o
-2 1 0 47545.70 46979.60 527.43 o
2 -1 0 47674.90 47171.20 530.23 o
-1 1 0 488.90 410.00 21.44 o
1 -1 0 470.66 401.95 24.12 o
0 1 0 110.14 8.04 8.04 <
0 -1 0 106.75 -5.36 16.07 <
1 1 0 2.17 24.11 10.71 <
-1 -1 0 4.35 18.75 13.39 <
2 1 0 302.03 399.20 18.75 o
-2 -1 0 312.52 388.49 34.83 o
3 1 0 15310.10 15897.60 194.76 o
-3 -1 0 15364.40 15895.50 270.52 o
4 1 0 5021.76 5710.43 102.02 o
-4 -1 0 4916.69 5688.67 91.28 o
5 1 0 80900.60 82829.80 912.64 o
-5 -1 0 80909.00 82126.90 896.10 o
6 1 0 270.82 310.72 45.54 o
-6 -1 0 286.56 356.26 40.18 o
7 1 0 23848.10 24308.30 312.51 o
-7 -1 0 23868.40 23863.90 304.43 o
8 1 0 31117.90 30678.80 388.20 o
-8 -1 0 30990.30 30761.50 560.72 o
9 1 0 5802.61 5957.77 142.11 o
-9 -1 0 5846.97 5729.91 214.50 o
10 1 0 515.45 388.40 112.50 o
-10 -1 0 523.00 559.84 117.86 o
11 1 0 3749.63 3883.24 211.71 o
-11 -1 0 3730.26 3668.83 211.71 o
12 1 0 588.25 782.16 144.65 o
-12 -1 0 611.01 747.34 150.00 o
-10 2 0 77.53 163.38 125.89 <
10 -2 0 71.65 409.80 131.24 o
-9 2 0 1823.89 1797.73 158.07 o
9 -2 0 1810.36 1875.42 158.07 o
-8 2 0 3058.01 3290.82 182.23 o
8 -2 0 3134.62 3770.55 198.31 o
-7 2 0 13162.20 13130.50 206.76 o
7 -2 0 12991.60 12695.10 204.07 o
-6 2 0 624.57 725.95 58.93 o
6 -2 0 577.30 675.05 58.93 o
-5 2 0 15050.60 15027.90 209.73 o
5 -2 0 15183.30 15060.70 212.43 o
-4 2 0 19129.30 19431.50 247.88 o
4 -2 0 19140.80 19342.70 247.88 o
-3 2 0 1385.90 1653.46 61.64 o
3 -2 0 1299.74 1591.77 66.99 o
-2 2 0 900.83 766.36 37.51 o
2 -2 0 870.27 779.75 42.87 o
-1 2 0 13749.90 13630.80 167.55 o
1 -2 0 13699.50 13603.40 167.54 o
0 2 0 13190.10 13653.70 130.04 o
0 -2 0 13272.10 13497.50 238.41 o
1 2 0 202.24 278.61 21.43 o
-1 -2 0 207.39 300.05 37.51 o
2 2 0 12610.70 12652.90 151.63 o
-2 -2 0 12594.50 12628.40 154.34 o
3 2 0 46607.10 46011.00 505.01 o
-3 -2 0 46712.90 44813.60 513.32 o
4 2 0 794.53 712.74 32.15 o
-4 -2 0 807.26 811.88 61.63 o
5 2 0 9884.31 9434.18 110.23 o
-5 -2 0 9966.57 9423.72 201.65 o
6 2 0 22614.00 23751.60 237.35 o
-6 -2 0 22636.60 23341.80 415.37 o
7 2 0 687.61 683.12 40.18 o
-7 -2 0 782.71 699.21 88.41 o
8 2 0 16532.40 16626.20 188.17 o
-8 -2 0 16552.10 16247.30 346.77 o
9 2 0 3679.34 3736.34 117.93 o
-9 -2 0 3669.56 3940.04 179.58 o
10 2 0 2210.64 2617.80 176.84 o
-10 -2 0 2200.01 2505.26 171.48 o
11 2 0 10564.10 11039.90 313.89 o
-11 -2 0 10608.60 10964.80 316.58 o
12 2 0 6023.04 6701.95 260.04 o
-12 -2 0 6133.15 6653.81 265.40 o
-10 3 0 209.39 182.14 128.57 <
10 -3 0 223.41 235.71 128.57 <
-9 3 0 9003.81 9185.91 292.34 o
9 -3 0 8905.29 9301.10 292.34 o
-8 3 0 1448.74 1551.16 147.35 o
8 -3 0 1451.75 1347.56 141.99 o
-7 3 0 12555.10 12195.00 204.01 o
7 -3 0 12630.90 12176.40 204.01 o
-6 3 0 3413.24 3738.92 107.21 o
6 -3 0 3393.00 3594.17 112.57 o
-5 3 0 7613.56 7762.08 142.20 o
5 -3 0 7564.09 7732.49 142.20 o
-4 3 0 8798.06 9090.36 147.66 o
4 -3 0 8750.63 8835.20 147.66 o
-3 3 0 548.75 559.89 42.86 o
3 -3 0 593.11 543.82 45.54 o
-2 3 0 9167.00 9246.20 137.08 o
2 -3 0 9084.88 9256.66 137.08 o
-1 3 0 4624.75 5175.23 88.58 o
1 -3 0 4804.37 5181.03 91.27 o
0 3 0 85130.50 86112.10 969.10 o
0 -3 0 85763.30 85664.20 1376.88 o
1 3 0 46135.00 47800.90 755.94 o
-1 -3 0 46274.80 47289.20 767.05 o
2 3 0 15910.40 15443.80 186.72 o
-2 -3 0 15849.40 15789.60 184.01 o
3 3 0 86538.60 87081.20 981.00 o
-3 -3 0 86327.20 86683.30 989.32 o
4 3 0 16579.50 16098.50 197.05 o
-4 -3 0 16650.80 16479.60 205.15 o
5 3 0 752.31 894.85 48.23 o
-5 -3 0 840.12 870.77 50.91 o
6 3 0 868.86 959.14 53.58 o
-6 -3 0 871.41 1184.19 58.94 o
7 3 0 2834.05 2994.04 85.77 o
-7 -3 0 2876.67 3213.87 93.82 o
8 3 0 2944.15 2846.38 91.13 o
-8 -3 0 2948.33 2755.26 99.17 o
9 3 0 216.52 283.92 88.39 o
-9 -3 0 240.54 404.46 61.61 o
10 3 0 2101.36 2229.27 168.80 o
-10 -3 0 2222.02 2151.61 104.50 o
11 3 0 72.65 147.32 107.14 <
-11 -3 0 63.25 128.57 69.64 <
12 3 0 103.06 224.99 123.21 <
-12 -3 0 94.73 289.27 123.21 <
13 3 0 384.86 549.10 139.29 o
-13 -3 0 385.95 487.50 141.96 o
-9 4 0 9155.72 8769.97 292.33 o
9 -4 0 9094.38 8480.24 292.33 o
-8 4 0 2955.75 2923.46 182.21 o
8 -4 0 2974.50 3014.58 198.29 o
-7 4 0 97.32 83.03 58.93 <
7 -4 0 61.82 163.38 107.14 <
-6 4 0 545.53 514.31 64.29 o
6 -4 0 520.58 466.09 64.29 o
-5 4 0 7266.87 7521.30 147.53 o
5 -4 0 7426.44 7604.69 147.53 o
-4 4 0 40248.20 40126.90 475.77 o
4 -4 0 40165.80 39634.20 473.06 o
-3 4 0 1533.35 1551.44 75.03 o
3 -4 0 1548.24 1489.81 80.39 o
-2 4 0 27468.60 26910.20 324.15 o
2 -4 0 27461.40 26904.80 324.15 o
-1 4 0 75850.60 77811.00 842.24 o
1 -4 0 76004.60 76516.00 842.29 o
0 4 0 13310.70 13550.70 172.38 o
0 -4 0 13164.90 13638.70 180.45 o
1 4 0 14584.10 14808.10 145.63 o
-1 -4 0 14481.20 14610.50 280.45 o
2 4 0 612.56 610.86 37.51 o
-2 -4 0 609.50 643.01 69.66 o
3 4 0 4050.34 4596.86 85.87 o
-3 -4 0 4029.54 4529.72 83.19 o
4 4 0 12769.70 12508.10 164.26 o
-4 -4 0 12770.50 12645.40 169.65 o
5 4 0 28853.30 30055.50 351.84 o
-5 -4 0 28924.00 30876.30 362.68 o
6 4 0 19974.20 19848.70 250.64 o
-6 -4 0 19926.20 20640.80 261.41 o
7 4 0 8323.99 8165.76 134.22 o
-7 -4 0 8318.84 8431.50 144.95 o
8 4 0 39833.90 39165.50 462.20 o
-8 -4 0 39770.60 40081.20 481.12 o
9 4 0 86.70 66.96 80.35 <
-9 -4 0 69.78 123.21 53.57 <
10 4 0 7169.23 7267.85 233.32 o
-10 -4 0 7145.11 7294.64 158.23 o
11 4 0 2358.62 2521.36 179.52 o
-11 -4 0 2371.68 2716.96 115.22 o
12 4 0 33.88 214.27 117.85 <
-12 -4 0 62.96 200.88 117.85 <
13 4 0 2393.21 2644.51 190.23 o
-13 -4 0 2299.06 2360.46 190.23 o
-8 5 0 6542.59 6498.64 252.01 o
8 -5 0 6608.35 7134.10 268.10 o
-7 5 0 5816.55 5854.87 152.81 o
7 -5 0 5696.86 5774.34 241.27 o
-6 5 0 1314.75 1339.50 85.73 o
6 -5 0 1329.60 1529.71 139.31 o
-5 5 0 10510.80 9974.62 182.48 o
5 -5 0 10509.80 10167.80 179.79 o
-4 5 0 29.57 139.28 48.21 <
4 -5 0 23.57 48.21 50.89 <
-3 5 0 3813.29 3629.72 101.87 o
3 -5 0 3744.25 3643.07 104.55 o
-2 5 0 959.28 717.99 50.90 o
2 -5 0 884.73 787.63 56.26 o
-1 5 0 29.57 58.93 32.14 <
1 -5 0 37.97 117.85 40.18 <
0 5 0 25275.00 25131.10 299.79 o
0 -5 0 25263.40 25271.40 307.89 o
1 5 0 29334.90 30118.10 281.53 o
-1 -5 0 29223.20 30249.60 525.14 o
2 5 0 249.80 391.09 37.50 o
-2 -5 0 287.17 407.16 69.65 o
3 5 0 9375.22 9746.87 139.78 o
-3 -5 0 9372.16 9620.52 137.09 o
4 5 0 75487.40 77805.40 855.85 o
-4 -5 0 75357.30 79367.60 869.57 o
5 5 0 27525.30 27184.40 324.33 o
-5 -5 0 27251.20 27327.90 329.71 o
6 5 0 13621.70 14319.50 193.62 o
-6 -5 0 13634.60 14411.00 201.68 o
7 5 0 14992.90 14729.10 204.35 o
-7 -5 0 15020.00 14949.70 215.10 o
8 5 0 5621.09 5631.85 115.32 o
-8 -5 0 5691.26 5559.53 126.05 o
9 5 0 8894.21 8258.94 233.44 o
-9 -5 0 8755.37 8993.89 166.35 o
10 5 0 12651.30 12566.30 303.35 o
-10 -5 0 12710.40 12273.90 212.08 o
11 5 0 11160.80 11401.50 305.90 o
-11 -5 0 11252.60 11699.50 211.99 o
12 5 0 410.38 393.75 115.18 o
-12 -5 0 417.26 431.25 80.36 o
13 5 0 15164.00 14087.20 373.12 o
-13 -5 0 15265.60 14806.80 381.18 o
-7 6 0 4422.25 4524.08 144.73 o
7 -6 0 4503.07 4674.22 235.85 o
-6 6 0 114.86 184.81 64.28 <
6 -6 0 70.73 16.07 109.82 <
-5 6 0 9759.94 9483.45 182.43 o
5 -6 0 9599.22 9679.03 185.10 o
-4 6 0 8951.99 8654.49 166.33 o
4 -6 0 8891.22 8563.18 166.33 o
-3 6 0 630.99 728.62 61.61 o
3 -6 0 618.96 763.44 66.97 o
-2 6 0 13375.10 12520.90 190.73 o
2 -6 0 13227.00 12533.90 196.09 o
-1 6 0 24079.80 24738.20 307.14 o
1 -6 0 23926.90 24327.80 312.52 o
0 6 0 2027.17 2267.18 75.04 o
0 -6 0 1994.21 2350.24 80.40 o
1 6 0 14069.10 14684.60 158.68 o
-1 -6 0 13961.60 14778.30 303.90 o
2 6 0 19379.80 19395.30 247.90 o
-2 -6 0 19461.60 19010.50 374.55 o
3 6 0 766.87 897.49 48.22 o
-3 -6 0 738.01 819.79 83.05 o
4 6 0 24795.40 24736.60 302.29 o
-4 -6 0 24772.00 24739.10 299.59 o
5 6 0 162.93 128.57 34.82 o
-5 -6 0 160.52 214.28 37.50 o
6 6 0 3283.17 3643.19 93.83 o
-6 -6 0 3276.45 3594.93 96.51 o
7 6 0 23439.80 23139.40 293.62 o
-7 -6 0 23379.30 23793.60 307.08 o
8 6 0 833.30 977.80 58.94 o
-8 -6 0 828.11 910.83 69.65 o
9 6 0 4412.17 4541.20 115.27 o
-9 -6 0 4373.76 4645.71 123.31 o
10 6 0 421.23 353.58 96.43 o
-10 -6 0 397.34 356.26 66.97 o
11 6 0 1885.62 1870.11 147.36 o
-11 -6 0 1845.07 1596.82 96.45 o
12 6 0 25.20 233.02 112.49 <
-12 -6 0 54.56 75.00 69.64 <
13 6 0 3987.47 3885.96 219.76 o
-13 -6 0 4010.65 3910.09 209.04 o
-6 7 0 4646.95 4760.09 150.09 o
6 -7 0 4580.52 4591.19 233.18 o
-5 7 0 622.14 487.52 75.00 o
5 -7 0 623.52 506.27 120.54 o
-4 7 0 1987.41 1899.61 104.49 o
4 -7 0 1920.47 2159.48 112.53 o
-3 7 0 2418.58 2055.22 99.14 o
3 -7 0 2353.12 2366.02 107.18 o
-2 7 0 4974.56 5163.56 123.32 o
2 -7 0 5053.93 5276.24 131.37 o
-1 7 0 30268.30 29673.70 369.27 o
1 -7 0 30436.20 29863.40 377.37 o
0 7 0 3744.15 3637.71 96.51 o
0 -7 0 3657.00 3661.76 107.23 o
1 7 0 25527.80 24358.80 301.86 o
-1 -7 0 25547.60 24965.30 468.96 o
2 7 0 12474.70 12344.30 188.09 o
-2 -7 0 12523.30 12661.50 282.14 o
3 7 0 8157.39 8023.16 142.26 o
-3 -7 0 8057.86 8031.00 220.10 o
4 7 0 2120.76 2245.78 83.08 o
-4 -7 0 2123.66 2406.58 139.36 o
5 7 0 482.49 602.72 48.22 o
-5 -7 0 501.07 650.94 48.22 o
6 7 0 25220.80 26068.00 328.78 o
-6 -7 0 25178.00 26609.40 328.78 o
7 7 0 4856.41 4569.06 109.94 o
-7 -7 0 4912.82 4563.75 112.62 o
8 7 0 72.88 85.71 45.53 <
-8 -7 0 96.42 120.53 53.57 <
9 7 0 13201.80 13093.00 201.39 o
-9 -7 0 13209.10 13318.60 214.82 o
10 7 0 11126.20 10764.20 276.42 o
-10 -7 0 11017.40 10487.60 193.22 o
11 7 0 47.13 208.92 99.10 <
-11 -7 0 77.51 75.00 66.96 <
12 7 0 7884.03 7886.72 270.85 o
-12 -7 0 8079.10 8812.15 187.72 o
13 7 0 4500.78 4762.66 233.18 o
-13 -7 0 4548.01 4861.86 155.45 o
-5 8 0 13151.60 12832.60 348.86 o
5 -8 0 13171.20 13146.60 351.54 o
-4 8 0 272.84 297.32 104.46 <
4 -8 0 219.88 313.39 109.82 <
-3 8 0 130.93 125.89 88.39 <
3 -8 0 147.44 69.64 64.28 <
-2 8 0 1040.22 1106.38 117.87 o
2 -8 0 1082.67 1347.49 85.73 o
-1 8 0 6962.81 7050.56 227.96 o
1 -8 0 6867.18 7222.07 155.54 o
0 8 0 18919.40 19332.20 408.64 o
0 -8 0 18743.80 19022.40 271.52 o
1 8 0 32.48 117.85 69.64 <
-1 -8 0 38.22 101.78 53.57 <
2 8 0 633.58 642.91 58.93 o
-2 -8 0 680.86 817.04 104.47 o
3 8 0 5512.19 5379.64 123.36 o
-3 -8 0 5524.71 5433.29 193.09 o
4 8 0 39032.40 40274.90 481.04 o
-4 -8 0 39080.60 40045.60 726.97 o
5 8 0 4199.78 3630.04 104.56 o
-5 -8 0 4237.73 3689.05 174.26 o
6 8 0 16002.40 15594.90 223.09 o
-6 -8 0 15985.50 15076.10 352.11 o
7 8 0 28902.30 28029.20 355.69 o
-7 -8 0 28930.20 28406.70 358.38 o
8 8 0 17476.00 17361.90 247.26 o
-8 -8 0 17440.30 17458.60 252.63 o
9 8 0 804.62 680.42 61.61 o
-9 -8 0 645.19 691.11 69.65 o
10 8 0 4340.50 4671.94 187.63 o
-10 -8 0 4356.66 4478.97 131.34 o
11 8 0 2093.03 2154.17 152.72 o
-11 -8 0 2051.05 2111.28 107.17 o
12 8 0 2568.76 2540.13 184.88 o
-12 -8 0 2573.55 2904.53 120.58 o
13 8 0 7896.57 7851.38 276.19 o
-13 -8 0 7978.82 8052.59 187.71 o
-4 9 0 2762.65 3025.13 198.28 o
4 -9 0 2829.04 3019.80 211.68 o
-3 9 0 257.56 238.39 109.82 <
3 -9 0 244.92 441.95 83.03 o
-2 9 0 7876.54 8385.73 270.85 o
2 -9 0 7844.52 8353.51 185.04 o
-1 9 0 433.87 383.04 99.11 o
1 -9 0 396.67 538.40 75.00 o
0 9 0 13446.80 13211.40 335.59 o
0 -9 0 13472.80 14000.70 228.20 o
1 9 0 291.25 286.61 83.04 o
-1 -9 0 199.35 141.96 61.61 <
2 9 0 12163.80 12062.20 303.37 o
-2 -9 0 12196.60 12158.90 308.74 o
3 9 0 3016.21 3266.94 109.88 o
-3 -9 0 3030.06 3157.07 160.80 o
4 9 0 9050.33 9115.19 169.05 o
-4 -9 0 8998.44 8790.42 254.91 o
5 9 0 62.14 224.99 50.89 o
-5 -9 0 53.07 171.42 88.39 <
6 9 0 146.45 195.53 50.89 o
-6 -9 0 136.83 270.53 91.07 <
7 9 0 4551.44 4801.23 123.32 o
-7 -9 0 4615.10 4951.41 198.38 o
8 9 0 5584.73 5716.23 134.06 o
-8 -9 0 5550.45 5442.72 211.81 o
9 9 0 15898.50 15994.10 241.72 o
-9 -9 0 15782.80 15515.70 378.69 o
10 9 0 1691.84 1618.21 131.28 o
-10 -9 0 1683.65 1749.49 147.35 o
11 9 0 2261.85 2277.46 166.12 o
-11 -9 0 2268.44 2122.06 109.85 o
12 9 0 9918.00 9656.56 292.38 o
-12 -9 0 9998.53 9731.79 198.50 o
13 9 0 8197.39 8248.52 278.88 o
-13 -9 0 8300.86 8385.41 193.08 o
-3 10 0 150.67 302.67 125.89 <
3 -10 0 166.07 299.99 123.21 <
-2 10 0 5591.32 5243.28 233.21 o
2 -10 0 5412.39 5259.22 158.15 o
-1 10 0 3780.90 3687.62 201.00 o
1 -10 0 3867.60 3869.91 142.04 o
0 10 0 218.49 495.52 107.14 o
0 -10 0 198.19 466.06 77.68 o
1 10 0 2033.90 1958.58 150.04 o
-1 -10 0 2036.84 1990.73 104.49 o
2 10 0 3715.86 4103.26 195.65 o
-2 -10 0 3808.24 3923.76 125.97 o
3 10 0 9163.57 9620.32 182.43 o
-3 -10 0 9304.38 9175.21 279.01 o
4 10 0 314.31 316.07 61.61 o
-4 -10 0 319.07 356.25 104.46 o
5 10 0 11004.10 10528.30 190.55 o
-5 -10 0 10974.30 10823.50 305.95 o
6 10 0 6453.54 6239.90 144.80 o
-6 -10 0 6462.38 5923.49 222.57 o
7 10 0 1634.08 1896.86 101.81 o
-7 -10 0 1632.39 1945.09 158.07 o
8 10 0 1770.71 1870.10 99.13 o
-8 -10 0 1815.93 1966.57 160.76 o
9 10 0 489.65 562.51 66.97 o
-9 -10 0 501.22 439.30 123.22 o
10 10 0 221.22 423.20 101.78 o
-10 -10 0 228.47 393.74 123.21 o
11 10 0 1593.68 2210.23 168.78 o
-11 -10 0 1670.66 1979.85 168.78 o
12 10 0 531.16 715.19 128.57 o
-12 -10 0 545.71 492.87 133.93 o
13 10 0 166.94 407.13 131.24 o
-13 -10 0 159.42 227.67 128.57 <
-1 11 0 458.84 549.11 131.25 o
1 -11 0 408.97 466.07 88.39 o
0 11 0 2276.79 2218.47 176.84 o
0 -11 0 2304.32 2443.55 128.61 o
1 11 0 3761.71 4108.36 211.72 o
-1 -11 0 3836.77 4103.05 142.04 o
2 11 0 1886.07 1888.84 158.07 o
-2 -11 0 1852.00 1958.49 109.85 o
3 11 0 1705.55 1695.90 147.35 o
-3 -11 0 1613.41 1845.91 104.49 o
4 11 0 23.56 45.53 58.93 <
-4 -11 0 54.59 128.57 112.49 <
5 11 0 1950.92 1661.15 91.10 o
-5 -11 0 1941.46 1647.75 155.40 o
6 11 0 11657.40 12140.40 214.68 o
-6 -11 0 11643.30 11912.30 335.45 o
7 11 0 2124.33 2357.82 112.53 o
-7 -11 0 2066.00 1974.66 166.12 o
8 11 0 176.89 198.21 64.28 o
-8 -11 0 161.73 174.10 112.50 <
9 11 0 9944.72 10285.00 193.15 o
-9 -11 0 9927.73 10051.60 313.86 o
10 11 0 3874.30 3872.59 131.32 o
-10 -11 0 3914.50 3894.05 222.44 o
11 11 0 2237.72 2598.92 171.48 o
-11 -11 0 2237.20 2264.01 190.23 o
12 11 0 1662.44 1792.29 158.06 o
-12 -11 0 1654.73 1634.22 176.82 o
0 12 0 2803.66 2666.08 203.64 o
0 -12 0 2812.22 2717.00 144.69 o
1 12 0 1219.51 1117.10 150.02 o
-1 -12 0 1230.72 1200.14 104.48 o
2 12 0 695.30 559.85 125.90 o
-2 -12 0 711.02 541.10 88.40 o
3 12 0 8308.09 7924.54 284.26 o
-3 -12 0 8299.17 8224.88 190.40 o
4 12 0 4229.14 4591.07 219.77 o
-4 -12 0 4299.87 4178.37 227.81 o
5 12 0 6587.59 7104.96 171.59 o
-5 -12 0 6586.90 7008.44 273.47 o
6 12 0 210.07 155.35 66.96 <
-6 -12 0 267.82 206.25 131.25 <
7 12 0 345.20 385.71 72.32 o
-7 -12 0 357.45 404.46 136.61 <
8 12 0 65.81 93.75 66.96 <
-8 -12 0 38.82 125.89 128.57 <
9 12 0 378.39 508.93 75.00 o
-9 -12 0 356.85 273.21 136.61 <
10 12 0 6736.20 6230.78 163.54 o
-10 -12 0 6772.96 5839.38 270.79 o
11 12 0 820.49 1036.67 133.94 o
-11 -12 0 871.91 889.34 163.40 o
3 13 0 233.89 377.67 125.89 o
-3 -13 0 233.83 251.78 88.39 <
4 13 0 8772.56 8697.07 305.73 o
-4 -13 0 8682.89 9123.36 209.18 o
5 13 0 7702.53 7733.18 281.55 o
-5 -13 0 7721.42 7789.51 300.32 o
6 13 0 3727.93 3633.90 142.03 o
-6 -13 0 3738.66 3655.35 230.47 o
7 13 0 3859.75 3526.78 136.68 o
-7 -13 0 3787.33 3542.82 230.47 o
8 13 0 14151.00 13685.30 246.92 o
-8 -13 0 14083.50 13277.20 397.21 o
9 13 0 3216.91 3697.92 139.34 o
-9 -13 0 3271.32 3577.37 238.49 o
10 13 0 158.36 230.35 77.68 <
-10 -13 0 185.31 385.70 149.99 <
-10 -13 1 603.40 222.33 150.00 <
10 13 -1 592.53 490.19 83.04 o
-9 -13 1 481.06 254.47 147.32 <
9 13 -1 460.45 369.65 80.36 o
-8 -13 1 26.75 45.53 136.60 <
8 13 -1 24.61 144.63 75.00 <
-7 -13 1 500.37 396.43 150.00 <
7 13 -1 505.46 436.61 80.36 o
-6 -13 1 1128.92 675.07 152.70 o
6 13 -1 1118.50 825.09 91.08 o
-5 -13 1 34.14 48.21 139.28 <
5 13 -1 24.89 182.13 120.53 <
-4 -13 1 1908.38 2065.62 198.26 o
4 13 -1 1931.24 1738.77 174.15 o
-3 -13 1 619.03 530.37 150.00 o
3 13 -1 743.86 632.17 144.65 o
-11 -12 1 774.64 677.71 152.69 o
11 12 -1 811.25 723.26 120.54 o
-10 -12 1 4111.43 4566.76 246.56 o
10 12 -1 4076.15 4459.54 150.08 o
-9 -12 1 3869.04 3754.62 214.40 o
9 12 -1 3831.39 3671.52 136.68 o
-8 -12 1 2492.55 2625.83 195.60 o
8 12 -1 2652.84 2700.92 123.26 o
-7 -12 1 411.17 495.54 133.93 o
7 12 -1 431.28 565.18 77.68 o
-6 -12 1 2092.89 2277.38 192.91 o
6 12 -1 2049.87 2261.29 112.53 o
-5 -12 1 1270.09 1165.34 163.41 o
5 12 -1 1345.88 1524.33 99.12 o
-4 -12 1 220.94 281.24 80.36 o
4 12 -1 244.67 128.57 107.14 <
-3 -12 1 1333.16 1717.20 107.16 o
3 12 -1 1353.08 1773.47 163.42 o
-2 -12 1 2232.69 2119.32 112.53 o
2 12 -1 2245.57 2261.32 182.19 o
-1 -12 1 855.74 835.77 152.69 o
1 12 -1 808.51 691.11 139.29 o
-12 -11 1 1682.16 1607.44 176.82 o
12 11 -1 1599.97 1644.92 152.71 o
-11 -11 1 601.47 543.77 141.97 o
11 11 -1 580.14 608.05 112.50 o
-10 -11 1 1633.12 1350.25 155.39 o
10 11 -1 1579.58 1435.97 93.77 o
-9 -11 1 15900.60 15667.20 408.12 o
9 11 -1 15667.30 15073.20 249.70 o
-8 -11 1 1886.41 1500.36 166.11 o
8 11 -1 1956.33 1661.13 91.09 o
-7 -11 1 4080.86 3942.55 219.77 o
7 11 -1 4012.20 4181.04 134.01 o
-6 -11 1 11973.40 11604.20 332.77 o
6 11 -1 11744.60 11413.20 206.63 o
-5 -11 1 4980.52 5385.32 227.85 o
5 11 -1 4930.11 5374.55 144.75 o
-4 -11 1 3306.33 3593.68 206.35 o
4 11 -1 3426.01 3427.60 128.63 o
-3 -11 1 880.66 833.10 85.72 o
3 11 -1 835.03 1004.54 125.90 o
-2 -11 1 479.80 693.76 85.72 o
2 11 -1 454.51 396.43 112.50 o
-1 -11 1 21136.70 21893.50 327.81 o
1 11 -1 21049.50 21871.70 494.40 o
0 -11 1 1678.82 1883.39 112.52 o
0 11 -1 1671.06 1888.75 168.78 o
1 -11 1 658.07 822.35 93.75 o
-1 11 -1 665.96 720.56 133.93 o
-13 -10 1 56.21 -16.07 120.53 <
13 10 -1 108.73 -40.18 115.17 <
-12 -10 1 1168.19 959.04 147.34 o
12 10 -1 1210.98 857.24 131.27 o
-11 -10 1 21813.60 22933.00 513.26 o
11 10 -1 21896.00 22497.90 462.21 o
-10 -10 1 1734.25 1551.23 152.71 o
10 10 -1 1714.14 1736.08 93.77 o
-9 -10 1 521.32 358.94 123.22 <
9 10 -1 478.14 433.94 66.97 o
-8 -10 1 6256.04 6220.51 233.27 o
8 10 -1 6073.58 6091.63 147.46 o
-7 -10 1 7480.27 7292.12 262.83 o
7 10 -1 7459.96 7702.43 158.23 o
-6 -10 1 15578.10 15303.90 384.08 o
6 10 -1 15818.00 15210.50 239.05 o
-5 -10 1 1255.39 1205.56 141.99 o
5 10 -1 1234.51 1315.39 80.37 o
-4 -10 1 463.47 591.98 120.54 o
4 10 -1 432.74 575.90 64.29 o
-3 -10 1 21826.70 21568.10 478.58 o
3 10 -1 21619.80 22242.20 467.80 o
-2 -10 1 8590.81 8406.39 177.03 o
2 10 -1 8549.98 8631.64 268.23 o
-1 -10 1 2166.18 2502.53 117.89 o
1 10 -1 2223.24 2154.23 171.48 o
0 -10 1 728.17 522.35 75.00 o
0 10 -1 740.41 608.07 112.51 o
1 -10 1 2196.84 2014.84 109.85 o
-1 10 -1 2170.53 2140.76 166.12 o
2 -10 1 2510.18 2636.53 136.65 o
-2 10 -1 2496.46 2572.22 187.56 o
3 -10 1 502.02 460.72 88.39 o
-3 10 -1 483.76 233.04 117.86 <
-13 -9 1 939.22 608.08 88.40 o
13 9 -1 955.47 776.85 133.94 o
-12 -9 1 1376.25 1468.07 101.80 o
12 9 -1 1445.04 1521.67 147.34 o
-11 -9 1 519.96 482.15 75.00 o
11 9 -1 496.99 313.40 107.14 <
-10 -9 1 313.59 428.57 72.32 o
10 9 -1 346.80 450.00 66.96 o
-9 -9 1 2483.31 2575.06 109.86 o
9 9 -1 2572.78 2532.23 109.86 o
-8 -9 1 421.11 439.29 112.50 o
8 9 -1 514.78 715.20 64.29 o
-7 -9 1 658.84 774.16 112.51 o
7 9 -1 789.48 755.43 64.29 o
-6 -9 1 2211.70 2154.38 150.06 o
6 9 -1 2256.16 2178.51 99.15 o
-5 -9 1 1734.77 1926.45 144.68 o
5 9 -1 1807.39 1974.70 96.46 o
-4 -9 1 2680.09 2540.49 166.15 o
4 9 -1 2871.15 2401.23 99.16 o
-3 -9 1 8311.61 8552.68 249.50 o
3 9 -1 8241.02 8364.77 163.65 o
-2 -9 1 2695.73 2642.27 104.51 o
2 9 -1 2788.40 2360.93 163.47 o
-1 -9 1 1566.16 1803.09 91.09 o
1 9 -1 1586.00 1441.40 125.92 o
0 -9 1 2277.03 2588.37 107.18 o
0 9 -1 2284.55 2558.90 168.81 o
1 -9 1 703.11 677.72 77.68 o
-1 9 -1 675.19 672.36 109.83 o
2 -9 1 25514.30 25626.60 360.33 o
-2 9 -1 25161.40 24611.40 527.02 o
3 -9 1 4218.38 4105.91 147.40 o
-3 9 -1 4298.26 4285.52 206.37 o
4 -9 1 1524.82 1406.48 150.02 o
-4 9 -1 1589.40 1328.80 144.67 o
-13 -8 1 361.20 291.96 83.04 o
13 8 -1 335.74 350.89 128.57 <
-12 -8 1 674.62 616.10 80.36 o
12 8 -1 668.13 776.82 128.58 o
-11 -8 1 2017.79 2060.36 109.85 o
11 8 -1 1970.08 2172.88 152.72 o
-10 -8 1 7476.62 7683.39 163.59 o
10 8 -1 7411.92 7490.21 158.23 o
-9 -8 1 730.54 744.70 69.65 o
9 8 -1 711.35 658.97 66.97 o
-8 -8 1 928.26 889.39 69.65 o
8 8 -1 969.55 945.66 66.97 o
-7 -8 1 1030.81 1050.16 69.65 o
7 8 -1 1037.23 1168.04 66.97 o
-6 -8 1 15426.10 15447.00 220.36 o
6 8 -1 15276.70 14828.40 217.67 o
-5 -8 1 2637.57 2781.83 88.44 o
5 8 -1 2675.66 2899.78 96.48 o
-4 -8 1 1931.58 2031.13 139.34 o
4 8 -1 1932.33 2033.81 91.11 o
-3 -8 1 5414.16 5669.03 195.76 o
3 8 -1 5335.09 5816.42 128.72 o
-2 -8 1 1230.77 1291.34 115.20 o
2 8 -1 1300.58 1326.19 107.17 o
-1 -8 1 12478.00 12218.20 196.03 o
1 8 -1 12549.00 11654.40 292.70 o
0 -8 1 3123.65 3604.65 112.56 o
0 8 -1 3214.93 3331.35 168.85 o
1 -8 1 63.67 254.45 61.60 o
-1 8 -1 99.08 104.46 80.35 <
2 -8 1 5461.58 5785.38 144.77 o
-2 8 -1 5379.01 5841.60 214.47 o
3 -8 1 1553.03 1591.37 96.45 o
-3 8 -1 1585.92 1717.30 136.63 o
4 -8 1 1356.98 1500.22 99.12 o
-4 8 -1 1438.72 1669.01 141.99 o
5 -8 1 616.03 626.80 128.57 o
-5 8 -1 627.16 725.92 120.54 o
-13 -7 1 67.37 289.27 112.50 <
13 7 -1 69.14 50.89 117.85 <
-12 -7 1 234.28 399.10 75.00 o
12 7 -1 306.07 380.35 120.53 o
-11 -7 1 5651.00 5814.80 150.13 o
11 7 -1 5731.65 5699.60 222.51 o
-10 -7 1 13460.40 13453.10 222.83 o
10 7 -1 13240.40 13388.10 314.10 o
-9 -7 1 6257.76 6127.44 139.44 o
9 7 -1 6406.56 6114.20 136.76 o
-8 -7 1 14794.90 14593.50 222.99 o
8 7 -1 14623.70 14139.00 214.92 o
-7 -7 1 1376.59 1318.19 75.02 o
7 7 -1 1144.61 1505.65 75.01 o
-6 -7 1 2957.50 3001.95 88.45 o
6 7 -1 2730.26 2964.27 96.49 o
-5 -7 1 9210.65 9428.50 150.34 o
5 7 -1 9276.86 9020.58 150.34 o
-4 -7 1 566.45 597.38 48.22 o
4 7 -1 569.17 562.55 48.22 o
-3 -7 1 35281.80 35920.20 637.91 o
3 7 -1 35163.40 34700.00 416.25 o
-2 -7 1 9799.25 9354.73 241.65 o
2 7 -1 9827.49 9685.06 120.83 o
-1 -7 1 12938.60 13498.20 201.51 o
1 7 -1 13036.60 13283.50 190.76 o
0 -7 1 1066.22 1184.14 69.66 o
0 7 -1 884.16 1098.37 61.62 o
1 -7 1 824.25 889.39 66.97 o
-1 7 -1 793.79 910.81 61.61 o
2 -7 1 875.26 1012.61 72.33 o
-2 7 -1 999.83 835.82 64.29 o
3 -7 1 4163.68 4095.60 128.66 o
-3 7 -1 4218.06 4151.92 120.62 o
4 -7 1 4356.08 4612.81 136.70 o
-4 7 -1 4358.87 4596.73 131.34 o
5 -7 1 307.11 259.82 72.32 o
-5 7 -1 319.49 308.03 66.96 o
6 -7 1 294.78 -26.79 115.18 <
-6 7 -1 286.81 283.92 75.00 o
-13 -6 1 987.32 1336.72 150.01 o
13 6 -1 951.65 1312.60 158.05 o
-12 -6 1 3027.60 3060.16 123.26 o
12 6 -1 2995.54 3210.21 195.61 o
-11 -6 1 9619.77 9665.51 187.78 o
11 6 -1 9586.48 9415.98 276.31 o
-10 -6 1 603.06 522.35 69.65 o
10 6 -1 579.41 728.60 109.83 o
-9 -6 1 5025.21 5142.25 126.01 o
9 6 -1 5058.83 5171.78 126.01 o
-8 -6 1 3725.93 3822.50 109.90 o
8 6 -1 3769.56 3811.82 107.22 o
-7 -6 1 8839.88 9174.23 161.05 o
7 6 -1 8949.17 9126.16 153.00 o
-6 -6 1 325.21 246.43 48.22 o
6 6 -1 291.68 308.04 42.86 o
-5 -6 1 6511.53 6772.90 123.44 o
5 6 -1 6620.89 6730.18 120.76 o
-4 -6 1 6832.63 6964.81 120.78 o
4 6 -1 7153.94 6705.12 118.11 o
-3 -6 1 36094.00 36029.20 414.35 o
3 6 -1 36409.10 35285.10 414.39 o
-2 -6 1 1457.87 1672.07 120.58 o
2 6 -1 1574.14 1763.23 56.27 o
-1 -6 1 14625.10 13986.00 298.55 o
1 6 -1 14743.50 14051.00 190.97 o
0 -6 1 121.42 112.50 42.86 <
0 6 -1 85.34 58.93 34.82 <
1 -6 1 1305.28 1347.67 66.98 o
-1 6 -1 1080.22 1342.23 66.98 o
2 -6 1 22414.20 21867.90 290.67 o
-2 6 -1 22320.60 21552.50 285.29 o
3 -6 1 3386.17 3433.33 112.57 o
-3 6 -1 3433.72 3044.73 101.85 o
4 -6 1 18962.80 18565.00 274.12 o
-4 6 -1 18950.60 18532.70 268.74 o
5 -6 1 16844.20 16383.40 255.15 o
-5 6 -1 16619.90 16068.60 252.46 o
6 -6 1 1192.48 1291.23 93.76 o
-6 6 -1 1173.12 1226.93 88.40 o
7 -6 1 1323.78 1074.25 141.98 o
-7 6 -1 1374.98 1221.60 141.98 o
-13 -5 1 430.73 310.72 120.54 <
13 5 -1 435.70 211.61 125.89 <
-12 -5 1 1272.03 1117.12 136.63 o
12 5 -1 1298.87 1336.79 147.34 o
-11 -5 1 3528.03 3701.03 123.28 o
11 5 -1 3425.29 3475.85 195.63 o
-10 -5 1 1379.18 1307.39 83.05 o
10 5 -1 1384.75 1390.44 125.92 o
-9 -5 1 4939.86 5002.84 123.33 o
9 5 -1 5097.56 4919.88 123.33 o
-8 -5 1 1483.45 1832.64 88.42 o
8 5 -1 1437.78 1446.81 77.70 o
-7 -5 1 9960.43 9867.97 163.79 o
7 5 -1 10035.90 9787.60 155.74 o
-6 -5 1 19836.10 19676.80 258.59 o
6 5 -1 19930.50 19779.70 250.51 o
-5 -5 1 735.76 790.32 50.90 o
5 5 -1 639.84 841.20 45.54 o
-4 -5 1 2404.34 2361.67 72.38 o
4 5 -1 2445.32 2388.51 72.38 o
-3 -5 1 15974.50 15874.10 204.76 o
3 5 -1 15913.10 15809.10 202.06 o
-2 -5 1 28164.40 29570.90 343.69 o
2 5 -1 28237.70 29138.70 343.70 o
-1 -5 1 2184.39 2181.90 115.26 o
1 5 -1 2087.11 2096.05 53.61 o
0 -5 1 1513.57 1629.27 72.35 o
0 5 -1 1425.62 1639.94 69.67 o
1 -5 1 11923.50 11669.40 172.00 o
-1 5 -1 11896.30 11725.70 169.32 o
2 -5 1 9964.96 10155.30 163.79 o
-2 5 -1 10103.70 10220.10 158.43 o
3 -5 1 1044.29 1114.48 66.98 o
-3 5 -1 1075.67 1074.30 61.62 o
4 -5 1 844.74 969.75 69.65 o
-4 5 -1 883.65 750.09 58.94 o
5 -5 1 940.72 1007.25 75.01 o
-5 5 -1 922.31 977.78 72.33 o
6 -5 1 5352.30 5575.99 147.44 o
-6 5 -1 5393.46 5710.06 142.08 o
7 -5 1 2630.33 2411.54 166.13 o
-7 5 -1 2688.11 2556.25 174.17 o
8 -5 1 195.19 270.53 125.89 <
-8 5 -1 206.61 265.17 120.53 <
-13 -4 1 96.75 208.92 125.89 <
13 4 -1 94.87 72.32 123.21 <
-12 -4 1 6057.99 5863.05 238.60 o
12 4 -1 6289.18 6369.95 252.01 o
-11 -4 1 3367.65 3497.24 187.59 o
11 4 -1 3347.42 3679.46 203.67 o
-10 -4 1 12129.70 11767.50 201.32 o
10 4 -1 12226.40 11673.80 300.64 o
-9 -4 1 5321.77 5472.44 131.38 o
9 4 -1 5512.91 5885.57 131.39 o
-8 -4 1 2696.29 2634.49 93.80 o
8 4 -1 2706.11 2543.37 96.48 o
-7 -4 1 28573.90 29069.10 358.88 o
7 4 -1 28326.10 28468.30 348.06 o
-6 -4 1 2716.83 2836.09 85.78 o
6 4 -1 2769.09 3039.86 88.46 o
-5 -4 1 2237.21 2334.73 77.73 o
5 4 -1 2200.76 2211.40 72.37 o
-4 -4 1 3113.50 3314.66 80.45 o
4 4 -1 2988.72 3019.51 77.77 o
-3 -4 1 5500.93 5662.58 96.66 o
3 4 -1 5525.26 5606.26 96.66 o
-2 -4 1 16056.60 15752.50 196.97 o
2 4 -1 16268.40 16023.90 196.99 o
-1 -4 1 1850.63 2136.45 61.65 o
1 4 -1 2047.02 2190.26 67.02 o
0 -4 1 5547.31 5403.67 99.32 o
0 4 -1 5413.95 5279.90 96.63 o
1 -4 1 2628.18 2608.50 77.75 o
-1 4 -1 2548.76 2788.04 75.06 o
2 -4 1 5651.61 5392.80 110.00 o
-2 4 -1 5677.70 5489.43 104.64 o
3 -4 1 1251.57 1339.64 64.30 o
-3 4 -1 1233.62 1291.41 72.34 o
4 -4 1 937.83 1119.82 66.97 o
-4 4 -1 915.20 1117.13 61.62 o
5 -4 1 945.00 1173.37 72.33 o
-5 4 -1 1120.80 991.23 64.30 o
6 -4 1 1527.77 1687.86 88.41 o
-6 4 -1 1477.04 1468.16 83.05 o
7 -4 1 3431.35 3325.76 120.60 o
-7 4 -1 3598.67 3199.89 115.24 o
8 -4 1 82.05 88.39 109.82 <
-8 4 -1 101.77 96.42 109.82 <
9 -4 1 1532.65 1535.07 160.74 o
-9 4 -1 1471.38 1470.76 166.10 o
-13 -3 1 541.50 672.33 144.65 o
13 3 -1 518.29 570.54 147.32 o
-12 -3 1 5460.36 5819.56 238.57 o
12 3 -1 5489.58 5433.58 241.25 o
-11 -3 1 615.02 356.26 112.50 o
11 3 -1 713.34 420.56 117.86 o
-10 -3 1 13261.10 12843.20 214.77 o
10 3 -1 13377.80 12878.40 319.48 o
-9 -3 1 1033.37 1012.65 72.33 o
9 3 -1 1073.55 1210.90 72.33 o
-8 -3 1 7022.43 6819.23 136.81 o
8 3 -1 7013.89 7020.42 136.81 o
-7 -3 1 1214.15 1283.37 69.66 o
7 3 -1 1195.57 1176.19 61.62 o
-6 -3 1 31776.00 32569.00 386.76 o
6 3 -1 32020.20 31973.60 378.67 o
-5 -3 1 18107.30 18361.80 231.88 o
5 3 -1 18340.80 17834.90 226.51 o
-4 -3 1 885.16 1098.58 58.95 o
4 3 -1 1131.57 1165.70 45.56 o
-3 -3 1 653.60 876.14 40.19 o
3 3 -1 691.22 910.99 40.19 o
-2 -3 1 49994.30 50617.00 573.56 o
2 3 -1 49791.20 48976.10 554.20 o
-1 -3 1 75463.80 77183.80 844.98 o
1 3 -1 75431.40 75053.20 850.56 o
0 -3 1 402.66 717.97 40.18 o
0 3 -1 418.31 776.91 37.51 o
1 -3 1 9946.08 9975.49 142.58 o
-1 3 -1 9899.08 9905.33 137.20 o
2 -3 1 10436.20 11432.50 161.32 o
-2 3 -1 10373.00 11386.50 158.63 o
3 -3 1 35357.70 34803.10 411.55 o
-3 3 -1 35452.40 34961.20 406.15 o
4 -3 1 35776.00 36087.20 427.13 o
-4 3 -1 35758.70 35313.90 421.72 o
5 -3 1 5168.84 5483.70 126.03 o
-5 3 -1 5142.90 5338.86 117.99 o
6 -3 1 11665.00 11516.70 193.29 o
-6 3 -1 11588.50 11470.80 185.23 o
7 -3 1 18290.60 18078.00 271.38 o
-7 3 -1 18186.20 18496.80 266.01 o
8 -3 1 508.47 441.97 72.32 o
-8 3 -1 478.83 511.62 112.50 o
9 -3 1 3942.26 4545.26 222.44 o
-9 3 -1 3935.33 4400.53 217.08 o
10 -3 1 826.57 945.59 144.65 o
-10 3 -1 979.76 825.07 150.01 o
-12 -2 1 7175.44 6976.55 268.12 o
12 2 -1 7026.71 6657.34 262.75 o
-11 -2 1 9142.41 8398.04 278.95 o
11 2 -1 9096.63 8668.89 276.27 o
-10 -2 1 3625.20 3352.76 182.24 o
10 2 -1 3458.56 3784.14 195.64 o
-9 -2 1 1910.92 1872.89 93.78 o
9 2 -1 1960.52 1899.70 93.78 o
-8 -2 1 6934.95 6808.04 136.80 o
8 2 -1 6963.85 6773.21 139.49 o
-7 -2 1 12605.40 12521.30 188.09 o
7 2 -1 12647.30 12400.50 188.09 o
-6 -2 1 12942.60 13170.20 185.53 o
6 2 -1 13003.80 13272.60 188.23 o
-5 -2 1 23927.90 23894.50 291.82 o
5 2 -1 23985.90 24335.40 291.83 o
-4 -2 1 21182.60 21085.50 254.24 o
4 2 -1 21282.10 20921.50 254.25 o
-3 -2 1 90584.70 92352.40 1021.62 o
3 2 -1 90906.50 88578.30 1002.05 o
-2 -2 1 548.44 -26.80 26.80 <
2 2 -1 518.67 -24.11 24.11 <
-1 -2 1 413.88 468.88 29.47 o
1 2 -1 415.12 466.20 26.79 o
0 -2 1 312.90 206.29 21.43 o
0 2 -1 316.01 243.79 42.86 o
1 -2 1 56101.70 55602.80 611.57 o
-1 2 -1 56245.70 55770.70 653.13 o
2 -2 1 11885.40 12824.70 169.67 o
-2 2 -1 11804.70 12589.90 164.27 o
3 -2 1 33743.50 34396.10 398.63 o
-3 2 -1 33552.10 34100.80 393.18 o
4 -2 1 1179.81 1307.53 64.30 o
-4 2 -1 1242.41 1296.84 66.99 o
5 -2 1 7697.22 8010.65 142.23 o
-5 2 -1 7763.09 8064.45 136.87 o
6 -2 1 898.98 766.18 61.62 o
-6 2 -1 932.92 707.24 56.26 o
7 -2 1 1547.14 1588.77 85.73 o
-7 2 -1 1576.90 1484.29 80.38 o
8 -2 1 9431.98 9351.90 179.74 o
-8 2 -1 9416.31 9139.94 270.95 o
9 -2 1 439.28 525.01 120.54 o
-9 2 -1 437.74 626.79 125.89 o
10 -2 1 2294.19 2261.34 176.84 o
-10 2 -1 2336.49 2395.32 192.91 o
-12 -1 1 456.62 452.68 136.61 o
12 1 -1 457.28 388.40 139.29 <
-11 -1 1 1209.06 1593.95 160.73 o
11 1 -1 1175.90 1652.88 160.73 o
-10 -1 1 808.40 768.81 125.90 o
10 1 -1 771.11 1001.85 128.58 o
-9 -1 1 1894.42 2226.53 160.76 o
9 1 -1 1972.15 2491.82 171.48 o
-8 -1 1 1156.98 1216.29 56.26 o
8 1 -1 1162.06 1119.85 115.20 o
-7 -1 1 5023.03 4982.50 115.31 o
7 1 -1 4775.43 4901.76 182.34 o
-6 -1 1 2022.84 2098.41 80.40 o
6 1 -1 2048.94 2331.59 134.00 o
-5 -1 1 1611.54 1449.84 53.60 o
5 1 -1 1556.21 1605.25 96.48 o
-4 -1 1 2128.47 2072.38 53.62 o
4 1 -1 1999.15 2152.68 112.59 o
-3 -1 1 36205.00 36846.60 339.25 o
3 1 -1 36059.80 37108.80 571.75 o
-2 -1 1 422.16 383.15 29.47 o
2 1 -1 409.17 391.18 32.15 o
-1 -1 1 465.24 300.14 21.44 o
1 1 -1 465.98 377.85 21.44 o
0 -1 1 702.54 605.80 26.81 o
0 1 -1 717.02 707.67 37.53 o
1 -1 1 985.02 1026.67 50.93 o
-1 1 -1 987.53 999.86 48.25 o
2 -1 1 76840.30 76472.60 884.89 o
-2 1 -1 76962.70 77018.40 862.54 o
3 -1 1 1495.33 1693.88 69.69 o
-3 1 -1 1670.12 1779.79 58.97 o
4 -1 1 3589.52 3617.73 88.50 o
-4 1 -1 3599.61 3663.33 80.45 o
5 -1 1 14029.80 13776.60 196.31 o
-5 1 -1 14115.00 13696.30 185.56 o
6 -1 1 16146.10 16046.80 231.24 o
-6 1 -1 16344.70 16351.40 220.49 o
7 -1 1 8808.60 8841.43 163.68 o
-7 1 -1 8742.54 8838.62 152.95 o
8 -1 1 1583.17 1500.34 85.73 o
-8 1 -1 1580.71 1486.95 128.60 o
9 -1 1 2400.61 2564.25 112.54 o
-9 1 -1 2423.92 2435.65 176.85 o
10 -1 1 18862.40 18415.60 421.71 o
-10 1 -1 18691.80 18775.10 437.82 o
11 -1 1 740.15 541.10 133.93 o
-11 1 -1 681.10 608.06 147.33 o
-11 0 1 293.04 302.67 128.57 <
11 0 -1 294.20 104.46 117.86 <
-10 0 1 4059.97 4328.41 211.73 o
10 0 -1 4110.03 4205.15 217.09 o
-9 0 1 4004.54 4068.65 192.98 o
9 0 -1 3887.24 3677.25 198.34 o
-8 0 1 271.34 267.86 56.25 o
8 0 -1 304.01 471.43 101.79 o
-7 0 1 3299.84 3178.95 101.86 o
7 0 -1 3174.31 3385.25 99.17 o
-6 0 1 290.52 375.01 48.22 o
6 0 -1 300.64 364.29 48.22 o
-5 0 1 1883.00 1892.10 75.04 o
5 0 -1 1803.92 1894.74 72.36 o
-4 0 1 633.08 843.92 45.54 o
4 0 -1 521.84 924.25 48.22 o
-3 0 1 422.93 463.47 37.51 o
3 0 -1 404.42 495.61 34.83 o
-2 0 1 295.58 150.02 21.43 o
2 0 -1 290.98 219.68 48.22 o
-1 0 1 265.28 75.02 13.40 o
1 0 -1 277.05 77.70 32.15 <
0 0 1 27.01 -133.93 8.04 <
1 0 1 556.33 444.89 24.12 o
-1 0 -1 534.30 442.20 21.44 o
2 0 1 607.79 455.54 34.84 o
-2 0 -1 574.01 482.32 26.80 o
3 0 1 79.06 251.78 34.82 o
-3 0 -1 66.63 203.57 26.79 o
4 0 1 5969.32 5793.89 104.71 o
-4 0 -1 5910.08 5659.51 91.28 o
5 0 1 823.15 843.92 50.90 o
-5 0 -1 763.68 809.08 45.54 o
6 0 1 174.93 211.60 45.54 o
-6 0 -1 193.51 254.46 37.50 o
7 0 1 699.09 701.85 61.61 o
-7 0 -1 510.67 680.40 50.90 o
8 0 1 2038.67 2148.94 99.14 o
-8 0 -1 2041.08 2229.32 144.69 o
9 0 1 5255.26 5763.82 144.77 o
-9 0 -1 5257.80 5715.56 219.83 o
10 0 1 1010.40 892.05 83.04 o
-10 0 -1 1049.03 787.58 131.26 o
11 0 1 2973.23 2904.67 206.33 o
-11 0 -1 3009.66 3306.63 209.01 o
-11 1 1 2969.36 3319.97 211.68 o
11 -1 -1 2890.38 2899.25 209.00 o
-10 1 1 21080.60 21167.90 472.90 o
10 -1 -1 21242.40 20993.70 464.86 o
-9 1 1 435.12 458.04 112.50 o
9 -1 -1 476.86 519.65 117.86 o
-8 1 1 534.05 380.37 64.29 o
8 -1 -1 502.36 412.51 107.15 o
-7 1 1 11929.50 11140.20 185.27 o
7 -1 -1 11920.90 11330.80 182.58 o
-6 1 1 5898.19 5820.41 123.38 o
6 -1 -1 6067.00 5858.20 118.02 o
-5 1 1 29944.70 28743.20 351.19 o
5 -1 -1 30059.80 29125.10 343.09 o
-4 1 1 3258.32 3078.34 83.13 o
4 -1 -1 3221.11 3223.10 77.76 o
-3 1 1 167.92 136.61 32.14 o
3 -1 -1 357.83 112.51 32.15 o
-2 1 1 100875.00 101123.00 1144.28 o
2 -1 -1 101199.00 100198.00 1076.33 o
-1 1 1 705.96 557.44 29.48 o
1 -1 -1 716.80 549.40 29.48 o
0 1 1 184.91 29.47 10.72 <
1 1 1 271.63 158.07 13.40 o
2 1 1 964.36 956.96 48.25 o
-2 -1 -1 945.60 970.34 67.01 o
3 1 1 47512.70 48667.50 556.26 o
-3 -1 -1 47605.30 47433.60 765.59 o
4 1 1 7985.68 7636.42 120.96 o
-4 -1 -1 7895.66 7450.65 163.96 o
5 1 1 853.93 1157.42 58.94 o
-5 -1 -1 832.54 1245.83 91.09 o
6 1 1 7584.16 7389.68 134.21 o
-6 -1 -1 7522.64 7609.65 193.26 o
7 1 1 547.20 658.98 58.93 o
-7 -1 -1 386.57 664.31 85.72 o
8 1 1 1546.25 1701.34 85.74 o
-8 -1 -1 1542.84 1527.18 117.89 o
9 1 1 219.10 251.78 61.61 o
-9 -1 -1 302.74 275.89 96.43 <
10 1 1 588.08 642.88 75.00 o
-10 -1 -1 606.89 691.10 120.54 o
11 1 1 1615.29 1441.34 150.03 o
-11 -1 -1 1606.93 1666.38 163.42 o
12 1 1 300.79 283.92 125.89 <
-12 -1 -1 326.70 243.75 136.61 <
-10 2 1 425.42 241.07 123.21 <
10 -2 -1 469.91 243.75 128.57 <
-9 2 1 479.99 441.97 120.54 o
9 -2 -1 462.17 369.65 123.22 o
-8 2 1 7886.76 8113.07 168.97 o
8 -2 -1 7963.89 8284.82 260.16 o
-7 2 1 11936.90 11983.60 198.65 o
7 -2 -1 12046.00 12131.50 300.67 o
-6 2 1 6287.93 6099.04 131.42 o
6 -2 -1 6371.99 5975.77 126.06 o
-5 2 1 9897.43 9835.68 158.42 o
5 -2 -1 9914.70 9612.86 153.05 o
-4 2 1 6043.87 5932.82 112.70 o
4 -2 -1 6132.60 5855.16 107.34 o
-3 2 1 13940.00 13095.10 177.69 o
3 -2 -1 13796.10 12975.90 169.60 o
-2 2 1 20957.00 19504.90 238.00 o
2 -2 -1 20956.80 19388.60 229.88 o
-1 2 1 31704.60 32070.70 357.49 o
1 -2 -1 31715.50 31006.60 349.31 o
0 2 1 638.87 391.23 24.12 o
0 -2 -1 602.77 460.89 42.87 o
1 2 1 1032.54 782.77 32.17 o
-1 -2 -1 1027.92 680.90 61.66 o
2 2 1 411.23 152.72 21.43 o
-2 -2 -1 391.64 104.49 29.47 o
3 2 1 84361.90 87988.10 812.83 o
-3 -2 -1 84536.60 88258.50 1361.41 o
4 2 1 14268.40 13723.10 183.34 o
-4 -2 -1 14408.60 13675.50 245.36 o
5 2 1 13011.40 13765.90 188.39 o
-5 -2 -1 13061.70 13855.00 261.06 o
6 2 1 8491.40 8176.69 139.63 o
-6 -2 -1 8504.27 8447.94 198.71 o
7 2 1 10163.50 10365.30 171.86 o
-7 -2 -1 10292.10 10113.20 241.68 o
8 2 1 18791.00 17892.10 258.17 o
-8 -2 -1 18629.90 18141.50 365.73 o
9 2 1 317.12 358.93 61.61 o
-9 -2 -1 401.83 412.51 96.43 o
10 2 1 3880.82 4132.84 131.33 o
-10 -2 -1 3842.70 4151.57 201.01 o
11 2 1 19879.70 20072.30 308.97 o
-11 -2 -1 19667.50 20090.40 454.04 o
12 2 1 2100.43 2202.33 179.51 o
-12 -2 -1 2147.23 2373.82 190.23 o
-10 3 1 190.90 372.31 131.25 <
10 -3 -1 260.51 393.74 139.28 <
-9 3 1 2033.08 2014.78 168.79 o
9 -3 -1 2095.88 2046.95 176.83 o
-8 3 1 2888.55 2768.08 117.90 o
8 -3 -1 2846.05 2459.90 192.93 o
-7 3 1 7307.99 7098.84 155.55 o
7 -3 -1 7149.72 7184.46 246.72 o
-6 3 1 6478.72 6366.64 139.46 o
6 -3 -1 6577.22 6476.72 217.23 o
-5 3 1 789.88 696.51 58.94 o
5 -3 -1 743.92 728.65 58.94 o
-4 3 1 21672.50 20549.30 272.05 o
4 -3 -1 21643.60 20888.60 263.97 o
-3 3 1 30313.00 30947.10 370.38 o
3 -3 -1 30638.10 30660.90 362.31 o
-2 3 1 30576.10 30262.50 352.14 o
2 -3 -1 30522.50 29793.30 346.72 o
-1 3 1 2299.72 2088.63 64.35 o
1 -3 -1 2213.20 1965.22 64.35 o
0 3 1 106.63 179.46 24.11 o
0 -3 -1 105.87 174.11 42.86 o
1 3 1 97819.40 100866.00 907.10 o
-1 -3 -1 98011.80 101827.00 1627.28 o
2 3 1 36893.80 36508.00 407.83 o
-2 -3 -1 36794.60 36785.10 405.07 o
3 3 1 33.88 58.93 26.78 <
-3 -3 -1 38.35 101.78 32.14 o
4 3 1 550.93 717.99 34.83 o
-4 -3 -1 740.16 712.69 50.91 o
5 3 1 25489.60 26460.40 256.85 o
-5 -3 -1 25647.60 26632.30 435.31 o
6 3 1 38804.40 36504.00 433.67 o
-6 -3 -1 38806.30 36823.90 593.58 o
7 3 1 630.42 648.28 58.93 o
-7 -3 -1 640.61 600.07 77.69 o
8 3 1 2671.62 2980.18 101.84 o
-8 -3 -1 2696.04 2934.63 147.40 o
9 3 1 2554.50 2516.29 104.51 o
-9 -3 -1 2612.47 2543.12 150.07 o
10 3 1 6315.46 6239.55 155.52 o
-10 -3 -1 6343.82 6360.24 227.92 o
11 3 1 1020.90 1229.59 133.94 o
-11 -3 -1 1047.19 1001.89 136.62 o
12 3 1 5208.45 5237.68 233.20 o
-12 -3 -1 5098.31 5395.74 241.24 o
13 3 1 150.19 216.96 128.57 <
-13 -3 -1 152.30 152.67 131.24 <
-9 4 1 786.92 787.54 139.29 o
9 -4 -1 794.57 980.41 155.37 o
-8 4 1 1689.14 1797.68 109.84 o
8 -4 -1 1688.52 1505.65 155.39 o
-7 4 1 6893.82 6859.06 158.20 o
7 -4 -1 7066.13 6553.56 244.02 o
-6 4 1 1357.79 1267.20 80.37 o
6 -4 -1 1289.91 1318.08 128.59 o
-5 4 1 6805.74 6554.94 139.47 o
5 -4 -1 6871.42 6686.45 136.79 o
-4 4 1 2471.51 2218.97 91.12 o
4 -4 -1 2511.57 2288.67 88.44 o
-3 4 1 1598.58 1822.08 80.39 o
3 -4 -1 1566.72 1878.34 80.39 o
-2 4 1 17780.00 18349.20 236.97 o
2 -4 -1 17869.40 17789.50 231.59 o
-1 4 1 1092.53 1253.98 61.63 o
1 -4 -1 1162.15 1331.72 64.31 o
0 4 1 905.99 932.43 45.55 o
0 -4 -1 652.59 937.69 77.69 o
1 4 1 186.53 262.51 34.82 o
-1 -4 -1 388.09 214.31 53.58 o
2 4 1 16326.40 16335.40 202.40 o
-2 -4 -1 16433.90 15950.30 302.27 o
3 4 1 3605.56 3605.58 77.80 o
-3 -4 -1 3540.31 3637.67 75.11 o
4 4 1 1935.84 2350.80 67.01 o
-4 -4 -1 1753.30 2227.34 67.01 o
5 4 1 4127.35 3945.66 80.47 o
-5 -4 -1 4136.09 3921.53 91.20 o
6 4 1 1626.29 1910.65 66.99 o
-6 -4 -1 1739.83 1905.35 77.71 o
7 4 1 27937.60 27623.80 326.45 o
-7 -4 -1 27705.90 27856.90 477.50 o
8 4 1 1885.77 1789.94 128.62 o
-8 -4 -1 1867.22 2095.41 131.30 o
9 4 1 2163.84 1910.53 142.02 o
-9 -4 -1 2206.17 2205.30 101.82 o
10 4 1 17969.90 17828.10 386.92 o
-10 -4 -1 18062.30 18126.70 276.76 o
11 4 1 4548.45 4620.99 209.07 o
-11 -4 -1 4472.98 4811.24 144.74 o
12 4 1 1451.09 1671.70 155.38 o
-12 -4 -1 1514.12 1666.35 109.84 o
13 4 1 859.49 677.72 139.29 o
-13 -4 -1 898.99 675.05 147.33 o
-8 5 1 12.73 50.89 72.32 <
8 -5 -1 12.61 83.03 123.21 <
-7 5 1 362.24 514.28 77.68 o
7 -5 -1 421.52 551.79 128.57 o
-6 5 1 15490.80 14800.90 238.99 o
6 -5 -1 15383.90 14642.20 354.44 o
-5 5 1 1265.37 1267.18 77.69 o
5 -5 -1 1236.44 1355.58 123.23 o
-4 5 1 10191.90 10131.60 174.45 o
4 -5 -1 10180.20 10032.30 169.08 o
-3 5 1 9655.65 9539.73 163.74 o
3 -5 -1 9632.50 9397.42 161.05 o
-2 5 1 15261.80 14737.30 209.73 o
2 -5 -1 15308.00 14648.80 207.04 o
-1 5 1 948.18 1007.36 50.90 o
1 -5 -1 951.12 1326.18 64.30 o
0 5 1 1634.08 1621.29 64.32 o
0 -5 -1 1513.66 1548.88 69.67 o
1 5 1 3043.02 3035.22 83.12 o
-1 -5 -1 3017.89 3053.96 117.98 o
2 5 1 17317.10 17599.60 223.74 o
-2 -5 -1 17454.50 17282.40 334.27 o
3 5 1 23169.10 24634.00 294.45 o
-3 -5 -1 23184.70 24539.60 448.43 o
4 5 1 513.39 637.58 42.86 o
-4 -5 -1 484.29 669.72 42.86 o
5 5 1 711.12 551.88 40.19 o
-5 -5 -1 595.85 621.51 48.22 o
6 5 1 20019.10 19742.70 247.83 o
-6 -5 -1 20407.10 19766.40 258.63 o
7 5 1 6563.31 6908.38 120.73 o
-7 -5 -1 6537.03 7061.26 136.82 o
8 5 1 3113.36 3462.92 150.10 o
-8 -5 -1 3121.51 3326.24 107.21 o
9 5 1 3273.67 3385.04 160.81 o
-9 -5 -1 3451.95 3521.86 112.57 o
10 5 1 513.42 677.70 104.47 o
-10 -5 -1 502.43 533.05 72.32 o
11 5 1 11085.80 10617.70 295.16 o
-11 -5 -1 10943.00 11017.30 209.29 o
12 5 1 523.97 458.05 117.86 o
-12 -5 -1 567.65 455.37 80.36 o
13 5 1 268.54 275.89 125.89 <
-13 -5 -1 283.81 332.14 88.39 o
-7 6 1 171.30 316.06 77.68 o
7 -6 -1 172.72 123.21 128.57 <
-6 6 1 3121.58 3170.08 125.95 o
6 -6 -1 3044.25 3298.67 209.01 o
-5 6 1 2986.40 2811.03 115.23 o
5 -6 -1 2805.57 3044.08 184.90 o
-4 6 1 9110.43 9427.26 174.38 o
4 -6 -1 9213.25 9400.60 171.70 o
-3 6 1 861.75 776.87 64.29 o
3 -6 -1 895.53 999.22 69.65 o
-2 6 1 5333.17 5566.84 123.35 o
2 -6 -1 5314.71 5588.27 126.03 o
-1 6 1 6681.18 6299.05 123.41 o
1 -6 -1 6430.88 6400.61 128.76 o
0 6 1 10.77 53.57 32.14 <
0 -6 -1 36.76 96.42 42.86 <
1 6 1 29660.40 30659.10 372.77 o
-1 -6 -1 29800.50 30333.50 540.27 o
2 6 1 4779.11 5318.99 109.97 o
-2 -6 -1 4801.46 5643.59 166.30 o
3 6 1 36884.40 36402.70 425.30 o
-3 -6 -1 37117.50 36299.60 639.35 o
4 6 1 12265.30 12756.30 180.12 o
-4 -6 -1 12447.80 12966.70 284.98 o
5 6 1 2641.27 2873.44 83.09 o
-5 -6 -1 2563.47 2905.54 85.77 o
6 6 1 80.48 190.17 37.50 o
-6 -6 -1 138.02 211.60 48.21 o
7 6 1 11208.00 10788.20 163.82 o
-7 -6 -1 11424.40 10904.20 177.26 o
8 6 1 3257.77 3615.73 96.49 o
-8 -6 -1 3260.93 3594.29 109.89 o
9 6 1 11181.30 10753.20 263.06 o
-9 -6 -1 11180.50 10611.00 187.90 o
10 6 1 746.53 841.13 107.15 o
-10 -6 -1 714.65 669.69 75.01 o
11 6 1 7132.72 7513.68 244.02 o
-11 -6 -1 7118.14 7358.13 168.94 o
12 6 1 965.36 1007.23 131.26 o
-12 -6 -1 975.50 1092.96 96.44 o
13 6 1 105.38 125.89 115.17 <
-13 -6 -1 95.51 208.92 83.03 <
-6 7 1 2703.29 2695.54 184.88 o
6 -7 -1 2737.36 2666.08 190.24 o
-5 7 1 1441.48 1221.63 91.09 o
5 -7 -1 1475.59 1291.29 144.67 o
-4 7 1 2382.45 2240.02 107.18 o
4 -7 -1 2360.04 2256.09 158.09 o
-3 7 1 16208.70 15734.70 241.74 o
3 -7 -1 16370.90 15877.50 241.75 o
-2 7 1 1737.16 1771.02 91.10 o
2 -7 -1 1754.40 1854.08 91.10 o
-1 7 1 1423.67 1500.35 72.34 o
1 -7 -1 1385.54 1500.34 77.70 o
0 7 1 4170.12 4053.56 99.19 o
0 -7 -1 4103.59 3879.24 109.92 o
1 7 1 6404.70 6124.26 193.14 o
-1 -7 -1 6566.18 6156.69 185.10 o
2 7 1 8038.11 8545.49 150.30 o
-2 -7 -1 7974.52 8411.16 214.71 o
3 7 1 19485.80 19800.00 263.82 o
-3 -7 -1 19609.40 19776.40 395.74 o
4 7 1 1460.43 1613.02 77.70 o
-4 -7 -1 1471.57 1674.65 131.29 o
5 7 1 11786.70 11162.10 171.93 o
-5 -7 -1 11945.80 11393.60 276.71 o
6 7 1 2542.51 2717.57 91.12 o
-6 -7 -1 2265.77 2808.51 85.76 o
7 7 1 2111.94 2229.50 85.75 o
-7 -7 -1 1909.00 2454.48 88.43 o
8 7 1 8654.84 8505.75 147.58 o
-8 -7 -1 8669.33 8430.65 160.99 o
9 7 1 3927.45 3849.07 166.18 o
-9 -7 -1 3967.76 3833.02 115.26 o
10 7 1 12161.80 12349.60 300.62 o
-10 -7 -1 12075.40 11882.40 212.04 o
11 7 1 3013.01 3164.75 179.54 o
-11 -7 -1 3044.14 2845.88 117.91 o
12 7 1 1571.04 1352.92 141.99 o
-12 -7 -1 1624.59 1476.17 104.48 o
13 7 1 647.20 830.39 139.29 o
-13 -7 -1 669.14 535.73 88.40 o
-5 8 1 98.46 128.57 107.14 <
5 -8 -1 96.93 32.14 120.53 <
-4 8 1 8431.48 8227.85 273.55 o
4 -8 -1 8574.68 8533.76 281.60 o
-3 8 1 710.14 549.14 109.83 o
3 -8 -1 805.89 543.79 115.19 o
-2 8 1 3412.16 3068.57 176.88 o
2 -8 -1 3344.72 3253.45 123.28 o
-1 8 1 4457.20 4565.04 193.00 o
1 -8 -1 4684.07 4634.93 131.35 o
0 8 1 218.62 294.64 83.03 o
0 -8 -1 234.05 283.92 61.61 o
1 8 1 8977.91 8637.85 241.51 o
-1 -8 -1 8933.12 8806.82 163.69 o
2 8 1 6094.77 6039.79 134.10 o
-2 -8 -1 6148.40 6300.01 190.42 o
3 8 1 1023.81 1216.28 66.98 o
-3 -8 -1 1029.68 1358.27 115.20 o
4 8 1 3386.45 3168.32 99.18 o
-4 -8 -1 3433.97 3187.12 150.11 o
5 8 1 6608.11 6727.42 134.12 o
-5 -8 -1 6605.18 6950.05 214.59 o
6 8 1 10715.20 10266.10 171.82 o
-6 -8 -1 10679.50 10467.40 281.89 o
7 8 1 2312.77 2438.52 93.79 o
-7 -8 -1 2219.85 2342.01 88.43 o
8 8 1 511.11 535.74 56.25 o
-8 -8 -1 506.33 640.20 61.61 o
9 8 1 667.61 683.08 96.43 o
-9 -8 -1 621.10 803.61 75.00 o
10 8 1 11456.80 11622.80 295.20 o
-10 -8 -1 11424.70 11786.40 209.32 o
11 8 1 771.60 784.87 115.19 o
-11 -8 -1 732.15 870.59 83.04 o
12 8 1 992.94 843.83 125.90 o
-12 -8 -1 1046.07 980.46 91.08 o
13 8 1 147.34 249.10 117.85 <
-13 -8 -1 157.43 243.74 80.35 o
-4 9 1 83.79 139.28 115.17 <
4 -9 -1 93.45 262.49 128.57 <
-3 9 1 7082.28 7408.27 262.76 o
3 -9 -1 7054.82 7185.70 257.40 o
-2 9 1 8425.87 8389.08 273.56 o
2 -9 -1 8479.57 8381.11 182.37 o
-1 9 1 964.15 835.80 117.87 o
1 -9 -1 968.84 993.85 83.04 o
0 9 1 4703.04 5034.16 206.41 o
0 -9 -1 4637.10 4766.04 136.71 o
1 9 1 1006.16 961.73 109.83 o
-1 -9 -1 950.71 1111.73 80.37 o
2 9 1 11633.80 11596.40 297.96 o
-2 -9 -1 11728.40 11760.30 295.28 o
3 9 1 9494.17 9161.16 171.74 o
-3 -9 -1 9449.26 8865.90 246.87 o
4 9 1 6603.76 7013.29 147.51 o
-4 -9 -1 6834.67 6868.78 227.98 o
5 9 1 6375.81 6460.51 139.46 o
-5 -9 -1 6508.76 6602.82 225.28 o
6 9 1 1391.00 1497.64 77.70 o
-6 -9 -1 1474.34 1610.19 133.96 o
7 9 1 859.49 830.44 64.29 o
-7 -9 -1 974.01 776.88 112.51 o
8 9 1 2045.87 2440.94 99.14 o
-8 -9 -1 2167.97 2213.24 171.49 o
9 9 1 6212.53 6440.46 144.79 o
-9 -9 -1 6201.18 6518.20 244.00 o
10 9 1 975.40 1114.40 120.55 o
-10 -9 -1 993.43 1020.64 131.26 o
11 9 1 228.29 174.10 99.10 <
-11 -9 -1 216.34 150.00 112.50 <
12 9 1 3800.01 3867.14 206.35 o
-12 -9 -1 3792.07 3950.21 200.99 o
13 9 1 893.82 1301.88 152.69 o
-13 -9 -1 857.75 1392.95 163.40 o
-3 10 1 1030.73 892.04 141.98 o
3 -10 -1 1029.04 967.05 144.66 o
-2 10 1 7939.26 7014.88 268.15 o
2 -10 -1 7790.88 7400.86 265.46 o
-1 10 1 2987.93 2805.57 190.25 o
1 -10 -1 2882.13 3065.45 133.98 o
0 10 1 4852.36 4934.73 217.12 o
0 -10 -1 4877.31 4637.22 142.07 o
1 10 1 325.73 353.57 101.79 o
-1 -10 -1 360.45 393.75 75.00 o
2 10 1 10444.30 11159.30 303.20 o
-2 -10 -1 10566.60 11071.00 201.24 o
3 10 1 8563.98 8428.20 174.36 o
-3 -10 -1 8558.84 8742.04 262.88 o
4 10 1 1239.15 1379.69 83.05 o
-4 -10 -1 1179.05 1272.51 133.95 o
5 10 1 920.28 1012.61 75.01 o
-5 -10 -1 885.60 892.05 120.55 o
6 10 1 11892.50 11777.80 201.31 o
-6 -10 -1 11826.50 11275.80 316.72 o
7 10 1 14275.30 13573.20 220.18 o
-7 -10 -1 14316.30 13243.00 357.12 o
8 10 1 3710.48 3969.23 120.61 o
-8 -10 -1 3675.16 3543.08 206.37 o
9 10 1 279.05 251.78 58.93 o
-9 -10 -1 264.25 458.03 123.21 o
10 10 1 3135.74 2963.79 174.18 o
-10 -10 -1 3215.37 3127.29 187.58 o
11 10 1 16166.70 15392.90 367.84 o
-11 -10 -1 15925.30 16111.90 405.42 o
12 10 1 1281.29 1671.64 155.38 o
-12 -10 -1 1274.70 1382.32 155.38 o
13 10 1 987.97 562.55 131.26 o
-13 -10 -1 1211.40 412.55 136.62 o
-1 11 1 713.54 758.07 139.29 o
1 -11 -1 729.58 897.36 139.29 o
0 11 1 362.95 278.57 117.86 <
0 -11 -1 393.82 326.79 83.04 o
1 11 1 17233.60 16966.40 418.92 o
-1 -11 -1 17085.70 17172.80 281.96 o
2 11 1 790.40 830.41 123.22 o
-2 -11 -1 790.11 841.13 88.40 o
3 11 1 1894.77 1717.38 144.68 o
-3 -11 -1 1833.04 1996.00 163.43 o
4 11 1 3576.75 3647.44 128.64 o
-4 -11 -1 3696.24 3690.39 201.00 o
5 11 1 11690.20 11270.90 209.32 o
-5 -11 -1 11555.80 11581.90 316.65 o
6 11 1 5686.66 5477.10 144.77 o
-6 -11 -1 5392.41 5388.37 233.23 o
7 11 1 2870.63 3014.62 117.90 o
-7 -11 -1 2856.91 2770.77 198.29 o
8 11 1 421.66 415.18 66.96 o
-8 -11 -1 489.71 431.26 128.57 o
9 11 1 11058.90 11298.20 206.59 o
-9 -11 -1 10852.10 11067.10 343.42 o
10 11 1 2598.67 2706.26 171.49 o
-10 -11 -1 2626.98 2944.75 192.92 o
11 11 1 1538.33 1430.60 144.67 o
-11 -11 -1 1591.44 1264.51 166.10 o
12 11 1 3115.85 3108.35 195.61 o
-12 -11 -1 3030.29 3108.31 217.05 o
1 12 1 3580.83 3781.19 217.06 o
-1 -12 -1 3473.90 3711.46 150.07 o
2 12 1 462.43 482.15 123.21 o
-2 -12 -1 496.72 616.08 91.07 o
3 12 1 2245.08 2151.49 179.51 o
-3 -12 -1 2114.88 2411.33 128.60 o
4 12 1 2224.59 2175.60 174.16 o
-4 -12 -1 2233.28 2197.04 184.87 o
5 12 1 917.68 683.09 80.36 o
-5 -12 -1 1048.04 653.64 141.98 o
6 12 1 2204.21 2320.29 117.89 o
-6 -12 -1 2192.62 2363.15 176.84 o
7 12 1 1673.22 1355.62 96.45 o
-7 -12 -1 1747.90 1765.55 174.14 o
8 12 1 4747.74 4425.23 142.06 o
-8 -12 -1 4916.08 4961.43 243.92 o
9 12 1 6366.30 6536.16 163.54 o
-9 -12 -1 6354.17 6530.79 273.46 o
10 12 1 4803.40 4039.21 198.34 o
-10 -12 -1 4661.82 4090.05 238.54 o
11 12 1 195.71 340.17 112.50 o
-11 -12 -1 220.35 147.32 136.60 <
3 13 1 648.26 487.52 133.93 o
-3 -13 -1 788.91 634.86 99.11 o
4 13 1 215.15 332.13 120.53 <
-4 -13 -1 221.29 423.20 93.75 o
5 13 1 11.40 155.35 75.00 <
-5 -13 -1 14.86 158.03 136.60 <
6 13 1 240.93 61.61 72.32 <
-6 -13 -1 261.59 216.96 139.28 <
7 13 1 1088.41 1221.55 96.44 o
-7 -13 -1 1050.59 1167.97 163.41 o
8 13 1 44.88 72.32 72.32 <
-8 -13 -1 38.20 75.00 136.60 <
9 13 1 229.05 249.10 77.68 o
-9 -13 -1 220.10 241.07 147.32 <
10 13 1 476.66 586.61 123.21 o
-10 -13 -1 448.49 498.22 155.36 o
-9 -13 2 5511.30 5377.12 260.01 o
9 13 -2 5526.31 4838.35 249.29 o
-8 -13 2 3076.16 3175.32 238.48 o
8 13 -2 3192.60 3379.03 225.09 o
-7 -13 2 8087.48 8862.47 332.51 o
7 13 -2 8240.31 8822.44 303.02 o
-6 -13 2 2158.76 2558.68 222.38 o
6 13 -2 2229.85 2783.77 206.30 o
-5 -13 2 2238.49 2440.82 211.66 o
5 13 -2 2147.48 2435.43 200.94 o
-4 -13 2 15555.40 16143.70 445.60 o
4 13 -2 15587.90 15735.80 424.13 o
-11 -12 2 33.84 190.17 136.60 <
11 12 -2 28.67 123.21 75.00 <
-10 -12 2 2861.80 3185.96 211.68 o
10 12 -2 2920.23 3767.44 142.02 o
-9 -12 2 3309.86 3087.04 222.42 o
9 12 -2 3361.53 2945.03 131.31 o
-8 -12 2 3840.35 3722.45 233.15 o
8 12 -2 3968.40 3848.48 139.36 o
-7 -12 2 1507.45 1103.76 160.74 o
7 12 -2 1475.32 1709.21 160.74 o
-6 -12 2 8807.49 8850.50 316.47 o
6 12 -2 8872.49 8598.47 295.02 o
-5 -12 2 573.63 420.55 144.65 <
5 12 -2 603.02 235.72 117.86 <
-4 -12 2 7666.64 7845.99 294.96 o
4 12 -2 7805.31 7103.37 273.52 o
-3 -12 2 53.52 246.42 125.89 <
3 12 -2 86.20 53.57 115.17 <
-2 -12 2 50.98 219.63 136.60 <
2 12 -2 49.96 259.81 123.21 <
-1 -12 2 40.30 80.35 128.57 <
1 12 -2 37.43 147.31 120.53 <
-12 -11 2 125.68 -147.32 123.21 <
12 11 -2 124.76 297.31 115.17 <
-11 -11 2 348.87 332.14 136.61 <
11 11 -2 335.77 463.39 80.36 o
-10 -11 2 617.80 653.59 141.97 o
10 11 -2 625.67 578.59 77.68 o
-9 -11 2 1193.69 1516.26 171.45 o
9 11 -2 1168.91 1508.22 96.44 o
-8 -11 2 68.34 42.86 115.17 <
8 11 -2 74.77 149.99 64.28 <
-7 -11 2 2949.52 2813.65 203.65 o
7 11 -2 2953.66 2620.72 117.91 o
-6 -11 2 1468.66 1307.37 152.71 o
6 11 -2 1479.44 1551.17 91.09 o
-5 -11 2 295.54 300.00 125.89 <
5 11 -2 332.70 182.14 64.29 <
-4 -11 2 6203.45 6710.69 262.74 o
4 11 -2 6212.80 6257.60 246.66 o
-3 -11 2 331.37 174.11 120.54 <
3 11 -2 335.48 380.36 117.86 o
-2 -11 2 264.58 203.57 115.18 <
2 11 -2 263.53 372.32 112.50 o
-1 -11 2 15058.90 15040.90 399.98 o
1 11 -2 14943.80 15196.30 391.92 o
0 -11 2 373.40 254.46 131.25 <
0 11 -2 361.22 383.03 125.89 o
1 -11 2 61.65 -50.89 120.53 <
-1 11 -2 64.71 257.13 120.53 <
-12 -10 2 180.74 211.60 123.21 <
12 10 -2 180.59 308.03 115.18 <
-11 -10 2 13758.90 13975.20 373.06 o
11 10 -2 13773.10 13298.80 236.18 o
-10 -10 2 2978.87 3124.47 184.90 o
10 10 -2 3021.34 3070.90 128.62 o
-9 -10 2 4401.91 4594.04 222.46 o
9 10 -2 4473.42 4505.65 139.38 o
-8 -10 2 4458.87 4068.84 214.43 o
8 10 -2 4344.73 4202.78 128.66 o
-7 -10 2 263.16 316.07 120.53 <
7 10 -2 322.24 476.78 66.96 o
-6 -10 2 592.93 704.50 123.22 o
6 10 -2 606.39 549.13 66.97 o
-5 -10 2 221.82 302.67 115.18 <
5 10 -2 172.65 267.85 58.93 o
-4 -10 2 4149.82 4213.50 198.35 o
4 10 -2 4198.14 4336.83 128.66 o
-3 -10 2 2030.93 1939.84 101.82 o
3 10 -2 1947.27 2020.19 155.40 o
-2 -10 2 1231.10 1253.75 85.73 o
2 10 -2 1080.07 1261.76 133.95 o
-1 -10 2 58.99 267.84 117.85 <
1 10 -2 50.50 117.85 93.75 <
0 -10 2 2102.75 1888.90 166.12 o
0 10 -2 2124.77 2180.95 176.83 o
1 -10 2 292.33 348.21 123.21 <
-1 10 -2 242.72 326.78 115.18 <
2 -10 2 2529.17 2759.78 195.60 o
-2 10 -2 2624.33 2564.22 190.24 o
-13 -9 2 15952.80 16171.50 378.52 o
13 9 -2 15954.10 15905.70 391.94 o
-12 -9 2 312.71 107.14 75.00 <
12 9 -2 262.76 249.10 112.50 <
-11 -9 2 55.76 53.57 66.96 <
11 9 -2 55.47 50.89 101.78 <
-10 -9 2 157.57 326.77 69.64 o
10 9 -2 165.18 291.95 69.64 o
-9 -9 2 109.21 187.49 64.28 <
9 9 -2 130.85 112.50 61.60 <
-8 -9 2 21081.20 21525.80 303.79 o
8 9 -2 20972.20 21033.40 295.71 o
-7 -9 2 352.52 348.22 58.93 o
7 9 -2 295.43 353.57 58.93 o
-6 -9 2 15483.30 15942.90 386.82 o
6 9 -2 15575.10 15924.40 239.08 o
-5 -9 2 10752.40 11098.10 308.65 o
5 9 -2 10886.80 11007.10 187.88 o
-4 -9 2 15272.00 15991.40 376.08 o
4 9 -2 15256.90 15838.20 236.39 o
-3 -9 2 5950.73 5877.69 227.92 o
3 9 -2 5944.67 6247.72 219.88 o
-2 -9 2 1031.82 1036.74 75.01 o
2 9 -2 1143.55 1170.71 120.55 o
-1 -9 2 1231.91 1307.35 80.37 o
1 9 -2 1236.75 1285.92 125.91 o
0 -9 2 102.27 171.42 64.28 <
0 9 -2 106.49 163.39 91.07 <
1 -9 2 3864.11 3671.70 131.32 o
-1 9 -2 3916.90 3765.54 195.65 o
2 -9 2 1507.98 1639.57 101.80 o
-2 9 -2 1464.24 1422.56 141.99 o
3 -9 2 2252.26 2459.60 179.51 o
-3 9 -2 2230.52 2231.85 179.51 o
4 -9 2 4708.66 4864.59 222.46 o
-4 9 -2 4692.90 4829.74 222.46 o
-13 -8 2 472.52 618.76 123.21 o
13 8 -2 447.84 725.90 139.29 o
-12 -8 2 6424.16 6785.55 168.90 o
12 8 -2 6531.24 7509.54 254.70 o
-11 -8 2 80.24 61.60 66.96 <
11 8 -2 91.21 -32.14 99.10 <
-10 -8 2 2235.73 2253.38 107.18 o
10 8 -2 2069.44 2087.20 112.53 o
-9 -8 2 1052.10 1267.13 83.05 o
9 8 -2 1083.54 1285.89 80.37 o
-8 -8 2 28300.20 29126.20 376.97 o
8 8 -2 28310.70 28148.90 368.89 o
-7 -8 2 127.30 243.74 56.25 o
7 8 -2 117.81 372.31 56.25 o
-6 -8 2 2024.71 1937.31 93.78 o
6 8 -2 1975.95 1964.08 93.78 o
-5 -8 2 16267.30 16924.60 241.90 o
5 8 -2 16495.30 16777.60 239.22 o
-4 -8 2 2703.52 2548.66 96.48 o
4 8 -2 2682.61 2610.29 96.48 o
-3 -8 2 23601.70 24485.80 481.86 o
3 8 -2 23563.80 22587.80 301.49 o
-2 -8 2 2443.65 2454.67 99.15 o
2 8 -2 2468.79 2594.04 91.11 o
-1 -8 2 14646.50 14360.40 220.27 o
1 8 -2 14648.50 14838.60 217.58 o
0 -8 2 35103.50 34997.60 439.46 o
0 8 -2 35192.80 34990.10 431.38 o
1 -8 2 18138.90 19015.80 276.76 o
-1 8 -2 18056.10 18397.60 268.70 o
2 -8 2 4481.47 4101.02 125.98 o
-2 8 -2 4528.44 4117.14 123.30 o
3 -8 2 424.82 190.18 69.64 <
-3 8 -2 368.77 265.18 64.29 o
4 -8 2 4154.75 4081.75 142.04 o
-4 8 -2 4136.40 4113.90 195.65 o
5 -8 2 3903.25 3845.68 198.31 o
-5 8 -2 3934.98 4065.45 203.68 o
-13 -7 2 2337.52 2494.44 176.84 o
13 7 -2 2380.13 2660.58 190.23 o
-12 -7 2 725.14 640.21 115.18 o
12 7 -2 711.78 755.39 133.93 o
-11 -7 2 7476.95 7202.78 163.58 o
11 7 -2 7464.93 7623.77 246.71 o
-10 -7 2 1525.48 1422.61 88.41 o
10 7 -2 1514.50 1803.04 91.09 o
-9 -7 2 1194.41 1409.16 85.73 o
9 7 -2 1268.88 1251.11 77.69 o
-8 -7 2 17813.10 17852.90 258.04 o
8 7 -2 17714.10 17255.90 249.97 o
-7 -7 2 671.90 779.53 66.97 o
7 7 -2 657.80 701.84 61.61 o
-6 -7 2 7529.67 6919.49 136.83 o
6 7 -2 7399.24 6921.97 134.15 o
-5 -7 2 34324.20 34989.00 423.96 o
5 7 -2 34191.50 34420.80 415.85 o
-4 -7 2 2271.40 2235.04 80.40 o
4 7 -2 2292.77 2307.41 88.44 o
-3 -7 2 29.69 123.21 45.53 <
3 7 -2 44.78 117.85 40.18 <
-2 -7 2 10418.70 10461.10 268.51 o
2 7 -2 10246.50 10423.10 163.78 o
-1 -7 2 3175.80 3224.47 96.49 o
1 7 -2 3072.22 3194.91 99.17 o
0 -7 2 1080.05 1556.52 85.73 o
0 7 -2 1088.44 1267.19 72.33 o
1 -7 2 1115.18 1449.34 80.37 o
-1 7 -2 1080.66 1422.54 72.33 o
2 -7 2 288.19 412.50 64.29 o
-2 7 -2 308.48 324.11 56.25 o
3 -7 2 173.46 147.32 64.28 <
-3 7 -2 293.04 262.50 58.93 o
4 -7 2 2435.09 2390.07 117.90 o
-4 7 -2 2427.85 2272.17 109.86 o
5 -7 2 2984.29 2717.13 128.62 o
-5 7 -2 2962.14 2869.86 120.58 o
6 -7 2 8502.37 9463.70 206.49 o
-6 7 -2 8426.66 9157.89 281.58 o
-13 -6 2 9958.83 10527.90 313.82 o
13 6 -2 10127.40 11287.20 321.88 o
-12 -6 2 8893.62 9156.36 278.93 o
12 6 -2 9019.17 9636.62 284.30 o
-11 -6 2 249.65 251.78 69.64 o
11 6 -2 290.72 109.82 101.79 <
-10 -6 2 5559.92 5740.01 142.09 o
10 6 -2 5687.11 5480.08 142.10 o
-9 -6 2 5246.42 5313.89 134.05 o
9 6 -2 5242.07 5230.77 131.37 o
-8 -6 2 3932.71 4085.24 112.58 o
8 6 -2 4009.18 3750.22 112.59 o
-7 -6 2 2388.30 2430.65 93.80 o
7 6 -2 2345.59 2435.98 93.79 o
-6 -6 2 11135.80 11643.10 179.95 o
6 6 -2 11184.60 11173.20 174.58 o
-5 -6 2 11586.10 11714.00 177.32 o
5 6 -2 11633.20 11176.80 169.26 o
-4 -6 2 2065.99 1833.10 72.36 o
4 6 -2 2021.14 1910.79 77.72 o
-3 -6 2 22984.50 23435.80 291.16 o
3 6 -2 22936.10 22764.20 285.77 o
-2 -6 2 3151.20 3200.85 85.78 o
2 6 -2 3128.43 3211.55 88.47 o
-1 -6 2 2416.09 2232.56 83.08 o
1 6 -2 2422.84 2329.05 80.40 o
0 -6 2 13000.70 12844.20 190.78 o
0 6 -2 12858.00 13185.00 190.77 o
1 -6 2 6199.63 5871.34 128.75 o
-1 6 -2 6153.29 5769.36 123.38 o
2 -6 2 2274.84 2197.34 96.47 o
-2 6 -2 2232.00 1985.63 91.11 o
3 -6 2 19381.70 19196.70 274.20 o
-3 6 -2 19129.00 18951.20 268.81 o
4 -6 2 1153.78 1307.33 83.05 o
-4 6 -2 1128.99 1192.13 75.01 o
5 -6 2 1190.79 1288.56 91.08 o
-5 6 -2 1189.67 1403.76 85.73 o
6 -6 2 6824.04 7075.61 171.60 o
-6 6 -2 6887.82 7064.95 166.23 o
7 -6 2 2859.11 2912.64 200.96 o
-7 6 -2 2882.22 3027.87 192.93 o
-13 -5 2 3024.37 2950.22 195.61 o
13 5 -2 3042.92 2926.11 203.65 o
-12 -5 2 1916.73 1891.51 158.07 o
12 5 -2 1920.84 2081.73 168.79 o
-11 -5 2 958.03 830.44 120.55 o
11 5 -2 949.44 1197.43 136.62 o
-10 -5 2 255.67 366.96 64.28 o
10 5 -2 205.98 281.24 66.96 o
-9 -5 2 16845.20 17218.90 252.59 o
9 5 -2 16970.20 17095.70 252.59 o
-8 -5 2 24259.20 24082.80 317.69 o
8 5 -2 24112.40 23648.60 312.30 o
-7 -5 2 9609.51 9868.50 166.44 o
7 5 -2 9594.32 9798.66 163.76 o
-6 -5 2 1170.53 1280.68 69.66 o
6 5 -2 1095.70 1211.00 61.62 o
-5 -5 2 81950.90 83444.80 916.22 o
5 5 -2 82039.60 81801.00 905.27 o
-4 -5 2 1100.09 964.57 56.27 o
4 5 -2 1086.01 1101.21 50.91 o
-3 -5 2 2220.04 2516.89 77.73 o
3 5 -2 2189.76 2345.32 75.05 o
-2 -5 2 14865.60 14427.30 196.49 o
2 5 -2 14937.70 14411.40 188.42 o
-1 -5 2 3708.99 3837.34 67.04 o
1 5 -2 3735.52 4019.72 147.49 o
0 -5 2 78903.70 81236.20 904.45 o
0 5 -2 79105.10 81761.70 896.28 o
1 -5 2 8690.57 8870.02 144.97 o
-1 5 -2 8624.75 8397.38 142.28 o
2 -5 2 31731.90 31472.80 385.92 o
-2 5 -2 31653.50 31097.10 380.52 o
3 -5 2 18462.20 18570.20 260.83 o
-3 5 -2 18215.20 18588.00 255.44 o
4 -5 2 7053.91 7692.11 155.56 o
-4 5 -2 7059.95 7659.94 150.20 o
5 -5 2 324.45 208.93 64.29 o
-5 5 -2 380.30 297.32 56.25 o
6 -5 2 316.64 136.61 66.96 <
-6 5 -2 254.83 206.25 58.93 o
7 -5 2 410.36 492.86 77.68 o
-7 5 -2 400.63 318.75 112.50 <
8 -5 2 764.89 1068.81 139.29 o
-8 5 -2 813.68 993.81 144.65 o
-13 -4 2 3677.92 3644.56 214.39 o
13 4 -2 3667.03 4049.20 225.10 o
-12 -4 2 3183.37 3266.54 198.30 o
12 4 -2 3226.89 3612.24 209.02 o
-11 -4 2 2661.29 2875.16 179.53 o
11 4 -2 2676.18 2931.43 192.93 o
-10 -4 2 930.77 787.58 115.19 o
10 4 -2 1025.56 918.86 77.69 o
-9 -4 2 9630.35 9770.18 171.74 o
9 4 -2 9643.67 9649.45 177.10 o
-8 -4 2 1606.49 1709.42 80.38 o
8 4 -2 1597.96 1730.85 88.42 o
-7 -4 2 249.18 297.32 50.89 o
7 4 -2 208.06 289.28 50.89 o
-6 -4 2 2530.95 2540.94 83.09 o
6 4 -2 2478.55 2758.00 88.45 o
-5 -4 2 5401.54 5658.51 110.00 o
5 4 -2 5403.88 5763.15 110.00 o
-4 -4 2 50599.30 51491.20 575.37 o
4 4 -2 50394.20 50492.20 567.15 o
-3 -4 2 10261.20 10931.00 153.28 o
3 4 -2 10321.90 10796.80 147.90 o
-2 -4 2 71718.70 73346.50 804.49 o
2 4 -2 71211.80 73422.90 796.07 o
-1 -4 2 5505.53 5588.34 102.00 o
1 4 -2 5622.52 5744.28 155.69 o
0 -4 2 57695.20 57649.30 639.67 o
0 4 -2 57741.00 57792.40 642.41 o
1 -4 2 730.49 707.27 45.54 o
-1 4 -2 676.41 693.86 45.54 o
2 -4 2 1931.63 1977.74 80.40 o
-2 4 -2 2047.03 1991.20 80.40 o
3 -4 2 3474.18 3447.38 101.87 o
-3 4 -2 3513.45 3407.20 93.83 o
4 -4 2 2666.39 2537.92 99.16 o
-4 4 -2 2643.39 2465.55 91.12 o
5 -4 2 17224.40 17572.20 255.29 o
-5 4 -2 17177.30 17386.60 249.91 o
6 -4 2 3361.85 3226.69 120.60 o
-6 4 -2 3397.21 3229.39 109.88 o
7 -4 2 6411.88 6359.68 155.51 o
-7 4 -2 6476.47 6445.54 227.90 o
8 -4 2 9633.60 9412.05 193.12 o
-8 4 -2 9574.67 9133.01 281.64 o
9 -4 2 14013.10 14097.80 359.62 o
-9 4 -2 14135.60 14377.20 378.42 o
-12 -3 2 3933.87 4054.79 217.08 o
12 3 -2 3898.71 3985.09 219.76 o
-11 -3 2 45.59 166.06 109.82 <
11 3 -2 72.86 13.39 107.14 <
-10 -3 2 555.94 784.85 117.86 o
10 3 -2 448.88 677.69 117.86 o
-9 -3 2 18676.70 19084.00 400.50 o
9 3 -2 18596.20 19309.50 274.16 o
-8 -3 2 13023.50 13066.90 201.44 o
8 3 -2 13208.90 13421.90 206.82 o
-7 -3 2 1783.76 2012.37 83.07 o
7 3 -2 1804.95 1891.80 91.11 o
-6 -3 2 22686.20 23722.60 299.23 o
6 3 -2 22613.40 23954.00 299.22 o
-5 -3 2 13337.50 13744.80 185.63 o
5 3 -2 13278.50 13182.30 188.32 o
-4 -3 2 4078.72 4155.43 88.53 o
4 3 -2 4108.72 4182.30 91.21 o
-3 -3 2 2746.28 2673.62 72.40 o
3 3 -2 2683.96 2743.26 72.40 o
-2 -3 2 678.32 798.43 42.87 o
2 3 -2 735.64 760.94 40.19 o
-1 -3 2 367.13 372.36 37.50 o
1 3 -2 433.04 273.26 50.90 o
0 -3 2 1441.08 1728.68 50.92 o
0 3 -2 1478.61 1771.59 101.85 o
1 -3 2 11687.50 12363.00 166.81 o
-1 3 -2 11714.60 12306.70 169.51 o
2 -3 2 1466.14 1586.40 72.35 o
-2 3 -2 1570.45 1388.14 64.32 o
3 -3 2 27873.10 27742.00 337.46 o
-3 3 -2 27769.60 27177.00 332.05 o
4 -3 2 399.99 490.20 56.25 o
-4 3 -2 441.61 567.89 48.22 o
5 -3 2 27379.50 26237.90 342.15 o
-5 3 -2 27296.70 26423.30 331.37 o
6 -3 2 7543.58 6893.36 150.21 o
-6 3 -2 7535.19 7027.46 139.48 o
7 -3 2 1672.64 1765.58 93.77 o
-7 3 -2 1673.94 1985.27 152.71 o
8 -3 2 121.57 141.96 66.96 <
-8 3 -2 133.57 158.03 101.78 <
9 -3 2 91.40 128.57 107.14 <
-9 3 -2 95.92 56.25 112.50 <
-12 -2 2 3433.82 3371.12 209.02 o
12 2 -2 3471.94 3539.97 219.74 o
-11 -2 2 1026.93 897.41 133.94 o
11 2 -2 986.33 1101.00 141.98 o
-10 -2 2 3343.76 3347.20 182.23 o
10 2 -2 3215.30 3422.16 195.63 o
-9 -2 2 61.57 222.31 91.07 <
9 2 -2 69.20 10.71 56.25 <
-8 -2 2 2119.04 1755.14 83.07 o
8 2 -2 2068.87 1816.75 91.11 o
-7 -2 2 36100.60 37392.90 443.06 o
7 2 -2 35802.70 37004.00 445.73 o
-6 -2 2 1846.51 1690.96 75.03 o
6 2 -2 1816.47 1741.86 83.07 o
-5 -2 2 3079.24 3222.76 80.43 o
5 2 -2 3182.46 3196.06 93.84 o
-4 -2 2 73248.90 74814.40 816.08 o
4 2 -2 73049.80 74202.10 816.01 o
-3 -2 2 579.64 594.77 37.51 o
3 2 -2 489.70 565.28 40.19 o
-2 -2 2 7917.31 7615.69 110.29 o
2 2 -2 7962.68 7505.59 107.61 o
-1 -2 2 66808.10 67388.70 729.16 o
1 2 -2 66523.70 64255.80 1079.65 o
0 -2 2 9615.94 9451.01 131.94 o
0 2 -2 9597.76 9292.06 191.17 o
1 -2 2 585.21 782.32 42.87 o
-1 2 -2 596.47 771.60 40.19 o
2 -2 2 71380.80 72617.30 796.15 o
-2 2 -2 71434.70 71558.20 787.90 o
3 -2 2 12999.30 13285.90 185.61 o
-3 2 -2 13141.20 12907.20 177.55 o
4 -2 2 4894.76 5028.92 109.97 o
-4 2 -2 4871.15 4937.69 99.24 o
5 -2 2 7689.96 7706.57 142.22 o
-5 2 -2 7753.94 7494.70 131.49 o
6 -2 2 4012.86 4232.75 115.27 o
-6 2 -2 4038.37 3900.37 101.86 o
7 -2 2 2410.11 2524.18 104.50 o
-7 2 -2 2328.94 2668.84 158.09 o
8 -2 2 1606.18 1795.02 96.45 o
-8 2 -2 1646.23 1883.44 147.35 o
9 -2 2 100.75 216.96 69.64 o
-9 2 -2 113.26 91.07 107.14 <
10 -2 2 421.55 291.96 120.54 <
-10 2 -2 416.85 366.96 128.57 <
-12 -1 2 178.32 77.68 125.89 <
12 1 -2 170.45 50.89 131.25 <
-11 -1 2 266.62 374.99 123.21 o
11 1 -2 324.69 353.57 128.57 <
-10 -1 2 4474.87 4055.36 201.03 o
10 1 -2 4529.56 4339.51 211.75 o
-9 -1 2 25058.30 24379.40 489.63 o
9 1 -2 24940.30 24623.70 484.24 o
-8 -1 2 580.38 817.01 66.97 o
8 1 -2 532.31 1025.94 115.18 o
-7 -1 2 7336.42 7123.13 107.32 o
7 1 -2 7164.27 6570.19 209.26 o
-6 -1 2 14408.70 13914.30 158.64 o
6 1 -2 14536.30 14017.00 293.08 o
-5 -1 2 1890.42 1886.74 56.28 o
5 1 -2 1897.11 2133.31 128.64 o
-4 -1 2 12811.40 13545.00 148.05 o
4 1 -2 12743.70 13811.10 263.79 o
-3 -1 2 242.10 184.83 26.79 o
3 1 -2 353.43 171.45 56.26 o
-2 -1 2 64815.30 66268.60 711.76 o
2 1 -2 64606.20 65298.80 711.67 o
-1 -1 2 27822.20 27803.40 313.78 o
1 1 -2 28042.90 27813.00 311.10 o
0 -1 2 24016.00 22866.80 266.72 o
0 1 -2 24202.80 22627.40 381.07 o
1 -1 2 73724.00 73633.00 653.79 o
-1 1 -2 73782.10 72453.50 1195.87 o
2 -1 2 26.26 192.85 34.82 o
-2 1 -2 135.74 243.75 32.14 o
3 -1 2 3650.63 4042.08 91.19 o
-3 1 -2 3701.50 4136.04 83.15 o
4 -1 2 5650.27 5095.48 104.65 o
-4 1 -2 5498.63 5234.75 93.91 o
5 -1 2 1644.82 1773.89 80.39 o
-5 1 -2 1619.33 1674.73 69.67 o
6 -1 2 3352.03 3264.81 101.86 o
-6 1 -2 3366.45 3098.63 85.78 o
7 -1 2 17111.90 16603.50 247.25 o
-7 1 -2 17014.00 17068.10 354.75 o
8 -1 2 922.39 985.82 77.69 o
-8 1 -2 962.56 1050.12 117.87 o
9 -1 2 146.40 101.78 64.28 <
-9 1 -2 145.95 192.85 104.46 <
10 -1 2 13711.50 13690.60 241.55 o
-10 1 -2 13654.70 13228.80 359.64 o
11 -1 2 105.68 251.77 120.53 <
-11 1 -2 107.31 152.67 128.57 <
-11 0 2 502.83 385.72 131.25 <
11 0 -2 507.39 766.08 141.97 o
-10 0 2 1885.45 2547.92 176.83 o
10 0 -2 1930.56 2046.92 166.11 o
-9 0 2 41.43 123.21 61.60 <
9 0 -2 36.59 -64.28 104.46 <
-8 0 2 24400.50 25674.90 344.41 o
8 0 -2 24612.60 25269.60 489.73 o
-7 0 2 912.95 945.67 66.97 o
7 0 -2 921.41 859.94 107.16 o
-6 0 2 11202.00 11484.90 136.98 o
6 0 -2 11251.40 10953.30 260.54 o
-5 0 2 73586.40 72986.80 662.32 o
5 0 -2 73484.10 73014.70 1122.08 o
-4 0 2 50217.80 49924.20 569.89 o
4 0 -2 50180.60 50485.20 779.84 o
-3 0 2 1929.40 2023.94 72.38 o
3 0 -2 1873.33 2168.64 104.54 o
-2 0 2 5927.67 5973.69 77.93 o
2 0 -2 5985.18 6110.93 139.74 o
-1 0 2 29508.30 28123.40 262.25 o
1 0 -2 29763.90 27721.10 426.23 o
0 0 2 95003.80 96206.50 876.92 o
1 0 2 19915.10 19686.70 184.57 o
-1 0 -2 20210.90 19831.70 331.21 o
2 0 2 9627.71 9631.61 131.94 o
-2 0 -2 9687.79 9271.10 126.56 o
3 0 2 1275.04 1549.00 61.64 o
-3 0 -2 1353.16 1423.09 50.92 o
4 0 2 62828.00 63347.90 701.10 o
-4 0 -2 62756.70 62645.30 690.12 o
5 0 2 75479.60 75485.40 835.14 o
-5 0 -2 75400.70 74859.40 821.43 o
6 0 2 15289.00 13846.30 207.02 o
-6 0 -2 15189.20 14324.60 188.20 o
7 0 2 2791.27 2350.37 99.16 o
-7 0 -2 2808.57 2623.75 144.72 o
8 0 2 32768.70 32867.00 423.10 o
-8 0 -2 32727.00 33281.80 598.26 o
9 0 2 43.58 147.31 61.60 <
-9 0 -2 26.40 222.31 99.10 <
10 0 2 2433.08 2435.60 120.57 o
-10 0 -2 2404.22 2194.44 166.12 o
11 0 2 446.11 128.57 117.86 <
-11 0 -2 416.66 511.61 133.93 o
-11 1 2 166.45 166.07 128.57 <
11 -1 -2 181.94 149.99 136.60 <
-10 1 2 12360.90 11943.70 335.42 o
10 -1 -2 12399.20 12536.80 340.79 o
-9 1 2 9.83 42.85 64.28 <
9 -1 -2 15.04 133.92 112.49 <
-8 1 2 653.43 667.00 72.33 o
8 -1 -2 667.55 875.95 123.22 o
-7 1 2 17416.80 17045.50 252.65 o
7 -1 -2 17345.50 16824.90 362.84 o
-6 1 2 2431.81 2486.95 96.48 o
6 -1 -2 2393.13 2478.89 155.43 o
-5 1 2 1753.18 2031.19 85.75 o
5 -1 -2 1705.47 1873.07 131.30 o
-4 1 2 7356.54 7240.73 128.87 o
4 -1 -2 7343.90 7192.37 185.25 o
-3 1 2 2573.33 2732.05 80.43 o
3 -1 -2 2599.75 2581.93 115.29 o
-2 1 2 196.69 246.44 34.82 o
2 -1 -2 191.07 168.76 53.57 o
-1 1 2 68933.20 67348.70 596.50 o
1 -1 -2 69001.20 65857.20 989.56 o
0 1 2 22584.40 21860.60 176.76 o
1 1 2 17628.60 18511.20 154.49 o
2 1 2 73541.50 74389.20 673.40 o
-2 -1 -2 73325.20 75374.70 1109.15 o
3 1 2 362.09 391.12 37.50 o
-3 -1 -2 374.87 482.20 29.47 o
4 1 2 13963.50 14331.80 188.51 o
-4 -1 -2 13963.00 13787.80 261.21 o
5 1 2 1296.05 1050.37 58.95 o
-5 -1 -2 1267.21 1034.29 77.71 o
6 1 2 8576.79 8316.76 147.65 o
-6 -1 -2 8606.24 8757.10 209.40 o
7 1 2 6871.09 6451.69 134.13 o
-7 -1 -2 6865.06 6510.70 190.47 o
8 1 2 1414.93 1326.19 77.70 o
-8 -1 -2 1402.50 1315.47 115.20 o
9 1 2 22937.70 22606.00 320.02 o
-9 -1 -2 22837.00 22664.70 457.17 o
10 1 2 3786.75 3666.30 131.32 o
-10 -1 -2 3770.41 3923.57 190.28 o
11 1 2 560.60 744.66 88.40 o
-11 -1 -2 526.38 535.72 131.25 o
12 1 2 492.59 412.51 128.57 o
-12 -1 -2 494.91 549.11 144.65 o
-10 2 2 387.90 289.29 123.21 <
10 -2 -2 396.46 305.36 136.61 <
-9 2 2 9.91 174.10 72.32 <
9 -2 -2 9.74 123.21 120.53 <
-8 2 2 2131.86 2298.90 109.85 o
8 -2 -2 2049.02 2435.51 179.51 o
-7 2 2 1913.10 2087.22 101.82 o
7 -2 -2 1905.67 2170.28 168.80 o
-6 2 2 5675.17 5674.24 131.40 o
6 -2 -2 5727.63 5416.87 198.44 o
-5 2 2 7230.20 6702.32 136.84 o
5 -2 -2 7120.30 7067.03 203.91 o
-4 2 2 3621.64 3632.96 96.52 o
4 -2 -2 3541.02 3860.77 150.14 o
-3 2 2 13590.80 13089.90 182.96 o
3 -2 -2 13526.20 12707.50 258.29 o
-2 2 2 68041.80 67594.20 737.50 o
2 -2 -2 67423.10 66031.60 720.82 o
-1 2 2 9.66 91.07 29.46 o
1 -2 -2 54.02 66.96 29.46 <
0 2 2 7192.64 7010.58 86.05 o
1 2 2 71689.90 73507.30 561.15 o
2 2 2 9373.61 9040.89 88.85 o
3 2 2 250.03 273.23 26.79 o
-3 -2 -2 411.76 238.43 45.54 o
4 2 2 70614.40 72536.20 795.98 o
-4 -2 -2 70502.70 71646.20 1087.89 o
5 2 2 3146.47 2984.20 83.12 o
-5 -2 -2 3117.95 3000.26 117.97 o
6 2 2 2663.70 2385.57 83.09 o
-6 -2 -2 2597.15 2390.89 117.94 o
7 2 2 36915.60 36713.50 451.25 o
-7 -2 -2 36682.10 37489.60 621.45 o
8 2 2 2079.64 1787.28 85.75 o
-8 -2 -2 2092.13 1808.72 133.98 o
9 2 2 140.18 50.89 56.25 <
-9 -2 -2 98.68 83.03 85.71 <
10 2 2 4602.08 4390.59 136.70 o
-10 -2 -2 4590.79 4757.81 203.71 o
11 2 2 1462.71 1709.21 104.48 o
-11 -2 -2 1447.56 1719.92 158.06 o
12 2 2 3211.37 3167.36 139.34 o
-12 -2 -2 3304.22 3188.84 211.70 o
-10 3 2 1856.21 1760.18 171.46 o
10 -3 -2 1947.23 1650.36 179.50 o
-9 3 2 182.33 230.35 77.68 <
9 -3 -2 154.40 316.06 133.92 <
-8 3 2 6.69 18.75 64.28 <
8 -3 -2 10.10 -42.85 112.49 <
-7 3 2 1809.26 1907.62 104.49 o
7 -3 -2 1734.04 1749.52 147.36 o
-6 3 2 4306.43 4208.55 120.63 o
6 -3 -2 4378.74 4457.91 190.33 o
-5 3 2 23180.20 21286.50 290.71 o
5 -3 -2 22962.30 21137.50 409.13 o
-4 3 2 107.91 56.25 45.53 <
4 -3 -2 77.09 75.00 40.18 <
-3 3 2 26841.90 25883.80 321.19 o
3 -3 -2 26677.30 25518.30 304.98 o
-2 3 2 1264.21 1463.03 66.99 o
2 -3 -2 1285.81 1280.83 53.59 o
-1 3 2 17673.00 17961.50 223.85 o
1 -3 -2 17689.30 18029.10 221.15 o
0 3 2 1613.50 1637.69 48.25 o
0 -3 -2 1582.89 1546.54 75.05 o
1 3 2 639.28 546.57 26.79 o
-1 -3 -2 677.95 476.91 56.27 o
2 3 2 132.80 206.25 21.43 o
3 3 2 1857.97 1916.65 53.61 o
-3 -3 -2 1868.34 1884.49 72.38 o
4 3 2 4077.02 3914.01 69.75 o
-4 -3 -2 4052.42 3932.75 109.99 o
5 3 2 12053.30 12198.20 180.18 o
-5 -3 -2 12097.30 12211.80 233.96 o
6 3 2 28795.70 28054.90 351.06 o
-6 -3 -2 28612.20 28147.90 472.55 o
7 3 2 5238.61 5240.36 120.68 o
-7 -3 -2 5259.72 5299.39 166.28 o
8 3 2 13101.50 13102.00 206.82 o
-8 -3 -2 13053.30 13220.00 292.76 o
9 3 2 20692.70 20312.00 295.78 o
-9 -3 -2 20766.90 21094.80 414.10 o
10 3 2 1042.63 1259.08 88.40 o
-10 -3 -2 1197.71 1326.09 128.59 o
11 3 2 61.40 166.06 69.64 <
-11 -3 -2 46.41 85.71 101.78 <
12 3 2 4060.73 4322.86 150.08 o
-12 -3 -2 4097.61 4580.17 225.12 o
-9 4 2 14631.80 15647.80 386.50 o
9 -4 -2 14735.50 14477.80 394.55 o
-8 4 2 7371.24 7392.52 174.29 o
8 -4 -2 7525.27 7204.99 270.82 o
-7 4 2 5918.48 6026.76 152.81 o
7 -4 -2 5879.49 5973.11 241.28 o
-6 4 2 4681.56 4331.85 128.67 o
6 -4 -2 4802.48 4211.31 206.41 o
-5 4 2 16368.80 16191.20 244.51 o
5 -4 -2 16492.50 16801.50 357.36 o
-4 4 2 2993.68 2832.93 99.17 o
4 -4 -2 3041.07 2899.96 91.13 o
-3 4 2 2462.00 2460.28 88.44 o
3 -4 -2 2479.21 2438.85 83.08 o
-2 4 2 2048.57 2028.73 77.72 o
2 -4 -2 1986.43 1838.42 72.36 o
-1 4 2 2791.15 2554.82 75.06 o
1 -4 -2 2754.34 2444.88 75.06 o
0 4 2 50699.60 51095.20 460.93 o
0 -4 -2 50555.30 50337.10 820.91 o
1 4 2 3290.29 3467.65 61.68 o
-1 -4 -2 3282.49 3591.00 112.64 o
2 4 2 68250.00 69638.80 610.96 o
-2 -4 -2 67502.80 68993.80 1119.77 o
3 4 2 15776.60 15913.40 202.12 o
-3 -4 -2 15729.40 15867.30 202.11 o
4 4 2 56711.30 57699.50 634.06 o
-4 -4 -2 57160.40 57033.50 861.04 o
5 4 2 5987.62 5823.30 88.56 o
-5 -4 -2 5948.35 5884.95 142.23 o
6 4 2 3959.39 3582.34 101.89 o
-6 -4 -2 3933.78 3635.95 123.34 o
7 4 2 384.29 350.91 53.57 o
-7 -4 -2 426.20 225.01 66.97 o
8 4 2 1730.13 1795.21 93.78 o
-8 -4 -2 1698.27 1827.35 128.61 o
9 4 2 7913.33 8058.21 166.32 o
-9 -4 -2 7946.58 7704.17 225.33 o
10 4 2 1193.92 980.50 83.05 o
-10 -4 -2 1160.35 1047.47 120.55 o
11 4 2 2416.36 2481.17 120.57 o
-11 -4 -2 2389.64 2352.54 166.12 o
12 4 2 4124.75 3832.49 209.04 o
-12 -4 -2 4168.69 4180.92 211.73 o
13 4 2 3854.66 3741.12 219.75 o
-13 -4 -2 3795.13 4073.40 155.43 o
-8 5 2 430.60 450.00 83.04 o
8 -5 -2 448.70 527.68 150.00 o
-7 5 2 822.78 830.41 85.72 o
7 -5 -2 833.69 621.47 139.29 o
-6 5 2 290.13 433.92 69.64 o
6 -5 -2 344.75 474.11 120.54 o
-5 5 2 275.36 171.43 61.61 <
5 -5 -2 233.07 270.53 104.46 <
-4 5 2 6495.78 6629.35 144.82 o
4 -5 -2 6513.56 6819.78 222.59 o
-3 5 2 14803.30 14872.30 220.33 o
3 -5 -2 15143.10 14865.30 212.29 o
-2 5 2 33893.30 33648.30 410.44 o
2 -5 -2 33770.50 34306.20 405.03 o
-1 5 2 10360.80 9924.35 153.10 o
1 -5 -2 10376.90 9650.43 153.10 o
0 5 2 72061.30 74147.20 807.08 o
0 -5 -2 72675.80 72858.00 812.70 o
1 5 2 5680.94 5954.26 85.87 o
-1 -5 -2 5610.04 5940.70 160.99 o
2 5 2 13205.40 13338.40 182.94 o
-2 -5 -2 13204.30 12770.80 266.34 o
3 5 2 1884.72 2125.32 72.36 o
-3 -5 -2 1957.50 2227.22 67.00 o
4 5 2 2309.94 2096.07 67.01 o
-4 -5 -2 2175.72 1873.52 64.33 o
5 5 2 75944.00 77914.40 854.49 o
-5 -5 -2 76394.90 78431.30 868.29 o
6 5 2 2296.79 2366.50 72.36 o
-6 -5 -2 2224.86 2377.17 85.76 o
7 5 2 6601.17 6492.03 112.67 o
-7 -5 -2 6596.44 6784.43 134.13 o
8 5 2 28482.70 27130.90 490.45 o
-8 -5 -2 28617.40 27802.70 485.07 o
9 5 2 17745.90 17633.10 362.82 o
-9 -5 -2 17668.40 17439.30 354.75 o
10 5 2 439.25 428.58 96.43 o
-10 -5 -2 440.85 447.33 72.32 o
11 5 2 947.76 1039.38 125.90 o
-11 -5 -2 1007.86 967.06 88.40 o
12 5 2 3360.99 2912.91 190.26 o
-12 -5 -2 3284.19 2963.79 133.99 o
13 5 2 3301.53 3022.68 200.98 o
-13 -5 -2 3375.86 3258.53 147.38 o
-7 6 2 2374.67 2505.18 128.61 o
7 -6 -2 2393.82 2609.68 195.59 o
-6 6 2 5969.13 6551.95 166.21 o
6 -6 -2 6100.16 6452.89 260.05 o
-5 6 2 1536.18 1639.60 93.77 o
5 -6 -2 1535.63 1446.70 144.67 o
-4 6 2 1181.38 1210.89 80.37 o
4 -6 -2 1178.00 1293.94 128.59 o
-3 6 2 20238.30 19573.90 279.63 o
3 -6 -2 20263.10 20017.70 274.25 o
-2 6 2 2029.66 1811.38 88.43 o
2 -6 -2 1971.72 1972.13 91.10 o
-1 6 2 4842.45 4413.58 107.26 o
1 -6 -2 4775.74 4284.80 107.25 o
0 6 2 12761.50 13096.30 185.40 o
0 -6 -2 12774.30 13048.00 190.78 o
1 6 2 3453.73 3241.21 69.70 o
-1 -6 -2 3342.14 3334.95 126.00 o
2 6 2 2785.73 2803.82 88.46 o
-2 -6 -2 2765.14 2642.98 125.98 o
3 6 2 27130.00 26803.70 329.31 o
-3 -6 -2 27314.50 26065.40 485.89 o
4 6 2 2317.43 2280.82 77.72 o
-4 -6 -2 2244.52 2355.82 69.68 o
5 6 2 8325.43 8308.22 136.90 o
-5 -6 -2 8367.15 8378.11 136.91 o
6 6 2 14769.30 14183.40 196.24 o
-6 -6 -2 14469.30 14150.10 206.98 o
7 6 2 3006.10 2988.49 85.77 o
-7 -6 -2 3034.85 2942.94 96.49 o
8 6 2 3436.07 3221.76 147.42 o
-8 -6 -2 3340.44 3237.78 109.89 o
9 6 2 6192.62 5979.88 198.43 o
-9 -6 -2 6085.39 5907.35 144.80 o
10 6 2 4966.21 4852.11 195.69 o
-10 -6 -2 5118.72 5184.66 142.08 o
11 6 2 394.03 321.43 101.79 o
-11 -6 -2 339.93 415.18 77.68 o
12 6 2 8228.98 8283.89 268.17 o
-12 -6 -2 8290.82 8174.01 190.40 o
13 6 2 11306.50 10999.40 327.30 o
-13 -6 -2 11273.80 11879.30 236.08 o
-6 7 2 9832.93 10428.50 319.18 o
6 -7 -2 9867.71 10667.20 329.91 o
-5 7 2 2504.08 1926.51 158.09 o
5 -7 -2 2548.19 2360.59 174.16 o
-4 7 2 1969.02 1872.80 150.04 o
4 -7 -2 1975.35 1878.16 152.72 o
-3 7 2 591.58 409.84 64.29 o
3 -7 -2 384.34 482.15 107.14 o
-2 7 2 51.87 125.89 53.57 <
2 -7 -2 60.91 93.75 58.93 <
-1 7 2 2088.53 2025.73 147.37 o
1 -7 -2 2075.17 2106.11 96.46 o
0 7 2 659.02 650.95 88.40 o
0 -7 -2 722.67 664.35 64.29 o
1 7 2 3591.03 3562.55 109.91 o
-1 -7 -2 3529.29 3669.72 144.75 o
2 7 2 6342.38 5979.31 128.76 o
-2 -7 -2 6317.99 6057.07 182.41 o
3 7 2 56.39 93.75 42.86 <
-3 -7 -2 77.04 144.64 69.64 <
4 7 2 4639.34 4402.99 107.26 o
-4 -7 -2 4632.06 4411.03 160.89 o
5 7 2 37179.40 36692.60 432.38 o
-5 -7 -2 36909.70 35720.20 426.95 o
6 7 2 5907.47 5731.52 118.01 o
-6 -7 -2 5944.61 5514.32 120.69 o
7 7 2 1765.80 1709.48 80.38 o
-7 -7 -2 1783.73 1693.41 91.10 o
8 7 2 19619.20 19725.60 392.58 o
-8 -7 -2 19686.50 20164.20 285.02 o
9 7 2 1656.81 1733.46 125.92 o
-9 -7 -2 1550.52 1548.57 93.77 o
10 7 2 1265.02 1575.25 128.59 o
-10 -7 -2 1185.81 1291.26 91.08 o
11 7 2 8852.06 8100.21 254.81 o
-11 -7 -2 8854.63 8435.49 182.39 o
12 7 2 594.79 616.09 117.86 o
-12 -7 -2 649.49 575.91 85.72 o
13 7 2 2374.51 2620.39 192.91 o
-13 -7 -2 2324.89 2564.10 136.65 o
-5 8 2 3812.90 3859.03 217.07 o
5 -8 -2 3874.04 4113.66 230.47 o
-4 8 2 3387.16 3253.24 198.30 o
4 -8 -2 3385.64 3647.17 217.06 o
-3 8 2 120.32 -61.60 93.75 <
3 -8 -2 166.87 -56.25 101.78 <
-2 8 2 3580.27 3843.14 192.96 o
2 -8 -2 3525.51 3400.91 190.28 o
-1 8 2 21626.20 22520.50 473.21 o
1 -8 -2 21681.60 22246.50 309.20 o
0 8 2 28980.00 28121.10 562.85 o
0 -8 -2 28945.10 29464.70 377.03 o
1 8 2 17742.70 17708.00 381.68 o
-1 -8 -2 17669.70 17191.60 252.66 o
2 8 2 2972.44 2969.53 107.20 o
-2 -8 -2 2920.92 2677.37 142.04 o
3 8 2 23892.80 23174.30 312.29 o
-3 -8 -2 23633.40 23224.20 454.95 o
4 8 2 3435.55 3248.66 104.54 o
-4 -8 -2 3434.16 3237.94 152.78 o
5 8 2 11564.80 12413.10 193.32 o
-5 -8 -2 11703.80 12061.70 298.05 o
6 8 2 2112.52 2186.55 88.43 o
-6 -8 -2 2126.79 2036.50 142.02 o
7 8 2 1504.72 1417.31 75.02 o
-7 -8 -2 1545.91 1181.54 123.25 o
8 8 2 30613.60 30785.30 387.91 o
-8 -8 -2 30798.50 31414.10 401.40 o
9 8 2 991.93 1202.82 115.19 o
-9 -8 -2 984.96 1280.51 85.72 o
10 8 2 1813.50 1746.85 131.28 o
-10 -8 -2 1900.47 1744.20 101.81 o
11 8 2 180.27 174.10 99.10 <
-11 -8 -2 173.60 131.25 72.32 <
12 8 2 9065.65 8507.41 276.25 o
-12 -8 -2 8944.56 8995.38 198.47 o
13 8 2 244.11 366.96 123.21 <
-13 -8 -2 247.44 449.99 88.39 o
-4 9 2 4077.84 3877.92 219.76 o
4 -9 -2 4075.67 4529.16 241.20 o
-3 9 2 2676.85 2516.02 190.24 o
3 -9 -2 2638.15 2797.35 206.32 o
-2 9 2 1072.25 1028.68 136.62 o
2 -9 -2 1071.69 1101.01 139.30 o
-1 9 2 5379.08 5323.94 227.86 o
1 -9 -2 5378.54 5423.13 147.44 o
0 9 2 187.07 246.42 96.43 <
0 -9 -2 170.41 58.93 66.96 <
1 9 2 919.12 886.70 109.83 o
-1 -9 -2 932.22 1044.75 80.37 o
2 9 2 1289.39 1160.03 80.37 o
-2 -9 -2 1215.04 1310.04 120.56 o
3 9 2 4493.11 4760.93 128.67 o
-3 -9 -2 4400.48 4155.02 182.29 o
4 9 2 16085.70 16115.00 244.49 o
-4 -9 -2 16067.40 16031.70 368.08 o
5 9 2 7881.18 8267.44 160.95 o
-5 -9 -2 7909.20 8264.80 254.84 o
6 9 2 19131.90 19462.20 271.50 o
-6 -9 -2 19035.00 18588.20 427.41 o
7 9 2 98.45 96.42 50.89 <
-7 -9 -2 156.22 112.50 93.75 <
8 9 2 21960.10 22346.80 303.84 o
-8 -9 -2 22059.90 22320.30 486.69 o
9 9 2 106.61 133.92 85.71 <
-9 -9 -2 80.20 -29.46 96.42 <
10 9 2 49.21 40.18 85.71 <
-10 -9 -2 39.23 104.46 112.49 <
11 9 2 53.35 305.34 104.46 <
-11 -9 -2 66.21 190.17 117.85 <
12 9 2 26.74 136.60 107.14 <
-12 -9 -2 40.65 91.07 120.53 <
13 9 2 15973.50 15232.00 389.26 o
-13 -9 -2 16167.00 15205.50 410.74 o
-3 10 2 471.70 302.68 128.57 <
3 -10 -2 366.32 283.93 136.61 <
-2 10 2 2632.98 2818.77 200.96 o
2 -10 -2 2572.79 2666.02 203.64 o
-1 10 2 221.32 436.60 120.53 o
1 -10 -2 315.09 246.43 115.18 <
0 10 2 1030.75 969.74 131.26 o
0 -10 -2 1055.02 744.72 85.72 o
1 10 2 37.52 56.25 93.75 <
-1 -10 -2 29.90 85.71 66.96 <
2 10 2 1008.27 1146.55 125.91 o
-2 -10 -2 1103.94 1017.98 85.73 o
3 10 2 1679.63 1612.87 93.77 o
-3 -10 -2 1714.86 1768.27 136.64 o
4 10 2 5174.41 4787.96 136.72 o
-4 -10 -2 5383.78 4705.02 203.75 o
5 10 2 311.64 297.32 61.61 o
-5 -10 -2 314.23 270.54 109.82 <
6 10 2 826.68 809.00 72.33 o
-6 -10 -2 861.51 892.05 123.23 o
7 10 2 475.69 725.91 69.64 o
-7 -10 -2 421.89 573.22 125.89 o
8 10 2 4518.18 4497.76 128.66 o
-8 -10 -2 4465.76 4229.68 217.11 o
9 10 2 5298.59 5141.58 201.05 o
-9 -10 -2 5318.09 5361.41 238.58 o
10 10 2 1872.14 1955.81 147.36 o
-10 -10 -2 1893.17 2095.14 182.19 o
11 10 2 15099.00 15177.90 365.09 o
-11 -10 -2 15261.30 15127.30 408.05 o
12 10 2 604.61 538.41 117.86 o
-12 -10 -2 619.27 455.37 139.29 o
-1 11 2 127.21 16.07 117.85 <
1 -11 -2 123.05 286.60 125.89 <
0 11 2 810.31 1138.46 152.69 o
0 -11 -2 797.71 910.77 139.29 o
1 11 2 14687.20 13926.20 378.49 o
-1 -11 -2 14857.00 14576.20 252.33 o
2 11 2 281.89 64.28 99.11 <
-2 -11 -2 299.57 297.32 80.36 o
3 11 2 150.88 80.35 96.43 <
-3 -11 -2 149.69 144.64 112.50 <
4 11 2 7178.66 6754.66 166.25 o
-4 -11 -2 7078.91 6767.96 244.01 o
5 11 2 544.93 498.23 72.32 o
-5 -11 -2 519.92 490.19 125.90 o
6 11 2 1370.53 1360.93 91.09 o
-6 -11 -2 1364.40 1548.46 150.02 o
7 11 2 1953.02 1840.64 101.81 o
-7 -11 -2 1970.83 1760.27 163.43 o
8 11 2 23.99 128.56 58.93 <
-8 -11 -2 14.55 61.60 112.49 <
9 11 2 1205.20 1125.14 125.91 o
-9 -11 -2 1187.71 1114.42 158.05 o
10 11 2 651.64 543.77 115.18 o
-10 -11 -2 688.54 549.13 131.26 o
11 11 2 733.24 691.10 123.22 o
-11 -11 -2 737.75 723.25 152.69 o
12 11 2 64.98 21.43 107.14 <
-12 -11 -2 58.65 72.32 131.24 <
1 12 2 73.18 16.07 117.85 <
-1 -12 -2 69.41 75.00 83.03 <
2 12 2 287.28 340.17 120.53 <
-2 -12 -2 308.11 372.32 88.39 o
3 12 2 262.26 345.53 117.86 <
-3 -12 -2 224.13 476.77 88.39 o
4 12 2 8167.53 7827.83 187.72 o
-4 -12 -2 8159.86 8101.35 276.21 o
5 12 2 963.67 953.65 91.08 o
-5 -12 -2 958.64 790.25 136.62 o
6 12 2 7441.71 7730.55 176.97 o
-6 -12 -2 7656.62 8240.29 286.92 o
7 12 2 2499.36 2406.12 120.57 o
-7 -12 -2 2574.32 2124.81 190.24 o
8 12 2 3611.60 3716.96 133.99 o
-8 -12 -2 3621.35 3355.19 206.35 o
9 12 2 3554.61 3231.86 184.91 o
-9 -12 -2 3548.28 3392.65 209.03 o
10 12 2 2772.60 3344.01 190.24 o
-10 -12 -2 2766.27 3199.31 225.08 o
11 12 2 227.07 358.92 117.85 o
-11 -12 -2 242.47 291.96 144.64 <
3 13 2 1458.09 1352.88 160.74 o
-3 -13 -2 1572.24 1492.21 115.20 o
4 13 2 16596.50 16731.40 429.56 o
-4 -13 -2 16542.40 16739.40 292.64 o
5 13 2 768.01 996.48 99.11 o
-5 -13 -2 831.58 1047.39 160.72 o
6 13 2 2159.14 2322.91 128.60 o
-6 -13 -2 2131.67 2274.67 200.94 o
7 13 2 10086.80 10686.30 217.27 o
-7 -13 -2 9983.53 10270.40 343.33 o
8 13 2 3252.56 3644.35 142.02 o
-8 -13 -2 3315.28 3711.37 235.81 o
9 13 2 4843.62 4068.65 209.06 o
-9 -13 -2 4768.15 4363.43 251.94 o
-8 -13 3 13.31 246.41 152.67 <
8 13 -3 17.27 -13.39 131.24 <
-7 -13 3 1264.39 1261.76 179.49 o
7 13 -3 1270.61 1497.51 182.16 o
-6 -13 3 136.01 219.63 149.99 <
6 13 -3 135.86 40.18 131.24 <
-5 -13 3 42.81 32.14 147.31 <
5 13 -3 29.80 -37.50 131.24 <
-10 -12 3 4445.07 4156.86 246.57 o
10 12 -3 4529.02 3567.28 235.85 o
-9 -12 3 3758.21 3864.38 230.47 o
9 12 -3 3717.00 3883.11 230.47 o
-8 -12 3 4443.31 3939.83 243.89 o
8 12 -3 4249.73 3701.19 227.81 o
-7 -12 3 2472.04 2076.53 206.31 o
7 12 -3 2414.63 2553.44 198.27 o
-6 -12 3 1678.28 1872.68 198.25 o
6 12 -3 1640.77 2285.24 187.53 o
-5 -12 3 1223.59 750.09 155.38 o
5 12 -3 1019.70 1028.67 150.01 o
-4 -12 3 1564.32 1768.16 190.21 o
4 12 -3 1573.17 1931.58 179.49 o
-3 -12 3 2156.77 2280.04 206.30 o
3 12 -3 2271.34 2446.20 195.59 o
-2 -12 3 502.66 318.75 133.93 <
2 12 -3 502.25 591.97 144.65 o
-11 -11 3 1872.27 1160.07 160.75 o
11 11 -3 1824.87 1532.46 160.75 o
-10 -11 3 3661.22 3778.59 227.79 o
10 11 -3 3637.07 3867.01 230.47 o
-9 -11 3 6970.20 7330.43 276.17 o
9 11 -3 7116.93 7834.67 281.53 o
-8 -11 3 448.11 441.97 141.97 o
8 11 -3 426.05 345.54 123.21 <
-7 -11 3 2506.41 2052.46 187.56 o
7 11 -3 2404.51 2443.62 198.28 o
-6 -11 3 3361.70 3221.14 219.74 o
6 11 -3 3529.76 3403.46 209.03 o
-5 -11 3 9915.45 9756.44 311.18 o
5 11 -3 9888.85 9289.64 303.13 o
-4 -11 3 2634.07 2947.46 206.32 o
4 11 -3 2597.57 3247.54 206.32 o
-3 -11 3 3243.09 3183.53 206.34 o
3 11 -3 3323.89 3229.13 209.02 o
-2 -11 3 2216.98 2119.33 190.23 o
2 11 -3 2274.82 2387.28 187.55 o
-1 -11 3 16384.20 17217.90 443.00 o
1 11 -3 16561.70 16845.20 426.90 o
0 -11 3 933.52 683.09 147.33 o
0 11 -3 908.33 701.84 139.30 o
-12 -10 3 1159.51 1176.02 163.41 o
12 10 -3 1216.73 1476.06 144.66 o
-11 -10 3 14508.10 14902.20 394.57 o
11 10 -3 14696.50 14247.70 249.63 o
-10 -10 3 1440.56 1532.39 163.42 o
10 10 -3 1455.41 1505.60 99.12 o
-9 -10 3 238.21 345.53 123.21 <
9 10 -3 283.08 192.85 69.64 <
-8 -10 3 3641.04 3518.81 209.04 o
8 10 -3 3595.55 3644.74 128.64 o
-7 -10 3 11706.20 11305.80 338.13 o
7 10 -3 11666.80 11324.50 316.66 o
-6 -10 3 8340.46 8403.13 286.99 o
6 10 -3 8554.06 7880.39 268.22 o
-5 -10 3 1152.73 1363.58 155.38 o
5 10 -3 1204.36 1385.02 139.31 o
-4 -10 3 1851.27 1982.64 163.43 o
4 10 -3 1812.67 1856.70 155.40 o
-3 -10 3 9684.33 9539.57 303.14 o
3 10 -3 9720.62 9582.55 292.41 o
-2 -10 3 8642.98 8797.37 295.03 o
2 10 -3 8540.83 9089.58 289.67 o
-1 -10 3 162.01 200.89 109.82 <
1 10 -3 111.02 235.71 107.14 <
0 -10 3 3303.58 2985.24 200.98 o
0 10 -3 3321.62 3237.15 200.98 o
1 -10 3 3986.89 4172.73 222.44 o
-1 10 -3 3974.75 4266.52 219.76 o
2 -10 3 6598.43 6281.45 260.05 o
-2 10 -3 6586.37 6042.84 254.69 o
-12 -9 3 3170.93 3641.64 139.34 o
12 9 -3 3277.97 3462.16 198.30 o
-11 -9 3 841.27 476.82 85.72 o
11 9 -3 900.50 661.66 83.04 o
-10 -9 3 393.20 407.14 77.68 o
10 9 -3 325.30 484.82 77.68 o
-9 -9 3 4687.59 4832.86 139.38 o
9 9 -3 4658.31 4567.47 136.70 o
-8 -9 3 2690.87 2615.32 112.54 o
8 9 -3 2630.03 2414.33 115.22 o
-7 -9 3 577.39 396.45 69.65 o
7 9 -3 446.89 570.55 66.97 o
-6 -9 3 410.08 452.69 64.29 o
6 9 -3 435.39 557.15 61.61 o
-5 -9 3 3595.65 3741.52 112.57 o
5 9 -3 3495.66 3843.29 117.93 o
-4 -9 3 5012.64 4289.38 195.70 o
4 9 -3 4841.61 4664.55 206.42 o
-3 -9 3 6938.68 7028.88 246.72 o
3 9 -3 6938.32 7063.75 241.36 o
-2 -9 3 7184.51 6669.60 230.63 o
2 9 -3 7168.69 6455.04 233.32 o
-1 -9 3 880.76 921.51 133.94 o
1 9 -3 858.64 977.76 125.90 o
0 -9 3 3230.15 3432.85 195.63 o
0 9 -3 3277.24 3609.75 195.63 o
1 -9 3 1234.34 1500.20 155.38 o
-1 9 -3 1285.24 1602.01 144.66 o
2 -9 3 7051.71 6759.42 260.08 o
-2 9 -3 7214.55 7129.60 254.72 o
3 -9 3 3602.86 3933.97 211.71 o
-3 9 -3 3678.00 3639.23 209.03 o
-13 -8 3 145.49 171.42 120.53 <
13 8 -3 128.96 208.92 125.89 <
-12 -8 3 725.83 672.35 120.54 o
12 8 -3 655.81 428.59 128.58 o
-11 -8 3 1575.92 1441.33 96.45 o
11 8 -3 1698.53 1465.47 99.13 o
-10 -8 3 11087.50 11089.60 209.29 o
10 8 -3 11009.60 11282.60 206.60 o
-9 -8 3 866.25 774.17 80.36 o
9 8 -3 854.59 806.32 75.01 o
-8 -8 3 593.21 573.24 72.32 o
8 8 -3 589.19 621.46 66.97 o
-7 -8 3 1603.74 2057.64 101.81 o
7 8 -3 1707.78 2046.96 91.10 o
-6 -8 3 6943.85 7300.52 150.19 o
6 8 -3 7036.97 7255.06 144.83 o
-5 -8 3 4963.14 5059.19 123.33 o
5 8 -3 4987.07 5123.56 123.33 o
-4 -8 3 886.49 956.36 69.65 o
4 8 -3 855.33 865.28 61.61 o
-3 -8 3 684.07 760.77 64.29 o
3 8 -3 728.02 747.39 101.79 o
-2 -8 3 9669.83 9571.93 271.03 o
2 8 -3 9759.02 9802.88 171.74 o
-1 -8 3 6463.18 6521.80 225.26 o
1 8 -3 6617.92 6774.08 144.81 o
0 -8 3 458.43 401.80 109.82 o
0 8 -3 462.43 500.90 61.61 o
1 -8 3 5514.40 5423.49 219.84 o
-1 8 -3 5405.05 5015.90 136.72 o
2 -8 3 2588.14 2709.00 182.21 o
-2 8 -3 2618.32 2700.98 115.22 o
3 -8 3 523.16 455.37 120.54 o
-3 8 -3 500.11 514.29 72.32 o
4 -8 3 7906.43 8301.97 281.56 o
-4 8 -3 7657.46 8014.75 179.65 o
5 -8 3 37.62 141.96 123.21 <
-5 8 -3 36.55 18.75 96.42 <
-13 -7 3 374.09 407.14 125.89 o
13 7 -3 377.09 329.46 131.25 <
-12 -7 3 2333.79 1875.54 158.08 o
12 7 -3 2243.98 2124.69 168.80 o
-11 -7 3 2219.07 2526.61 168.80 o
11 7 -3 2313.37 2473.06 125.93 o
-10 -7 3 12064.20 11864.70 212.01 o
10 7 -3 11936.20 12132.80 212.01 o
-9 -7 3 1656.20 1728.08 93.77 o
9 7 -3 1624.02 2028.14 107.17 o
-8 -7 3 7346.38 7300.70 152.88 o
8 7 -3 7357.47 7268.53 152.88 o
-7 -7 3 168.87 299.99 58.93 o
7 7 -3 206.36 332.14 56.25 o
-6 -7 3 3455.36 3626.55 104.54 o
6 7 -3 3747.85 3787.60 107.22 o
-5 -7 3 10946.40 10685.80 179.89 o
5 7 -3 10910.60 10704.50 171.83 o
-4 -7 3 3217.71 3500.55 101.85 o
4 7 -3 3208.40 3473.74 101.85 o
-3 -7 3 17661.20 18312.60 255.46 o
3 7 -3 17423.30 17795.30 242.00 o
-2 -7 3 9795.19 10001.30 131.53 o
2 7 -3 9813.11 10272.50 263.05 o
-1 -7 3 3820.83 3621.46 101.86 o
1 7 -3 3661.84 3808.98 109.90 o
0 -7 3 1146.43 1168.06 69.65 o
0 7 -3 1189.10 1170.75 69.66 o
1 -7 3 1140.06 1390.39 80.37 o
-1 7 -3 1166.62 1414.51 77.69 o
2 -7 3 935.05 701.86 75.01 o
-2 7 -3 793.48 650.95 66.97 o
3 -7 3 14101.40 13994.90 351.68 o
-3 7 -3 14167.20 13817.90 225.51 o
4 -7 3 1357.44 1698.47 152.70 o
-4 7 -3 1323.84 1470.75 91.08 o
5 -7 3 2083.23 1878.15 163.43 o
-5 7 -3 2034.17 1977.26 109.85 o
6 -7 3 3066.02 3244.98 209.01 o
-6 7 -3 3053.54 2832.32 190.25 o
-13 -6 3 141.04 182.14 120.53 <
13 6 -3 146.14 45.53 128.57 <
-12 -6 3 1484.37 1197.51 139.31 o
12 6 -3 1423.57 1537.73 155.38 o
-11 -6 3 5846.54 6316.10 227.87 o
11 6 -3 5724.65 6224.83 160.85 o
-10 -6 3 893.97 784.89 77.69 o
10 6 -3 880.96 830.43 77.69 o
-9 -6 3 5572.65 5657.13 139.42 o
9 6 -3 5612.92 5922.60 144.78 o
-8 -6 3 5902.79 6312.26 139.44 o
8 6 -3 6017.21 6194.41 142.12 o
-7 -6 3 8858.67 8678.24 158.32 o
7 6 -3 8791.72 8632.50 158.32 o
-6 -6 3 390.28 273.22 53.57 o
6 6 -3 298.30 337.50 50.89 o
-5 -6 3 1638.78 1741.66 83.06 o
5 6 -3 1797.98 1575.59 83.07 o
-4 -6 3 8765.58 9048.87 155.69 o
4 6 -3 8664.29 8997.64 144.95 o
-3 -6 3 24169.40 23583.50 304.53 o
3 6 -3 24165.20 23437.90 291.05 o
-2 -6 3 1103.90 1339.58 53.58 o
2 6 -3 1138.65 1594.11 112.53 o
-1 -6 3 25573.70 25551.20 318.01 o
1 6 -3 25437.00 25065.30 479.69 o
0 -6 3 155.94 219.64 45.53 o
0 6 -3 144.89 316.06 48.21 o
1 -6 3 7272.35 6856.57 139.49 o
-1 6 -3 7522.26 7071.54 139.50 o
2 -6 3 3274.06 3714.66 109.89 o
-2 6 -3 3432.39 3891.66 115.25 o
3 -6 3 981.91 1184.07 80.37 o
-3 6 -3 1004.81 1192.11 77.69 o
4 -6 3 5527.61 5645.94 147.45 o
-4 6 -3 5560.61 5940.87 142.09 o
5 -6 3 2206.06 2288.15 115.21 o
-5 6 -3 2298.44 2172.97 109.85 o
6 -6 3 1634.78 1950.36 163.42 o
-6 6 -3 1594.98 2049.47 158.06 o
7 -6 3 227.60 324.10 123.21 <
-7 6 -3 214.29 48.21 115.18 <
-13 -5 3 446.97 29.46 115.18 <
13 5 -3 463.04 115.18 131.25 <
-12 -5 3 584.02 361.62 120.54 <
12 5 -3 526.37 404.47 133.93 o
-11 -5 3 5557.97 5862.77 222.50 o
11 5 -3 5825.12 5723.61 227.87 o
-10 -5 3 221.19 447.31 104.46 o
10 5 -3 248.64 200.89 72.32 <
-9 -5 3 2968.99 2757.58 107.19 o
9 5 -3 2807.08 2912.93 120.59 o
-8 -5 3 2129.80 2234.75 96.46 o
8 5 -3 2071.09 2398.18 107.18 o
-7 -5 3 5935.85 6136.25 131.41 o
7 5 -3 5872.84 5658.78 134.09 o
-6 -5 3 16151.50 16023.20 228.56 o
6 5 -3 15829.30 15927.80 223.16 o
-5 -5 3 714.77 616.15 53.58 o
5 5 -3 652.81 642.93 50.90 o
-4 -5 3 2578.45 2731.28 88.45 o
4 5 -3 2571.23 2618.70 80.41 o
-3 -5 3 13276.10 14048.50 198.96 o
3 5 -3 13320.40 13922.30 188.21 o
-2 -5 3 14010.50 13330.80 193.63 o
2 5 -3 13886.50 13276.50 180.18 o
-1 -5 3 3793.93 3799.34 69.71 o
1 5 -3 3776.71 3667.94 152.83 o
0 -5 3 514.85 404.49 45.54 o
0 5 -3 459.59 358.95 45.54 o
1 -5 3 913.85 784.95 56.26 o
-1 5 -3 988.30 889.45 58.94 o
2 -5 3 14392.10 14079.40 209.58 o
-2 5 -3 14572.80 14114.90 209.59 o
3 -5 3 5583.53 5344.05 128.71 o
-3 5 -3 5577.31 5523.70 126.03 o
4 -5 3 7744.68 7901.76 160.93 o
-4 5 -3 7637.49 7872.10 155.57 o
5 -5 3 2015.00 2057.72 109.85 o
-5 5 -3 2058.79 2105.96 96.46 o
6 -5 3 13344.90 12770.40 225.46 o
-6 5 -3 13493.10 12142.60 311.35 o
7 -5 3 611.60 527.70 80.36 o
-7 5 -3 487.46 546.44 120.54 o
8 -5 3 27.25 136.60 115.17 <
-8 5 -3 17.93 -117.85 109.82 <
-12 -4 3 1199.87 1119.77 147.34 o
12 4 -3 1112.93 1417.11 160.73 o
-11 -4 3 4454.13 4355.43 203.70 o
11 4 -3 4336.40 4631.41 217.10 o
-10 -4 3 14268.70 13397.10 332.91 o
10 4 -3 14303.00 14092.60 233.58 o
-9 -4 3 531.36 645.56 104.47 o
9 4 -3 519.81 669.67 72.32 o
-8 -4 3 228.16 198.21 56.25 o
8 4 -3 191.93 203.57 58.93 o
-7 -4 3 30010.70 29848.30 372.13 o
7 4 -3 29840.50 29531.70 372.11 o
-6 -4 3 748.14 693.84 56.26 o
6 4 -3 719.38 825.10 58.94 o
-5 -4 3 6015.20 5813.91 115.37 o
5 4 -3 5947.00 5733.32 118.05 o
-4 -4 3 1534.91 1768.59 96.47 o
4 4 -3 1792.58 1744.61 72.36 o
-3 -4 3 1718.81 1905.42 75.04 o
3 4 -3 1722.77 1867.90 69.68 o
-2 -4 3 12716.70 12835.50 180.21 o
2 4 -3 12833.20 12593.90 268.98 o
-1 -4 3 2974.82 3061.71 85.79 o
1 4 -3 2893.73 3040.18 134.05 o
0 -4 3 597.03 661.69 40.18 o
0 4 -3 741.36 744.77 72.33 o
1 -4 3 2867.15 2825.32 83.10 o
-1 4 -3 2882.35 2830.69 88.46 o
2 -4 3 18049.40 17690.70 236.77 o
-2 4 -3 18024.70 17499.50 236.77 o
3 -4 3 3000.59 3618.31 104.53 o
-3 4 -3 2982.60 3218.94 99.17 o
4 -4 3 1115.51 1138.58 69.65 o
-4 4 -3 1087.47 1133.22 66.98 o
5 -4 3 5183.19 4876.64 128.69 o
-5 4 -3 5095.50 4662.09 120.64 o
6 -4 3 1384.11 1253.79 83.05 o
-6 4 -3 1385.92 1259.15 123.24 o
7 -4 3 6639.23 6480.38 160.87 o
-7 4 -3 6613.27 6370.43 230.58 o
8 -4 3 1014.09 1052.77 93.76 o
-8 4 -3 1035.47 1280.48 144.66 o
-12 -3 3 4196.40 4119.23 222.44 o
12 3 -3 4225.13 4845.54 235.85 o
-11 -3 3 938.42 1071.52 139.30 o
11 3 -3 949.92 1082.24 144.65 o
-10 -3 3 4782.17 4980.41 209.08 o
10 3 -3 4760.02 4741.83 144.75 o
-9 -3 3 276.75 436.60 101.79 o
9 3 -3 276.10 441.96 69.64 o
-8 -3 3 2641.25 2752.19 155.43 o
8 3 -3 2669.53 2628.93 112.55 o
-7 -3 3 1539.32 1470.96 75.02 o
7 3 -3 1516.29 1602.24 85.74 o
-6 -3 3 22692.20 21301.40 277.48 o
6 3 -3 22695.80 21328.30 280.17 o
-5 -3 3 17841.20 17809.50 234.23 o
5 3 -3 17723.00 17383.60 234.22 o
-4 -3 3 314.10 425.91 45.54 o
4 3 -3 303.20 508.95 45.54 o
-3 -3 3 642.97 760.84 48.22 o
3 3 -3 674.40 750.14 42.87 o
-2 -3 3 34430.20 35393.60 409.69 o
2 3 -3 34423.90 34875.30 599.61 o
-1 -3 3 69774.50 73288.50 802.68 o
1 3 -3 69380.80 71164.20 1159.87 o
0 -3 3 621.57 661.72 48.22 o
0 3 -3 613.21 621.53 64.30 o
1 -3 3 1945.59 1884.12 69.68 o
-1 3 -3 1989.06 1884.14 109.89 o
2 -3 3 16964.10 17713.30 231.48 o
-2 3 -3 17104.80 17224.10 228.79 o
3 -3 3 21358.50 21684.40 282.77 o
-3 3 -3 21288.80 21902.10 280.07 o
4 -3 3 15497.60 15339.10 223.09 o
-4 3 -3 15495.30 14992.40 215.02 o
5 -3 3 562.64 803.61 66.97 o
-5 3 -3 637.67 889.35 58.93 o
6 -3 3 5875.59 5963.10 142.11 o
-6 3 -3 5867.71 6180.27 203.77 o
7 -3 3 6943.57 6864.56 158.21 o
-7 3 -3 7008.25 6996.03 230.61 o
8 -3 3 3748.54 4086.92 136.68 o
-8 3 -3 3835.36 3660.86 192.96 o
9 -3 3 1942.62 1971.87 109.85 o
-9 3 -3 1915.28 2330.87 182.18 o
-12 -2 3 1787.67 1575.31 171.46 o
12 2 -3 1782.76 2081.66 182.18 o
-11 -2 3 12845.10 13412.50 356.92 o
11 2 -3 12935.50 13694.50 351.55 o
-10 -2 3 3559.55 3607.21 190.28 o
10 2 -3 3502.99 3861.77 134.00 o
-9 -2 3 328.64 275.89 101.79 <
9 2 -3 206.80 468.74 72.32 o
-8 -2 3 13703.40 14040.30 322.27 o
8 2 -3 13741.70 13962.60 220.22 o
-7 -2 3 9183.35 9278.11 241.55 o
7 2 -3 9153.15 9291.46 169.08 o
-6 -2 3 6413.22 6068.41 115.36 o
6 2 -3 6333.31 5781.23 128.77 o
-5 -2 3 7251.80 6965.15 120.78 o
5 2 -3 7182.86 6962.33 134.20 o
-4 -2 3 14706.50 14725.60 193.79 o
4 2 -3 14967.10 14584.20 201.88 o
-3 -2 3 66386.60 68996.30 752.32 o
3 2 -3 66639.10 67552.90 746.90 o
2 2 -3 1348.67 1942.93 120.60 o
-1 -2 3 4125.91 4201.78 88.54 o
1 2 -3 4123.53 4083.72 136.84 o
0 -2 3 382.58 399.15 42.86 o
0 2 -3 280.01 525.03 58.93 o
1 -2 3 30737.40 31104.60 289.91 o
-1 2 -3 30895.70 31109.20 522.96 o
2 -2 3 9159.55 9067.22 134.33 o
-2 2 -3 9268.14 9048.74 139.71 o
3 -2 3 14789.90 14487.80 201.74 o
-3 2 -3 14690.80 14549.30 199.05 o
4 -2 3 1755.72 1926.63 83.07 o
-4 2 -3 1752.85 1974.86 77.71 o
5 -2 3 10927.70 10852.30 179.89 o
-5 2 -3 10908.80 10876.40 169.15 o
6 -2 3 7571.81 7854.00 158.26 o
-6 2 -3 7552.68 8116.84 225.32 o
7 -2 3 9677.72 9484.28 182.44 o
-7 2 -3 9593.85 9462.67 262.93 o
8 -2 3 6645.39 6829.20 160.88 o
-8 2 -3 6614.77 6633.43 235.95 o
9 -2 3 1348.92 1114.45 91.08 o
-9 2 -3 1359.03 1368.95 144.66 o
10 -2 3 244.99 316.06 80.36 o
-10 2 -3 213.96 286.60 125.89 <
-11 -1 3 1415.93 1577.91 158.06 o
11 1 -3 1400.35 1529.69 166.10 o
-10 -1 3 459.39 417.86 117.86 o
10 1 -3 512.31 372.33 80.36 o
-9 -1 3 295.74 214.28 101.79 <
9 1 -3 257.72 345.53 72.32 o
-8 -1 3 558.57 637.53 104.47 o
8 1 -3 560.94 760.75 115.18 o
-7 -1 3 573.07 549.14 64.29 o
7 1 -3 729.87 578.63 101.80 o
-6 -1 3 3961.20 3774.84 109.92 o
6 1 -3 4222.97 3842.11 158.19 o
-5 -1 3 2274.78 2481.80 64.32 o
5 1 -3 2292.15 2511.29 131.33 o
-4 -1 3 3956.56 3813.64 144.82 o
-3 -1 3 38649.30 37446.40 421.23 o
3 1 -3 38597.90 36413.00 576.13 o
-2 -1 3 2232.81 2458.45 67.02 o
2 1 -3 2238.78 2509.40 77.75 o
-1 -1 3 313.30 278.60 37.50 o
1 1 -3 381.09 294.68 34.83 o
0 -1 3 924.05 892.29 48.23 o
0 1 -3 1000.27 940.56 64.31 o
1 -1 3 8086.33 8189.32 96.76 o
-1 1 -3 8048.02 8183.81 180.07 o
2 -1 3 74172.10 76573.90 837.05 o
-2 1 -3 74361.50 77176.80 839.87 o
3 -1 3 5172.77 5591.23 104.63 o
-3 1 -3 5172.05 5537.57 101.95 o
4 -1 3 2576.76 2650.87 85.77 o
-4 1 -3 2601.97 2637.48 77.73 o
5 -1 3 27940.80 27283.80 342.46 o
-5 1 -3 28032.20 27319.50 328.99 o
6 -1 3 3475.23 3822.23 109.90 o
-6 1 -3 3345.23 3420.08 158.14 o
7 -1 3 7783.23 7714.39 158.26 o
-7 1 -3 7942.07 7537.58 225.32 o
8 -1 3 524.06 533.05 72.32 o
-8 1 -3 537.60 704.49 107.15 o
9 -1 3 454.87 206.25 69.64 <
-9 1 -3 379.96 227.68 104.46 <
10 -1 3 21152.90 20669.00 322.41 o
-10 1 -3 21174.70 21523.40 475.55 o
-11 0 3 3347.35 3183.49 206.34 o
11 0 -3 3243.17 2907.44 217.05 o
-10 0 3 561.50 409.83 120.54 o
10 0 -3 558.72 238.40 125.90 <
-9 0 3 4714.33 4594.33 139.38 o
9 0 -3 4612.43 4604.98 211.75 o
-8 0 3 1969.60 2071.15 107.17 o
8 0 -3 1940.32 1990.76 147.36 o
-7 0 3 503.57 308.05 61.61 o
7 0 -3 564.95 310.73 96.43 o
-6 0 3 296.13 123.21 53.57 <
6 0 -3 249.17 219.64 88.39 <
-5 0 3 2227.22 1897.44 88.44 o
5 0 -3 2191.95 2294.05 131.32 o
-4 0 3 4693.88 4685.96 107.29 o
4 0 -3 4828.58 4377.68 150.21 o
-3 0 3 34.81 83.03 26.78 o
3 0 -3 67.40 64.28 58.93 <
-2 0 3 4737.84 4903.09 75.14 o
2 0 -3 4565.45 5144.25 126.12 o
-1 0 3 483.07 310.77 29.47 o
1 0 -3 521.47 337.56 45.54 o
0 0 3 4.43 -58.93 24.11 <
1 0 3 948.65 870.86 37.51 o
-1 0 -3 1010.85 1128.14 64.31 o
2 0 3 901.34 1213.77 48.23 o
-2 0 -3 814.71 1157.47 80.38 o
3 0 3 260.75 166.08 34.82 o
-3 0 -3 281.37 294.65 34.82 o
4 0 3 892.30 959.14 53.58 o
-4 0 -3 1009.55 951.13 50.91 o
5 0 3 282.10 166.07 42.86 o
-5 0 -3 234.25 241.07 34.82 o
6 0 3 282.19 425.89 53.57 o
-6 0 -3 246.53 498.21 80.36 o
7 0 3 1451.04 1299.41 75.02 o
-7 0 -3 1482.85 1377.11 109.85 o
8 0 3 776.20 1084.91 80.36 o
-8 0 -3 747.44 1036.69 115.19 o
9 0 3 2603.51 2759.94 120.58 o
-9 0 -3 2656.84 2875.18 171.49 o
10 0 3 4174.08 3848.63 136.68 o
-10 0 -3 4173.13 4079.12 206.37 o
11 0 3 360.63 278.57 80.36 o
-11 0 -3 334.67 262.50 123.21 <
-10 1 3 15870.80 15469.00 391.96 o
10 -1 -3 15816.30 16175.00 400.01 o
-9 1 3 1251.15 1272.50 96.44 o
9 -1 -3 1207.82 1553.77 155.38 o
-8 1 3 1185.40 1210.89 88.41 o
8 -1 -3 1201.88 1253.75 136.63 o
-7 1 3 7987.28 7956.15 166.31 o
7 -1 -3 8030.47 7771.13 241.42 o
-6 1 3 15659.00 15320.60 233.80 o
6 -1 -3 15428.50 14989.30 325.15 o
-5 1 3 9734.33 9799.42 169.14 o
5 -1 -3 9639.43 9436.76 233.57 o
-4 1 3 6206.18 6028.94 123.42 o
4 -1 -3 6214.80 6251.65 177.09 o
-3 1 3 618.53 803.69 53.58 o
3 -1 -3 626.23 830.48 75.01 o
-2 1 3 68818.00 67900.50 607.43 o
2 -1 -3 68688.10 65132.30 1008.67 o
-1 1 3 2535.15 2842.22 58.99 o
0 1 3 504.71 372.39 26.79 o
1 1 3 235.60 257.16 24.11 o
2 1 3 8212.41 8270.49 102.14 o
3 1 3 29094.90 30683.30 360.15 o
-3 -1 -3 29219.90 30503.30 349.34 o
4 1 3 3423.78 3461.70 85.81 o
-4 -1 -3 3510.04 3201.69 72.40 o
5 1 3 2136.36 2106.50 77.72 o
-5 -1 -3 2095.68 1932.27 115.24 o
6 1 3 1164.91 1106.50 64.30 o
-6 -1 -3 1241.57 1018.10 88.41 o
7 1 3 4054.63 4364.21 117.95 o
-7 -1 -3 4256.19 4316.14 166.21 o
8 1 3 747.42 854.53 72.33 o
-8 -1 -3 779.85 806.32 104.47 o
9 1 3 3006.25 3188.94 117.91 o
-9 -1 -3 2981.17 2891.47 171.51 o
10 1 3 1308.82 1489.50 99.12 o
-10 -1 -3 1351.67 1323.42 141.99 o
11 1 3 1405.23 2100.31 115.20 o
-11 -1 -3 1427.81 1875.28 171.45 o
-10 2 3 1504.86 1473.45 163.42 o
10 -2 -3 1501.38 1800.28 179.49 o
-9 2 3 837.93 956.32 93.76 o
9 -2 -3 859.30 980.43 150.01 o
-8 2 3 10373.60 10769.10 206.58 o
8 -2 -3 10305.80 10693.90 305.85 o
-7 2 3 1121.44 1363.58 88.41 o
7 -2 -3 1129.39 1425.20 133.95 o
-6 2 3 1697.54 1334.30 80.38 o
6 -2 -3 1741.11 1436.12 123.25 o
-5 2 3 4674.10 4697.46 123.33 o
5 -2 -3 4620.34 4592.84 182.32 o
-4 2 3 439.28 441.99 53.57 o
4 -2 -3 437.14 428.59 80.36 o
-3 2 3 25360.50 25180.30 315.70 o
3 -2 -3 25269.70 24402.60 429.02 o
-2 2 3 10610.30 10668.50 158.59 o
2 -2 -3 10716.40 10478.10 139.78 o
-1 2 3 39884.50 38456.30 440.49 o
1 -2 -3 39658.00 37917.40 595.43 o
0 2 3 7146.52 7062.51 80.59 o
1 2 3 4734.98 5324.80 67.10 o
2 2 3 4209.63 4714.20 64.39 o
3 2 3 73735.80 76997.90 688.34 o
-3 -2 -3 73600.00 74959.40 1148.10 o
4 2 3 7163.00 7367.17 126.19 o
-4 -2 -3 7175.77 7504.13 110.08 o
5 2 3 11686.50 11714.90 174.69 o
-5 -2 -3 11540.30 11907.90 239.18 o
6 2 3 17389.10 16856.70 236.74 o
-6 -2 -3 17255.00 16729.70 325.50 o
7 2 3 12419.30 12147.70 196.06 o
-7 -2 -3 12500.70 11712.80 268.58 o
8 2 3 5565.28 5536.95 136.75 o
-8 -2 -3 5651.26 5437.83 193.06 o
9 2 3 528.36 377.69 64.29 o
-9 -2 -3 437.16 388.40 96.43 o
10 2 3 2263.62 2497.19 115.21 o
-10 -2 -3 2297.72 2288.21 166.12 o
11 2 3 9471.96 9146.36 201.17 o
-11 -2 -3 9646.26 9197.56 289.69 o
12 2 3 5164.00 5001.62 160.82 o
-12 -2 -3 5304.19 4945.43 241.24 o
-9 3 3 3075.64 3472.78 144.70 o
9 -3 -3 3118.33 2969.03 219.73 o
-8 3 3 470.95 281.25 77.68 o
8 -3 -3 579.06 136.61 123.22 <
-7 3 3 14561.40 14672.70 247.01 o
7 -3 -3 14377.50 14556.80 354.39 o
-6 3 3 5831.08 5995.26 144.79 o
6 -3 -3 5885.06 5172.17 217.18 o
-5 3 3 3921.61 4020.80 120.62 o
5 -3 -3 3988.43 3908.27 179.60 o
-4 3 3 36917.60 35119.60 432.14 o
4 -3 -3 36708.80 34105.20 591.47 o
-3 3 3 17447.40 17428.80 242.14 o
3 -3 -3 17646.00 17236.00 333.64 o
-2 3 3 5101.24 4895.41 104.61 o
2 -3 -3 5065.74 4991.92 93.88 o
-1 3 3 7023.26 6872.59 118.12 o
1 -3 -3 7061.75 7025.70 112.75 o
0 3 3 69.91 53.57 29.46 <
0 -3 -3 97.03 155.35 45.53 o
1 3 3 69918.80 70207.70 544.46 o
2 3 3 34318.10 35051.50 284.91 o
3 3 3 50.29 80.35 29.46 <
-3 -3 -3 78.66 29.46 42.86 <
4 3 3 2873.87 3171.55 67.02 o
-4 -3 -3 2947.86 3168.94 107.24 o
5 3 3 21341.00 21080.80 274.90 o
-5 -3 -3 21407.60 20555.60 363.84 o
6 3 3 19713.80 20076.60 269.20 o
-6 -3 -3 19724.90 19271.80 358.03 o
7 3 3 1011.31 1358.27 75.01 o
-7 -3 -3 1026.94 1202.89 96.45 o
8 3 3 4882.55 4823.19 123.33 o
-8 -3 -3 4889.30 4624.80 174.27 o
9 3 3 1673.14 1717.38 93.77 o
-9 -3 -3 1673.36 1829.91 133.96 o
10 3 3 10918.50 10598.70 203.93 o
-10 -3 -3 10915.30 10531.60 287.10 o
11 3 3 274.75 254.46 75.00 o
-11 -3 -3 241.62 125.89 112.50 <
12 3 3 3828.58 3901.94 150.07 o
-12 -3 -3 3846.68 3698.27 214.39 o
-8 4 3 202.34 152.67 80.35 <
8 -4 -3 163.34 75.00 131.24 <
-7 4 3 3951.20 3551.08 131.32 o
7 -4 -3 3832.52 3722.53 214.40 o
-6 4 3 1724.73 1945.09 109.85 o
6 -4 -3 1782.86 1497.68 147.36 o
-5 4 3 773.39 525.04 66.97 o
5 -4 -3 603.49 696.47 115.18 o
-4 4 3 195.81 396.42 58.93 o
4 -4 -3 160.56 447.31 91.07 o
-3 4 3 3020.10 2779.42 101.85 o
3 -4 -3 3030.52 3095.70 152.77 o
-2 4 3 6225.71 6620.80 123.40 o
2 -4 -3 6326.95 5963.70 112.68 o
-1 4 3 3141.28 3061.47 85.79 o
1 -4 -3 3143.29 3104.36 83.10 o
0 4 3 5569.98 5360.70 101.96 o
0 -4 -3 5738.92 5275.12 136.84 o
1 4 3 1134.81 1256.65 50.91 o
-1 -4 -3 1183.75 1061.07 88.42 o
2 4 3 7955.09 7734.46 99.37 o
-2 -4 -3 7931.93 7336.94 187.99 o
3 4 3 5780.83 5731.96 91.24 o
-3 -4 -3 5796.24 5930.56 131.49 o
4 4 3 3510.87 3635.86 72.40 o
-4 -4 -3 3503.64 3466.93 104.57 o
5 4 3 2012.53 2042.11 64.32 o
-5 -4 -3 2013.42 2224.35 99.16 o
6 4 3 2301.71 2208.30 93.80 o
-6 -4 -3 2264.53 2326.20 109.88 o
7 4 3 21080.70 20905.20 290.65 o
-7 -4 -3 20862.80 21084.40 384.82 o
8 4 3 1773.82 1792.50 91.10 o
-8 -4 -3 1740.54 1862.15 128.61 o
9 4 3 5412.59 5512.27 142.10 o
-9 -4 -3 5363.59 5528.31 193.04 o
10 4 3 9625.71 9427.07 190.47 o
-10 -4 -3 9771.27 9397.79 260.23 o
11 4 3 2380.90 2191.75 117.89 o
-11 -4 -3 2353.78 2229.25 171.48 o
12 4 3 5048.30 4773.78 155.46 o
-12 -4 -3 4746.85 4843.26 225.14 o
-8 5 3 212.97 176.78 85.71 <
8 -5 -3 194.24 42.86 141.96 <
-7 5 3 3028.42 2845.75 131.30 o
7 -5 -3 2928.65 3022.56 211.69 o
-6 5 3 4650.56 4905.07 147.42 o
6 -5 -3 4558.64 4746.86 225.15 o
-5 5 3 108.65 168.74 66.96 <
5 -5 -3 134.23 364.27 112.50 o
-4 5 3 569.98 573.24 66.97 o
4 -5 -3 530.48 391.09 101.79 o
-3 5 3 2026.95 1666.66 85.74 o
3 -5 -3 1966.01 1907.79 147.37 o
-2 5 3 8841.48 8963.51 158.34 o
2 -5 -3 8787.80 9255.92 150.29 o
-1 5 3 5215.59 4824.61 107.27 o
1 -5 -3 5380.43 5004.50 107.28 o
0 5 3 3593.04 3329.77 88.47 o
0 -5 -3 3570.78 3595.16 93.83 o
1 5 3 3246.78 3115.18 69.70 o
-1 -5 -3 3280.01 3238.53 123.32 o
2 5 3 27713.00 27879.00 270.01 o
-2 -5 -3 27702.50 28092.20 499.52 o
3 5 3 6846.09 7047.60 123.45 o
-3 -5 -3 6839.19 6865.09 115.40 o
4 5 3 2294.58 2385.33 75.04 o
-4 -5 -3 2246.48 2374.58 83.08 o
5 5 3 1554.99 1594.31 69.67 o
-5 -5 -3 1475.70 1701.46 85.74 o
6 5 3 17693.60 17901.60 199.06 o
-6 -5 -3 17589.50 17788.20 320.10 o
7 5 3 8467.77 8541.39 161.01 o
-7 -5 -3 8459.60 8506.49 203.94 o
8 5 3 1331.22 1283.30 80.37 o
-8 -5 -3 1464.40 1387.83 101.81 o
9 5 3 3083.18 3272.19 115.24 o
-9 -5 -3 3028.95 3465.11 155.43 o
10 5 3 1464.85 1478.85 91.09 o
-10 -5 -3 1496.56 1395.80 125.92 o
11 5 3 2407.18 2548.13 123.25 o
-11 -5 -3 2550.13 2548.19 168.81 o
12 5 3 1225.83 1028.70 133.95 o
-12 -5 -3 1196.56 969.76 139.30 o
13 5 3 461.88 586.61 133.93 o
-13 -5 -3 450.23 460.72 93.75 o
-7 6 3 822.25 621.47 93.76 o
7 -6 -3 773.99 399.13 150.01 <
-6 6 3 1433.07 1280.55 96.44 o
6 -6 -3 1422.61 1382.35 158.06 o
-5 6 3 8288.53 8515.00 182.37 o
5 -6 -3 8586.74 8464.44 276.25 o
-4 6 3 17073.00 16677.90 260.55 o
4 -6 -3 17244.80 17282.70 378.75 o
-3 6 3 948.32 969.75 72.33 o
3 -6 -3 965.72 822.42 115.19 o
-2 6 3 18043.90 17912.30 255.35 o
2 -6 -3 18163.30 17996.10 249.98 o
-1 6 3 554.15 511.64 53.57 o
1 -6 -3 690.46 575.94 58.93 o
0 6 3 221.56 131.25 42.86 o
0 -6 -3 228.56 192.86 48.21 o
1 6 3 11245.00 11350.10 139.66 o
-1 -6 -3 11201.90 11242.60 249.77 o
2 6 3 1185.60 1138.67 45.55 o
-2 -6 -3 1153.48 1111.87 93.77 o
3 6 3 18764.10 18971.50 252.99 o
-3 -6 -3 18686.80 18718.10 239.53 o
4 6 3 10372.40 10296.10 161.13 o
-4 -6 -3 10294.60 9836.69 153.07 o
5 6 3 2852.20 2779.45 85.77 o
-5 -6 -3 2931.97 2784.86 85.77 o
6 6 3 210.58 278.57 42.86 o
-6 -6 -3 220.12 275.89 50.89 o
7 6 3 8373.11 8411.79 222.70 o
-7 -6 -3 8211.35 9125.20 166.35 o
8 6 3 3696.22 3969.61 163.50 o
-8 -6 -3 3756.88 4017.90 120.62 o
9 6 3 4533.95 4473.93 182.28 o
-9 -6 -3 4526.65 4452.48 131.35 o
10 6 3 632.72 439.31 96.43 o
-10 -6 -3 641.98 490.20 75.00 o
11 6 3 9114.64 8462.42 257.49 o
-11 -6 -3 9257.96 8376.78 190.44 o
12 6 3 1659.34 1548.50 144.67 o
-12 -6 -3 1652.36 1695.85 115.20 o
13 6 3 1441.28 1545.76 155.38 o
-13 -6 -3 1464.78 1468.08 115.20 o
-6 7 3 284.01 115.18 117.86 <
6 -7 -3 285.54 487.49 147.32 o
-5 7 3 414.37 324.11 123.21 <
5 -7 -3 386.34 294.64 133.93 <
-4 7 3 4275.24 4459.84 214.42 o
4 -7 -3 4152.14 3867.45 214.41 o
3 -7 -3 3033.23 3213.03 198.30 o
-2 7 3 825.52 771.50 112.51 o
2 -7 -3 697.59 934.88 117.86 o
-1 7 3 152.42 93.75 80.35 <
1 -7 -3 149.46 227.67 61.61 o
0 7 3 686.25 1001.87 107.15 o
0 -7 -3 700.29 972.40 66.97 o
1 7 3 14168.40 14346.00 327.76 o
-1 -7 -3 13982.50 14555.00 306.25 o
2 7 3 6162.45 6184.90 136.79 o
-2 -7 -3 6185.59 6359.26 187.75 o
3 7 3 31473.00 31343.20 391.15 o
-3 -7 -3 31443.20 30843.90 571.88 o
4 7 3 1481.42 1602.23 83.06 o
-4 -7 -3 1442.12 1883.54 139.32 o
5 7 3 8876.60 9084.31 155.65 o
-5 -7 -3 8908.21 8869.68 152.97 o
6 7 3 1827.61 1966.72 85.74 o
-6 -7 -3 1987.03 1851.57 83.07 o
7 7 3 468.24 562.52 53.57 o
-7 -7 -3 508.63 533.06 58.93 o
8 7 3 10382.00 10192.50 257.63 o
-8 -7 -3 10399.60 10278.40 182.49 o
9 7 3 7049.29 6918.88 217.22 o
-9 -7 -3 6919.13 6908.00 158.22 o
10 7 3 10069.50 10385.30 276.33 o
-10 -7 -3 10313.40 10058.40 195.86 o
11 7 3 7330.13 7333.78 244.01 o
-11 -7 -3 7348.52 7170.24 174.29 o
12 7 3 349.45 340.18 112.50 o
-12 -7 -3 240.90 409.81 85.71 o
13 7 3 97.15 128.57 109.82 <
-13 -7 -3 95.39 104.46 83.03 <
-5 8 3 1018.57 439.32 131.26 o
5 -8 -3 1069.55 624.17 152.69 o
-4 8 3 559.79 648.23 131.25 o
4 -8 -3 538.31 932.16 144.65 o
-3 8 3 583.14 356.26 115.18 o
3 -8 -3 569.38 468.76 125.90 o
-2 8 3 4525.30 4862.19 217.11 o
2 -8 -3 4564.08 4980.16 217.11 o
-1 8 3 172.93 112.50 93.75 <
1 -8 -3 152.54 192.85 64.28 <
0 8 3 2302.36 2513.39 160.77 o
0 -8 -3 2219.61 2553.55 107.18 o
1 8 3 9838.27 9579.74 265.66 o
-1 -8 -3 9675.31 9083.03 169.05 o
2 8 3 1405.43 1168.11 77.70 o
-2 -8 -3 1443.40 1570.00 123.24 o
3 8 3 4390.85 4836.14 126.00 o
-3 -8 -3 4529.84 4691.51 179.62 o
4 8 3 890.09 1170.68 72.33 o
-4 -8 -3 883.44 1224.26 120.55 o
5 8 3 2591.38 2685.17 99.15 o
-5 -8 -3 2618.32 2586.03 160.79 o
6 8 3 13626.00 13884.50 212.16 o
-6 -8 -3 13756.50 14083.60 341.08 o
7 8 3 367.79 396.43 53.57 o
-7 -8 -3 334.77 388.39 101.79 o
8 8 3 826.81 616.13 93.76 o
-8 -8 -3 824.18 752.75 115.19 o
9 8 3 1645.04 1666.44 128.60 o
-9 -8 -3 1647.48 1636.97 93.77 o
10 8 3 7276.38 7685.32 238.66 o
-10 -8 -3 7162.35 7296.36 171.62 o
11 8 3 1912.86 2242.49 166.11 o
-11 -8 -3 2013.76 2025.51 112.53 o
12 8 3 467.95 417.86 117.86 o
-12 -8 -3 454.14 487.50 88.39 o
13 8 3 63.36 88.39 112.49 <
-13 -8 -3 85.68 99.10 83.03 <
-3 9 3 4552.29 4047.08 227.82 o
3 -9 -3 4434.45 4813.53 238.53 o
-2 9 3 18405.20 18172.30 443.16 o
2 -9 -3 18631.10 17813.00 410.95 o
-1 9 3 449.53 302.68 109.82 <
1 -9 -3 522.62 508.94 117.86 o
0 9 3 2455.68 2293.64 174.17 o
0 -9 -3 2322.33 2234.65 115.22 o
1 9 3 2123.38 2411.45 168.80 o
-1 -9 -3 2107.71 2272.11 112.53 o
2 9 3 3563.39 3524.33 182.25 o
-2 -9 -3 3456.71 3540.35 163.48 o
3 9 3 4954.41 4921.98 134.04 o
-3 -9 -3 4945.29 4763.81 187.66 o
4 9 3 1641.14 1428.03 88.41 o
-4 -9 -3 1451.49 1417.26 131.28 o
5 9 3 1994.49 1929.16 93.78 o
-5 -9 -3 1920.18 2130.09 158.08 o
6 9 3 1416.54 1553.88 88.41 o
-6 -9 -3 1472.26 1575.33 139.32 o
7 9 3 497.49 423.23 58.93 o
-7 -9 -3 351.51 420.54 120.54 o
8 9 3 963.69 1015.29 112.51 o
-8 -9 -3 896.46 889.37 128.58 o
9 9 3 2181.02 2333.73 152.72 o
-9 -9 -3 2099.45 2175.62 179.51 o
10 9 3 666.66 728.60 112.50 o
-10 -9 -3 611.74 688.42 139.29 o
11 9 3 1090.89 806.34 120.55 o
-11 -9 -3 1148.68 626.86 139.30 o
12 9 3 1451.56 1261.80 141.99 o
-12 -9 -3 1353.73 1213.56 166.09 o
-2 10 3 1503.45 1744.02 176.81 o
2 -10 -3 1510.50 1845.83 176.81 o
-1 10 3 1217.59 1149.25 152.70 o
1 -10 -3 1189.77 980.47 144.66 o
0 10 3 997.53 500.94 123.23 o
0 -10 -3 999.70 881.33 128.58 o
1 10 3 1803.42 1829.87 155.39 o
-1 -10 -3 1766.57 1920.95 104.49 o
2 10 3 9895.08 9845.47 292.41 o
-2 -10 -3 9739.31 9813.03 193.15 o
3 10 3 14907.00 14695.00 249.71 o
-3 -10 -3 14995.50 14646.90 349.06 o
4 10 3 943.13 865.27 80.37 o
-4 -10 -3 986.07 945.64 131.26 o
5 10 3 506.39 535.73 72.32 o
-5 -10 -3 551.43 827.71 131.26 o
6 10 3 14067.30 13673.30 228.20 o
-6 -10 -3 13949.60 13995.20 359.75 o
7 10 3 5921.37 6359.40 150.14 o
-7 -10 -3 5870.85 6469.27 252.01 o
8 10 3 4104.70 4170.37 125.97 o
-8 -10 -3 4185.02 4387.52 209.06 o
9 10 3 470.65 447.33 104.47 o
-9 -10 -3 541.94 519.66 136.61 o
10 10 3 2324.47 1931.82 150.04 o
-10 -10 -3 2311.79 2657.92 200.95 o
11 10 3 21169.90 21493.90 459.43 o
-11 -10 -3 21001.30 21146.80 513.16 o
12 10 3 509.17 522.33 120.54 o
-12 -10 -3 472.33 393.75 131.25 <
0 11 3 1950.41 1631.61 168.79 o
0 -11 -3 1856.48 1907.54 166.11 o
1 11 3 18819.20 19488.40 470.02 o
-1 -11 -3 18578.60 19772.40 435.09 o
2 11 3 1269.04 1109.08 139.30 o
-2 -11 -3 1314.75 1283.21 99.12 o
3 11 3 712.11 653.60 117.86 o
-3 -11 -3 815.11 774.16 133.94 o
4 11 3 5100.70 4768.68 147.43 o
-4 -11 -3 5110.78 4942.92 214.44 o
5 11 3 4999.11 5283.29 150.11 o
-5 -11 -3 5062.50 5012.61 225.16 o
6 11 3 6579.70 6716.34 166.23 o
-6 -11 -3 6811.18 6949.85 252.04 o
7 11 3 3679.15 4022.60 134.00 o
-7 -11 -3 3635.63 3998.45 206.35 o
8 11 3 599.90 353.58 69.65 o
-8 -11 -3 555.27 458.05 128.57 o
9 11 3 14474.80 14382.10 354.32 o
-9 -11 -3 14599.80 14615.90 405.33 o
10 11 3 819.92 1023.28 133.94 o
-10 -11 -3 869.35 1221.51 171.44 o
11 11 3 691.36 388.41 117.86 o
-11 -11 -3 681.81 573.24 141.97 o
2 12 3 1163.62 889.38 147.34 o
-2 -12 -3 1184.14 1095.66 104.48 o
3 12 3 1067.55 884.01 139.30 o
-3 -12 -3 1110.04 1216.20 104.47 o
4 12 3 309.86 77.68 109.82 <
-4 -12 -3 262.44 -29.46 120.53 <
5 12 3 1315.23 1133.19 96.44 o
-5 -12 -3 1201.40 1074.24 155.38 o
6 12 3 1572.89 1551.16 104.48 o
-6 -12 -3 1541.44 1572.59 171.46 o
7 12 3 525.47 332.15 77.68 o
-7 -12 -3 505.85 190.18 136.61 <
8 12 3 1712.62 1757.48 104.48 o
-8 -12 -3 1467.08 1706.52 184.85 o
9 12 3 3699.49 3403.41 195.63 o
-9 -12 -3 3737.67 3888.49 238.51 o
10 12 3 2419.88 2679.34 184.88 o
-10 -12 -3 2455.33 2740.98 206.31 o
5 13 3 49.11 21.43 80.35 <
-5 -13 -3 60.50 246.42 139.28 <
6 13 3 635.00 407.16 88.40 o
-6 -13 -3 632.18 468.77 152.68 o
7 13 3 405.87 393.75 83.04 o
-7 -13 -3 418.16 241.07 150.00 <
8 13 3 113.86 246.42 80.35 o
-8 -13 -3 108.48 342.84 139.28 <
-9 -12 4 395.13 286.61 150.00 <
9 12 -4 443.27 313.39 150.00 <
-8 -12 4 244.66 208.92 150.00 <
8 12 -4 312.56 176.78 139.28 <
-7 -12 4 25.23 37.50 144.63 <
7 12 -4 29.56 203.56 139.28 <
-6 -12 4 755.13 535.74 152.69 o
6 12 -4 705.24 626.81 155.36 o
-5 -12 4 4167.00 3639.47 225.12 o
5 12 -4 4134.48 4148.66 241.20 o
-4 -12 4 3317.72 3170.07 235.81 o
4 12 -4 3270.90 3427.30 235.81 o
-3 -12 4 4064.62 3754.63 227.80 o
3 12 -4 4046.40 4129.82 243.88 o
-11 -11 4 1469.52 1277.87 176.81 o
11 11 -4 1402.93 1304.65 174.13 o
-10 -11 4 3082.64 3236.96 217.05 o
10 11 -4 3073.36 2944.88 225.09 o
-9 -11 4 6122.45 6104.20 260.04 o
9 11 -4 6165.56 6511.73 276.12 o
-8 -11 4 157.08 13.39 133.92 <
8 11 -4 144.81 238.38 133.92 <
-7 -11 4 1235.55 1176.04 171.45 o
7 11 -4 1247.78 1194.80 160.74 o
-6 -11 4 7809.76 8200.23 294.97 o
6 11 -4 7641.63 7942.60 292.28 o
-5 -11 4 1171.53 1202.82 160.73 o
5 11 -4 1157.45 1596.61 168.77 o
-4 -11 4 68.79 34.82 120.53 <
4 11 -4 29.89 -93.74 112.49 <
-3 -11 4 1228.60 1331.41 174.13 o
3 11 -4 1210.34 1719.85 179.49 o
-2 -11 4 1901.17 1939.71 190.22 o
2 11 -4 1880.17 2046.87 187.54 o
-1 -11 4 2972.67 2591.13 211.68 o
1 11 -4 2930.26 2510.73 209.00 o
0 -11 4 1259.25 1125.14 174.13 o
0 11 -4 1220.61 1267.11 163.41 o
-11 -10 4 1069.17 1259.05 166.09 o
11 10 -4 1015.25 1636.75 174.12 o
-10 -10 4 189.89 187.49 128.57 <
10 10 -4 166.36 128.57 131.25 <
-9 -10 4 434.18 265.18 131.25 <
9 10 -4 426.15 158.04 125.89 <
-8 -10 4 1210.63 1036.74 152.70 o
8 10 -4 1218.27 1009.95 147.34 o
-7 -10 4 2006.78 1971.93 171.47 o
7 10 -4 1930.58 2089.80 171.47 o
-6 -10 4 3062.21 3151.35 209.02 o
6 10 -4 3152.63 3022.77 209.02 o
-5 -10 4 8956.00 7840.20 287.00 o
5 10 -4 9096.25 8400.98 281.64 o
-4 -10 4 191.32 18.75 117.85 <
4 10 -4 221.35 195.53 107.14 <
-3 -10 4 5894.22 5694.22 241.28 o
3 10 -4 5764.66 6010.44 246.64 o
-2 -10 4 2970.58 3250.41 195.61 o
2 10 -4 3033.70 2961.03 209.01 o
-1 -10 4 1916.59 2030.82 184.86 o
1 10 -4 1909.70 2004.03 176.83 o
0 -10 4 11.13 -45.53 120.53 <
0 10 -4 7.36 29.46 109.82 <
1 -10 4 2110.91 2127.31 195.58 o
-1 10 -4 2172.72 2480.99 203.62 o
-12 -9 4 5089.03 5285.66 230.51 o
12 9 -4 5002.22 5384.77 168.86 o
-11 -9 4 1789.36 1634.26 109.84 o
11 9 -4 1758.74 1687.84 171.46 o
-10 -9 4 799.60 782.19 91.08 o
10 9 -4 829.64 846.48 144.65 o
-9 -9 4 13096.00 12214.40 222.76 o
9 9 -4 13085.50 12072.10 346.22 o
-8 -9 4 3997.07 3875.48 131.33 o
8 9 -4 3957.49 3778.97 214.41 o
-7 -9 4 5560.55 5176.79 144.77 o
7 9 -4 5478.80 5241.06 233.23 o
-6 -9 4 8.91 112.49 66.96 <
6 9 -4 13.32 168.74 104.46 <
-5 -9 4 556.78 926.82 83.04 o
5 9 -4 574.47 838.43 125.90 o
-4 -9 4 4430.47 4304.80 131.34 o
4 9 -4 4437.30 4117.17 214.44 o
-3 -9 4 1793.97 1773.65 160.75 o
3 9 -4 1806.26 1570.03 144.68 o
-2 -9 4 6776.35 6564.13 257.42 o
2 9 -4 6851.67 7159.49 160.89 o
-1 -9 4 163.99 96.43 104.46 <
1 9 -4 233.79 366.96 109.82 o
0 -9 4 11014.20 10407.40 321.96 o
0 9 -4 10929.70 10801.70 316.59 o
1 -9 4 438.23 385.72 131.25 <
-1 9 -4 436.89 383.04 115.18 o
2 -9 4 5974.46 5886.93 254.67 o
-2 9 -4 5959.14 5967.34 246.63 o
3 -9 4 326.30 581.24 141.96 o
-3 9 -4 353.17 361.60 115.18 o
-12 -8 4 970.49 1275.10 150.01 o
12 8 -4 1020.56 1334.05 144.66 o
-11 -8 4 1720.63 2036.11 160.75 o
11 8 -4 1645.10 1821.77 109.84 o
-10 -8 4 2986.00 2923.50 123.26 o
10 8 -4 2977.59 2741.28 131.30 o
-9 -8 4 834.40 549.15 77.68 o
9 8 -4 959.65 538.45 77.69 o
-8 -8 4 10488.80 11065.30 203.92 o
8 8 -4 10660.20 10926.10 195.88 o
-7 -8 4 14541.20 14640.00 238.99 o
7 8 -4 14669.20 14884.70 365.20 o
-6 -8 4 12701.50 12445.70 209.40 o
6 8 -4 12614.80 12429.40 327.51 o
-5 -8 4 4474.26 4211.27 125.99 o
5 8 -4 4353.72 4211.18 203.72 o
-4 -8 4 27128.70 27124.20 363.41 o
4 8 -4 27081.70 27169.70 541.08 o
-3 -8 4 2403.37 2210.68 104.50 o
3 8 -4 2454.52 2548.33 168.82 o
-2 -8 4 1076.87 1028.71 131.27 o
2 8 -4 1118.65 1101.05 120.55 o
-1 -8 4 245.04 468.74 120.53 o
1 8 -4 261.64 350.89 64.28 o
0 -8 4 14456.50 14587.30 370.52 o
0 8 -4 14658.10 14563.60 236.28 o
1 -8 4 3699.40 3591.22 201.00 o
-1 8 -4 3710.74 3730.58 131.32 o
2 -8 4 545.28 594.66 123.22 o
-2 8 -4 517.23 720.55 77.68 o
3 -8 4 39.20 -107.14 109.82 <
-3 8 -4 33.73 91.07 64.28 <
4 -8 4 522.54 522.33 136.61 o
-4 8 -4 568.55 533.05 80.36 o
-12 -7 4 5562.18 5393.30 233.21 o
12 7 -4 5447.21 5428.06 230.52 o
-11 -7 4 39.84 128.57 107.14 <
11 7 -4 29.95 88.39 80.35 <
-10 -7 4 7195.08 7290.85 241.33 o
10 7 -4 7223.19 7100.50 171.61 o
-9 -7 4 7978.99 8163.90 171.65 o
9 7 -4 7906.55 8190.62 174.32 o
-8 -7 4 66.86 16.07 61.60 <
8 7 -4 72.01 149.99 64.28 <
-7 -7 4 3596.90 3154.60 115.25 o
7 7 -4 3508.66 3275.15 112.57 o
-6 -7 4 18107.40 17720.80 263.41 o
6 7 -4 17958.20 18136.90 252.65 o
-5 -7 4 182.10 216.96 58.93 o
5 7 -4 220.60 235.71 85.71 <
-4 -7 4 1986.36 2039.10 96.46 o
4 7 -4 2012.57 2095.38 166.13 o
-3 -7 4 5504.16 5665.85 134.07 o
3 7 -4 5387.65 5644.26 211.83 o
-2 -7 4 3282.81 3789.77 112.57 o
2 7 -4 3354.07 3939.92 184.93 o
-1 -7 4 16920.10 16381.20 381.58 o
1 7 -4 16875.80 16827.10 249.91 o
0 -7 4 1547.42 1561.96 142.00 o
0 7 -4 1504.66 1738.78 91.09 o
1 -7 4 17588.20 17570.90 408.38 o
-1 7 -4 17484.40 17417.40 260.60 o
2 -7 4 6117.12 6096.90 225.21 o
-2 7 -4 6019.23 6252.30 150.14 o
3 -7 4 2286.60 2309.62 160.76 o
-3 7 -4 2272.13 2247.99 115.21 o
4 -7 4 1430.21 1612.75 158.06 o
-4 7 -4 1445.44 1690.45 99.12 o
5 -7 4 627.34 758.06 141.97 o
-5 7 -4 635.39 672.34 125.90 o
-12 -6 4 332.59 174.10 120.53 <
12 6 -4 285.73 358.92 125.89 <
-11 -6 4 755.85 691.11 125.90 o
11 6 -4 797.86 870.59 91.08 o
-10 -6 4 381.32 184.82 107.14 <
10 6 -4 391.42 431.25 80.36 o
-9 -6 4 3772.86 3671.78 123.29 o
9 6 -4 3748.79 3626.20 128.65 o
-8 -6 4 653.36 712.54 75.00 o
8 6 -4 738.87 629.51 72.33 o
-7 -6 4 15195.10 15322.70 233.71 o
7 6 -4 15339.10 15492.40 231.03 o
-6 -6 4 4310.66 4291.95 117.96 o
6 6 -4 4279.63 4329.46 115.27 o
-5 -6 4 82.68 93.75 53.57 <
5 6 -4 92.85 75.00 45.53 <
-4 -6 4 16081.90 15101.40 225.79 o
4 6 -4 15661.30 15253.20 212.34 o
-3 -6 4 1936.54 1859.63 91.11 o
3 6 -4 1954.67 1816.77 123.26 o
-2 -6 4 15211.50 14579.80 223.06 o
2 6 -4 15056.70 14315.90 327.86 o
-1 -6 4 8272.11 8752.62 163.68 o
1 6 -4 8362.17 8739.38 246.86 o
0 -6 4 2865.84 3127.56 158.12 o
0 6 -4 2880.87 3025.73 107.20 o
1 -6 4 17544.70 18011.80 400.44 o
-1 6 -4 17467.40 17675.60 258.00 o
2 -6 4 11168.00 10220.10 284.49 o
-2 6 -4 11096.60 10568.80 185.18 o
3 -6 4 203.52 492.85 115.18 o
-3 6 -4 180.40 377.67 64.28 o
4 -6 4 6019.84 6077.78 222.52 o
-4 6 -4 5963.26 5713.12 147.45 o
5 -6 4 6148.87 6147.30 243.96 o
-5 6 -4 6178.08 6160.73 225.20 o
6 -6 4 209.74 321.42 123.21 <
-6 6 -4 195.79 313.38 112.50 <
-12 -5 4 76.78 115.17 117.85 <
12 5 -4 79.95 147.32 125.89 <
-11 -5 4 7328.11 7167.32 257.41 o
11 5 -4 7124.31 7598.79 185.01 o
-10 -5 4 8551.37 8394.91 262.84 o
10 5 -4 8572.49 8443.22 185.06 o
-9 -5 4 5201.27 5235.62 206.42 o
9 5 -4 5302.44 5334.90 150.13 o
-8 -5 4 2518.92 2797.57 107.19 o
8 5 -4 2567.99 2727.93 115.23 o
-7 -5 4 3834.98 4020.72 115.26 o
7 5 -4 3862.24 3918.88 120.62 o
-6 -5 4 6815.40 7395.30 144.85 o
6 5 -4 6842.44 7505.32 147.53 o
-5 -5 4 22070.90 21692.90 290.75 o
5 5 -4 22235.60 21618.30 279.99 o
-4 -5 4 37120.20 37287.40 451.33 o
4 5 -4 37233.60 37085.70 432.42 o
-3 -5 4 5937.50 5627.63 123.39 o
3 5 -4 5888.82 5716.08 190.45 o
-2 -5 4 77.29 75.00 50.89 <
2 5 -4 69.68 163.39 69.64 <
-1 -5 4 20001.40 19854.60 271.83 o
1 5 -4 20174.50 19815.10 398.35 o
0 -5 4 19217.90 18972.10 266.34 o
0 5 -4 19635.90 18747.90 382.06 o
1 -5 4 439.33 297.33 93.75 o
-1 5 -4 423.18 431.26 56.25 o
2 -5 4 588.24 377.70 93.76 o
-2 5 -4 643.17 525.04 58.93 o
3 -5 4 3723.74 3395.89 168.86 o
-3 5 -4 3658.51 3907.78 115.25 o
4 -5 4 244.85 441.96 101.78 o
-4 5 -4 227.88 468.74 61.61 o
5 -5 4 8055.59 7997.32 257.46 o
-5 5 -4 8110.99 8147.57 168.96 o
6 -5 4 1577.04 1462.76 150.03 o
-6 5 -4 1537.16 1618.14 144.67 o
7 -5 4 3039.76 3041.34 195.61 o
-7 5 -4 2992.75 3271.76 195.61 o
-12 -4 4 35.24 203.56 125.89 <
12 4 -4 19.73 144.63 133.92 <
-11 -4 4 1454.45 1516.31 158.06 o
11 4 -4 1470.53 1677.06 107.16 o
-10 -4 4 3371.54 3875.07 198.31 o
10 4 -4 3469.32 3808.13 139.35 o
-9 -4 4 90.68 26.78 96.42 <
9 4 -4 91.10 136.60 69.64 <
-8 -4 4 26611.50 26516.40 506.05 o
8 4 -4 26865.20 26084.20 349.94 o
-7 -4 4 7565.33 7377.05 147.54 o
7 4 -4 7414.45 7484.12 152.90 o
-6 -4 4 13512.70 13604.50 206.86 o
6 4 -4 13466.20 13631.30 209.55 o
-5 -4 4 18882.50 19287.10 258.31 o
5 4 -4 18965.20 18695.50 255.62 o
-4 -4 4 6493.22 6033.94 123.42 o
4 4 -4 6615.22 5918.76 118.05 o
-3 -4 4 500.40 648.27 56.25 o
3 4 -4 441.53 618.79 83.04 o
-2 -4 4 64.20 48.21 42.86 <
2 4 -4 77.03 42.86 66.96 <
-1 -4 4 3263.08 3562.77 99.19 o
1 4 -4 3254.26 3471.62 152.80 o
0 -4 4 8836.94 8727.54 153.02 o
0 4 -4 8921.82 8236.44 217.46 o
1 -4 4 32827.60 33784.90 620.95 o
-1 4 -4 32745.90 33414.40 410.36 o
2 -4 4 19557.30 19075.70 255.56 o
-2 4 -4 19421.60 18830.30 260.93 o
3 -4 4 524.23 742.00 58.93 o
-3 4 -4 533.88 691.11 58.93 o
4 -4 4 30126.60 29288.80 382.47 o
-4 4 -4 30284.30 29715.20 377.10 o
5 -4 4 3540.02 3642.18 120.60 o
-5 4 -4 3499.88 3693.07 115.24 o
6 -4 4 15.69 18.75 96.42 <
-6 4 -4 27.35 83.03 91.07 <
7 -4 4 267.76 235.71 115.18 <
-7 4 -4 328.23 321.43 112.50 <
8 -4 4 3479.24 4201.85 211.70 o
-8 4 -4 3436.91 3483.66 206.34 o
-12 -3 4 77.54 77.67 125.89 <
12 3 -4 104.55 96.42 136.60 <
-11 -3 4 169.13 233.03 120.53 <
11 3 -4 173.39 369.63 85.71 o
-10 -3 4 2087.55 1958.57 160.76 o
10 3 -4 1990.07 2194.31 120.57 o
-9 -3 4 88.39 230.35 107.14 <
9 3 -4 85.72 149.99 72.32 <
-8 -3 4 1675.66 1438.76 131.28 o
8 3 -4 1610.19 1765.60 91.09 o
-7 -3 4 3182.75 3141.15 163.49 o
7 3 -4 3130.97 3162.56 115.25 o
-6 -3 4 1677.45 1902.40 85.74 o
6 3 -4 1707.51 1993.51 101.82 o
-5 -3 4 196.97 342.85 50.89 o
5 3 -4 150.57 308.03 53.57 o
-4 -3 4 5385.35 5238.63 109.98 o
4 3 -4 5255.26 5053.37 112.65 o
-3 -3 4 38887.90 38264.40 446.95 o
3 3 -4 39584.60 37332.00 436.20 o
-2 -3 4 14699.70 13962.70 199.08 o
2 3 -4 14679.30 13647.90 290.55 o
-1 -3 4 18196.20 17637.40 239.69 o
1 3 -4 18114.00 18105.50 347.41 o
0 -3 4 48250.40 45700.30 535.06 o
0 3 -4 48419.40 45854.60 765.96 o
1 -3 4 330.21 404.48 53.57 o
-1 3 -4 232.89 329.47 64.29 o
2 -3 4 5431.11 5331.90 112.65 o
-2 3 -4 5363.36 5291.58 115.33 o
3 -3 4 942.14 969.79 61.62 o
-3 3 -4 974.66 1127.86 64.30 o
4 -3 4 3769.00 4122.58 107.22 o
-4 3 -4 3757.94 3889.36 107.22 o
5 -3 4 4391.53 4358.65 117.95 o
-5 3 -4 4485.58 4594.62 117.95 o
6 -3 4 893.69 1007.24 80.36 o
-6 3 -4 903.22 1283.16 123.23 o
7 -3 4 7983.10 7508.98 168.95 o
-7 3 -4 7954.80 7286.36 244.04 o
8 -3 4 607.55 803.60 85.72 o
-8 3 -4 565.94 685.73 128.57 o
9 -3 4 5550.99 5806.04 238.57 o
-9 3 -4 5543.96 5280.65 241.25 o
-11 -2 4 5714.08 5522.15 235.90 o
11 2 -4 5705.66 5653.49 243.94 o
-10 -2 4 1447.69 1039.46 136.63 o
10 2 -4 1491.29 1492.22 104.48 o
-9 -2 4 2878.45 2591.27 171.50 o
9 2 -4 2787.05 2754.69 128.62 o
-8 -2 4 13652.20 13570.40 324.89 o
8 2 -4 13691.20 13135.50 220.18 o
-7 -2 4 3.48 26.78 85.71 <
7 2 -4 15.00 -61.60 58.93 <
-6 -2 4 9764.39 10329.10 257.69 o
6 2 -4 9829.06 10095.80 179.85 o
-5 -2 4 6246.32 5917.83 115.35 o
5 2 -4 6126.13 5850.59 131.44 o
-4 -2 4 45.48 83.03 42.86 <
4 2 -4 38.59 29.46 48.21 <
-3 -2 4 21695.40 20832.20 264.21 o
3 2 -4 21864.30 20544.80 261.53 o
-2 -2 4 6312.06 5987.67 112.72 o
2 2 -4 6210.53 5987.47 110.03 o
-1 -2 4 861.08 739.45 50.90 o
1 2 -4 877.28 961.83 80.38 o
0 -2 4 4394.24 4629.46 104.61 o
0 2 -4 4271.69 4355.71 147.51 o
1 -2 4 15285.50 14266.60 204.50 o
-1 2 -4 15062.70 14384.00 285.20 o
2 -2 4 597.15 602.74 50.90 o
-2 2 -4 630.81 597.39 48.22 o
3 -2 4 583.01 755.42 53.58 o
-3 2 -4 610.58 717.92 53.58 o
4 -2 4 16218.60 15663.80 223.12 o
-4 2 -4 16100.20 15545.10 220.42 o
5 -2 4 8161.78 8542.05 160.97 o
-5 2 -4 8124.85 8584.91 152.92 o
6 -2 4 1317.18 1157.35 75.01 o
-6 2 -4 1331.63 1184.15 115.20 o
7 -2 4 8365.73 8118.82 171.66 o
-7 2 -4 8482.76 8277.23 252.13 o
8 -2 4 2947.40 2880.61 123.26 o
-8 2 -4 2964.99 2486.71 174.18 o
9 -2 4 2052.18 2113.90 112.53 o
-9 2 -4 1980.61 2044.22 174.15 o
-11 -1 4 3349.38 3017.35 200.98 o
11 1 -4 3375.03 3432.72 219.74 o
-10 -1 4 886.07 980.43 139.30 o
10 1 -4 901.02 999.18 99.11 o
-9 -1 4 5849.07 5863.24 225.20 o
9 1 -4 5872.74 5831.09 160.86 o
-8 -1 4 16501.70 17172.90 376.07 o
8 1 -4 16759.40 16418.80 257.89 o
-7 -1 4 16038.40 15449.00 346.60 o
7 1 -4 15934.70 15472.90 335.84 o
-6 -1 4 247.34 324.11 88.39 o
6 1 -4 293.82 350.89 93.75 o
-5 -1 4 49086.90 47721.70 539.40 o
5 1 -4 49355.40 47190.80 756.29 o
-4 -1 4 27.94 128.57 40.18 o
4 1 -4 5.54 192.85 69.64 <
-3 -1 4 10393.50 10376.70 153.15 o
3 1 -4 10335.40 10132.00 158.52 o
-2 -1 4 1551.81 1650.75 66.99 o
2 1 -4 1548.04 1666.82 75.03 o
-1 -1 4 338.22 350.91 42.86 o
1 1 -4 367.49 423.24 40.18 o
0 -1 4 420.06 562.55 48.22 o
0 1 -4 429.82 685.78 72.33 o
1 -1 4 362.17 291.98 32.14 o
-1 1 -4 402.66 358.95 56.25 o
2 -1 4 19367.60 18384.60 191.28 o
-2 1 -4 19369.50 18573.20 336.76 o
3 -1 4 4181.29 4134.83 96.53 o
-3 1 -4 4053.08 3933.58 96.53 o
4 -1 4 16679.30 16894.10 231.28 o
-4 1 -4 16826.40 16157.80 220.53 o
5 -1 4 13504.00 13337.30 201.47 o
-5 1 -4 13230.10 12936.20 190.71 o
6 -1 4 13035.10 13152.10 212.13 o
-6 1 -4 13142.20 13101.30 303.43 o
7 -1 4 439.17 332.15 64.29 o
-7 1 -4 498.24 353.58 93.75 o
8 -1 4 812.02 1130.44 85.72 o
-8 1 -4 831.10 1403.68 133.94 o
9 -1 4 1961.68 2250.53 112.53 o
-9 1 -4 1936.62 2438.07 174.15 o
10 -1 4 1236.39 1486.78 107.16 o
-10 1 -4 1169.46 1534.99 163.41 o
-11 0 4 1118.85 1173.33 158.05 o
11 0 -4 1120.35 1524.26 176.80 o
-10 0 4 370.34 310.71 123.21 <
10 0 -4 358.64 155.36 136.61 <
-9 0 4 9394.50 9248.75 198.49 o
9 0 -4 9431.57 8972.52 284.33 o
-8 0 4 9540.84 9931.51 198.52 o
8 0 -4 9771.03 9923.85 279.02 o
-7 0 4 3681.20 3594.22 123.29 o
7 0 -4 3583.72 3642.40 190.29 o
-6 0 4 3205.57 3154.59 115.25 o
6 0 -4 3176.20 3084.89 166.17 o
-5 0 4 20759.70 20287.50 409.09 o
5 0 -4 21126.30 20211.20 379.51 o
-4 0 4 4759.85 4580.44 118.00 o
4 0 -4 4826.81 4631.47 155.54 o
-3 0 4 33930.00 33718.60 327.31 o
3 0 -4 34229.70 32671.90 535.65 o
-2 0 4 5640.67 5551.73 88.55 o
2 0 -4 5521.14 5672.26 139.53 o
-1 0 4 477.05 500.95 37.50 o
1 0 -4 537.55 498.28 50.90 o
0 0 4 277541.00 290262.00 3156.39 o
0 0 -4 277288.00 292726.00 4594.48 o
1 0 4 1619.36 1583.83 53.60 o
-1 0 -4 1552.47 1699.02 101.83 o
2 0 4 2501.13 2514.37 61.65 o
-2 0 -4 2495.45 2519.73 101.86 o
3 0 4 49938.40 50960.80 578.82 o
-3 0 -4 49948.60 50526.10 573.39 o
4 0 4 7918.74 7673.40 136.88 o
-4 0 -4 7948.23 7657.36 126.15 o
5 0 4 16996.60 16472.60 233.94 o
-5 0 -4 17096.60 17051.10 223.19 o
6 0 4 2469.63 2521.67 99.15 o
-6 0 -4 2553.22 2218.90 142.03 o
7 0 4 1592.14 1677.18 91.09 o
-7 0 -4 1591.28 1631.64 125.92 o
8 0 4 14650.50 14206.50 233.60 o
-8 0 -4 14835.10 13661.90 330.27 o
9 0 4 9763.30 9445.07 193.14 o
-9 0 -4 9785.87 9471.93 276.30 o
10 0 4 99.63 -26.78 69.64 <
-10 0 -4 101.71 144.64 112.50 <
11 0 4 1068.59 983.13 101.79 o
-11 0 -4 1043.74 830.43 150.01 o
-10 1 4 1605.25 1693.15 115.20 o
10 -1 -4 1520.00 1934.24 182.17 o
-9 1 4 908.74 867.93 93.76 o
9 -1 -4 948.18 1039.37 150.01 o
-8 1 4 1009.17 1106.37 93.76 o
8 -1 -4 1085.66 1277.83 144.66 o
-7 1 4 9.13 -5.36 64.28 <
7 -1 -4 20.94 -8.04 104.46 <
-6 1 4 11658.50 11916.50 206.71 o
6 -1 -4 11647.00 11881.60 284.56 o
-5 1 4 11808.30 11665.00 198.71 o
5 -1 -4 11786.00 11801.90 271.21 o
-4 1 4 14434.40 14087.20 215.03 o
4 -1 -4 14575.60 14033.90 287.61 o
-3 1 4 5719.00 5681.79 123.40 o
3 -1 -4 5581.46 5756.69 163.63 o
-2 1 4 25812.20 24586.80 248.35 o
2 -1 -4 25600.40 24806.60 410.29 o
-1 1 4 1990.00 2044.97 61.64 o
1 -1 -4 1980.04 1790.35 93.81 o
0 1 4 276.25 302.69 29.47 o
1 1 4 1132.84 1307.58 48.23 o
2 1 4 225.65 222.32 34.82 o
-2 -1 -4 261.47 216.97 50.89 o
3 1 4 14162.70 13654.00 190.98 o
-3 -1 -4 13962.80 13650.50 185.59 o
4 1 4 410.76 495.56 48.22 o
-4 -1 -4 271.80 522.33 45.54 o
5 1 4 44604.10 44649.80 522.55 o
-5 -1 -4 44977.70 43754.80 500.94 o
6 1 4 1469.22 1374.47 75.02 o
-6 -1 -4 1485.55 1575.42 112.53 o
7 1 4 15311.00 15422.50 233.71 o
-7 -1 -4 15235.80 15368.60 330.42 o
8 1 4 24040.00 22876.20 325.46 o
-8 -1 -4 24063.50 22948.90 454.57 o
9 1 4 3096.76 3221.06 123.27 o
-9 -1 -4 3101.36 3312.18 182.22 o
10 1 4 444.18 487.50 80.36 o
-10 -1 -4 419.43 570.54 123.21 o
11 1 4 1892.92 1816.46 115.20 o
-11 -1 -4 1957.38 2336.24 187.54 o
-9 2 4 1459.44 1248.41 104.48 o
9 -2 -4 1423.47 929.60 155.38 o
-8 2 4 1325.73 1318.05 99.12 o
8 -2 -4 1274.72 1385.01 155.38 o
-7 2 4 7883.02 7884.90 177.01 o
7 -2 -4 7833.64 7860.70 254.78 o
-6 2 4 87.21 104.46 64.28 <
6 -2 -4 145.71 -26.78 99.10 <
-5 2 4 4687.49 4788.18 131.37 o
5 -2 -4 4775.94 4790.95 184.99 o
-4 2 4 13353.50 12814.50 206.86 o
4 -2 -4 13474.20 12514.00 276.71 o
-3 2 4 465.08 610.75 58.93 o
3 -2 -4 436.13 688.43 85.72 o
-2 2 4 28.28 -2.68 42.85 <
2 -2 -4 30.94 42.85 34.82 <
-1 2 4 7468.98 7049.54 99.33 o
1 -2 -4 7390.32 6998.37 169.12 o
0 2 4 5076.55 5121.49 85.85 o
1 2 4 551.80 500.95 32.15 o
2 2 4 3269.74 3255.03 61.67 o
3 2 4 22777.90 21969.40 226.54 o
4 2 4 701.25 747.42 53.58 o
-4 -2 -4 749.64 859.95 48.22 o
5 2 4 4700.95 4438.00 109.94 o
-5 -2 -4 4646.05 4183.19 88.49 o
6 2 4 16737.00 16466.90 239.27 o
-6 -2 -4 16589.30 16237.80 327.98 o
7 2 4 252.27 222.32 56.25 o
-7 -2 -4 274.32 278.57 77.68 o
8 2 4 13357.40 12777.50 212.11 o
-8 -2 -4 13259.20 12428.30 295.34 o
9 2 4 2829.12 3124.50 123.26 o
-9 -2 -4 2680.54 2960.97 174.18 o
10 2 4 1229.55 1502.88 99.12 o
-10 -2 -4 1227.95 1438.58 144.66 o
11 2 4 9579.51 9210.56 203.85 o
-11 -2 -4 9541.78 9331.20 292.35 o
-9 3 4 5618.37 5848.99 174.24 o
9 -3 -4 5624.21 5508.56 257.33 o
-8 3 4 1249.55 1205.51 104.48 o
8 -3 -4 1175.12 1133.17 158.05 o
-7 3 4 7660.22 7436.23 176.99 o
7 -3 -4 7665.86 7505.96 260.12 o
-6 3 4 4197.46 3795.35 134.02 o
6 -3 -4 4227.99 4071.45 198.35 o
-5 3 4 4464.19 4372.14 131.35 o
5 -3 -4 4512.11 4184.53 198.37 o
-4 3 4 7127.48 7076.04 150.21 o
4 -3 -4 7074.99 7086.69 217.27 o
-3 3 4 285.84 251.79 56.25 o
3 -3 -4 297.26 289.29 80.36 o
-2 3 4 4543.65 4392.27 109.94 o
2 -3 -4 4411.69 4113.26 91.17 o
-1 3 4 295.65 150.00 42.86 o
1 -3 -4 253.55 163.40 40.18 o
0 3 4 34486.80 35340.50 411.25 o
1 3 4 25125.30 25580.60 221.31 o
2 3 4 10436.60 9981.96 107.48 o
3 3 4 42490.10 41699.50 341.69 o
4 3 4 6522.28 6536.28 99.28 o
-4 -3 -4 6507.83 6565.77 169.04 o
5 3 4 253.97 321.43 50.89 o
-5 -3 -4 279.62 356.25 40.18 o
6 3 4 512.51 543.78 61.61 o
-6 -3 -4 538.61 626.83 80.36 o
7 3 4 791.04 1039.39 75.01 o
-7 -3 -4 799.05 1042.07 99.12 o
8 3 4 1718.00 2140.74 104.49 o
-8 -3 -4 1733.28 1998.74 142.00 o
9 3 4 42.62 123.21 61.60 <
-9 -3 -4 42.14 270.52 96.42 <
10 3 4 1704.76 1561.94 99.13 o
-10 -3 -4 1802.46 1741.46 147.35 o
11 3 4 360.28 227.68 77.68 <
-11 -3 -4 347.49 278.57 117.86 <
12 3 4 195.34 262.49 85.71 o
-12 -3 -4 190.85 409.81 131.25 o
-8 4 4 1558.79 2105.71 125.91 o
8 -4 -4 1587.91 1953.01 184.85 o
-7 4 4 7.90 -107.14 75.00 <
7 -4 -4 3.08 104.46 128.56 <
-6 4 4 628.75 600.03 83.04 o
6 -4 -4 668.32 591.99 125.90 o
-5 4 4 5152.12 5283.85 144.76 o
5 -4 -4 5342.90 5353.73 219.83 o
-4 4 4 27789.90 27271.50 368.86 o
4 -4 -4 27961.40 27856.60 511.58 o
-3 4 4 1380.50 1307.44 80.38 o
3 -4 -4 1333.31 1243.13 109.85 o
-2 4 4 11362.00 11270.20 179.91 o
2 -4 -4 11160.50 10797.10 161.11 o
-1 4 4 56511.80 54653.80 624.58 o
1 -4 -4 56678.00 53928.20 611.03 o
0 4 4 5799.07 5804.93 115.35 o
0 -4 -4 5814.23 5810.32 147.54 o
1 4 4 7037.38 7141.06 104.66 o
-1 -4 -4 6900.60 7194.47 177.11 o
2 4 4 191.02 283.93 32.14 o
3 4 4 311.32 273.22 32.14 o
4 4 4 7751.63 7294.73 110.04 o
-4 -4 -4 7939.08 7491.02 171.77 o
5 4 4 14526.60 14232.60 169.34 o
-5 -4 -4 14598.70 14289.30 274.17 o
6 4 4 18193.30 17373.30 252.80 o
-6 -4 -4 18242.90 17338.50 330.80 o
7 4 4 3065.94 3181.28 107.20 o
-7 -4 -4 3044.76 3124.98 139.37 o
8 4 4 30933.10 29598.10 396.01 o
-8 -4 -4 30980.20 29539.10 528.01 o
9 4 4 26.65 160.71 66.96 <
-9 -4 -4 34.91 235.70 91.07 <
10 4 4 5648.84 5324.12 150.13 o
-10 -4 -4 5607.74 5254.39 203.74 o
11 4 4 1978.46 2164.80 120.56 o
-11 -4 -4 1988.11 2376.46 168.79 o
12 4 4 109.14 171.42 80.35 <
-12 -4 -4 160.96 259.81 128.57 <
-7 5 4 4513.36 4266.82 155.45 o
7 -5 -4 4357.32 4365.89 243.89 o
-6 5 4 888.30 782.20 93.76 o
6 -5 -4 934.22 937.58 144.65 o
-5 5 4 5271.06 5278.27 152.80 o
5 -5 -4 5240.27 5066.47 222.50 o
-4 5 4 122.08 93.75 64.28 <
4 -5 -4 96.17 -29.46 101.78 <
-3 5 4 1088.31 913.53 75.01 o
3 -5 -4 1035.78 967.09 112.51 o
-2 5 4 46.08 184.81 56.25 o
2 -5 -4 35.59 18.75 85.71 <
-1 5 4 578.43 498.25 56.25 o
1 -5 -4 615.27 728.63 58.93 o
0 5 4 15915.20 15697.50 217.76 o
0 -5 -4 16435.90 15298.70 217.79 o
1 5 4 13770.00 13872.70 163.94 o
-1 -5 -4 13832.30 13915.90 284.88 o
2 5 4 75.46 139.28 34.82 o
-2 -5 -4 102.76 2.68 64.28 <
3 5 4 3969.54 3951.93 77.75 o
-3 -5 -4 3869.62 3882.12 158.18 o
4 5 4 54102.90 53760.00 515.64 o
-4 -5 -4 54109.50 54916.20 833.17 o
5 5 4 15436.00 15128.30 182.79 o
-5 -5 -4 15496.30 14687.70 276.87 o
6 5 4 14873.80 14518.40 180.04 o
-6 -5 -4 14729.70 14996.20 284.82 o
7 5 4 10384.70 10043.60 185.20 o
-7 -5 -4 10380.20 10223.40 233.51 o
8 5 4 4111.67 4007.29 123.30 o
-8 -5 -4 4304.38 4203.12 158.15 o
9 5 4 5304.71 4943.50 139.40 o
-9 -5 -4 5175.77 5176.62 184.98 o
10 5 4 7923.34 7844.30 177.00 o
-10 -5 -4 7965.35 7801.45 236.00 o
11 5 4 8095.65 7996.79 185.04 o
-11 -5 -4 8098.98 8380.28 257.44 o
12 5 4 1235.29 1216.22 107.16 o
-12 -5 -4 1236.17 1042.09 147.34 o
-6 6 4 82.12 206.24 83.03 <
6 -6 -4 57.16 -13.39 131.24 <
-5 6 4 6895.87 7196.37 176.96 o
5 -6 -4 6845.36 7271.39 268.12 o
-4 6 4 5436.47 5565.23 152.80 o
4 -6 -4 5515.01 5313.31 225.19 o
-3 6 4 606.40 725.93 77.68 o
3 -6 -4 586.80 683.06 117.86 o
-2 6 4 10564.60 10337.20 185.17 o
2 -6 -4 10483.20 10535.60 273.72 o
-1 6 4 14761.50 14994.10 222.95 o
1 -6 -4 14671.00 14513.10 217.57 o
0 6 4 1043.80 1028.73 66.97 o
0 -6 -4 1043.76 1071.60 66.97 o
1 6 4 13878.10 14053.30 169.25 o
-1 -6 -4 13809.10 13908.00 292.83 o
2 6 4 15330.80 14946.20 172.01 o
-2 -6 -4 15373.40 14637.30 314.46 o
3 6 4 251.78 216.96 48.21 o
-3 -6 -4 258.71 369.64 88.39 o
4 6 4 13183.60 13053.10 198.79 o
-4 -6 -4 12879.70 12942.10 193.41 o
5 6 4 782.49 669.72 56.26 o
-5 -6 -4 757.82 650.96 61.61 o
6 6 4 1610.43 1645.10 80.38 o
-6 -6 -4 1676.98 1717.46 85.74 o
7 6 4 14317.90 14404.40 308.88 o
-7 -6 -4 14223.70 14436.40 287.39 o
8 6 4 490.87 433.94 69.64 o
-8 -6 -4 535.99 565.20 85.72 o
9 6 4 2592.99 2384.84 117.90 o
-9 -6 -4 2589.44 2438.43 144.70 o
10 6 4 14.54 37.50 88.39 <
-10 -6 -4 36.55 88.39 88.39 <
11 6 4 2683.21 2352.60 168.81 o
-11 -6 -4 2584.26 2226.63 166.13 o
12 6 4 116.54 66.96 104.46 <
-12 -6 -4 94.65 128.57 85.71 <
-5 7 4 307.60 417.85 133.93 o
5 -7 -4 351.48 388.39 144.64 <
-4 7 4 1052.27 921.52 141.98 o
4 -7 -4 1016.47 1092.96 147.34 o
-3 7 4 1719.00 1494.96 152.71 o
3 -7 -4 1571.93 1489.57 147.35 o
-2 7 4 1686.35 1958.47 158.07 o
2 -7 -4 1692.89 1963.83 150.03 o
-1 7 4 20856.70 21630.10 465.08 o
1 -7 -4 20946.30 21041.70 430.14 o
0 7 4 2418.51 2532.25 158.10 o
0 -7 -4 2343.92 2500.06 99.14 o
1 7 4 15622.50 15023.50 343.89 o
-1 -7 -4 15721.60 14593.90 308.97 o
2 7 4 6657.04 6737.25 147.51 o
-2 -7 -4 6674.98 6664.86 195.79 o
3 7 4 4376.37 4200.86 115.28 o
-3 -7 -4 4180.31 4018.40 166.21 o
4 7 4 778.03 798.30 64.29 o
-4 -7 -4 821.89 908.14 112.51 o
5 7 4 334.92 291.97 53.57 o
-5 -7 -4 354.76 278.58 56.25 o
6 7 4 15665.90 16082.00 233.74 o
-6 -7 -4 15701.60 16350.80 241.80 o
7 7 4 1908.28 1864.84 136.65 o
-7 -7 -4 1898.23 1993.45 104.50 o
8 7 4 160.46 206.24 83.03 <
-8 -7 -4 234.87 208.93 61.61 o
9 7 4 9096.65 9042.62 249.47 o
-9 -7 -4 9051.00 8677.73 182.41 o
10 7 4 6796.89 6341.24 219.87 o
-10 -7 -4 6650.10 6445.66 166.24 o
11 7 4 104.11 42.86 96.42 <
-11 -7 -4 160.03 224.99 80.35 <
12 7 4 5320.86 5041.97 222.48 o
-12 -7 -4 5312.33 5452.08 168.87 o
-4 8 4 170.54 149.99 128.57 <
4 -8 -4 123.71 88.39 133.92 <
-3 8 4 524.40 626.80 139.29 o
3 -8 -4 518.79 401.79 131.25 o
-2 8 4 808.59 506.28 123.22 o
2 -8 -4 860.40 755.41 131.26 o
-1 8 4 7582.28 6993.90 252.08 o
1 -8 -4 7618.39 7010.04 238.67 o
0 8 4 9028.77 9193.01 278.98 o
0 -8 -4 9134.68 9115.38 174.37 o
1 8 4 2.06 -13.39 88.39 <
-1 -8 -4 16.85 58.93 61.60 <
2 8 4 116.83 158.03 64.28 <
-2 -8 -4 178.20 254.46 93.75 <
3 8 4 4088.01 4114.51 125.98 o
-3 -8 -4 4171.35 4154.78 171.55 o
4 8 4 29389.30 28976.40 379.74 o
-4 -8 -4 29349.70 28860.30 562.88 o
5 8 4 1128.26 921.57 69.65 o
-5 -8 -4 1081.71 956.39 125.91 o
6 8 4 12847.70 12593.90 206.72 o
-6 -8 -4 12842.10 12690.60 335.59 o
7 8 4 24038.40 23500.60 320.08 o
-7 -8 -4 24344.00 23953.80 516.47 o
8 8 4 10712.90 10226.00 271.01 o
-8 -8 -4 10770.70 10349.50 305.90 o
9 8 4 697.73 648.25 104.47 o
-9 -8 -4 694.46 701.82 131.26 o
10 8 4 3167.68 3073.65 171.50 o
-10 -8 -4 3092.36 2872.63 198.30 o
11 8 4 1147.92 1039.40 125.91 o
-11 -8 -4 1114.02 1157.27 155.37 o
12 8 4 3426.90 3360.39 192.94 o
-12 -8 -4 3374.20 3513.11 219.74 o
-3 9 4 18.83 -2.68 125.89 <
3 -9 -4 34.79 -120.53 131.24 <
-2 9 4 4645.22 5255.95 246.58 o
2 -9 -4 4688.45 5515.97 241.22 o
-1 9 4 942.98 1015.26 144.65 o
1 -9 -4 939.19 964.37 139.30 o
0 9 4 7564.62 7259.08 262.80 o
0 -9 -4 7628.16 7398.59 252.07 o
1 9 4 387.63 337.50 107.14 o
-1 -9 -4 365.04 313.39 72.32 o
2 9 4 8075.79 8295.52 260.16 o
-2 -9 -4 8001.98 8078.18 241.38 o
3 9 4 2736.79 2851.17 117.90 o
-3 -9 -4 2828.11 2596.64 155.42 o
4 9 4 6853.47 6610.11 155.53 o
-4 -9 -4 6847.18 6419.71 222.57 o
5 9 4 39.60 72.32 58.93 <
-5 -9 -4 15.81 203.56 109.82 <
6 9 4 135.07 246.42 61.60 o
-6 -9 -4 120.18 283.92 107.14 <
7 9 4 1644.00 1669.11 93.77 o
-7 -9 -4 1599.87 1626.23 160.75 o
8 9 4 4405.72 4318.01 190.30 o
-8 -9 -4 4412.66 4749.54 230.51 o
9 9 4 9449.99 9222.01 265.55 o
-9 -9 -4 9358.56 9256.75 311.15 o
10 9 4 2051.56 1706.68 142.00 o
-10 -9 -4 2037.93 1693.28 168.79 o
11 9 4 2200.07 2154.14 160.76 o
-11 -9 -4 2098.19 1918.33 176.83 o
12 9 4 7978.10 6848.46 252.06 o
-12 -9 -4 7909.13 6588.29 281.55 o
-1 10 4 2738.97 2583.01 206.32 o
1 -10 -4 2735.59 2558.90 187.56 o
0 10 4 438.66 533.04 131.25 o
0 -10 -4 406.42 463.39 128.57 o
1 10 4 1530.47 1157.34 141.99 o
-1 -10 -4 1595.90 1494.92 144.67 o
2 10 4 1879.23 1765.59 155.39 o
-2 -10 -4 1949.57 2089.80 112.53 o
3 10 4 5387.04 5323.86 155.48 o
-3 -10 -4 5453.29 5047.80 203.74 o
4 10 4 246.87 198.21 72.32 <
-4 -10 -4 320.91 -29.46 104.46 <
5 10 4 5466.62 5227.50 147.44 o
-5 -10 -4 5465.34 5305.24 211.78 o
6 10 4 4712.77 4331.58 136.70 o
-6 -10 -4 4730.62 4492.42 217.12 o
7 10 4 1048.65 1071.54 83.04 o
-7 -10 -4 1022.83 825.09 147.34 o
8 10 4 1120.01 1159.95 131.26 o
-8 -10 -4 1171.59 1176.04 163.41 o
9 10 4 1208.58 1052.81 125.91 o
-9 -10 -4 1188.07 1213.54 168.77 o
10 10 4 242.00 219.64 107.14 <
-10 -10 -4 208.09 302.67 128.57 <
11 10 4 996.32 1184.03 139.30 o
-11 -10 -4 984.42 1462.62 179.48 o
0 11 4 2471.94 1888.95 182.20 o
0 -11 -4 2443.77 1969.32 179.52 o
1 11 4 2687.93 2850.94 209.00 o
-1 -11 -4 2763.50 3038.53 206.32 o
2 11 4 1470.61 1178.76 152.70 o
-2 -11 -4 1432.79 1390.39 104.48 o
3 11 4 1044.40 881.34 133.94 o
-3 -11 -4 973.83 932.22 133.94 o
4 11 4 97.44 163.39 75.00 <
-4 -11 -4 155.76 233.03 120.53 <
5 11 4 2425.55 2269.45 123.25 o
-5 -11 -4 2422.84 2454.33 184.88 o
6 11 4 8380.19 8131.26 185.04 o
-6 -11 -4 8217.79 8184.69 286.95 o
7 11 4 1632.92 1612.80 101.81 o
-7 -11 -4 1553.54 1543.13 171.46 o
8 11 4 624.18 774.13 125.90 o
-8 -11 -4 607.52 538.41 152.68 o
9 11 4 7669.73 8250.74 268.14 o
-9 -11 -4 7796.01 7832.58 305.69 o
10 11 4 2341.41 1811.22 160.76 o
-10 -11 -4 2364.77 2049.69 192.91 o
11 11 4 2290.82 1974.63 166.12 o
-11 -11 -4 2261.61 1891.57 192.91 o
3 12 4 6203.62 5980.84 254.68 o
-3 -12 -4 6221.22 5948.68 168.89 o
4 12 4 3564.51 3371.18 206.34 o
-4 -12 -4 3618.87 3582.91 203.67 o
5 12 4 5321.53 5430.65 166.19 o
-5 -12 -4 5242.77 5615.54 246.60 o
6 12 4 41.00 77.67 75.00 <
-6 -12 -4 53.06 241.06 139.28 <
7 12 4 825.26 1033.99 93.76 o
-7 -12 -4 872.96 1012.57 168.76 o
8 12 4 48.92 56.25 109.82 <
-8 -12 -4 75.21 -10.71 141.96 <
9 12 4 133.85 144.64 112.50 <
-9 -12 -4 141.76 -50.89 141.96 <
-6 -12 5 1756.18 1379.73 195.57 o
6 12 -5 1650.26 1473.47 190.21 o
-9 -11 5 7868.99 7566.97 300.32 o
9 11 -5 7788.29 8210.42 316.40 o
-8 -11 5 1800.05 1494.94 184.86 o
8 11 -5 1873.88 1920.94 200.93 o
-7 -11 5 1964.41 1685.20 190.22 o
7 11 -5 1893.93 2180.83 206.29 o
-6 -11 5 9897.06 8119.26 319.19 o
6 11 -5 9795.11 9366.38 319.19 o
-5 -11 5 2529.47 2617.78 203.63 o
5 11 -5 2524.52 2649.93 219.71 o
-4 -11 5 1234.75 1189.43 174.13 o
4 11 -5 1326.11 1283.21 171.45 o
-3 -11 5 712.18 597.35 155.36 o
3 11 -5 718.74 779.50 152.68 o
-2 -11 5 65.80 99.10 125.89 <
2 11 -5 55.45 152.67 139.28 <
-10 -10 5 854.05 653.61 93.76 o
10 10 -5 827.80 667.01 163.40 o
-9 -10 5 842.92 415.20 141.97 <
9 10 -5 832.85 739.33 158.05 o
-8 -10 5 4718.83 4939.77 241.23 o
8 10 -5 4665.45 4786.96 257.31 o
-7 -10 5 4938.83 5052.56 249.28 o
7 10 -5 4995.37 5092.81 254.64 o
-6 -10 5 9270.62 8218.21 300.40 o
6 10 -5 9299.15 8802.96 303.09 o
-5 -10 5 778.33 645.58 150.01 o
5 10 -5 813.69 763.44 147.33 o
-4 -10 5 268.29 270.53 139.28 <
4 10 -5 265.24 117.86 123.21 <
-3 -10 5 14732.50 14576.00 410.70 o
3 10 -5 14623.10 14871.00 394.59 o
-2 -10 5 3388.70 3631.08 225.10 o
2 10 -5 3315.34 3368.42 222.42 o
-1 -10 5 1836.71 1862.00 187.54 o
1 10 -5 1869.07 1880.76 179.50 o
0 -10 5 468.79 195.54 139.29 <
0 10 -5 477.73 637.51 144.64 o
-11 -9 5 108.68 112.50 112.50 <
11 9 -5 107.19 -64.28 136.60 <
-10 -9 5 439.52 326.79 83.04 o
10 9 -5 460.95 511.61 144.64 o
-9 -9 5 1476.91 1398.44 104.48 o
9 9 -5 1540.65 1468.11 168.78 o
-8 -9 5 110.38 291.95 80.35 o
8 9 -5 179.31 310.70 133.92 <
-7 -9 5 721.65 768.79 85.72 o
7 9 -5 837.86 715.23 136.62 o
-6 -9 5 1774.88 1685.20 109.85 o
6 9 -5 1862.53 2001.37 174.15 o
-5 -9 5 729.47 637.54 91.08 o
5 9 -5 705.67 653.61 125.90 o
-4 -9 5 1059.63 1117.09 88.40 o
4 9 -5 1190.73 1141.22 139.30 o
-3 -9 5 6093.96 6268.21 163.54 o
3 9 -5 6097.77 6053.73 252.02 o
-2 -9 5 917.51 709.88 131.26 o
2 9 -5 887.17 953.65 85.72 o
-1 -9 5 1284.39 1352.87 163.41 o
1 9 -5 1298.86 1208.21 93.76 o
0 -9 5 1031.86 1285.84 166.09 o
0 9 -5 1006.38 1251.01 99.12 o
1 -9 5 678.14 621.45 136.61 o
-1 9 -5 670.88 760.74 133.93 o
2 -9 5 16415.50 16712.20 440.29 o
-2 9 -5 16192.90 16368.00 410.74 o
-11 -8 5 1402.71 1283.22 152.70 o
11 8 -5 1456.80 1510.94 168.78 o
-10 -8 5 3598.06 3904.53 198.31 o
10 8 -5 3552.65 3714.24 225.10 o
-9 -8 5 359.21 238.39 77.68 o
9 8 -5 364.12 302.68 131.25 <
-8 -8 5 275.74 233.03 75.00 o
8 8 -5 280.80 514.28 133.93 o
-7 -8 5 1150.65 1031.38 88.40 o
7 8 -5 1185.25 1213.56 147.34 o
-6 -8 5 8568.76 8561.81 179.71 o
6 8 -5 8631.67 8580.67 281.64 o
-5 -8 5 1638.54 1669.12 131.28 o
5 8 -5 1635.72 1355.66 139.32 o
-4 -8 5 1018.40 991.19 85.72 o
4 8 -5 1006.50 1066.19 128.59 o
-3 -8 5 3401.04 3331.20 120.60 o
3 8 -5 3354.51 3282.94 201.00 o
-2 -8 5 939.40 854.55 80.37 o
2 8 -5 1069.69 551.85 115.19 o
-1 -8 5 6800.54 6384.41 249.37 o
1 8 -5 6946.49 6625.89 160.89 o
0 -8 5 1857.97 1760.24 160.75 o
0 8 -5 1839.70 2089.77 107.17 o
1 -8 5 35.71 254.45 120.53 <
-1 8 -5 78.18 192.85 69.64 <
2 -8 5 3223.89 3392.49 195.62 o
-2 8 -5 3180.86 3531.82 139.34 o
3 -8 5 1659.43 1548.49 174.14 o
-3 8 -5 1725.12 1859.28 107.16 o
-12 -7 5 65.42 40.18 128.57 <
12 7 -5 101.81 326.77 91.07 o
-11 -7 5 1967.38 1776.30 163.43 o
11 7 -5 2068.25 2234.47 182.19 o
-10 -7 5 8158.53 8369.60 268.17 o
10 7 -5 8109.05 8458.03 294.98 o
9 7 -5 2269.60 2872.28 203.63 o
-8 -7 5 8479.52 9020.03 182.38 o
8 7 -5 8515.00 8647.26 284.31 o
-7 -7 5 1004.32 972.43 83.05 o
7 7 -5 768.13 959.00 128.58 o
-6 -7 5 1337.96 1168.07 85.73 o
6 7 -5 1194.64 1031.41 128.59 o
-5 -7 5 5221.65 5600.52 142.09 o
5 7 -5 5225.54 5152.81 214.48 o
-4 -7 5 418.12 324.11 69.64 o
4 7 -5 469.87 318.76 96.43 o
-3 -7 5 15080.20 14412.30 233.67 o
3 7 -5 14918.60 14428.00 351.84 o
-2 -7 5 6987.85 6608.00 155.54 o
2 7 -5 7013.76 6723.35 236.00 o
-1 -7 5 7083.82 6575.71 233.31 o
1 7 -5 7104.68 6685.69 238.68 o
0 -7 5 720.79 527.71 115.19 o
0 7 -5 553.15 642.88 75.00 o
1 -7 5 845.16 929.54 136.62 o
-1 7 -5 824.17 942.93 80.36 o
2 -7 5 841.68 750.05 125.90 o
-2 7 -5 955.50 886.69 83.04 o
3 -7 5 2772.98 2813.51 184.89 o
-3 7 -5 2858.33 2952.88 125.94 o
4 -7 5 1889.84 2001.33 176.82 o
-4 7 -5 1843.85 2087.04 115.20 o
-12 -6 5 2691.64 2620.49 200.96 o
12 6 -5 2573.37 2850.87 150.05 o
-11 -6 5 5604.24 5283.48 241.26 o
11 6 -5 5548.83 5749.86 168.88 o
-10 -6 5 390.38 554.47 131.25 o
10 6 -5 404.27 594.65 88.39 o
-9 -6 5 2232.85 2440.91 174.16 o
9 6 -5 2246.90 2462.35 117.89 o
-8 -6 5 2374.68 2269.52 109.86 o
8 6 -5 2524.11 2229.39 109.86 o
-7 -6 5 4640.26 4953.78 134.03 o
7 6 -5 4639.51 5004.71 233.21 o
-6 -6 5 253.96 265.18 64.29 o
6 6 -5 211.93 104.46 101.78 <
-5 -6 5 4595.80 4841.51 128.68 o
5 6 -5 4597.89 4677.99 209.10 o
4 6 -5 1256.30 1047.52 109.84 o
-3 -6 5 22302.90 22397.00 312.08 o
3 6 -5 22362.30 21711.30 451.98 o
-2 -6 5 2000.30 2194.49 99.14 o
2 6 -5 1974.31 2231.99 166.13 o
-1 -6 5 6648.63 6409.63 150.18 o
1 6 -5 6709.99 6492.84 222.60 o
0 -6 5 79.75 104.46 101.78 <
0 6 -5 36.74 96.42 56.25 <
1 -6 5 671.56 444.67 104.47 o
-1 6 -5 497.14 492.87 66.97 o
2 -6 5 12108.50 11634.50 324.75 o
-2 6 -5 12162.80 11755.40 206.66 o
3 -6 5 3680.05 4279.94 201.00 o
-3 6 -5 3727.51 3888.69 131.32 o
4 -6 5 10616.10 10049.50 308.51 o
-4 6 -5 10541.00 10355.20 198.52 o
5 -6 5 13488.10 12669.70 359.61 o
-5 6 -5 13337.40 12846.50 335.45 o
6 -6 5 631.61 479.48 133.93 o
-6 6 -5 580.49 380.37 120.54 o
-12 -5 5 575.75 543.76 141.97 o
12 5 -5 545.88 701.80 141.97 o
-11 -5 5 2281.62 2202.39 179.51 o
11 5 -5 2178.56 2566.74 139.32 o
-10 -5 5 572.52 428.58 125.90 o
10 5 -5 618.80 500.91 91.07 o
-9 -5 5 2691.32 2526.84 176.85 o
9 5 -5 2844.98 2773.43 128.62 o
-8 -5 5 1035.79 725.98 120.55 o
8 5 -5 1014.49 859.92 83.05 o
-7 -5 5 5459.36 5225.42 134.05 o
7 5 -5 5416.33 5163.72 136.73 o
-6 -5 5 8281.25 8606.12 233.40 o
6 5 -5 8334.76 8638.40 163.65 o
-5 -5 5 578.56 530.39 66.97 o
5 5 -5 491.42 511.63 101.79 o
-4 -5 5 1631.42 1693.34 88.42 o
4 5 -5 1664.02 1846.08 136.65 o
-3 -5 5 8392.79 8216.13 160.99 o
3 5 -5 8336.03 8119.43 244.17 o
-2 -5 5 12105.00 11848.00 196.03 o
2 5 -5 12070.30 11402.10 290.02 o
-1 -5 5 1176.22 1012.69 72.34 o
1 5 -5 1141.14 1052.87 107.16 o
0 -5 5 583.02 329.48 64.29 o
0 5 -5 469.20 471.45 91.07 o
1 -5 5 10155.20 10179.10 287.15 o
-1 5 -5 10142.50 10316.00 185.17 o
2 -5 5 6572.77 6553.87 227.94 o
-2 5 -5 6618.67 6736.28 150.17 o
3 -5 5 541.11 541.09 115.18 o
-3 5 -5 530.51 530.37 66.97 o
4 -5 5 392.81 267.86 104.46 <
-4 5 -5 386.88 385.72 66.96 o
5 -5 5 989.98 953.66 133.94 o
-5 5 -5 988.45 833.11 123.23 o
6 -5 5 3109.14 3057.46 200.97 o
-6 5 -5 3087.13 3033.33 190.25 o
-11 -4 5 2458.98 2440.91 190.24 o
11 4 -5 2441.36 2553.44 133.97 o
-10 -4 5 7090.15 6864.14 254.72 o
10 4 -5 7010.49 6818.48 171.60 o
-9 -4 5 2546.80 2558.94 176.85 o
9 4 -5 2570.57 3062.70 200.96 o
-8 -4 5 848.99 894.72 128.58 o
8 4 -5 825.76 1020.62 88.40 o
-7 -4 5 14023.60 12973.00 314.19 o
7 4 -5 13837.50 13214.20 220.19 o
-6 -4 5 2651.57 3494.49 158.11 o
6 4 -5 2624.88 2982.63 184.91 o
-5 -4 5 1714.32 1728.20 91.10 o
5 4 -5 1631.10 1808.55 85.74 o
-4 -4 5 1126.68 1093.07 72.34 o
4 4 -5 1073.73 1020.72 64.30 o
-3 -4 5 1655.95 1789.86 88.42 o
3 4 -5 1568.31 1776.43 125.93 o
-2 -4 5 11227.00 11364.70 187.98 o
2 4 -5 11431.50 10820.00 276.61 o
-1 -4 5 1448.89 1398.60 80.38 o
1 4 -5 1541.91 1481.69 109.85 o
0 -4 5 1961.32 1913.22 93.79 o
0 4 -5 1941.07 2143.66 147.38 o
1 -4 5 1122.00 1457.40 128.59 o
-1 4 -5 1106.13 1519.02 112.52 o
2 -4 5 1631.32 1521.83 133.96 o
-2 4 -5 1672.67 1816.57 99.13 o
3 -4 5 378.98 150.00 99.11 <
-3 4 -5 397.76 348.22 58.93 o
4 -4 5 967.18 1162.63 139.30 o
-4 4 -5 947.33 1146.55 77.69 o
5 -4 5 658.06 356.27 107.15 o
-5 4 -5 840.42 364.31 101.79 o
6 -4 5 1292.79 1864.54 168.77 o
-6 4 -5 1245.15 1663.61 150.02 o
7 -4 5 1773.61 1819.11 174.14 o
-7 4 -5 1789.68 1945.03 163.43 o
-11 -3 5 484.83 380.36 133.93 <
11 3 -5 542.66 672.34 99.11 o
-10 -3 5 7843.79 7717.60 268.16 o
10 3 -5 7953.91 8012.70 187.71 o
-9 -3 5 318.32 278.57 117.86 <
9 3 -5 382.04 254.46 80.36 o
-8 -3 5 4403.58 4237.77 198.35 o
8 3 -5 4435.94 4224.39 139.38 o
-7 -3 5 594.71 613.42 115.18 o
7 3 -5 618.14 621.46 75.00 o
-6 -3 5 16597.90 16709.80 357.41 o
6 3 -5 16558.00 16373.70 247.23 o
-5 -3 5 6322.78 6576.44 134.10 o
5 3 -5 6358.01 6603.31 144.83 o
-4 -3 5 1713.65 1637.16 83.06 o
4 3 -5 1788.23 1779.20 80.39 o
-3 -3 5 174.98 283.92 56.25 o
3 3 -5 200.66 270.53 48.21 o
-2 -3 5 24071.90 23886.00 425.72 o
2 3 -5 24009.70 23839.80 458.04 o
-1 -3 5 26199.40 25373.00 331.59 o
1 3 -5 25943.20 25627.50 479.83 o
0 -3 5 126.59 179.46 53.57 o
0 3 -5 142.15 120.53 72.32 <
1 -3 5 5263.15 5014.70 123.36 o
-1 3 -5 5132.30 5255.89 179.67 o
2 -3 5 6305.99 6756.09 219.93 o
-2 3 -5 6303.67 6369.87 136.79 o
3 -3 5 24768.00 24421.50 497.96 o
-3 3 -5 24751.10 24128.00 320.31 o
4 -3 5 15121.20 14047.20 351.85 o
-4 3 -5 14950.20 14132.70 217.55 o
5 -3 5 2832.83 2912.85 179.54 o
-5 3 -5 2832.88 2819.06 168.82 o
6 -3 5 8741.09 8765.26 284.31 o
-6 3 -5 8796.54 8762.66 265.54 o
7 -3 5 11453.70 11357.30 332.70 o
-7 3 -5 11427.40 11314.30 313.91 o
8 -3 5 340.37 281.25 123.21 <
-8 3 -5 356.77 267.86 120.54 <
-11 -2 5 3887.02 3641.99 217.07 o
11 2 -5 3916.37 4250.34 160.79 o
-10 -2 5 2576.28 2438.29 192.92 o
10 2 -5 2497.84 2609.75 133.97 o
-9 -2 5 1921.75 1829.91 158.07 o
9 2 -5 1899.86 1966.54 112.53 o
-8 -2 5 4416.91 4344.95 203.71 o
8 2 -5 4489.50 4460.26 142.06 o
-7 -2 5 6617.86 6661.23 225.26 o
7 2 -5 6576.28 6500.28 155.54 o
-6 -2 5 3690.54 4235.00 182.27 o
6 2 -5 3756.70 3945.57 190.31 o
-5 -2 5 11904.40 11705.30 179.92 o
5 2 -5 11712.80 11814.90 196.02 o
-4 -2 5 14513.70 14302.90 204.25 o
4 2 -5 14708.40 13819.70 209.63 o
-3 -2 5 34103.90 32508.10 397.07 o
3 2 -5 34294.80 32909.40 394.38 o
-2 -2 5 434.34 297.34 53.57 o
2 2 -5 419.41 353.59 85.72 o
-1 -2 5 42.87 24.11 48.21 <
1 2 -5 38.34 80.35 69.64 <
0 -2 5 429.33 377.70 56.25 o
0 2 -5 367.69 431.27 75.00 o
1 -2 5 28393.30 28788.10 369.53 o
-1 2 -5 28337.20 28652.80 515.17 o
2 -2 5 5475.21 5588.93 193.09 o
-2 2 -5 5399.41 6331.69 182.36 o
3 -2 5 17629.70 17349.50 239.29 o
-3 2 -5 17385.30 17120.10 244.65 o
4 -2 5 1514.97 1762.93 88.41 o
-4 2 -5 1459.90 1650.38 91.09 o
5 -2 5 5338.04 5217.26 131.37 o
-5 2 -5 5413.95 5608.77 201.08 o
6 -2 5 444.47 278.58 109.82 <
-6 2 -5 511.26 372.33 99.11 o
7 -2 5 1263.06 867.98 128.59 o
-7 2 -5 1216.99 798.32 120.55 o
8 -2 5 4908.84 4956.00 217.11 o
-8 2 -5 4889.72 4961.34 222.47 o
9 -2 5 73.24 -24.11 112.50 <
-9 2 -5 70.82 182.13 123.21 <
-10 -1 5 373.97 364.28 131.25 <
10 1 -5 390.26 348.21 93.75 o
-9 -1 5 858.28 1100.97 144.65 o
9 1 -5 969.46 1334.05 104.47 o
-8 -1 5 698.96 634.86 123.22 o
8 1 -5 694.16 696.47 88.40 o
-7 -1 5 2282.84 1891.73 150.05 o
7 1 -5 2120.95 2194.45 112.54 o
-6 -1 5 795.96 795.61 109.83 o
6 1 -5 824.47 921.52 80.37 o
-5 -1 5 491.95 541.10 96.43 o
5 1 -5 487.83 500.92 69.65 o
-4 -1 5 277.62 216.97 48.21 o
4 1 -5 222.19 200.89 58.93 o
-3 -1 5 13339.40 13280.70 190.80 o
3 1 -5 13191.00 13135.10 198.85 o
-2 -1 5 49.77 163.38 48.21 o
2 1 -5 48.09 96.42 45.53 <
-1 -1 5 233.93 133.93 48.21 <
1 1 -5 233.97 104.46 42.86 <
0 -1 5 81.36 13.39 45.53 <
0 1 -5 87.61 40.18 34.82 <
1 -1 5 904.12 1192.18 69.66 o
-1 1 -5 920.95 1344.89 91.09 o
2 -1 5 27687.90 26615.00 269.68 o
-2 1 -5 27764.10 26828.60 474.65 o
3 -1 5 372.09 417.87 50.89 o
-3 1 -5 563.54 460.75 50.90 o
4 -1 5 679.81 642.91 56.25 o
-4 1 -5 675.73 583.98 56.25 o
5 -1 5 9019.42 8972.24 163.67 o
-5 1 -5 8975.55 9248.52 244.16 o
6 -1 5 9849.95 10007.90 182.45 o
-6 1 -5 9832.90 9256.65 262.94 o
7 -1 5 3991.67 4087.26 123.29 o
-7 1 -5 4059.02 4623.34 198.34 o
8 -1 5 1711.71 1872.70 104.49 o
-8 1 -5 1691.21 2135.25 166.10 o
9 -1 5 2925.50 2601.85 190.25 o
-9 1 -5 2882.16 2591.12 192.93 o
-10 0 5 1723.27 2274.54 184.86 o
10 0 -5 1650.00 2046.79 128.59 o
-9 0 5 2432.98 2491.84 182.20 o
9 0 -5 2408.84 2231.93 179.52 o
-8 0 5 57.44 -61.60 104.46 <
8 0 -5 60.69 -2.68 115.17 <
-7 0 5 2125.47 1792.51 101.82 o
7 0 -5 1989.88 2414.08 176.84 o
-6 0 5 382.59 428.58 75.00 o
6 0 -5 359.63 385.72 104.46 o
-5 0 5 1271.64 1454.76 88.41 o
5 0 -5 1194.30 1264.52 112.52 o
-4 0 5 427.31 423.23 64.29 o
4 0 -5 350.95 559.83 85.72 o
-3 0 5 106.90 241.06 40.18 o
3 0 -5 151.57 195.53 69.64 <
-2 0 5 299.81 66.97 42.86 <
2 0 -5 311.28 2.68 56.25 <
-1 0 5 371.32 203.58 48.22 o
1 0 -5 394.86 262.51 48.22 o
0 0 5 5.49 -75.00 45.53 <
0 0 -5 4.75 56.25 40.18 <
1 0 5 177.66 -5.36 34.82 <
-1 0 -5 179.59 91.07 64.29 <
2 0 5 178.68 91.07 37.50 <
-2 0 -5 125.89 125.89 53.57 <
3 0 5 11.16 16.07 42.85 <
-3 0 -5 9.17 56.25 40.18 <
4 0 5 2811.37 2685.45 93.80 o
-4 0 -5 2753.87 2744.38 93.80 o
5 0 5 327.40 230.36 50.89 o
-5 0 -5 291.84 206.25 80.36 <
6 0 5 122.35 227.67 58.93 o
-6 0 -5 126.38 192.85 88.39 <
7 0 5 500.23 511.62 69.64 o
-7 0 -5 324.62 691.07 107.14 o
8 0 5 813.92 1012.57 83.04 o
-8 0 -5 849.59 1100.98 128.58 o
9 0 5 2004.93 2170.17 112.53 o
-9 0 -5 2056.48 2255.92 174.15 o
10 0 5 871.94 1084.89 96.43 o
-10 0 -5 858.53 1068.82 150.01 o
-9 1 5 773.29 798.26 99.11 o
9 -1 -5 784.41 704.50 150.01 o
-8 1 5 472.00 291.97 85.72 o
8 -1 -5 482.51 380.36 133.93 <
-7 1 5 7399.08 7535.52 176.99 o
7 -1 -5 7530.02 7315.78 249.40 o
-6 1 5 3905.37 3682.71 131.33 o
6 -1 -5 3827.12 3602.25 187.62 o
-5 1 5 13341.30 13434.90 225.57 o
5 -1 -5 13328.10 13201.20 298.08 o
-4 1 5 2040.50 1859.63 101.82 o
4 -1 -5 2052.36 1956.10 123.26 o
-3 1 5 556.30 508.96 64.29 o
3 -1 -5 624.28 629.52 85.72 o
-2 1 5 43712.50 43485.00 419.69 o
2 -1 -5 43785.30 43423.50 685.05 o
-1 1 5 80.34 214.28 40.18 o
1 -1 -5 75.10 109.82 56.25 <
0 1 5 237.70 109.82 40.18 <
1 1 5 212.39 45.54 34.82 <
2 1 5 1514.57 1508.55 61.63 o
-2 -1 -5 1456.67 1781.83 99.14 o
3 1 5 22520.60 23117.70 242.41 o
-3 -1 -5 22499.90 22778.20 409.40 o
4 1 5 5076.39 5140.54 115.31 o
-4 -1 -5 5155.17 4837.61 107.26 o
5 1 5 220.63 326.78 53.57 o
-5 -1 -5 188.39 404.46 45.53 o
6 1 5 6636.54 6613.46 142.14 o
-6 -1 -5 6766.06 6487.57 203.83 o
7 1 5 278.69 270.53 64.29 o
-7 -1 -5 175.04 147.32 88.39 <
8 1 5 1258.93 1535.05 93.76 o
-8 -1 -5 1244.73 1564.51 139.31 o
9 1 5 156.85 152.67 72.32 <
-9 -1 -5 249.60 131.25 101.78 <
10 1 5 411.43 350.89 83.04 o
-10 -1 -5 405.69 324.11 123.21 <
-9 2 5 93.78 166.06 91.07 <
9 -2 -5 78.22 267.85 144.64 <
-8 2 5 4491.26 4792.21 160.81 o
8 -2 -5 4522.89 5271.99 238.54 o
-7 2 5 6456.33 6954.88 176.96 o
7 -2 -5 6397.13 7059.38 252.02 o
-6 2 5 3155.15 2795.08 125.95 o
6 -2 -5 3312.57 3041.71 190.27 o
-5 2 5 3266.00 3272.30 123.28 o
5 -2 -5 3275.39 2942.67 176.88 o
-4 2 5 6639.87 7016.02 155.55 o
4 -2 -5 6619.30 7142.05 211.87 o
-3 2 5 5567.91 5610.02 136.76 o
-2 2 5 9940.71 9358.75 166.45 o
2 -2 -5 9876.61 9519.69 217.46 o
-1 2 5 10710.60 10914.20 142.34 o
1 -2 -5 10592.80 11408.00 230.95 o
0 2 5 61.35 61.60 37.50 <
1 2 5 760.09 801.01 40.18 o
2 2 5 90.33 123.21 32.14 o
3 2 5 36873.20 37945.20 367.61 o
-3 -2 -5 36980.00 37300.10 637.93 o
4 2 5 3747.11 3541.29 101.87 o
-4 -2 -5 3890.31 4026.64 99.19 o
5 2 5 7341.74 7578.54 150.23 o
-5 -2 -5 7263.17 7347.70 131.45 o
6 2 5 4931.79 4962.60 126.01 o
-6 -2 -5 4936.26 5013.55 182.31 o
7 2 5 7480.31 7751.18 163.61 o
-7 -2 -5 7510.54 7566.16 227.98 o
8 2 5 10681.40 10792.00 201.24 o
-8 -2 -5 10456.70 10163.70 279.05 o
9 2 5 338.94 428.57 72.32 o
-9 -2 -5 374.91 283.93 104.46 <
10 2 5 1411.07 1647.57 104.48 o
-10 -2 -5 1373.00 1894.03 163.42 o
11 2 5 15244.40 14277.50 265.74 o
-11 -2 -5 15150.90 14701.40 381.16 o
-8 3 5 1379.40 1293.93 112.52 o
8 -3 -5 1410.94 1374.31 171.45 o
-7 3 5 3511.16 3679.42 144.71 o
7 -3 -5 3529.52 3960.81 222.43 o
-6 3 5 2721.78 2826.96 128.62 o
6 -3 -5 2756.51 2706.40 192.93 o
-5 3 5 405.79 310.72 75.00 o
5 -3 -5 393.32 356.25 112.50 o
-4 3 5 10204.60 9360.05 185.16 o
4 -3 -5 9951.25 9724.55 257.60 o
-3 3 5 12895.00 13486.00 220.20 o
3 -3 -5 13069.60 13177.60 295.40 o
-2 3 5 16473.50 15504.40 231.17 o
2 -3 -5 16273.80 15261.90 311.80 o
-1 3 5 759.66 594.71 61.61 o
1 -3 -5 660.04 667.03 83.04 o
0 3 5 174.89 243.75 42.86 o
0 -3 -5 165.96 225.00 72.32 o
1 3 5 46562.90 46323.40 447.08 o
2 3 5 14155.30 14643.60 209.65 o
3 3 5 97.92 227.67 37.50 o
4 3 5 207.14 310.71 53.57 o
-4 -3 -5 390.41 324.12 72.32 o
5 3 5 14375.10 14503.10 223.00 o
-5 -3 -5 14376.80 14384.90 201.51 o
6 3 5 23551.70 22489.20 314.86 o
-6 -3 -5 23470.50 23164.30 425.18 o
7 3 5 329.51 265.18 61.61 o
-7 -3 -5 322.74 340.18 91.07 o
8 3 5 1252.71 1012.66 83.05 o
-8 -3 -5 1304.71 1189.48 117.88 o
9 3 5 4049.41 4087.23 136.69 o
-9 -3 -5 4062.82 3706.65 184.93 o
10 3 5 4102.64 4038.87 142.04 o
-10 -3 -5 4197.27 3387.66 192.97 o
11 3 5 627.76 642.88 91.07 o
-11 -3 -5 689.16 495.56 133.93 o
-7 4 5 3155.15 3129.83 144.70 o
7 -4 -5 3110.57 2979.75 222.41 o
-6 4 5 674.41 830.39 93.75 o
6 -4 -5 662.48 859.86 141.97 o
-5 4 5 3771.87 3752.07 139.36 o
5 -4 -5 3783.76 3915.56 201.00 o
-4 4 5 1081.58 1052.81 88.40 o
4 -4 -5 1075.01 1186.76 128.59 o
-3 4 5 237.81 278.57 66.96 o
3 -4 -5 245.62 348.21 96.43 o
-2 4 5 7948.35 8077.53 160.96 o
2 -4 -5 7981.63 7793.21 222.66 o
-1 4 5 126.29 262.49 56.25 o
1 -4 -5 167.42 267.85 53.57 o
0 4 5 268.98 399.11 56.25 o
0 -4 -5 214.07 396.42 53.57 o
1 4 5 13.04 99.10 37.50 <
2 4 5 4797.89 4797.08 83.12 o
3 4 5 2349.58 2334.17 77.72 o
4 4 5 1235.88 1344.94 58.94 o
-4 -4 -5 1169.15 1264.54 91.09 o
5 4 5 827.34 672.40 50.90 o
-5 -4 -5 813.67 825.09 85.72 o
6 4 5 2234.46 2406.29 107.18 o
-6 -4 -5 2230.31 2666.21 133.98 o
7 4 5 10899.00 11170.10 201.29 o
-7 -4 -5 10796.80 10582.10 257.64 o
8 4 5 1818.66 1679.89 99.13 o
-8 -4 -5 1779.77 1821.88 142.00 o
9 4 5 2258.32 2020.26 112.53 o
-9 -4 -5 2238.17 2245.32 155.40 o
10 4 5 10863.20 10243.10 211.94 o
-10 -4 -5 10875.00 10422.90 287.07 o
11 4 5 2560.67 2588.31 131.29 o
-11 -4 -5 2479.23 2497.18 182.20 o
-7 5 5 81.86 273.20 93.75 <
7 -5 -5 87.81 179.46 147.32 <
-6 5 5 9171.26 8931.10 206.51 o
6 -5 -5 9032.27 8308.71 289.65 o
-5 5 5 318.80 361.60 85.71 o
5 -5 -5 335.25 316.07 131.25 <
-4 5 5 6320.38 6718.98 166.23 o
4 -5 -5 6221.29 6217.50 241.30 o
-3 5 5 6336.57 6183.17 155.52 o
3 -5 -5 6191.19 6204.46 225.23 o
-2 5 5 8058.17 8159.80 168.99 o
2 -5 -5 8031.93 8436.04 241.41 o
-1 5 5 448.19 522.34 64.29 o
0 5 5 512.56 541.10 61.61 o
0 -5 -5 450.38 404.48 56.25 o
1 5 5 987.84 977.83 56.26 o
-1 -5 -5 975.19 932.28 91.09 o
2 5 5 9674.58 10092.00 136.89 o
-2 -5 -5 9628.62 9377.98 246.93 o
3 5 5 12555.90 12816.30 142.34 o
4 5 5 14.89 168.74 45.53 o
-4 -5 -5 40.26 40.18 58.93 <
5 5 5 212.72 93.75 45.53 <
-5 -5 -5 156.85 53.57 61.61 <
6 5 5 13302.90 13834.90 228.25 o
-6 -5 -5 13392.10 13794.80 284.65 o
7 5 5 3335.84 3462.62 120.60 o
-7 -5 -5 3212.91 3358.03 152.76 o
8 5 5 1757.31 1811.15 104.49 o
-8 -5 -5 1703.39 1811.14 136.64 o
9 5 5 1814.25 1832.57 107.17 o
-9 -5 -5 1950.58 1910.31 147.36 o
10 5 5 659.60 712.53 91.08 o
-10 -5 -5 665.60 699.14 117.86 o
11 5 5 8708.23 8050.83 195.77 o
-11 -5 -5 8545.70 8047.96 262.81 o
12 5 5 163.41 192.85 85.71 <
-12 -5 -5 174.43 190.17 120.53 <
-6 6 5 2969.98 3228.85 227.76 o
6 -6 -5 2834.33 3244.87 230.44 o
-5 6 5 1471.68 1385.04 107.16 o
5 -6 -5 1376.50 1288.58 163.42 o
-4 6 5 5972.58 6176.70 166.21 o
4 -6 -5 5919.39 6031.88 243.96 o
-3 6 5 589.65 562.52 125.90 o
3 -6 -5 717.81 407.17 117.86 o
-2 6 5 3634.90 3875.37 152.76 o
2 -6 -5 3725.26 4012.12 195.65 o
-1 6 5 3360.23 2816.71 109.88 o
1 -6 -5 3192.64 2578.11 166.16 o
0 6 5 171.00 224.99 58.93 o
0 -6 -5 183.65 50.89 56.25 <
1 6 5 17127.70 17795.70 249.93 o
-1 -6 -5 17159.80 17167.00 349.36 o
2 6 5 6233.85 6988.65 217.22 o
3 6 5 17490.80 17393.10 198.90 o
-3 -6 -5 17487.40 16957.70 370.92 o
4 6 5 8318.02 8721.99 163.65 o
-4 -6 -5 8409.54 8724.84 160.98 o
6 6 5 85.39 187.49 48.21 o
-6 -6 -5 111.28 117.85 66.96 <
7 6 5 7755.81 8172.41 179.70 o
-7 -6 -5 7872.21 8078.70 209.21 o
8 6 5 906.27 1058.14 91.08 o
-8 -6 -5 1003.30 1079.58 104.48 o
9 6 5 7966.16 7737.07 182.36 o
-9 -6 -5 7899.80 7407.13 219.91 o
10 6 5 811.43 811.66 93.76 o
-10 -6 -5 786.17 913.45 117.86 o
11 6 5 4503.61 4347.25 155.45 o
-11 -6 -5 4410.66 4357.91 203.69 o
12 6 5 385.40 677.68 123.21 o
-12 -6 -5 349.17 412.50 125.89 o
-5 7 5 379.83 332.14 147.32 <
5 -7 -5 387.39 235.71 152.68 <
-4 7 5 2041.58 1921.00 179.51 o
4 -7 -5 2048.23 1845.98 174.15 o
-3 7 5 9295.42 9524.43 313.82 o
3 -7 -5 9488.72 9463.01 300.41 o
-2 7 5 1292.08 1084.98 141.99 o
2 -7 -5 1279.72 1518.97 150.02 o
-1 7 5 786.98 945.60 128.58 o
1 -7 -5 801.87 913.46 125.90 o
0 7 5 3365.76 3390.16 192.96 o
0 -7 -5 3300.32 3424.96 187.60 o
-1 -7 -5 4750.68 4332.00 187.65 o
2 7 5 2463.45 2604.60 115.22 o
-2 -7 -5 2448.15 2417.02 133.98 o
3 7 5 8306.65 8557.36 169.00 o
-3 -7 -5 8308.07 8197.90 238.75 o
4 7 5 296.34 310.71 61.61 o
-4 -7 -5 302.77 356.25 107.14 o
5 7 5 7539.83 7531.39 155.56 o
-5 -7 -5 7650.82 7791.71 155.57 o
6 7 5 1532.57 1280.63 75.02 o
-6 -7 -5 1350.59 1261.84 83.05 o
7 7 5 2491.92 2408.93 150.05 o
-7 -7 -5 2233.60 2577.62 115.22 o
8 7 5 4258.59 4272.39 182.26 o
-8 -7 -5 4430.81 4301.99 131.34 o
9 7 5 4678.84 3894.60 179.59 o
-9 -7 -5 4617.11 4170.64 136.70 o
10 7 5 6095.67 5884.53 219.83 o
-10 -7 -5 6151.72 5973.05 160.85 o
11 7 5 2282.62 2223.82 160.76 o
-11 -7 -5 2391.49 2183.67 125.93 o
12 7 5 546.86 736.62 125.89 o
-12 -7 -5 612.00 565.20 99.11 o
-3 8 5 477.87 458.04 139.29 o
3 -8 -5 515.38 747.33 150.00 o
-2 8 5 1961.27 1864.72 176.83 o
2 -8 -5 1971.45 2084.42 174.15 o
-1 8 5 2477.10 2679.44 195.60 o
1 -8 -5 2649.90 2650.04 190.24 o
0 8 5 21.23 109.82 107.14 <
0 -8 -5 21.95 219.63 109.82 <
1 8 5 4968.54 5087.80 217.13 o
-1 -8 -5 5132.45 4932.46 136.71 o
2 8 5 2213.71 2298.94 117.89 o
-2 -8 -5 2326.86 2395.45 147.37 o
3 8 5 682.01 720.58 77.68 o
-3 -8 -5 627.33 618.78 107.15 o
4 8 5 1835.44 1993.37 101.81 o
-4 -8 -5 1847.98 1937.11 152.72 o
5 8 5 3703.04 3548.48 123.29 o
-5 -8 -5 3731.79 3856.72 195.65 o
6 8 5 6634.16 6808.13 155.52 o
-6 -8 -5 6663.94 6633.87 252.05 o
7 8 5 1235.94 1363.59 123.23 o
-7 -8 -5 1221.91 1374.30 150.02 o
8 8 5 122.61 200.88 93.75 <
-8 -8 -5 133.38 313.38 125.89 <
9 8 5 651.75 787.53 115.18 o
-9 -8 -5 655.74 755.39 136.61 o
10 8 5 7007.42 7121.29 241.31 o
-10 -8 -5 7050.92 7333.15 276.17 o
11 8 5 296.54 257.14 104.46 <
-11 -8 -5 309.51 645.53 147.32 o
2 -9 -5 4995.99 5114.07 241.23 o
-1 9 5 539.20 289.29 133.93 <
1 -9 -5 565.52 361.62 133.93 <
0 9 5 2535.72 2156.95 179.52 o
0 -9 -5 2450.40 2202.47 166.12 o
1 9 5 741.99 452.70 120.54 o
-1 -9 -5 720.91 610.75 123.22 o
2 9 5 8853.09 8523.90 276.26 o
-2 -9 -5 8697.17 8545.15 179.70 o
3 9 5 4806.55 4631.87 144.75 o
-3 -9 -5 4791.40 4795.37 201.04 o
4 9 5 4386.79 4502.94 142.06 o
-4 -9 -5 4502.62 4819.30 206.39 o
5 9 5 5271.47 5096.01 144.76 o
-5 -9 -5 5230.06 5069.17 219.82 o
6 9 5 1833.66 1580.73 91.09 o
-6 -9 -5 2037.56 1937.13 168.79 o
7 9 5 405.27 471.43 107.14 o
-7 -9 -5 436.70 447.33 139.29 o
8 9 5 1177.68 1117.10 125.91 o
-8 -9 -5 1305.42 1647.56 174.13 o
9 9 5 2745.34 2896.56 176.85 o
-9 -9 -5 2725.00 2714.34 209.00 o
10 9 5 1456.63 1229.65 136.63 o
-10 -9 -5 1374.39 1095.69 158.06 o
11 9 5 33.01 80.35 107.14 <
-11 -9 -5 26.51 -117.85 128.56 <
-1 10 5 1238.17 1017.98 166.09 o
1 -10 -5 1192.89 1604.64 174.13 o
0 10 5 3905.11 3979.68 230.47 o
0 -10 -5 3860.34 3966.26 219.75 o
1 10 5 529.62 514.30 136.61 o
-1 -10 -5 520.34 541.08 128.57 o
2 10 5 7596.94 7336.45 270.83 o
-2 -10 -5 7679.14 7400.89 257.42 o
3 10 5 3374.79 4193.86 211.70 o
-3 -10 -5 3455.42 3553.44 182.23 o
4 10 5 419.25 487.50 83.04 o
-4 -10 -5 384.54 640.18 128.57 o
5 10 5 397.89 444.64 80.36 o
-5 -10 -5 447.53 468.76 136.61 o
6 10 5 7598.20 7854.18 182.34 o
-6 -10 -5 7419.98 7593.86 276.19 o
7 10 5 8891.33 8697.77 270.88 o
-7 -10 -5 9000.82 8590.63 303.07 o
8 10 5 1325.85 1368.94 141.98 o
-8 -10 -5 1288.55 1476.09 171.45 o
9 10 5 279.48 120.53 107.14 <
-9 -10 -5 272.14 141.96 144.64 <
10 10 5 3621.84 3028.18 187.59 o
-10 -10 -5 3636.24 3132.70 225.10 o
1 11 5 9674.83 8816.01 316.49 o
-1 -11 -5 9606.44 8823.97 295.03 o
2 11 5 22.98 179.45 125.89 <
-2 -11 -5 19.67 29.46 120.53 <
3 11 5 761.13 632.18 133.94 o
-3 -11 -5 773.33 742.00 96.43 o
4 11 5 2338.86 2218.48 125.93 o
-4 -11 -5 2392.30 2084.53 176.84 o
5 11 5 7704.31 7601.88 187.70 o
-5 -11 -5 7510.63 7446.14 281.54 o
7 11 5 2496.34 2778.53 190.24 o
-7 -11 -5 2496.43 2398.05 206.31 o
8 11 5 327.17 302.67 117.86 <
-8 -11 -5 394.61 294.64 152.68 <
9 11 5 8760.74 8552.17 284.27 o
-9 -11 -5 8825.14 8632.70 327.18 o
5 12 5 254.05 182.14 85.71 <
-5 -12 -5 309.16 171.43 136.60 <
6 12 5 1670.40 1484.19 112.52 o
-6 -12 -5 1571.47 1674.38 184.85 o
7 12 5 328.06 251.78 123.21 <
-7 -12 -5 361.59 297.32 152.68 <
-7 -11 6 1934.40 1671.79 198.26 o
7 11 -6 1971.74 2119.22 211.65 o
-6 -11 6 865.09 688.44 171.44 o
6 11 -6 824.27 892.02 179.48 o
-5 -11 6 113.52 56.25 136.60 <
5 11 -6 152.24 -101.78 149.99 <
-4 -11 6 3482.16 3716.79 249.21 o
4 11 -6 3593.93 3757.05 246.54 o
-9 -10 6 1577.74 1358.26 112.52 o
9 10 -6 1627.00 1840.50 203.61 o
-8 -10 6 2501.35 2456.99 133.97 o
8 10 -6 2384.67 2676.65 222.38 o
-7 -10 6 72.29 42.86 85.71 <
7 10 -6 116.33 -34.82 144.64 <
-6 -10 6 346.40 567.85 155.36 o
6 10 -6 363.57 436.61 155.36 <
-5 -10 6 28.65 -24.11 136.60 <
5 10 -6 8.53 -101.78 133.92 <
-4 -10 6 2223.21 2017.50 198.27 o
4 10 -6 2207.15 2617.65 206.30 o
-3 -10 6 1516.78 1510.96 184.85 o
3 10 -6 1430.04 1569.88 179.49 o
-2 -10 6 762.55 699.14 150.01 o
2 10 -6 630.79 616.09 150.01 o
-1 -10 6 154.97 222.31 144.64 <
1 10 -6 135.88 294.63 141.96 <
-10 -9 6 223.62 500.88 133.93 o
10 9 -6 236.45 498.20 166.07 o
-9 -9 6 370.66 345.53 91.07 o
9 9 -6 389.13 300.00 160.71 <
-8 -9 6 9953.07 9473.98 270.92 o
8 9 -6 9933.12 9208.40 327.24 o
-7 -9 6 553.60 567.87 93.75 o
7 9 -6 515.81 634.83 155.36 o
-6 -9 6 7271.73 6982.23 179.65 o
6 9 -6 7235.00 7395.12 292.27 o
-5 -9 6 5862.05 5600.18 158.17 o
5 9 -6 5919.51 5766.44 260.04 o
-4 -9 6 8030.86 7371.93 179.67 o
4 9 -6 7919.61 7513.93 286.93 o
-3 -9 6 3938.93 3701.09 142.04 o
3 9 -6 3789.92 3242.73 219.76 o
-2 -9 6 764.01 849.15 147.33 o
2 9 -6 789.64 958.98 96.43 o
-1 -9 6 1466.10 1299.31 174.13 o
1 9 -6 1475.74 1738.67 112.52 o
0 -9 6 235.98 388.38 133.93 <
0 9 -6 239.51 144.64 83.03 <
1 -9 6 929.75 1036.68 166.08 o
-1 9 -6 972.32 988.47 99.12 o
-10 -8 6 1624.33 1398.46 160.74 o
10 8 -6 1474.24 1419.86 179.49 o
-9 -8 6 1322.18 1098.36 144.66 o
9 8 -6 1332.15 1352.86 176.81 o
-8 -8 6 14879.00 14826.00 260.39 o
8 8 -6 14917.80 14855.60 405.35 o
-7 -8 6 234.69 281.24 80.36 o
7 8 -6 273.73 417.85 144.64 <
-6 -8 6 649.38 779.50 91.08 o
6 8 -6 606.99 624.13 139.29 o
-5 -8 6 9366.76 9187.18 195.81 o
5 8 -6 9457.43 8835.92 297.75 o
-4 -8 6 823.84 811.67 91.08 o
4 8 -6 802.28 827.74 141.97 o
-3 -8 6 9807.96 9284.39 195.83 o
3 8 -6 9810.06 9904.07 305.81 o
-2 -8 6 363.27 334.82 77.68 o
2 8 -6 445.74 297.33 123.22 <
-1 -8 6 5580.78 6061.09 257.35 o
1 8 -6 5619.03 5613.44 160.84 o
0 -8 6 21073.80 20409.60 497.08 o
0 8 -6 21202.20 20775.40 317.06 o
1 -8 6 7028.46 6123.81 254.71 o
-1 8 -6 7114.69 6759.33 174.28 o
2 -8 6 2793.93 2708.96 211.68 o
-2 8 -6 2756.36 2759.86 136.65 o
-11 -7 6 4359.51 3642.22 217.09 o
11 7 -6 4399.36 3636.88 249.25 o
-10 -7 6 1299.54 1371.61 158.06 o
10 7 -6 1261.68 1312.66 176.81 o
-9 -7 6 860.34 825.06 136.62 o
9 7 -6 912.81 983.11 160.73 o
-8 -7 6 8506.04 8359.54 185.05 o
8 7 -6 8440.79 7756.03 286.96 o
-7 -7 6 2.65 109.82 75.00 <
7 7 -6 5.07 91.07 117.85 <
-6 -7 6 2980.17 3113.83 125.95 o
6 7 -6 2941.18 2939.63 211.70 o
-5 -7 6 11762.10 11427.00 214.69 o
5 7 -6 11939.90 11607.10 327.41 o
-4 -7 6 316.47 401.78 77.68 o
4 7 -6 324.36 208.93 112.50 <
-3 -7 6 74.55 208.92 75.00 <
3 7 -6 97.25 332.13 109.82 o
-2 -7 6 5571.43 5297.44 150.13 o
2 7 -6 5408.95 5206.15 227.87 o
-1 -7 6 2016.43 1993.39 171.48 o
1 7 -6 1968.53 2245.23 166.12 o
0 -7 6 598.76 806.28 141.97 o
0 7 -6 607.19 883.96 88.40 o
1 -7 6 166.71 112.50 117.85 <
-1 7 -6 153.25 350.88 77.68 o
2 -7 6 577.11 776.81 150.00 o
-2 7 -6 557.59 482.15 80.36 o
3 -7 6 31.00 152.67 125.89 <
-3 7 -6 54.40 139.28 75.00 <
4 -7 6 1223.47 1331.40 174.13 o
-4 7 -6 1195.65 1376.94 152.70 o
-11 -6 6 268.55 147.32 133.93 <
11 6 -6 329.73 171.43 144.64 <
-10 -6 6 3944.14 3674.22 214.40 o
10 6 -6 3954.30 3537.55 238.52 o
-9 -6 6 2378.02 1854.13 163.44 o
9 6 -6 2313.93 2376.58 195.59 o
-8 -6 6 1499.35 1200.21 139.31 o
8 6 -6 1729.26 1805.74 171.46 o
-7 -6 6 1484.08 1406.51 96.45 o
7 6 -6 1478.32 1778.90 166.10 o
-6 -6 6 5143.69 5522.33 147.44 o
6 6 -6 5134.65 5525.00 243.95 o
-5 -6 6 5191.38 5235.66 142.08 o
5 6 -6 5178.95 4972.93 233.23 o
-4 -6 6 1346.35 1210.93 88.41 o
4 6 -6 1275.26 1398.45 136.63 o
-3 -6 6 11337.60 11446.50 203.97 o
3 6 -6 11290.00 10984.80 308.64 o
-2 -6 6 451.53 691.09 83.04 o
2 6 -6 449.03 683.05 117.86 o
-1 -6 6 101.74 281.24 69.64 o
1 6 -6 106.04 372.31 104.46 o
0 -6 6 7586.52 8002.61 270.87 o
0 6 -6 7552.85 7552.02 257.45 o
1 -6 6 2667.27 2505.41 184.89 o
-1 6 -6 2651.89 2735.84 125.94 o
2 -6 6 786.24 578.61 125.90 o
-2 6 -6 741.51 819.69 83.04 o
3 -6 6 9834.45 9951.65 319.20 o
-3 6 -6 9759.11 9712.80 198.49 o
4 -6 6 863.56 1087.57 160.73 o
-4 6 -6 877.41 1052.75 136.62 o
5 -6 6 535.39 666.98 152.68 o
-5 6 -6 539.74 650.91 131.25 o
-11 -5 6 524.59 479.47 144.65 o
11 5 -6 504.86 865.19 158.04 o
-10 -5 6 75.43 241.06 131.24 <
10 5 -6 50.88 8.04 128.57 <
-9 -5 6 9617.30 8661.24 284.33 o
9 5 -6 9551.93 8639.70 297.74 o
-8 -5 6 9101.82 8969.56 273.59 o
8 5 -6 9230.26 9326.50 303.10 o
-7 -5 6 5412.81 5364.33 211.79 o
7 5 -6 5307.40 5203.39 238.59 o
-6 -5 6 80.20 383.02 72.32 o
6 5 -6 73.72 249.10 117.85 <
-5 -5 6 33306.90 33118.30 428.43 o
5 5 -6 33580.20 33133.40 644.02 o
-4 -5 6 497.94 278.58 66.97 o
4 5 -6 455.48 391.08 104.47 o
-3 -5 6 399.65 476.79 72.32 o
3 5 -6 455.64 487.51 109.82 o
-2 -5 6 3561.55 3186.77 112.57 o
2 5 -6 3534.34 3039.34 179.57 o
-1 -5 6 928.12 951.00 80.37 o
1 5 -6 929.77 929.57 112.51 o
0 -5 6 30711.20 29499.00 403.99 o
0 5 -6 31352.30 31005.40 579.11 o
1 -5 6 1915.21 1666.53 155.40 o
-1 5 -6 1900.20 2231.86 115.21 o
2 -5 6 9494.57 9509.95 295.09 o
-2 5 -6 9425.13 9257.67 187.78 o
3 -5 6 9901.88 9748.63 300.45 o
-3 5 -6 9759.15 9305.79 187.78 o
4 -5 6 3106.44 3419.27 211.69 o
-4 5 -6 3080.55 3341.54 184.90 o
5 -5 6 67.62 0.00 120.53 <
-5 5 -6 106.12 192.85 109.82 <
6 -5 6 100.22 147.32 131.24 <
-6 5 -6 71.78 50.89 115.17 <
-11 -4 6 1522.84 1189.47 166.10 o
11 4 -6 1568.05 1567.22 117.88 o
-10 -4 6 559.09 326.79 133.93 <
10 4 -6 616.12 784.85 99.11 o
9 4 -6 4903.52 4881.03 155.46 o
-8 -4 6 458.20 431.26 125.89 o
8 4 -6 442.70 613.40 85.72 o
-7 -4 6 376.79 412.50 115.18 o
7 4 -6 331.56 377.68 125.89 o
-6 -4 6 353.61 482.14 72.32 o
6 4 -6 405.89 511.61 120.54 o
-5 -4 6 1724.02 1993.38 101.81 o
5 4 -6 1725.63 2197.00 182.19 o
-4 -4 6 19339.30 19047.40 276.91 o
4 4 -6 19359.30 19036.70 419.39 o
-3 -4 6 4395.85 4543.86 126.00 o
3 4 -6 4431.43 4503.68 203.74 o
-2 -4 6 26952.00 25818.60 350.07 o
2 4 -6 26488.10 25789.30 511.59 o
-1 -4 6 1806.96 2130.10 104.50 o
1 4 -6 1892.62 2022.96 158.09 o
0 -4 6 24975.70 24407.40 341.80 o
0 4 -6 25084.40 24130.70 476.37 o
1 -4 6 596.78 369.66 72.33 o
-1 4 -6 562.07 404.48 91.08 o
2 -4 6 1365.07 1444.01 139.31 o
-2 4 -6 1416.22 1446.71 85.73 o
3 -4 6 1567.25 1363.67 144.67 o
-3 4 -6 1616.70 1902.19 96.45 o
4 -4 6 1039.60 889.38 133.94 o
-4 4 -6 1076.69 1114.41 83.05 o
5 -4 6 8857.38 9000.84 300.39 o
-5 4 -6 8897.80 8620.04 270.89 o
6 -4 6 1354.53 1366.26 160.74 o
-6 4 -6 1398.38 1502.90 152.70 o
7 -4 6 3591.50 3928.56 230.46 o
-7 4 -6 3632.44 3593.60 214.38 o
-10 -3 6 293.46 281.25 136.60 <
10 3 -6 222.57 283.92 93.75 o
-9 -3 6 9155.87 8330.67 286.99 o
9 3 -6 8946.44 8933.86 195.79 o
-8 -3 6 4949.02 5071.55 225.16 o
8 3 -6 5041.84 5189.57 152.79 o
-7 -3 6 161.20 18.75 104.46 <
7 3 -6 161.54 88.39 75.00 <
-6 -3 6 10942.10 11966.40 300.57 o
6 3 -6 10885.80 11673.80 206.64 o
-5 -3 6 2681.18 2848.60 104.51 o
5 3 -6 2688.51 2655.66 112.55 o
-4 -3 6 849.37 835.81 72.33 o
4 3 -6 890.12 1058.16 123.23 o
-3 -3 6 396.19 388.40 64.29 o
3 3 -6 406.64 417.87 101.79 o
-2 -3 6 35.34 224.99 64.28 o
2 3 -6 42.79 246.42 93.75 <
-1 -3 6 732.71 744.71 72.33 o
1 3 -6 750.76 704.53 101.80 o
0 -3 6 42.61 174.10 64.28 <
0 3 -6 89.36 224.99 83.03 <
1 -3 6 5650.71 5105.40 134.07 o
-1 3 -6 5633.27 5177.78 193.06 o
2 -3 6 162.73 324.10 101.78 o
-2 3 -6 214.26 216.96 58.93 o
3 -3 6 15206.60 14604.70 367.94 o
-3 3 -6 15101.70 15367.10 236.33 o
4 -3 6 793.01 1218.84 144.65 o
-4 3 -6 832.35 1398.33 85.72 o
5 -3 6 12330.80 12983.50 356.93 o
-5 3 -6 12344.80 11985.20 313.99 o
6 -3 6 5607.94 5272.90 241.26 o
-6 3 -6 5598.41 5428.37 225.18 o
7 -3 6 1009.17 1192.07 152.69 o
-7 3 -6 969.59 1133.13 152.69 o
-10 -2 6 1407.07 1283.22 160.74 o
10 2 -6 1346.77 1366.26 117.87 o
-9 -2 6 243.93 166.07 128.57 <
9 2 -6 191.22 281.24 91.07 o
-8 -2 6 833.64 613.44 131.26 o
8 2 -6 795.85 776.84 93.76 o
-7 -2 6 13073.00 12578.40 327.48 o
7 2 -6 13010.70 12734.00 225.48 o
-6 -2 6 630.19 527.71 115.18 o
6 2 -6 604.09 672.35 83.04 o
-5 -2 6 627.24 758.08 109.83 o
5 2 -6 702.36 642.91 77.68 o
-4 -2 6 27654.50 26897.30 492.86 o
4 2 -6 27401.00 25956.00 339.33 o
-3 -2 6 1517.16 1505.75 85.74 o
3 2 -6 1474.26 1628.98 83.06 o
-2 -2 6 682.81 541.12 64.29 o
2 2 -6 671.40 511.65 99.12 o
-1 -2 6 28984.40 27750.80 361.17 o
1 2 -6 28655.00 26862.20 520.16 o
0 -2 6 1323.72 1261.89 80.38 o
0 2 -6 1336.64 1425.33 112.53 o
1 -2 6 31.85 13.39 56.25 <
-1 2 -6 29.70 101.78 75.00 <
2 -2 6 23936.70 22172.80 314.87 o
-2 2 -6 23988.60 22299.50 427.91 o
3 -2 6 2675.89 2194.73 150.07 o
-3 2 -6 2618.99 2535.03 104.51 o
4 -2 6 1121.68 1159.98 133.95 o
-4 2 -6 1134.04 1492.18 83.05 o
5 -2 6 2619.26 2274.96 166.13 o
-5 2 -6 2607.25 2966.29 166.13 o
6 -2 6 609.61 602.70 136.61 o
-6 2 -6 638.46 715.21 123.22 o
7 -2 6 1784.36 2250.47 184.86 o
-7 2 -6 1772.58 2140.62 168.79 o
8 -2 6 769.77 1060.77 158.04 o
-8 2 -6 783.55 800.94 144.65 o
-10 -1 6 2210.57 1996.05 184.87 o
10 1 -6 2260.79 1993.38 128.60 o
9 1 -6 13031.10 12754.90 244.20 o
-8 -1 6 135.96 404.45 128.57 o
8 1 -6 203.67 696.41 96.43 o
-7 -1 6 2948.93 2409.06 176.86 o
7 1 -6 2862.70 2848.49 131.30 o
-6 -1 6 8140.54 7950.10 252.13 o
6 1 -6 8157.54 8076.19 177.03 o
5 1 -6 1213.55 1492.21 136.63 o
-4 -1 6 6744.68 6911.52 214.56 o
4 1 -6 6613.81 7147.35 241.37 o
-3 -1 6 173.70 216.96 56.25 o
3 1 -6 203.94 316.07 61.61 o
-2 -1 6 24886.90 24336.10 312.38 o
2 1 -6 24691.60 22848.70 304.29 o
-1 -1 6 15204.40 15735.20 231.12 o
1 1 -6 15352.30 14988.60 215.01 o
0 -1 6 7620.84 8384.23 220.00 o
0 1 -6 7842.94 8288.06 236.11 o
1 -1 6 35305.20 34922.20 437.24 o
-1 1 -6 35262.60 33926.00 612.66 o
2 -1 6 204.32 243.75 61.61 o
-2 1 -6 209.83 342.85 77.68 o
3 -1 6 810.97 1071.54 120.55 o
-3 1 -6 859.22 1130.48 72.33 o
4 -1 6 2581.76 2786.89 174.18 o
-4 1 -6 2506.99 2725.22 107.19 o
5 -1 6 165.56 203.57 101.78 <
-5 1 -6 162.46 332.13 99.10 o
6 -1 6 2373.93 2122.13 171.49 o
-6 1 -6 2382.21 2106.05 166.13 o
7 -1 6 7386.84 6998.61 265.46 o
-7 1 -6 7438.34 7022.80 246.70 o
8 -1 6 1090.47 948.31 144.66 o
-8 1 -6 1124.23 889.38 139.30 o
9 -1 6 207.07 567.84 141.96 o
-9 1 -6 203.19 310.70 131.25 <
-9 0 6 235.50 -8.04 125.89 <
9 0 -6 217.55 174.10 96.43 <
-8 0 6 9650.89 9519.54 303.10 o
8 0 -6 9787.99 9790.65 211.91 o
-7 0 6 46.17 230.35 117.85 <
7 0 -6 59.58 125.89 117.85 <
-6 0 6 5300.48 5372.37 211.79 o
6 0 -6 5282.68 5050.66 201.06 o
-5 0 6 28203.50 27128.50 514.20 o
5 0 -6 28263.10 26229.60 481.89 o
-4 0 6 17686.30 17224.80 362.83 o
4 0 -6 17762.00 17241.20 335.95 o
-3 0 6 760.71 857.23 64.29 o
3 0 -6 771.89 800.97 72.33 o
-2 0 6 227.34 225.00 56.25 o
2 0 -6 257.75 179.46 58.93 o
-1 0 6 17483.80 17458.70 344.17 o
1 0 -6 17603.70 17112.30 236.62 o
0 0 6 37251.90 36515.90 445.65 o
0 0 -6 37053.60 35142.30 424.02 o
1 0 6 4185.65 3613.87 112.60 o
-1 0 -6 4373.26 4471.95 174.27 o
2 0 6 1954.55 2001.62 75.03 o
-2 0 -6 1969.88 1905.16 131.30 o
3 0 6 126.42 32.14 48.21 <
-3 0 -6 183.26 190.18 64.28 <
4 0 6 28284.10 28737.50 366.25 o
-4 0 -6 28413.00 27962.60 360.88 o
5 0 6 25808.80 27008.60 357.89 o
-5 0 -6 25898.90 26137.20 505.90 o
6 0 6 10884.50 10902.40 195.88 o
-6 0 -6 10779.90 10405.80 287.11 o
7 0 6 1974.66 1907.63 163.43 o
-7 0 -6 1987.13 2226.47 163.43 o
8 0 6 19736.50 19441.20 472.80 o
-8 0 -6 19810.60 19865.90 440.57 o
9 0 6 85.93 219.63 131.24 <
-9 0 -6 56.56 211.60 123.21 <
-9 1 6 15.55 -168.74 125.89 <
9 -1 -6 13.37 -243.74 136.60 <
-8 1 6 478.03 415.18 96.43 o
8 -1 -6 501.41 388.40 141.97 <
-7 1 6 8612.26 7965.48 193.10 o
7 -1 -6 8618.73 8418.74 268.20 o
-6 1 6 1322.14 1277.88 101.80 o
6 -1 -6 1309.77 1366.28 139.31 o
-5 1 6 222.13 476.78 80.36 o
5 -1 -6 224.14 455.35 107.14 o
-4 1 6 3515.03 3569.99 125.97 o
4 -1 -6 3453.94 3119.69 160.81 o
-3 1 6 68.90 149.99 64.28 <
3 -1 -6 71.27 128.57 83.03 <
-2 1 6 2036.76 2079.34 80.39 o
2 -1 -6 2087.82 2202.62 117.90 o
-1 1 6 24784.10 24193.20 263.91 o
1 -1 -6 24704.80 24074.30 406.62 o
0 1 6 9242.01 9125.39 163.72 o
1 1 6 4001.19 4190.10 91.15 o
-1 -1 -6 3995.69 3970.27 168.89 o
2 1 6 35177.90 35755.80 353.56 o
-2 -1 -6 35189.90 34649.40 620.76 o
3 1 6 155.68 388.38 48.21 o
-3 -1 -6 166.38 385.70 72.32 o
4 1 6 9568.87 9419.07 171.74 o
-4 -1 -6 9543.68 8868.91 161.01 o
5 1 6 646.21 329.48 64.29 o
-5 -1 -6 672.02 356.27 93.76 o
6 1 6 1300.04 1044.82 80.37 o
-6 -1 -6 1321.43 1288.61 125.91 o
7 1 6 2232.91 2199.78 107.18 o
-7 -1 -6 2163.75 2446.26 168.80 o
8 1 6 951.89 977.77 91.08 o
-8 -1 -6 981.88 1197.43 139.30 o
9 1 6 9707.91 9516.57 203.85 o
-9 -1 -6 9741.07 9283.26 295.05 o
10 1 6 1075.71 1205.47 166.09 o
-10 -1 -6 1090.47 1009.92 155.37 o
-8 2 6 1832.50 1602.11 120.56 o
8 -2 -6 1739.56 1741.41 182.18 o
-7 2 6 1307.35 1213.56 109.84 o
7 -2 -6 1295.28 1401.08 160.74 o
-6 2 6 2621.33 2668.80 133.98 o
6 -2 -6 2760.30 2561.68 190.25 o
-5 2 6 2810.57 2835.09 128.62 o
5 -2 -6 2710.80 2701.07 176.86 o
-4 2 6 775.33 739.34 83.04 o
4 -2 -6 756.60 1050.08 117.87 o
-3 2 6 2925.73 2752.26 117.92 o
3 -2 -6 2826.75 2693.25 150.07 o
-2 2 6 21720.80 21171.10 301.29 o
2 -2 -6 21493.30 21051.80 387.36 o
-1 2 6 684.96 699.17 56.25 o
1 -2 -6 731.72 675.07 83.04 o
0 2 6 437.19 466.09 50.89 o
0 -2 -6 436.58 353.58 72.32 o
1 2 6 30950.60 31185.40 275.05 o
2 2 6 1438.08 1508.42 66.98 o
3 2 6 1451.67 1580.75 69.66 o
-3 -2 -6 1549.58 1487.00 104.49 o
4 2 6 21119.90 20885.80 287.80 o
-4 -2 -6 20968.60 19865.80 274.35 o
5 2 6 1036.65 1192.13 83.05 o
-5 -2 -6 1063.28 1272.50 117.87 o
6 2 6 2141.11 2266.80 107.18 o
-6 -2 -6 2205.96 2288.26 152.73 o
7 2 6 13126.30 13246.90 230.85 o
-7 -2 -6 13121.70 13190.50 322.11 o
8 2 6 469.10 634.83 83.04 o
-8 -2 -6 462.32 701.80 120.54 o
9 2 6 225.73 152.68 77.68 <
-9 -2 -6 166.72 337.49 120.53 <
10 2 6 3194.80 2963.69 139.34 o
-10 -2 -6 3130.92 3183.39 200.97 o
-7 3 6 1112.42 1023.32 109.83 o
7 -3 -6 1068.37 980.45 158.05 o
-6 3 6 648.32 747.35 96.43 o
6 -3 -6 661.01 803.60 141.97 o
-5 3 6 8931.53 8824.54 195.80 o
5 -3 -6 8981.01 8374.00 265.54 o
-4 3 6 81.57 93.75 75.00 <
4 -3 -6 71.31 155.35 107.14 <
-3 3 6 14407.60 14841.90 244.37 o
3 -3 -6 14239.40 14315.10 322.23 o
-2 3 6 525.12 519.66 72.32 o
2 -3 -6 565.34 597.35 99.11 o
-1 3 6 12011.40 11644.10 198.68 o
1 -3 -6 11988.90 11270.90 255.06 o
0 3 6 826.55 934.93 58.94 o
0 -3 -6 788.83 865.27 91.08 o
1 3 6 2371.00 2486.81 72.35 o
2 3 6 652.37 731.31 48.22 o
3 3 6 317.61 482.15 45.54 o
4 3 6 403.26 385.72 64.29 o
-4 -3 -6 413.12 423.22 56.25 o
5 3 6 2273.24 2285.67 99.14 o
-5 -3 -6 2289.23 2028.44 147.38 o
6 3 6 17968.10 17922.40 271.39 o
-6 -3 -6 17787.70 17749.90 368.11 o
7 3 6 3212.61 3215.84 125.95 o
-7 -3 -6 3150.62 3197.04 168.83 o
8 3 6 5495.81 5436.57 147.44 o
-8 -3 -6 5487.13 5404.39 211.78 o
9 3 6 11381.60 11118.40 220.01 o
-9 -3 -6 11453.50 10850.20 303.18 o
10 3 6 876.45 1307.23 107.15 o
-10 -3 -6 918.46 1277.77 150.01 o
-7 4 6 3214.12 3044.07 152.74 o
7 -4 -6 3250.80 3097.68 222.41 o
-6 4 6 3711.42 3601.75 152.75 o
6 -4 -6 3714.89 3615.15 222.43 o
-5 4 6 9304.54 9076.62 206.53 o
5 -4 -6 9393.93 8937.27 284.32 o
-4 4 6 1293.93 1208.22 99.12 o
4 -4 -6 1347.57 1079.63 136.63 o
-3 4 6 344.47 602.68 80.36 o
-2 4 6 415.68 522.33 77.68 o
2 -4 -6 389.94 455.36 101.79 o
-1 4 6 3245.85 3221.41 117.92 o
1 -4 -6 3219.98 3191.92 160.80 o
0 4 6 16852.20 17144.30 252.60 o
0 -4 -6 16920.90 16719.90 239.16 o
1 4 6 91.70 80.35 42.86 <
2 4 6 19089.30 18578.80 188.21 o
3 4 6 12153.40 11655.10 136.93 o
4 4 6 22410.40 23400.80 260.94 o
-4 -4 -6 22862.60 23045.10 427.76 o
5 4 6 3791.60 4376.95 131.34 o
-5 -4 -6 3816.80 3907.91 160.82 o
6 4 6 986.20 983.15 80.37 o
-6 -4 -6 936.53 1015.29 107.15 o
7 4 6 700.23 683.08 80.36 o
-7 -4 -6 747.67 873.27 109.83 o
8 4 6 560.05 583.95 80.36 o
-8 -4 -6 594.21 634.84 112.50 o
9 4 6 2575.88 2644.63 120.58 o
-9 -4 -6 2624.69 2792.02 176.85 o
10 4 6 1221.49 1181.39 99.12 o
-10 -4 -6 1242.29 1084.95 141.98 o
11 4 6 1259.55 1197.47 107.16 o
-11 -4 -6 1256.57 1307.30 158.05 o
-6 5 6 106.92 492.84 101.78 o
6 -5 -6 136.26 251.78 152.67 <
-5 5 6 132.20 141.96 91.07 <
5 -5 -6 109.95 182.13 139.28 <
-4 5 6 2046.59 2030.87 117.89 o
4 -5 -6 1995.91 2065.69 166.11 o
-3 5 6 4560.98 4674.56 150.10 o
3 -5 -6 4569.61 4913.12 217.11 o
-2 5 6 12908.60 13214.30 230.84 o
2 -5 -6 12904.40 12894.90 316.74 o
-1 5 6 4696.42 4803.67 136.71 o
1 -5 -6 4761.86 4699.18 195.69 o
0 5 6 24164.00 24744.40 435.81 o
0 -5 -6 24624.80 24286.40 320.16 o
1 5 6 3607.00 3615.62 120.61 o
-1 -5 -6 3585.11 3910.43 163.49 o
2 5 6 2760.99 2730.74 88.43 o
3 5 6 918.47 1098.34 56.26 o
4 5 6 2178.04 2215.95 112.54 o
-4 -5 -6 2121.17 1787.21 123.26 o
5 5 6 24546.50 25125.20 282.49 o
-5 -5 -6 24651.80 25147.20 454.68 o
6 5 6 782.87 803.63 85.72 o
-6 -5 -6 810.37 787.57 99.12 o
7 5 6 1257.26 1119.81 93.76 o
-7 -5 -6 1266.91 1342.17 117.88 o
8 5 6 14595.10 14046.00 249.67 o
-8 -5 -6 14866.10 14089.60 324.86 o
9 5 6 10004.10 9858.15 211.92 o
-9 -5 -6 9922.35 10284.50 281.66 o
10 5 6 306.51 278.57 85.71 o
-10 -5 -6 267.05 235.71 112.50 <
11 5 6 482.44 557.15 91.07 o
-11 -5 -6 466.11 297.32 125.89 <
-5 6 6 1369.31 892.09 166.09 o
5 -6 -6 1292.13 1470.72 176.81 o
-4 6 6 1003.37 1106.35 168.76 o
4 -6 -6 1018.36 1248.33 163.41 o
-3 6 6 10253.30 9973.83 209.24 o
3 -6 -6 10088.20 10773.00 308.49 o
-2 6 6 834.21 736.66 85.72 o
2 -6 -6 752.88 624.15 125.90 o
-1 6 6 1806.26 1553.94 93.77 o
1 -6 -6 1728.03 1604.83 142.00 o
0 6 6 8560.06 9023.32 177.03 o
0 -6 -6 8588.33 8999.22 257.50 o
1 6 6 1081.75 1039.42 80.37 o
-1 -6 -6 1092.21 961.73 77.69 o
2 6 6 718.95 707.19 58.93 o
-2 -6 -6 726.78 680.41 99.11 o
3 6 6 17312.00 16996.30 204.19 o
-3 -6 -6 17255.60 16485.70 376.14 o
4 6 6 1304.77 1095.73 80.37 o
-4 -6 -6 1204.18 1243.05 83.05 o
5 6 6 1872.87 2041.62 91.10 o
-5 -6 -6 1910.97 1838.01 120.57 o
6 6 6 11353.50 11453.50 217.37 o
-6 -6 -6 11232.80 11032.00 254.93 o
7 6 6 1780.56 1792.38 109.85 o
-7 -6 -6 1785.25 1835.25 133.96 o
8 6 6 1026.18 969.74 96.44 o
-8 -6 -6 991.96 867.94 109.83 o
9 6 6 3620.97 3154.22 131.31 o
-9 -6 -6 3628.64 3041.67 168.83 o
10 6 6 2620.04 2309.68 125.93 o
-10 -6 -6 2615.97 2440.97 171.48 o
11 6 6 466.65 567.86 93.75 o
-11 -6 -6 425.84 578.57 125.89 o
-4 7 6 836.12 613.43 160.72 o
4 -7 -6 887.43 900.06 163.40 o
-3 7 6 481.46 131.25 136.61 <
3 -7 -6 365.22 267.86 139.29 <
-2 7 6 31.10 163.38 131.24 <
2 -7 -6 26.90 -18.75 120.53 <
-1 7 6 1413.33 1441.30 160.74 o
1 -7 -6 1512.90 1462.76 150.03 o
0 7 6 435.95 393.75 123.22 o
0 -7 -6 432.07 364.29 117.86 o
1 7 6 1852.11 1942.44 160.75 o
-1 -7 -6 1828.86 1915.64 144.68 o
2 7 6 1125.43 1237.66 93.76 o
-2 -7 -6 1077.69 1058.16 109.83 o
3 7 6 27.26 195.52 69.64 <
-3 -7 -6 52.03 313.38 99.10 o
4 7 6 2105.65 1937.18 107.18 o
-4 -7 -6 2049.20 2266.72 174.16 o
5 7 6 14673.50 14681.50 238.96 o
-5 -7 -6 14468.90 14648.80 373.20 o
6 7 6 2071.48 1896.96 139.32 o
-6 -7 -6 2060.26 2014.85 174.16 o
7 7 6 922.75 827.75 115.19 o
-7 -7 -6 904.29 977.76 85.72 o
8 7 6 10087.50 9947.03 276.31 o
-8 -7 -6 9996.02 9965.67 203.87 o
9 7 6 1483.12 1210.91 128.59 o
-9 -7 -6 1424.04 1567.21 128.59 o
10 7 6 941.66 795.60 120.54 o
-10 -7 -6 902.38 1151.87 128.58 o
11 7 6 5908.72 5739.29 227.86 o
-11 -7 -6 5897.07 5615.97 176.92 o
-2 8 6 1197.65 1095.66 171.45 o
2 -8 -6 1168.11 1261.75 160.73 o
-1 8 6 11849.10 11985.40 362.22 o
1 -8 -6 11797.80 12140.90 332.70 o
0 8 6 12054.20 12289.50 356.88 o
0 -8 -6 12044.60 12222.40 330.05 o
1 8 6 8762.41 9057.28 292.34 o
-1 -8 -6 8676.62 8837.23 273.57 o
2 8 6 1529.73 1403.83 141.99 o
-2 -8 -6 1541.66 1519.03 131.27 o
3 8 6 11738.60 12223.00 228.09 o
-3 -8 -6 11751.70 11860.80 311.28 o
4 8 6 1589.94 1390.45 136.63 o
-4 -8 -6 1595.05 1419.92 147.35 o
5 8 6 3565.46 4009.19 139.36 o
-5 -8 -6 3562.38 4019.91 206.35 o
6 8 6 594.00 613.41 112.50 o
-6 -8 -6 619.15 728.60 144.65 o
7 8 6 1722.05 1602.12 139.32 o
-7 -8 -6 1849.29 1669.13 176.83 o
8 8 6 16219.50 15997.10 370.53 o
-8 -8 -6 16367.10 16112.90 432.29 o
9 8 6 790.91 929.52 128.58 o
-9 -8 -6 780.47 886.66 163.40 o
10 8 6 1268.69 1004.59 131.27 o
-10 -8 -6 1258.17 1240.33 166.09 o
-1 9 6 2803.73 2789.34 225.08 o
1 -9 -6 2813.10 2719.68 206.32 o
0 9 6 132.32 13.39 128.57 <
0 -9 -6 109.56 83.03 128.57 <
1 9 6 410.48 500.89 133.93 o
-1 -9 -6 397.78 527.68 133.93 o
2 9 6 1103.10 991.18 141.98 o
-2 -9 -6 1074.06 1189.41 144.66 o
3 9 6 1478.32 1055.53 136.63 o
-3 -9 -6 1379.25 1411.82 139.31 o
4 9 6 9296.07 9352.88 201.17 o
-4 -9 -6 9241.11 8899.52 276.27 o
5 9 6 1996.88 1752.22 104.49 o
-5 -9 -6 2070.94 1701.33 166.11 o
6 9 6 10460.90 10357.80 209.25 o
-6 -9 -6 10293.50 10094.60 321.91 o
7 9 6 59.67 -32.14 101.78 <
-7 -9 -6 36.51 18.75 133.92 <
8 9 6 10802.80 10846.10 305.83 o
-8 -9 -6 10760.10 11015.00 351.43 o
9 9 6 47.59 69.64 104.46 <
-9 -9 -6 26.12 149.99 139.28 <
10 9 6 68.42 99.10 107.14 <
-10 -9 -6 57.52 72.32 139.28 <
1 10 6 125.52 -168.74 125.89 <
-1 -10 -6 113.97 -83.03 128.57 <
2 10 6 953.74 608.08 141.98 o
-2 -10 -6 994.13 929.54 144.65 o
3 10 6 1285.34 1127.82 152.70 o
4 10 6 3668.74 3122.03 144.71 o
-4 -10 -6 3727.54 3655.35 192.95 o
5 10 6 324.29 289.28 83.03 o
-5 -10 -6 296.10 364.28 136.60 <
6 10 6 1074.01 1050.10 96.44 o
-6 -10 -6 1111.31 1034.04 166.09 o
7 10 6 506.17 498.22 125.89 o
-7 -10 -6 481.99 683.04 150.00 o
8 10 6 2547.47 2159.59 171.48 o
-8 -10 -6 2412.01 2352.47 211.67 o
9 10 6 2615.90 2146.21 171.48 o
-9 -10 -6 2683.46 2403.46 209.00 o
4 11 6 4471.14 4207.78 233.17 o
-4 -11 -6 4446.17 4022.84 217.09 o
5 11 6 566.09 776.80 101.79 o
-5 -11 -6 534.85 854.48 158.04 o
6 11 6 941.85 1090.26 104.47 o
-6 -11 -6 893.11 1111.68 168.76 o
7 11 6 760.29 519.67 131.26 o
-7 -11 -6 820.51 645.57 163.40 o
-8 -9 7 1402.49 1256.43 115.19 o
8 9 -7 1352.33 1336.79 195.56 o
-7 -9 7 373.61 425.89 93.75 o
7 9 -7 337.92 246.43 160.71 <
-6 -9 7 161.72 128.57 91.07 <
6 9 -7 180.64 61.61 152.67 <
-5 -9 7 1014.40 1023.30 107.15 o
5 9 -7 938.53 835.78 171.44 o
-4 -9 7 2456.35 2138.14 131.29 o
4 9 -7 2381.24 2564.13 211.67 o
-3 -9 7 3299.08 3113.80 147.38 o
3 9 -7 3284.73 3062.88 230.45 o
-2 -9 7 2602.24 2290.90 206.32 o
2 9 -7 2636.55 2816.08 144.69 o
-1 -9 7 554.49 444.65 144.65 o
1 9 -7 543.62 482.15 96.43 o
-9 -8 7 606.18 450.01 136.61 o
9 8 -7 562.81 466.08 168.75 <
-8 -8 7 460.82 458.04 125.89 o
8 8 -7 438.14 495.54 166.07 <
-7 -8 7 1121.37 1398.36 109.83 o
7 8 -7 1136.89 1435.87 192.88 o
-6 -8 7 2444.03 2679.38 182.20 o
6 8 -7 2521.29 2280.18 198.28 o
-5 -8 7 1863.22 1628.93 115.20 o
5 8 -7 1880.76 1572.67 176.82 o
-4 -8 7 400.03 428.57 88.39 o
4 8 -7 376.15 522.32 150.00 o
-3 -8 7 306.93 452.67 93.75 o
3 8 -7 335.54 109.82 131.25 <
-2 -8 7 5363.55 5578.20 168.87 o
2 8 -7 5425.84 5229.78 257.33 o
-1 -8 7 3064.23 3033.32 217.05 o
1 8 -7 3095.23 3167.32 144.70 o
0 -8 7 357.91 190.18 139.29 <
0 8 -7 340.06 286.60 88.39 o
1 -8 7 3054.94 2639.38 206.33 o
-1 8 -7 2961.19 2851.03 142.02 o
-9 -7 7 297.63 495.53 141.96 o
9 7 -7 292.13 490.17 166.07 <
-8 -7 7 3616.48 3491.82 206.35 o
8 7 -7 3590.07 3655.27 246.54 o
-7 -7 7 8.28 171.42 83.03 <
7 7 -7 19.59 334.80 144.63 <
-6 -7 7 2310.75 2376.59 128.61 o
6 7 -7 2448.16 2205.15 195.60 o
-5 -7 7 3998.04 4049.57 144.72 o
5 7 -7 4058.70 4290.82 235.85 o
-4 -7 7 3087.62 2944.98 133.99 o
4 7 -7 3145.20 3089.72 217.06 o
-3 -7 7 5200.31 5291.45 211.76 o
-2 -7 7 4601.94 4414.47 152.78 o
2 7 -7 4572.09 4484.14 235.87 o
0 -7 7 513.49 693.76 147.32 o
0 7 -7 553.73 709.84 91.07 o
1 -7 7 878.86 969.71 152.69 o
-1 7 -7 902.05 1009.90 99.11 o
2 -7 7 402.59 214.29 139.29 <
-2 7 -7 319.21 289.28 83.03 o
-9 -6 7 1635.07 1773.53 179.50 o
9 6 -7 1697.97 2017.34 195.57 o
-8 -6 7 3138.30 3218.27 203.65 o
8 6 -7 3179.36 3210.25 233.13 o
-6 -6 7 357.88 377.68 83.04 o
6 6 -7 315.70 297.32 139.28 <
-5 -6 7 1047.74 1050.11 93.76 o
5 6 -7 1137.51 739.38 139.30 o
-4 -6 7 1131.13 1047.45 96.44 o
4 6 -7 1106.14 865.28 136.62 o
-3 -6 7 9985.59 9263.46 195.84 o
3 6 -7 10060.60 9813.54 300.47 o
-2 -6 7 87.13 278.56 80.35 o
2 6 -7 91.56 158.03 115.17 <
-1 -6 7 9692.17 9294.96 201.19 o
1 6 -7 9666.25 9785.82 297.76 o
0 -6 7 291.51 503.57 136.60 o
0 6 -7 295.43 329.46 120.53 <
1 -6 7 4465.66 3505.74 203.70 o
-1 6 -7 4634.49 3830.14 144.74 o
2 -6 7 1144.54 910.82 158.05 o
-2 6 -7 1250.16 1001.91 91.08 o
3 -6 7 962.91 988.47 152.69 o
-3 6 -7 951.63 1170.63 147.33 o
-10 -5 7 102.63 -163.39 128.57 <
10 5 -7 127.49 88.39 147.32 <
-9 -5 7 1397.15 1336.80 168.77 o
9 5 -7 1406.21 1462.71 182.17 o
-8 -5 7 669.55 500.91 136.61 o
8 5 -7 663.21 691.10 152.68 o
-7 -5 7 2168.22 2304.21 176.83 o
7 5 -7 2148.46 2261.33 190.23 o
-6 -5 7 5688.43 6034.55 230.55 o
6 5 -7 5510.86 6149.66 262.71 o
-5 -5 7 163.46 176.78 75.00 <
5 5 -7 150.24 45.53 120.53 <
-4 -5 7 1308.18 1505.60 101.80 o
4 5 -7 1301.50 1449.34 158.06 o
-3 -5 7 6257.28 6531.47 163.55 o
3 5 -7 6230.32 6566.30 252.03 o
-2 -5 7 2874.27 2663.63 123.27 o
2 5 -7 2853.17 2773.49 198.30 o
-1 -5 7 858.60 814.35 88.40 o
1 5 -7 856.46 921.51 125.90 o
0 -5 7 686.44 417.88 83.04 o
0 5 -7 659.49 340.20 115.18 <
1 -5 7 913.93 766.14 141.98 o
-1 5 -7 945.99 865.26 88.40 o
2 -5 7 5610.78 5715.31 251.99 o
-2 5 -7 5664.01 5519.66 158.16 o
3 -5 7 1708.17 1655.68 176.82 o
-3 5 -7 1667.90 1527.08 101.81 o
4 -5 7 2573.26 2920.56 211.67 o
-4 5 -7 2509.87 2523.98 190.24 o
5 -5 7 1964.34 2070.99 200.94 o
-5 5 -7 1944.75 2288.00 184.86 o
-10 -4 7 5779.17 5192.34 251.98 o
10 4 -7 6022.37 5516.88 262.71 o
-9 -4 7 4.15 203.56 133.92 <
9 4 -7 3.35 195.52 144.63 <
-8 -4 7 34.20 147.31 123.21 <
8 4 -7 28.93 56.25 139.28 <
-7 -4 7 11532.80 11175.60 316.62 o
7 4 -7 11400.20 10499.20 327.34 o
-6 -4 7 446.19 452.68 117.86 o
6 4 -7 431.31 482.15 133.93 o
-5 -4 7 1896.90 1942.46 104.49 o
5 4 -7 1821.93 2408.62 179.51 o
-4 -4 7 489.17 508.94 77.68 o
4 4 -7 571.38 691.10 128.58 o
-3 -4 7 134.61 152.67 72.32 <
3 4 -7 156.34 208.92 112.50 <
-2 -4 7 5735.29 5992.26 152.82 o
2 4 -7 5811.34 6129.08 238.62 o
-1 -4 7 1295.82 1540.44 101.80 o
1 4 -7 1202.16 1486.83 139.31 o
0 -4 7 334.29 246.43 77.68 o
0 4 -7 370.52 152.68 99.11 <
1 -4 7 853.52 806.32 91.08 o
-1 4 -7 846.21 964.36 120.55 o
2 -4 7 4906.36 4481.84 227.85 o
-2 4 -7 4805.12 4838.27 144.75 o
3 -4 7 2819.43 2717.10 198.29 o
-3 4 -7 2812.36 2770.69 125.94 o
4 -4 7 623.67 618.77 141.97 o
-4 4 -7 608.57 916.10 133.93 o
5 -4 7 2430.19 2017.56 184.88 o
-5 4 -7 2356.39 2239.92 176.84 o
-9 -3 7 8.10 45.53 128.56 <
9 3 -7 15.38 88.39 139.28 <
-8 -3 7 1057.06 950.99 152.69 o
8 3 -7 1073.42 1293.88 168.77 o
-7 -3 7 821.69 1007.21 141.97 o
7 3 -7 843.63 873.28 147.33 o
-6 -3 7 8897.07 8089.72 262.86 o
6 3 -7 9015.69 8540.51 287.01 o
-5 -3 7 3649.72 3631.48 184.92 o
5 3 -7 3731.58 3701.21 211.73 o
-4 -3 7 659.51 683.07 77.68 o
4 3 -7 594.83 715.21 128.58 o
-3 -3 7 604.83 605.39 77.68 o
3 3 -7 637.96 699.15 125.90 o
-2 -3 7 11644.60 11970.90 212.04 o
2 3 -7 11753.80 11386.00 311.36 o
-1 -3 7 17162.10 16778.50 265.98 o
1 3 -7 16935.80 16608.60 381.50 o
0 -3 7 209.70 200.89 75.00 <
0 3 -7 189.97 308.03 101.78 o
1 -3 7 394.99 514.29 77.68 o
-1 3 -7 419.98 479.47 104.47 o
2 -3 7 7875.03 8311.38 276.24 o
-2 3 -7 7898.36 7522.91 171.65 o
3 -3 7 9716.98 9692.28 305.82 o
-3 3 -7 9669.24 9434.68 190.46 o
4 -3 7 3516.08 2545.88 184.91 o
-4 3 -7 3595.37 3315.04 187.59 o
5 -3 7 529.64 498.23 131.25 o
-5 3 -7 577.29 530.37 125.90 o
6 -3 7 3662.15 3706.21 227.79 o
-6 3 -7 3641.83 3724.95 209.03 o
-9 -2 7 147.01 136.60 139.28 <
9 2 -7 87.60 224.99 96.42 <
-8 -2 7 5104.57 4854.28 233.20 o
8 2 -7 5176.52 5344.86 166.19 o
-7 -2 7 3423.85 3915.23 206.35 o
7 2 -7 3461.93 3524.00 144.71 o
-6 -2 7 894.89 790.25 131.26 o
6 2 -7 802.84 458.07 131.26 o
-5 -2 7 2673.75 2502.77 166.14 o
5 2 -7 2673.28 2585.83 200.97 o
-4 -2 7 7630.57 7844.84 244.06 o
4 2 -7 7772.44 7713.61 268.21 o
-3 -2 7 16715.60 16570.40 252.53 o
3 2 -7 16751.60 16167.50 392.23 o
-2 -2 7 200.85 294.64 69.64 o
2 2 -7 164.43 549.09 112.50 o
-1 -2 7 336.51 468.75 75.00 o
1 2 -7 354.91 340.18 101.79 o
0 -2 7 879.24 691.14 80.37 o
0 2 -7 844.66 602.74 107.15 o
1 -2 7 10570.70 10522.10 201.26 o
-1 2 -7 10678.10 10785.30 279.09 o
2 -2 7 2311.05 2443.70 112.54 o
-2 2 -7 2385.74 2532.16 166.13 o
3 -2 7 4389.36 4460.17 217.11 o
-3 2 -7 4347.04 4017.88 134.02 o
4 -2 7 153.35 385.70 117.85 o
-4 2 -7 165.48 286.60 107.14 <
5 -2 7 5112.42 4889.27 238.57 o
-5 2 -7 5162.61 4993.85 211.76 o
6 -2 7 3069.83 3019.94 195.61 o
-6 2 -7 3078.76 3360.26 198.29 o
7 -2 7 4359.91 4414.11 230.49 o
-7 2 -7 4313.83 3886.10 214.41 o
-9 -1 7 203.56 -32.14 136.60 <
9 1 -7 168.83 128.57 99.10 <
-8 -1 7 183.94 144.64 133.92 <
8 1 -7 190.04 340.17 96.43 o
-7 -1 7 270.49 267.85 125.89 <
7 1 -7 326.02 332.14 91.07 o
-6 -1 7 1889.80 1904.93 160.75 o
6 1 -7 2064.01 1736.18 107.17 o
-5 -1 7 859.31 926.86 131.26 o
5 1 -7 837.46 988.47 91.08 o
-4 -1 7 537.65 859.85 120.54 o
4 1 -7 574.04 755.39 128.58 o
-3 -1 7 10847.50 11038.00 190.54 o
3 1 -7 10864.00 10670.30 308.62 o
-2 -1 7 53.50 40.18 64.28 <
2 1 -7 35.04 29.46 99.10 <
-1 -1 7 269.22 -13.39 64.29 <
1 1 -7 296.57 144.64 99.11 <
0 -1 7 207.06 136.60 66.96 <
0 1 -7 220.96 299.99 96.43 o
1 -1 7 2502.33 2757.37 115.22 o
-1 1 -7 2447.16 2508.14 168.82 o
2 -1 7 18718.20 18565.10 287.56 o
-2 1 -7 18728.30 18463.00 384.31 o
3 -1 7 2272.46 3030.48 190.24 o
-3 1 -7 2298.29 2923.32 117.90 o
4 -1 7 196.60 109.82 115.18 <
-4 1 -7 208.14 155.35 99.10 <
5 -1 7 11463.20 10738.50 327.36 o
-5 1 -7 11406.10 11089.90 297.84 o
6 -1 7 1239.49 1133.18 155.38 o
-6 1 -7 1159.12 1165.32 139.30 o
7 -1 7 3205.05 3389.78 206.34 o
-7 1 -7 3238.07 3443.39 203.66 o
8 -1 7 515.18 219.65 136.61 <
-8 1 -7 561.64 372.33 133.93 <
-8 0 7 1275.94 1168.00 168.77 o
8 0 -7 1235.39 1320.69 117.87 o
-7 0 7 53.76 8.04 123.21 <
7 0 -7 71.62 -75.00 88.39 <
-6 0 7 158.43 80.35 115.18 <
6 0 -7 138.56 83.03 85.71 <
-5 0 7 456.73 482.15 120.54 o
5 0 -7 461.80 516.97 85.72 o
-4 0 7 1841.60 1728.12 144.68 o
4 0 -7 1975.32 1974.66 101.81 o
-3 0 7 86.09 72.32 96.42 <
3 0 -7 103.33 203.56 66.96 o
-2 0 7 775.35 669.70 72.33 o
2 0 -7 700.58 819.70 75.01 o
-1 0 7 390.64 310.72 69.64 o
1 0 -7 423.72 150.00 101.79 <
0 0 7 84.39 133.92 64.28 <
0 0 -7 78.70 366.95 101.78 o
1 0 7 356.73 377.68 75.00 o
-1 0 -7 362.36 123.22 88.39 <
2 0 7 87.19 195.53 72.32 <
-2 0 -7 76.75 313.38 85.71 o
3 0 7 65.26 66.96 107.14 <
-3 0 -7 73.04 168.74 80.35 <
4 0 7 367.02 345.54 112.50 o
-4 0 -7 391.78 291.97 64.29 o
5 0 7 245.07 262.49 117.86 <
-5 0 -7 232.31 160.71 101.78 <
6 0 7 299.69 291.96 128.57 <
-6 0 -7 267.70 332.14 115.18 <
7 0 7 871.36 723.27 136.62 o
-7 0 -7 900.83 817.03 136.62 o
8 0 7 647.09 723.24 144.65 o
-8 0 -7 625.88 897.35 144.65 o
-8 1 7 350.62 420.53 147.32 <
8 -1 -7 368.83 573.21 109.82 o
-7 1 7 4100.17 4089.72 222.44 o
7 -1 -7 4218.99 4255.95 219.77 o
-6 1 7 8125.11 7760.93 265.49 o
6 -1 -7 8051.06 8189.92 260.12 o
-5 1 7 2801.18 3070.83 133.98 o
5 -1 -7 2795.90 3151.22 182.21 o
-4 1 7 1898.80 2057.68 160.76 o
4 -1 -7 1903.97 1859.41 133.96 o
-3 1 7 1516.82 1848.60 144.67 o
3 -1 -7 1488.46 2028.09 139.31 o
-2 1 7 18502.60 18269.00 378.92 o
2 -1 -7 18594.50 18462.80 346.68 o
-1 1 7 238.23 265.17 66.96 o
1 -1 -7 230.66 171.43 64.28 <
0 1 7 379.77 310.72 69.64 o
0 -1 -7 377.81 350.90 64.29 o
1 1 7 107.24 163.39 66.96 <
-1 -1 -7 124.53 302.67 58.93 o
2 1 7 3155.07 3215.99 91.12 o
-2 -1 -7 3106.05 3130.20 171.52 o
3 1 7 9262.30 9041.39 185.12 o
-3 -1 -7 9333.58 9387.61 241.46 o
4 1 7 1449.90 1468.14 152.71 o
-4 -1 -7 1584.25 1556.59 85.73 o
5 1 7 249.36 340.17 123.21 <
-5 -1 -7 238.06 332.14 104.46 o
6 1 7 769.34 717.90 139.29 o
-6 -1 -7 812.85 500.93 117.86 o
7 1 7 1974.92 1985.30 184.87 o
-7 -1 -7 2066.77 2213.07 168.79 o
8 1 7 476.30 316.08 139.29 <
-8 -1 -7 481.27 541.08 133.93 o
9 1 7 1605.48 1661.00 187.53 o
-9 -1 -7 1541.40 1786.89 176.81 o
-7 2 7 610.21 867.88 109.82 o
7 -2 -7 654.31 964.32 158.04 o
-6 2 7 619.70 776.81 104.47 o
6 -2 -7 627.40 672.34 144.65 o
-5 2 7 1196.09 1020.66 101.80 o
5 -2 -7 1170.11 926.90 133.95 o
-4 2 7 959.69 964.38 96.44 o
4 -2 -7 972.31 1103.68 125.90 o
-3 2 7 6425.59 6515.61 217.19 o
-2 2 7 4844.50 4986.10 190.33 o
2 -2 -7 4963.38 5256.96 179.61 o
-1 2 7 10690.40 10165.50 193.22 o
1 -2 -7 10713.40 10031.40 230.79 o
0 2 7 1905.23 1982.73 83.06 o
0 -2 -7 1879.49 1773.73 125.93 o
1 2 7 1335.84 1446.70 91.09 o
-1 -2 -7 1309.43 1671.74 133.95 o
2 2 7 1500.98 1837.90 101.81 o
-2 -2 -7 1491.22 1979.90 133.96 o
3 2 7 20606.70 21219.70 244.65 o
-3 -2 -7 20683.30 20547.80 416.71 o
4 2 7 1164.97 1058.19 80.37 o
-4 -2 -7 1188.09 1058.19 75.01 o
5 2 7 4657.32 4106.55 203.72 o
-5 -2 -7 4615.48 4339.72 190.32 o
6 2 7 5886.50 5943.67 155.49 o
-6 -2 -7 5782.08 5479.78 214.47 o
7 2 7 5481.30 5621.38 254.66 o
-7 -2 -7 5564.66 5621.45 222.50 o
8 2 7 2460.27 2483.80 203.63 o
-8 -2 -7 2477.84 2446.29 187.56 o
9 2 7 171.71 -56.25 133.92 <
-9 -2 -7 114.91 40.18 123.21 <
-6 3 7 1891.32 1912.91 128.60 o
6 -3 -7 1975.64 1998.67 179.51 o
-5 3 7 1452.22 1344.86 112.52 o
5 -3 -7 1460.85 1403.80 155.38 o
-4 3 7 14688.10 14201.20 381.20 o
4 -3 -7 14650.20 14195.80 335.57 o
-3 3 7 6493.08 6772.81 171.60 o
3 -3 -7 6769.60 6735.58 225.23 o
-2 3 7 1832.82 1511.09 101.81 o
2 -3 -7 1822.43 1821.88 131.28 o
-1 3 7 2063.39 2084.56 115.21 o
1 -3 -7 2170.03 2478.47 147.37 o
0 3 7 376.68 364.29 58.93 o
0 -3 -7 392.19 211.61 85.72 <
1 3 7 21008.80 20621.80 244.67 o
-1 -3 -7 20822.20 20449.10 381.77 o
2 3 7 9092.18 9558.94 128.78 o
3 3 7 137.44 184.82 53.57 o
-3 -3 -7 151.75 99.10 91.07 <
4 3 7 1530.06 1778.94 101.81 o
-4 -3 -7 1505.42 1661.05 93.77 o
5 3 7 8051.70 8005.92 177.01 o
-5 -3 -7 8138.39 7751.23 236.02 o
6 3 7 9062.41 9012.67 187.76 o
-6 -3 -7 9028.79 8781.95 254.82 o
7 3 7 913.60 704.52 147.33 o
-7 -3 -7 938.93 795.60 120.55 o
8 3 7 1467.64 1618.12 107.16 o
-8 -3 -7 1499.09 1484.17 152.70 o
9 3 7 1840.47 1628.91 176.82 o
-9 -3 -7 1861.72 2105.80 174.14 o
-6 4 7 998.00 916.15 115.19 o
6 -4 -7 1034.38 862.58 166.09 o
-5 4 7 354.12 45.54 91.07 <
5 -4 -7 261.01 270.53 141.96 <
-4 4 7 72.29 198.21 88.39 <
4 -4 -7 65.00 152.67 125.89 <
-3 4 7 1814.91 1931.68 117.88 o
3 -4 -7 1855.76 2006.71 155.39 o
-2 4 7 1277.66 1216.25 96.44 o
2 -4 -7 1255.93 1395.74 133.95 o
-1 4 7 738.99 800.95 85.72 o
1 -4 -7 785.05 787.56 112.51 o
0 4 7 2118.64 2119.40 109.86 o
0 -4 -7 2226.92 2328.43 150.05 o
1 4 7 868.04 862.58 66.97 o
-1 -4 -7 846.61 739.35 104.47 o
2 4 7 1874.08 1966.60 77.70 o
3 4 7 2184.85 2347.19 80.38 o
4 4 7 1453.95 1939.66 104.48 o
-4 -4 -7 1465.38 1961.09 141.99 o
5 4 7 329.34 243.75 72.32 o
-5 -4 -7 323.07 107.14 96.43 <
6 4 7 1059.42 1331.40 99.12 o
-6 -4 -7 1005.95 1567.13 136.62 o
7 4 7 5041.89 5344.94 158.15 o
-7 -4 -7 4987.58 5197.47 206.40 o
8 4 7 1051.57 1347.46 101.80 o
-8 -4 -7 1031.62 1352.81 147.34 o
9 4 7 2846.85 2695.60 128.62 o
-9 -4 -7 2822.15 2596.45 182.21 o
10 4 7 3903.16 3829.57 147.39 o
-10 -4 -7 4021.63 4279.87 219.76 o
-5 5 7 132.14 109.82 93.75 <
5 -5 -7 169.39 155.35 147.32 <
-4 5 7 210.32 104.46 91.07 <
4 -5 -7 149.40 289.27 136.60 <
-3 5 7 1329.93 1090.33 104.48 o
3 -5 -7 1311.44 1580.58 158.06 o
-2 5 7 3638.04 3508.02 142.04 o
2 -5 -7 3725.22 3861.82 203.68 o
-1 5 7 2287.56 2020.26 109.86 o
1 -5 -7 2333.61 1899.70 150.05 o
0 5 7 1060.09 1165.31 93.76 o
0 -5 -7 1084.81 1301.94 131.27 o
1 5 7 713.24 736.65 83.04 o
-1 -5 -7 741.04 964.35 80.36 o
2 5 7 10431.60 10257.60 155.62 o
3 5 7 2273.06 2320.40 80.38 o
4 5 7 201.05 297.31 61.61 o
-4 -5 -7 190.85 125.89 88.39 <
5 5 7 702.12 575.92 85.72 o
-5 -5 -7 693.52 680.40 101.79 o
6 5 7 7107.52 7009.30 171.61 o
-6 -5 -7 6965.10 7161.98 222.55 o
7 5 7 3505.95 3792.01 144.71 o
-7 -5 -7 3437.82 3408.75 179.55 o
8 5 7 672.57 814.32 96.43 o
-8 -5 -7 751.21 934.87 128.58 o
9 5 7 1246.34 977.80 104.48 o
-9 -5 -7 1204.04 1457.31 147.34 o
10 5 7 1277.84 1173.36 112.51 o
-10 -5 -7 1278.84 1406.42 155.38 o
4 -6 -7 8601.96 8039.69 292.30 o
-3 6 7 216.69 211.60 147.32 <
3 -6 -7 269.24 648.20 147.32 o
2 -6 -7 7828.13 7940.02 268.15 o
-1 6 7 51.87 -88.39 123.21 <
1 -6 -7 74.96 332.13 120.53 <
0 6 7 172.91 99.10 77.68 <
0 -6 -7 156.70 72.32 112.50 <
1 6 7 3599.41 3928.81 134.00 o
-1 -6 -7 3462.30 3494.58 187.59 o
2 6 7 1728.78 1749.49 101.81 o
-2 -6 -7 1727.54 1803.08 136.64 o
3 6 7 7329.96 7824.92 136.76 o
-3 -6 -7 7474.54 6854.34 235.99 o
4 6 7 3454.62 3717.04 131.32 o
-4 -6 -7 3367.69 3347.16 152.75 o
5 6 7 1351.36 1363.61 101.80 o
-5 -6 -7 1362.90 1433.26 117.88 o
6 6 7 109.08 128.57 85.71 <
-6 -6 -7 122.25 329.45 93.75 o
7 6 7 4724.11 4781.73 160.82 o
-7 -6 -7 4616.15 4744.13 195.66 o
8 6 7 889.35 817.02 101.79 o
-8 -6 -7 917.72 953.65 123.22 o
9 6 7 2997.07 2872.51 136.66 o
-9 -6 -7 3010.43 2735.85 184.89 o
10 6 7 598.80 554.48 101.79 o
-10 -6 -7 625.13 275.90 117.86 <
-2 7 7 362.50 270.53 150.00 <
2 -7 -7 313.63 332.14 141.96 <
-1 7 7 34.66 195.52 141.96 <
1 -7 -7 25.09 -29.46 125.89 <
0 7 7 19.61 -83.03 128.56 <
0 -7 -7 34.59 203.56 123.21 <
1 7 7 7966.74 7752.72 281.58 o
-1 -7 -7 7860.83 7642.64 254.76 o
2 7 7 1620.21 1430.63 152.71 o
-2 -7 -7 1698.86 1360.99 128.60 o
3 7 7 10763.40 10562.60 211.95 o
4 7 7 1118.71 1058.16 93.76 o
-4 -7 -7 1127.22 1149.24 144.66 o
5 7 7 3805.17 4070.91 142.04 o
-5 -7 -7 3861.20 4304.10 230.48 o
6 7 7 633.28 589.31 112.50 o
-6 -7 -7 716.92 439.31 141.97 o
7 7 7 255.99 332.14 109.82 o
-7 -7 -7 253.68 211.60 139.28 <
8 7 7 3987.19 4135.21 198.32 o
9 7 7 4372.01 3714.61 192.97 o
-1 8 7 158.57 107.14 149.99 <
1 -8 -7 124.31 45.53 136.60 <
0 8 7 1338.33 1157.30 174.13 o
0 -8 -7 1255.25 1596.63 168.77 o
1 8 7 4429.73 4403.50 243.89 o
-1 -8 -7 4418.53 4698.31 225.13 o
2 8 7 267.86 356.24 136.60 <
3 8 7 2335.58 2309.60 128.61 o
-3 -8 -7 2409.99 2781.20 174.16 o
4 8 7 665.67 830.39 96.43 o
-4 -8 -7 715.76 908.08 139.29 o
5 8 7 1066.48 1095.65 96.44 o
-5 -8 -7 1108.28 1596.60 166.09 o
6 8 7 6602.94 6791.08 243.98 o
-6 -8 -7 6716.45 6791.19 270.79 o
7 8 7 145.77 235.71 112.50 <
-7 -8 -7 139.53 139.28 141.96 <
8 8 7 334.90 482.14 117.86 o
-8 -8 -7 322.87 589.28 158.03 o
9 8 7 1245.21 1387.66 150.02 o
-9 -8 -7 1311.24 1066.21 168.77 o
1 9 7 1355.13 1390.37 176.81 o
-1 -9 -7 1416.41 1593.98 174.13 o
2 9 7 2523.82 2904.46 219.71 o
-2 -9 -7 2493.28 2505.22 187.56 o
3 9 7 2379.05 1966.63 179.52 o
4 9 7 606.69 557.16 96.43 o
-4 -9 -7 517.00 597.33 139.29 o
5 9 7 1087.31 878.66 99.12 o
6 9 7 1049.22 1076.89 141.98 o
-6 -9 -7 1153.90 881.35 163.41 o
7 9 7 296.62 241.07 120.53 <
-7 -9 -7 225.62 107.14 147.32 <
8 9 7 608.16 466.08 128.57 o
-8 -9 -7 516.05 586.62 163.40 o
4 10 7 620.15 937.53 155.36 o
5 10 7 322.64 225.00 93.75 <
-5 -10 -7 355.56 345.53 147.32 <
6 10 7 7700.94 6716.76 265.45 o
-6 -10 -7 7790.20 7470.31 286.91 o
-6 -8 8 4592.58 4703.69 168.85 o
6 8 -8 4517.17 4282.85 265.33 o
-5 -8 8 1849.71 1829.84 125.92 o
5 8 -8 1825.99 1918.24 208.97 o
-4 -8 8 10274.50 10565.80 233.36 o
4 8 -8 10179.90 10399.30 354.07 o
-3 -8 8 845.53 878.63 109.83 o
3 8 -8 834.76 795.58 174.12 o
-2 -8 8 468.37 265.18 96.43 <
2 8 -8 523.08 109.82 152.68 <
-7 -7 8 1755.87 1497.61 166.10 o
7 7 -8 1741.26 1736.04 203.61 o
-6 -7 8 6903.90 6504.30 179.63 o
6 7 -8 6773.88 6262.88 286.87 o
-5 -7 8 171.37 72.32 91.07 <
5 7 -8 158.38 117.85 147.32 <
-4 -7 8 1277.43 1173.36 109.83 o
4 7 -8 1300.46 1213.55 179.49 o
-3 -7 8 2013.92 1851.33 125.92 o
3 7 -8 1986.84 2314.82 198.26 o
-2 -7 8 283.68 187.50 93.75 <
2 7 -8 299.15 324.10 147.32 <
-1 -7 8 5389.81 5109.02 249.29 o
1 7 -8 5355.78 5430.66 257.33 o
0 -7 8 336.33 318.75 147.32 <
0 7 -8 304.98 575.88 96.43 o
-8 -6 8 192.79 166.07 144.64 <
8 6 -8 254.18 147.32 163.39 <
-7 -6 8 4961.75 4728.10 230.51 o
7 6 -8 5025.98 4821.96 268.04 o
-6 -6 8 2229.80 2440.83 190.23 o
6 6 -8 2245.44 2746.28 222.38 o
-5 -6 8 211.32 200.89 85.71 <
5 6 -8 241.98 120.53 147.32 <
-4 -6 8 5481.81 4562.39 214.45 o
4 6 -8 5232.28 5141.21 251.97 o
-3 -6 8 771.34 784.87 99.11 o
3 6 -8 763.63 841.12 155.37 o
-2 -6 8 6286.90 6345.75 179.62 o
2 6 -8 6166.46 6964.92 276.13 o
-1 -6 8 2800.42 2853.69 136.66 o
1 6 -8 2828.33 2896.58 217.04 o
0 -6 8 1065.10 1141.18 168.77 o
0 6 -8 1054.96 1095.64 155.37 o
1 -6 8 6887.95 7351.50 300.28 o
-1 6 -8 6903.95 6917.18 187.68 o
2 -6 8 4301.03 3963.80 233.16 o
-2 6 -8 4244.66 4558.73 160.80 o
-8 -5 8 652.14 725.92 158.04 o
8 5 -8 649.09 833.06 176.79 o
-7 -5 8 454.22 573.22 144.64 o
7 5 -8 475.39 412.50 163.40 <
-6 -5 8 1739.40 2022.72 171.46 o
6 5 -8 1652.18 2178.08 200.93 o
-5 -5 8 8062.14 8374.84 273.53 o
5 5 -8 8199.01 8224.83 303.03 o
-4 -5 8 11376.60 11606.90 316.60 o
4 5 -8 11246.20 11797.20 354.16 o
-3 -5 8 1620.15 1398.48 109.84 o
3 5 -8 1589.06 1561.90 174.14 o
-2 -5 8 57.64 13.39 83.03 <
2 5 -8 72.54 99.10 123.21 <
-1 -5 8 7405.43 7473.16 187.70 o
1 5 -8 7561.25 7422.39 270.83 o
0 -5 8 6941.42 6973.83 187.68 o
0 5 -8 7220.99 7448.71 270.81 o
1 -5 8 654.88 883.96 152.68 o
-1 5 -8 655.16 766.10 96.43 o
2 -5 8 145.69 109.82 128.57 <
-2 5 -8 128.89 120.53 80.35 <
3 -5 8 1388.66 1355.55 179.49 o
-3 5 -8 1331.51 1344.82 155.38 o
-8 -4 8 9424.02 8534.21 305.75 o
8 4 -8 9358.26 8821.10 319.16 o
-7 -4 8 3091.51 2947.59 209.01 o
7 4 -8 3047.18 2754.64 225.09 o
-6 -4 8 4753.54 4371.60 217.11 o
6 4 -8 4722.05 4384.98 246.59 o
-5 -4 8 6580.45 6354.21 243.98 o
5 4 -8 6660.38 6544.65 273.48 o
-4 -4 8 1952.21 2052.29 117.89 o
4 4 -8 1954.07 2301.46 192.90 o
-3 -4 8 1346.01 1521.66 109.84 o
3 4 -8 1334.57 1602.03 174.13 o
-2 -4 8 47.24 149.99 80.35 <
2 4 -8 69.17 10.71 125.89 <
-1 -4 8 243.87 535.70 91.07 o
1 4 -8 252.20 407.14 125.89 o
0 -4 8 3947.27 4103.16 150.08 o
0 4 -8 3895.04 4038.81 219.76 o
1 -4 8 8814.38 8949.87 303.07 o
-1 4 -8 8756.97 9778.52 292.34 o
2 -4 8 6277.71 5884.62 265.41 o
-2 4 -8 6205.35 6002.52 168.90 o
3 -4 8 110.43 281.24 141.96 <
-3 4 -8 99.48 243.74 120.53 <
4 -4 8 11865.20 11987.40 380.98 o
-4 4 -8 11971.60 12234.50 338.06 o
-8 -3 8 371.43 581.25 152.68 o
8 3 -8 313.57 490.17 163.39 <
7 3 -8 2047.07 2397.90 206.30 o
-6 -3 8 879.93 934.89 152.69 o
6 3 -8 880.08 854.53 160.73 o
-5 -3 8 153.68 109.82 123.21 <
5 3 -8 119.41 281.24 139.28 <
-4 -3 8 1181.42 1151.93 139.30 o
4 3 -8 1151.30 1229.61 163.41 o
-3 -3 8 9259.64 9535.84 198.50 o
3 3 -8 9517.97 8817.32 300.44 o
-2 -3 8 6631.98 6445.78 166.24 o
2 3 -8 6641.94 6330.50 254.72 o
-1 -3 8 4557.75 4771.08 150.10 o
1 3 -8 4519.77 5111.45 230.51 o
0 -3 8 13449.10 13710.70 249.63 o
0 3 -8 13391.90 13214.00 348.94 o
1 -3 8 937.30 1151.89 104.47 o
-1 3 -8 928.20 1419.77 141.98 o
2 -3 8 1602.91 1285.96 158.07 o
-2 3 -8 1582.70 1363.64 99.13 o
3 -3 8 337.03 316.07 139.29 <
-3 3 -8 369.13 163.39 115.18 <
4 -3 8 536.05 605.37 144.65 o
-4 3 -8 549.70 854.48 136.61 o
5 -3 8 1950.06 2325.51 206.29 o
-5 3 -8 1969.68 2188.88 184.86 o
8 2 -8 5430.91 5454.79 270.73 o
-7 -2 8 123.06 -50.89 131.24 <
7 2 -8 105.13 243.74 147.32 <
-6 -2 8 2327.75 1985.40 176.84 o
6 2 -8 2323.17 2194.38 192.91 o
-5 -2 8 1906.87 1803.10 166.11 o
5 2 -8 1859.25 1398.53 176.83 o
-4 -2 8 58.21 72.32 112.49 <
4 2 -8 64.05 85.71 131.24 <
-3 -2 8 6887.34 6682.02 233.28 o
3 2 -8 6931.40 6631.12 260.10 o
-2 -2 8 2392.37 2256.11 117.90 o
2 2 -8 2325.96 2306.99 176.84 o
-1 -2 8 467.35 562.51 88.39 o
1 2 -8 514.74 683.05 133.93 o
0 -2 8 1631.76 1816.45 112.52 o
0 2 -8 1589.62 1752.14 152.71 o
1 -2 8 7392.50 7417.31 182.35 o
-1 2 -8 7235.21 7725.50 257.43 o
2 -2 8 218.02 158.03 117.85 <
-2 2 -8 225.80 222.32 104.46 <
3 -2 8 497.01 771.44 152.68 o
-3 2 -8 506.24 610.73 83.04 o
4 -2 8 6749.79 6938.72 284.20 o
-4 2 -8 6722.19 6536.52 246.66 o
5 -2 8 2071.64 2218.40 195.58 o
-5 2 -8 1991.27 2510.40 187.54 o
6 -2 8 896.30 661.65 150.01 o
-6 2 -8 881.69 495.57 141.97 o
-7 -1 8 4987.97 4462.77 238.55 o
7 1 -8 4884.13 4535.08 251.95 o
-6 -1 8 724.01 583.96 144.65 o
6 1 -8 818.52 675.04 158.05 o
-5 -1 8 16729.90 16071.30 397.42 o
5 1 -8 16717.30 17123.90 426.95 o
-4 -1 8 284.63 294.64 123.21 <
4 1 -8 277.39 648.21 150.00 o
-3 -1 8 4078.47 3899.66 187.61 o
3 1 -8 4050.60 3800.47 222.45 o
-2 -1 8 1013.65 1063.51 93.76 o
2 1 -8 1081.25 929.58 144.66 o
-1 -1 8 691.32 870.59 91.08 o
1 1 -8 701.69 1042.02 136.62 o
0 -1 8 261.91 345.53 80.36 o
0 1 -8 261.67 479.46 123.21 o
1 -1 8 204.20 259.82 83.03 o
-1 1 -8 282.81 69.64 101.79 <
2 -1 8 5235.71 4760.88 152.80 o
-2 1 -8 5210.95 5109.34 214.45 o
3 -1 8 510.04 383.04 133.93 <
-3 1 -8 438.84 468.76 77.68 o
4 -1 8 5355.62 5390.69 254.66 o
-4 1 -8 5469.41 5511.41 225.17 o
5 -1 8 5889.74 6227.38 257.35 o
-5 1 -8 5716.09 5307.75 233.22 o
6 -1 8 4905.49 5041.66 259.99 o
-6 1 -8 4927.08 5210.54 227.83 o
-7 0 8 1822.17 1567.28 179.50 o
7 0 -8 1812.63 1971.82 198.25 o
-6 0 8 1594.78 1652.97 174.14 o
6 0 -8 1599.20 2124.48 190.21 o
-5 0 8 7006.52 6748.70 254.72 o
5 0 -8 7025.40 6981.99 273.49 o
-4 0 8 1431.61 1237.70 147.35 o
4 0 -8 1395.65 1176.08 158.06 o
-3 0 8 7631.47 7607.94 246.71 o
3 0 -8 7654.93 7624.06 273.53 o
-2 0 8 1920.17 1720.08 150.04 o
2 0 -8 1840.70 1859.38 166.11 o
-1 0 8 1022.16 1331.40 96.44 o
1 0 -8 1084.57 1328.73 150.02 o
0 0 8 58043.80 56149.80 684.19 o
0 0 -8 57978.70 56527.80 989.77 o
1 0 8 788.88 932.21 96.44 o
-1 0 -8 740.54 1224.19 128.58 o
2 0 8 681.77 640.21 91.08 o
-2 0 -8 691.57 632.18 107.15 o
3 0 8 15806.90 16226.50 413.52 o
-3 0 -8 15777.40 16336.50 359.81 o
4 0 8 4275.38 4760.02 235.86 o
-4 0 -8 4218.31 4266.83 206.37 o
5 0 8 5693.73 6130.79 268.07 o
-5 0 -8 5740.84 5736.76 233.22 o
6 0 8 653.44 514.30 139.29 o
-6 0 -8 716.89 693.78 136.61 o
7 0 8 119.23 166.07 131.24 <
-7 0 -8 115.68 305.34 131.24 <
-6 1 8 3409.69 3438.10 214.38 o
6 -1 -8 3430.32 3489.03 155.43 o
-5 1 8 4616.75 4481.38 222.46 o
5 -1 -8 4507.07 4542.95 160.81 o
-4 1 8 3442.73 3360.50 195.63 o
4 -1 -8 3494.61 3424.84 144.71 o
-3 1 8 1646.92 2065.59 158.07 o
3 -1 -8 1636.18 1521.73 166.10 o
-2 1 8 9014.51 8848.96 257.50 o
2 -1 -8 8942.50 8258.75 284.32 o
-1 1 8 868.59 1205.46 133.94 o
1 -1 -8 880.83 1020.62 144.65 o
0 1 8 76.32 262.49 80.35 o
0 -1 -8 66.07 227.67 117.85 <
1 1 8 908.50 875.97 93.76 o
-1 -1 -8 879.43 859.90 128.58 o
2 1 8 72.49 58.93 80.35 <
-2 -1 -8 117.36 171.42 99.10 <
3 1 8 5928.89 5761.42 163.54 o
-3 -1 -8 5796.66 5932.87 206.43 o
4 1 8 267.33 551.78 131.25 o
-4 -1 -8 214.77 372.31 109.82 o
5 1 8 13501.00 15073.00 407.96 o
-5 -1 -8 13587.20 14230.40 359.65 o
6 1 8 1711.94 1888.76 195.57 o
-6 -1 -8 1692.09 2167.38 171.46 o
7 1 8 4725.74 5223.79 265.34 o
-7 -1 -8 4691.54 4918.22 230.50 o
-6 2 8 145.39 128.57 139.28 <
6 -2 -8 227.82 -61.61 136.60 <
-5 2 8 819.72 701.83 144.65 o
5 -2 -8 861.94 549.14 136.62 o
-4 2 8 4512.79 4703.80 217.10 o
4 -2 -8 4466.20 4963.74 214.42 o
-3 2 8 212.85 364.28 123.21 <
3 -2 -8 231.94 155.35 107.14 <
-2 2 8 66.25 125.89 109.82 <
2 -2 -8 69.34 415.16 101.78 o
-1 2 8 2198.48 2277.46 160.76 o
1 -2 -8 2228.44 1923.79 112.53 o
0 2 8 1927.78 2159.48 115.21 o
0 -2 -8 1934.86 2172.88 112.53 o
1 2 8 121.12 246.42 83.03 <
-1 -2 -8 153.58 85.71 109.82 <
2 2 8 991.24 1034.04 96.44 o
-2 -2 -8 976.40 1015.28 125.91 o
3 2 8 7077.23 7789.68 185.02 o
-3 -2 -8 6993.26 7934.37 244.01 o
4 2 8 247.24 225.00 133.93 <
-4 -2 -8 269.05 444.64 117.86 o
5 2 8 1608.99 1511.00 174.14 o
-5 -2 -8 1565.36 1393.11 144.67 o
6 2 8 6218.79 5683.52 252.01 o
-6 -2 -8 6042.46 5570.77 227.87 o
7 2 8 186.45 53.57 139.28 <
-7 -2 -8 135.20 34.82 123.21 <
8 2 8 5437.57 5696.03 278.77 o
-8 -2 -8 5445.32 5784.50 246.60 o
-5 3 8 1455.03 1387.71 123.23 o
5 -3 -8 1422.27 1441.28 160.74 o
-4 3 8 2377.50 2395.34 136.65 o
4 -3 -8 2378.23 2850.83 200.95 o
-3 3 8 152.55 125.89 91.07 <
3 -3 -8 172.50 149.99 117.85 <
-2 3 8 932.40 675.06 99.12 o
2 -3 -8 870.10 835.78 123.22 o
-1 3 8 309.09 166.07 85.71 <
1 -3 -8 278.37 77.68 93.75 <
0 3 8 8116.48 8689.35 193.10 o
0 -3 -8 8313.68 8644.03 230.65 o
1 3 8 8657.90 9264.19 190.43 o
-1 -3 -8 8733.37 8961.22 230.67 o
2 3 8 3146.40 3221.09 128.63 o
-2 -3 -8 3212.55 3076.42 192.95 o
3 3 8 12399.00 12487.40 179.81 o
-3 -3 -8 12392.90 11824.50 305.95 o
4 3 8 1337.78 1457.36 171.46 o
-4 -3 -8 1389.72 1449.34 141.99 o
5 3 8 315.30 377.67 133.93 <
-5 -3 -8 360.05 366.96 117.86 o
6 3 8 185.25 131.25 144.64 <
-6 -3 -8 211.62 112.50 112.50 <
7 3 8 87.05 -115.17 139.28 <
-7 -3 -8 91.88 101.78 120.53 <
8 3 8 324.58 166.07 136.60 <
-8 -3 -8 329.02 599.99 139.28 o
-4 4 8 9512.11 10140.90 303.07 o
4 -4 -8 9439.86 10178.30 308.43 o
-3 4 8 811.80 825.05 107.15 o
3 -4 -8 776.99 950.95 147.33 o
-2 4 8 2882.97 2757.28 136.66 o
2 -4 -8 2846.87 2813.54 184.89 o
-1 4 8 21327.00 21954.10 446.07 o
1 -4 -8 21103.30 22216.70 437.99 o
0 4 8 2028.39 2408.66 123.25 o
0 -4 -8 2026.52 2531.90 163.43 o
1 4 8 2066.47 2017.50 117.89 o
-1 -4 -8 1982.46 1888.87 147.36 o
2 4 8 113.88 152.67 66.96 <
3 4 8 79.56 171.42 66.96 <
-3 -4 -8 75.14 -305.34 99.10 <
4 4 8 4038.38 4004.07 142.04 o
-4 -4 -8 4093.23 3942.46 134.01 o
5 4 8 3499.05 3113.98 136.67 o
-5 -4 -8 3611.42 3382.03 179.55 o
6 4 8 7788.58 8224.27 195.75 o
-6 -4 -8 7732.65 7805.88 252.06 o
7 4 8 190.60 283.92 152.67 <
-7 -4 -8 181.96 246.42 120.53 <
8 4 8 12973.40 12190.60 394.46 o
-8 -4 -8 12957.50 12912.40 338.11 o
-3 5 8 39.47 195.52 99.10 <
3 -5 -8 72.76 80.35 133.92 <
-2 5 8 455.64 350.90 96.43 o
2 -5 -8 419.16 214.29 125.89 <
-1 5 8 467.17 642.86 99.11 o
1 -5 -8 529.04 875.91 133.93 o
0 5 8 4373.22 4754.65 158.13 o
0 -5 -8 4635.28 4674.43 206.38 o
1 5 8 2748.65 2842.99 131.30 o
-1 -5 -8 2735.54 2893.90 174.17 o
2 5 8 58.10 163.38 80.35 <
-2 -5 -8 77.52 -358.91 99.10 <
3 5 8 1082.75 964.39 69.65 o
4 5 8 20168.80 21694.90 330.46 o
-4 -5 -8 19890.90 21283.00 435.22 o
5 5 8 4106.22 4818.78 158.12 o
-5 -5 -8 4234.09 4532.10 198.33 o
6 5 8 6947.21 6804.83 185.00 o
-6 -5 -8 6745.99 6885.06 233.26 o
7 5 8 3953.99 4062.81 158.12 o
-7 -5 -8 3877.26 3977.01 200.99 o
8 5 8 2033.24 2647.04 144.68 o
-8 -5 -8 2155.43 2518.49 182.19 o
-2 6 8 3601.44 3288.10 238.50 o
2 -6 -8 3537.69 3974.09 222.42 o
-1 6 8 4398.53 4151.51 246.57 o
1 -6 -8 4287.98 4599.01 225.13 o
0 6 8 207.77 109.82 136.60 <
0 -6 -8 268.29 299.99 128.57 <
1 6 8 5782.81 5822.52 260.03 o
-1 -6 -8 5635.33 5808.99 227.86 o
2 6 8 5942.56 5677.94 257.36 o
-2 -6 -8 5985.75 6439.32 233.23 o
3 6 8 130.65 -40.18 64.28 <
-3 -6 -8 145.64 -123.21 109.82 <
4 6 8 4459.01 4119.47 147.41 o
-4 -6 -8 4350.81 4044.36 179.57 o
5 6 8 875.30 766.13 101.79 o
-5 -6 -8 886.11 825.06 115.19 o
6 6 8 302.57 166.07 96.43 <
-6 -6 -8 378.48 286.61 104.46 <
7 6 8 5312.78 5063.41 166.19 o
-7 -6 -8 5356.93 5441.39 211.76 o
8 6 8 339.64 297.32 99.11 o
-8 -6 -8 374.18 318.75 120.54 <
1 -7 -8 7862.48 8845.93 294.95 o
0 7 8 1130.25 1285.85 176.80 o
0 -7 -8 1122.50 1561.77 163.41 o
1 7 8 5102.41 5033.78 257.32 o
-1 -7 -8 5128.99 5114.21 230.51 o
-2 -7 -8 2425.55 2250.66 171.48 o
3 7 8 642.80 613.41 147.33 o
-3 -7 -8 574.96 589.30 128.57 o
4 7 8 242.97 211.60 91.07 <
-4 -7 -8 243.47 160.71 123.21 <
5 7 8 774.82 867.91 133.94 o
-5 -7 -8 670.79 867.89 158.04 o
6 7 8 4446.25 4513.35 214.41 o
-6 -7 -8 4524.45 4652.77 243.90 o
7 7 8 399.77 305.36 120.54 <
-7 -7 -8 394.15 297.32 152.68 <
1 8 8 106.16 281.24 149.99 <
-1 -8 -8 136.63 241.06 141.96 <
2 8 8 33.49 141.96 144.63 <
-2 -8 -8 36.56 195.52 136.60 <
3 8 8 1927.85 1845.94 187.54 o
-3 -8 -8 1904.82 2550.55 187.54 o
4 8 8 11654.70 11316.40 236.09 o
-4 -8 -8 11501.10 10988.90 321.94 o
5 8 8 146.57 235.71 123.21 <
-5 -8 -8 93.18 -2.68 131.24 <
6 8 8 4526.01 4789.41 222.45 o
-6 -8 -8 4559.97 4210.52 235.85 o
-5 -6 9 1776.30 1754.80 182.18 o
5 6 -9 1746.19 2279.90 219.68 o
-4 -6 9 141.20 294.63 99.10 <
4 6 -9 202.99 104.46 160.71 <
-3 -6 9 6065.16 5884.20 182.29 o
3 6 -9 6118.94 5951.26 276.12 o
-2 -6 9 1596.97 1291.29 123.24 o
2 6 -9 1492.07 1524.34 192.89 o
-6 -5 9 2097.99 1920.99 187.54 o
6 5 -9 2135.48 2349.68 222.38 o
-5 -5 9 103.90 342.84 139.28 <
5 5 -9 103.54 2.68 131.24 <
-4 -5 9 931.60 921.50 152.69 o
4 5 -9 907.17 1162.58 187.51 o
-3 -5 9 1897.06 1535.15 120.56 o
3 5 -9 1982.54 1666.45 192.90 o
-2 -5 9 3932.40 3818.91 158.12 o
2 5 -9 3939.00 3781.39 246.55 o
-1 -5 9 375.06 332.14 101.79 o
1 5 -9 360.13 463.39 155.36 <
0 -5 9 556.51 265.18 96.43 <
0 5 -9 561.72 358.94 147.32 <
-6 -4 9 1328.88 959.05 163.41 o
6 4 -9 1284.27 1360.88 187.52 o
-5 -4 9 788.01 533.07 150.01 o
5 4 -9 778.33 648.25 168.76 o
-4 -4 9 313.23 216.96 133.93 <
4 4 -9 290.20 198.21 158.03 <
-3 -4 9 279.45 254.46 93.75 <
3 4 -9 244.21 573.20 160.71 o
-2 -4 9 3328.61 3255.86 200.98 o
2 4 -9 3483.28 3443.52 233.14 o
-1 -4 9 155.90 13.39 91.07 <
1 4 -9 184.86 2.68 133.92 <
0 -4 9 419.65 361.61 101.79 o
0 4 -9 415.98 562.50 144.64 o
1 -4 9 543.79 642.87 163.40 o
-1 4 -9 525.40 450.01 139.29 o
2 -4 9 408.02 658.93 158.04 o
-2 4 -9 450.03 640.18 139.29 o
-6 -3 9 4199.66 3942.31 230.48 o
6 3 -9 4173.54 3521.53 241.20 o
-5 -3 9 1690.61 1596.73 174.14 o
5 3 -9 1741.08 1559.23 190.21 o
-4 -3 9 460.38 308.04 133.93 <
4 3 -9 425.75 380.36 158.04 <
-3 -3 9 70.29 249.10 133.92 <
3 3 -9 68.60 249.10 149.99 <
-2 -3 9 8642.45 8893.00 284.28 o
2 3 -9 8659.42 8461.25 303.05 o
-1 -3 9 5654.72 5347.92 168.88 o
1 3 -9 5641.93 5945.69 262.70 o
0 -3 9 180.77 176.78 93.75 <
0 3 -9 195.26 120.53 131.25 <
1 -3 9 1971.45 2097.80 133.96 o
-1 3 -9 1838.19 2014.71 174.14 o
2 -3 9 1408.82 1433.24 187.53 o
-2 3 -9 1474.26 1374.32 109.84 o
3 -3 9 7242.73 7598.46 297.61 o
-3 3 -9 7277.85 6842.40 265.44 o
-6 -2 9 625.34 795.56 163.40 o
6 2 -9 650.72 752.70 155.36 o
-5 -2 9 2433.70 2561.47 200.95 o
5 2 -9 2394.22 2387.29 203.63 o
-4 -2 9 4935.18 5475.96 241.23 o
4 2 -9 5085.72 5240.20 260.00 o
-3 -2 9 8717.78 8091.23 278.92 o
3 2 -9 8834.61 8681.39 305.74 o
-2 -2 9 48.57 112.49 125.89 <
2 2 -9 46.49 155.35 139.28 <
-1 -2 9 237.59 152.68 88.39 <
1 2 -9 176.59 479.45 141.96 o
0 -2 9 184.02 152.67 91.07 <
0 2 -9 168.04 163.39 131.25 <
1 -2 9 9868.80 10447.70 228.00 o
-1 2 -9 9885.07 11145.10 319.20 o
-2 2 -9 686.11 669.67 125.90 o
3 -2 9 6129.57 5610.88 257.36 o
-3 2 -9 6094.90 5817.27 238.59 o
4 -2 9 1154.68 884.02 174.13 o
-4 2 -9 1059.58 918.84 152.69 o
-6 -1 9 91.37 230.35 149.99 <
6 1 -9 93.09 158.03 133.92 <
-5 -1 9 240.15 299.99 141.96 <
5 1 -9 253.49 316.07 133.93 <
-4 -1 9 150.52 -53.57 125.89 <
4 1 -9 98.21 214.28 149.99 <
-3 -1 9 3897.28 4132.51 211.72 o
3 1 -9 3873.39 3684.94 238.52 o
-2 -1 9 76.48 93.75 125.89 <
2 1 -9 113.73 -88.39 133.92 <
-1 -1 9 151.39 -2.68 85.71 <
1 1 -9 149.88 243.74 136.60 <
0 -1 9 5.46 40.18 91.07 <
0 1 -9 8.00 -179.45 120.53 <
1 -1 9 1586.10 1953.03 125.92 o
-1 1 -9 1628.28 2038.77 168.78 o
2 -1 9 5969.89 5988.88 179.61 o
-2 1 -9 6114.56 6501.04 252.00 o
3 -1 9 155.65 471.41 155.35 o
-3 1 -9 205.82 233.03 125.89 <
4 -1 9 150.88 91.07 144.64 <
-4 1 -9 142.00 109.82 125.89 <
5 -1 9 3208.16 3073.54 217.05 o
-5 1 -9 3217.95 3464.77 209.01 o
-5 0 9 163.51 340.17 147.32 <
5 0 -9 151.28 18.75 131.24 <
-4 0 9 104.13 58.93 131.24 <
4 0 -9 100.08 117.85 131.24 <
-3 0 9 294.57 324.10 133.93 <
3 0 -9 324.75 125.89 128.57 <
-2 0 9 262.57 -64.28 120.53 <
2 0 -9 310.59 37.50 141.96 <
-1 0 9 109.54 -117.85 112.50 <
1 0 -9 101.55 152.67 136.60 <
0 0 9 28.72 133.92 88.39 <
0 0 -9 30.49 0.00 128.57 <
1 0 9 221.03 83.03 91.07 <
-1 0 -9 190.72 289.28 128.57 <
2 0 9 73.65 139.28 91.07 <
-2 0 -9 69.57 275.88 120.53 <
3 0 9 75.08 107.14 128.57 <
-3 0 -9 77.08 2.68 112.50 <
4 0 9 872.58 498.25 160.73 o
-4 0 -9 852.61 640.22 136.62 o
5 0 9 543.07 246.43 152.68 <
-5 0 -9 558.63 273.22 131.25 <
-5 1 9 3283.51 3250.43 219.73 o
5 -1 -9 3296.78 3655.07 238.49 o
-4 1 9 1000.00 806.32 152.69 o
4 -1 -9 1019.93 562.55 144.66 o
-3 1 9 270.80 487.49 136.60 o
3 -1 -9 242.55 281.24 131.25 <
-2 1 9 13409.60 13947.40 351.57 o
2 -1 -9 13416.20 13421.40 378.41 o
-1 1 9 264.34 158.03 125.89 <
1 -1 -9 215.67 32.14 136.60 <
0 1 9 100.13 136.60 120.53 <
0 -1 -9 82.80 16.07 131.24 <
1 1 9 28.48 109.82 91.07 <
-1 -1 -9 25.74 -8.04 125.89 <
2 1 9 2193.59 2231.85 131.29 o
-2 -1 -9 2073.27 2363.10 187.55 o
3 1 9 6521.94 6067.12 268.10 o
4 1 9 1834.04 2159.38 206.29 o
-4 -1 -9 1843.51 1803.06 168.79 o
5 1 9 223.74 211.60 152.68 <
-5 -1 -9 221.29 168.75 131.25 <
-6 -1 -9 2601.81 2917.87 198.28 o
-4 2 9 3706.35 4228.77 219.75 o
4 -2 -9 3652.63 3636.50 241.18 o
-3 2 9 1362.20 1730.60 163.42 o
3 -2 -9 1353.85 1358.22 179.49 o
-2 2 9 2731.24 2950.12 192.92 o
2 -2 -9 2757.67 2727.73 222.40 o
-1 2 9 2409.46 2475.74 184.88 o
1 -2 -9 2376.48 2810.65 219.71 o
0 2 9 406.36 610.72 131.25 o
0 -2 -9 438.36 808.93 150.00 o
1 2 9 809.81 747.37 99.11 o
-1 -2 -9 842.24 910.78 150.01 o
2 2 9 691.03 1052.73 109.83 o
-2 -2 -9 662.78 1229.51 144.65 o
3 2 9 9964.42 10547.10 228.00 o
-3 -2 -9 10050.70 11215.20 300.43 o
4 2 9 340.25 136.61 147.32 <
-4 -2 -9 399.11 313.39 123.21 <
5 2 9 1299.65 1039.42 179.49 o
-5 -2 -9 1331.61 1390.36 158.06 o
6 2 9 1865.63 2304.05 208.97 o
-6 -2 -9 1890.10 2234.40 187.54 o
-3 3 9 2597.04 2486.49 187.56 o
-2 3 9 3794.49 3920.67 209.03 o
-1 3 9 121.45 18.75 123.21 <
1 -3 -9 88.23 -117.85 128.57 <
0 3 9 374.23 417.86 131.25 o
0 -3 -9 371.79 506.25 136.61 o
1 3 9 15191.50 15363.20 365.09 o
-1 -3 -9 15151.60 15266.40 389.24 o
2 3 9 3264.14 3529.18 195.62 o
-2 -3 -9 3231.15 3869.49 222.41 o
3 3 9 162.24 18.75 91.07 <
-3 -3 -9 143.86 195.53 112.50 <
4 3 9 877.05 1267.05 179.48 o
-4 -3 -9 946.26 827.74 141.98 o
5 3 9 5214.50 5264.37 270.72 o
-5 -3 -9 5362.14 5371.70 230.52 o
6 3 9 5652.02 5438.88 281.46 o
-6 -3 -9 5643.11 5840.96 238.57 o
-2 4 9 2292.00 2116.64 133.96 o
2 -4 -9 2343.90 2585.53 195.59 o
-1 4 9 83.96 174.10 101.78 <
1 -4 -9 79.91 337.48 120.53 <
0 4 9 190.45 216.96 125.89 <
1 4 9 251.06 299.99 125.89 <
2 4 9 688.19 942.90 141.97 o
-2 -4 -9 680.97 798.25 155.36 o
3 4 9 863.01 680.40 104.47 o
-3 -4 -9 748.31 578.60 125.90 o
4 4 9 439.00 308.04 155.36 <
-4 -4 -9 407.27 495.54 125.89 o
5 4 9 281.28 337.49 163.39 <
-5 -4 -9 297.31 334.82 128.57 <
6 4 9 1390.23 1288.57 195.56 o
-6 -4 -9 1306.62 1500.19 160.74 o
-1 5 9 102.71 85.71 101.78 <
1 -5 -9 94.77 302.67 131.24 <
0 5 9 13.79 0.00 96.42 <
0 -5 -9 9.61 192.85 123.21 <
1 5 9 625.58 750.02 107.15 o
-1 -5 -9 609.02 841.10 131.25 o
2 5 9 3393.80 3601.56 195.62 o
-2 -5 -9 3397.99 3446.14 192.94 o
3 5 9 2563.89 2561.51 142.01 o
-3 -5 -9 2587.60 2339.13 187.56 o
4 5 9 38.14 34.82 155.35 <
-4 -5 -9 39.44 24.11 112.49 <
5 5 9 371.90 321.43 163.39 <
-5 -5 -9 364.62 310.71 123.21 <
6 5 9 4328.26 4716.91 270.69 o
-6 -5 -9 4398.07 4572.23 217.09 o
1 6 9 4896.85 5130.05 268.03 o
-1 -6 -9 4861.39 5540.11 235.86 o
-2 -6 -9 3761.06 4595.95 222.43 o
3 6 9 3431.60 3234.43 227.78 o
-3 -6 -9 3516.00 3140.68 198.30 o
4 6 9 3320.32 3850.70 206.34 o
-4 -6 -9 3480.05 2880.72 200.98 o
5 6 9 384.90 543.75 171.43 o
-2 -2 10 268.73 53.57 136.60 <
2 2 -10 251.78 45.53 133.93 <
-1 -2 10 6707.78 6257.38 262.73 o
1 2 -10 6551.26 6525.33 289.54 o
0 -2 10 174.50 56.25 99.10 <
0 2 -10 176.62 283.92 149.99 <
-2 -1 10 5021.29 5170.35 241.23 o
2 1 -10 4971.92 5028.26 265.35 o
-1 -1 10 4919.23 5202.45 241.23 o
1 1 -10 4947.49 5526.78 273.39 o
0 -1 10 1612.79 1816.38 184.85 o
0 1 -10 1670.95 1693.16 179.50 o
1 -1 10 8609.02 9396.64 222.58 o
-1 1 -10 8684.67 8645.86 308.40 o
-2 0 10 16.17 219.63 147.31 <
2 0 -10 20.58 160.71 136.60 <
-1 0 10 5324.52 6462.56 260.00 o
1 0 -10 5305.12 6317.80 284.13 o
0 0 10 6476.76 6900.61 268.09 o
0 0 -10 6502.16 6841.66 286.86 o
1 0 10 685.97 634.85 115.18 o
-1 0 -10 712.39 766.10 158.04 o
2 0 10 568.16 808.95 120.54 o
-1 1 10 5253.37 4779.18 230.52 o
1 -1 -10 5179.43 4787.17 262.68 o
0 -1 -10 2271.11 2357.77 206.30 o
1 1 10 562.05 396.44 147.32 <
-1 -1 -10 580.04 709.84 158.04 o
2 1 10 8834.93 8756.00 217.22 o
-2 -1 -10 8839.51 9305.77 300.36 o
0 2 10 282.93 -53.57 131.25 <
0 -2 -10 233.06 -150.00 128.57 <
1 2 10 7372.65 7325.10 273.48 o
-1 -2 -10 7232.98 7370.53 294.93 o
2 2 10 293.99 391.07 107.14 o
-2 -2 -10 313.24 533.03 144.64 o
loop_
_jana_atom_site_adp_c_label
_jana_atom_site_adp_c_type_symbol
_jana_atom_site_adp_c_111
_jana_atom_site_adp_c_112
_jana_atom_site_adp_c_113
_jana_atom_site_adp_c_122
_jana_atom_site_adp_c_123
_jana_atom_site_adp_c_133
_jana_atom_site_adp_c_222
_jana_atom_site_adp_c_223
_jana_atom_site_adp_c_233
_jana_atom_site_adp_c_333
La1 La -0.0004(10) 0.0014(8) -0.0011(6) -0.0014(9) 0.0017(6) 0.0012(7)
0.0131(15) -0.0027(8) 0.0005(8) -0.0142(16)
La2 La 0.0050(11) 0.0006(7) -0.0012(7) -0.0081(7) -0.0002(5) 0.0013(9)
-0.0019(10) -0.0008(7) 0.0026(8) -0.0048(19)
La3 La -0.0006(7) 0.0012(5) 0.0000(4) 0.0001(4) 0.0001(3) 0.0015(5) -0.0003(6)
0.0011(4) -0.0017(5) 0.0007(11)
La4 La 0.0046(6) -0.0010(4) 0.0010(4) 0.0001(4) 0.0000(3) 0.0027(5) 0.0002(6)
0.0005(4) -0.0032(5) -0.0066(11)
