#------------------------------------------------------------------------------
#$Date: 2020-08-26 00:27:53 +0300 (Wed, 26 Aug 2020) $
#$Revision: 255628 $
#$URL: file:///home/coder/svn-repositories/cod/cif/4/51/79/4517983.cif $
#------------------------------------------------------------------------------
#
# This file is available in the Crystallography Open Database (COD),
# http://www.crystallography.net/
#
# All data on this site have been placed in the public domain by the
# contributors.
#
data_4517983
loop_
_publ_author_name
'Mugnaioli, Enrico'
'Lanza, Arianna E.'
'Bortolozzi, Giorgio'
'Righi, Lara'
'Merlini, Marco'
'Cappello, Valentina'
'Marini, Lara'
'Athanassiou, Athanassia'
'Gemmi, Mauro'
_publ_section_title
;
 Electron Diffraction on Flash-Frozen Cowlesite Reveals the Structure of
 the First Two-Dimensional Natural Zeolite
;
_journal_name_full               'ACS Central Science'
_journal_paper_doi               10.1021/acscentsci.9b01100
_journal_year                    2020
_chemical_formula_sum            'Al6.38 Ca3 O33 Si9.62'
_chemical_formula_weight         1090.54
_space_group_IT_number           64
_space_group_name_Hall           '-C 2ac 2ac'
_space_group_name_H-M_alt        'C c m e'
_symmetry_cell_setting           orthorhombic
_audit_creation_method           SHELXL-2016/6
_cell_angle_alpha                90
_cell_angle_beta                 90
_cell_angle_gamma                90
_cell_formula_units_Z            16
_cell_length_a                   23.0(5)
_cell_length_b                   24.8(5)
_cell_length_c                   30.1(6)
_cell_measurement_temperature    293(2)
_cell_volume                     17169(6)
_computing_structure_refinement  'SHELXL-2016/6 (Sheldrick, 2016)'
_diffrn_ambient_temperature      293(2)
_diffrn_detector                 'ASI MEDIPIX'
_diffrn_measured_fraction_theta_full 0.730
_diffrn_measured_fraction_theta_max 0.730
_diffrn_measurement_device       'electron microscope'
_diffrn_measurement_device_type  'Zeiss Libra 120'
_diffrn_measurement_method
'data have been collected by precession-assisted 3D electron diffration'
_diffrn_radiation_type           electron
_diffrn_radiation_wavelength     0.0335
_diffrn_reflns_av_R_equivalents  0.3841
_diffrn_reflns_av_unetI/netI     0.1856
_diffrn_reflns_Laue_measured_fraction_full 0.730
_diffrn_reflns_Laue_measured_fraction_max 0.730
_diffrn_reflns_limit_h_max       19
_diffrn_reflns_limit_h_min       -19
_diffrn_reflns_limit_k_max       20
_diffrn_reflns_limit_k_min       -20
_diffrn_reflns_limit_l_max       21
_diffrn_reflns_limit_l_min       -21
_diffrn_reflns_number            10464
_diffrn_reflns_point_group_measured_fraction_full 0.730
_diffrn_reflns_point_group_measured_fraction_max 0.730
_diffrn_reflns_theta_full        0.800
_diffrn_reflns_theta_max         0.800
_diffrn_reflns_theta_min         0.083
_exptl_absorpt_coefficient_mu    0.001
_exptl_crystal_density_diffrn    1.688
_exptl_crystal_description       nanocrystal
_exptl_crystal_F_000             3017
_refine_diff_density_max         0.447
_refine_diff_density_min         -0.345
_refine_diff_density_rms         0.096
_refine_ls_extinction_method     none
_refine_ls_goodness_of_fit_ref   3.954
_refine_ls_hydrogen_treatment    undef
_refine_ls_matrix_type           full
_refine_ls_number_parameters     165
_refine_ls_number_reflns         1970
_refine_ls_number_restraints     2256
_refine_ls_restrained_S_all      2.813
_refine_ls_R_factor_all          0.4471
_refine_ls_R_factor_gt           0.4423
_refine_ls_shift/su_max          0.692
_refine_ls_shift/su_mean         0.005
_refine_ls_structure_factor_coef Fsqd
_refine_ls_weighting_details
'w=1/[\s^2^(Fo^2^)+(0.1000P)^2^] where P=(Fo^2^+2Fc^2^)/3'
_refine_ls_weighting_scheme      calc
_refine_ls_wR_factor_gt          0.7412
_refine_ls_wR_factor_ref         0.7424
_reflns_Friedel_coverage         0.000
_reflns_number_gt                1856
_reflns_number_total             1970
_reflns_threshold_expression     'I > 2\s(I)'
_cod_data_source_file            oc9b01100_si_003.cif
_cod_data_source_block           shelx
_cod_original_cell_volume        17169(613)
_cod_database_code               4517983
_shelx_shelxl_version_number     2016/6
_shelx_space_group_comment
;
The symmetry employed for this shelxl refinement is uniquely defined
by the following loop, which should always be used as a source of
symmetry information in preference to the above space-group names.
They are only intended as comments.
;
_shelx_res_file
;
REM
REM  Shelx file produced by Sir2014 on Tue Sep 12  2017 at 10:26:23
REM  Structure name: cowlesite
REM
TITL    cowlesite
    shelx.res
    created by SHELXL-2016/6 at 12:52:13 on 25-Oct-2019
CELL   0.03350    23.0000  24.8000  30.1000  90.0000  90.0000  90.0000
ZERR        16     0.5000   0.5000   0.6000   0.0000   0.0000   0.0000
LATT  7
SYMM 1/2-X,-Y,1/2+Z
SYMM 1/2+X,-Y,1/2-Z
SYMM -X,Y,-Z
EQIV $1   x+1/2, y, -z+1/2
EQIV $2   -x+1/2, -y+1/2, -z
EQIV $3   x, -y, z
EQIV $4   -x+1/2, -y+1, z+1/2
EQIV $5   -x+1/2, y+1/2, -z+1
EQIV $6   -x+1, -y+1/2, z+1/2
EQIV $7   -x+1, y+1/2, z+1/2
EQIV $8   x, -y+1/2, -z+1/2
EQIV $9   x-1/2, y, -z+1/2
EQIV $10  x-1/2, -y+1/2, z
EQIV $11  -x+1, y, -z
EQIV $12  x+1/2, -y+1/2, z
EQIV $13  -x+1, -y+1/2, z-1/2
EQIV $14  -x+1/2, -y+1, z-1/2
EQIV $15  -x+1/2, y-1/2, -z+1
REM  ------ Electron scattering factors ------
REM  SFAC Species a(1) b(1) a(2) b(2) a(3) b(3) =
REM  a(4) b(4) c f' f'' mu cov_radius weight
SFAC O      0.45480  23.78030   0.91730   7.62200   0.47190   2.14400 =
            0.13840   0.29590   0.00000   0.000   0.000   0.000   0.730  15.999
SFAC SI     2.12930  57.77480   2.53330  16.47560   0.83490   2.87960 =
            0.32160   0.38600   0.00000   0.000   0.000   0.000   1.110  28.086
SFAC AL     2.27560  72.32200   2.42800  19.77290   0.85780   3.07990 =
            0.31660   0.40760   0.00000   0.000   0.000   0.000   1.180  26.981
SFAC CA     4.46960  99.52280   2.97080  22.69580   1.96960   4.19540 =
            0.48180   0.41650   0.00000   0.000   0.000   2.090   1.400  40.080
UNIT 528 154 102 48
L.S.     100
FMAP      -2
PLAN     25
SHEL   12 1.2
BOND
LIST 4
ACTA
WGHT    0.100000
FVAR       0.11247   0.03243   0.04679
CA1   4    0.051833    0.250000    0.250000    10.50000    0.06668
CA2   4    0.288402    0.138775    0.203206    11.00000   -0.00100
CA3   4    0.301193    0.332659    0.045590    11.00000    0.05374
CA4   4    0.500000    0.227141    0.000000    10.50000    0.09055
SI1   2    0.417634    0.058910    0.198262    10.60000   31.00000
AFIX   3
AL1   3    0.417634    0.058910    0.198262    10.40000   31.00000
AFIX   0
SI2   2    0.163383    0.162535    0.315491    10.60000   31.00000
AFIX   3
AL2   3    0.163383    0.162535    0.315491    10.40000   31.00000
AFIX   0
SI3   2    0.238697    0.060752    0.097106    10.60000   31.00000
AFIX   3
AL3   3    0.238697    0.060752    0.097106    10.40000   31.00000
AFIX   0
SI4   2    0.239954    0.061947    0.292389    10.60000   31.00000
AFIX   3
AL4   3    0.239954    0.061947    0.292389    10.40000   31.00000
AFIX   0
SI5   2    0.373416    0.056094    0.296522    10.60000   31.00000
AFIX   3
AL5   3    0.373416    0.056094    0.296522    10.40000   31.00000
AFIX   0
SI6   2    0.232127    0.229127    0.157048    10.60000   31.00000
AFIX   3
AL6   3    0.232127    0.229127    0.157048    10.40000   31.00000
AFIX   0
SI7   2    0.062699    0.191989    0.136538    10.60000   31.00000
AFIX   3
AL7   3    0.062699    0.191989    0.136538    10.40000   31.00000
AFIX   0
SI8   2    0.198063    0.062124    0.200128    10.60000   31.00000
AFIX   3
AL8   3    0.198063    0.062124    0.200128    10.40000   31.00000
AFIX   0
SI9   2    0.165706    0.167811    0.078559    10.60000   31.00000
AFIX   3
AL9   3    0.165706    0.167811    0.078559    10.40000   31.00000
AFIX   0
SI10  2    0.460223    0.167724    0.216301    10.60000   31.00000
AFIX   3
AL10  3    0.460223    0.167724    0.216301    10.40000   31.00000
AFIX   0
SI11  2    0.375029    0.063343    0.100977    10.60000   31.00000
AFIX   3
AL11  3    0.375029    0.063343    0.100977    10.40000   31.00000
AFIX   0
SI12  2    0.375740    0.223406    0.155756    10.60000   31.00000
AFIX   3
AL12  3    0.375740    0.223406    0.155756    10.40000   31.00000
AFIX   0
SI13  2    0.445622    0.167193    0.318271    10.60000   31.00000
AFIX   3
AL13  3    0.445622    0.167193    0.318271    10.40000   31.00000
AFIX   0
SI14  2    0.147559    0.165488    0.210999    10.60000   31.00000
AFIX   3
AL14  3    0.147559    0.165488    0.210999    10.40000   31.00000
AFIX   0
SI15  2    0.448051    0.159116    0.080865    10.60000   31.00000
AFIX   3
AL15  3    0.448051    0.159116    0.080865    10.40000   31.00000
AFIX   0
SI16  2    0.545855    0.189567    0.138957    10.60000   31.00000
AFIX   3
AL16  3    0.545855    0.189567    0.138957    10.40000   31.00000
AFIX   0
O1    1    0.214204    0.000000    0.295194    10.50000   21.00000
O2    1    0.213261    0.185321    0.195969    11.00000   21.00000
O3    1    0.411876    0.108514    0.313742    11.00000   21.00000
O4    1    0.140044    0.101327    0.197929    11.00000   21.00000
O5    1    0.417657    0.100486    0.069339    11.00000   21.00000
O6    1    0.468436    0.186228    0.268720    11.00000   21.00000
O7    1    0.242511    0.081543    0.239974    11.00000   21.00000
O8    1    0.512069    0.196755    0.186827    11.00000   21.00000
O9    1    0.374002    0.052615    0.241704    11.00000   21.00000
O10   1    0.201722    0.211708    0.109252    11.00000   21.00000
O11   1    0.138149    0.172873    0.264985    11.00000   21.00000
O12   1    0.469045    0.102055    0.212303    11.00000   21.00000
O13   1    0.098078    0.200721    0.183765    11.00000   21.00000
O14   1    0.509940    0.147171    0.106895    11.00000   21.00000
O15   1    0.382588    0.079836    0.153603    11.00000   21.00000
O16   1    0.220114    0.000000    0.079709    10.50000   21.00000
O17   1    0.404379    0.197424    0.110304    11.00000   21.00000
O18   1    0.231715    0.064112    0.151655    11.00000   21.00000
O19   1    0.448457    0.000000    0.187637    10.50000   21.00000
O20   1    0.400817    0.000000    0.317578    10.50000   21.00000
O21   1    0.201458    0.110016    0.073945    11.00000   21.00000
O22   1    0.305807    0.063553    0.314001    11.00000   21.00000
O23   1    0.101772    0.155669    0.101831    11.00000   21.00000
O24   1    0.195584    0.103107    0.318948    11.00000   21.00000
O25   1    0.402208    0.214899    0.337160    11.00000   21.00000
O26   1    0.392428    0.000000    0.092569    10.50000   21.00000
O27   1    0.153903    0.190961    0.027845    11.00000   21.00000
O28   1    0.395449    0.186219    0.198765    11.00000   21.00000
O29   1    0.111323    0.164672    0.353140    11.00000   21.00000
O30   1    0.304027    0.227096    0.152476    11.00000   21.00000
O31   1    0.307536    0.072435    0.084898    11.00000   21.00000
O32   1    0.462549    0.190324    0.033540    11.00000   21.00000
O33   1    0.049373    0.251403    0.113791    11.00000   21.00000
O34   1    0.000678    0.160864    0.146993    11.00000   21.00000
O35   1    0.824007    0.500000    0.710404    10.50000   21.00000
O36   1    0.288135    0.790370    0.827652    11.00000   21.00000
SADI 0.02 Si1  O12     Si1  O9      Si1  O19     Si1  O15 =
          SI2  O24     SI2  O11     SI2  O29     SI2  O36_$14 =
          SI3  O21     SI3  O18     SI3  O31     SI3  O16 =
          SI4  O7      SI4  O1      SI4  O22     SI4  O24 =
          SI5  O22     SI5  O3      SI5  O9      SI5  O20 =
          SI6  O10     SI6  O36_$15 SI6  O2      SI6  O30 =
          SI7  O23     SI7  O13     SI7  O33     SI7  O34 =
          SI8  O35_$13 SI8  O7      SI8  O18     SI8  O4 =
          SI9  O27     SI9  O21     SI9  O23     SI9  O10 =
          SI10 O6      SI10 O28     SI10 O8      SI10 O12 =
          SI11 O26     SI11 O31     SI11 O5      SI11 O15 =
          SI12 O25_$8  SI12 O30     SI12 O28     SI12 O17 =
          SI13 O34_$1  SI13 O3      SI13 O25     SI13 O6 =
          SI14 O11     SI14 O4      SI14 O13     SI14 O2 =
          SI15 O32     SI15 O17     SI15 O5      SI15 O14 =
          SI16 O8      SI16 O29_$1  SI16 O33_$12 SI16 O14
SADI 0.05 O12 O9 O12 O19 O12 O15 O9 O19 O9 O15 O19 O15
SADI 0.05 O24 O11 O24 O29 O24 O36_$14 O11 O29 O11 O36_$14 =
         O29 O36_$14
SADI 0.05 O21 O18 O21 O31 O21 O16 O18 O31 O18 O16 O31 O16
SADI 0.05 O7 O1 O7 O22 O7 O24 O1 O22 O1 O24 O22 O24
SADI 0.05 O22 O3 O22 O9 O22 O20 O3 O9 O3 O20 O9 O20
SADI 0.05 O10 O36_$15 O10 O2 O10 O30 O36_$15 O2 O36_$15 O30 =
         O2 O30
SADI 0.05 O23 O13 O23 O33 O23 O34 O13 O33 O13 O34 O33 O34
SADI 0.05 O35_$13 O7 O35_$13 O18 O35_$13 O4 O7 O18 O7 O4 O18 O4
SADI 0.05 O27 O21 O27 O23 O27 O10 O21 O23 O21 O10 O23 O10
SADI 0.05 O6 O28 O6 O8 O6 O12 O28 O8 O28 O12 O8 O12
SADI 0.05 O26 O31 O26 O5 O26 O15 O31 O5 O31 O15 O5 O15
SADI 0.05 O25_$8 O30 O25_$8 O28 O25_$8 O17 O30 O28 O30 O17 =
         O28 O17
SADI 0.05 O34_$1 O3 O34_$1 O25 O34_$1 O6 O3 O25 O3 O6 O25 O6
SADI 0.05 O11 O4 O11 O13 O11 O2 O4 O13 O4 O2 O13 O2
SADI 0.05 O32 O17 O32 O5 O32 O14 O17 O5 O17 O14 O5 O14
SADI 0.05 O8 O29_$1 O8 O33_$12 O8 O14 O29_$1 O33_$12 =
          O29_$1 O14 O33_$12 O14
HKLF      4




REM     cowlesite
REM R1 =  0.4423 for    1856 Fo > 4sig(Fo)  and  0.4471 for all    1970 data
REM    165 parameters refined using   2256 restraints

END

WGHT      0.2000      0.0000

REM Highest difference peak  0.447,  deepest hole -0.345,  1-sigma level  0.096
Q1    1   0.4841  0.0350  0.3496  11.00000  0.05    0.45
Q2    1   0.1350  0.0292  0.3592  11.00000  0.05    0.45
Q3    1   0.0269  0.0504  0.1904  11.00000  0.05    0.35
Q4    1   0.1548  0.2500  0.2500  10.50000  0.05   -0.35
Q5    1   0.2817  0.0000  0.1135  10.50000  0.05   -0.34
Q6    1   0.3846  0.0000  0.1578  10.50000  0.05   -0.34
Q7    1   0.5044  0.0000  0.2831  10.50000  0.05    0.33
Q8    1   0.2603  0.1077  0.2055  11.00000  0.05   -0.33
Q9    1   0.1844  0.0000  0.0885  10.50000  0.05   -0.33
Q10   1   0.5349  0.1946  0.1512  11.00000  0.05    0.33
Q11   1   0.7946  0.5000  0.6752  10.50000  0.05   -0.33
Q12   1   0.5258  0.0790  0.2682  11.00000  0.05    0.33
Q13   1   0.0767  0.1970  0.1633  11.00000  0.05    0.32
Q14   1   0.1214  0.2031  0.3584  11.00000  0.05   -0.32
Q15   1   0.3056  0.2500  0.2500  10.50000  0.05    0.32
Q16   1   0.1389  0.0000  0.1282  10.50000  0.05   -0.31
Q17   1   0.3035  0.1887  0.2753  11.00000  0.05    0.31
Q18   1   0.2164  0.0066  0.1632  11.00000  0.05   -0.31
Q19   1   0.5691  0.0530  0.1830  11.00000  0.05    0.30
Q20   1   0.5687  0.0605  0.2203  11.00000  0.05    0.29
Q21   1   0.1058  0.1519  0.3476  11.00000  0.05   -0.29
Q22   1   0.2698  0.0000  0.2723  10.50000  0.05   -0.29
Q23   1   0.5723  0.0483  0.2150  11.00000  0.05    0.29
Q24   1   0.3918  0.1205  0.2141  11.00000  0.05   -0.29
Q25   1   0.4488  0.0000  0.2501  10.50000  0.05    0.28
;
_shelx_res_checksum              27323
_shelx_hkl_file
;
 -24 -16  -7    7.00    2.65   1
 -24 -16  -6    4.60    2.14   1
 -24 -16  -5    4.61    2.15   1
 -24 -16  -4    8.44    2.90   1
 -24 -16  -1   18.28    4.28   1
 -24 -16   1   11.43    3.38   1
 -24 -16   2    7.43    2.72   1
 -24 -16   5   12.75    3.57   1
 -24 -16   6    4.50    2.12   1
 -24 -16   7    9.98    3.16   1
 -24 -16   8    6.31    2.51   1
 -24 -16   9    1.76    1.33   1
 -24 -14 -11   12.15    3.49   1
 -24 -14 -10    4.20    2.05   1
 -24 -14  -9    2.21    1.49   1
 -24 -14  -8   19.13    4.37   1
 -24 -14  -7   10.53    3.24   1
 -24 -14  -2    6.08    2.47   1
 -24 -14  -1   16.35    4.04   1
 -24 -14   3    9.60    3.10   1
 -24 -14   6    7.69    2.77   1
 -24 -14   8   12.92    3.59   1
 -24 -14  11    4.31    2.08   1
 -24 -14  12    6.68    2.58   1
 -24 -14  13    3.18    1.78   1
 -24 -12 -12    5.17    2.27   1
 -24 -12  -8   16.24    4.03   1
 -24 -12  -4   11.32    3.37   1
 -24 -12   0    5.66    2.38   1
 -24 -12   1   14.51    3.81   1
 -24 -12   4   11.13    3.34   1
 -24 -12   5    5.18    2.27   1
 -24 -12   6    8.80    2.97   1
 -24 -12   7    5.32    2.31   1
 -24 -12   8   17.58    4.19   1
 -24 -12  10    3.90    1.97   1
 -24 -12  13    2.55    1.60   1
 -24 -10 -11   12.38    3.52   1
 -24 -10  -8    4.17    2.04   1
 -24 -10  -7   17.49    4.18   1
 -24 -10  -6   11.51    3.39   1
 -24 -10  -3    5.14    2.27   1
 -24 -10   0   10.43    3.23   1
 -24 -10   1   26.77    5.17   1
 -24 -10   2   14.59    3.82   1
 -24 -10   3   11.77    3.43   1
 -24 -10   4    9.60    3.10   1
 -24 -10   7   15.73    3.97   1
 -24 -10   8   13.95    3.73   1
 -24 -10  10    9.45    3.07   1
 -24 -10  12    6.76    2.60   1
 -24 -10  16    5.40    2.32   1
 -24 -10  17    6.38    2.52   1
 -24  -8 -15    6.67    2.58   1
 -24  -8 -14    5.96    2.44   1
 -24  -8 -13    7.35    2.71   1
 -24  -8 -11    4.57    2.14   1
 -24  -8 -10    1.90    1.38   1
 -24  -8  -9   26.25    5.12   1
 -24  -8  -7    8.40    2.90   1
 -24  -8  -5    8.77    2.96   1
 -24  -8  -4    2.55    1.60   1
 -24  -8  -2    5.51    2.35   1
 -24  -8   0    3.22    1.80   1
 -24  -8   2   15.68    3.96   1
 -24  -8   3   17.10    4.14   1
 -24  -8   4    9.98    3.16   1
 -24  -8   7   17.92    4.23   1
 -24  -8   8    6.83    2.61   1
 -24  -8  10    6.38    2.52   1
 -24  -8  12    3.97    1.99   1
 -24  -8  14   15.52    3.94   1
 -24  -8  15   11.44    3.38   1
 -24  -8  18    9.71    3.12   1
 -24  -6  -8    7.89    2.81   1
 -24  -6  -7   23.17    4.81   1
 -24  -6  -5    2.42    1.56   1
 -24  -6  -4    8.62    2.94   1
 -24  -6  -3    7.84    2.80   1
 -24  -6  -2    5.55    2.36   1
 -24  -6  -1    2.85    1.69   1
 -24  -6   0   16.69    4.09   1
 -24  -6   1    7.35    2.71   1
 -24  -6   2    9.05    3.01   1
 -24  -6   3   20.77    4.56   1
 -24  -6   5    1.58    1.26   1
 -24  -6   7   12.30    3.51   1
 -24  -6   8   10.95    3.31   1
 -24  -6  10   10.20    3.19   1
 -24  -6  11    2.25    1.50   1
 -24  -6  13   10.52    3.24   1
 -24  -6  15    8.70    2.95   1
 -24  -6  17    3.09    1.76   1
 -24  -6  20    5.03    2.24   1
 -24  -4 -17    5.00    2.24   1
 -24  -4 -14    5.79    2.41   1
 -24  -4 -12    6.13    2.48   1
 -24  -4 -11    6.72    2.59   1
 -24  -4 -10   28.59    5.35   1
 -24  -4  -9    6.34    2.52   1
 -24  -4  -3   22.80    4.77   1
 -24  -4   1   16.14    4.02   1
 -24  -4   3   13.27    3.64   1
 -24  -4   5   16.84    4.10   1
 -24  -4   7   15.91    3.99   1
 -24  -4  12    2.64    1.62   1
 -24  -4  13    9.86    3.14   1
 -24  -4  14   12.68    3.56   1
 -24  -4  18    5.38    2.32   1
 -24  -2 -14    2.01    1.42   1
 -24  -2 -11    1.64    1.28   1
 -24  -2  -8    2.03    1.42   1
 -24  -2  -2    3.66    1.91   1
 -24  -2  -1   11.93    3.45   1
 -24  -2   0   21.49    4.64   1
 -24  -2   1    8.31    2.88   1
 -24  -2   2    2.73    1.65   1
 -24  -2   3   32.32    5.68   1
 -24  -2   4    4.54    2.13   1
 -24  -2   7   17.10    4.14   1
 -24  -2   9    8.58    2.93   1
 -24  -2  12    3.08    1.75   1
 -24  -2  14   10.07    3.17   1
 -24  -2  15    7.09    2.66   1
 -24  -2  17    8.40    2.90   1
 -24   0 -14    2.34    1.53   1
 -24   0 -13   10.53    3.24   1
 -24   0 -12   22.35    4.73   1
 -24   0 -11    5.25    2.29   1
 -24   0  -9   13.31    3.65   1
 -24   0  -6    8.59    2.93   1
 -24   0  -5    8.67    2.94   1
 -24   0  -4    8.55    2.92   1
 -24   0  -3    5.06    2.25   1
 -24   0  -2    9.29    3.05   1
 -24   0   0    4.35    2.09   1
 -24   0   1   19.63    4.43   1
 -24   0   2   21.88    4.68   1
 -24   0   3   10.02    3.17   1
 -24   0   6   13.09    3.62   1
 -24   0   7    9.64    3.10   1
 -24   0  10    3.22    1.80   1
 -24   0  16    1.84    1.36   1
 -24   2 -14    3.53    1.88   1
 -24   2 -13    7.31    2.70   1
 -24   2 -10    8.10    2.85   1
 -24   2  -9   10.07    3.17   1
 -24   2  -7    4.37    2.09   1
 -24   2  -3   17.43    4.17   1
 -24   2   0   32.85    5.73   1
 -24   2   2   25.19    5.02   1
 -24   2   3   19.58    4.42   1
 -24   2   4   29.92    5.47   1
 -24   2   5   22.27    4.72   1
 -24   2   7   10.24    3.20   1
 -24   2   9    6.79    2.61   1
 -24   2  11    4.38    2.09   1
 -24   4 -16    2.70    1.64   1
 -24   4 -15    3.65    1.91   1
 -24   4 -14   13.91    3.73   1
 -24   4 -12    5.78    2.40   1
 -24   4 -10   13.88    3.72   1
 -24   4  -9   17.77    4.22   1
 -24   4  -7    9.00    3.00   1
 -24   4  -5   10.69    3.27   1
 -24   4  -3   22.83    4.78   1
 -24   4  -2    6.82    2.61   1
 -24   4  -1    7.39    2.72   1
 -24   4   1    5.50    2.35   1
 -24   4   2   11.08    3.33   1
 -24   4   3   11.22    3.35   1
 -24   4   5    5.99    2.45   1
 -24   4   7    2.44    1.56   1
 -24   4   8   10.54    3.25   1
 -24   4   9    5.35    2.31   1
 -24   4  10   11.56    3.40   1
 -24   4  11    9.82    3.13   1
 -24   4  12    2.06    1.44   1
 -24   4  13   12.52    3.54   1
 -24   4  14   16.90    4.11   1
 -24   6 -13    6.91    2.63   1
 -24   6 -11    5.42    2.33   1
 -24   6  -9    9.88    3.14   1
 -24   6  -5   11.10    3.33   1
 -24   6  -4   20.96    4.58   1
 -24   6  -3    6.22    2.49   1
 -24   6  -2   16.77    4.10   1
 -24   6  -1   16.07    4.01   1
 -24   6   0    2.78    1.67   1
 -24   6   2   24.04    4.90   1
 -24   6   5    2.70    1.64   1
 -24   6   6    5.81    2.41   1
 -24   6   8    5.70    2.39   1
 -24   6   9    2.88    1.70   1
 -24   6  10   18.55    4.31   1
 -24   6  11   12.91    3.59   1
 -24   6  12   12.49    3.53   1
 -24   6  13    6.18    2.48   1
 -24   8 -13    8.85    2.97   1
 -24   8 -12   20.14    4.49   1
 -24   8 -11    4.57    2.14   1
 -24   8 -10   17.73    4.21   1
 -24   8  -8    2.40    1.55   1
 -24   8  -7   11.89    3.45   1
 -24   8  -4    3.85    1.96   1
 -24   8  -3    9.07    3.01   1
 -24   8  -2   13.05    3.61   1
 -24   8   0    2.96    1.72   1
 -24   8   1   19.73    4.44   1
 -24   8   2    7.46    2.73   1
 -24   8   3   18.67    4.32   1
 -24   8   8   11.06    3.33   1
 -24   8  12   10.54    3.25   1
 -24   8  13   13.65    3.69   1
 -24  10 -12    3.23    1.80   1
 -24  10 -11   12.97    3.60   1
 -24  10  -9    2.56    1.60   1
 -24  10  -8    3.09    1.76   1
 -24  10  -6    5.40    2.32   1
 -24  10  -5   16.05    4.01   1
 -24  10  -1    4.08    2.02   1
 -24  10   1    4.50    2.12   1
 -24  10   2    5.78    2.40   1
 -24  10   3   12.66    3.56   1
 -24  10   8   13.61    3.69   1
 -24  10   9    3.33    1.83   1
 -24  10  11   11.63    3.41   1
 -24  10  12   12.49    3.53   1
 -24  10  13    7.28    2.70   1
 -24  12  -9    8.77    2.96   1
 -24  12  -8   10.13    3.18   1
 -24  12  -7   12.26    3.50   1
 -24  12  -5    9.95    3.15   1
 -24  12  -4    8.85    2.97   1
 -24  12  -2    2.17    1.47   1
 -24  12   1   12.92    3.59   1
 -24  12   8    3.97    1.99   1
 -24  12   9    5.85    2.42   1
 -24  12  10    9.00    3.00   1
 -24  14  -4    8.50    2.92   1
 -24  14  -3   10.39    3.22   1
 -24  14  -2    3.90    1.97   1
 -24  14  -1    7.46    2.73   1
 -24  14   0    8.85    2.97   1
 -24  14   1   10.50    3.24   1
 -24  14   2   16.38    4.05   1
 -24  14   3   10.15    3.19   1
 -24  14   5    3.08    1.75   1
 -24  14   8    5.36    2.32   1
 -24  14   9    1.81    1.35   1
 -23 -17  -9    3.15    1.77   1
 -23 -17  -8    4.24    2.06   1
 -23 -17  -7    2.70    1.64   1
 -23 -17  -5    3.60    1.90   1
 -23 -17  -4    7.43    2.73   1
 -23 -17  -2    5.03    2.24   1
 -23 -17   2    3.08    1.75   1
 -23 -17   3    2.70    1.64   1
 -23 -17   7    6.75    2.60   1
 -23 -17   8    3.24    1.80   1
 -23 -17  10    5.43    2.33   1
 -23 -15 -11    5.63    2.37   1
 -23 -15 -10    8.85    2.97   1
 -23 -15  -9    3.46    1.86   1
 -23 -15  -7    3.26    1.81   1
 -23 -15  -3    4.43    2.10   1
 -23 -15  -1    3.38    1.84   1
 -23 -15   0    4.28    2.07   1
 -23 -15   1   13.80    3.71   1
 -23 -15   3    4.57    2.14   1
 -23 -15   6    6.54    2.56   1
 -23 -15  11    6.37    2.52   1
 -23 -15  12    4.91    2.22   1
 -23 -13 -14    6.17    2.48   1
 -23 -13 -10   11.12    3.34   1
 -23 -13  -8   10.88    3.30   1
 -23 -13  -7   10.64    3.26   1
 -23 -13  -5   13.98    3.74   1
 -23 -13  -4   13.73    3.70   1
 -23 -13  -3    2.40    1.55   1
 -23 -13   2    7.95    2.82   1
 -23 -13   5    2.65    1.63   1
 -23 -13   6    4.50    2.12   1
 -23 -13   7   14.91    3.86   1
 -23 -13   9   26.70    5.17   1
 -23 -13  15    3.79    1.95   1
 -23 -13  16    5.18    2.27   1
 -23 -13  17    1.95    1.40   1
 -23 -11 -17    1.80    1.34   1
 -23 -11 -10   11.96    3.46   1
 -23 -11  -9   15.19    3.90   1
 -23 -11  -7   15.15    3.89   1
 -23 -11  -6    2.21    1.49   1
 -23 -11  -4   13.24    3.64   1
 -23 -11   0   10.45    3.23   1
 -23 -11   1    2.03    1.42   1
 -23 -11   4    4.16    2.04   1
 -23 -11   5    5.59    2.36   1
 -23 -11   6    4.65    2.16   1
 -23 -11   7    5.26    2.29   1
 -23 -11   8   11.10    3.33   1
 -23 -11   9    8.26    2.87   1
 -23 -11  10    9.30    3.05   1
 -23 -11  11   14.40    3.79   1
 -23 -11  12   29.02    5.39   1
 -23 -11  13    3.84    1.96   1
 -23 -11  15    7.49    2.74   1
 -23 -11  18    7.13    2.67   1
 -23 -11  19   13.57    3.68   1
 -23  -9 -18    2.81    1.68   1
 -23  -9 -13    1.73    1.31   1
 -23  -9 -12   21.15    4.60   1
 -23  -9 -11   20.14    4.49   1
 -23  -9 -10   12.16    3.49   1
 -23  -9  -8    8.66    2.94   1
 -23  -9  -7   23.07    4.80   1
 -23  -9  -6   12.64    3.55   1
 -23  -9  -2    2.26    1.50   1
 -23  -9   2   20.63    4.54   1
 -23  -9   3    8.85    2.97   1
 -23  -9   8   10.16    3.19   1
 -23  -9   9   15.75    3.97   1
 -23  -9  10   16.31    4.04   1
 -23  -9  12    6.41    2.53   1
 -23  -9  13    1.79    1.34   1
 -23  -9  14    7.58    2.75   1
 -23  -9  16    5.21    2.28   1
 -23  -9  18    6.50    2.55   1
 -23  -7 -17    6.42    2.53   1
 -23  -7 -15    8.89    2.98   1
 -23  -7 -14    9.00    3.00   1
 -23  -7 -13    8.70    2.95   1
 -23  -7 -12    8.51    2.92   1
 -23  -7 -11    8.70    2.95   1
 -23  -7 -10    5.25    2.29   1
 -23  -7  -6    1.69    1.30   1
 -23  -7  -2    3.49    1.87   1
 -23  -7  -1    2.33    1.52   1
 -23  -7   0   11.79    3.43   1
 -23  -7   4   20.46    4.52   1
 -23  -7   5   16.95    4.12   1
 -23  -7   6   11.18    3.34   1
 -23  -7  11    8.10    2.85   1
 -23  -7  12    3.86    1.97   1
 -23  -7  14   15.00    3.87   1
 -23  -7  16    4.24    2.06   1
 -23  -7  19    4.28    2.07   1
 -23  -5 -20    3.93    1.98   1
 -23  -5 -15    8.60    2.93   1
 -23  -5 -14   12.47    3.53   1
 -23  -5 -12    3.68    1.92   1
 -23  -5  -6    2.78    1.67   1
 -23  -5  -5    5.78    2.40   1
 -23  -5  -4   18.00    4.24   1
 -23  -5  -1   10.73    3.27   1
 -23  -5   0    4.69    2.17   1
 -23  -5   3   11.55    3.40   1
 -23  -5   4   11.18    3.34   1
 -23  -5   6   25.27    5.03   1
 -23  -5   7   10.43    3.23   1
 -23  -5  12   14.48    3.80   1
 -23  -5  14    8.86    2.98   1
 -23  -5  17   10.80    3.29   1
 -23  -5  22    3.18    1.78   1
 -23  -3 -14    6.76    2.60   1
 -23  -3 -12    9.68    3.11   1
 -23  -3  -8    3.95    1.99   1
 -23  -3  -7   20.33    4.51   1
 -23  -3  -5    3.10    1.76   1
 -23  -3  -4    4.35    2.09   1
 -23  -3  -3    3.15    1.78   1
 -23  -3  -2    7.28    2.70   1
 -23  -3  -1    6.15    2.48   1
 -23  -3   4   24.98    5.00   1
 -23  -3   5    7.61    2.76   1
 -23  -3   7    8.40    2.90   1
 -23  -3   9    5.70    2.39   1
 -23  -3  11    5.03    2.24   1
 -23  -3  12    9.07    3.01   1
 -23  -3  16    1.63    1.28   1
 -23  -3  17   18.79    4.33   1
 -23  -3  19    8.74    2.96   1
 -23  -3  20    5.71    2.39   1
 -23  -1 -18    3.38    1.84   1
 -23  -1 -13    5.21    2.28   1
 -23  -1  -7    4.50    2.12   1
 -23  -1  -6   12.56    3.54   1
 -23  -1  -4   12.75    3.57   1
 -23  -1  -3    5.30    2.30   1
 -23  -1  -2    9.33    3.05   1
 -23  -1   4    6.19    2.49   1
 -23  -1   5    6.26    2.50   1
 -23  -1   7    4.88    2.21   1
 -23  -1   8   15.26    3.91   1
 -23  -1  10   12.50    3.54   1
 -23  -1  11   11.30    3.36   1
 -23  -1  14   15.07    3.88   1
 -23  -1  17   10.88    3.30   1
 -23  -1  20    3.67    1.92   1
 -23   1 -17    8.85    2.97   1
 -23   1 -16   20.40    4.52   1
 -23   1 -14   10.05    3.17   1
 -23   1 -12    8.51    2.92   1
 -23   1 -11   10.80    3.29   1
 -23   1 -10   10.77    3.28   1
 -23   1  -9    4.22    2.05   1
 -23   1  -8    9.11    3.02   1
 -23   1  -6   14.63    3.82   1
 -23   1  -5    9.82    3.13   1
 -23   1  -3    9.45    3.07   1
 -23   1  -2    7.49    2.74   1
 -23   1   2   21.47    4.63   1
 -23   1   3    8.81    2.97   1
 -23   1   5    3.90    1.97   1
 -23   1   6   16.95    4.12   1
 -23   1   7    3.63    1.90   1
 -23   1  11   11.77    3.43   1
 -23   1  12   13.54    3.68   1
 -23   1  13    2.51    1.59   1
 -23   1  16   30.67    5.54   1
 -23   1  17    8.43    2.90   1
 -23   3 -17    4.94    2.22   1
 -23   3 -16   16.95    4.12   1
 -23   3 -15   13.54    3.68   1
 -23   3 -14    5.40    2.32   1
 -23   3 -13   13.13    3.62   1
 -23   3 -12    6.49    2.55   1
 -23   3 -10    6.90    2.63   1
 -23   3  -9   22.45    4.74   1
 -23   3  -8    4.15    2.04   1
 -23   3  -6    8.55    2.92   1
 -23   3  -5    7.69    2.77   1
 -23   3  -2   12.75    3.57   1
 -23   3   3    8.96    2.99   1
 -23   3   4   10.27    3.21   1
 -23   3   8   18.64    4.32   1
 -23   3   9   12.18    3.49   1
 -23   3  10    1.92    1.39   1
 -23   3  12   19.82    4.45   1
 -23   3  16   11.63    3.41   1
 -23   3  18   10.05    3.17   1
 -23   3  20    2.78    1.67   1
 -23   5 -16    6.70    2.59   1
 -23   5 -15    9.82    3.13   1
 -23   5 -14   17.85    4.22   1
 -23   5 -13    3.11    1.76   1
 -23   5  -9    9.15    3.02   1
 -23   5  -7    3.53    1.88   1
 -23   5  -2    1.70    1.30   1
 -23   5  -1    6.32    2.51   1
 -23   5   2    5.40    2.32   1
 -23   5   5    9.50    3.08   1
 -23   5   6   13.95    3.73   1
 -23   5   7    2.74    1.65   1
 -23   5  12    1.73    1.31   1
 -23   5  15   16.08    4.01   1
 -23   5  17    5.02    2.24   1
 -23   5  18    4.69    2.17   1
 -23   7 -15    3.12    1.77   1
 -23   7 -12   11.93    3.45   1
 -23   7 -10    7.52    2.74   1
 -23   7  -9   11.63    3.41   1
 -23   7  -8    5.34    2.31   1
 -23   7  -6   14.25    3.77   1
 -23   7  -5   11.02    3.32   1
 -23   7  -4   32.36    5.69   1
 -23   7  -3   13.98    3.74   1
 -23   7  -1    7.43    2.72   1
 -23   7   0    8.18    2.86   1
 -23   7   1   12.52    3.54   1
 -23   7   2   18.94    4.35   1
 -23   7   3   15.82    3.98   1
 -23   7   4    7.57    2.75   1
 -23   7   6    7.70    2.78   1
 -23   7   8    9.60    3.10   1
 -23   7  13   10.10    3.18   1
 -23   7  14    2.92    1.71   1
 -23   7  16    6.45    2.54   1
 -23   7  18    9.17    3.03   1
 -23   9 -13    1.95    1.40   1
 -23   9 -12   23.02    4.80   1
 -23   9 -10   12.04    3.47   1
 -23   9  -9    8.90    2.98   1
 -23   9  -7   36.38    6.03   1
 -23   9  -6   13.49    3.67   1
 -23   9  -4   28.20    5.31   1
 -23   9  -3    3.41    1.85   1
 -23   9  -2   12.93    3.60   1
 -23   9   5    9.27    3.05   1
 -23   9   6   12.52    3.54   1
 -23   9   8    8.75    2.96   1
 -23   9   9   14.20    3.77   1
 -23   9  10   18.86    4.34   1
 -23   9  11    9.86    3.14   1
 -23   9  14   14.94    3.86   1
 -23   9  16   11.13    3.34   1
 -23   9  17    6.40    2.53   1
 -23  11 -14    2.97    1.72   1
 -23  11 -13    1.52    1.23   1
 -23  11  -6   12.71    3.57   1
 -23  11  -2    8.10    2.85   1
 -23  11  -1    2.55    1.60   1
 -23  11   1    9.49    3.08   1
 -23  11   6   13.35    3.65   1
 -23  11   8    2.14    1.46   1
 -23  11  10   11.59    3.40   1
 -23  11  11    3.93    1.98   1
 -23  11  12   22.65    4.76   1
 -23  11  14   17.70    4.21   1
 -23  13 -10    4.05    2.01   1
 -23  13  -9   16.08    4.01   1
 -23  13  -8    4.89    2.21   1
 -23  13  -3   13.13    3.62   1
 -23  13  -2    5.36    2.32   1
 -23  13  -1   15.93    3.99   1
 -23  13   0    9.55    3.09   1
 -23  13   1   11.93    3.45   1
 -23  13   2    8.44    2.90   1
 -23  13   3    8.10    2.85   1
 -23  13   4   13.40    3.66   1
 -23  13   5   14.10    3.75   1
 -23  13   6   16.46    4.06   1
 -23  13   7    9.75    3.12   1
 -23  13   8   10.84    3.29   1
 -23  13  10   21.67    4.66   1
 -23  13  12   15.56    3.95   1
 -23  15  -8    2.13    1.46   1
 -23  15  -6   17.40    4.17   1
 -23  15  -5    1.71    1.31   1
 -23  15  -4   14.87    3.86   1
 -23  15  -1    7.83    2.80   1
 -23  15   0    3.05    1.75   1
 -23  15   4    7.38    2.72   1
 -23  15   5   19.58    4.42   1
 -23  15   6    4.57    2.14   1
 -23  15   8    3.59    1.90   1
 -23  15   9    9.68    3.11   1
 -23  15  10    7.50    2.74   1
 -23  17   5    3.53    1.88   1
 -22 -20  -3   14.02    3.74   1
 -22 -20  -2    3.22    1.80   1
 -22 -20  -1    7.50    2.74   1
 -22 -20   1    6.48    2.54   1
 -22 -20   4    2.25    1.50   1
 -22 -20   5   19.13    4.37   1
 -22 -18   6    5.46    2.34   1
 -22 -18  10    2.28    1.51   1
 -22 -16 -13   12.00    3.46   1
 -22 -16  -7    2.85    1.69   1
 -22 -16  -5    3.45    1.86   1
 -22 -16  -4    7.09    2.66   1
 -22 -16  -3    6.97    2.64   1
 -22 -16  -2    5.59    2.36   1
 -22 -16   1   16.80    4.10   1
 -22 -16   2   28.69    5.36   1
 -22 -16   4    5.13    2.27   1
 -22 -16   8    6.83    2.61   1
 -22 -16  15    2.86    1.69   1
 -22 -14 -15    1.61    1.27   1
 -22 -14 -12   10.20    3.19   1
 -22 -14 -11    4.11    2.03   1
 -22 -14  -7    4.88    2.21   1
 -22 -14  -4   15.46    3.93   1
 -22 -14  -1    7.38    2.72   1
 -22 -14   0   12.60    3.55   1
 -22 -14   1   15.45    3.93   1
 -22 -14   2   23.21    4.82   1
 -22 -14   3    2.55    1.60   1
 -22 -14   5   11.66    3.42   1
 -22 -14   6    5.00    2.24   1
 -22 -14   7    8.55    2.92   1
 -22 -14   9    3.08    1.75   1
 -22 -14  10    4.71    2.17   1
 -22 -14  12    2.53    1.59   1
 -22 -14  13    5.58    2.36   1
 -22 -14  14    2.82    1.68   1
 -22 -14  18    7.29    2.70   1
 -22 -12 -16   18.00    4.24   1
 -22 -12 -13   10.58    3.25   1
 -22 -12 -12    2.60    1.61   1
 -22 -12 -10    6.00    2.45   1
 -22 -12  -8   15.52    3.94   1
 -22 -12  -7   41.78    6.46   1
 -22 -12  -5    6.97    2.64   1
 -22 -12  -4    7.91    2.81   1
 -22 -12  -3   11.06    3.33   1
 -22 -12  -2   22.42    4.74   1
 -22 -12  -1    7.16    2.68   1
 -22 -12   0    6.82    2.61   1
 -22 -12   2   19.65    4.43   1
 -22 -12   4    7.28    2.70   1
 -22 -12   6    3.30    1.82   1
 -22 -12   9   16.20    4.02   1
 -22 -12  10   34.45    5.87   1
 -22 -12  11   16.20    4.02   1
 -22 -12  12    6.71    2.59   1
 -22 -12  13   10.99    3.32   1
 -22 -12  15    7.65    2.77   1
 -22 -12  16    5.27    2.29   1
 -22 -12  19   10.57    3.25   1
 -22 -12  20    5.05    2.25   1
 -22 -10 -16   12.14    3.48   1
 -22 -10 -15    2.08    1.44   1
 -22 -10 -10    4.84    2.20   1
 -22 -10  -9    9.56    3.09   1
 -22 -10  -8    8.89    2.98   1
 -22 -10  -7    2.19    1.48   1
 -22 -10  -5    1.50    1.22   1
 -22 -10  -4   11.17    3.34   1
 -22 -10  -3    5.14    2.27   1
 -22 -10   1   14.43    3.80   1
 -22 -10   2    1.95    1.40   1
 -22 -10   6   22.88    4.78   1
 -22 -10   7    4.95    2.22   1
 -22 -10   8   26.49    5.15   1
 -22 -10   9   26.66    5.16   1
 -22 -10  12   23.22    4.82   1
 -22 -10  15   14.44    3.80   1
 -22 -10  16    2.70    1.64   1
 -22 -10  18    7.50    2.74   1
 -22 -10  20    3.30    1.82   1
 -22  -8 -20    1.77    1.33   1
 -22  -8 -18    1.88    1.37   1
 -22  -8 -14   10.37    3.22   1
 -22  -8 -13   16.33    4.04   1
 -22  -8 -10    9.60    3.10   1
 -22  -8  -9   15.19    3.90   1
 -22  -8  -8    7.31    2.70   1
 -22  -8  -6   15.15    3.89   1
 -22  -8  -5    7.43    2.72   1
 -22  -8  -4   15.34    3.92   1
 -22  -8  -2   14.18    3.77   1
 -22  -8   0   16.54    4.07   1
 -22  -8   1   12.41    3.52   1
 -22  -8   2    2.49    1.58   1
 -22  -8   3    8.66    2.94   1
 -22  -8   5   14.55    3.81   1
 -22  -8  10    7.89    2.81   1
 -22  -8  12   36.83    6.07   1
 -22  -8  20    5.47    2.34   1
 -22  -6 -17    8.70    2.95   1
 -22  -6 -14    2.25    1.50   1
 -22  -6 -12    4.95    2.22   1
 -22  -6 -11    4.59    2.14   1
 -22  -6 -10   11.21    3.35   1
 -22  -6  -8   21.99    4.69   1
 -22  -6  -6   16.06    4.01   1
 -22  -6  -5   18.19    4.26   1
 -22  -6  -4    5.25    2.29   1
 -22  -6  -3   20.92    4.57   1
 -22  -6  -2   23.92    4.89   1
 -22  -6  -1   14.32    3.78   1
 -22  -6   0   84.45    9.19   1
 -22  -6   1   22.27    4.72   1
 -22  -6   2   54.11    7.36   1
 -22  -6   3    4.16    2.04   1
 -22  -6   4   22.32    4.72   1
 -22  -6   6   10.57    3.25   1
 -22  -6   7    9.30    3.05   1
 -22  -6   8   10.05    3.17   1
 -22  -6   9    5.03    2.24   1
 -22  -6  10   18.56    4.31   1
 -22  -6  11    2.70    1.64   1
 -22  -6  14   23.95    4.89   1
 -22  -6  15   26.57    5.15   1
 -22  -6  16   10.99    3.31   1
 -22  -6  17    2.14    1.46   1
 -22  -6  18    1.88    1.37   1
 -22  -6  20    5.80    2.41   1
 -22  -4 -19    7.43    2.72   1
 -22  -4 -16    7.13    2.67   1
 -22  -4 -13    8.00    2.83   1
 -22  -4 -10    9.89    3.15   1
 -22  -4  -9    5.59    2.36   1
 -22  -4  -8    5.42    2.33   1
 -22  -4  -6    3.64    1.91   1
 -22  -4  -5   10.13    3.18   1
 -22  -4  -2   11.13    3.34   1
 -22  -4   1    8.31    2.88   1
 -22  -4   2    5.07    2.25   1
 -22  -4   3    7.72    2.78   1
 -22  -4   4    8.11    2.85   1
 -22  -4   6    6.79    2.61   1
 -22  -4  12    9.26    3.04   1
 -22  -4  13    2.85    1.69   1
 -22  -4  14    2.33    1.52   1
 -22  -4  15    3.90    1.97   1
 -22  -4  16   11.21    3.35   1
 -22  -4  21    8.77    2.96   1
 -22  -4  22    1.51    1.23   1
 -22  -2 -19   15.86    3.98   1
 -22  -2 -18    1.86    1.36   1
 -22  -2 -17    5.87    2.42   1
 -22  -2 -16   10.73    3.27   1
 -22  -2  -8   10.24    3.20   1
 -22  -2  -7    5.66    2.38   1
 -22  -2  -5    4.35    2.09   1
 -22  -2  -4   22.82    4.78   1
 -22  -2  -1   18.00    4.24   1
 -22  -2   0    2.60    1.61   1
 -22  -2   1    8.22    2.87   1
 -22  -2   2   16.88    4.11   1
 -22  -2  10   15.68    3.96   1
 -22  -2  11    9.38    3.06   1
 -22  -2  13   12.45    3.53   1
 -22  -2  15   20.06    4.48   1
 -22  -2  17   10.76    3.28   1
 -22  -2  19    2.85    1.69   1
 -22  -2  21    9.52    3.09   1
 -22  -2  22    6.32    2.51   1
 -22   0 -19   11.97    3.46   1
 -22   0 -17    4.40    2.10   1
 -22   0 -15    1.88    1.37   1
 -22   0 -12   11.98    3.46   1
 -22   0 -11   13.88    3.72   1
 -22   0 -10   20.55    4.53   1
 -22   0  -8   11.66    3.42   1
 -22   0  -7   50.47    7.10   1
 -22   0  -4   14.21    3.77   1
 -22   0  -3    7.24    2.69   1
 -22   0  -2    4.81    2.19   1
 -22   0   0   30.86    5.56   1
 -22   0   1   10.10    3.18   1
 -22   0   2   25.73    5.07   1
 -22   0   3    6.03    2.46   1
 -22   0   5    9.71    3.12   1
 -22   0   6    7.46    2.73   1
 -22   0   7    3.93    1.98   1
 -22   0   8   40.71    6.38   1
 -22   0  10   20.17    4.49   1
 -22   0  12    5.61    2.37   1
 -22   0  18   17.33    4.16   1
 -22   0  20    9.82    3.13   1
 -22   0  21    8.78    2.96   1
 -22   0  22   21.67    4.66   1
 -22   2 -20    1.67    1.29   1
 -22   2 -19    2.00    1.41   1
 -22   2 -18    3.60    1.90   1
 -22   2 -17   12.22    3.50   1
 -22   2 -16    2.92    1.71   1
 -22   2 -15   12.54    3.54   1
 -22   2 -12    4.84    2.20   1
 -22   2 -10   16.61    4.08   1
 -22   2  -9   13.01    3.61   1
 -22   2  -8    7.65    2.77   1
 -22   2  -7   51.08    7.15   1
 -22   2  -6    7.95    2.82   1
 -22   2  -5    4.02    2.00   1
 -22   2  -4    3.90    1.97   1
 -22   2   0   12.34    3.51   1
 -22   2   1   31.95    5.65   1
 -22   2   2   29.17    5.40   1
 -22   2   5    9.07    3.01   1
 -22   2  10   49.45    7.03   1
 -22   2  12   17.40    4.17   1
 -22   2  13   11.40    3.38   1
 -22   2  15   13.07    3.61   1
 -22   2  17    2.55    1.60   1
 -22   2  22    2.74    1.66   1
 -22   4 -18   11.40    3.38   1
 -22   4 -17   13.49    3.67   1
 -22   4 -15   11.18    3.34   1
 -22   4 -14    2.06    1.44   1
 -22   4 -12    4.80    2.19   1
 -22   4 -11    4.83    2.20   1
 -22   4 -10   18.10    4.25   1
 -22   4  -9   14.55    3.81   1
 -22   4  -4   18.89    4.35   1
 -22   4  -3    5.44    2.33   1
 -22   4  -2   14.90    3.86   1
 -22   4  -1   10.70    3.27   1
 -22   4   0    9.75    3.12   1
 -22   4   1   20.06    4.48   1
 -22   4   2    5.29    2.30   1
 -22   4   3   12.98    3.60   1
 -22   4   4   11.55    3.40   1
 -22   4   6   16.46    4.06   1
 -22   4   7    2.92    1.71   1
 -22   4  21    9.82    3.13   1
 -22   4  22    1.56    1.25   1
 -22   6 -15    9.20    3.03   1
 -22   6 -13   11.40    3.38   1
 -22   6  -9    1.95    1.40   1
 -22   6  -8    7.62    2.76   1
 -22   6  -6   19.83    4.45   1
 -22   6  -5    3.67    1.92   1
 -22   6  -3    6.28    2.51   1
 -22   6  -2   17.14    4.14   1
 -22   6   0   35.38    5.95   1
 -22   6   2   52.82    7.27   1
 -22   6   6   10.19    3.19   1
 -22   6   7   10.73    3.27   1
 -22   6   8    6.04    2.46   1
 -22   6   9    9.82    3.13   1
 -22   6  10   57.60    7.59   1
 -22   6  11    2.63    1.62   1
 -22   6  12    4.80    2.19   1
 -22   6  13   14.86    3.86   1
 -22   6  14    8.83    2.97   1
 -22   6  18    9.10    3.02   1
 -22   6  20    6.64    2.58   1
 -22   8 -17   11.40    3.38   1
 -22   8 -15   14.93    3.86   1
 -22   8 -12    4.27    2.07   1
 -22   8 -11   22.02    4.69   1
 -22   8 -10   22.01    4.69   1
 -22   8  -9   12.63    3.55   1
 -22   8  -8   16.16    4.02   1
 -22   8  -6   22.05    4.70   1
 -22   8  -5    9.41    3.07   1
 -22   8  -3    4.57    2.14   1
 -22   8  -1   16.88    4.11   1
 -22   8   0   36.66    6.05   1
 -22   8   2    7.50    2.74   1
 -22   8   4   12.00    3.46   1
 -22   8   5   12.38    3.52   1
 -22   8   8    3.96    1.99   1
 -22   8  11    3.67    1.92   1
 -22   8  12   33.08    5.75   1
 -22   8  13    7.30    2.70   1
 -22   8  14   16.73    4.09   1
 -22   8  15   15.85    3.98   1
 -22   8  16    2.10    1.45   1
 -22   8  17    3.42    1.85   1
 -22   8  18    1.73    1.31   1
 -22   8  19   11.77    3.43   1
 -22   8  20   29.60    5.44   1
 -22  10 -14    8.59    2.93   1
 -22  10 -13   12.52    3.54   1
 -22  10 -11   10.95    3.31   1
 -22  10 -10   25.50    5.05   1
 -22  10  -6   23.70    4.87   1
 -22  10  -3    5.78    2.40   1
 -22  10   0   26.18    5.12   1
 -22  10   2   13.99    3.74   1
 -22  10   3    9.18    3.03   1
 -22  10   4    2.59    1.61   1
 -22  10   5    2.70    1.64   1
 -22  10   6    3.10    1.76   1
 -22  10   9    6.07    2.46   1
 -22  10  10   10.43    3.23   1
 -22  10  11    2.29    1.51   1
 -22  10  12   21.67    4.66   1
 -22  10  13    4.72    2.17   1
 -22  10  14    2.35    1.53   1
 -22  10  16   10.13    3.18   1
 -22  10  18    4.72    2.17   1
 -22  12 -15   11.06    3.33   1
 -22  12 -14    9.18    3.03   1
 -22  12 -12    7.65    2.77   1
 -22  12 -11    2.59    1.61   1
 -22  12  -9   11.16    3.34   1
 -22  12  -8   53.10    7.29   1
 -22  12  -7   17.20    4.15   1
 -22  12  -6    7.16    2.68   1
 -22  12  -4   10.61    3.26   1
 -22  12  -2   12.90    3.59   1
 -22  12   0   12.51    3.54   1
 -22  12   1   19.35    4.40   1
 -22  12   4    9.90    3.15   1
 -22  12   6   10.61    3.26   1
 -22  12   8    6.90    2.63   1
 -22  12   9   10.35    3.22   1
 -22  12  10   27.64    5.26   1
 -22  12  12    2.57    1.60   1
 -22  12  15   21.38    4.62   1
 -22  12  16    2.96    1.72   1
 -22  14 -14    1.91    1.38   1
 -22  14  -6    6.66    2.58   1
 -22  14  -5   17.60    4.20   1
 -22  14  -4    7.24    2.69   1
 -22  14  -3   12.86    3.59   1
 -22  14   0    3.54    1.88   1
 -22  14   1    4.09    2.02   1
 -22  14   2    6.38    2.52   1
 -22  14   6   16.13    4.02   1
 -22  14   7   14.69    3.83   1
 -22  14   8    8.18    2.86   1
 -22  14  10    2.14    1.46   1
 -22  14  12   26.10    5.11   1
 -22  16  -8   13.88    3.72   1
 -22  16  -6   23.48    4.85   1
 -22  16  -4   12.86    3.59   1
 -22  16  -2    7.98    2.82   1
 -22  16   0    9.38    3.06   1
 -22  16   1    7.57    2.75   1
 -22  16   2   24.46    4.95   1
 -22  16   3    6.07    2.46   1
 -22  16   4    9.18    3.03   1
 -22  16   5    1.52    1.23   1
 -22  16   7    5.21    2.28   1
 -22  16   8   13.01    3.61   1
 -22  16   9   18.79    4.33   1
 -22  16  10    6.64    2.58   1
 -22  16  11    2.81    1.68   1
 -21 -21  -2    5.40    2.32   1
 -21 -21   1    1.80    1.34   1
 -21 -21   2    7.29    2.70   1
 -21 -21   4    8.43    2.90   1
 -21 -21   5    8.21    2.87   1
 -21 -21   6    7.62    2.76   1
 -21 -19 -10    6.04    2.46   1
 -21 -19  -9    6.45    2.54   1
 -21 -19  -8    2.96    1.72   1
 -21 -19  -7   13.73    3.70   1
 -21 -19  -3    4.27    2.07   1
 -21 -19  -2    2.81    1.68   1
 -21 -19   2    6.85    2.62   1
 -21 -19   5   12.30    3.51   1
 -21 -19   6    8.22    2.87   1
 -21 -19   9    2.92    1.71   1
 -21 -19  12    7.01    2.65   1
 -21 -17 -13    7.57    2.75   1
 -21 -17 -11    9.79    3.13   1
 -21 -17  -8    7.43    2.72   1
 -21 -17  -6    2.80    1.67   1
 -21 -17  -3    8.58    2.93   1
 -21 -17  -2    6.30    2.51   1
 -21 -17   1    5.36    2.32   1
 -21 -17   4    5.46    2.34   1
 -21 -17   5    5.85    2.42   1
 -21 -17   6    5.70    2.39   1
 -21 -17   7    8.44    2.90   1
 -21 -17  12   13.46    3.67   1
 -21 -17  14    4.82    2.19   1
 -21 -17  15    4.15    2.04   1
 -21 -17  16    3.84    1.96   1
 -21 -15 -17   18.14    4.26   1
 -21 -15 -12    3.52    1.88   1
 -21 -15 -10    5.06    2.25   1
 -21 -15  -6   10.21    3.20   1
 -21 -15  -5    4.33    2.08   1
 -21 -15  -4    3.15    1.77   1
 -21 -15  -3   10.65    3.26   1
 -21 -15  -1    9.23    3.04   1
 -21 -15   0    7.82    2.80   1
 -21 -15   1   15.59    3.95   1
 -21 -15   2    2.85    1.69   1
 -21 -15   4   20.71    4.55   1
 -21 -15   5   21.98    4.69   1
 -21 -15   6   11.32    3.37   1
 -21 -15   9   10.59    3.25   1
 -21 -15  10   14.63    3.82   1
 -21 -15  13    2.63    1.62   1
 -21 -15  14    4.18    2.05   1
 -21 -15  15    6.90    2.63   1
 -21 -15  17    6.07    2.46   1
 -21 -15  18   16.39    4.05   1
 -21 -15  19    4.80    2.19   1
 -21 -13 -13    8.02    2.83   1
 -21 -13 -12   11.55    3.40   1
 -21 -13 -10    4.81    2.19   1
 -21 -13  -8    7.69    2.77   1
 -21 -13  -7    2.23    1.49   1
 -21 -13  -5   38.78    6.23   1
 -21 -13  -4    4.43    2.10   1
 -21 -13  -3   18.52    4.30   1
 -21 -13  -2   12.80    3.58   1
 -21 -13  -1   17.28    4.16   1
 -21 -13   0    5.10    2.26   1
 -21 -13   1    1.84    1.36   1
 -21 -13   2   26.92    5.19   1
 -21 -13   3   16.65    4.08   1
 -21 -13   4   18.73    4.33   1
 -21 -13   6    5.47    2.34   1
 -21 -13   7   13.39    3.66   1
 -21 -13   8   31.54    5.62   1
 -21 -13   9   26.21    5.12   1
 -21 -13  10    4.80    2.19   1
 -21 -13  11    3.77    1.94   1
 -21 -13  14   14.63    3.82   1
 -21 -13  15    2.10    1.45   1
 -21 -13  17    3.12    1.77   1
 -21 -13  18    5.32    2.31   1
 -21 -13  19    8.08    2.84   1
 -21 -11 -19    1.88    1.37   1
 -21 -11 -14    7.55    2.75   1
 -21 -11 -10   16.92    4.11   1
 -21 -11  -6    8.06    2.84   1
 -21 -11  -5    6.15    2.48   1
 -21 -11  -3    3.90    1.97   1
 -21 -11  -2    8.73    2.96   1
 -21 -11  -1    3.38    1.84   1
 -21 -11   2   11.29    3.36   1
 -21 -11   5    1.95    1.40   1
 -21 -11   6    5.32    2.31   1
 -21 -11   8   20.25    4.50   1
 -21 -11  10    2.96    1.72   1
 -21 -11  11   16.73    4.09   1
 -21 -11  12    9.08    3.01   1
 -21 -11  13    1.54    1.24   1
 -21 -11  14    6.26    2.50   1
 -21 -11  17    3.79    1.95   1
 -21 -11  19   16.87    4.11   1
 -21 -11  20    8.55    2.92   1
 -21 -11  22    6.22    2.49   1
 -21  -9 -21   18.65    4.32   1
 -21  -9 -20    2.40    1.55   1
 -21  -9 -15    2.74    1.65   1
 -21  -9 -14    6.00    2.45   1
 -21  -9  -7    2.55    1.60   1
 -21  -9  -5    7.09    2.66   1
 -21  -9  -3    4.57    2.14   1
 -21  -9   2    9.82    3.13   1
 -21  -9   8   18.41    4.29   1
 -21  -9   9   22.61    4.75   1
 -21  -9  10    5.25    2.29   1
 -21  -9  11    9.44    3.07   1
 -21  -9  13   19.73    4.44   1
 -21  -9  16   15.82    3.98   1
 -21  -9  18    5.49    2.34   1
 -21  -9  23    3.75    1.94   1
 -21  -7 -23    6.60    2.57   1
 -21  -7 -21    9.60    3.10   1
 -21  -7 -19    6.31    2.51   1
 -21  -7 -18    2.79    1.67   1
 -21  -7 -15    7.72    2.78   1
 -21  -7 -10   22.13    4.70   1
 -21  -7  -9   23.17    4.81   1
 -21  -7  -8    5.10    2.26   1
 -21  -7  -7    9.00    3.00   1
 -21  -7  -3    8.55    2.92   1
 -21  -7  -2   10.37    3.22   1
 -21  -7   2    8.73    2.96   1
 -21  -7  10    6.11    2.47   1
 -21  -7  12   19.10    4.37   1
 -21  -7  14   21.24    4.61   1
 -21  -7  16   17.25    4.15   1
 -21  -7  17    6.11    2.47   1
 -21  -7  21   10.20    3.19   1
 -21  -7  22    4.50    2.12   1
 -21  -5 -23   15.91    3.99   1
 -21  -5 -22   13.35    3.65   1
 -21  -5 -17    8.74    2.96   1
 -21  -5 -13   19.98    4.47   1
 -21  -5 -10   21.56    4.64   1
 -21  -5  -9    3.00    1.73   1
 -21  -5  -8   42.15    6.49   1
 -21  -5  -4   11.77    3.43   1
 -21  -5  -3    8.44    2.90   1
 -21  -5  -2    4.34    2.08   1
 -21  -5  -1    5.44    2.33   1
 -21  -5   2    5.60    2.37   1
 -21  -5   3   15.26    3.91   1
 -21  -5   6   38.22    6.18   1
 -21  -5   8    5.89    2.43   1
 -21  -5  10   18.09    4.25   1
 -21  -5  11    5.71    2.39   1
 -21  -5  13   12.83    3.58   1
 -21  -5  20    7.43    2.72   1
 -21  -5  22    8.63    2.94   1
 -21  -5  23   14.41    3.80   1
 -21  -5  24    3.75    1.94   1
 -21  -3 -19    1.62    1.27   1
 -21  -3 -15   11.18    3.34   1
 -21  -3 -13   11.14    3.34   1
 -21  -3 -11    5.52    2.35   1
 -21  -3 -10   11.77    3.43   1
 -21  -3  -8   13.72    3.70   1
 -21  -3  -7    9.60    3.10   1
 -21  -3  -6    8.85    2.98   1
 -21  -3  -5    2.36    1.54   1
 -21  -3  -4   20.42    4.52   1
 -21  -3  -3   15.30    3.91   1
 -21  -3  -1   23.36    4.83   1
 -21  -3   0    3.26    1.81   1
 -21  -3   1    8.48    2.91   1
 -21  -3   2   21.26    4.61   1
 -21  -3   4    5.93    2.43   1
 -21  -3   6    8.32    2.88   1
 -21  -3   7   12.94    3.60   1
 -21  -3   8   20.65    4.54   1
 -21  -3   9   14.77    3.84   1
 -21  -3  16   15.30    3.91   1
 -21  -3  17    4.50    2.12   1
 -21  -3  18    6.15    2.48   1
 -21  -3  19    4.43    2.10   1
 -21  -3  21    2.25    1.50   1
 -21  -1 -22    5.78    2.40   1
 -21  -1 -19   16.49    4.06   1
 -21  -1 -17    2.78    1.67   1
 -21  -1 -15   10.35    3.22   1
 -21  -1 -11    6.45    2.54   1
 -21  -1 -10   19.60    4.43   1
 -21  -1  -8    5.14    2.27   1
 -21  -1  -7   11.36    3.37   1
 -21  -1  -6   13.65    3.69   1
 -21  -1  -4    4.05    2.01   1
 -21  -1   0    9.90    3.15   1
 -21  -1   1   13.69    3.70   1
 -21  -1   2   15.90    3.99   1
 -21  -1   4   10.50    3.24   1
 -21  -1   5    4.28    2.07   1
 -21  -1   6    2.64    1.62   1
 -21  -1   8   13.08    3.62   1
 -21  -1  11    9.85    3.14   1
 -21  -1  13    2.40    1.55   1
 -21  -1  14    7.30    2.70   1
 -21  -1  19   11.95    3.46   1
 -21  -1  20    5.64    2.37   1
 -21  -1  22    1.73    1.31   1
 -21   1 -21   21.98    4.69   1
 -21   1 -20   12.68    3.56   1
 -21   1 -16    9.68    3.11   1
 -21   1 -13    8.69    2.95   1
 -21   1 -12    2.55    1.60   1
 -21   1 -11    3.12    1.77   1
 -21   1 -10   13.84    3.72   1
 -21   1  -7   14.21    3.77   1
 -21   1  -6    2.47    1.57   1
 -21   1  -4   10.48    3.24   1
 -21   1  -3    4.88    2.21   1
 -21   1  -2    6.00    2.45   1
 -21   1   0    1.73    1.31   1
 -21   1   3    9.22    3.04   1
 -21   1   4   20.51    4.53   1
 -21   1   6    1.81    1.35   1
 -21   1   8   17.12    4.14   1
 -21   1   9   24.19    4.92   1
 -21   1  11    6.05    2.46   1
 -21   1  12   14.05    3.75   1
 -21   1  15    9.51    3.08   1
 -21   1  17   16.58    4.07   1
 -21   1  18    2.65    1.63   1
 -21   1  21    4.70    2.17   1
 -21   3 -21    9.70    3.11   1
 -21   3 -16    2.27    1.51   1
 -21   3 -14   13.64    3.69   1
 -21   3 -13   10.17    3.19   1
 -21   3 -10    2.47    1.57   1
 -21   3  -9   27.15    5.21   1
 -21   3  -8   38.53    6.21   1
 -21   3  -7   40.20    6.34   1
 -21   3  -6    7.35    2.71   1
 -21   3  -5    5.43    2.33   1
 -21   3  -4    4.13    2.03   1
 -21   3  -3    4.20    2.05   1
 -21   3  -1   10.33    3.21   1
 -21   3   1   13.07    3.61   1
 -21   3   2   20.25    4.50   1
 -21   3   3    9.70    3.11   1
 -21   3   4   12.70    3.56   1
 -21   3   5    5.96    2.44   1
 -21   3   8    7.25    2.69   1
 -21   3  10   15.87    3.98   1
 -21   3  12   10.20    3.19   1
 -21   3  22   12.77    3.57   1
 -21   5 -21   11.63    3.41   1
 -21   5 -19    3.64    1.91   1
 -21   5 -17    4.15    2.04   1
 -21   5 -16   11.77    3.43   1
 -21   5 -15    5.52    2.35   1
 -21   5 -14    3.11    1.76   1
 -21   5 -12    7.23    2.69   1
 -21   5 -10   15.06    3.88   1
 -21   5  -9    5.03    2.24   1
 -21   5  -6   16.96    4.12   1
 -21   5  -5    9.52    3.09   1
 -21   5  -4   12.16    3.49   1
 -21   5  -3   14.10    3.75   1
 -21   5  -2   10.97    3.31   1
 -21   5   1   20.06    4.48   1
 -21   5   4    8.36    2.89   1
 -21   5   5   14.57    3.82   1
 -21   5   6    9.47    3.08   1
 -21   5   7    3.64    1.91   1
 -21   5   9   17.99    4.24   1
 -21   5  10   10.23    3.20   1
 -21   5  11    7.04    2.65   1
 -21   5  13   15.89    3.99   1
 -21   5  14    4.39    2.10   1
 -21   5  16   13.38    3.66   1
 -21   5  17    7.46    2.73   1
 -21   5  18   13.15    3.63   1
 -21   5  19   13.37    3.66   1
 -21   5  20    2.55    1.60   1
 -21   5  21   12.75    3.57   1
 -21   5  22   12.98    3.60   1
 -21   7 -21    2.25    1.50   1
 -21   7 -20    9.38    3.06   1
 -21   7 -14    2.71    1.65   1
 -21   7 -13    4.57    2.14   1
 -21   7 -12   15.15    3.89   1
 -21   7 -10    6.95    2.64   1
 -21   7  -7    8.36    2.89   1
 -21   7  -6    8.85    2.97   1
 -21   7  -4    8.02    2.83   1
 -21   7  -3    2.00    1.41   1
 -21   7  -2    5.38    2.32   1
 -21   7   0    4.47    2.11   1
 -21   7   1    2.53    1.59   1
 -21   7   4   10.87    3.30   1
 -21   7   6    9.52    3.09   1
 -21   7   9   21.45    4.63   1
 -21   7  11   27.30    5.22   1
 -21   7  17    3.90    1.97   1
 -21   7  18    6.30    2.51   1
 -21   7  21   11.21    3.35   1
 -21   7  22    8.36    2.89   1
 -21   9 -18    3.71    1.93   1
 -21   9 -16    1.93    1.39   1
 -21   9 -14    3.79    1.95   1
 -21   9 -13   10.84    3.29   1
 -21   9 -11   24.45    4.94   1
 -21   9 -10   16.80    4.10   1
 -21   9  -5   11.59    3.40   1
 -21   9  -2   10.57    3.25   1
 -21   9  -1   11.36    3.37   1
 -21   9   0   31.95    5.65   1
 -21   9   3    8.90    2.98   1
 -21   9   6   16.46    4.06   1
 -21   9   7   20.66    4.55   1
 -21   9  10    8.18    2.86   1
 -21   9  11    5.03    2.24   1
 -21   9  12    4.95    2.22   1
 -21   9  13   18.96    4.35   1
 -21   9  14   28.80    5.37   1
 -21   9  16    6.82    2.61   1
 -21   9  18   32.51    5.70   1
 -21   9  23    1.58    1.25   1
 -21  11 -16    1.61    1.27   1
 -21  11 -14    8.01    2.83   1
 -21  11 -10   11.02    3.32   1
 -21  11  -9    8.02    2.83   1
 -21  11  -8    6.00    2.45   1
 -21  11  -6    8.83    2.97   1
 -21  11  -5    3.90    1.97   1
 -21  11  -4    2.67    1.64   1
 -21  11  -3    5.06    2.25   1
 -21  11   1   13.36    3.65   1
 -21  11   5    3.08    1.75   1
 -21  11   6    2.70    1.64   1
 -21  11   7   18.30    4.28   1
 -21  11   8   12.72    3.57   1
 -21  11   9    4.50    2.12   1
 -21  11  13    6.60    2.57   1
 -21  11  14   15.90    3.99   1
 -21  11  17    2.74    1.65   1
 -21  11  19    1.95    1.40   1
 -21  13 -15   14.14    3.76   1
 -21  13 -14    3.00    1.73   1
 -21  13 -13    2.40    1.55   1
 -21  13 -12    3.05    1.75   1
 -21  13 -11    6.04    2.46   1
 -21  13  -7   10.30    3.21   1
 -21  13  -6    2.55    1.60   1
 -21  13  -5    2.89    1.70   1
 -21  13  -4    4.96    2.23   1
 -21  13  -3   10.97    3.31   1
 -21  13  -2   17.48    4.18   1
 -21  13  -1   11.14    3.34   1
 -21  13   1    4.71    2.17   1
 -21  13   2   10.65    3.26   1
 -21  13   3    9.75    3.12   1
 -21  13   5    7.22    2.69   1
 -21  13   6   15.86    3.98   1
 -21  13   8   24.90    4.99   1
 -21  13   9   12.82    3.58   1
 -21  13  10   12.49    3.53   1
 -21  13  11    1.88    1.37   1
 -21  13  12    9.47    3.08   1
 -21  13  13    6.26    2.50   1
 -21  13  14    1.72    1.31   1
 -21  13  16    3.75    1.94   1
 -21  13  17   12.98    3.60   1
 -21  15 -14    2.25    1.50   1
 -21  15 -13   10.43    3.23   1
 -21  15 -12    6.49    2.55   1
 -21  15 -10   10.05    3.17   1
 -21  15  -9   16.50    4.06   1
 -21  15  -7    6.94    2.63   1
 -21  15  -6    7.16    2.68   1
 -21  15  -4    2.12    1.45   1
 -21  15  -3    9.07    3.01   1
 -21  15  -2   23.00    4.80   1
 -21  15  -1    7.36    2.71   1
 -21  15   1    7.31    2.70   1
 -21  15   2    1.88    1.37   1
 -21  15   3    7.54    2.75   1
 -21  15   4   10.53    3.24   1
 -21  15   5    8.29    2.88   1
 -21  15   6    6.93    2.63   1
 -21  15  10   12.30    3.51   1
 -21  15  11   13.50    3.67   1
 -21  15  12   11.79    3.43   1
 -21  15  16    9.45    3.07   1
 -21  17 -10    9.79    3.13   1
 -21  17  -9    4.65    2.16   1
 -21  17  -7   24.45    4.94   1
 -21  17  -6    3.81    1.95   1
 -21  17  -5   13.80    3.71   1
 -21  17  -2    6.45    2.54   1
 -21  17   0    8.25    2.87   1
 -21  17   1   14.19    3.77   1
 -21  17   4   10.43    3.23   1
 -21  17   7   14.18    3.76   1
 -21  17   8    9.98    3.16   1
 -21  17   9    9.69    3.11   1
 -21  17  10    3.64    1.91   1
 -21  17  11   11.85    3.44   1
 -21  17  12    4.30    2.07   1
 -21  17  13    3.45    1.86   1
 -21  19  -5    3.38    1.84   1
 -21  19  -2    5.10    2.26   1
 -21  19   4    4.28    2.07   1
 -21  19   7    1.58    1.25   1
 -20 -22  -5    5.03    2.24   1
 -20 -22  -3    2.85    1.69   1
 -20 -22   4    5.29    2.30   1
 -20 -22   5    5.59    2.36   1
 -20 -22   7   14.80    3.85   1
 -20 -20 -10    9.03    3.01   1
 -20 -20  -5   12.75    3.57   1
 -20 -20  -3    1.80    1.34   1
 -20 -20   0    1.50    1.22   1
 -20 -20   1    1.77    1.33   1
 -20 -20   2   14.93    3.86   1
 -20 -20   5    3.88    1.97   1
 -20 -20   6   10.95    3.31   1
 -20 -20   8    4.50    2.12   1
 -20 -20   9   19.42    4.41   1
 -20 -20  12    3.82    1.95   1
 -20 -18 -12    5.63    2.37   1
 -20 -18  -6    6.15    2.48   1
 -20 -18  -3   12.90    3.59   1
 -20 -18  -2    4.84    2.20   1
 -20 -18  -1    5.74    2.40   1
 -20 -18   1    6.79    2.61   1
 -20 -18   2   11.94    3.46   1
 -20 -18   4    9.68    3.11   1
 -20 -18   5    4.09    2.02   1
 -20 -18   6    3.28    1.81   1
 -20 -18  10   18.12    4.26   1
 -20 -18  12    6.90    2.63   1
 -20 -18  14    7.43    2.72   1
 -20 -16 -18   13.88    3.72   1
 -20 -16 -17    4.50    2.12   1
 -20 -16 -16    3.97    1.99   1
 -20 -16 -15    9.52    3.09   1
 -20 -16 -11   11.63    3.41   1
 -20 -16 -10    6.45    2.54   1
 -20 -16  -8    6.62    2.57   1
 -20 -16  -5    7.82    2.80   1
 -20 -16  -4    8.29    2.88   1
 -20 -16  -3   18.11    4.26   1
 -20 -16  -2    6.38    2.53   1
 -20 -16   0    1.73    1.31   1
 -20 -16   1    4.28    2.07   1
 -20 -16   2    6.34    2.52   1
 -20 -16   3   20.16    4.49   1
 -20 -16   4   14.55    3.81   1
 -20 -16   7    2.55    1.60   1
 -20 -16   8    6.15    2.48   1
 -20 -16   9   20.25    4.50   1
 -20 -16  11    8.97    2.99   1
 -20 -16  13   39.08    6.25   1
 -20 -16  14    1.73    1.31   1
 -20 -14 -14   11.70    3.42   1
 -20 -14 -12    9.08    3.01   1
 -20 -14  -9   12.52    3.54   1
 -20 -14  -7    4.83    2.20   1
 -20 -14  -6    6.53    2.55   1
 -20 -14  -4   11.43    3.38   1
 -20 -14  -3    2.84    1.68   1
 -20 -14   0    3.83    1.96   1
 -20 -14   1   27.42    5.24   1
 -20 -14   2    1.55    1.24   1
 -20 -14   3   15.68    3.96   1
 -20 -14   5    9.78    3.13   1
 -20 -14   7    9.38    3.06   1
 -20 -14   8   19.96    4.47   1
 -20 -14  11   17.26    4.15   1
 -20 -14  12    1.69    1.30   1
 -20 -14  13   22.32    4.72   1
 -20 -14  14    5.96    2.44   1
 -20 -14  16    3.08    1.75   1
 -20 -12 -22   10.61    3.26   1
 -20 -12 -21    2.55    1.60   1
 -20 -12 -19    9.12    3.02   1
 -20 -12 -16    9.30    3.05   1
 -20 -12 -15   24.94    4.99   1
 -20 -12 -14   12.36    3.52   1
 -20 -12 -12    9.27    3.04   1
 -20 -12 -11    7.02    2.65   1
 -20 -12  -6    3.90    1.97   1
 -20 -12  -4   14.60    3.82   1
 -20 -12  -3   31.95    5.65   1
 -20 -12  -2   16.77    4.10   1
 -20 -12   0    8.96    2.99   1
 -20 -12   1    4.24    2.06   1
 -20 -12   4    2.97    1.72   1
 -20 -12   5    9.64    3.10   1
 -20 -12   9    3.57    1.89   1
 -20 -12  11   13.73    3.71   1
 -20 -12  14    4.24    2.06   1
 -20 -12  16   12.11    3.48   1
 -20 -12  17    7.79    2.79   1
 -20 -12  21    2.78    1.67   1
 -20 -12  22    2.15    1.47   1
 -20 -12  23   12.09    3.48   1
 -20 -10 -22    4.01    2.00   1
 -20 -10 -21    3.30    1.82   1
 -20 -10 -18   13.35    3.65   1
 -20 -10 -15   10.50    3.24   1
 -20 -10 -14    7.90    2.81   1
 -20 -10 -13    7.91    2.81   1
 -20 -10 -12   10.80    3.29   1
 -20 -10 -10   18.38    4.29   1
 -20 -10  -9   22.80    4.77   1
 -20 -10  -8    6.67    2.58   1
 -20 -10  -5   23.48    4.85   1
 -20 -10  -4    5.93    2.43   1
 -20 -10  -1   15.45    3.93   1
 -20 -10   1   25.20    5.02   1
 -20 -10   2   11.13    3.34   1
 -20 -10   5    4.52    2.13   1
 -20 -10   7    2.85    1.69   1
 -20 -10   8    7.88    2.81   1
 -20 -10   9   26.63    5.16   1
 -20 -10  10    6.38    2.52   1
 -20 -10  12   22.62    4.76   1
 -20 -10  14   17.85    4.22   1
 -20 -10  15   13.02    3.61   1
 -20 -10  17    1.73    1.31   1
 -20 -10  19    9.82    3.13   1
 -20  -8 -23    2.27    1.51   1
 -20  -8 -22    4.35    2.09   1
 -20  -8 -19    1.90    1.38   1
 -20  -8 -16    6.22    2.49   1
 -20  -8 -15    2.52    1.59   1
 -20  -8 -14   18.27    4.27   1
 -20  -8  -7    8.66    2.94   1
 -20  -8  -6   22.42    4.74   1
 -20  -8  -5    5.40    2.32   1
 -20  -8  -4    3.60    1.90   1
 -20  -8   0    3.00    1.73   1
 -20  -8   1   26.21    5.12   1
 -20  -8   2   29.21    5.40   1
 -20  -8   3    5.59    2.36   1
 -20  -8   6    2.96    1.72   1
 -20  -8   7    7.04    2.65   1
 -20  -8   8    8.20    2.86   1
 -20  -8   9    4.43    2.10   1
 -20  -8  10    3.03    1.74   1
 -20  -8  12    7.23    2.69   1
 -20  -8  15    4.57    2.14   1
 -20  -8  16    5.63    2.37   1
 -20  -6 -19    4.09    2.02   1
 -20  -6 -18    7.61    2.76   1
 -20  -6 -16    6.04    2.46   1
 -20  -6 -13   17.35    4.17   1
 -20  -6 -12    7.50    2.74   1
 -20  -6 -11    1.98    1.41   1
 -20  -6  -8   15.82    3.98   1
 -20  -6  -7    8.85    2.97   1
 -20  -6  -6   21.23    4.61   1
 -20  -6  -5   12.15    3.49   1
 -20  -6  -4    8.70    2.95   1
 -20  -6  -2    9.30    3.05   1
 -20  -6  -1   10.35    3.22   1
 -20  -6   1   57.40    7.58   1
 -20  -6   2   24.57    4.96   1
 -20  -6   3   21.52    4.64   1
 -20  -6   4   14.46    3.80   1
 -20  -6   5    2.03    1.42   1
 -20  -6   6    5.14    2.27   1
 -20  -6   9   17.63    4.20   1
 -20  -6  11   14.40    3.79   1
 -20  -6  12    8.93    2.99   1
 -20  -6  13   21.26    4.61   1
 -20  -6  17   13.77    3.71   1
 -20  -6  20    9.47    3.08   1
 -20  -6  21   12.38    3.52   1
 -20  -6  23    7.65    2.77   1
 -20  -6  24    3.46    1.86   1
 -20  -4 -22    9.98    3.16   1
 -20  -4 -14   20.92    4.57   1
 -20  -4 -13   17.12    4.14   1
 -20  -4 -12    8.77    2.96   1
 -20  -4 -10   55.62    7.46   1
 -20  -4  -9   41.03    6.41   1
 -20  -4  -7    8.27    2.88   1
 -20  -4  -6   21.19    4.60   1
 -20  -4  -4   15.11    3.89   1
 -20  -4  -2    2.21    1.49   1
 -20  -4  -1   23.53    4.85   1
 -20  -4   0    9.52    3.09   1
 -20  -4   1   17.07    4.13   1
 -20  -4   3   16.98    4.12   1
 -20  -4   5    2.53    1.59   1
 -20  -4   6    9.49    3.08   1
 -20  -4   8    4.80    2.19   1
 -20  -4  10   11.18    3.34   1
 -20  -4  11    6.75    2.60   1
 -20  -4  12   11.09    3.33   1
 -20  -4  13   21.26    4.61   1
 -20  -4  15   15.98    4.00   1
 -20  -4  16   18.82    4.34   1
 -20  -4  19    6.36    2.52   1
 -20  -4  20    4.82    2.20   1
 -20  -4  21    9.02    3.00   1
 -20  -4  22    4.54    2.13   1
 -20  -2 -23   13.27    3.64   1
 -20  -2 -20   10.35    3.22   1
 -20  -2 -19    8.10    2.85   1
 -20  -2 -15    1.75    1.32   1
 -20  -2 -10    8.81    2.97   1
 -20  -2  -9    5.61    2.37   1
 -20  -2  -8   21.23    4.61   1
 -20  -2  -6    2.97    1.72   1
 -20  -2  -4    2.55    1.60   1
 -20  -2  -3    6.03    2.45   1
 -20  -2  -1    9.65    3.11   1
 -20  -2   0   32.81    5.73   1
 -20  -2   1   69.37    8.33   1
 -20  -2   2   48.19    6.94   1
 -20  -2   5    5.30    2.30   1
 -20  -2   7    1.53    1.24   1
 -20  -2   8    8.15    2.86   1
 -20  -2   9    2.67    1.64   1
 -20  -2  10   11.48    3.39   1
 -20  -2  11    9.56    3.09   1
 -20  -2  13    9.93    3.15   1
 -20  -2  14    9.15    3.02   1
 -20  -2  17    8.58    2.93   1
 -20  -2  20    8.09    2.84   1
 -20  -2  21   16.73    4.09   1
 -20   0 -23    8.37    2.89   1
 -20   0 -18    4.30    2.07   1
 -20   0 -17    2.59    1.61   1
 -20   0 -13    3.87    1.97   1
 -20   0 -12    4.50    2.12   1
 -20   0  -9   27.00    5.20   1
 -20   0  -8   18.00    4.24   1
 -20   0  -5   19.50    4.42   1
 -20   0  -4   11.25    3.35   1
 -20   0  -3   18.95    4.35   1
 -20   0  -2    4.95    2.22   1
 -20   0   0   23.33    4.83   1
 -20   0   1   87.45    9.35   1
 -20   0   4    6.50    2.55   1
 -20   0   7   22.54    4.75   1
 -20   0   8    6.19    2.49   1
 -20   0   9   10.73    3.27   1
 -20   0  10   14.85    3.85   1
 -20   0  11   27.22    5.22   1
 -20   0  13   15.34    3.92   1
 -20   0  17   14.93    3.86   1
 -20   0  18   14.85    3.85   1
 -20   0  24   10.20    3.19   1
 -20   2 -24    6.53    2.55   1
 -20   2 -21    1.65    1.28   1
 -20   2 -19   18.13    4.26   1
 -20   2 -17    1.69    1.30   1
 -20   2 -14    4.43    2.10   1
 -20   2 -13   14.78    3.84   1
 -20   2 -12   10.39    3.22   1
 -20   2 -10   22.42    4.74   1
 -20   2  -5   11.63    3.41   1
 -20   2  -4    9.84    3.14   1
 -20   2  -3    5.96    2.44   1
 -20   2  -2   29.93    5.47   1
 -20   2  -1   21.61    4.65   1
 -20   2   0   34.59    5.88   1
 -20   2   1   54.12    7.36   1
 -20   2   2   14.90    3.86   1
 -20   2   3    7.95    2.82   1
 -20   2   4   25.71    5.07   1
 -20   2   5   15.35    3.92   1
 -20   2   6   20.02    4.47   1
 -20   2   8   12.39    3.52   1
 -20   2   9   28.52    5.34   1
 -20   2  12   11.48    3.39   1
 -20   2  13    8.16    2.86   1
 -20   2  16   14.25    3.77   1
 -20   2  18   11.67    3.42   1
 -20   2  19    6.48    2.55   1
 -20   2  21    1.76    1.33   1
 -20   4 -23    8.02    2.83   1
 -20   4 -22    2.94    1.71   1
 -20   4 -19    8.66    2.94   1
 -20   4 -17    1.78    1.33   1
 -20   4 -15    9.04    3.01   1
 -20   4 -14    3.49    1.87   1
 -20   4 -12    7.50    2.74   1
 -20   4 -11    5.74    2.40   1
 -20   4  -6   14.10    3.75   1
 -20   4  -4    8.70    2.95   1
 -20   4  -3   13.20    3.63   1
 -20   4  -2   11.81    3.44   1
 -20   4  -1   14.08    3.75   1
 -20   4   0   33.87    5.82   1
 -20   4   1   18.06    4.25   1
 -20   4   3    8.58    2.93   1
 -20   4   4    5.30    2.30   1
 -20   4   5   12.00    3.46   1
 -20   4   6   14.81    3.85   1
 -20   4   7   15.07    3.88   1
 -20   4  10    4.14    2.03   1
 -20   4  11    4.88    2.21   1
 -20   4  12   12.02    3.47   1
 -20   4  15   26.06    5.11   1
 -20   4  16   12.98    3.60   1
 -20   4  17    4.57    2.14   1
 -20   4  18   23.33    4.83   1
 -20   4  19    6.22    2.49   1
 -20   4  21   16.58    4.07   1
 -20   4  23    2.51    1.59   1
 -20   4  24    7.20    2.68   1
 -20   6 -20    2.12    1.45   1
 -20   6 -19   19.27    4.39   1
 -20   6 -17   16.73    4.09   1
 -20   6 -14    2.29    1.51   1
 -20   6 -12    5.06    2.25   1
 -20   6 -11   10.43    3.23   1
 -20   6 -10   17.10    4.14   1
 -20   6  -7    6.24    2.50   1
 -20   6  -6   13.00    3.61   1
 -20   6  -3    6.80    2.61   1
 -20   6  -2   16.34    4.04   1
 -20   6  -1   11.98    3.46   1
 -20   6   0   38.42    6.20   1
 -20   6   1   27.70    5.26   1
 -20   6   2   37.42    6.12   1
 -20   6   3   11.91    3.45   1
 -20   6   5   11.84    3.44   1
 -20   6   6    4.88    2.21   1
 -20   6   7   12.77    3.57   1
 -20   6   8    5.71    2.39   1
 -20   6   9   10.43    3.23   1
 -20   6  10    5.40    2.32   1
 -20   6  11    5.36    2.32   1
 -20   6  13    4.43    2.11   1
 -20   6  15   17.84    4.22   1
 -20   6  16   11.93    3.45   1
 -20   6  17    7.91    2.81   1
 -20   6  20    4.48    2.12   1
 -20   8 -21   15.75    3.97   1
 -20   8 -20    1.65    1.29   1
 -20   8 -17    2.44    1.56   1
 -20   8 -13   11.52    3.39   1
 -20   8  -9   10.88    3.30   1
 -20   8  -8    6.75    2.60   1
 -20   8  -7   14.77    3.84   1
 -20   8  -6   20.66    4.55   1
 -20   8  -5   21.52    4.64   1
 -20   8  -2   12.56    3.54   1
 -20   8  -1    8.78    2.96   1
 -20   8   0    1.99    1.41   1
 -20   8   1   23.21    4.82   1
 -20   8   2    5.55    2.36   1
 -20   8   3   17.89    4.23   1
 -20   8   4   12.51    3.54   1
 -20   8   5    1.60    1.26   1
 -20   8   6    2.92    1.71   1
 -20   8   7   26.21    5.12   1
 -20   8   8   13.05    3.61   1
 -20   8   9    3.83    1.96   1
 -20   8  10   14.10    3.75   1
 -20   8  11   15.02    3.88   1
 -20   8  12    6.38    2.53   1
 -20   8  22    3.79    1.95   1
 -20   8  23   18.60    4.31   1
 -20  10 -19    8.94    2.99   1
 -20  10 -12    4.65    2.16   1
 -20  10 -10    2.78    1.67   1
 -20  10  -7   12.52    3.54   1
 -20  10  -5   19.31    4.39   1
 -20  10  -4   16.73    4.09   1
 -20  10  -1    4.16    2.04   1
 -20  10   0   10.43    3.23   1
 -20  10   1   19.27    4.39   1
 -20  10   2    2.47    1.57   1
 -20  10   3    1.84    1.36   1
 -20  10   5    2.25    1.50   1
 -20  10   6   22.93    4.79   1
 -20  10   7    2.85    1.69   1
 -20  10   8    5.12    2.26   1
 -20  10  12    3.43    1.85   1
 -20  10  14   11.63    3.41   1
 -20  10  15    3.75    1.94   1
 -20  10  16    1.61    1.27   1
 -20  10  17    6.57    2.56   1
 -20  10  21   13.76    3.71   1
 -20  10  22    3.11    1.76   1
 -20  12 -16    3.75    1.94   1
 -20  12 -14    2.80    1.67   1
 -20  12 -12   10.05    3.17   1
 -20  12 -11    4.91    2.22   1
 -20  12 -10   16.25    4.03   1
 -20  12  -9    5.93    2.43   1
 -20  12  -8   12.26    3.50   1
 -20  12  -7   16.97    4.12   1
 -20  12  -2    8.95    2.99   1
 -20  12   0   18.38    4.29   1
 -20  12   1   15.79    3.97   1
 -20  12   2    3.75    1.94   1
 -20  12   3   10.54    3.25   1
 -20  12   4   20.17    4.49   1
 -20  12   6    7.97    2.82   1
 -20  12   7   18.52    4.30   1
 -20  12   8    3.90    1.97   1
 -20  12  10   10.43    3.23   1
 -20  12  11   13.74    3.71   1
 -20  12  12    2.66    1.63   1
 -20  12  13    4.35    2.09   1
 -20  12  14   13.88    3.72   1
 -20  12  15    8.46    2.91   1
 -20  12  17    7.57    2.75   1
 -20  12  19    5.10    2.26   1
 -20  14 -14    9.52    3.09   1
 -20  14 -11    2.10    1.45   1
 -20  14  -9    2.63    1.62   1
 -20  14  -7    4.43    2.10   1
 -20  14  -4   11.96    3.46   1
 -20  14  -2   10.89    3.30   1
 -20  14  -1   17.85    4.22   1
 -20  14   0    7.50    2.74   1
 -20  14   1   23.63    4.86   1
 -20  14   3   15.98    4.00   1
 -20  14   4    4.75    2.18   1
 -20  14   6    8.82    2.97   1
 -20  14   8   22.05    4.70   1
 -20  14   9   15.87    3.98   1
 -20  14  10    3.86    1.97   1
 -20  14  11    9.56    3.09   1
 -20  14  12    4.99    2.23   1
 -20  14  13   19.80    4.45   1
 -20  14  17    5.47    2.34   1
 -20  14  18    7.20    2.68   1
 -20  16 -15    3.58    1.89   1
 -20  16 -14    1.67    1.29   1
 -20  16 -10    8.66    2.94   1
 -20  16  -7   10.31    3.21   1
 -20  16  -6   11.66    3.42   1
 -20  16  -1   12.07    3.47   1
 -20  16   1   25.95    5.09   1
 -20  16   3    7.53    2.74   1
 -20  16   6    8.63    2.94   1
 -20  16   8    9.86    3.14   1
 -20  16   9   10.00    3.16   1
 -20  16  11   17.92    4.23   1
 -20  16  12    3.38    1.84   1
 -20  16  15   11.96    3.46   1
 -20  16  16    8.21    2.87   1
 -20  18 -11    6.50    2.55   1
 -20  18 -10   13.14    3.63   1
 -20  18  -9    7.00    2.65   1
 -20  18  -8   14.22    3.77   1
 -20  18  -7    3.98    2.00   1
 -20  18  -2    6.57    2.56   1
 -20  18  -1   10.05    3.17   1
 -20  18   1    8.96    2.99   1
 -20  18   4    5.16    2.27   1
 -20  18   5   10.80    3.29   1
 -20  18   6    7.53    2.74   1
 -20  18   9    4.04    2.01   1
 -20  18  13    2.89    1.70   1
 -20  20  -8   11.35    3.37   1
 -20  20  -7    3.83    1.96   1
 -20  20  -5   11.51    3.39   1
 -20  20  -3    5.78    2.40   1
 -20  20   0   11.93    3.45   1
 -20  20   3   10.43    3.23   1
 -20  20   4    1.58    1.25   1
 -20  20   5    3.64    1.91   1
 -20  20   7   12.22    3.50   1
 -20  20   9   10.88    3.30   1
 -19 -23  -5    3.42    1.85   1
 -19 -23  -4    6.71    2.59   1
 -19 -23   1   13.65    3.69   1
 -19 -23   3    3.14    1.77   1
 -19 -23   7    6.11    2.47   1
 -19 -21  -2   15.33    3.92   1
 -19 -21  -1    7.72    2.78   1
 -19 -21   0    7.83    2.80   1
 -19 -21   3    4.46    2.11   1
 -19 -21   4   11.25    3.35   1
 -19 -21   5    6.82    2.61   1
 -19 -21   7    2.63    1.62   1
 -19 -21  11    3.60    1.90   1
 -19 -21  12    1.84    1.36   1
 -19 -21  13    1.61    1.27   1
 -19 -19 -14    5.96    2.44   1
 -19 -19 -13    1.84    1.36   1
 -19 -19  -6    4.85    2.20   1
 -19 -19  -2    8.78    2.96   1
 -19 -19   2   24.65    4.97   1
 -19 -19   6    2.74    1.65   1
 -19 -19   7    6.82    2.61   1
 -19 -19  10    6.45    2.54   1
 -19 -19  13    6.79    2.61   1
 -19 -19  14    2.63    1.62   1
 -19 -19  17    7.10    2.66   1
 -19 -17 -18   14.14    3.76   1
 -19 -17 -13   15.33    3.92   1
 -19 -17 -10    2.40    1.55   1
 -19 -17  -8    7.28    2.70   1
 -19 -17  -6   22.20    4.71   1
 -19 -17  -5    2.19    1.48   1
 -19 -17  -4    5.21    2.28   1
 -19 -17  -3   16.77    4.09   1
 -19 -17  -1    7.61    2.76   1
 -19 -17   0    8.02    2.83   1
 -19 -17   4    3.72    1.93   1
 -19 -17   6    6.92    2.63   1
 -19 -17   9   20.77    4.56   1
 -19 -17  10    8.55    2.92   1
 -19 -17  12    6.15    2.48   1
 -19 -17  13    3.02    1.74   1
 -19 -17  14    2.40    1.55   1
 -19 -17  17    7.28    2.70   1
 -19 -17  20   12.07    3.47   1
 -19 -15 -15    6.82    2.61   1
 -19 -15 -13    5.63    2.37   1
 -19 -15 -12    6.89    2.62   1
 -19 -15 -11   11.40    3.38   1
 -19 -15 -10   23.07    4.80   1
 -19 -15  -4   13.62    3.69   1
 -19 -15  -3   21.90    4.68   1
 -19 -15   1    4.82    2.19   1
 -19 -15   2    2.40    1.55   1
 -19 -15   3    4.88    2.21   1
 -19 -15   4    5.78    2.40   1
 -19 -15   5    4.28    2.07   1
 -19 -15  10    3.38    1.84   1
 -19 -15  16    2.65    1.63   1
 -19 -15  17    5.64    2.38   1
 -19 -15  21    6.68    2.58   1
 -19 -13 -22   12.07    3.47   1
 -19 -13 -21    2.23    1.49   1
 -19 -13 -19   10.73    3.27   1
 -19 -13 -16   10.95    3.31   1
 -19 -13 -14    8.60    2.93   1
 -19 -13 -12   11.63    3.41   1
 -19 -13 -11    8.86    2.98   1
 -19 -13 -10   19.58    4.42   1
 -19 -13  -9    7.61    2.76   1
 -19 -13  -8    5.32    2.31   1
 -19 -13  -7    6.25    2.50   1
 -19 -13  -5    5.96    2.44   1
 -19 -13  -2    4.05    2.01   1
 -19 -13   0    9.28    3.05   1
 -19 -13   3    4.05    2.01   1
 -19 -13   4    9.34    3.06   1
 -19 -13   6    7.80    2.79   1
 -19 -13   9   18.08    4.25   1
 -19 -13  11   15.12    3.89   1
 -19 -13  12    9.15    3.03   1
 -19 -13  13    6.37    2.52   1
 -19 -13  14   17.77    4.22   1
 -19 -13  15    5.99    2.45   1
 -19 -13  16    1.80    1.34   1
 -19 -13  17    2.68    1.64   1
 -19 -13  18   12.09    3.48   1
 -19 -13  19   15.52    3.94   1
 -19 -13  22    4.91    2.22   1
 -19 -13  24    7.70    2.77   1
 -19 -11 -24   11.48    3.39   1
 -19 -11 -23    6.22    2.49   1
 -19 -11 -21    4.30    2.07   1
 -19 -11 -18    4.10    2.02   1
 -19 -11 -13   44.71    6.69   1
 -19 -11 -12   58.69    7.66   1
 -19 -11 -11   31.05    5.57   1
 -19 -11  -5    3.94    1.98   1
 -19 -11  -4   16.69    4.09   1
 -19 -11  -3   23.70    4.87   1
 -19 -11  -2   10.68    3.27   1
 -19 -11  -1   15.82    3.98   1
 -19 -11   0    7.28    2.70   1
 -19 -11   1    5.18    2.27   1
 -19 -11   2    5.55    2.36   1
 -19 -11   3    7.31    2.70   1
 -19 -11   4    8.32    2.89   1
 -19 -11   5    7.91    2.81   1
 -19 -11   7   11.50    3.39   1
 -19 -11  11    5.32    2.31   1
 -19 -11  12    4.16    2.04   1
 -19 -11  13    3.94    1.98   1
 -19 -11  21   13.65    3.69   1
 -19 -11  23    8.97    3.00   1
 -19  -9 -22    4.09    2.02   1
 -19  -9 -21    5.87    2.42   1
 -19  -9 -20    3.03    1.74   1
 -19  -9 -18    2.01    1.42   1
 -19  -9 -16    4.05    2.01   1
 -19  -9 -14    2.96    1.72   1
 -19  -9  -9    2.03    1.42   1
 -19  -9  -6   16.73    4.09   1
 -19  -9  -4   12.98    3.60   1
 -19  -9  -3   14.81    3.85   1
 -19  -9  -2   17.58    4.19   1
 -19  -9   3   32.74    5.72   1
 -19  -9   4   19.13    4.37   1
 -19  -9   5   11.32    3.37   1
 -19  -9   6   18.08    4.25   1
 -19  -9   7    6.50    2.55   1
 -19  -9  15    8.66    2.94   1
 -19  -9  17   12.38    3.52   1
 -19  -9  18   17.29    4.16   1
 -19  -9  20   13.50    3.67   1
 -19  -9  21    5.03    2.24   1
 -19  -9  23    9.52    3.09   1
 -19  -7 -23   14.32    3.78   1
 -19  -7 -20    7.75    2.78   1
 -19  -7 -18   12.86    3.59   1
 -19  -7 -17    4.07    2.02   1
 -19  -7 -14    8.25    2.87   1
 -19  -7 -13   11.81    3.44   1
 -19  -7 -11   13.97    3.74   1
 -19  -7 -10    2.61    1.62   1
 -19  -7  -8    9.38    3.06   1
 -19  -7  -7    5.75    2.40   1
 -19  -7  -6    9.91    3.15   1
 -19  -7  -5   13.80    3.71   1
 -19  -7  -4    8.93    2.99   1
 -19  -7  -1   18.88    4.34   1
 -19  -7   0    8.47    2.91   1
 -19  -7   1    7.41    2.72   1
 -19  -7   2    4.19    2.05   1
 -19  -7   9   14.54    3.81   1
 -19  -7  12    3.60    1.90   1
 -19  -7  15   17.74    4.21   1
 -19  -7  17   21.26    4.61   1
 -19  -7  19   15.00    3.87   1
 -19  -7  21    5.70    2.39   1
 -19  -7  22    7.08    2.66   1
 -19  -7  24   10.24    3.20   1
 -19  -5 -24    3.77    1.94   1
 -19  -5 -21    5.93    2.43   1
 -19  -5 -14    4.46    2.11   1
 -19  -5 -10    6.38    2.52   1
 -19  -5  -9   11.51    3.39   1
 -19  -5  -7    2.03    1.42   1
 -19  -5  -4    9.90    3.15   1
 -19  -5  -1   15.38    3.92   1
 -19  -5   0    8.14    2.85   1
 -19  -5   2    5.26    2.29   1
 -19  -5   3    4.98    2.23   1
 -19  -5   5   17.45    4.18   1
 -19  -5   6   16.40    4.05   1
 -19  -5   7   11.10    3.33   1
 -19  -5   8    2.06    1.44   1
 -19  -5   9   29.42    5.42   1
 -19  -5  10   17.28    4.16   1
 -19  -5  13   69.59    8.34   1
 -19  -5  14   30.38    5.51   1
 -19  -5  17   14.22    3.77   1
 -19  -5  19    6.34    2.52   1
 -19  -5  21    8.13    2.85   1
 -19  -5  22    7.13    2.67   1
 -19  -5  24   10.27    3.21   1
 -19  -3 -24    4.92    2.22   1
 -19  -3 -22    4.17    2.04   1
 -19  -3 -20    5.18    2.27   1
 -19  -3 -19    6.98    2.64   1
 -19  -3 -16    7.72    2.78   1
 -19  -3 -15   10.13    3.18   1
 -19  -3 -14    8.55    2.92   1
 -19  -3 -13    3.10    1.76   1
 -19  -3 -12   21.90    4.68   1
 -19  -3 -11   80.00    8.94   1
 -19  -3 -10   23.05    4.80   1
 -19  -3  -9    9.90    3.15   1
 -19  -3  -8    2.36    1.54   1
 -19  -3  -7   17.37    4.17   1
 -19  -3  -5   40.05    6.33   1
 -19  -3  -3   16.39    4.05   1
 -19  -3  -2   40.50    6.36   1
 -19  -3   1   11.74    3.43   1
 -19  -3   3   11.95    3.46   1
 -19  -3   6   15.00    3.87   1
 -19  -3   7   30.76    5.55   1
 -19  -3   8   20.40    4.52   1
 -19  -3   9   43.37    6.59   1
 -19  -3  10    7.05    2.66   1
 -19  -3  12    8.48    2.91   1
 -19  -3  13   40.80    6.39   1
 -19  -3  19   15.51    3.94   1
 -19  -3  20    7.07    2.66   1
 -19  -3  23    8.37    2.89   1
 -19  -1 -22   19.64    4.43   1
 -19  -1 -21    5.85    2.42   1
 -19  -1 -20   25.95    5.09   1
 -19  -1 -16   12.45    3.53   1
 -19  -1 -15    3.75    1.94   1
 -19  -1 -13   12.33    3.51   1
 -19  -1 -12    7.39    2.72   1
 -19  -1 -11   11.89    3.45   1
 -19  -1 -10    5.63    2.37   1
 -19  -1  -9    3.60    1.90   1
 -19  -1  -8   17.35    4.16   1
 -19  -1  -7   30.90    5.56   1
 -19  -1  -6   21.12    4.60   1
 -19  -1  -5   27.00    5.20   1
 -19  -1  -2    8.37    2.89   1
 -19  -1  -1    8.66    2.94   1
 -19  -1   0   10.27    3.21   1
 -19  -1   1    3.26    1.81   1
 -19  -1   2   11.29    3.36   1
 -19  -1   4   16.42    4.05   1
 -19  -1   5   13.20    3.63   1
 -19  -1   7   33.74    5.81   1
 -19  -1   8   17.40    4.17   1
 -19  -1   9   12.64    3.55   1
 -19  -1  10    9.87    3.14   1
 -19  -1  11   14.29    3.78   1
 -19  -1  12    9.62    3.10   1
 -19  -1  16    3.48    1.86   1
 -19  -1  17    1.86    1.36   1
 -19  -1  19   10.35    3.22   1
 -19   1 -21    4.36    2.09   1
 -19   1 -20    1.91    1.38   1
 -19   1 -17    4.20    2.05   1
 -19   1 -15    4.01    2.00   1
 -19   1 -11    3.67    1.92   1
 -19   1 -10   12.53    3.54   1
 -19   1  -8   19.95    4.47   1
 -19   1  -7    5.24    2.29   1
 -19   1  -6   12.19    3.49   1
 -19   1  -5   34.35    5.86   1
 -19   1  -4   14.46    3.80   1
 -19   1  -3    4.54    2.13   1
 -19   1  -1    3.41    1.85   1
 -19   1   3   18.40    4.29   1
 -19   1   4   30.98    5.57   1
 -19   1   5   16.53    4.07   1
 -19   1   6   19.88    4.46   1
 -19   1   7   40.70    6.38   1
 -19   1   8   14.55    3.81   1
 -19   1   9   13.05    3.61   1
 -19   1  13   21.30    4.62   1
 -19   1  14    1.65    1.28   1
 -19   1  15    4.32    2.08   1
 -19   1  17   12.80    3.58   1
 -19   1  18    3.83    1.96   1
 -19   1  19    7.91    2.81   1
 -19   1  21   23.77    4.88   1
 -19   1  23   11.70    3.42   1
 -19   3 -24    2.96    1.72   1
 -19   3 -22    2.27    1.51   1
 -19   3 -20    8.85    2.97   1
 -19   3 -19   16.67    4.08   1
 -19   3 -15   17.08    4.13   1
 -19   3 -12   21.83    4.67   1
 -19   3 -11   44.33    6.66   1
 -19   3 -10    9.68    3.11   1
 -19   3  -9   15.72    3.96   1
 -19   3  -7   22.80    4.77   1
 -19   3  -6    5.70    2.39   1
 -19   3  -5   41.13    6.41   1
 -19   3  -4    9.60    3.10   1
 -19   3  -3    3.49    1.87   1
 -19   3  -2   16.27    4.03   1
 -19   3   2   16.80    4.10   1
 -19   3   3    9.46    3.08   1
 -19   3   4    5.47    2.34   1
 -19   3   5   20.33    4.51   1
 -19   3   6    7.17    2.68   1
 -19   3   7   35.10    5.92   1
 -19   3   8   15.09    3.88   1
 -19   3   9   24.67    4.97   1
 -19   3  10   11.10    3.33   1
 -19   3  11   31.63    5.62   1
 -19   3  13   41.14    6.41   1
 -19   3  15    4.43    2.10   1
 -19   3  21   10.24    3.20   1
 -19   3  22   22.65    4.76   1
 -19   3  23    2.65    1.63   1
 -19   5 -20    8.85    2.97   1
 -19   5 -19    2.66    1.63   1
 -19   5 -16    1.59    1.26   1
 -19   5 -14    7.99    2.83   1
 -19   5 -12    2.80    1.67   1
 -19   5 -11   18.30    4.28   1
 -19   5 -10    6.36    2.52   1
 -19   5  -9    2.67    1.63   1
 -19   5  -8   14.95    3.87   1
 -19   5  -7   15.85    3.98   1
 -19   5  -6   17.36    4.17   1
 -19   5  -5   10.06    3.17   1
 -19   5  -3    6.94    2.63   1
 -19   5   1   22.65    4.76   1
 -19   5   5   14.40    3.79   1
 -19   5   6   11.88    3.45   1
 -19   5   8   15.98    4.00   1
 -19   5   9   12.41    3.52   1
 -19   5  12   17.45    4.18   1
 -19   5  13    3.73    1.93   1
 -19   5  19    3.38    1.84   1
 -19   7 -23    9.03    3.00   1
 -19   7 -20    1.66    1.29   1
 -19   7 -19   13.16    3.63   1
 -19   7 -18    6.00    2.45   1
 -19   7 -16   13.53    3.68   1
 -19   7 -14    9.75    3.12   1
 -19   7  -9    7.70    2.78   1
 -19   7  -8   13.49    3.67   1
 -19   7  -6    3.75    1.94   1
 -19   7  -5   22.35    4.73   1
 -19   7  -4    4.03    2.01   1
 -19   7  -3   40.65    6.38   1
 -19   7  -2    2.74    1.65   1
 -19   7  -1    5.18    2.27   1
 -19   7   0    5.33    2.31   1
 -19   7   2    3.08    1.75   1
 -19   7   3    6.68    2.58   1
 -19   7   4    4.99    2.23   1
 -19   7   5   14.61    3.82   1
 -19   7   6    8.40    2.90   1
 -19   7   7   26.48    5.15   1
 -19   7   8    3.76    1.94   1
 -19   7  10   14.93    3.86   1
 -19   7  11   13.78    3.71   1
 -19   7  12    3.29    1.81   1
 -19   7  13   12.38    3.52   1
 -19   7  14    2.96    1.72   1
 -19   7  15   11.99    3.46   1
 -19   7  17   14.32    3.78   1
 -19   7  18   10.38    3.22   1
 -19   7  19    5.22    2.28   1
 -19   7  22    3.01    1.73   1
 -19   7  24   22.58    4.75   1
 -19   9 -23   10.15    3.19   1
 -19   9 -22   18.94    4.35   1
 -19   9 -21    6.11    2.47   1
 -19   9 -19    1.69    1.30   1
 -19   9 -17    6.19    2.49   1
 -19   9 -16   22.05    4.70   1
 -19   9 -14    6.97    2.64   1
 -19   9 -10    4.16    2.04   1
 -19   9  -9    1.65    1.28   1
 -19   9  -8    4.23    2.06   1
 -19   9  -7    4.83    2.20   1
 -19   9  -4   18.36    4.29   1
 -19   9  -3   18.67    4.32   1
 -19   9   0   21.30    4.62   1
 -19   9   2    8.80    2.97   1
 -19   9   3    3.71    1.93   1
 -19   9   4   15.75    3.97   1
 -19   9   5   31.00    5.57   1
 -19   9   7   11.26    3.36   1
 -19   9   8    6.20    2.49   1
 -19   9   9    3.00    1.73   1
 -19   9  11   10.46    3.23   1
 -19   9  15    8.99    3.00   1
 -19   9  16    2.66    1.63   1
 -19   9  22    2.78    1.67   1
 -19   9  23   17.85    4.22   1
 -19  11 -21    5.06    2.25   1
 -19  11 -20    4.06    2.01   1
 -19  11 -18   14.25    3.77   1
 -19  11 -15    7.88    2.81   1
 -19  11 -13   16.13    4.02   1
 -19  11 -12    4.43    2.10   1
 -19  11 -11    3.97    1.99   1
 -19  11 -10    4.50    2.12   1
 -19  11  -8   25.48    5.05   1
 -19  11  -7    4.78    2.19   1
 -19  11  -5    2.73    1.65   1
 -19  11  -4    3.31    1.82   1
 -19  11  -3   14.26    3.78   1
 -19  11  -1    3.12    1.77   1
 -19  11   0   12.03    3.47   1
 -19  11   2    6.41    2.53   1
 -19  11   3    1.83    1.35   1
 -19  11   4   19.58    4.42   1
 -19  11   5   22.13    4.70   1
 -19  11   6    2.61    1.62   1
 -19  11  10    6.19    2.49   1
 -19  11  11    3.60    1.90   1
 -19  11  13    6.38    2.52   1
 -19  11  14   16.88    4.11   1
 -19  11  15   12.19    3.49   1
 -19  11  17    7.13    2.67   1
 -19  11  18   10.41    3.23   1
 -19  13 -20    5.18    2.27   1
 -19  13 -19    2.10    1.45   1
 -19  13 -18    1.65    1.28   1
 -19  13 -16    4.72    2.17   1
 -19  13 -15    9.45    3.07   1
 -19  13 -12    6.05    2.46   1
 -19  13 -11   17.10    4.14   1
 -19  13  -9   18.08    4.25   1
 -19  13  -8   10.43    3.23   1
 -19  13  -6   15.33    3.92   1
 -19  13  -5   16.73    4.09   1
 -19  13  -4    2.33    1.52   1
 -19  13  -3   11.93    3.45   1
 -19  13  -1    5.73    2.39   1
 -19  13   2    3.03    1.74   1
 -19  13   3   17.02    4.13   1
 -19  13   4   10.50    3.24   1
 -19  13   5    8.89    2.98   1
 -19  13   6   10.70    3.27   1
 -19  13   8   10.20    3.19   1
 -19  13   9    3.90    1.97   1
 -19  13  10   18.15    4.26   1
 -19  13  11   17.85    4.22   1
 -19  13  12    6.57    2.56   1
 -19  13  16    5.63    2.37   1
 -19  13  19    8.29    2.88   1
 -19  13  20    8.82    2.97   1
 -19  13  21    4.84    2.20   1
 -19  15 -18    3.90    1.97   1
 -19  15 -17   15.45    3.93   1
 -19  15 -16   17.48    4.18   1
 -19  15 -11   19.11    4.37   1
 -19  15 -10    6.11    2.47   1
 -19  15  -8   11.40    3.38   1
 -19  15  -6   12.27    3.50   1
 -19  15  -5    7.99    2.83   1
 -19  15  -4   10.88    3.30   1
 -19  15  -3   39.45    6.28   1
 -19  15  -1   10.99    3.31   1
 -19  15   2   18.60    4.31   1
 -19  15   3   11.10    3.33   1
 -19  15   4   14.59    3.82   1
 -19  15   5    1.77    1.33   1
 -19  15   6    6.36    2.52   1
 -19  15   7   10.37    3.22   1
 -19  15   8    2.10    1.45   1
 -19  15  10   10.54    3.25   1
 -19  15  11   13.20    3.63   1
 -19  15  15   11.98    3.46   1
 -19  15  17   12.75    3.57   1
 -19  15  20    1.91    1.38   1
 -19  17 -15   10.43    3.23   1
 -19  17 -13    9.12    3.02   1
 -19  17  -9    1.95    1.40   1
 -19  17  -7   12.98    3.60   1
 -19  17  -5    7.84    2.80   1
 -19  17  -4   16.91    4.11   1
 -19  17  -3   14.17    3.76   1
 -19  17  -1   23.17    4.81   1
 -19  17   4   21.12    4.60   1
 -19  17   6    7.43    2.73   1
 -19  17   7    7.64    2.76   1
 -19  17   9    9.75    3.12   1
 -19  17  11    5.63    2.37   1
 -19  17  12    6.38    2.53   1
 -19  17  13   15.63    3.95   1
 -19  19 -10   12.62    3.55   1
 -19  19  -9    2.03    1.42   1
 -19  19  -5   13.05    3.61   1
 -19  19  -4    3.25    1.80   1
 -19  19  -3   23.29    4.83   1
 -19  19  -2   12.75    3.57   1
 -19  19  -1   23.20    4.82   1
 -19  19   2    6.26    2.50   1
 -19  19   3    6.07    2.46   1
 -19  19   5   14.70    3.83   1
 -19  19   9    2.55    1.60   1
 -19  19  10    9.23    3.04   1
 -19  21  -8    4.35    2.09   1
 -19  21  -7   10.75    3.28   1
 -19  21  -6    2.07    1.44   1
 -19  21  -5    5.47    2.34   1
 -19  21  -3    6.57    2.56   1
 -19  21  -2   12.55    3.54   1
 -19  21   0   10.35    3.22   1
 -19  21   2   17.24    4.15   1
 -19  21   4    8.29    2.88   1
 -19  21   6    7.82    2.80   1
 -19  21   7    1.88    1.37   1
 -19  21   9    9.42    3.07   1
 -18 -24  -2   11.10    3.33   1
 -18 -24   2   27.93    5.28   1
 -18 -24   3    2.36    1.54   1
 -18 -22 -12    5.97    2.44   1
 -18 -22 -10    9.94    3.15   1
 -18 -22  -6    3.30    1.82   1
 -18 -22  -5    7.10    2.66   1
 -18 -22  -2    8.32    2.89   1
 -18 -22   0   18.41    4.29   1
 -18 -22   1   23.22    4.82   1
 -18 -22   2    2.66    1.63   1
 -18 -22   3    7.31    2.70   1
 -18 -22   4    9.60    3.10   1
 -18 -22   5    8.87    2.98   1
 -18 -22   7    3.27    1.81   1
 -18 -22   8   24.61    4.96   1
 -18 -22   9    8.10    2.85   1
 -18 -22  13    2.36    1.54   1
 -18 -20 -16    8.24    2.87   1
 -18 -20 -14    5.44    2.33   1
 -18 -20 -12    5.58    2.36   1
 -18 -20  -7    7.95    2.82   1
 -18 -20  -6    9.23    3.04   1
 -18 -20  -2    3.60    1.90   1
 -18 -20  -1    2.85    1.69   1
 -18 -20   0    7.76    2.79   1
 -18 -20   2   26.77    5.17   1
 -18 -20   4    9.77    3.13   1
 -18 -20   6    6.97    2.64   1
 -18 -20  11   10.65    3.26   1
 -18 -20  12    8.12    2.85   1
 -18 -20  14    1.90    1.38   1
 -18 -20  16   16.73    4.09   1
 -18 -18 -19    2.50    1.58   1
 -18 -18 -18   10.32    3.21   1
 -18 -18 -17    2.43    1.56   1
 -18 -18 -16   12.79    3.58   1
 -18 -18 -14    8.48    2.91   1
 -18 -18 -13   12.00    3.46   1
 -18 -18 -12   11.70    3.42   1
 -18 -18 -11    8.10    2.85   1
 -18 -18  -7    8.48    2.91   1
 -18 -18  -6    8.21    2.87   1
 -18 -18  -5    3.83    1.96   1
 -18 -18  -3   10.05    3.17   1
 -18 -18   1    5.72    2.39   1
 -18 -18   2    8.93    2.99   1
 -18 -18   3    4.05    2.01   1
 -18 -18   4    1.58    1.25   1
 -18 -18   5    5.50    2.34   1
 -18 -18   6    9.05    3.01   1
 -18 -18   7    2.25    1.50   1
 -18 -18  11   18.83    4.34   1
 -18 -18  12    8.81    2.97   1
 -18 -18  13    4.13    2.03   1
 -18 -18  15   10.20    3.19   1
 -18 -18  16    6.82    2.61   1
 -18 -16 -16   20.14    4.49   1
 -18 -16 -13    3.75    1.94   1
 -18 -16 -12    3.27    1.81   1
 -18 -16 -11    6.71    2.59   1
 -18 -16  -9   15.25    3.91   1
 -18 -16  -8    8.54    2.92   1
 -18 -16  -7    5.78    2.40   1
 -18 -16  -2    4.09    2.02   1
 -18 -16  -1   17.10    4.14   1
 -18 -16   0    7.68    2.77   1
 -18 -16   1    7.98    2.82   1
 -18 -16   2   11.55    3.40   1
 -18 -16   3   11.48    3.39   1
 -18 -16   6    9.07    3.01   1
 -18 -16   7    1.62    1.27   1
 -18 -16   9   12.40    3.52   1
 -18 -16  11   16.17    4.02   1
 -18 -16  12    6.18    2.49   1
 -18 -16  13    7.65    2.77   1
 -18 -16  15    9.91    3.15   1
 -18 -16  16    6.91    2.63   1
 -18 -16  18    8.70    2.95   1
 -18 -16  20    3.55    1.88   1
 -18 -16  22    3.75    1.94   1
 -18 -14 -23   11.96    3.46   1
 -18 -14 -19    5.32    2.31   1
 -18 -14 -18    2.10    1.45   1
 -18 -14 -13   20.70    4.55   1
 -18 -14 -12   12.53    3.54   1
 -18 -14 -10    8.89    2.98   1
 -18 -14  -9    2.72    1.65   1
 -18 -14  -8    9.30    3.05   1
 -18 -14  -6    3.41    1.85   1
 -18 -14  -5   12.75    3.57   1
 -18 -14  -2   16.27    4.03   1
 -18 -14  -1   16.46    4.06   1
 -18 -14   0   16.84    4.10   1
 -18 -14   1   21.38    4.62   1
 -18 -14   3   22.68    4.76   1
 -18 -14   4    7.96    2.82   1
 -18 -14   5    4.61    2.15   1
 -18 -14   7   11.11    3.33   1
 -18 -14   9   34.95    5.91   1
 -18 -14  10    8.90    2.98   1
 -18 -14  13    9.60    3.10   1
 -18 -14  17    6.07    2.46   1
 -18 -14  24    4.53    2.13   1
 -18 -12 -23    5.70    2.39   1
 -18 -12 -17   10.13    3.18   1
 -18 -12 -16    3.75    1.94   1
 -18 -12 -15   21.72    4.66   1
 -18 -12 -12    4.84    2.20   1
 -18 -12 -10    9.95    3.15   1
 -18 -12  -9    3.45    1.86   1
 -18 -12  -8   17.89    4.23   1
 -18 -12  -7   11.18    3.34   1
 -18 -12  -6    2.03    1.43   1
 -18 -12  -5   10.83    3.29   1
 -18 -12  -3   10.76    3.28   1
 -18 -12  -2    5.10    2.26   1
 -18 -12  -1   29.77    5.46   1
 -18 -12   0   15.23    3.90   1
 -18 -12   1   35.40    5.95   1
 -18 -12   3   16.27    4.03   1
 -18 -12   4    9.11    3.02   1
 -18 -12   5    8.67    2.94   1
 -18 -12   6    2.33    1.53   1
 -18 -12   8    7.72    2.78   1
 -18 -12   9   11.54    3.40   1
 -18 -12  10   15.52    3.94   1
 -18 -12  12    9.51    3.08   1
 -18 -12  13    1.95    1.40   1
 -18 -12  14   13.65    3.69   1
 -18 -12  19    6.56    2.56   1
 -18 -10 -23   10.61    3.26   1
 -18 -10 -21   12.38    3.52   1
 -18 -10 -19    2.30    1.52   1
 -18 -10 -18   14.10    3.75   1
 -18 -10 -17   14.70    3.83   1
 -18 -10 -11   18.52    4.30   1
 -18 -10 -10   11.55    3.40   1
 -18 -10  -9   13.98    3.74   1
 -18 -10  -8    8.32    2.89   1
 -18 -10  -7    7.47    2.73   1
 -18 -10  -6   21.14    4.60   1
 -18 -10  -5   32.33    5.69   1
 -18 -10  -4    7.31    2.70   1
 -18 -10  -3   17.75    4.21   1
 -18 -10  -1   20.55    4.53   1
 -18 -10   1   48.71    6.98   1
 -18 -10   2   21.18    4.60   1
 -18 -10   4    4.26    2.06   1
 -18 -10   7   44.81    6.69   1
 -18 -10   9   23.44    4.84   1
 -18 -10  10   23.29    4.83   1
 -18 -10  11    9.68    3.11   1
 -18 -10  12   24.98    5.00   1
 -18 -10  13   34.95    5.91   1
 -18 -10  14    5.78    2.40   1
 -18 -10  15    4.27    2.07   1
 -18 -10  16    7.16    2.68   1
 -18 -10  17    4.92    2.22   1
 -18 -10  19   21.21    4.61   1
 -18 -10  22    1.80    1.34   1
 -18 -10  23    7.95    2.82   1
 -18  -8 -23   11.66    3.42   1
 -18  -8 -22    3.63    1.90   1
 -18  -8 -19    1.87    1.37   1
 -18  -8 -14   16.01    4.00   1
 -18  -8 -13    6.70    2.59   1
 -18  -8 -12    4.20    2.05   1
 -18  -8 -10    6.68    2.58   1
 -18  -8  -6   23.14    4.81   1
 -18  -8  -5   49.81    7.06   1
 -18  -8  -3   67.78    8.23   1
 -18  -8  -2    4.15    2.04   1
 -18  -8  -1   38.03    6.17   1
 -18  -8   0    2.85    1.69   1
 -18  -8   1   42.24    6.50   1
 -18  -8   2   30.90    5.56   1
 -18  -8   3   16.08    4.01   1
 -18  -8   4   17.48    4.18   1
 -18  -8   5   18.75    4.33   1
 -18  -8   6   21.38    4.62   1
 -18  -8   7   81.45    9.02   1
 -18  -8   8    7.46    2.73   1
 -18  -8   9    7.54    2.75   1
 -18  -8  10   17.77    4.22   1
 -18  -8  12   14.02    3.74   1
 -18  -8  13    4.84    2.20   1
 -18  -8  15    6.23    2.50   1
 -18  -8  16    6.48    2.54   1
 -18  -8  17    1.99    1.41   1
 -18  -8  19    3.39    1.84   1
 -18  -6 -23    4.08    2.02   1
 -18  -6 -11    7.36    2.71   1
 -18  -6  -9   91.70    9.58   1
 -18  -6  -8   26.48    5.15   1
 -18  -6  -7  163.20   12.77   1
 -18  -6  -5    6.00    2.45   1
 -18  -6  -4    1.84    1.36   1
 -18  -6  -3   71.51    8.46   1
 -18  -6  -2   22.47    4.74   1
 -18  -6  -1   22.05    4.70   1
 -18  -6   0   16.54    4.07   1
 -18  -6   1  196.30   14.01   1
 -18  -6   4   19.39    4.40   1
 -18  -6   5   47.61    6.90   1
 -18  -6   6    4.50    2.12   1
 -18  -6   7    8.10    2.85   1
 -18  -6   8   18.86    4.34   1
 -18  -6   9   67.57    8.22   1
 -18  -6  10   15.20    3.90   1
 -18  -6  11   28.60    5.35   1
 -18  -6  13    6.75    2.60   1
 -18  -6  15    4.13    2.03   1
 -18  -6  16    4.28    2.07   1
 -18  -6  19   12.82    3.58   1
 -18  -4 -24    5.81    2.41   1
 -18  -4 -23    9.07    3.01   1
 -18  -4 -20   15.23    3.90   1
 -18  -4 -19    2.23    1.49   1
 -18  -4 -11   16.83    4.10   1
 -18  -4 -10    2.17    1.47   1
 -18  -4  -9   33.31    5.77   1
 -18  -4  -8   10.57    3.25   1
 -18  -4  -7   36.49    6.04   1
 -18  -4  -6    2.89    1.70   1
 -18  -4  -3    7.48    2.73   1
 -18  -4  -2   18.98    4.36   1
 -18  -4  -1   23.40    4.84   1
 -18  -4   0   17.09    4.13   1
 -18  -4   1   69.34    8.33   1
 -18  -4   3   24.76    4.98   1
 -18  -4   4    4.61    2.15   1
 -18  -4   5   12.82    3.58   1
 -18  -4   6    3.12    1.77   1
 -18  -4   7   10.02    3.16   1
 -18  -4   8    5.59    2.36   1
 -18  -4   9   21.30    4.62   1
 -18  -4  10    5.44    2.33   1
 -18  -4  11   18.75    4.33   1
 -18  -4  13   25.33    5.03   1
 -18  -4  15   16.13    4.02   1
 -18  -4  20   13.50    3.67   1
 -18  -4  21    6.30    2.51   1
 -18  -2 -24    9.00    3.00   1
 -18  -2 -17   13.01    3.61   1
 -18  -2 -16    6.14    2.48   1
 -18  -2 -15    2.03    1.42   1
 -18  -2 -14   14.10    3.75   1
 -18  -2 -13    3.83    1.96   1
 -18  -2 -12   19.95    4.47   1
 -18  -2 -11   14.50    3.81   1
 -18  -2  -5   15.82    3.98   1
 -18  -2  -3   21.60    4.65   1
 -18  -2  -2   22.28    4.72   1
 -18  -2  -1   20.78    4.56   1
 -18  -2   0    3.18    1.78   1
 -18  -2   1   87.60    9.36   1
 -18  -2   2   18.70    4.32   1
 -18  -2   3   25.89    5.09   1
 -18  -2   4    6.62    2.57   1
 -18  -2   5   21.08    4.59   1
 -18  -2   6    6.23    2.50   1
 -18  -2   7   45.74    6.76   1
 -18  -2   8   15.71    3.96   1
 -18  -2   9    3.87    1.97   1
 -18  -2  10   21.30    4.62   1
 -18  -2  11   15.23    3.90   1
 -18  -2  12    9.19    3.03   1
 -18  -2  13    7.16    2.68   1
 -18  -2  15    2.78    1.67   1
 -18  -2  17    8.30    2.88   1
 -18  -2  19    8.06    2.84   1
 -18  -2  22    8.63    2.94   1
 -18   0 -24    3.49    1.87   1
 -18   0 -22   11.42    3.38   1
 -18   0 -21   11.32    3.36   1
 -18   0 -18   13.57    3.68   1
 -18   0 -12   25.49    5.05   1
 -18   0 -11   20.27    4.50   1
 -18   0 -10   12.07    3.47   1
 -18   0  -9   25.39    5.04   1
 -18   0  -8    2.63    1.62   1
 -18   0  -7   21.34    4.62   1
 -18   0  -5   22.95    4.79   1
 -18   0  -4    6.68    2.58   1
 -18   0  -3   30.18    5.49   1
 -18   0  -2    9.98    3.16   1
 -18   0  -1   38.39    6.20   1
 -18   0   0   26.70    5.17   1
 -18   0   1   19.99    4.47   1
 -18   0   2    2.27    1.51   1
 -18   0   3   80.18    8.95   1
 -18   0   4   22.54    4.75   1
 -18   0   5  117.91   10.86   1
 -18   0   9   44.79    6.69   1
 -18   0  10    2.25    1.50   1
 -18   0  12   10.39    3.22   1
 -18   0  13   38.12    6.17   1
 -18   0  14    5.96    2.44   1
 -18   0  15   15.33    3.92   1
 -18   0  16    4.54    2.13   1
 -18   0  18   15.63    3.95   1
 -18   0  19   11.86    3.44   1
 -18   0  21    5.22    2.29   1
 -18   2 -22   20.92    4.57   1
 -18   2 -21   13.20    3.63   1
 -18   2 -18    4.50    2.12   1
 -18   2 -17   11.88    3.45   1
 -18   2 -14   11.52    3.39   1
 -18   2 -13   15.41    3.93   1
 -18   2 -12   11.27    3.36   1
 -18   2  -9   43.30    6.58   1
 -18   2  -8    2.70    1.64   1
 -18   2  -4    5.81    2.41   1
 -18   2  -3    9.42    3.07   1
 -18   2  -2   21.76    4.66   1
 -18   2   0   23.62    4.86   1
 -18   2   1   85.05    9.22   1
 -18   2   2    9.11    3.02   1
 -18   2   3    1.58    1.25   1
 -18   2   4   30.60    5.53   1
 -18   2   5   22.05    4.70   1
 -18   2   8   10.95    3.31   1
 -18   2   9   11.39    3.38   1
 -18   2  10    5.18    2.27   1
 -18   2  11   12.82    3.58   1
 -18   2  13   12.76    3.57   1
 -18   2  14   28.88    5.37   1
 -18   2  17   12.15    3.49   1
 -18   2  18    8.62    2.94   1
 -18   2  19   22.46    4.74   1
 -18   2  22   12.19    3.49   1
 -18   2  23   15.06    3.88   1
 -18   4 -19   28.16    5.31   1
 -18   4 -18   15.30    3.91   1
 -18   4 -17    7.68    2.77   1
 -18   4 -16    5.47    2.34   1
 -18   4 -13   15.45    3.93   1
 -18   4 -12   13.74    3.71   1
 -18   4 -11    6.22    2.49   1
 -18   4  -9   41.52    6.44   1
 -18   4  -8   18.30    4.28   1
 -18   4  -5    2.56    1.60   1
 -18   4  -4    6.30    2.51   1
 -18   4  -3    7.32    2.70   1
 -18   4  -2   30.90    5.56   1
 -18   4   0   20.20    4.49   1
 -18   4   1   53.03    7.28   1
 -18   4   3   50.85    7.13   1
 -18   4   5   11.93    3.45   1
 -18   4   6   11.00    3.32   1
 -18   4   9    7.20    2.68   1
 -18   4  12    6.56    2.56   1
 -18   4  13   12.11    3.48   1
 -18   4  14   25.50    5.05   1
 -18   4  15    5.11    2.26   1
 -18   4  16    4.99    2.23   1
 -18   4  19    4.13    2.03   1
 -18   4  22    2.33    1.53   1
 -18   6 -23    4.57    2.14   1
 -18   6 -22   11.01    3.32   1
 -18   6 -11   10.88    3.30   1
 -18   6  -9   59.60    7.72   1
 -18   6  -8   62.20    7.89   1
 -18   6  -7   55.98    7.48   1
 -18   6  -6   14.89    3.86   1
 -18   6  -5   14.93    3.86   1
 -18   6  -4    7.39    2.72   1
 -18   6  -3   43.80    6.62   1
 -18   6  -2   11.42    3.38   1
 -18   6  -1   17.63    4.20   1
 -18   6   0   36.94    6.08   1
 -18   6   1   98.63    9.93   1
 -18   6   2   16.69    4.09   1
 -18   6   3   26.79    5.18   1
 -18   6   4   27.98    5.29   1
 -18   6   5   22.80    4.77   1
 -18   6   7   21.42    4.63   1
 -18   6   8   29.19    5.40   1
 -18   6   9  144.38   12.02   1
 -18   6  10   38.55    6.21   1
 -18   6  11   71.51    8.46   1
 -18   6  12   15.03    3.88   1
 -18   6  13    8.39    2.90   1
 -18   6  15    5.92    2.43   1
 -18   6  17   14.10    3.75   1
 -18   6  18    8.02    2.83   1
 -18   6  19   41.70    6.46   1
 -18   6  20    1.67    1.29   1
 -18   6  22   13.94    3.73   1
 -18   6  23   22.65    4.76   1
 -18   8 -24    4.99    2.23   1
 -18   8 -20    2.59    1.61   1
 -18   8 -17    2.38    1.54   1
 -18   8 -15   12.90    3.59   1
 -18   8 -13   18.72    4.33   1
 -18   8 -10   22.24    4.72   1
 -18   8  -9    2.03    1.42   1
 -18   8  -8   26.55    5.15   1
 -18   8  -7   14.80    3.85   1
 -18   8  -6   13.69    3.70   1
 -18   8  -5   43.99    6.63   1
 -18   8  -4    6.99    2.64   1
 -18   8  -3   26.25    5.12   1
 -18   8  -1    9.56    3.09   1
 -18   8   2   10.82    3.29   1
 -18   8   3   31.50    5.61   1
 -18   8   4    3.15    1.77   1
 -18   8   5    5.30    2.30   1
 -18   8   6    3.51    1.87   1
 -18   8   7   27.02    5.20   1
 -18   8   9    4.79    2.19   1
 -18   8  11    7.68    2.77   1
 -18   8  12    8.46    2.91   1
 -18   8  13    2.89    1.70   1
 -18   8  14    9.60    3.10   1
 -18   8  15   16.80    4.10   1
 -18   8  19   10.48    3.24   1
 -18   8  20    7.31    2.70   1
 -18   8  23    4.35    2.09   1
 -18  10 -23    1.53    1.23   1
 -18  10 -20    3.80    1.95   1
 -18  10 -13   20.77    4.56   1
 -18  10 -12    5.93    2.44   1
 -18  10 -11   22.27    4.72   1
 -18  10  -7   18.80    4.34   1
 -18  10  -6   25.20    5.02   1
 -18  10  -5   16.15    4.02   1
 -18  10  -3   12.23    3.50   1
 -18  10  -2    5.75    2.40   1
 -18  10  -1   27.92    5.28   1
 -18  10   0    6.75    2.60   1
 -18  10   1   15.10    3.89   1
 -18  10   2   16.31    4.04   1
 -18  10   3   12.97    3.60   1
 -18  10   4   42.00    6.48   1
 -18  10   7    7.77    2.79   1
 -18  10   8   12.88    3.59   1
 -18  10   9   15.83    3.98   1
 -18  10  12    5.32    2.31   1
 -18  10  13   35.51    5.96   1
 -18  10  15    7.01    2.65   1
 -18  10  16    8.10    2.85   1
 -18  10  20    4.27    2.07   1
 -18  12 -22    4.88    2.21   1
 -18  12 -20    9.19    3.03   1
 -18  12 -18    3.50    1.87   1
 -18  12 -17   27.83    5.27   1
 -18  12 -16   14.89    3.86   1
 -18  12 -14   11.85    3.44   1
 -18  12  -8    4.28    2.07   1
 -18  12  -6    8.51    2.92   1
 -18  12  -3   27.45    5.24   1
 -18  12  -1    9.60    3.10   1
 -18  12   0    2.71    1.65   1
 -18  12   1    7.80    2.79   1
 -18  12   2   26.77    5.17   1
 -18  12   5   11.20    3.35   1
 -18  12   6    7.57    2.75   1
 -18  12   8   18.79    4.33   1
 -18  12   9    9.90    3.15   1
 -18  12  10    6.45    2.54   1
 -18  12  12   12.40    3.52   1
 -18  12  13    7.70    2.78   1
 -18  12  15    3.72    1.93   1
 -18  12  17    6.73    2.59   1
 -18  12  20   16.37    4.05   1
 -18  12  21   11.10    3.33   1
 -18  14 -20   16.95    4.12   1
 -18  14 -19    1.92    1.38   1
 -18  14 -18    2.10    1.45   1
 -18  14 -14    8.43    2.90   1
 -18  14 -13   12.75    3.57   1
 -18  14 -10    6.96    2.64   1
 -18  14  -8    2.64    1.62   1
 -18  14  -7   23.14    4.81   1
 -18  14  -6    4.69    2.17   1
 -18  14  -5    2.51    1.59   1
 -18  14  -4    9.04    3.01   1
 -18  14  -3    1.77    1.33   1
 -18  14  -1    4.65    2.16   1
 -18  14   0   15.19    3.90   1
 -18  14   1   16.26    4.03   1
 -18  14   4   10.62    3.26   1
 -18  14   5   17.63    4.20   1
 -18  14   6    2.13    1.46   1
 -18  14  10    2.99    1.73   1
 -18  14  12   10.05    3.17   1
 -18  14  13    8.63    2.94   1
 -18  14  14    7.83    2.80   1
 -18  14  15   10.43    3.23   1
 -18  14  19    1.56    1.25   1
 -18  16 -19    6.64    2.58   1
 -18  16 -18    6.45    2.54   1
 -18  16 -16   10.82    3.29   1
 -18  16 -15    1.68    1.30   1
 -18  16 -12    5.81    2.41   1
 -18  16  -9    7.84    2.80   1
 -18  16  -7    3.67    1.92   1
 -18  16  -6    6.26    2.50   1
 -18  16  -4    5.29    2.30   1
 -18  16  -3    7.95    2.82   1
 -18  16  -2    1.76    1.33   1
 -18  16  -1   24.06    4.90   1
 -18  16   0   19.69    4.44   1
 -18  16   2    9.89    3.14   1
 -18  16   4    6.11    2.47   1
 -18  16   6    8.31    2.88   1
 -18  16  11    5.96    2.44   1
 -18  16  13   10.35    3.22   1
 -18  16  14   18.60    4.31   1
 -18  16  15   22.16    4.71   1
 -18  16  16   12.49    3.53   1
 -18  16  18   14.81    3.85   1
 -18  16  19   13.27    3.64   1
 -18  16  20    3.86    1.97   1
 -18  18 -16    7.28    2.70   1
 -18  18 -15   11.02    3.32   1
 -18  18 -14   19.20    4.38   1
 -18  18 -13    8.73    2.95   1
 -18  18 -11   17.81    4.22   1
 -18  18 -10    3.56    1.89   1
 -18  18  -9    3.97    1.99   1
 -18  18  -8    4.65    2.16   1
 -18  18  -6   18.04    4.25   1
 -18  18  -5   10.61    3.26   1
 -18  18  -3    9.75    3.12   1
 -18  18  -2    5.36    2.32   1
 -18  18   2   11.54    3.40   1
 -18  18   4    9.17    3.03   1
 -18  18   5    7.20    2.68   1
 -18  18   7   20.16    4.49   1
 -18  18   9    7.69    2.77   1
 -18  18  11    4.47    2.11   1
 -18  18  12   18.87    4.34   1
 -18  18  13   17.81    4.22   1
 -18  18  14    4.28    2.07   1
 -18  18  15    4.44    2.11   1
 -18  18  17    7.65    2.77   1
 -18  18  18    3.00    1.73   1
 -18  20  -9    4.45    2.11   1
 -18  20  -5   23.85    4.88   1
 -18  20  -4    8.81    2.97   1
 -18  20  -3    6.81    2.61   1
 -18  20  -1   17.17    4.14   1
 -18  20   1    8.82    2.97   1
 -18  20   2    6.30    2.51   1
 -18  20   3    3.67    1.92   1
 -18  20   4    1.88    1.37   1
 -18  20   5    2.06    1.44   1
 -18  20   6    7.43    2.72   1
 -18  20   7    4.72    2.17   1
 -18  20   8    6.78    2.60   1
 -18  20  15    4.65    2.16   1
 -18  22  -8    4.46    2.11   1
 -18  22  -6   12.07    3.47   1
 -18  22  -2    7.02    2.65   1
 -18  22   0    2.45    1.57   1
 -18  22   1    3.15    1.77   1
 -18  22   2   20.33    4.51   1
 -18  22   7    9.82    3.13   1
 -18  22   9    2.43    1.56   1
 -17 -23  -9    7.50    2.74   1
 -17 -23  -8    5.18    2.27   1
 -17 -23  -4    2.70    1.64   1
 -17 -23  -2    9.45    3.07   1
 -17 -23  -1   13.27    3.64   1
 -17 -23   3    4.80    2.19   1
 -17 -23   4    3.30    1.82   1
 -17 -23   5   11.61    3.41   1
 -17 -23   6   10.05    3.17   1
 -17 -23   8    7.92    2.81   1
 -17 -23  10   15.07    3.88   1
 -17 -21 -16    4.46    2.11   1
 -17 -21 -15    6.53    2.55   1
 -17 -21 -13   14.24    3.77   1
 -17 -21 -11   11.85    3.44   1
 -17 -21  -8    1.54    1.24   1
 -17 -21  -7    2.30    1.52   1
 -17 -21   1    7.77    2.79   1
 -17 -21   2    6.30    2.51   1
 -17 -21   4   26.10    5.11   1
 -17 -21   6    4.09    2.02   1
 -17 -21   7    9.40    3.07   1
 -17 -21   8    2.40    1.55   1
 -17 -21   9   13.27    3.64   1
 -17 -21  10    9.26    3.04   1
 -17 -21  11    9.19    3.03   1
 -17 -21  12    6.37    2.52   1
 -17 -21  13    1.80    1.34   1
 -17 -21  15    9.35    3.06   1
 -17 -21  16    9.06    3.01   1
 -17 -19 -19   12.98    3.60   1
 -17 -19 -17    8.00    2.83   1
 -17 -19 -15    7.69    2.77   1
 -17 -19 -12    8.97    3.00   1
 -17 -19 -10    4.80    2.19   1
 -17 -19  -6   15.75    3.97   1
 -17 -19  -3   25.13    5.01   1
 -17 -19  -1    3.90    1.97   1
 -17 -19   2    1.74    1.32   1
 -17 -19   3   11.93    3.45   1
 -17 -19   6    5.85    2.42   1
 -17 -19   7    6.80    2.61   1
 -17 -19   8    3.19    1.79   1
 -17 -19  10    8.93    2.99   1
 -17 -19  13    6.45    2.54   1
 -17 -19  14    8.69    2.95   1
 -17 -19  15    7.35    2.71   1
 -17 -19  16    7.93    2.82   1
 -17 -17 -21    3.58    1.89   1
 -17 -17 -20    2.10    1.45   1
 -17 -17 -17    3.63    1.90   1
 -17 -17 -16    3.26    1.81   1
 -17 -17 -14   11.18    3.34   1
 -17 -17 -12    3.12    1.77   1
 -17 -17  -4   11.63    3.41   1
 -17 -17  -3   11.61    3.41   1
 -17 -17   1    2.40    1.55   1
 -17 -17   4   15.28    3.91   1
 -17 -17   6    8.50    2.92   1
 -17 -17  10    8.77    2.96   1
 -17 -17  11   17.92    4.23   1
 -17 -17  13   18.01    4.24   1
 -17 -17  16   11.66    3.42   1
 -17 -17  18    2.51    1.59   1
 -17 -17  19    4.53    2.13   1
 -17 -17  23    1.74    1.32   1
 -17 -15 -22    7.43    2.72   1
 -17 -15 -20    4.20    2.05   1
 -17 -15 -19    4.96    2.23   1
 -17 -15 -18    2.67    1.63   1
 -17 -15 -17   18.47    4.30   1
 -17 -15 -16   12.76    3.57   1
 -17 -15 -12    3.49    1.87   1
 -17 -15 -11   10.95    3.31   1
 -17 -15  -9    9.39    3.06   1
 -17 -15  -8    5.61    2.37   1
 -17 -15  -6    8.14    2.85   1
 -17 -15  -5    5.78    2.40   1
 -17 -15  -1   13.17    3.63   1
 -17 -15   0    3.07    1.75   1
 -17 -15   1    8.51    2.92   1
 -17 -15   2    3.38    1.84   1
 -17 -15   3    4.65    2.16   1
 -17 -15   4    2.70    1.64   1
 -17 -15   7    2.59    1.61   1
 -17 -15   9    8.45    2.91   1
 -17 -15  11   18.88    4.34   1
 -17 -15  14    6.54    2.56   1
 -17 -15  15    5.73    2.39   1
 -17 -15  24   12.27    3.50   1
 -17 -13 -23    2.55    1.60   1
 -17 -13 -19    7.65    2.77   1
 -17 -13 -16    3.75    1.94   1
 -17 -13 -13    9.30    3.05   1
 -17 -13 -12    2.70    1.64   1
 -17 -13 -11    7.43    2.72   1
 -17 -13 -10    8.10    2.85   1
 -17 -13  -9    1.91    1.38   1
 -17 -13  -8    9.01    3.00   1
 -17 -13  -5    5.06    2.25   1
 -17 -13  -4   16.59    4.07   1
 -17 -13  -3   32.96    5.74   1
 -17 -13   1   17.40    4.17   1
 -17 -13   5   15.05    3.88   1
 -17 -13   6   12.19    3.49   1
 -17 -13   7    5.16    2.27   1
 -17 -13   8   12.60    3.55   1
 -17 -13   9    3.96    1.99   1
 -17 -13  10    6.04    2.46   1
 -17 -13  14   21.75    4.66   1
 -17 -13  15    7.57    2.75   1
 -17 -13  16    6.33    2.52   1
 -17 -13  17    3.90    1.97   1
 -17 -13  19   17.28    4.16   1
 -17 -13  24   16.69    4.09   1
 -17 -11 -21   17.29    4.16   1
 -17 -11 -19    7.05    2.66   1
 -17 -11 -18    2.73    1.65   1
 -17 -11 -16   13.30    3.65   1
 -17 -11 -14    7.13    2.67   1
 -17 -11 -11    4.03    2.01   1
 -17 -11  -8    6.56    2.56   1
 -17 -11  -7    4.36    2.09   1
 -17 -11  -6   15.66    3.96   1
 -17 -11  -4    2.97    1.72   1
 -17 -11  -3   12.93    3.60   1
 -17 -11  -2   12.04    3.47   1
 -17 -11  -1   15.85    3.98   1
 -17 -11   3   15.09    3.88   1
 -17 -11   4   16.86    4.11   1
 -17 -11   5   22.05    4.70   1
 -17 -11   6   20.51    4.53   1
 -17 -11   7   21.89    4.68   1
 -17 -11   8   11.32    3.37   1
 -17 -11   9   23.70    4.87   1
 -17 -11  14    6.19    2.49   1
 -17 -11  16    1.50    1.23   1
 -17 -11  17    9.49    3.08   1
 -17 -11  18   22.73    4.77   1
 -17 -11  19   10.69    3.27   1
 -17 -11  22    5.75    2.40   1
 -17 -11  23    5.03    2.24   1
 -17  -9 -23   19.05    4.36   1
 -17  -9 -22    6.07    2.46   1
 -17  -9 -18    2.03    1.42   1
 -17  -9 -17    9.90    3.15   1
 -17  -9 -11   11.54    3.40   1
 -17  -9  -7    6.57    2.56   1
 -17  -9  -6   18.03    4.25   1
 -17  -9  -5   24.45    4.94   1
 -17  -9  -4   18.08    4.25   1
 -17  -9  -3    6.10    2.47   1
 -17  -9  -1    4.50    2.12   1
 -17  -9   1   10.56    3.25   1
 -17  -9   2    3.00    1.73   1
 -17  -9   3    8.21    2.87   1
 -17  -9   6    3.90    1.97   1
 -17  -9   7   25.57    5.06   1
 -17  -9  10    7.57    2.75   1
 -17  -9  11   19.69    4.44   1
 -17  -9  12   10.84    3.29   1
 -17  -9  13    4.09    2.02   1
 -17  -9  14   13.43    3.66   1
 -17  -9  16   10.88    3.30   1
 -17  -9  17   17.74    4.21   1
 -17  -9  20   11.40    3.38   1
 -17  -9  21   12.56    3.54   1
 -17  -9  23    4.57    2.14   1
 -17  -7 -22    8.74    2.96   1
 -17  -7 -20    1.61    1.27   1
 -17  -7 -18    4.86    2.21   1
 -17  -7 -17    3.51    1.87   1
 -17  -7 -14    1.67    1.29   1
 -17  -7 -12    4.49    2.12   1
 -17  -7 -11   11.93    3.45   1
 -17  -7  -8   11.17    3.34   1
 -17  -7  -7    5.63    2.37   1
 -17  -7  -6   10.45    3.23   1
 -17  -7  -5   48.01    6.93   1
 -17  -7  -4    2.29    1.51   1
 -17  -7  -3   41.36    6.43   1
 -17  -7  -1   49.65    7.05   1
 -17  -7   1   12.93    3.60   1
 -17  -7   2   13.17    3.63   1
 -17  -7   3   17.17    4.14   1
 -17  -7   5   40.31    6.35   1
 -17  -7   6   37.13    6.09   1
 -17  -7   7   60.97    7.81   1
 -17  -7   8   11.05    3.32   1
 -17  -7   9    7.53    2.74   1
 -17  -7  13   26.70    5.17   1
 -17  -7  14    9.70    3.11   1
 -17  -7  15    5.32    2.31   1
 -17  -7  16    1.88    1.37   1
 -17  -7  17    5.56    2.36   1
 -17  -7  18    3.53    1.88   1
 -17  -7  20    6.00    2.45   1
 -17  -7  21   14.24    3.77   1
 -17  -7  22    8.40    2.90   1
 -17  -5 -22    4.48    2.12   1
 -17  -5 -21    6.07    2.46   1
 -17  -5 -19   12.64    3.55   1
 -17  -5 -18   11.80    3.44   1
 -17  -5 -17   10.35    3.22   1
 -17  -5 -16    1.88    1.37   1
 -17  -5 -14    8.65    2.94   1
 -17  -5 -13   19.40    4.40   1
 -17  -5 -12    6.90    2.63   1
 -17  -5 -11    6.10    2.47   1
 -17  -5  -9   12.17    3.49   1
 -17  -5  -8   14.21    3.77   1
 -17  -5  -7  109.63   10.47   1
 -17  -5  -6   10.20    3.19   1
 -17  -5  -5   25.95    5.09   1
 -17  -5  -3   11.89    3.45   1
 -17  -5  -2    5.12    2.26   1
 -17  -5  -1    6.75    2.60   1
 -17  -5   1   38.10    6.17   1
 -17  -5   2    2.96    1.72   1
 -17  -5   3   13.36    3.65   1
 -17  -5   5   15.52    3.94   1
 -17  -5   6   20.81    4.56   1
 -17  -5   7   23.51    4.85   1
 -17  -5   8   40.09    6.33   1
 -17  -5   9  110.93   10.53   1
 -17  -5  10   13.50    3.67   1
 -17  -5  13    3.83    1.96   1
 -17  -5  14   10.02    3.17   1
 -17  -5  15    7.68    2.77   1
 -17  -5  16   22.46    4.74   1
 -17  -5  19    5.70    2.39   1
 -17  -5  20    7.65    2.77   1
 -17  -5  21    7.11    2.67   1
 -17  -5  24    7.35    2.71   1
 -17  -3 -24    2.28    1.51   1
 -17  -3 -22   14.63    3.82   1
 -17  -3 -16    7.20    2.68   1
 -17  -3 -14    4.91    2.22   1
 -17  -3 -12   12.64    3.55   1
 -17  -3 -11   44.30    6.66   1
 -17  -3 -10    4.77    2.18   1
 -17  -3  -9   34.55    5.88   1
 -17  -3  -8   26.55    5.15   1
 -17  -3  -7   67.80    8.23   1
 -17  -3  -6   35.47    5.96   1
 -17  -3  -5   70.43    8.39   1
 -17  -3  -4   11.51    3.39   1
 -17  -3  -3   39.38    6.27   1
 -17  -3  -1   35.28    5.94   1
 -17  -3   0   10.57    3.25   1
 -17  -3   2   20.29    4.50   1
 -17  -3   3   22.50    4.74   1
 -17  -3   4    9.90    3.15   1
 -17  -3   7   37.10    6.09   1
 -17  -3   8   41.87    6.47   1
 -17  -3   9   87.30    9.34   1
 -17  -3  10   31.88    5.65   1
 -17  -3  11   12.98    3.60   1
 -17  -3  13   62.81    7.93   1
 -17  -3  17   12.28    3.50   1
 -17  -3  18   10.88    3.30   1
 -17  -3  20   18.03    4.25   1
 -17  -3  23    9.85    3.14   1
 -17  -1 -23   10.72    3.27   1
 -17  -1 -21    2.28    1.51   1
 -17  -1 -17    8.18    2.86   1
 -17  -1 -16    5.70    2.39   1
 -17  -1 -13   15.37    3.92   1
 -17  -1 -12    6.04    2.46   1
 -17  -1  -9   25.35    5.03   1
 -17  -1  -7   16.84    4.10   1
 -17  -1  -5   12.49    3.53   1
 -17  -1  -4   30.23    5.50   1
 -17  -1  -3    8.16    2.86   1
 -17  -1  -1   13.61    3.69   1
 -17  -1   0   21.59    4.65   1
 -17  -1   1    9.23    3.04   1
 -17  -1   2    3.24    1.80   1
 -17  -1   3    5.14    2.27   1
 -17  -1   4   20.70    4.55   1
 -17  -1   5   34.84    5.90   1
 -17  -1   7   36.08    6.01   1
 -17  -1   8   11.55    3.40   1
 -17  -1   9    2.67    1.63   1
 -17  -1  10   13.47    3.67   1
 -17  -1  16    5.91    2.43   1
 -17  -1  17   15.33    3.91   1
 -17  -1  18   13.95    3.73   1
 -17  -1  22    8.37    2.89   1
 -17  -1  24    7.16    2.68   1
 -17   1 -24    6.86    2.62   1
 -17   1 -22    4.99    2.23   1
 -17   1 -17    8.44    2.90   1
 -17   1 -10    6.40    2.53   1
 -17   1  -9   10.35    3.22   1
 -17   1  -7   17.92    4.23   1
 -17   1  -5   34.80    5.90   1
 -17   1  -3   12.07    3.47   1
 -17   1  -2    2.00    1.41   1
 -17   1  -1    9.03    3.00   1
 -17   1   0   27.22    5.22   1
 -17   1   1   10.88    3.30   1
 -17   1   2   11.35    3.37   1
 -17   1   4    3.22    1.80   1
 -17   1   5    8.63    2.94   1
 -17   1   6    4.88    2.21   1
 -17   1   7    6.45    2.54   1
 -17   1   8   19.16    4.38   1
 -17   1  12   18.79    4.33   1
 -17   1  13    8.18    2.86   1
 -17   1  17    8.25    2.87   1
 -17   1  18    4.49    2.12   1
 -17   1  19    6.86    2.62   1
 -17   1  22   10.91    3.30   1
 -17   1  24    7.62    2.76   1
 -17   3 -23    4.43    2.10   1
 -17   3 -21    2.40    1.55   1
 -17   3 -17    5.74    2.40   1
 -17   3 -15   32.10    5.67   1
 -17   3 -14   17.45    4.18   1
 -17   3 -12    8.50    2.92   1
 -17   3 -11   43.17    6.57   1
 -17   3 -10    5.42    2.33   1
 -17   3  -9   12.04    3.47   1
 -17   3  -8   33.11    5.75   1
 -17   3  -7   71.00    8.43   1
 -17   3  -5   32.92    5.74   1
 -17   3  -4   20.10    4.48   1
 -17   3  -3    4.40    2.10   1
 -17   3  -2   27.27    5.22   1
 -17   3  -1   13.95    3.73   1
 -17   3   0   14.63    3.82   1
 -17   3   2    2.17    1.47   1
 -17   3   3   13.56    3.68   1
 -17   3   4   13.00    3.61   1
 -17   3   5   60.87    7.80   1
 -17   3   7   41.17    6.42   1
 -17   3   8   28.04    5.30   1
 -17   3   9   81.07    9.00   1
 -17   3  10   19.27    4.39   1
 -17   3  11   35.22    5.93   1
 -17   3  13   12.45    3.53   1
 -17   3  15    5.96    2.44   1
 -17   3  17   12.15    3.49   1
 -17   3  18    6.45    2.54   1
 -17   3  19   20.70    4.55   1
 -17   3  20   11.63    3.41   1
 -17   3  22   10.16    3.19   1
 -17   3  23   14.85    3.85   1
 -17   5 -24    2.60    1.61   1
 -17   5 -23    9.52    3.09   1
 -17   5 -22   15.15    3.89   1
 -17   5 -21    2.47    1.57   1
 -17   5 -17   11.10    3.33   1
 -17   5 -16   14.37    3.79   1
 -17   5 -15    6.15    2.48   1
 -17   5 -14   19.35    4.40   1
 -17   5  -9   39.08    6.25   1
 -17   5  -8   59.77    7.73   1
 -17   5  -7  118.54   10.89   1
 -17   5  -6   28.31    5.32   1
 -17   5  -5   15.90    3.99   1
 -17   5  -4    7.83    2.80   1
 -17   5  -3   14.63    3.82   1
 -17   5   0    3.41    1.85   1
 -17   5   3   26.44    5.14   1
 -17   5   4    2.67    1.64   1
 -17   5   5   11.85    3.44   1
 -17   5   6   12.68    3.56   1
 -17   5   7   38.22    6.18   1
 -17   5   8   81.27    9.02   1
 -17   5   9   96.47    9.82   1
 -17   5  10   32.14    5.67   1
 -17   5  13    3.45    1.86   1
 -17   5  16    8.29    2.88   1
 -17   5  17   11.38    3.37   1
 -17   7 -22   12.82    3.58   1
 -17   7 -20    3.67    1.92   1
 -17   7 -16    1.68    1.30   1
 -17   7 -15   18.23    4.27   1
 -17   7 -14    2.26    1.50   1
 -17   7 -13   65.70    8.11   1
 -17   7 -12   19.09    4.37   1
 -17   7 -11   36.78    6.06   1
 -17   7  -6   35.29    5.94   1
 -17   7  -5   88.39    9.40   1
 -17   7  -4   47.03    6.86   1
 -17   7  -3   35.22    5.93   1
 -17   7  -2    6.50    2.55   1
 -17   7  -1   23.33    4.83   1
 -17   7   0    9.38    3.06   1
 -17   7   1   14.48    3.80   1
 -17   7   2   23.96    4.90   1
 -17   7   3   21.35    4.62   1
 -17   7   4   30.61    5.53   1
 -17   7   6   12.79    3.58   1
 -17   7   7   75.61    8.70   1
 -17   7   9    2.31    1.52   1
 -17   7  10   15.71    3.96   1
 -17   7  11   16.69    4.09   1
 -17   7  13    7.13    2.67   1
 -17   7  14   21.45    4.63   1
 -17   7  15   57.53    7.58   1
 -17   7  16   11.20    3.35   1
 -17   7  17   11.70    3.42   1
 -17   7  19    2.84    1.69   1
 -17   7  22    7.95    2.82   1
 -17   7  23    9.87    3.14   1
 -17   7  24    7.47    2.73   1
 -17   9 -23   13.95    3.73   1
 -17   9 -22   17.85    4.22   1
 -17   9 -19    8.74    2.96   1
 -17   9 -15    2.43    1.56   1
 -17   9 -11   17.92    4.23   1
 -17   9  -9   21.38    4.62   1
 -17   9  -6   13.43    3.66   1
 -17   9  -5   13.27    3.64   1
 -17   9  -4    3.15    1.77   1
 -17   9  -3    4.01    2.00   1
 -17   9   0    3.75    1.94   1
 -17   9   1    3.99    2.00   1
 -17   9   2   14.89    3.86   1
 -17   9   3    4.32    2.08   1
 -17   9   4   10.46    3.23   1
 -17   9   5    6.07    2.46   1
 -17   9   7   37.80    6.15   1
 -17   9   8    7.35    2.71   1
 -17   9  10    4.54    2.13   1
 -17   9  11    4.65    2.16   1
 -17   9  13   21.71    4.66   1
 -17   9  15    3.15    1.77   1
 -17   9  17   10.16    3.19   1
 -17   9  23   10.20    3.19   1
 -17   9  24    9.72    3.12   1
 -17  11 -24    5.40    2.32   1
 -17  11 -21    2.99    1.73   1
 -17  11 -20    5.63    2.37   1
 -17  11 -19   11.08    3.33   1
 -17  11 -16    3.50    1.87   1
 -17  11 -14    4.98    2.23   1
 -17  11 -13   17.92    4.23   1
 -17  11 -12   10.85    3.29   1
 -17  11 -11   11.70    3.42   1
 -17  11  -8    3.83    1.96   1
 -17  11  -7    1.80    1.34   1
 -17  11  -6   24.52    4.95   1
 -17  11  -5    8.66    2.94   1
 -17  11  -4    9.04    3.01   1
 -17  11  -3   30.91    5.56   1
 -17  11  -2    4.88    2.21   1
 -17  11   0   12.71    3.57   1
 -17  11   1    7.47    2.73   1
 -17  11   5   20.11    4.48   1
 -17  11   6   13.57    3.68   1
 -17  11   7   18.33    4.28   1
 -17  11   8   20.33    4.51   1
 -17  11   9    3.90    1.97   1
 -17  11  10    2.03    1.42   1
 -17  11  11   28.27    5.32   1
 -17  11  12    2.55    1.60   1
 -17  11  13    6.01    2.45   1
 -17  11  15    2.30    1.52   1
 -17  11  16    2.59    1.61   1
 -17  13 -21    5.25    2.29   1
 -17  13 -19   12.26    3.50   1
 -17  13 -18    1.75    1.32   1
 -17  13 -16    4.47    2.12   1
 -17  13 -14    3.43    1.85   1
 -17  13 -12    5.85    2.42   1
 -17  13 -11    6.96    2.64   1
 -17  13  -9   17.29    4.16   1
 -17  13  -8   31.15    5.58   1
 -17  13  -7   14.77    3.84   1
 -17  13  -6   33.00    5.74   1
 -17  13  -3   41.81    6.47   1
 -17  13  -2   12.27    3.50   1
 -17  13  -1    4.38    2.09   1
 -17  13   0    9.90    3.15   1
 -17  13   2    7.05    2.66   1
 -17  13   3   14.96    3.87   1
 -17  13   4    5.18    2.27   1
 -17  13   5   23.94    4.89   1
 -17  13   6   19.88    4.46   1
 -17  13   7   28.16    5.31   1
 -17  13   8    2.00    1.41   1
 -17  13  10    4.28    2.07   1
 -17  13  11    5.93    2.43   1
 -17  13  14    8.81    2.97   1
 -17  13  16   10.91    3.30   1
 -17  13  17    6.10    2.47   1
 -17  13  21    2.85    1.69   1
 -17  13  23   18.87    4.34   1
 -17  13  24   21.30    4.62   1
 -17  15 -21   10.45    3.23   1
 -17  15 -20    6.30    2.51   1
 -17  15 -16   11.23    3.35   1
 -17  15 -15    5.29    2.30   1
 -17  15 -13    8.48    2.91   1
 -17  15 -12   10.35    3.22   1
 -17  15 -11    4.39    2.09   1
 -17  15 -10    9.45    3.07   1
 -17  15  -9    9.15    3.02   1
 -17  15  -8    2.28    1.51   1
 -17  15  -5    2.44    1.56   1
 -17  15  -4   16.31    4.04   1
 -17  15  -3   19.50    4.42   1
 -17  15  -2    8.74    2.96   1
 -17  15  -1    6.10    2.47   1
 -17  15   1    4.81    2.19   1
 -17  15   3   11.40    3.38   1
 -17  15   4   14.63    3.82   1
 -17  15   5   16.73    4.09   1
 -17  15   6    2.29    1.51   1
 -17  15   8   12.50    3.54   1
 -17  15  11    6.23    2.50   1
 -17  15  12    5.63    2.37   1
 -17  15  13   22.59    4.75   1
 -17  15  14    5.59    2.36   1
 -17  15  15    9.74    3.12   1
 -17  15  16    3.30    1.82   1
 -17  15  17   14.02    3.74   1
 -17  15  18    4.69    2.17   1
 -17  15  19    4.33    2.08   1
 -17  15  20   17.43    4.18   1
 -17  15  21    3.34    1.83   1
 -17  15  22    5.85    2.42   1
 -17  17 -17   15.56    3.94   1
 -17  17 -14    4.28    2.07   1
 -17  17 -13    3.30    1.82   1
 -17  17 -12   22.88    4.78   1
 -17  17 -11   21.42    4.63   1
 -17  17 -10   21.08    4.59   1
 -17  17  -9    7.94    2.82   1
 -17  17  -8   18.60    4.31   1
 -17  17  -5    2.10    1.45   1
 -17  17  -3   12.15    3.49   1
 -17  17  -1   15.94    3.99   1
 -17  17   1    4.09    2.02   1
 -17  17   2    8.85    2.97   1
 -17  17   3   16.75    4.09   1
 -17  17   4   12.90    3.59   1
 -17  17   7   23.33    4.83   1
 -17  17   9    9.72    3.12   1
 -17  17  10   19.88    4.46   1
 -17  17  13    9.23    3.04   1
 -17  17  15   15.67    3.96   1
 -17  17  16    4.99    2.23   1
 -17  17  17   10.65    3.26   1
 -17  17  18    7.28    2.70   1
 -17  17  20    5.86    2.42   1
 -17  19 -16   16.20    4.02   1
 -17  19 -15    7.28    2.70   1
 -17  19 -14    3.68    1.92   1
 -17  19 -12   18.38    4.29   1
 -17  19 -11   21.81    4.67   1
 -17  19 -10    4.43    2.11   1
 -17  19  -9   12.00    3.46   1
 -17  19  -4    2.78    1.67   1
 -17  19  -2   13.73    3.70   1
 -17  19  -1    7.24    2.69   1
 -17  19   0    7.78    2.79   1
 -17  19   1    5.03    2.24   1
 -17  19   3   14.04    3.75   1
 -17  19   4   30.45    5.52   1
 -17  19   5    5.93    2.43   1
 -17  19   6    9.15    3.02   1
 -17  19   7    8.85    2.97   1
 -17  19  10   13.92    3.73   1
 -17  19  11    8.92    2.99   1
 -17  19  12   12.49    3.53   1
 -17  19  13    4.96    2.23   1
 -17  19  14    4.32    2.08   1
 -17  21 -13   11.51    3.39   1
 -17  21 -11    3.35    1.83   1
 -17  21 -10    3.15    1.77   1
 -17  21  -9    4.13    2.03   1
 -17  21  -8    4.28    2.07   1
 -17  21  -5    1.50    1.22   1
 -17  21  -4    3.32    1.82   1
 -17  21  -2   13.54    3.68   1
 -17  21   0    2.06    1.44   1
 -17  21   1    4.13    2.03   1
 -17  21   2    7.13    2.67   1
 -17  21   3    6.34    2.52   1
 -17  21   4    6.21    2.49   1
 -17  21   6    8.28    2.88   1
 -17  21   9    8.04    2.84   1
 -17  21  10    3.18    1.78   1
 -17  21  11    4.05    2.01   1
 -17  23  -8    1.88    1.37   1
 -17  23  -7    2.97    1.72   1
 -17  23  -6    3.12    1.77   1
 -17  23  -5    5.44    2.33   1
 -17  23  -3    7.28    2.70   1
 -17  23  -2    6.15    2.48   1
 -17  23  -1    3.77    1.94   1
 -17  23   0    9.68    3.11   1
 -17  23   2   14.66    3.83   1
 -17  23   7    9.90    3.15   1
 -17  23   9   10.98    3.31   1
 -16 -24  -8    9.15    3.02   1
 -16 -24  -5   13.84    3.72   1
 -16 -24  -3    5.51    2.35   1
 -16 -24  -2    4.95    2.22   1
 -16 -24  -1   12.36    3.52   1
 -16 -24   0    7.35    2.71   1
 -16 -24   1   28.01    5.29   1
 -16 -24   2    3.20    1.79   1
 -16 -24   4    5.20    2.28   1
 -16 -24   6   13.65    3.69   1
 -16 -24   8   17.73    4.21   1
 -16 -24  12   17.55    4.19   1
 -16 -22 -14   11.29    3.36   1
 -16 -22 -13    2.73    1.65   1
 -16 -22  -9   11.70    3.42   1
 -16 -22  -6    3.08    1.75   1
 -16 -22  -4    2.24    1.50   1
 -16 -22   0   22.58    4.75   1
 -16 -22   1   16.80    4.10   1
 -16 -22   4    4.57    2.14   1
 -16 -22   5    1.90    1.38   1
 -16 -22   6   10.45    3.23   1
 -16 -22   7    5.17    2.27   1
 -16 -22  10    3.19    1.79   1
 -16 -22  13    2.17    1.47   1
 -16 -22  14    4.38    2.09   1
 -16 -22  16    6.75    2.60   1
 -16 -20 -19    7.05    2.66   1
 -16 -20 -14    5.40    2.32   1
 -16 -20 -11    1.76    1.33   1
 -16 -20 -10   13.27    3.64   1
 -16 -20  -9    2.89    1.70   1
 -16 -20  -8    3.87    1.97   1
 -16 -20  -4    1.83    1.35   1
 -16 -20  -3    4.72    2.17   1
 -16 -20  -2    1.58    1.26   1
 -16 -20  -1    4.39    2.09   1
 -16 -20   1   18.91    4.35   1
 -16 -20   2    8.81    2.97   1
 -16 -20   3   12.75    3.57   1
 -16 -20   4   23.77    4.88   1
 -16 -20   5   12.97    3.60   1
 -16 -20   6    5.23    2.29   1
 -16 -20   8   12.75    3.57   1
 -16 -20  11   14.21    3.77   1
 -16 -20  12    9.00    3.00   1
 -16 -20  14   18.68    4.32   1
 -16 -20  17   13.27    3.64   1
 -16 -20  20    1.60    1.26   1
 -16 -18 -18    7.05    2.66   1
 -16 -18 -17   11.21    3.35   1
 -16 -18  -8   20.10    4.48   1
 -16 -18  -6   12.26    3.50   1
 -16 -18  -4   23.51    4.85   1
 -16 -18  -2   23.34    4.83   1
 -16 -18  -1   20.63    4.54   1
 -16 -18   3   23.10    4.81   1
 -16 -18   4   13.91    3.73   1
 -16 -18   8    8.47    2.91   1
 -16 -18   9   18.62    4.32   1
 -16 -18  11    1.51    1.23   1
 -16 -18  13    9.49    3.08   1
 -16 -18  19    2.17    1.47   1
 -16 -18  20    7.62    2.76   1
 -16 -18  21   13.06    3.61   1
 -16 -18  23    6.35    2.52   1
 -16 -16 -23    6.00    2.45   1
 -16 -16 -18    5.18    2.27   1
 -16 -16 -15    4.99    2.23   1
 -16 -16 -14    4.92    2.22   1
 -16 -16 -10    6.79    2.61   1
 -16 -16  -9    5.20    2.28   1
 -16 -16  -8    4.50    2.12   1
 -16 -16  -6    8.88    2.98   1
 -16 -16  -5   28.20    5.31   1
 -16 -16  -2   10.15    3.19   1
 -16 -16  -1   10.43    3.23   1
 -16 -16   0   28.38    5.33   1
 -16 -16   1   14.70    3.83   1
 -16 -16   2   15.45    3.93   1
 -16 -16   5    6.10    2.47   1
 -16 -16   6    5.51    2.35   1
 -16 -16   7   19.73    4.44   1
 -16 -16   8    5.81    2.41   1
 -16 -16   9   11.96    3.46   1
 -16 -16  11    5.06    2.25   1
 -16 -16  12    6.11    2.47   1
 -16 -16  15    4.95    2.22   1
 -16 -16  22    3.53    1.88   1
 -16 -16  24    2.47    1.57   1
 -16 -14 -23    4.46    2.11   1
 -16 -14 -21    6.71    2.59   1
 -16 -14 -19    6.16    2.48   1
 -16 -14 -16   10.69    3.27   1
 -16 -14 -11    5.55    2.35   1
 -16 -14 -10   22.00    4.69   1
 -16 -14  -7    3.40    1.84   1
 -16 -14  -6    3.38    1.84   1
 -16 -14  -3    8.70    2.95   1
 -16 -14  -2    2.33    1.52   1
 -16 -14  -1    2.95    1.72   1
 -16 -14   0   36.83    6.07   1
 -16 -14   1   24.40    4.94   1
 -16 -14   2   15.75    3.97   1
 -16 -14   3   12.64    3.55   1
 -16 -14   4   18.79    4.33   1
 -16 -14   6    7.87    2.81   1
 -16 -14  11   10.21    3.20   1
 -16 -14  12   10.30    3.21   1
 -16 -14  13   18.66    4.32   1
 -16 -14  16   14.20    3.77   1
 -16 -14  17    6.38    2.52   1
 -16 -14  20   18.82    4.34   1
 -16 -14  21    9.03    3.00   1
 -16 -12 -24   13.75    3.71   1
 -16 -12 -23    1.88    1.37   1
 -16 -12 -22   22.65    4.76   1
 -16 -12 -21   15.98    4.00   1
 -16 -12 -14    2.43    1.56   1
 -16 -12 -13   13.35    3.65   1
 -16 -12 -12   51.83    7.20   1
 -16 -12  -9   43.39    6.59   1
 -16 -12  -8   14.92    3.86   1
 -16 -12  -7    7.32    2.71   1
 -16 -12  -6   32.33    5.69   1
 -16 -12  -3   13.16    3.63   1
 -16 -12  -2    7.75    2.78   1
 -16 -12  -1   19.16    4.38   1
 -16 -12   0    3.47    1.86   1
 -16 -12   1   34.88    5.91   1
 -16 -12   3   28.16    5.31   1
 -16 -12   5   20.11    4.48   1
 -16 -12   8    2.29    1.51   1
 -16 -12  11   24.00    4.90   1
 -16 -12  14   11.97    3.46   1
 -16 -12  15   13.19    3.63   1
 -16 -12  16    3.90    1.97   1
 -16 -12  17   14.42    3.80   1
 -16 -12  19    1.73    1.31   1
 -16 -12  23   13.16    3.63   1
 -16 -12  24    2.63    1.62   1
 -16 -10 -22    1.67    1.29   1
 -16 -10 -20   10.05    3.17   1
 -16 -10 -19   14.40    3.79   1
 -16 -10 -18    3.79    1.95   1
 -16 -10 -16    3.71    1.93   1
 -16 -10 -13   19.32    4.40   1
 -16 -10 -10   14.66    3.83   1
 -16 -10  -9   17.30    4.16   1
 -16 -10  -8   41.21    6.42   1
 -16 -10  -7   11.55    3.40   1
 -16 -10  -5   10.17    3.19   1
 -16 -10  -4    7.83    2.80   1
 -16 -10  -3    6.75    2.60   1
 -16 -10  -2   15.50    3.94   1
 -16 -10  -1    2.34    1.53   1
 -16 -10   0   56.46    7.51   1
 -16 -10   1   65.59    8.10   1
 -16 -10   3    1.80    1.34   1
 -16 -10   5   11.96    3.46   1
 -16 -10   6    2.33    1.52   1
 -16 -10   7   27.60    5.25   1
 -16 -10   8    3.14    1.77   1
 -16 -10  10   15.98    4.00   1
 -16 -10  11   41.55    6.45   1
 -16 -10  12   13.20    3.63   1
 -16 -10  14    1.81    1.34   1
 -16 -10  15   20.38    4.51   1
 -16 -10  16    5.40    2.32   1
 -16 -10  20   19.65    4.43   1
 -16 -10  22    2.85    1.69   1
 -16 -10  24   13.72    3.70   1
 -16  -8 -24    3.56    1.89   1
 -16  -8 -23    6.49    2.55   1
 -16  -8 -22   16.28    4.04   1
 -16  -8 -19   10.20    3.19   1
 -16  -8 -16    5.03    2.24   1
 -16  -8 -12   11.43    3.38   1
 -16  -8 -11    8.48    2.91   1
 -16  -8 -10    4.08    2.02   1
 -16  -8  -9   15.98    4.00   1
 -16  -8  -8    2.52    1.59   1
 -16  -8  -7    6.18    2.48   1
 -16  -8  -6   23.30    4.83   1
 -16  -8  -5   10.50    3.24   1
 -16  -8  -4   16.13    4.02   1
 -16  -8  -3   25.13    5.01   1
 -16  -8  -2    9.90    3.15   1
 -16  -8  -1    3.67    1.92   1
 -16  -8   0   18.31    4.28   1
 -16  -8   2   36.75    6.06   1
 -16  -8   4   16.35    4.04   1
 -16  -8   6    2.63    1.62   1
 -16  -8   8    4.95    2.22   1
 -16  -8   9    5.88    2.42   1
 -16  -8  10   27.70    5.26   1
 -16  -8  11    2.06    1.44   1
 -16  -8  13   20.51    4.53   1
 -16  -8  15    2.24    1.50   1
 -16  -8  16    2.74    1.65   1
 -16  -8  17   12.39    3.52   1
 -16  -8  22   14.48    3.80   1
 -16  -6 -24   10.50    3.24   1
 -16  -6 -18   10.24    3.20   1
 -16  -6 -14   16.69    4.09   1
 -16  -6 -13    7.28    2.70   1
 -16  -6  -9   20.29    4.50   1
 -16  -6  -8    3.58    1.89   1
 -16  -6  -7   15.03    3.88   1
 -16  -6  -5    4.34    2.08   1
 -16  -6  -4    4.35    2.09   1
 -16  -6  -3   17.35    4.17   1
 -16  -6  -1   25.88    5.09   1
 -16  -6   0   98.70    9.93   1
 -16  -6   1  120.07   10.96   1
 -16  -6   2   95.85    9.79   1
 -16  -6   3   15.82    3.98   1
 -16  -6   4    2.78    1.67   1
 -16  -6   5   24.33    4.93   1
 -16  -6   6   26.22    5.12   1
 -16  -6   7    7.24    2.69   1
 -16  -6   9    3.12    1.77   1
 -16  -6  11   12.40    3.52   1
 -16  -6  12   27.23    5.22   1
 -16  -6  13    6.94    2.63   1
 -16  -6  14   15.76    3.97   1
 -16  -6  15   15.88    3.99   1
 -16  -6  18    2.83    1.68   1
 -16  -6  20   12.15    3.49   1
 -16  -6  21   16.26    4.03   1
 -16  -6  24    1.80    1.34   1
 -16  -4 -24    6.45    2.54   1
 -16  -4 -23    2.70    1.64   1
 -16  -4 -21   20.72    4.55   1
 -16  -4 -20    4.80    2.19   1
 -16  -4 -17    2.55    1.60   1
 -16  -4 -15   12.71    3.57   1
 -16  -4 -13   15.56    3.94   1
 -16  -4 -10   20.34    4.51   1
 -16  -4  -9    4.28    2.07   1
 -16  -4  -8    7.35    2.71   1
 -16  -4  -6    8.30    2.88   1
 -16  -4  -4   24.96    5.00   1
 -16  -4  -3   11.08    3.33   1
 -16  -4  -1   34.13    5.84   1
 -16  -4   0   14.70    3.83   1
 -16  -4   1   12.92    3.59   1
 -16  -4   2   12.16    3.49   1
 -16  -4   3    4.28    2.07   1
 -16  -4   4   21.45    4.63   1
 -16  -4   5   23.63    4.86   1
 -16  -4   6   12.12    3.48   1
 -16  -4   9   20.03    4.48   1
 -16  -4  10   26.16    5.11   1
 -16  -4  11   20.82    4.56   1
 -16  -4  12    7.95    2.82   1
 -16  -4  14    8.77    2.96   1
 -16  -4  15    6.45    2.54   1
 -16  -4  16    1.84    1.36   1
 -16  -4  20    3.87    1.97   1
 -16  -4  23    8.32    2.89   1
 -16  -4  24    2.63    1.62   1
 -16  -2 -24    6.64    2.58   1
 -16  -2 -22   27.00    5.20   1
 -16  -2 -21    3.15    1.77   1
 -16  -2 -20   17.79    4.22   1
 -16  -2 -18    3.53    1.88   1
 -16  -2 -17   21.15    4.60   1
 -16  -2 -15    7.61    2.76   1
 -16  -2 -13   32.51    5.70   1
 -16  -2 -12   12.04    3.47   1
 -16  -2 -10   17.79    4.22   1
 -16  -2  -9   42.71    6.54   1
 -16  -2  -8   39.08    6.25   1
 -16  -2  -7   46.58    6.82   1
 -16  -2  -6   19.39    4.40   1
 -16  -2  -4   14.29    3.78   1
 -16  -2  -3   41.59    6.45   1
 -16  -2  -1    7.23    2.69   1
 -16  -2   0   34.20    5.85   1
 -16  -2   1   25.95    5.09   1
 -16  -2   2    7.42    2.72   1
 -16  -2   3    3.66    1.91   1
 -16  -2   4   17.70    4.21   1
 -16  -2   5    4.95    2.22   1
 -16  -2   6   22.46    4.74   1
 -16  -2   7    9.38    3.06   1
 -16  -2   8   14.14    3.76   1
 -16  -2   9   46.13    6.79   1
 -16  -2  10   27.94    5.29   1
 -16  -2  11   55.80    7.47   1
 -16  -2  12   14.70    3.83   1
 -16  -2  13   13.31    3.65   1
 -16  -2  14   12.93    3.60   1
 -16  -2  17   23.85    4.88   1
 -16  -2  18    5.76    2.40   1
 -16  -2  19    2.21    1.49   1
 -16  -2  21   14.81    3.85   1
 -16  -2  22   22.05    4.70   1
 -16   0 -22    7.31    2.70   1
 -16   0 -21    5.26    2.29   1
 -16   0 -20   14.32    3.78   1
 -16   0 -19   15.00    3.87   1
 -16   0 -15   15.82    3.98   1
 -16   0 -11   17.55    4.19   1
 -16   0 -10   79.35    8.91   1
 -16   0  -9   46.56    6.82   1
 -16   0  -8   47.55    6.90   1
 -16   0  -7   12.15    3.49   1
 -16   0  -6   19.35    4.40   1
 -16   0  -5   17.94    4.24   1
 -16   0  -4   28.62    5.35   1
 -16   0  -3   24.71    4.97   1
 -16   0  -2    3.34    1.83   1
 -16   0  -1   27.52    5.25   1
 -16   0   0   73.01    8.54   1
 -16   0   1   57.31    7.57   1
 -16   0   2    1.90    1.38   1
 -16   0   3   11.97    3.46   1
 -16   0   4    8.63    2.94   1
 -16   0   5   41.10    6.41   1
 -16   0   6   49.20    7.01   1
 -16   0   8   25.32    5.03   1
 -16   0   9   51.88    7.20   1
 -16   0  10   61.85    7.86   1
 -16   0  11   26.44    5.14   1
 -16   0  12   12.71    3.56   1
 -16   0  13   29.33    5.42   1
 -16   0  15    2.44    1.56   1
 -16   0  17   10.69    3.27   1
 -16   0  19   13.51    3.68   1
 -16   0  23    6.64    2.58   1
 -16   2 -24   25.09    5.01   1
 -16   2 -23    2.47    1.57   1
 -16   2 -21   11.05    3.32   1
 -16   2 -20    2.27    1.51   1
 -16   2 -19    3.15    1.77   1
 -16   2 -18    9.26    3.04   1
 -16   2 -17   15.75    3.97   1
 -16   2 -16    2.83    1.68   1
 -16   2 -14   13.05    3.61   1
 -16   2 -13   29.44    5.43   1
 -16   2 -12    1.57    1.25   1
 -16   2 -10   19.54    4.42   1
 -16   2  -9   42.44    6.51   1
 -16   2  -8   25.90    5.09   1
 -16   2  -7   39.45    6.28   1
 -16   2  -5    2.99    1.73   1
 -16   2  -4   15.45    3.93   1
 -16   2  -3   13.35    3.65   1
 -16   2  -1   18.32    4.28   1
 -16   2   0   82.65    9.09   1
 -16   2   1   75.03    8.66   1
 -16   2   2   12.30    3.51   1
 -16   2   6    4.50    2.12   1
 -16   2   7   12.40    3.52   1
 -16   2   9   51.83    7.20   1
 -16   2  10    3.83    1.96   1
 -16   2  11   20.83    4.56   1
 -16   2  12   10.41    3.23   1
 -16   2  13   17.08    4.13   1
 -16   2  14   13.39    3.66   1
 -16   2  15    7.82    2.80   1
 -16   2  20    5.47    2.34   1
 -16   2  22    6.68    2.58   1
 -16   2  23   18.20    4.27   1
 -16   4 -24   25.23    5.02   1
 -16   4 -23   12.49    3.53   1
 -16   4 -22    5.18    2.27   1
 -16   4 -19    9.75    3.12   1
 -16   4 -18    9.34    3.06   1
 -16   4 -17    2.33    1.52   1
 -16   4 -15   19.88    4.46   1
 -16   4 -13   36.65    6.05   1
 -16   4 -12   23.65    4.86   1
 -16   4  -9   26.02    5.10   1
 -16   4  -8   24.64    4.96   1
 -16   4  -7   20.77    4.56   1
 -16   4  -5   17.14    4.14   1
 -16   4  -3   27.08    5.20   1
 -16   4  -2   16.80    4.10   1
 -16   4  -1   12.15    3.49   1
 -16   4   0   32.25    5.68   1
 -16   4   1    4.86    2.20   1
 -16   4   2    2.03    1.42   1
 -16   4   4   13.61    3.69   1
 -16   4   5   18.83    4.34   1
 -16   4   6   28.98    5.38   1
 -16   4   7    9.48    3.08   1
 -16   4  10   12.85    3.59   1
 -16   4  11    6.86    2.62   1
 -16   4  15   18.58    4.31   1
 -16   4  16    4.99    2.23   1
 -16   4  17    6.97    2.64   1
 -16   4  19    5.63    2.37   1
 -16   4  21    2.19    1.48   1
 -16   4  22   18.00    4.24   1
 -16   4  23   12.00    3.46   1
 -16   4  24   31.10    5.58   1
 -16   6 -22   10.91    3.30   1
 -16   6 -21    4.74    2.18   1
 -16   6 -19   20.85    4.57   1
 -16   6 -16   19.42    4.41   1
 -16   6 -15    4.01    2.00   1
 -16   6 -13    4.12    2.03   1
 -16   6 -10   15.66    3.96   1
 -16   6  -9   12.34    3.51   1
 -16   6  -8   18.12    4.26   1
 -16   6  -7   26.77    5.17   1
 -16   6  -6    8.00    2.83   1
 -16   6  -3   32.14    5.67   1
 -16   6  -2   15.60    3.95   1
 -16   6  -1   36.44    6.04   1
 -16   6   0   72.05    8.49   1
 -16   6   1   97.28    9.86   1
 -16   6   2   54.18    7.36   1
 -16   6   3   10.83    3.29   1
 -16   6   5   23.40    4.84   1
 -16   6   6    6.23    2.50   1
 -16   6   7   19.20    4.38   1
 -16   6   8    8.68    2.95   1
 -16   6   9    7.50    2.74   1
 -16   6  11   38.29    6.19   1
 -16   6  13   23.15    4.81   1
 -16   6  14   18.15    4.26   1
 -16   6  16   17.55    4.19   1
 -16   6  20    3.23    1.80   1
 -16   6  24    4.00    2.00   1
 -16   8 -24   10.85    3.29   1
 -16   8 -21   10.47    3.24   1
 -16   8 -19   10.88    3.30   1
 -16   8 -18    7.90    2.81   1
 -16   8 -16    2.10    1.45   1
 -16   8 -15    5.06    2.25   1
 -16   8 -11    7.75    2.78   1
 -16   8  -9    7.32    2.71   1
 -16   8  -7   19.73    4.44   1
 -16   8  -6   18.37    4.29   1
 -16   8  -5   30.34    5.51   1
 -16   8  -3   34.65    5.89   1
 -16   8  -2   13.88    3.72   1
 -16   8  -1    8.25    2.87   1
 -16   8   0   18.04    4.25   1
 -16   8   1   28.39    5.33   1
 -16   8   2   22.01    4.69   1
 -16   8   3    9.60    3.10   1
 -16   8   4   18.23    4.27   1
 -16   8   5   22.38    4.73   1
 -16   8   6   12.13    3.48   1
 -16   8   7   17.33    4.16   1
 -16   8   8   16.65    4.08   1
 -16   8   9   16.55    4.07   1
 -16   8  10   15.87    3.98   1
 -16   8  12    5.07    2.25   1
 -16   8  13    5.00    2.24   1
 -16   8  16    3.38    1.84   1
 -16   8  17    9.12    3.02   1
 -16   8  18   19.13    4.37   1
 -16   8  19    2.07    1.44   1
 -16   8  20    4.62    2.15   1
 -16   8  21   16.03    4.00   1
 -16   8  22   18.75    4.33   1
 -16   8  23    7.05    2.66   1
 -16  10 -23    6.15    2.48   1
 -16  10 -21   13.55    3.68   1
 -16  10 -20    8.42    2.90   1
 -16  10 -19    4.54    2.13   1
 -16  10 -18   17.39    4.17   1
 -16  10 -17   14.82    3.85   1
 -16  10 -16   11.63    3.41   1
 -16  10 -15    7.84    2.80   1
 -16  10 -14    2.17    1.47   1
 -16  10 -13   22.48    4.74   1
 -16  10 -12   10.55    3.25   1
 -16  10 -11   15.49    3.94   1
 -16  10 -10   27.03    5.20   1
 -16  10  -9   15.60    3.95   1
 -16  10  -8   30.79    5.55   1
 -16  10  -7    9.87    3.14   1
 -16  10  -6    3.26    1.81   1
 -16  10  -5   15.74    3.97   1
 -16  10  -4    3.75    1.94   1
 -16  10  -3    3.04    1.74   1
 -16  10  -2    8.95    2.99   1
 -16  10  -1   29.61    5.44   1
 -16  10   0   49.05    7.00   1
 -16  10   1   95.81    9.79   1
 -16  10   2   41.06    6.41   1
 -16  10   3   33.83    5.82   1
 -16  10   6    4.07    2.02   1
 -16  10   7   11.55    3.40   1
 -16  10  10   26.56    5.15   1
 -16  10  11   22.20    4.71   1
 -16  10  13   11.85    3.44   1
 -16  10  14   14.59    3.82   1
 -16  10  15   29.33    5.42   1
 -16  10  16    4.53    2.13   1
 -16  10  21   10.05    3.17   1
 -16  12 -23    4.50    2.12   1
 -16  12 -20   15.60    3.95   1
 -16  12 -18    9.18    3.03   1
 -16  12 -16   10.35    3.22   1
 -16  12 -15   15.06    3.88   1
 -16  12 -14    6.56    2.56   1
 -16  12 -13   11.10    3.33   1
 -16  12 -12   15.86    3.98   1
 -16  12 -11   15.98    4.00   1
 -16  12  -9   23.44    4.84   1
 -16  12  -8   16.58    4.07   1
 -16  12  -7   34.65    5.89   1
 -16  12  -6    9.10    3.02   1
 -16  12  -4   12.20    3.49   1
 -16  12  -3   30.14    5.49   1
 -16  12  -2   15.23    3.90   1
 -16  12   0    9.02    3.00   1
 -16  12   1    5.70    2.39   1
 -16  12   4   11.25    3.35   1
 -16  12   5   19.09    4.37   1
 -16  12   6    4.99    2.23   1
 -16  12   7   10.88    3.30   1
 -16  12   8   13.05    3.61   1
 -16  12   9   13.90    3.73   1
 -16  12  10    9.23    3.04   1
 -16  12  11   12.04    3.47   1
 -16  12  12   15.59    3.95   1
 -16  12  13    5.85    2.42   1
 -16  12  14   34.05    5.84   1
 -16  12  15    8.48    2.91   1
 -16  12  16   12.29    3.51   1
 -16  12  17   11.22    3.35   1
 -16  12  21    7.13    2.67   1
 -16  12  22    4.57    2.14   1
 -16  14 -23    3.38    1.84   1
 -16  14 -22    1.71    1.31   1
 -16  14 -18    7.31    2.70   1
 -16  14 -17    5.30    2.30   1
 -16  14 -16    6.65    2.58   1
 -16  14 -14    9.14    3.02   1
 -16  14 -13   15.07    3.88   1
 -16  14 -12    5.20    2.28   1
 -16  14 -11   20.35    4.51   1
 -16  14  -9   18.83    4.34   1
 -16  14  -8   26.53    5.15   1
 -16  14  -7   20.36    4.51   1
 -16  14  -6    6.82    2.61   1
 -16  14  -4   14.38    3.79   1
 -16  14  -2   24.18    4.92   1
 -16  14  -1   11.36    3.37   1
 -16  14   0    7.83    2.80   1
 -16  14   1   40.50    6.36   1
 -16  14   2   12.33    3.51   1
 -16  14   4   16.27    4.03   1
 -16  14   5   27.24    5.22   1
 -16  14   6   25.20    5.02   1
 -16  14   7    8.11    2.85   1
 -16  14   8   19.94    4.47   1
 -16  14  11   12.94    3.60   1
 -16  14  13    9.00    3.00   1
 -16  14  15   12.68    3.56   1
 -16  14  16    7.05    2.66   1
 -16  14  19    1.62    1.27   1
 -16  14  21    3.96    1.99   1
 -16  14  22    3.67    1.92   1
 -16  16 -19    4.23    2.06   1
 -16  16 -18   17.55    4.19   1
 -16  16 -14    3.48    1.86   1
 -16  16 -12   20.92    4.57   1
 -16  16  -9    4.72    2.17   1
 -16  16  -6   25.80    5.08   1
 -16  16  -5   16.35    4.04   1
 -16  16  -4   15.42    3.93   1
 -16  16  -3    6.84    2.61   1
 -16  16  -1   13.73    3.71   1
 -16  16   0   20.89    4.57   1
 -16  16   1   24.40    4.94   1
 -16  16   2    5.49    2.34   1
 -16  16   3   26.55    5.15   1
 -16  16   4    6.86    2.62   1
 -16  16   6    9.95    3.15   1
 -16  16   7   29.33    5.42   1
 -16  16   8   23.95    4.89   1
 -16  16  12    5.78    2.40   1
 -16  16  13    5.82    2.41   1
 -16  16  16    7.50    2.74   1
 -16  16  18    7.01    2.65   1
 -16  16  19    6.53    2.55   1
 -16  16  22   10.73    3.27   1
 -16  18 -20    4.11    2.03   1
 -16  18 -19    3.53    1.88   1
 -16  18 -16   15.61    3.95   1
 -16  18 -13    2.51    1.58   1
 -16  18 -11   11.77    3.43   1
 -16  18 -10    9.07    3.01   1
 -16  18  -7   14.96    3.87   1
 -16  18  -6   21.60    4.65   1
 -16  18  -5    4.59    2.14   1
 -16  18  -4    9.90    3.15   1
 -16  18  -3    8.11    2.85   1
 -16  18  -2    9.48    3.08   1
 -16  18  -1   16.35    4.04   1
 -16  18   0   12.00    3.46   1
 -16  18   1   13.88    3.72   1
 -16  18   2    4.68    2.16   1
 -16  18   3   12.38    3.52   1
 -16  18   4    6.34    2.52   1
 -16  18   5    5.85    2.42   1
 -16  18   6    1.61    1.27   1
 -16  18   9   10.73    3.27   1
 -16  18  10    4.57    2.14   1
 -16  18  11    1.76    1.33   1
 -16  18  12    9.23    3.04   1
 -16  18  13   14.48    3.80   1
 -16  18  15   16.35    4.04   1
 -16  18  17   15.06    3.88   1
 -16  18  19   11.96    3.46   1
 -16  18  20    2.51    1.59   1
 -16  20 -16    2.53    1.59   1
 -16  20 -14    3.08    1.75   1
 -16  20 -13    6.86    2.62   1
 -16  20 -12    2.85    1.69   1
 -16  20  -9   16.79    4.10   1
 -16  20  -8    4.43    2.10   1
 -16  20  -7   23.44    4.84   1
 -16  20  -6   11.83    3.44   1
 -16  20  -4    2.74    1.65   1
 -16  20  -3   14.63    3.82   1
 -16  20  -2   22.18    4.71   1
 -16  20  -1   19.27    4.39   1
 -16  20   0   13.20    3.63   1
 -16  20   1   15.00    3.87   1
 -16  20   2   38.25    6.18   1
 -16  20   3    9.16    3.03   1
 -16  20   6   19.35    4.40   1
 -16  20   7    9.45    3.07   1
 -16  20  10   10.74    3.28   1
 -16  20  11    5.07    2.25   1
 -16  20  12    7.61    2.76   1
 -16  20  13   19.65    4.43   1
 -16  20  14   12.00    3.46   1
 -16  20  15    4.80    2.19   1
 -16  22 -13    9.52    3.09   1
 -16  22 -11    3.26    1.81   1
 -16  22 -10    2.08    1.44   1
 -16  22  -9   12.23    3.50   1
 -16  22  -8    7.72    2.78   1
 -16  22  -7    1.91    1.38   1
 -16  22  -6   12.16    3.49   1
 -16  22  -5    4.13    2.03   1
 -16  22  -3    3.67    1.92   1
 -16  22  -2    2.01    1.42   1
 -16  22  -1    6.55    2.56   1
 -16  22   0   14.32    3.78   1
 -16  22   3   14.48    3.80   1
 -16  22   4    7.85    2.80   1
 -16  22   5    7.24    2.69   1
 -16  22   6    1.50    1.22   1
 -16  22   9    3.45    1.86   1
 -16  22  11    8.25    2.87   1
 -16  22  14    4.85    2.20   1
 -16  24  -7    7.17    2.68   1
 -16  24  -5    3.33    1.82   1
 -16  24  -4    5.23    2.29   1
 -16  24  -3    3.38    1.84   1
 -16  24  -1    3.38    1.84   1
 -16  24   0    6.11    2.47   1
 -16  24   1   15.19    3.90   1
 -16  24   3    3.57    1.89   1
 -16  24   4    8.02    2.83   1
 -16  24   5    3.53    1.88   1
 -16  24   6    7.72    2.78   1
 -16  24   7   23.48    4.85   1
 -15 -23 -14    7.55    2.75   1
 -15 -23 -11    3.14    1.77   1
 -15 -23 -10   19.15    4.38   1
 -15 -23  -9    6.55    2.56   1
 -15 -23  -8    2.28    1.51   1
 -15 -23  -6    5.36    2.32   1
 -15 -23  -5   13.87    3.72   1
 -15 -23  -3   16.54    4.07   1
 -15 -23   0   11.25    3.35   1
 -15 -23   2   14.48    3.80   1
 -15 -23   3   12.14    3.48   1
 -15 -23   4    2.52    1.59   1
 -15 -23   5   10.73    3.27   1
 -15 -23   6   29.73    5.45   1
 -15 -23   7   15.07    3.88   1
 -15 -23   8    9.82    3.13   1
 -15 -23  10    4.31    2.08   1
 -15 -23  15    7.12    2.67   1
 -15 -23  16    7.80    2.79   1
 -15 -21 -13    4.57    2.14   1
 -15 -21 -11    9.79    3.13   1
 -15 -21  -9    5.88    2.42   1
 -15 -21  -8    6.63    2.58   1
 -15 -21  -7    7.72    2.78   1
 -15 -21  -6   19.58    4.42   1
 -15 -21  -5    1.99    1.41   1
 -15 -21  -4   10.88    3.30   1
 -15 -21  -1    3.19    1.79   1
 -15 -21   0   10.43    3.23   1
 -15 -21   1   12.79    3.58   1
 -15 -21   3    7.35    2.71   1
 -15 -21   6   27.38    5.23   1
 -15 -21   7    6.00    2.45   1
 -15 -21   9   20.84    4.57   1
 -15 -21  13    9.52    3.08   1
 -15 -21  14   18.22    4.27   1
 -15 -21  15   20.10    4.48   1
 -15 -21  16    1.65    1.28   1
 -15 -21  19   12.23    3.50   1
 -15 -21  20    6.68    2.58   1
 -15 -19 -21    4.93    2.22   1
 -15 -19 -18    1.55    1.24   1
 -15 -19 -17   14.96    3.87   1
 -15 -19 -16    3.97    1.99   1
 -15 -19 -11   11.02    3.32   1
 -15 -19  -9    5.17    2.27   1
 -15 -19  -8    4.15    2.04   1
 -15 -19  -6    4.83    2.20   1
 -15 -19  -5   14.46    3.80   1
 -15 -19  -3   13.43    3.66   1
 -15 -19  -2   23.02    4.80   1
 -15 -19  -1   22.08    4.70   1
 -15 -19   1   15.10    3.89   1
 -15 -19   2   11.72    3.42   1
 -15 -19   3    3.08    1.75   1
 -15 -19   5    6.52    2.55   1
 -15 -19   6   17.93    4.23   1
 -15 -19   7   11.36    3.37   1
 -15 -19   9    5.47    2.34   1
 -15 -19  10    5.51    2.35   1
 -15 -19  12   15.00    3.87   1
 -15 -19  14    2.92    1.71   1
 -15 -19  16    9.15    3.02   1
 -15 -19  18   24.30    4.93   1
 -15 -19  20    3.30    1.82   1
 -15 -17 -23    2.55    1.60   1
 -15 -17 -22    1.71    1.31   1
 -15 -17 -19    4.50    2.12   1
 -15 -17 -13    5.14    2.27   1
 -15 -17 -10    2.23    1.49   1
 -15 -17  -8    7.16    2.68   1
 -15 -17  -5   18.38    4.29   1
 -15 -17  -4   13.86    3.72   1
 -15 -17  -3    6.51    2.55   1
 -15 -17   2    5.55    2.36   1
 -15 -17   3    7.84    2.80   1
 -15 -17   4   19.73    4.44   1
 -15 -17   5   12.41    3.52   1
 -15 -17   6   10.15    3.19   1
 -15 -17   8    2.44    1.56   1
 -15 -17  10   16.89    4.11   1
 -15 -17  11    6.04    2.46   1
 -15 -17  14    1.69    1.30   1
 -15 -17  15   13.88    3.72   1
 -15 -17  16   10.45    3.23   1
 -15 -17  17    8.85    2.97   1
 -15 -17  18    3.97    1.99   1
 -15 -17  22   11.32    3.37   1
 -15 -17  23    4.16    2.04   1
 -15 -17  24    4.46    2.11   1
 -15 -15 -24    5.40    2.32   1
 -15 -15 -23    1.54    1.24   1
 -15 -15 -21    2.39    1.54   1
 -15 -15 -20    7.06    2.66   1
 -15 -15 -18    9.17    3.03   1
 -15 -15 -17    9.45    3.07   1
 -15 -15 -12    5.97    2.44   1
 -15 -15 -10    9.52    3.09   1
 -15 -15  -9    3.79    1.95   1
 -15 -15  -7   16.50    4.06   1
 -15 -15  -6   30.16    5.49   1
 -15 -15  -5   13.75    3.71   1
 -15 -15  -4    3.67    1.92   1
 -15 -15  -3    2.18    1.48   1
 -15 -15  -2   10.50    3.24   1
 -15 -15   0   14.55    3.81   1
 -15 -15   2    8.95    2.99   1
 -15 -15   3   18.90    4.35   1
 -15 -15   4   22.58    4.75   1
 -15 -15   5   17.02    4.13   1
 -15 -15   6   15.97    4.00   1
 -15 -15   8   33.36    5.78   1
 -15 -15   9    4.28    2.07   1
 -15 -15  11    1.52    1.23   1
 -15 -15  12    7.16    2.68   1
 -15 -15  13    9.15    3.02   1
 -15 -15  15   10.90    3.30   1
 -15 -15  19    6.44    2.54   1
 -15 -15  22    1.70    1.30   1
 -15 -13 -24    1.83    1.35   1
 -15 -13 -23    4.60    2.14   1
 -15 -13 -19   12.98    3.60   1
 -15 -13 -15    3.67    1.92   1
 -15 -13 -14    7.61    2.76   1
 -15 -13 -13   11.18    3.34   1
 -15 -13  -9    6.60    2.57   1
 -15 -13  -7    7.40    2.72   1
 -15 -13  -5   28.20    5.31   1
 -15 -13  -4   23.02    4.80   1
 -15 -13  -2   14.32    3.78   1
 -15 -13  -1   12.71    3.57   1
 -15 -13   0   17.59    4.19   1
 -15 -13   1    6.55    2.56   1
 -15 -13   2   31.99    5.66   1
 -15 -13   3    1.65    1.28   1
 -15 -13   4   13.35    3.65   1
 -15 -13   5   39.64    6.30   1
 -15 -13   6   22.50    4.74   1
 -15 -13   7   19.58    4.42   1
 -15 -13  10   21.87    4.68   1
 -15 -13  12    6.45    2.54   1
 -15 -13  13    3.53    1.88   1
 -15 -13  14    5.17    2.27   1
 -15 -13  15    3.90    1.97   1
 -15 -13  16   14.44    3.80   1
 -15 -13  18   22.88    4.78   1
 -15 -13  19   17.92    4.23   1
 -15 -13  21    3.53    1.88   1
 -15 -13  23   12.38    3.52   1
 -15 -13  24   11.78    3.43   1
 -15 -11 -24    7.28    2.70   1
 -15 -11 -19   18.04    4.25   1
 -15 -11 -16   31.46    5.61   1
 -15 -11 -14    2.29    1.51   1
 -15 -11 -13    6.11    2.47   1
 -15 -11  -7    5.44    2.33   1
 -15 -11  -6    8.07    2.84   1
 -15 -11  -5   11.77    3.43   1
 -15 -11  -4    5.89    2.43   1
 -15 -11  -3    8.85    2.97   1
 -15 -11  -2   31.46    5.61   1
 -15 -11  -1   28.20    5.31   1
 -15 -11   2   55.99    7.48   1
 -15 -11   3    5.26    2.29   1
 -15 -11   4   14.32    3.78   1
 -15 -11   5   19.82    4.45   1
 -15 -11   6    2.90    1.70   1
 -15 -11   7    3.04    1.74   1
 -15 -11   8    9.26    3.04   1
 -15 -11  11    6.14    2.48   1
 -15 -11  12    5.87    2.42   1
 -15 -11  14    2.26    1.50   1
 -15 -11  15    8.81    2.97   1
 -15 -11  16   11.13    3.34   1
 -15 -11  17    4.91    2.22   1
 -15 -11  18   19.14    4.38   1
 -15 -11  19    3.74    1.93   1
 -15 -11  21    4.46    2.11   1
 -15 -11  22    1.99    1.41   1
 -15 -11  24    5.31    2.30   1
 -15  -9 -24    8.06    2.84   1
 -15  -9 -21   10.57    3.25   1
 -15  -9 -19    4.35    2.09   1
 -15  -9 -16    6.04    2.46   1
 -15  -9 -14   14.40    3.79   1
 -15  -9 -13   32.52    5.70   1
 -15  -9 -12   15.20    3.90   1
 -15  -9 -11   17.17    4.14   1
 -15  -9  -8   60.83    7.80   1
 -15  -9  -7   55.16    7.43   1
 -15  -9  -6   46.13    6.79   1
 -15  -9  -5   34.96    5.91   1
 -15  -9  -4  596.05   24.41   1
 -15  -9  -3   77.70    8.81   1
 -15  -9  -2   54.90    7.41   1
 -15  -9  -1   11.10    3.33   1
 -15  -9   1   12.60    3.55   1
 -15  -9   3   13.27    3.64   1
 -15  -9   4   16.43    4.05   1
 -15  -9   5  162.26   12.74   1
 -15  -9   6  509.85   22.58   1
 -15  -9   7   23.80    4.88   1
 -15  -9   8   23.48    4.85   1
 -15  -9   9   59.13    7.69   1
 -15  -9  10   15.39    3.92   1
 -15  -9  11    1.58    1.25   1
 -15  -9  14   44.25    6.65   1
 -15  -9  17    1.91    1.38   1
 -15  -9  21    5.50    2.35   1
 -15  -9  24   14.63    3.82   1
 -15  -7 -23   11.63    3.41   1
 -15  -7 -22   11.00    3.32   1
 -15  -7 -20    6.11    2.47   1
 -15  -7 -19    4.05    2.01   1
 -15  -7 -16    3.01    1.73   1
 -15  -7 -12   22.50    4.74   1
 -15  -7 -11   19.79    4.45   1
 -15  -7 -10   16.95    4.12   1
 -15  -7  -8   22.20    4.71   1
 -15  -7  -7   44.35    6.66   1
 -15  -7  -6   99.56    9.98   1
 -15  -7  -2   16.95    4.12   1
 -15  -7  -1   19.71    4.44   1
 -15  -7   0   41.70    6.46   1
 -15  -7   2   32.40    5.69   1
 -15  -7   3    8.62    2.94   1
 -15  -7   6   28.24    5.31   1
 -15  -7   7   33.64    5.80   1
 -15  -7   8   85.40    9.24   1
 -15  -7   9   43.02    6.56   1
 -15  -7  12   40.17    6.34   1
 -15  -7  13   11.70    3.42   1
 -15  -7  14   82.80    9.10   1
 -15  -7  15   18.20    4.27   1
 -15  -7  16  131.25   11.46   1
 -15  -7  17   10.74    3.28   1
 -15  -7  22    1.99    1.41   1
 -15  -7  23    8.87    2.98   1
 -15  -5 -24    4.21    2.05   1
 -15  -5 -23   18.19    4.26   1
 -15  -5 -22    1.95    1.40   1
 -15  -5 -19   10.55    3.25   1
 -15  -5 -18    3.68    1.92   1
 -15  -5 -17    7.62    2.76   1
 -15  -5 -12    6.53    2.55   1
 -15  -5 -11   11.66    3.42   1
 -15  -5  -9    6.30    2.51   1
 -15  -5  -8    4.34    2.08   1
 -15  -5  -6   21.86    4.68   1
 -15  -5  -5    4.62    2.15   1
 -15  -5  -4   42.83    6.54   1
 -15  -5  -3   22.84    4.78   1
 -15  -5  -2   14.93    3.86   1
 -15  -5  -1   24.94    4.99   1
 -15  -5   1   18.90    4.35   1
 -15  -5   2   17.25    4.15   1
 -15  -5   3    4.36    2.09   1
 -15  -5   4    2.63    1.62   1
 -15  -5   5    7.46    2.73   1
 -15  -5   6   23.02    4.80   1
 -15  -5   7   29.40    5.42   1
 -15  -5   8   18.84    4.34   1
 -15  -5   9   26.82    5.18   1
 -15  -5  10   28.15    5.31   1
 -15  -5  17    2.82    1.68   1
 -15  -5  18   20.70    4.55   1
 -15  -5  19    9.30    3.05   1
 -15  -5  20    7.76    2.79   1
 -15  -5  23   12.07    3.47   1
 -15  -5  24    7.45    2.73   1
 -15  -3 -24   13.18    3.63   1
 -15  -3 -23    6.61    2.57   1
 -15  -3 -22   12.87    3.59   1
 -15  -3 -19    2.33    1.52   1
 -15  -3 -17    8.97    2.99   1
 -15  -3 -11   33.55    5.79   1
 -15  -3  -9    4.25    2.06   1
 -15  -3  -8   39.30    6.27   1
 -15  -3  -7   26.48    5.15   1
 -15  -3  -6    2.60    1.61   1
 -15  -3  -5   12.10    3.48   1
 -15  -3  -4    8.77    2.96   1
 -15  -3  -3   28.16    5.31   1
 -15  -3  -2   13.58    3.69   1
 -15  -3  -1   10.50    3.24   1
 -15  -3   0   23.92    4.89   1
 -15  -3   1   18.52    4.30   1
 -15  -3   3    7.72    2.78   1
 -15  -3   4   32.71    5.72   1
 -15  -3   6   17.10    4.14   1
 -15  -3   8   33.53    5.79   1
 -15  -3  10   14.85    3.85   1
 -15  -3  11   10.88    3.30   1
 -15  -3  12    3.57    1.89   1
 -15  -3  16   17.96    4.24   1
 -15  -3  19    5.63    2.37   1
 -15  -3  22   12.68    3.56   1
 -15  -3  23   14.18    3.76   1
 -15  -3  24   19.05    4.36   1
 -15  -1 -23   12.15    3.49   1
 -15  -1 -22    7.99    2.83   1
 -15  -1 -21   11.10    3.33   1
 -15  -1 -19    2.96    1.72   1
 -15  -1 -14   15.17    3.89   1
 -15  -1 -13    6.04    2.46   1
 -15  -1 -11   17.70    4.21   1
 -15  -1  -9   19.31    4.39   1
 -15  -1  -8    8.89    2.98   1
 -15  -1  -7   18.67    4.32   1
 -15  -1  -5   18.58    4.31   1
 -15  -1  -4   85.17    9.23   1
 -15  -1  -3    6.74    2.60   1
 -15  -1  -2    3.22    1.80   1
 -15  -1  -1   14.77    3.84   1
 -15  -1   0   14.93    3.86   1
 -15  -1   1    2.10    1.45   1
 -15  -1   2    8.02    2.83   1
 -15  -1   3    5.55    2.36   1
 -15  -1   5   27.00    5.20   1
 -15  -1   6   36.49    6.04   1
 -15  -1   7   11.37    3.37   1
 -15  -1   8   11.28    3.36   1
 -15  -1   9   26.40    5.14   1
 -15  -1  10   26.92    5.19   1
 -15  -1  12    5.45    2.33   1
 -15  -1  13   13.40    3.66   1
 -15  -1  14   16.71    4.09   1
 -15  -1  16   37.24    6.10   1
 -15  -1  18   22.39    4.73   1
 -15  -1  19    2.85    1.69   1
 -15  -1  20    4.80    2.19   1
 -15  -1  21    9.86    3.14   1
 -15  -1  23    7.57    2.75   1
 -15   1 -18   14.28    3.78   1
 -15   1 -17   14.64    3.83   1
 -15   1 -14   89.63    9.47   1
 -15   1 -13    5.73    2.39   1
 -15   1 -12   60.00    7.75   1
 -15   1 -10    2.76    1.66   1
 -15   1  -9   22.99    4.79   1
 -15   1  -7   16.65    4.08   1
 -15   1  -6   53.55    7.32   1
 -15   1  -5   66.30    8.14   1
 -15   1  -4  100.65   10.03   1
 -15   1  -3   10.76    3.28   1
 -15   1  -2   34.80    5.90   1
 -15   1  -1    3.20    1.79   1
 -15   1   0   29.50    5.43   1
 -15   1   1    4.69    2.17   1
 -15   1   3   15.07    3.88   1
 -15   1   4   13.27    3.64   1
 -15   1   6   30.30    5.50   1
 -15   1   7   52.25    7.23   1
 -15   1   8   15.31    3.91   1
 -15   1  11   12.99    3.60   1
 -15   1  13   12.96    3.60   1
 -15   1  14   31.20    5.59   1
 -15   1  15   23.87    4.89   1
 -15   1  16   46.76    6.84   1
 -15   1  17   34.50    5.87   1
 -15   1  22   14.63    3.83   1
 -15   3 -24    5.43    2.33   1
 -15   3 -22   12.49    3.53   1
 -15   3 -20   10.43    3.23   1
 -15   3 -18    4.13    2.03   1
 -15   3 -17   13.35    3.65   1
 -15   3 -16   10.27    3.21   1
 -15   3 -14   11.85    3.44   1
 -15   3 -13   18.93    4.35   1
 -15   3 -12    4.82    2.19   1
 -15   3 -10   25.70    5.07   1
 -15   3  -9    3.53    1.88   1
 -15   3  -8    6.35    2.52   1
 -15   3  -7   45.65    6.76   1
 -15   3  -3   21.49    4.64   1
 -15   3  -2   23.92    4.89   1
 -15   3  -1   14.63    3.82   1
 -15   3   2   13.46    3.67   1
 -15   3   3   25.13    5.01   1
 -15   3   4   30.94    5.56   1
 -15   3   5    9.96    3.16   1
 -15   3   6   15.71    3.96   1
 -15   3   8   18.30    4.28   1
 -15   3  10   18.08    4.25   1
 -15   3  12   29.22    5.41   1
 -15   3  13   11.67    3.42   1
 -15   3  14    6.04    2.46   1
 -15   3  15    4.07    2.02   1
 -15   3  17    6.20    2.49   1
 -15   3  18    5.89    2.43   1
 -15   3  23    2.28    1.51   1
 -15   3  24    2.03    1.42   1
 -15   5 -24    3.38    1.84   1
 -15   5 -23   12.26    3.50   1
 -15   5 -20   12.45    3.53   1
 -15   5 -14    7.15    2.67   1
 -15   5 -12   12.69    3.56   1
 -15   5 -10   17.43    4.18   1
 -15   5  -9   15.30    3.91   1
 -15   5  -8   21.23    4.61   1
 -15   5  -7   13.93    3.73   1
 -15   5  -6   31.62    5.62   1
 -15   5  -5   38.25    6.18   1
 -15   5  -4   44.33    6.66   1
 -15   5  -3   12.75    3.57   1
 -15   5  -2   16.27    4.03   1
 -15   5   1   26.20    5.12   1
 -15   5   4   30.42    5.52   1
 -15   5   5   27.08    5.20   1
 -15   5   6   71.50    8.46   1
 -15   5   7   38.92    6.24   1
 -15   5   8   20.53    4.53   1
 -15   5   9    7.99    2.83   1
 -15   5  10   21.60    4.65   1
 -15   5  11   18.49    4.30   1
 -15   5  14   12.98    3.60   1
 -15   5  17    4.45    2.11   1
 -15   5  18   28.20    5.31   1
 -15   5  21    5.18    2.27   1
 -15   5  22   16.75    4.09   1
 -15   5  24    3.08    1.76   1
 -15   7 -22    9.68    3.11   1
 -15   7 -20   25.84    5.08   1
 -15   7 -19    3.42    1.85   1
 -15   7 -15    8.85    2.97   1
 -15   7 -14   21.83    4.67   1
 -15   7 -12  160.05   12.65   1
 -15   7 -11   16.65    4.08   1
 -15   7 -10    3.67    1.92   1
 -15   7  -9   16.75    4.09   1
 -15   7  -8   40.12    6.33   1
 -15   7  -7   62.70    7.92   1
 -15   7  -6   87.66    9.36   1
 -15   7  -5   40.01    6.33   1
 -15   7  -3   11.21    3.35   1
 -15   7  -1   17.33    4.16   1
 -15   7   1    9.24    3.04   1
 -15   7   2   17.63    4.20   1
 -15   7   4    5.32    2.31   1
 -15   7   5   24.67    4.97   1
 -15   7   6   32.51    5.70   1
 -15   7   7   16.95    4.12   1
 -15   7   8   50.07    7.08   1
 -15   7   9   66.80    8.17   1
 -15   7  10   28.50    5.34   1
 -15   7  13  100.05   10.00   1
 -15   7  14   85.66    9.26   1
 -15   7  15   91.72    9.58   1
 -15   7  16   64.98    8.06   1
 -15   7  17    7.50    2.74   1
 -15   7  20    1.69    1.30   1
 -15   7  21    7.01    2.65   1
 -15   9 -24   10.69    3.27   1
 -15   9 -23   11.40    3.38   1
 -15   9 -21   13.95    3.73   1
 -15   9 -18   11.87    3.44   1
 -15   9 -16   10.13    3.18   1
 -15   9 -15   26.08    5.11   1
 -15   9 -14   24.81    4.98   1
 -15   9 -13   17.80    4.22   1
 -15   9 -12   17.70    4.21   1
 -15   9 -10   23.82    4.88   1
 -15   9  -9   13.39    3.66   1
 -15   9  -8   46.65    6.83   1
 -15   9  -7   38.03    6.17   1
 -15   9  -6    8.32    2.89   1
 -15   9  -5  209.80   14.48   1
 -15   9  -4  369.29   19.22   1
 -15   9  -3   85.50    9.25   1
 -15   9  -2   20.63    4.54   1
 -15   9  -1   34.01    5.83   1
 -15   9   0    8.40    2.90   1
 -15   9   1   19.94    4.47   1
 -15   9   3   43.43    6.59   1
 -15   9   4   89.14    9.44   1
 -15   9   5  244.38   15.63   1
 -15   9   6  253.70   15.93   1
 -15   9   7   42.40    6.51   1
 -15   9   8   48.00    6.93   1
 -15   9   9  108.30   10.41   1
 -15   9  10   40.91    6.40   1
 -15   9  11    6.22    2.49   1
 -15   9  14   22.20    4.71   1
 -15   9  15   12.60    3.55   1
 -15   9  16   72.45    8.51   1
 -15   9  17   18.45    4.29   1
 -15   9  19    3.11    1.76   1
 -15   9  20    4.28    2.07   1
 -15   9  23   17.84    4.22   1
 -15  11 -24   11.20    3.35   1
 -15  11 -21    4.52    2.13   1
 -15  11 -18    5.96    2.44   1
 -15  11 -17    4.43    2.10   1
 -15  11 -16   32.78    5.72   1
 -15  11 -15    8.90    2.98   1
 -15  11 -14    3.15    1.77   1
 -15  11 -13    6.60    2.57   1
 -15  11 -12    7.76    2.79   1
 -15  11  -9   11.06    3.33   1
 -15  11  -7   17.82    4.22   1
 -15  11  -6   26.02    5.10   1
 -15  11  -5    7.75    2.78   1
 -15  11  -4   15.56    3.94   1
 -15  11  -3    9.68    3.11   1
 -15  11  -2    3.83    1.96   1
 -15  11  -1   21.75    4.66   1
 -15  11   0   33.42    5.78   1
 -15  11   1   19.59    4.43   1
 -15  11   2    7.20    2.68   1
 -15  11   3   23.06    4.80   1
 -15  11   4   37.57    6.13   1
 -15  11   5   18.67    4.32   1
 -15  11   6   13.05    3.61   1
 -15  11   7   16.95    4.12   1
 -15  11   8   27.00    5.20   1
 -15  11  10    9.27    3.04   1
 -15  11  11   15.18    3.90   1
 -15  11  13    4.94    2.22   1
 -15  11  14    5.21    2.28   1
 -15  11  16   12.07    3.47   1
 -15  11  17    1.65    1.29   1
 -15  11  18   12.23    3.50   1
 -15  11  19   12.18    3.49   1
 -15  11  22    5.44    2.33   1
 -15  11  23    3.67    1.92   1
 -15  11  24   14.36    3.79   1
 -15  13 -24    2.71    1.65   1
 -15  13 -23   10.89    3.30   1
 -15  13 -21   16.01    4.00   1
 -15  13 -15    6.04    2.46   1
 -15  13 -14   18.02    4.24   1
 -15  13 -13    7.54    2.75   1
 -15  13 -12   21.94    4.68   1
 -15  13 -10   13.84    3.72   1
 -15  13  -9   14.55    3.81   1
 -15  13  -7    5.28    2.30   1
 -15  13  -6    6.19    2.49   1
 -15  13  -5   55.05    7.42   1
 -15  13  -4   26.30    5.13   1
 -15  13  -3    3.08    1.75   1
 -15  13  -2    4.77    2.18   1
 -15  13  -1   10.76    3.28   1
 -15  13   0   12.85    3.58   1
 -15  13   1   21.88    4.68   1
 -15  13   2   30.41    5.51   1
 -15  13   3    6.15    2.48   1
 -15  13   4   24.26    4.93   1
 -15  13   6   33.11    5.75   1
 -15  13   7    7.35    2.71   1
 -15  13   8    9.68    3.11   1
 -15  13   9   13.78    3.71   1
 -15  13  11    4.79    2.19   1
 -15  13  12   32.17    5.67   1
 -15  13  14    7.03    2.65   1
 -15  13  15   13.73    3.70   1
 -15  13  18    1.75    1.32   1
 -15  13  20    3.00    1.73   1
 -15  13  22   12.04    3.47   1
 -15  13  24   10.60    3.26   1
 -15  15 -23    9.07    3.01   1
 -15  15 -18   12.23    3.50   1
 -15  15 -15    2.74    1.65   1
 -15  15 -14    5.92    2.43   1
 -15  15 -12    3.61    1.90   1
 -15  15 -11    3.94    1.98   1
 -15  15 -10   21.00    4.58   1
 -15  15  -9    5.85    2.42   1
 -15  15  -8    8.85    2.97   1
 -15  15  -7   18.21    4.27   1
 -15  15  -6   29.20    5.40   1
 -15  15  -5   19.32    4.40   1
 -15  15  -4    7.93    2.82   1
 -15  15  -3   28.73    5.36   1
 -15  15  -2   17.56    4.19   1
 -15  15  -1   21.04    4.59   1
 -15  15   0    9.19    3.03   1
 -15  15   2    8.14    2.85   1
 -15  15   3    5.14    2.27   1
 -15  15   5   15.05    3.88   1
 -15  15   6   20.33    4.51   1
 -15  15   7   27.38    5.23   1
 -15  15   8   10.05    3.17   1
 -15  15   9   15.66    3.96   1
 -15  15  10    9.30    3.05   1
 -15  15  11    7.27    2.70   1
 -15  15  12   11.21    3.35   1
 -15  15  13    3.50    1.87   1
 -15  15  15    2.82    1.68   1
 -15  15  16   15.82    3.98   1
 -15  15  17   10.95    3.31   1
 -15  15  19    7.35    2.71   1
 -15  15  21   10.88    3.30   1
 -15  15  22   16.64    4.08   1
 -15  15  23   11.87    3.44   1
 -15  17 -22   19.99    4.47   1
 -15  17 -21   18.90    4.35   1
 -15  17 -19   11.59    3.40   1
 -15  17 -17    5.84    2.42   1
 -15  17 -15    4.35    2.09   1
 -15  17 -14   12.07    3.47   1
 -15  17 -12    3.56    1.89   1
 -15  17 -11    4.20    2.05   1
 -15  17 -10    7.35    2.71   1
 -15  17  -9    6.81    2.61   1
 -15  17  -7   18.04    4.25   1
 -15  17  -6   11.71    3.42   1
 -15  17  -5   12.23    3.50   1
 -15  17  -4   20.81    4.56   1
 -15  17  -3    4.63    2.15   1
 -15  17  -2   13.01    3.61   1
 -15  17  -1   15.34    3.92   1
 -15  17   1    5.19    2.28   1
 -15  17   2    7.64    2.76   1
 -15  17   3   21.23    4.61   1
 -15  17   4   15.38    3.92   1
 -15  17   5   17.89    4.23   1
 -15  17   6   23.63    4.86   1
 -15  17   7   14.96    3.87   1
 -15  17   8   18.52    4.30   1
 -15  17   9    4.09    2.02   1
 -15  17  11    3.45    1.86   1
 -15  17  12   13.19    3.63   1
 -15  17  13    7.83    2.80   1
 -15  17  15   19.11    4.37   1
 -15  17  16    7.65    2.77   1
 -15  17  17    5.25    2.29   1
 -15  17  18   15.37    3.92   1
 -15  17  21    1.62    1.27   1
 -15  19 -20    7.52    2.74   1
 -15  19 -19    7.57    2.75   1
 -15  19 -18    3.00    1.73   1
 -15  19 -16   13.58    3.68   1
 -15  19 -12   17.89    4.23   1
 -15  19 -10    3.83    1.96   1
 -15  19  -8   15.98    4.00   1
 -15  19  -6   15.35    3.92   1
 -15  19  -5   14.59    3.82   1
 -15  19  -4   11.93    3.45   1
 -15  19  -2   22.13    4.70   1
 -15  19  -1    6.22    2.49   1
 -15  19   0   12.95    3.60   1
 -15  19   1    4.20    2.05   1
 -15  19   2   11.40    3.38   1
 -15  19   3    6.85    2.62   1
 -15  19   4   12.50    3.54   1
 -15  19   5    3.53    1.88   1
 -15  19   6   13.54    3.68   1
 -15  19   7   11.90    3.45   1
 -15  19   9    6.90    2.63   1
 -15  19  11   14.44    3.80   1
 -15  19  13   11.44    3.38   1
 -15  19  14   13.49    3.67   1
 -15  19  15    3.78    1.94   1
 -15  19  17    6.90    2.63   1
 -15  19  19   10.20    3.19   1
 -15  19  20   13.99    3.74   1
 -15  19  21    3.12    1.77   1
 -15  21 -17    2.81    1.68   1
 -15  21 -16    5.70    2.39   1
 -15  21 -15   13.35    3.65   1
 -15  21 -14    3.75    1.94   1
 -15  21 -13    4.88    2.21   1
 -15  21 -11    5.32    2.31   1
 -15  21 -10   10.57    3.25   1
 -15  21  -9    5.63    2.37   1
 -15  21  -8    7.99    2.83   1
 -15  21  -6   12.82    3.58   1
 -15  21  -5   18.45    4.30   1
 -15  21  -4   25.13    5.01   1
 -15  21  -3    4.01    2.00   1
 -15  21  -2    9.48    3.08   1
 -15  21  -1    5.78    2.40   1
 -15  21   0   18.90    4.35   1
 -15  21   1    4.95    2.22   1
 -15  21   2    9.98    3.16   1
 -15  21   4    5.31    2.30   1
 -15  21   5    3.90    1.97   1
 -15  21   6   30.60    5.53   1
 -15  21   8    3.08    1.75   1
 -15  21   9    2.70    1.64   1
 -15  21  12    2.94    1.72   1
 -15  21  14   10.31    3.21   1
 -15  21  18    7.28    2.70   1
 -15  23 -11    6.79    2.61   1
 -15  23  -9    8.48    2.91   1
 -15  23  -8    2.59    1.61   1
 -15  23  -7    7.25    2.69   1
 -15  23  -6    2.74    1.65   1
 -15  23  -4    3.01    1.74   1
 -15  23  -3   11.41    3.38   1
 -15  23  -2   32.78    5.72   1
 -15  23   1    6.38    2.52   1
 -15  23   2   11.40    3.38   1
 -15  23   4   13.53    3.68   1
 -15  23   6   22.50    4.74   1
 -15  23  11    7.80    2.79   1
 -15  23  13   10.73    3.27   1
 -15  23  14   11.85    3.44   1
 -14 -24 -11    7.95    2.82   1
 -14 -24 -10   11.48    3.39   1
 -14 -24  -9   17.70    4.21   1
 -14 -24  -7   54.51    7.38   1
 -14 -24  -2    1.98    1.41   1
 -14 -24   0    5.40    2.32   1
 -14 -24   5    1.61    1.27   1
 -14 -24   6    8.63    2.94   1
 -14 -24   8   31.95    5.65   1
 -14 -24  10    6.90    2.63   1
 -14 -24  12   10.80    3.29   1
 -14 -24  13    7.72    2.78   1
 -14 -24  14    9.00    3.00   1
 -14 -22 -17   15.04    3.88   1
 -14 -22 -16    5.33    2.31   1
 -14 -22 -15   10.43    3.23   1
 -14 -22 -14    2.44    1.56   1
 -14 -22 -12   10.54    3.25   1
 -14 -22 -11    4.09    2.02   1
 -14 -22  -9   17.36    4.17   1
 -14 -22  -4    3.18    1.78   1
 -14 -22  -3    4.55    2.13   1
 -14 -22  -2    3.64    1.91   1
 -14 -22   0   35.29    5.94   1
 -14 -22   1   15.15    3.89   1
 -14 -22   2   11.96    3.46   1
 -14 -22   5    8.37    2.89   1
 -14 -22   6   18.23    4.27   1
 -14 -22   7    7.00    2.64   1
 -14 -22   8    5.63    2.37   1
 -14 -22  13    8.55    2.92   1
 -14 -22  15    7.35    2.71   1
 -14 -22  17   11.22    3.35   1
 -14 -22  19    2.06    1.43   1
 -14 -22  20    2.17    1.47   1
 -14 -20 -21    3.80    1.95   1
 -14 -20 -20    9.26    3.04   1
 -14 -20 -19   11.77    3.43   1
 -14 -20 -15    1.80    1.34   1
 -14 -20 -13   12.00    3.46   1
 -14 -20 -10   14.06    3.75   1
 -14 -20  -8   23.93    4.89   1
 -14 -20  -7   15.64    3.95   1
 -14 -20  -6    7.35    2.71   1
 -14 -20  -3    2.74    1.65   1
 -14 -20  -2    6.18    2.49   1
 -14 -20  -1    4.24    2.06   1
 -14 -20   0   19.35    4.40   1
 -14 -20   1    5.35    2.31   1
 -14 -20   2   60.08    7.75   1
 -14 -20   5    2.25    1.50   1
 -14 -20   6   21.19    4.60   1
 -14 -20   7    2.78    1.67   1
 -14 -20   8    8.60    2.93   1
 -14 -20   9    4.56    2.14   1
 -14 -20  11    3.08    1.75   1
 -14 -20  12    7.09    2.66   1
 -14 -20  13    6.80    2.61   1
 -14 -20  15    4.13    2.03   1
 -14 -18 -20    4.32    2.08   1
 -14 -18 -19   10.69    3.27   1
 -14 -18 -14    7.89    2.81   1
 -14 -18 -13   12.56    3.54   1
 -14 -18 -12    5.55    2.36   1
 -14 -18  -7   14.88    3.86   1
 -14 -18  -6    7.59    2.75   1
 -14 -18  -5   10.27    3.21   1
 -14 -18  -4   12.38    3.52   1
 -14 -18  -2   10.84    3.29   1
 -14 -18  -1   17.92    4.23   1
 -14 -18   0   14.22    3.77   1
 -14 -18   2   87.98    9.38   1
 -14 -18   5    8.77    2.96   1
 -14 -18   7   13.13    3.62   1
 -14 -18   8    1.88    1.37   1
 -14 -18   9    4.28    2.07   1
 -14 -18  10    8.36    2.89   1
 -14 -18  11   16.20    4.02   1
 -14 -18  12   12.79    3.58   1
 -14 -18  15    9.26    3.04   1
 -14 -18  16    9.89    3.14   1
 -14 -18  17    6.60    2.57   1
 -14 -18  20   17.17    4.14   1
 -14 -18  22    6.76    2.60   1
 -14 -18  24   13.73    3.70   1
 -14 -16 -21    5.78    2.40   1
 -14 -16 -18    2.03    1.42   1
 -14 -16 -15   15.52    3.94   1
 -14 -16 -13    9.30    3.05   1
 -14 -16 -11   16.05    4.01   1
 -14 -16 -10    3.96    1.99   1
 -14 -16  -9   18.67    4.32   1
 -14 -16  -5    7.95    2.82   1
 -14 -16  -4    4.17    2.04   1
 -14 -16  -2   23.88    4.89   1
 -14 -16  -1    9.81    3.13   1
 -14 -16   0   29.55    5.44   1
 -14 -16   1   11.25    3.35   1
 -14 -16   2    2.86    1.69   1
 -14 -16   4   27.12    5.21   1
 -14 -16   8    6.73    2.59   1
 -14 -16   9   11.85    3.44   1
 -14 -16  10   13.61    3.69   1
 -14 -16  11   21.04    4.59   1
 -14 -16  12    8.34    2.89   1
 -14 -16  13    8.10    2.85   1
 -14 -16  15   12.60    3.55   1
 -14 -16  16    4.25    2.06   1
 -14 -16  17   17.62    4.20   1
 -14 -16  18    8.20    2.86   1
 -14 -16  19   22.13    4.70   1
 -14 -14 -24   10.73    3.27   1
 -14 -14 -23   12.46    3.53   1
 -14 -14 -22    6.64    2.58   1
 -14 -14 -21   16.73    4.09   1
 -14 -14 -19   10.17    3.19   1
 -14 -14 -17   25.58    5.06   1
 -14 -14 -15   10.17    3.19   1
 -14 -14 -13    7.23    2.69   1
 -14 -14 -10    7.47    2.73   1
 -14 -14  -9    8.24    2.87   1
 -14 -14  -8   11.74    3.43   1
 -14 -14  -7   24.90    4.99   1
 -14 -14  -6    9.00    3.00   1
 -14 -14  -4   32.89    5.73   1
 -14 -14  -3   11.42    3.38   1
 -14 -14  -1   15.68    3.96   1
 -14 -14   0  156.36   12.50   1
 -14 -14   1   63.56    7.97   1
 -14 -14   2  179.37   13.39   1
 -14 -14   4   13.27    3.64   1
 -14 -14   5   30.71    5.54   1
 -14 -14   6   43.99    6.63   1
 -14 -14   9    6.50    2.55   1
 -14 -14  10   17.61    4.20   1
 -14 -14  11    9.60    3.10   1
 -14 -14  14    5.15    2.27   1
 -14 -14  18    3.15    1.77   1
 -14 -14  20   18.00    4.24   1
 -14 -14  24    2.60    1.61   1
 -14 -12 -24    6.75    2.60   1
 -14 -12 -21   20.40    4.52   1
 -14 -12 -20    3.00    1.73   1
 -14 -12 -17    5.31    2.30   1
 -14 -12 -14   10.46    3.23   1
 -14 -12 -13   13.73    3.70   1
 -14 -12  -8    3.65    1.91   1
 -14 -12  -6   17.02    4.13   1
 -14 -12  -5    6.11    2.47   1
 -14 -12  -3   12.07    3.47   1
 -14 -12  -2   29.81    5.46   1
 -14 -12   1   22.63    4.76   1
 -14 -12   2   25.73    5.07   1
 -14 -12   3   26.33    5.13   1
 -14 -12   4   23.61    4.86   1
 -14 -12   6    9.38    3.06   1
 -14 -12   7    1.53    1.23   1
 -14 -12   8    9.16    3.03   1
 -14 -12   9   12.20    3.49   1
 -14 -12  10    6.16    2.48   1
 -14 -12  12   11.15    3.34   1
 -14 -12  14   18.38    4.29   1
 -14 -12  15   12.46    3.53   1
 -14 -12  16   30.52    5.52   1
 -14 -12  19   21.86    4.68   1
 -14 -12  20    7.43    2.72   1
 -14 -12  22    4.53    2.13   1
 -14 -12  23    5.47    2.34   1
 -14 -10 -24   15.38    3.92   1
 -14 -10 -22    1.89    1.38   1
 -14 -10 -21    2.93    1.71   1
 -14 -10 -20    5.07    2.25   1
 -14 -10 -19    9.95    3.16   1
 -14 -10 -17   21.06    4.59   1
 -14 -10 -15   17.40    4.17   1
 -14 -10 -14    5.59    2.36   1
 -14 -10 -10    2.59    1.61   1
 -14 -10  -8   90.00    9.49   1
 -14 -10  -7   18.33    4.28   1
 -14 -10  -6    8.88    2.98   1
 -14 -10  -5   20.70    4.55   1
 -14 -10  -4   19.01    4.36   1
 -14 -10  -3   14.36    3.79   1
 -14 -10  -2   26.43    5.14   1
 -14 -10  -1   17.92    4.23   1
 -14 -10   0    5.78    2.40   1
 -14 -10   1   31.05    5.57   1
 -14 -10   2   61.29    7.83   1
 -14 -10   4   12.52    3.54   1
 -14 -10   7   30.18    5.49   1
 -14 -10   8   12.79    3.58   1
 -14 -10   9   15.34    3.92   1
 -14 -10  10   18.30    4.28   1
 -14 -10  12   15.24    3.90   1
 -14 -10  13    1.93    1.39   1
 -14 -10  15    5.25    2.29   1
 -14 -10  16    3.15    1.77   1
 -14 -10  21    7.30    2.70   1
 -14 -10  24   10.73    3.27   1
 -14  -8 -22    9.76    3.12   1
 -14  -8 -20    5.10    2.26   1
 -14  -8 -19    7.13    2.67   1
 -14  -8 -16   19.20    4.38   1
 -14  -8 -15   16.42    4.05   1
 -14  -8 -12   38.63    6.21   1
 -14  -8 -10    7.57    2.75   1
 -14  -8  -9    4.20    2.05   1
 -14  -8  -8   21.49    4.64   1
 -14  -8  -7   18.62    4.32   1
 -14  -8  -6   12.44    3.53   1
 -14  -8  -5    1.95    1.40   1
 -14  -8  -4   82.88    9.10   1
 -14  -8  -3   17.67    4.20   1
 -14  -8  -2    5.96    2.44   1
 -14  -8  -1   21.86    4.68   1
 -14  -8   0   19.13    4.37   1
 -14  -8   1   54.67    7.39   1
 -14  -8   2   19.39    4.40   1
 -14  -8   3   23.51    4.85   1
 -14  -8   4    2.12    1.46   1
 -14  -8   5   22.00    4.69   1
 -14  -8   6   15.56    3.94   1
 -14  -8   7    7.95    2.82   1
 -14  -8   8   17.59    4.19   1
 -14  -8   9   15.11    3.89   1
 -14  -8  10    6.63    2.57   1
 -14  -8  11    3.06    1.75   1
 -14  -8  12   21.44    4.63   1
 -14  -8  14   64.11    8.01   1
 -14  -8  15    6.50    2.55   1
 -14  -8  16    1.56    1.25   1
 -14  -8  17   10.01    3.16   1
 -14  -8  20    8.18    2.86   1
 -14  -6 -23    7.35    2.71   1
 -14  -6 -22   16.31    4.04   1
 -14  -6 -20   18.67    4.32   1
 -14  -6 -18    6.37    2.52   1
 -14  -6 -16   22.58    4.75   1
 -14  -6 -15    5.59    2.36   1
 -14  -6 -14   62.47    7.90   1
 -14  -6 -12    1.80    1.34   1
 -14  -6  -8  142.35   11.93   1
 -14  -6  -7   24.15    4.91   1
 -14  -6  -6   24.56    4.96   1
 -14  -6  -5   54.15    7.36   1
 -14  -6  -4  121.27   11.01   1
 -14  -6  -3   14.48    3.80   1
 -14  -6   0   13.50    3.67   1
 -14  -6   1   20.03    4.48   1
 -14  -6   2   19.13    4.37   1
 -14  -6   5    7.50    2.74   1
 -14  -6   6   95.67    9.78   1
 -14  -6   7   11.65    3.41   1
 -14  -6   8    5.32    2.31   1
 -14  -6   9   62.03    7.88   1
 -14  -6  10   61.28    7.83   1
 -14  -6  11   29.97    5.47   1
 -14  -6  12   23.25    4.82   1
 -14  -6  14   11.35    3.37   1
 -14  -6  15    6.97    2.64   1
 -14  -6  16   21.15    4.60   1
 -14  -6  17   18.41    4.29   1
 -14  -6  18    1.59    1.26   1
 -14  -6  19   12.98    3.60   1
 -14  -6  21   30.52    5.52   1
 -14  -4 -24    2.96    1.72   1
 -14  -4 -22    6.65    2.58   1
 -14  -4 -20   10.57    3.25   1
 -14  -4 -19   17.55    4.19   1
 -14  -4 -13   10.47    3.24   1
 -14  -4 -11   22.59    4.75   1
 -14  -4 -10   35.70    5.97   1
 -14  -4  -8   11.85    3.44   1
 -14  -4  -4   28.21    5.31   1
 -14  -4  -3   29.91    5.47   1
 -14  -4  -2   23.09    4.81   1
 -14  -4  -1   13.65    3.69   1
 -14  -4   0   13.73    3.70   1
 -14  -4   1   29.96    5.47   1
 -14  -4   2   32.92    5.74   1
 -14  -4   3   14.83    3.85   1
 -14  -4   4    3.73    1.93   1
 -14  -4   5   13.43    3.66   1
 -14  -4   6    2.92    1.71   1
 -14  -4   8   31.61    5.62   1
 -14  -4   9   19.05    4.36   1
 -14  -4  10    4.15    2.04   1
 -14  -4  11   23.48    4.85   1
 -14  -4  12   29.33    5.42   1
 -14  -4  13    7.17    2.68   1
 -14  -4  14    5.29    2.30   1
 -14  -4  17   10.35    3.22   1
 -14  -4  18    9.15    3.02   1
 -14  -4  20    2.96    1.72   1
 -14  -4  22   27.52    5.25   1
 -14  -4  23   18.83    4.34   1
 -14  -2 -23   26.02    5.10   1
 -14  -2 -22   25.88    5.09   1
 -14  -2 -19   18.08    4.25   1
 -14  -2 -15    6.07    2.46   1
 -14  -2 -11    6.41    2.53   1
 -14  -2 -10   34.96    5.91   1
 -14  -2  -8   13.01    3.61   1
 -14  -2  -7   65.55    8.10   1
 -14  -2  -6  371.77   19.28   1
 -14  -2  -5   11.29    3.36   1
 -14  -2  -4   55.84    7.47   1
 -14  -2  -3   19.35    4.40   1
 -14  -2  -2   13.57    3.68   1
 -14  -2  -1   10.00    3.16   1
 -14  -2   0   39.02    6.25   1
 -14  -2   1    9.49    3.08   1
 -14  -2   2    5.40    2.32   1
 -14  -2   3    3.91    1.98   1
 -14  -2   4   33.04    5.75   1
 -14  -2   6   27.63    5.26   1
 -14  -2   7  347.82   18.65   1
 -14  -2   8   17.81    4.22   1
 -14  -2   9   36.56    6.05   1
 -14  -2  10   17.85    4.22   1
 -14  -2  11   21.87    4.68   1
 -14  -2  13    5.50    2.35   1
 -14  -2  14   10.84    3.29   1
 -14  -2  16    8.93    2.99   1
 -14  -2  19    9.61    3.10   1
 -14  -2  20   17.89    4.23   1
 -14  -2  21   22.20    4.71   1
 -14   0 -23   19.23    4.39   1
 -14   0 -19    3.26    1.81   1
 -14   0 -18   12.15    3.49   1
 -14   0 -16    4.91    2.22   1
 -14   0 -15    6.75    2.60   1
 -14   0 -12    8.76    2.96   1
 -14   0 -11   14.97    3.87   1
 -14   0 -10   17.77    4.22   1
 -14   0  -9    1.99    1.41   1
 -14   0  -8   72.56    8.52   1
 -14   0  -7   36.68    6.06   1
 -14   0  -6   44.24    6.65   1
 -14   0  -5    6.59    2.57   1
 -14   0  -4    6.00    2.45   1
 -14   0  -3    7.53    2.74   1
 -14   0  -2   15.75    3.97   1
 -14   0  -1  109.25   10.45   1
 -14   0   0   35.60    5.97   1
 -14   0   1  138.45   11.77   1
 -14   0   2   94.54    9.72   1
 -14   0   3    2.60    1.61   1
 -14   0   4    3.08    1.75   1
 -14   0   5   22.49    4.74   1
 -14   0   6    5.84    2.42   1
 -14   0   7   25.85    5.08   1
 -14   0   8   27.78    5.27   1
 -14   0   9   89.29    9.45   1
 -14   0  10   70.05    8.37   1
 -14   0  11   20.70    4.55   1
 -14   0  12   25.80    5.08   1
 -14   0  13   15.38    3.92   1
 -14   0  14   45.94    6.78   1
 -14   0  15   16.20    4.02   1
 -14   0  16   15.07    3.88   1
 -14   0  17    5.25    2.29   1
 -14   0  19   17.84    4.22   1
 -14   0  20   11.28    3.36   1
 -14   0  21   11.66    3.42   1
 -14   2 -24    3.03    1.74   1
 -14   2 -22   18.56    4.31   1
 -14   2 -20    5.26    2.29   1
 -14   2 -18   18.96    4.35   1
 -14   2 -16   16.72    4.09   1
 -14   2 -15    2.78    1.67   1
 -14   2 -14   59.78    7.73   1
 -14   2 -12   18.28    4.28   1
 -14   2 -11   16.13    4.02   1
 -14   2 -10   72.45    8.51   1
 -14   2  -9    9.94    3.15   1
 -14   2  -8   18.08    4.25   1
 -14   2  -7   29.20    5.40   1
 -14   2  -6  149.63   12.23   1
 -14   2  -5   19.42    4.41   1
 -14   2  -4   44.08    6.64   1
 -14   2  -3    5.65    2.38   1
 -14   2  -2   16.99    4.12   1
 -14   2  -1   11.10    3.33   1
 -14   2   0   55.62    7.46   1
 -14   2   1   30.25    5.50   1
 -14   2   3   28.50    5.34   1
 -14   2   4   16.25    4.03   1
 -14   2   5   31.89    5.65   1
 -14   2   6   21.87    4.68   1
 -14   2   7  414.40   20.36   1
 -14   2   8    2.53    1.59   1
 -14   2   9   14.02    3.74   1
 -14   2  11   35.47    5.96   1
 -14   2  12   10.14    3.18   1
 -14   2  13   20.51    4.53   1
 -14   2  15   27.23    5.22   1
 -14   2  16    8.32    2.89   1
 -14   2  17   22.37    4.73   1
 -14   2  18   20.29    4.50   1
 -14   2  20   11.73    3.42   1
 -14   2  21   20.03    4.48   1
 -14   2  22    5.38    2.32   1
 -14   2  23    4.31    2.08   1
 -14   4 -21    2.43    1.56   1
 -14   4 -19   25.67    5.07   1
 -14   4 -17   24.29    4.93   1
 -14   4 -16    2.83    1.68   1
 -14   4 -14    9.60    3.10   1
 -14   4 -11   10.05    3.17   1
 -14   4 -10   19.71    4.44   1
 -14   4  -8   16.85    4.11   1
 -14   4  -7   45.25    6.73   1
 -14   4  -6   15.19    3.90   1
 -14   4  -5   17.63    4.20   1
 -14   4  -4   24.52    4.95   1
 -14   4  -2   13.60    3.69   1
 -14   4  -1   21.85    4.67   1
 -14   4   0   58.89    7.67   1
 -14   4   1   12.15    3.49   1
 -14   4   2   14.15    3.76   1
 -14   4   4   11.97    3.46   1
 -14   4   5    8.04    2.84   1
 -14   4   6   50.40    7.10   1
 -14   4   7   28.42    5.33   1
 -14   4   8    9.31    3.05   1
 -14   4   9    5.44    2.33   1
 -14   4  10    1.54    1.24   1
 -14   4  12   23.61    4.86   1
 -14   4  14   15.52    3.94   1
 -14   4  16   10.98    3.31   1
 -14   4  17   25.28    5.03   1
 -14   4  18   11.93    3.45   1
 -14   4  23   17.02    4.13   1
 -14   4  24   16.31    4.04   1
 -14   6 -23   25.54    5.05   1
 -14   6 -21   27.63    5.26   1
 -14   6 -20   46.42    6.81   1
 -14   6 -14   17.63    4.20   1
 -14   6 -12    9.05    3.01   1
 -14   6 -11    7.80    2.79   1
 -14   6 -10   38.84    6.23   1
 -14   6  -9    7.47    2.73   1
 -14   6  -8  119.36   10.93   1
 -14   6  -7   30.45    5.52   1
 -14   6  -6    7.21    2.68   1
 -14   6  -5  138.98   11.79   1
 -14   6  -4   27.15    5.21   1
 -14   6  -3   27.34    5.23   1
 -14   6  -2    5.10    2.26   1
 -14   6  -1   24.53    4.95   1
 -14   6   0   18.23    4.27   1
 -14   6   1    8.37    2.89   1
 -14   6   2   16.00    4.00   1
 -14   6   3   12.13    3.48   1
 -14   6   4   12.11    3.48   1
 -14   6   5  126.30   11.24   1
 -14   6   6    7.43    2.72   1
 -14   6   9  152.40   12.35   1
 -14   6  10  135.54   11.64   1
 -14   6  11   30.12    5.49   1
 -14   6  12   37.73    6.14   1
 -14   6  14    8.66    2.94   1
 -14   6  15   59.17    7.69   1
 -14   6  16    8.85    2.97   1
 -14   6  17   27.57    5.25   1
 -14   6  18   41.58    6.45   1
 -14   6  19   19.23    4.39   1
 -14   6  20    4.25    2.06   1
 -14   6  24    2.70    1.64   1
 -14   8 -24    7.39    2.72   1
 -14   8 -23   14.78    3.84   1
 -14   8 -21    8.68    2.95   1
 -14   8 -19   23.25    4.82   1
 -14   8 -18   11.96    3.46   1
 -14   8 -17    3.16    1.78   1
 -14   8 -15   15.15    3.89   1
 -14   8 -12  126.90   11.26   1
 -14   8 -11   29.17    5.40   1
 -14   8 -10    7.01    2.65   1
 -14   8  -9   18.83    4.34   1
 -14   8  -8    4.05    2.01   1
 -14   8  -6   39.53    6.29   1
 -14   8  -4    7.21    2.69   1
 -14   8  -3   15.06    3.88   1
 -14   8  -2   18.38    4.29   1
 -14   8  -1   25.05    5.00   1
 -14   8   0   88.72    9.42   1
 -14   8   1   28.24    5.31   1
 -14   8   2   26.99    5.20   1
 -14   8   3   48.30    6.95   1
 -14   8   5    4.09    2.02   1
 -14   8   6   55.99    7.48   1
 -14   8   7   20.43    4.52   1
 -14   8   8   10.95    3.31   1
 -14   8   9   15.75    3.97   1
 -14   8  10   17.62    4.20   1
 -14   8  11   14.67    3.83   1
 -14   8  12   28.95    5.38   1
 -14   8  13   24.26    4.93   1
 -14   8  15   34.58    5.88   1
 -14   8  17    2.02    1.42   1
 -14   8  18   14.77    3.84   1
 -14   8  19   14.61    3.82   1
 -14   8  21    8.90    2.98   1
 -14   8  24    2.73    1.65   1
 -14  10 -23    6.07    2.46   1
 -14  10 -22    1.88    1.37   1
 -14  10 -19    5.96    2.44   1
 -14  10 -16   11.45    3.38   1
 -14  10 -15    2.21    1.49   1
 -14  10 -13   13.72    3.70   1
 -14  10 -12   10.09    3.18   1
 -14  10 -10   10.50    3.24   1
 -14  10  -9   16.11    4.01   1
 -14  10  -8   54.19    7.36   1
 -14  10  -7    9.36    3.06   1
 -14  10  -6   21.19    4.60   1
 -14  10  -5   28.47    5.34   1
 -14  10  -4   13.97    3.74   1
 -14  10  -3   67.43    8.21   1
 -14  10  -2   28.68    5.36   1
 -14  10  -1   56.55    7.52   1
 -14  10   0   78.09    8.84   1
 -14  10   1   42.87    6.55   1
 -14  10   2   46.50    6.82   1
 -14  10   3   58.42    7.64   1
 -14  10   4   29.44    5.43   1
 -14  10   5   12.60    3.55   1
 -14  10   6    7.14    2.67   1
 -14  10   8   31.48    5.61   1
 -14  10   9   37.72    6.14   1
 -14  10  10   64.43    8.03   1
 -14  10  11    3.00    1.73   1
 -14  10  13    6.07    2.46   1
 -14  10  14   17.32    4.16   1
 -14  10  15   11.85    3.44   1
 -14  10  16    9.15    3.02   1
 -14  10  17    8.36    2.89   1
 -14  10  19   20.07    4.48   1
 -14  10  21    1.80    1.34   1
 -14  10  22   10.01    3.16   1
 -14  10  24    4.65    2.16   1
 -14  12 -21   12.52    3.54   1
 -14  12 -20    9.60    3.10   1
 -14  12 -19    8.49    2.91   1
 -14  12 -17    6.68    2.58   1
 -14  12 -14   18.64    4.32   1
 -14  12 -11   13.09    3.62   1
 -14  12 -10   22.20    4.71   1
 -14  12  -9    5.20    2.28   1
 -14  12  -7    3.65    1.91   1
 -14  12  -6    2.31    1.52   1
 -14  12  -5   12.21    3.49   1
 -14  12  -4    3.83    1.96   1
 -14  12  -2   18.75    4.33   1
 -14  12  -1    7.56    2.75   1
 -14  12   0   30.64    5.54   1
 -14  12   1    9.86    3.14   1
 -14  12   2   27.73    5.27   1
 -14  12   3    2.92    1.71   1
 -14  12   4   17.38    4.17   1
 -14  12   5    5.79    2.41   1
 -14  12   7   11.70    3.42   1
 -14  12   8    9.64    3.10   1
 -14  12   9    6.94    2.63   1
 -14  12  11    3.45    1.86   1
 -14  12  12   18.62    4.31   1
 -14  12  13    2.06    1.44   1
 -14  12  14   11.46    3.39   1
 -14  12  16    4.95    2.22   1
 -14  12  18   16.76    4.09   1
 -14  12  20   15.85    3.98   1
 -14  12  22    6.07    2.46   1
 -14  12  24   21.38    4.62   1
 -14  14 -24   25.20    5.02   1
 -14  14 -20   17.12    4.14   1
 -14  14 -17    2.03    1.42   1
 -14  14 -15   12.94    3.60   1
 -14  14 -12   18.67    4.32   1
 -14  14 -11   22.84    4.78   1
 -14  14 -10   18.75    4.33   1
 -14  14  -8    6.49    2.55   1
 -14  14  -6   20.92    4.57   1
 -14  14  -5    9.06    3.01   1
 -14  14  -4   16.20    4.02   1
 -14  14  -3   33.08    5.75   1
 -14  14  -2    9.73    3.12   1
 -14  14  -1   64.75    8.05   1
 -14  14   0  125.51   11.20   1
 -14  14   1   51.59    7.18   1
 -14  14   2  117.81   10.85   1
 -14  14   3    1.95    1.40   1
 -14  14   4   11.07    3.33   1
 -14  14   5   12.75    3.57   1
 -14  14   7   15.00    3.87   1
 -14  14   8   16.01    4.00   1
 -14  14   9   17.81    4.22   1
 -14  14  10    7.35    2.71   1
 -14  14  12   32.29    5.68   1
 -14  14  13    5.70    2.39   1
 -14  14  15    1.98    1.41   1
 -14  14  16   26.77    5.17   1
 -14  14  19   19.35    4.40   1
 -14  14  21    9.64    3.10   1
 -14  14  22    8.48    2.91   1
 -14  14  24    4.72    2.17   1
 -14  16 -24    3.22    1.80   1
 -14  16 -22    7.39    2.72   1
 -14  16 -20    6.94    2.63   1
 -14  16 -19    7.28    2.70   1
 -14  16 -17    4.43    2.10   1
 -14  16 -12    8.87    2.98   1
 -14  16 -11   20.82    4.56   1
 -14  16 -10   13.05    3.61   1
 -14  16  -9   12.70    3.56   1
 -14  16  -6   13.76    3.71   1
 -14  16  -5    1.66    1.29   1
 -14  16  -4   17.67    4.20   1
 -14  16  -3    9.60    3.10   1
 -14  16  -2   15.07    3.88   1
 -14  16  -1    9.43    3.07   1
 -14  16   0   28.46    5.34   1
 -14  16   2    6.77    2.60   1
 -14  16   3   11.40    3.38   1
 -14  16   4    9.18    3.03   1
 -14  16   5    7.61    2.76   1
 -14  16   7    3.45    1.86   1
 -14  16   8   11.53    3.40   1
 -14  16   9   12.82    3.58   1
 -14  16  10   10.23    3.20   1
 -14  16  11   21.16    4.60   1
 -14  16  12   17.14    4.14   1
 -14  16  13   22.62    4.76   1
 -14  16  15   15.19    3.90   1
 -14  16  16    1.99    1.41   1
 -14  16  18   11.24    3.35   1
 -14  16  19   22.80    4.77   1
 -14  16  20   15.07    3.88   1
 -14  16  22   11.02    3.32   1
 -14  16  23   18.75    4.33   1
 -14  16  24    9.05    3.01   1
 -14  18 -21    5.99    2.45   1
 -14  18 -20    4.75    2.18   1
 -14  18 -19    2.25    1.50   1
 -14  18 -16    6.64    2.58   1
 -14  18 -13    3.76    1.94   1
 -14  18 -12    6.82    2.61   1
 -14  18  -9   14.25    3.77   1
 -14  18  -7   17.78    4.22   1
 -14  18  -4   12.33    3.51   1
 -14  18  -3    1.52    1.23   1
 -14  18  -2    5.73    2.39   1
 -14  18  -1   10.42    3.23   1
 -14  18   0    9.23    3.04   1
 -14  18   1   28.13    5.30   1
 -14  18   2   30.90    5.56   1
 -14  18   4   12.83    3.58   1
 -14  18   5   24.52    4.95   1
 -14  18   6   17.90    4.23   1
 -14  18   7   19.35    4.40   1
 -14  18   8   13.57    3.68   1
 -14  18  10   20.01    4.47   1
 -14  18  12    7.84    2.80   1
 -14  18  13   15.60    3.95   1
 -14  18  14   38.25    6.18   1
 -14  18  15    6.63    2.57   1
 -14  18  21   13.47    3.67   1
 -14  18  23    8.20    2.86   1
 -14  20 -18    3.30    1.82   1
 -14  20 -15    2.66    1.63   1
 -14  20 -14   14.18    3.76   1
 -14  20 -13   14.84    3.85   1
 -14  20 -12    7.05    2.66   1
 -14  20 -11    3.64    1.91   1
 -14  20  -9    1.58    1.25   1
 -14  20  -7    3.90    1.97   1
 -14  20  -6    2.63    1.62   1
 -14  20  -4    4.65    2.16   1
 -14  20  -3   23.43    4.84   1
 -14  20  -1   31.85    5.64   1
 -14  20   0   36.00    6.00   1
 -14  20   1   29.92    5.47   1
 -14  20   2   34.49    5.87   1
 -14  20   3   36.60    6.05   1
 -14  20   5   16.73    4.09   1
 -14  20   7   17.10    4.14   1
 -14  20   8   25.05    5.00   1
 -14  20   9    8.55    2.92   1
 -14  20  13   10.44    3.23   1
 -14  20  15   11.72    3.42   1
 -14  20  16   12.79    3.58   1
 -14  20  17   10.93    3.31   1
 -14  20  19    4.72    2.17   1
 -14  22 -13   11.10    3.33   1
 -14  22 -11    3.38    1.84   1
 -14  22 -10    4.80    2.19   1
 -14  22  -9   21.75    4.66   1
 -14  22  -8   10.99    3.31   1
 -14  22  -7    8.85    2.97   1
 -14  22  -6    5.37    2.32   1
 -14  22  -5   15.85    3.98   1
 -14  22  -4   19.27    4.39   1
 -14  22  -3    5.89    2.43   1
 -14  22  -2    4.44    2.11   1
 -14  22   0   11.53    3.40   1
 -14  22   1   10.16    3.19   1
 -14  22   2   10.62    3.26   1
 -14  22   3   19.41    4.41   1
 -14  22   5   23.55    4.85   1
 -14  22   6   15.82    3.98   1
 -14  22   7    9.94    3.15   1
 -14  22   8    4.52    2.13   1
 -14  22   9    5.79    2.41   1
 -14  22  10   20.63    4.54   1
 -14  22  12    6.53    2.55   1
 -14  22  13   14.32    3.78   1
 -14  22  14   11.39    3.38   1
 -14  22  15    7.99    2.83   1
 -14  22  18    7.95    2.82   1
 -14  24 -10   18.23    4.27   1
 -14  24  -9    6.75    2.60   1
 -14  24  -6    3.90    1.97   1
 -14  24  -5    7.77    2.79   1
 -14  24  -4    3.83    1.96   1
 -14  24  -3    1.80    1.34   1
 -14  24  -2   10.35    3.22   1
 -14  24  -1   11.70    3.42   1
 -14  24   1   17.17    4.14   1
 -14  24   2   12.81    3.58   1
 -14  24   3    6.72    2.59   1
 -14  24   4    5.85    2.42   1
 -14  24   6    9.75    3.12   1
 -14  24   7    4.80    2.19   1
 -14  24   8   14.02    3.74   1
 -14  24   9   10.28    3.21   1
 -14  24  11    5.58    2.36   1
 -14  24  13   10.76    3.28   1
 -13 -23 -18    7.10    2.66   1
 -13 -23 -16    6.55    2.56   1
 -13 -23 -15   10.43    3.23   1
 -13 -23 -14   10.11    3.18   1
 -13 -23 -10    4.57    2.14   1
 -13 -23  -9    4.09    2.02   1
 -13 -23  -8    6.00    2.45   1
 -13 -23  -7   16.35    4.04   1
 -13 -23  -6    8.81    2.97   1
 -13 -23  -5   22.20    4.71   1
 -13 -23  -3   25.65    5.06   1
 -13 -23  -2    3.49    1.87   1
 -13 -23   0    7.65    2.77   1
 -13 -23   1    6.13    2.48   1
 -13 -23   3   11.93    3.45   1
 -13 -23   4   20.02    4.47   1
 -13 -23   6    8.10    2.85   1
 -13 -23   7    8.65    2.94   1
 -13 -23   8    7.99    2.83   1
 -13 -23  10    8.70    2.95   1
 -13 -23  12    2.78    1.67   1
 -13 -23  15    4.48    2.12   1
 -13 -23  16   10.10    3.18   1
 -13 -23  17    6.49    2.55   1
 -13 -23  18    5.99    2.45   1
 -13 -23  19    4.91    2.22   1
 -13 -21 -21   15.68    3.96   1
 -13 -21 -20    1.91    1.38   1
 -13 -21 -19    4.05    2.01   1
 -13 -21 -18    4.77    2.19   1
 -13 -21 -16    4.50    2.12   1
 -13 -21 -15   16.42    4.05   1
 -13 -21 -14    2.29    1.51   1
 -13 -21 -13    8.70    2.95   1
 -13 -21 -11    1.95    1.40   1
 -13 -21  -8    7.84    2.80   1
 -13 -21  -7    7.65    2.77   1
 -13 -21  -5    9.30    3.05   1
 -13 -21  -2   15.07    3.88   1
 -13 -21   1    2.43    1.56   1
 -13 -21   5    9.30    3.05   1
 -13 -21   6   10.50    3.24   1
 -13 -21   8    5.59    2.36   1
 -13 -21  11    2.44    1.56   1
 -13 -21  12    2.10    1.45   1
 -13 -21  13    3.45    1.86   1
 -13 -21  14   20.43    4.52   1
 -13 -21  15    9.86    3.14   1
 -13 -21  16    6.90    2.63   1
 -13 -21  17    2.96    1.72   1
 -13 -21  19    2.84    1.69   1
 -13 -21  20    2.85    1.69   1
 -13 -21  21   10.94    3.31   1
 -13 -21  22    8.05    2.84   1
 -13 -19 -17   13.20    3.63   1
 -13 -19 -16   16.13    4.02   1
 -13 -19 -14    2.10    1.45   1
 -13 -19  -9   51.44    7.17   1
 -13 -19  -8   48.40    6.96   1
 -13 -19  -6   11.59    3.40   1
 -13 -19  -5    2.40    1.55   1
 -13 -19  -4    2.99    1.73   1
 -13 -19  -3    8.85    2.97   1
 -13 -19  -2   23.92    4.89   1
 -13 -19  -1   11.11    3.33   1
 -13 -19   2    9.60    3.10   1
 -13 -19   3   11.29    3.36   1
 -13 -19   5   15.18    3.90   1
 -13 -19   6    7.61    2.76   1
 -13 -19   8   18.17    4.26   1
 -13 -19   9   10.88    3.30   1
 -13 -19  12    4.05    2.01   1
 -13 -19  14    8.25    2.87   1
 -13 -19  15    3.21    1.79   1
 -13 -19  18    3.09    1.76   1
 -13 -19  22    5.67    2.38   1
 -13 -19  23    7.07    2.66   1
 -13 -19  24    2.10    1.45   1
 -13 -17 -18   10.36    3.22   1
 -13 -17 -17   17.56    4.19   1
 -13 -17 -14   12.00    3.46   1
 -13 -17 -10    4.05    2.01   1
 -13 -17  -9    4.83    2.20   1
 -13 -17  -4    3.90    1.97   1
 -13 -17  -3   23.55    4.85   1
 -13 -17   0    2.29    1.51   1
 -13 -17   1    6.01    2.45   1
 -13 -17   2   12.86    3.59   1
 -13 -17   4   10.41    3.23   1
 -13 -17   5   21.26    4.61   1
 -13 -17   6   17.85    4.22   1
 -13 -17   8    9.75    3.12   1
 -13 -17   9    7.26    2.69   1
 -13 -17  11   10.73    3.27   1
 -13 -17  13   15.11    3.89   1
 -13 -17  14   10.47    3.24   1
 -13 -17  18   15.86    3.98   1
 -13 -17  23    2.13    1.46   1
 -13 -17  24    3.38    1.84   1
 -13 -15 -24    6.71    2.59   1
 -13 -15 -23    4.92    2.22   1
 -13 -15 -18    2.33    1.52   1
 -13 -15 -16    8.11    2.85   1
 -13 -15 -15    9.22    3.04   1
 -13 -15 -12    4.89    2.21   1
 -13 -15  -8    4.20    2.05   1
 -13 -15  -6    4.43    2.10   1
 -13 -15  -4   98.34    9.92   1
 -13 -15  -3   55.62    7.46   1
 -13 -15  -2   78.07    8.84   1
 -13 -15  -1   18.55    4.31   1
 -13 -15   1    7.17    2.68   1
 -13 -15   3   20.33    4.51   1
 -13 -15   5    9.60    3.10   1
 -13 -15   6  148.13   12.17   1
 -13 -15   7   12.27    3.50   1
 -13 -15  11   31.04    5.57   1
 -13 -15  12    5.50    2.35   1
 -13 -15  16   13.83    3.72   1
 -13 -15  19    9.04    3.01   1
 -13 -15  21    4.50    2.12   1
 -13 -13 -23   11.29    3.36   1
 -13 -13 -16    5.93    2.43   1
 -13 -13 -15   10.58    3.25   1
 -13 -13 -10    3.04    1.74   1
 -13 -13  -7    8.32    2.89   1
 -13 -13  -6    5.82    2.41   1
 -13 -13  -4   12.03    3.47   1
 -13 -13  -3    2.81    1.68   1
 -13 -13  -2   15.75    3.97   1
 -13 -13  -1   23.36    4.83   1
 -13 -13   0   25.80    5.08   1
 -13 -13   1   10.77    3.28   1
 -13 -13   3   20.25    4.50   1
 -13 -13   4    1.90    1.38   1
 -13 -13   5   16.65    4.08   1
 -13 -13   6   26.55    5.15   1
 -13 -13   8   13.35    3.65   1
 -13 -13  10   10.09    3.18   1
 -13 -13  12    2.80    1.67   1
 -13 -13  13    8.54    2.92   1
 -13 -13  14   22.61    4.76   1
 -13 -13  15    9.51    3.08   1
 -13 -13  16    7.76    2.79   1
 -13 -13  17   10.80    3.29   1
 -13 -13  18   14.18    3.76   1
 -13 -13  21    7.05    2.66   1
 -13 -13  22   15.79    3.97   1
 -13 -11 -23    9.15    3.02   1
 -13 -11 -22    3.53    1.88   1
 -13 -11 -20    9.11    3.02   1
 -13 -11 -19    2.14    1.46   1
 -13 -11 -15   16.30    4.04   1
 -13 -11 -14    2.23    1.49   1
 -13 -11 -11    7.76    2.79   1
 -13 -11 -10   20.79    4.56   1
 -13 -11  -9    4.99    2.23   1
 -13 -11  -7    7.58    2.75   1
 -13 -11  -6    8.48    2.91   1
 -13 -11  -5    4.96    2.23   1
 -13 -11  -3   14.88    3.86   1
 -13 -11  -2   28.01    5.29   1
 -13 -11  -1   12.38    3.52   1
 -13 -11   0   14.60    3.82   1
 -13 -11   1    1.91    1.38   1
 -13 -11   2    8.32    2.89   1
 -13 -11   4    1.71    1.31   1
 -13 -11   5    6.15    2.48   1
 -13 -11   6   11.83    3.44   1
 -13 -11   8    3.67    1.92   1
 -13 -11  10   16.73    4.09   1
 -13 -11  11   16.69    4.09   1
 -13 -11  12    3.83    1.96   1
 -13 -11  13   13.05    3.61   1
 -13 -11  14    5.40    2.32   1
 -13 -11  18   16.42    4.05   1
 -13 -11  20    4.25    2.06   1
 -13 -11  21    2.21    1.49   1
 -13 -11  23    6.00    2.45   1
 -13  -9 -24    6.02    2.45   1
 -13  -9 -22   19.83    4.45   1
 -13  -9 -19    9.07    3.01   1
 -13  -9 -18    2.36    1.54   1
 -13  -9 -16   11.65    3.41   1
 -13  -9 -15   11.02    3.32   1
 -13  -9 -14    3.67    1.92   1
 -13  -9 -13   11.46    3.39   1
 -13  -9 -12   99.64    9.98   1
 -13  -9 -10   49.20    7.01   1
 -13  -9  -8   21.71    4.66   1
 -13  -9  -5   19.54    4.42   1
 -13  -9  -4  211.76   14.55   1
 -13  -9  -3   10.66    3.26   1
 -13  -9  -2   17.96    4.24   1
 -13  -9  -1   27.17    5.21   1
 -13  -9   2    6.90    2.63   1
 -13  -9   3   33.90    5.82   1
 -13  -9   4   41.63    6.45   1
 -13  -9   5   37.58    6.13   1
 -13  -9   6   28.32    5.32   1
 -13  -9   7   11.40    3.38   1
 -13  -9   8   21.00    4.58   1
 -13  -9   9   13.24    3.64   1
 -13  -9  11   28.84    5.37   1
 -13  -9  12   13.31    3.65   1
 -13  -9  13   10.69    3.27   1
 -13  -9  14   33.62    5.80   1
 -13  -9  16   22.58    4.75   1
 -13  -9  17    2.03    1.42   1
 -13  -9  21   24.31    4.93   1
 -13  -7 -23    1.85    1.36   1
 -13  -7 -22   13.40    3.66   1
 -13  -7 -20   12.68    3.56   1
 -13  -7 -17   25.73    5.07   1
 -13  -7 -16   20.75    4.55   1
 -13  -7 -12   17.85    4.22   1
 -13  -7 -11    3.71    1.93   1
 -13  -7 -10   24.09    4.91   1
 -13  -7  -8   25.39    5.04   1
 -13  -7  -7    4.48    2.12   1
 -13  -7  -6  263.42   16.23   1
 -13  -7  -5   39.83    6.31   1
 -13  -7  -4  295.20   17.18   1
 -13  -7  -3   13.50    3.67   1
 -13  -7   0   12.10    3.48   1
 -13  -7   1   17.14    4.14   1
 -13  -7   2   12.00    3.46   1
 -13  -7   3    4.59    2.14   1
 -13  -7   4   29.01    5.39   1
 -13  -7   5   18.41    4.29   1
 -13  -7   6  118.75   10.90   1
 -13  -7   7   26.26    5.12   1
 -13  -7   8   51.45    7.17   1
 -13  -7   9    9.63    3.10   1
 -13  -7  10   33.62    5.80   1
 -13  -7  15   17.48    4.18   1
 -13  -7  16   48.33    6.95   1
 -13  -7  17   13.95    3.73   1
 -13  -7  20    2.60    1.61   1
 -13  -7  24    6.66    2.58   1
 -13  -5 -23    6.53    2.55   1
 -13  -5 -19    3.30    1.82   1
 -13  -5 -18    7.67    2.77   1
 -13  -5 -17   24.08    4.91   1
 -13  -5 -16  178.68   13.37   1
 -13  -5 -15   20.10    4.48   1
 -13  -5 -14   39.19    6.26   1
 -13  -5 -13    5.85    2.42   1
 -13  -5 -12   36.49    6.04   1
 -13  -5 -10   38.10    6.17   1
 -13  -5  -8   13.44    3.67   1
 -13  -5  -6   18.06    4.25   1
 -13  -5  -5   31.73    5.63   1
 -13  -5  -4   28.39    5.33   1
 -13  -5  -3    4.69    2.17   1
 -13  -5  -2   12.41    3.52   1
 -13  -5   2   44.40    6.66   1
 -13  -5   4   13.82    3.72   1
 -13  -5   5   11.01    3.32   1
 -13  -5   6    5.65    2.38   1
 -13  -5   7    9.79    3.13   1
 -13  -5   8   11.70    3.42   1
 -13  -5  10    9.71    3.12   1
 -13  -5  11   11.28    3.36   1
 -13  -5  13   14.56    3.82   1
 -13  -5  15    3.07    1.75   1
 -13  -5  17   23.80    4.88   1
 -13  -5  18   16.24    4.03   1
 -13  -5  19    8.18    2.86   1
 -13  -5  20    4.71    2.17   1
 -13  -5  21   17.07    4.13   1
 -13  -5  22   12.89    3.59   1
 -13  -5  23   11.40    3.38   1
 -13  -3 -24   18.45    4.30   1
 -13  -3 -19   13.32    3.65   1
 -13  -3 -17    6.53    2.55   1
 -13  -3 -16   50.93    7.14   1
 -13  -3 -14    2.70    1.64   1
 -13  -3 -13   28.73    5.36   1
 -13  -3 -12    8.55    2.92   1
 -13  -3 -10   39.41    6.28   1
 -13  -3  -8    3.45    1.86   1
 -13  -3  -7    1.59    1.26   1
 -13  -3  -6   16.02    4.00   1
 -13  -3  -5  123.62   11.12   1
 -13  -3  -4  252.49   15.89   1
 -13  -3  -3   83.47    9.14   1
 -13  -3  -2   72.60    8.52   1
 -13  -3  -1   40.88    6.39   1
 -13  -3   0    7.28    2.70   1
 -13  -3   1   21.68    4.66   1
 -13  -3   2   12.98    3.60   1
 -13  -3   3  107.28   10.36   1
 -13  -3   4   49.95    7.07   1
 -13  -3   5  136.38   11.68   1
 -13  -3   6   20.74    4.55   1
 -13  -3   7   25.65    5.06   1
 -13  -3   8    8.99    3.00   1
 -13  -3  10    5.90    2.43   1
 -13  -3  11   25.46    5.05   1
 -13  -3  12    8.02    2.83   1
 -13  -3  13   17.70    4.21   1
 -13  -3  14   13.95    3.73   1
 -13  -3  16   10.73    3.27   1
 -13  -3  17   67.65    8.22   1
 -13  -3  18  156.07   12.49   1
 -13  -3  19    5.07    2.25   1
 -13  -3  20   14.87    3.86   1
 -13  -3  21   18.76    4.33   1
 -13  -3  22    8.07    2.84   1
 -13  -3  24    8.59    2.93   1
 -13  -1 -24    2.28    1.51   1
 -13  -1 -23    6.64    2.58   1
 -13  -1 -19   11.59    3.40   1
 -13  -1 -16   27.09    5.20   1
 -13  -1 -15   19.35    4.40   1
 -13  -1 -14   51.90    7.20   1
 -13  -1 -13   11.25    3.35   1
 -13  -1 -12   78.22    8.84   1
 -13  -1 -10   34.99    5.92   1
 -13  -1  -9   20.56    4.53   1
 -13  -1  -7   16.27    4.03   1
 -13  -1  -6    8.97    2.99   1
 -13  -1  -5   17.63    4.20   1
 -13  -1  -4   36.64    6.05   1
 -13  -1  -3    7.04    2.65   1
 -13  -1  -2   12.45    3.53   1
 -13  -1  -1   32.51    5.70   1
 -13  -1   0   29.10    5.39   1
 -13  -1   1   14.93    3.86   1
 -13  -1   2   10.88    3.30   1
 -13  -1   3    4.90    2.21   1
 -13  -1   6   21.20    4.60   1
 -13  -1   7   11.28    3.36   1
 -13  -1   9   10.88    3.30   1
 -13  -1  10   14.19    3.77   1
 -13  -1  11   21.38    4.62   1
 -13  -1  12    8.26    2.87   1
 -13  -1  13   48.10    6.94   1
 -13  -1  14   15.90    3.99   1
 -13  -1  15   37.23    6.10   1
 -13  -1  18   10.46    3.23   1
 -13  -1  21   12.10    3.48   1
 -13  -1  22   14.93    3.86   1
 -13   1 -22   13.99    3.74   1
 -13   1 -20    1.55    1.24   1
 -13   1 -19    2.63    1.62   1
 -13   1 -18    7.50    2.74   1
 -13   1 -17   15.23    3.90   1
 -13   1 -16   27.08    5.20   1
 -13   1 -15    4.30    2.07   1
 -13   1 -14    8.80    2.97   1
 -13   1 -13    7.60    2.76   1
 -13   1 -12   58.80    7.67   1
 -13   1 -11    5.89    2.43   1
 -13   1 -10   19.06    4.37   1
 -13   1  -9   22.65    4.76   1
 -13   1  -8    5.70    2.39   1
 -13   1  -7   16.50    4.06   1
 -13   1  -5   10.43    3.23   1
 -13   1  -4    5.00    2.24   1
 -13   1  -3    2.58    1.60   1
 -13   1  -2   13.13    3.62   1
 -13   1   1    6.56    2.56   1
 -13   1   3   11.29    3.36   1
 -13   1   4   18.41    4.29   1
 -13   1   5   51.00    7.14   1
 -13   1   6   21.98    4.69   1
 -13   1   7   12.15    3.49   1
 -13   1   8    3.79    1.95   1
 -13   1   9   22.88    4.78   1
 -13   1  10    6.13    2.47   1
 -13   1  11   36.79    6.07   1
 -13   1  13   20.48    4.52   1
 -13   1  14   16.58    4.07   1
 -13   1  15   11.18    3.34   1
 -13   1  17   21.23    4.61   1
 -13   1  18   19.32    4.40   1
 -13   1  19   21.98    4.69   1
 -13   1  20   31.58    5.62   1
 -13   1  21   14.32    3.78   1
 -13   1  24   24.19    4.92   1
 -13   3 -21   12.34    3.51   1
 -13   3 -20   13.95    3.73   1
 -13   3 -19   18.30    4.28   1
 -13   3 -18    5.20    2.28   1
 -13   3 -16  203.93   14.28   1
 -13   3 -14  168.24   12.97   1
 -13   3 -13   17.39    4.17   1
 -13   3 -12   22.80    4.77   1
 -13   3 -11   12.71    3.56   1
 -13   3 -10   28.24    5.31   1
 -13   3  -9   29.00    5.39   1
 -13   3  -7   10.61    3.26   1
 -13   3  -5   37.28    6.11   1
 -13   3  -4  270.57   16.45   1
 -13   3  -3  129.40   11.38   1
 -13   3  -2   49.69    7.05   1
 -13   3  -1   18.38    4.29   1
 -13   3   0    7.85    2.80   1
 -13   3   1   35.40    5.95   1
 -13   3   2   11.82    3.44   1
 -13   3   3  107.65   10.38   1
 -13   3   4   24.00    4.90   1
 -13   3   5    9.00    3.00   1
 -13   3   6   47.17    6.87   1
 -13   3   7   22.27    4.72   1
 -13   3   9   17.02    4.13   1
 -13   3  10    5.93    2.43   1
 -13   3  12   30.03    5.48   1
 -13   3  13    6.37    2.52   1
 -13   3  14    9.00    3.00   1
 -13   3  15   32.45    5.70   1
 -13   3  16   27.24    5.22   1
 -13   3  17  126.00   11.22   1
 -13   3  19   13.95    3.73   1
 -13   3  20   25.73    5.07   1
 -13   3  21   13.46    3.67   1
 -13   3  23    2.85    1.69   1
 -13   3  24   15.67    3.96   1
 -13   5 -23   19.05    4.36   1
 -13   5 -22   28.13    5.30   1
 -13   5 -21    6.97    2.64   1
 -13   5 -20    9.35    3.06   1
 -13   5 -17   23.50    4.85   1
 -13   5 -16   42.38    6.51   1
 -13   5 -14   27.94    5.29   1
 -13   5 -13    5.03    2.24   1
 -13   5 -12    7.65    2.77   1
 -13   5 -10   30.64    5.54   1
 -13   5  -9   30.37    5.51   1
 -13   5  -8    6.30    2.51   1
 -13   5  -6    1.58    1.25   1
 -13   5  -5   46.45    6.82   1
 -13   5  -4   90.22    9.50   1
 -13   5  -3   21.23    4.61   1
 -13   5  -2    7.13    2.67   1
 -13   5  -1   35.40    5.95   1
 -13   5   0   29.77    5.46   1
 -13   5   1   21.08    4.59   1
 -13   5   2   25.01    5.00   1
 -13   5   3   11.29    3.36   1
 -13   5   4   14.77    3.84   1
 -13   5   5   31.65    5.63   1
 -13   5   6   31.01    5.57   1
 -13   5   7   17.12    4.14   1
 -13   5   8   12.52    3.54   1
 -13   5   9   31.70    5.63   1
 -13   5  10    2.61    1.62   1
 -13   5  11   13.22    3.64   1
 -13   5  12   12.90    3.59   1
 -13   5  13   24.40    4.94   1
 -13   5  14   30.70    5.54   1
 -13   5  15    5.14    2.27   1
 -13   5  16    8.04    2.84   1
 -13   5  17   17.10    4.14   1
 -13   5  19   10.57    3.25   1
 -13   5  20   10.35    3.22   1
 -13   5  21    3.26    1.81   1
 -13   5  23    9.23    3.04   1
 -13   5  24    5.78    2.40   1
 -13   7 -21   12.07    3.47   1
 -13   7 -20   12.94    3.60   1
 -13   7 -17    4.26    2.06   1
 -13   7 -15   19.65    4.43   1
 -13   7 -11   26.43    5.14   1
 -13   7  -9   10.18    3.19   1
 -13   7  -8   13.76    3.71   1
 -13   7  -7   78.51    8.86   1
 -13   7  -6  276.23   16.62   1
 -13   7  -5  159.57   12.63   1
 -13   7  -4  183.23   13.54   1
 -13   7  -2   13.13    3.62   1
 -13   7  -1    7.01    2.65   1
 -13   7   0   14.52    3.81   1
 -13   7   2   17.06    4.13   1
 -13   7   3   43.05    6.56   1
 -13   7   5   50.65    7.12   1
 -13   7   6  190.70   13.81   1
 -13   7   7  192.21   13.86   1
 -13   7   8   12.52    3.54   1
 -13   7  10   14.14    3.76   1
 -13   7  11    5.31    2.30   1
 -13   7  12    2.63    1.62   1
 -13   7  13    8.72    2.95   1
 -13   7  15   28.65    5.35   1
 -13   7  16   76.00    8.72   1
 -13   7  18   12.45    3.53   1
 -13   7  22    6.19    2.49   1
 -13   7  23    5.66    2.38   1
 -13   7  24   10.74    3.28   1
 -13   9 -24    7.17    2.68   1
 -13   9 -23    3.96    1.99   1
 -13   9 -22    1.68    1.29   1
 -13   9 -20    9.45    3.07   1
 -13   9 -19    6.48    2.54   1
 -13   9 -18   10.72    3.27   1
 -13   9 -16    7.46    2.73   1
 -13   9 -15   13.90    3.73   1
 -13   9 -14   23.77    4.88   1
 -13   9 -13   12.00    3.46   1
 -13   9 -12   37.42    6.12   1
 -13   9 -11   24.34    4.93   1
 -13   9 -10   31.91    5.65   1
 -13   9  -9   13.15    3.63   1
 -13   9  -8   20.48    4.52   1
 -13   9  -7   12.45    3.53   1
 -13   9  -6    2.91    1.71   1
 -13   9  -5  158.46   12.59   1
 -13   9  -4  162.40   12.74   1
 -13   9  -3   93.38    9.66   1
 -13   9  -2   36.19    6.02   1
 -13   9  -1    8.77    2.96   1
 -13   9   2   23.15    4.81   1
 -13   9   3   27.91    5.28   1
 -13   9   4   78.07    8.84   1
 -13   9   5  231.82   15.23   1
 -13   9   6  178.80   13.37   1
 -13   9   7   17.53    4.19   1
 -13   9   8   26.14    5.11   1
 -13   9   9   27.75    5.27   1
 -13   9  11   24.52    4.95   1
 -13   9  12    8.40    2.90   1
 -13   9  13  119.18   10.92   1
 -13   9  14   37.98    6.16   1
 -13   9  15   24.26    4.93   1
 -13   9  16   11.40    3.38   1
 -13   9  17   17.33    4.16   1
 -13   9  21   11.66    3.42   1
 -13   9  23    6.38    2.52   1
 -13  11 -24    8.65    2.94   1
 -13  11 -22    7.09    2.66   1
 -13  11 -18   17.03    4.13   1
 -13  11 -16   23.33    4.83   1
 -13  11 -13   38.45    6.20   1
 -13  11 -12   14.43    3.80   1
 -13  11 -11   24.94    4.99   1
 -13  11 -10   19.73    4.44   1
 -13  11  -9   13.84    3.72   1
 -13  11  -8   15.34    3.92   1
 -13  11  -7    5.58    2.36   1
 -13  11  -5   38.64    6.22   1
 -13  11  -4   24.86    4.99   1
 -13  11  -2   63.00    7.94   1
 -13  11  -1    5.30    2.30   1
 -13  11   0   19.35    4.40   1
 -13  11   1   11.14    3.34   1
 -13  11   4    2.92    1.71   1
 -13  11   5   63.83    7.99   1
 -13  11   6   37.24    6.10   1
 -13  11   7   16.10    4.01   1
 -13  11   8   10.52    3.24   1
 -13  11  10   34.47    5.87   1
 -13  11  11   23.77    4.88   1
 -13  11  13   22.61    4.76   1
 -13  11  14    8.68    2.95   1
 -13  11  15    8.43    2.90   1
 -13  11  16   13.11    3.62   1
 -13  11  18   18.23    4.27   1
 -13  11  20    3.58    1.89   1
 -13  11  23    4.95    2.23   1
 -13  13 -23   14.64    3.83   1
 -13  13 -22   13.99    3.74   1
 -13  13 -21   17.07    4.13   1
 -13  13 -20    6.15    2.48   1
 -13  13 -18    4.23    2.06   1
 -13  13 -15    7.69    2.77   1
 -13  13 -13    9.05    3.01   1
 -13  13 -12   78.00    8.83   1
 -13  13 -11    6.45    2.54   1
 -13  13  -8    3.95    1.99   1
 -13  13  -7   15.06    3.88   1
 -13  13  -5   30.62    5.53   1
 -13  13  -4   30.52    5.52   1
 -13  13  -2   27.46    5.24   1
 -13  13  -1   22.35    4.73   1
 -13  13   1    6.41    2.53   1
 -13  13   2   27.67    5.26   1
 -13  13   3   21.08    4.59   1
 -13  13   4   34.65    5.89   1
 -13  13   5   23.14    4.81   1
 -13  13   6   40.05    6.33   1
 -13  13   7   27.04    5.20   1
 -13  13   8   13.35    3.65   1
 -13  13   9    2.33    1.52   1
 -13  13  10    6.49    2.55   1
 -13  13  11   28.20    5.31   1
 -13  13  12    3.45    1.86   1
 -13  13  13  129.82   11.39   1
 -13  13  15   10.43    3.23   1
 -13  13  17    2.10    1.45   1
 -13  13  18    3.14    1.77   1
 -13  13  19   11.75    3.43   1
 -13  13  20   10.50    3.24   1
 -13  15 -23   11.19    3.34   1
 -13  15 -21    3.94    1.98   1
 -13  15 -19    9.97    3.16   1
 -13  15 -18    8.13    2.85   1
 -13  15 -14   25.42    5.04   1
 -13  15 -13    8.69    2.95   1
 -13  15 -11    7.10    2.67   1
 -13  15 -10    5.55    2.36   1
 -13  15  -9    2.78    1.67   1
 -13  15  -8   12.48    3.53   1
 -13  15  -6   13.68    3.70   1
 -13  15  -5  139.35   11.80   1
 -13  15  -4   39.73    6.30   1
 -13  15  -3   38.30    6.19   1
 -13  15  -2   39.40    6.28   1
 -13  15   0   12.15    3.49   1
 -13  15   1   15.16    3.89   1
 -13  15   2    5.96    2.44   1
 -13  15   3   30.93    5.56   1
 -13  15   4   66.56    8.16   1
 -13  15   5   28.59    5.35   1
 -13  15   6   70.01    8.37   1
 -13  15   7   11.14    3.34   1
 -13  15   8   15.14    3.89   1
 -13  15  11   10.27    3.21   1
 -13  15  13    8.48    2.91   1
 -13  15  14    9.85    3.14   1
 -13  15  15    5.65    2.38   1
 -13  15  16   17.53    4.19   1
 -13  15  17    6.97    2.64   1
 -13  15  18   12.00    3.46   1
 -13  15  19    9.79    3.13   1
 -13  15  20    2.81    1.68   1
 -13  15  22   10.63    3.26   1
 -13  17 -20   27.15    5.21   1
 -13  17 -19    2.56    1.60   1
 -13  17 -17    1.99    1.41   1
 -13  17 -16   10.10    3.18   1
 -13  17 -15   12.90    3.59   1
 -13  17 -14    9.07    3.01   1
 -13  17 -13   14.18    3.76   1
 -13  17 -10   13.30    3.65   1
 -13  17  -9   12.00    3.46   1
 -13  17  -8    4.95    2.22   1
 -13  17  -7   18.54    4.31   1
 -13  17  -6    8.68    2.95   1
 -13  17  -5   43.56    6.60   1
 -13  17  -4   36.08    6.01   1
 -13  17  -3   12.32    3.51   1
 -13  17  -2   22.16    4.71   1
 -13  17  -1    7.05    2.66   1
 -13  17   0    3.75    1.94   1
 -13  17   1   17.66    4.20   1
 -13  17   2    3.53    1.88   1
 -13  17   3   11.93    3.45   1
 -13  17   5   27.30    5.23   1
 -13  17   6   35.81    5.98   1
 -13  17   7    4.41    2.10   1
 -13  17   8    2.85    1.69   1
 -13  17   9    6.95    2.64   1
 -13  17  10   30.90    5.56   1
 -13  17  11    1.69    1.30   1
 -13  17  13   15.50    3.94   1
 -13  17  14    7.34    2.71   1
 -13  17  15    1.61    1.27   1
 -13  17  17    4.68    2.16   1
 -13  17  18   10.85    3.29   1
 -13  17  19   12.49    3.53   1
 -13  17  20   21.75    4.66   1
 -13  17  21    8.74    2.96   1
 -13  19 -21   15.30    3.91   1
 -13  19 -20   11.81    3.44   1
 -13  19 -18   18.23    4.27   1
 -13  19 -15   14.39    3.79   1
 -13  19 -12    3.64    1.91   1
 -13  19  -9    6.22    2.49   1
 -13  19  -8    6.22    2.49   1
 -13  19  -7    8.97    2.99   1
 -13  19  -5   10.50    3.24   1
 -13  19  -4    6.12    2.47   1
 -13  19  -3   12.83    3.58   1
 -13  19  -2   31.80    5.64   1
 -13  19   0   36.75    6.06   1
 -13  19   1    3.49    1.87   1
 -13  19   2    7.80    2.79   1
 -13  19   3    7.35    2.71   1
 -13  19   4   12.00    3.46   1
 -13  19   5    7.05    2.66   1
 -13  19   6    7.80    2.79   1
 -13  19   7   12.41    3.52   1
 -13  19   8   16.00    4.00   1
 -13  19  10   17.74    4.21   1
 -13  19  12   20.91    4.57   1
 -13  19  13    5.96    2.44   1
 -13  19  17   23.96    4.90   1
 -13  19  18    2.40    1.55   1
 -13  19  20   13.95    3.73   1
 -13  21 -15    8.02    2.83   1
 -13  21 -14   15.97    4.00   1
 -13  21 -13    7.13    2.67   1
 -13  21 -11    1.61    1.27   1
 -13  21  -9    8.02    2.83   1
 -13  21  -8   10.92    3.30   1
 -13  21  -7   14.65    3.83   1
 -13  21  -5   15.90    3.99   1
 -13  21  -2   16.80    4.10   1
 -13  21   0   16.20    4.02   1
 -13  21   1    5.06    2.25   1
 -13  21   2   13.13    3.62   1
 -13  21   4   15.52    3.94   1
 -13  21   5   12.52    3.54   1
 -13  21   6    3.11    1.76   1
 -13  21   8    2.77    1.66   1
 -13  21   9    8.36    2.89   1
 -13  21  10    8.48    2.91   1
 -13  21  11    2.77    1.66   1
 -13  21  12    6.53    2.55   1
 -13  21  13    4.77    2.18   1
 -13  21  14   26.33    5.13   1
 -13  21  15    7.31    2.70   1
 -13  21  16   11.02    3.32   1
 -13  21  18    5.51    2.35   1
 -13  23 -16   13.57    3.68   1
 -13  23 -15    7.46    2.73   1
 -13  23 -14    6.56    2.56   1
 -13  23 -13    4.34    2.08   1
 -13  23 -12    4.35    2.09   1
 -13  23  -8    2.75    1.66   1
 -13  23  -7   18.94    4.35   1
 -13  23  -6   27.73    5.27   1
 -13  23  -5   12.64    3.55   1
 -13  23  -4   12.45    3.53   1
 -13  23  -2   21.67    4.66   1
 -13  23  -1   25.09    5.01   1
 -13  23   0   18.60    4.31   1
 -13  23   1    9.30    3.05   1
 -13  23   2    6.49    2.55   1
 -13  23   3    7.65    2.77   1
 -13  23   4    9.52    3.09   1
 -13  23   5   21.38    4.62   1
 -13  23   6    7.20    2.68   1
 -13  23   7   13.10    3.62   1
 -13  23   8    4.69    2.17   1
 -13  23   9    6.79    2.61   1
 -13  23  10   11.21    3.35   1
 -13  23  12   10.99    3.31   1
 -13  23  14    6.93    2.63   1
 -13  23  15    5.84    2.42   1
 -13  23  17    8.40    2.90   1
 -12 -24 -17   12.07    3.47   1
 -12 -24 -16   12.15    3.49   1
 -12 -24 -15    9.82    3.13   1
 -12 -24 -13    2.60    1.61   1
 -12 -24 -11   12.90    3.59   1
 -12 -24  -9    8.37    2.89   1
 -12 -24  -6   13.64    3.69   1
 -12 -24  -5    2.04    1.43   1
 -12 -24  -3   16.50    4.06   1
 -12 -24   1   20.16    4.49   1
 -12 -24   2    4.04    2.01   1
 -12 -24   3    8.70    2.95   1
 -12 -24   4    2.52    1.59   1
 -12 -24   5   10.56    3.25   1
 -12 -24   9    5.47    2.34   1
 -12 -24  10   14.49    3.81   1
 -12 -24  11    5.14    2.27   1
 -12 -24  12    5.70    2.39   1
 -12 -24  14    6.90    2.63   1
 -12 -24  15   13.76    3.71   1
 -12 -24  16    3.70    1.92   1
 -12 -22 -18    8.40    2.90   1
 -12 -22 -17    2.92    1.71   1
 -12 -22 -12    6.95    2.64   1
 -12 -22 -11    9.82    3.13   1
 -12 -22 -10    4.84    2.20   1
 -12 -22  -8    3.46    1.86   1
 -12 -22  -6    9.70    3.12   1
 -12 -22  -5    9.15    3.02   1
 -12 -22  -4    4.80    2.19   1
 -12 -22  -1   23.92    4.89   1
 -12 -22   0   20.40    4.52   1
 -12 -22   1    7.35    2.71   1
 -12 -22   2    3.54    1.88   1
 -12 -22   5    4.24    2.06   1
 -12 -22   6    8.87    2.98   1
 -12 -22   7    2.32    1.52   1
 -12 -22  10    2.28    1.51   1
 -12 -22  11    6.49    2.55   1
 -12 -22  12    4.46    2.11   1
 -12 -22  13    3.93    1.98   1
 -12 -22  17    1.76    1.33   1
 -12 -22  18   14.32    3.78   1
 -12 -22  19    3.38    1.84   1
 -12 -20 -19    2.25    1.50   1
 -12 -20 -18    7.50    2.74   1
 -12 -20 -16    6.33    2.51   1
 -12 -20 -15    8.51    2.92   1
 -12 -20 -12   11.82    3.44   1
 -12 -20 -11    7.65    2.77   1
 -12 -20 -10    2.73    1.65   1
 -12 -20  -8    3.40    1.84   1
 -12 -20  -7   24.15    4.91   1
 -12 -20  -6    1.83    1.35   1
 -12 -20  -5    2.83    1.68   1
 -12 -20  -4   10.01    3.16   1
 -12 -20  -3   15.94    3.99   1
 -12 -20  -1   27.49    5.24   1
 -12 -20   0   26.55    5.15   1
 -12 -20   1    8.70    2.95   1
 -12 -20   2   16.63    4.08   1
 -12 -20   4   13.50    3.67   1
 -12 -20   5    8.55    2.92   1
 -12 -20   7   20.44    4.52   1
 -12 -20  12    6.03    2.46   1
 -12 -20  17    2.50    1.58   1
 -12 -20  18    7.65    2.77   1
 -12 -20  20    8.36    2.89   1
 -12 -20  21   20.21    4.50   1
 -12 -20  22    3.56    1.89   1
 -12 -20  24    2.41    1.55   1
 -12 -18 -22    2.17    1.47   1
 -12 -18 -18    4.01    2.00   1
 -12 -18 -17   12.79    3.58   1
 -12 -18 -16    7.65    2.77   1
 -12 -18 -14    8.01    2.83   1
 -12 -18 -11   13.46    3.67   1
 -12 -18  -8   14.37    3.79   1
 -12 -18  -7   11.10    3.33   1
 -12 -18  -6   15.15    3.89   1
 -12 -18  -3    3.66    1.91   1
 -12 -18   1    8.18    2.86   1
 -12 -18   2    3.26    1.81   1
 -12 -18   3    4.28    2.07   1
 -12 -18   4   14.48    3.80   1
 -12 -18   5   22.55    4.75   1
 -12 -18   6    5.06    2.25   1
 -12 -18   7   22.35    4.73   1
 -12 -18   8    7.14    2.67   1
 -12 -18  10   15.22    3.90   1
 -12 -18  14   13.27    3.64   1
 -12 -18  15    5.55    2.36   1
 -12 -18  16   11.96    3.46   1
 -12 -18  18    9.68    3.11   1
 -12 -18  19    4.13    2.03   1
 -12 -18  23    4.65    2.16   1
 -12 -16 -24    7.13    2.67   1
 -12 -16 -23    6.87    2.62   1
 -12 -16 -22    4.65    2.16   1
 -12 -16 -21   18.45    4.30   1
 -12 -16 -18   17.10    4.14   1
 -12 -16 -17   11.45    3.38   1
 -12 -16 -16   12.79    3.58   1
 -12 -16 -15    3.38    1.84   1
 -12 -16 -13    9.82    3.13   1
 -12 -16 -11    6.07    2.46   1
 -12 -16  -7    9.20    3.03   1
 -12 -16  -6   33.38    5.78   1
 -12 -16  -5   18.23    4.27   1
 -12 -16  -3    3.60    1.90   1
 -12 -16  -2   19.88    4.46   1
 -12 -16  -1    9.16    3.03   1
 -12 -16   1   20.33    4.51   1
 -12 -16   2   35.33    5.94   1
 -12 -16   3    7.50    2.74   1
 -12 -16   4    4.85    2.20   1
 -12 -16   5   15.16    3.89   1
 -12 -16   6   33.67    5.80   1
 -12 -16   7   22.13    4.70   1
 -12 -16   8   49.35    7.02   1
 -12 -16   9    3.40    1.84   1
 -12 -16  10    5.21    2.28   1
 -12 -16  11   12.07    3.47   1
 -12 -16  12    4.95    2.22   1
 -12 -16  14    1.73    1.31   1
 -12 -16  15   20.65    4.54   1
 -12 -16  16   15.23    3.90   1
 -12 -16  19   18.97    4.35   1
 -12 -16  21    5.47    2.34   1
 -12 -14 -24    7.01    2.65   1
 -12 -14 -23   12.41    3.52   1
 -12 -14 -21   10.17    3.19   1
 -12 -14 -20    9.27    3.05   1
 -12 -14 -17    7.92    2.82   1
 -12 -14 -16    3.22    1.80   1
 -12 -14 -15    9.34    3.06   1
 -12 -14 -10    3.33    1.82   1
 -12 -14  -9    3.50    1.87   1
 -12 -14  -8   24.39    4.94   1
 -12 -14  -7   23.48    4.85   1
 -12 -14  -6   13.61    3.69   1
 -12 -14  -5   14.90    3.86   1
 -12 -14  -4   39.22    6.26   1
 -12 -14  -3   37.40    6.12   1
 -12 -14  -2   25.81    5.08   1
 -12 -14  -1   24.75    4.97   1
 -12 -14   0   16.53    4.07   1
 -12 -14   1   10.43    3.23   1
 -12 -14   3    5.66    2.38   1
 -12 -14   4   24.23    4.92   1
 -12 -14   5   23.18    4.81   1
 -12 -14   6   32.81    5.73   1
 -12 -14   7    2.40    1.55   1
 -12 -14   9   26.07    5.11   1
 -12 -14  10   34.80    5.90   1
 -12 -14  11    7.97    2.82   1
 -12 -14  14   39.67    6.30   1
 -12 -14  17    2.30    1.52   1
 -12 -14  18   14.93    3.86   1
 -12 -14  20    9.82    3.13   1
 -12 -14  22    6.43    2.54   1
 -12 -14  23    9.30    3.05   1
 -12 -14  24   10.57    3.25   1
 -12 -12 -23    3.11    1.76   1
 -12 -12 -20    2.10    1.45   1
 -12 -12 -17    1.68    1.29   1
 -12 -12 -12    9.68    3.11   1
 -12 -12 -11    5.70    2.39   1
 -12 -12 -10   12.82    3.58   1
 -12 -12  -8    8.46    2.91   1
 -12 -12  -7    7.43    2.72   1
 -12 -12  -5   11.85    3.44   1
 -12 -12  -4   46.76    6.84   1
 -12 -12  -3   31.00    5.57   1
 -12 -12  -1   14.51    3.81   1
 -12 -12   0    3.64    1.91   1
 -12 -12   1   16.09    4.01   1
 -12 -12   2   10.76    3.28   1
 -12 -12   3    2.06    1.43   1
 -12 -12   4   12.86    3.59   1
 -12 -12   5   47.51    6.89   1
 -12 -12   6   78.26    8.85   1
 -12 -12   7    6.22    2.49   1
 -12 -12   8   24.23    4.92   1
 -12 -12   9    8.76    2.96   1
 -12 -12  10   10.65    3.26   1
 -12 -12  11    5.18    2.27   1
 -12 -12  12    1.80    1.34   1
 -12 -12  13    3.20    1.79   1
 -12 -12  17    8.43    2.90   1
 -12 -12  18    4.09    2.02   1
 -12 -12  19    1.93    1.39   1
 -12 -12  24    6.71    2.59   1
 -12 -10 -24   14.14    3.76   1
 -12 -10 -20    3.23    1.80   1
 -12 -10 -18    2.55    1.60   1
 -12 -10 -14   15.90    3.99   1
 -12 -10 -12    5.74    2.40   1
 -12 -10 -10    7.05    2.65   1
 -12 -10  -9   17.44    4.18   1
 -12 -10  -8   11.35    3.37   1
 -12 -10  -6   15.26    3.91   1
 -12 -10  -5   12.07    3.47   1
 -12 -10  -4   15.01    3.87   1
 -12 -10  -3   26.20    5.12   1
 -12 -10  -2   17.30    4.16   1
 -12 -10  -1   45.26    6.73   1
 -12 -10   0   19.58    4.42   1
 -12 -10   1   15.00    3.87   1
 -12 -10   2   20.82    4.56   1
 -12 -10   4    6.60    2.57   1
 -12 -10   5   13.32    3.65   1
 -12 -10   7   25.05    5.00   1
 -12 -10   8   16.39    4.05   1
 -12 -10   9   24.64    4.96   1
 -12 -10  10    8.23    2.87   1
 -12 -10  12    9.15    3.02   1
 -12 -10  13    2.63    1.62   1
 -12 -10  14   11.44    3.38   1
 -12 -10  15   24.28    4.93   1
 -12 -10  16   31.42    5.61   1
 -12 -10  18    3.78    1.95   1
 -12 -10  19   17.50    4.18   1
 -12 -10  21   12.11    3.48   1
 -12 -10  23   17.89    4.23   1
 -12  -8 -24    9.25    3.04   1
 -12  -8 -22    3.61    1.90   1
 -12  -8 -19    5.14    2.27   1
 -12  -8 -17    5.40    2.32   1
 -12  -8 -16    8.18    2.86   1
 -12  -8 -15   11.27    3.36   1
 -12  -8 -13    5.51    2.35   1
 -12  -8 -12   13.35    3.65   1
 -12  -8 -11   15.76    3.97   1
 -12  -8  -9   20.65    4.54   1
 -12  -8  -8   13.31    3.65   1
 -12  -8  -6   15.68    3.96   1
 -12  -8  -5    2.77    1.66   1
 -12  -8  -4   37.50    6.12   1
 -12  -8  -2   37.76    6.15   1
 -12  -8  -1   54.49    7.38   1
 -12  -8   0   47.21    6.87   1
 -12  -8   1   46.58    6.82   1
 -12  -8   2   60.45    7.77   1
 -12  -8   3   25.73    5.07   1
 -12  -8   4    5.86    2.42   1
 -12  -8   5    9.30    3.05   1
 -12  -8   6   19.65    4.43   1
 -12  -8   7   22.18    4.71   1
 -12  -8   8    5.06    2.25   1
 -12  -8   9    6.97    2.64   1
 -12  -8  11   18.13    4.26   1
 -12  -8  14   13.54    3.68   1
 -12  -8  18   12.82    3.58   1
 -12  -8  19   13.69    3.70   1
 -12  -8  21    3.28    1.81   1
 -12  -8  22   24.45    4.94   1
 -12  -6 -24    4.69    2.17   1
 -12  -6 -20    7.80    2.79   1
 -12  -6 -19   11.55    3.40   1
 -12  -6 -16    1.59    1.26   1
 -12  -6 -15   14.48    3.80   1
 -12  -6 -13   14.81    3.85   1
 -12  -6 -12   35.14    5.93   1
 -12  -6 -11   39.75    6.31   1
 -12  -6 -10   23.90    4.89   1
 -12  -6  -9    7.88    2.81   1
 -12  -6  -8   17.29    4.16   1
 -12  -6  -7   11.69    3.42   1
 -12  -6  -6   49.61    7.04   1
 -12  -6  -5    9.09    3.01   1
 -12  -6  -4   39.04    6.25   1
 -12  -6  -3   36.75    6.06   1
 -12  -6  -2   20.92    4.57   1
 -12  -6  -1   20.72    4.55   1
 -12  -6   0   19.36    4.40   1
 -12  -6   1    6.15    2.48   1
 -12  -6   2    9.23    3.04   1
 -12  -6   3   33.66    5.80   1
 -12  -6   4   36.05    6.00   1
 -12  -6   5   50.03    7.07   1
 -12  -6   6   12.82    3.58   1
 -12  -6   7   31.21    5.59   1
 -12  -6   8   20.19    4.49   1
 -12  -6  10   17.10    4.14   1
 -12  -6  11   14.66    3.83   1
 -12  -6  12   10.09    3.18   1
 -12  -6  14    7.02    2.65   1
 -12  -6  15    7.84    2.80   1
 -12  -6  17    4.13    2.03   1
 -12  -6  21   14.85    3.85   1
 -12  -6  22   28.42    5.33   1
 -12  -4 -21    4.24    2.06   1
 -12  -4 -20    2.16    1.47   1
 -12  -4 -19   16.32    4.04   1
 -12  -4 -18    2.06    1.44   1
 -12  -4 -17    6.10    2.47   1
 -12  -4 -14   10.23    3.20   1
 -12  -4 -13   45.22    6.72   1
 -12  -4 -12   74.54    8.63   1
 -12  -4 -10   84.05    9.17   1
 -12  -4  -9    8.89    2.98   1
 -12  -4  -8   72.68    8.53   1
 -12  -4  -7   36.30    6.02   1
 -12  -4  -6   35.63    5.97   1
 -12  -4  -4   81.86    9.05   1
 -12  -4  -3   68.74    8.29   1
 -12  -4  -2   37.20    6.10   1
 -12  -4  -1   10.80    3.29   1
 -12  -4   0   20.29    4.50   1
 -12  -4   1   43.03    6.56   1
 -12  -4   3   21.15    4.60   1
 -12  -4   4   75.73    8.70   1
 -12  -4   5   53.99    7.35   1
 -12  -4   6   34.91    5.91   1
 -12  -4   7    5.67    2.38   1
 -12  -4   8    8.63    2.94   1
 -12  -4   9   34.27    5.85   1
 -12  -4  10   23.25    4.82   1
 -12  -4  11   47.75    6.91   1
 -12  -4  12    3.78    1.94   1
 -12  -4  13   52.24    7.23   1
 -12  -4  14   15.67    3.96   1
 -12  -4  15   23.65    4.86   1
 -12  -4  16    4.23    2.06   1
 -12  -4  17   14.52    3.81   1
 -12  -4  20   15.94    3.99   1
 -12  -4  21    7.95    2.82   1
 -12  -4  22   11.06    3.33   1
 -12  -2 -24    8.93    2.99   1
 -12  -2 -18    1.99    1.41   1
 -12  -2 -16    3.73    1.93   1
 -12  -2 -15   18.75    4.33   1
 -12  -2 -13    8.32    2.89   1
 -12  -2 -12    5.10    2.26   1
 -12  -2 -11    3.38    1.84   1
 -12  -2 -10   37.59    6.13   1
 -12  -2  -9   74.81    8.65   1
 -12  -2  -8   72.73    8.53   1
 -12  -2  -7   10.84    3.29   1
 -12  -2  -6    3.90    1.97   1
 -12  -2  -5   29.25    5.41   1
 -12  -2  -2   66.07    8.13   1
 -12  -2  -1   64.28    8.02   1
 -12  -2   0   51.92    7.21   1
 -12  -2   1   60.14    7.76   1
 -12  -2   2   39.60    6.29   1
 -12  -2   3   29.14    5.40   1
 -12  -2   4   12.75    3.57   1
 -12  -2   5   67.75    8.23   1
 -12  -2   6   12.15    3.49   1
 -12  -2   8    2.70    1.64   1
 -12  -2   9  161.32   12.70   1
 -12  -2  10   35.03    5.92   1
 -12  -2  11   20.55    4.53   1
 -12  -2  13    9.45    3.07   1
 -12  -2  14   28.62    5.35   1
 -12  -2  15    4.86    2.20   1
 -12  -2  16   22.95    4.79   1
 -12  -2  17   13.46    3.67   1
 -12  -2  18   13.91    3.73   1
 -12  -2  20   26.10    5.11   1
 -12  -2  22    6.56    2.56   1
 -12   0 -23    5.96    2.44   1
 -12   0 -22   12.90    3.59   1
 -12   0 -17    2.28    1.51   1
 -12   0 -15   82.95    9.11   1
 -12   0 -14   54.30    7.37   1
 -12   0 -11    7.35    2.71   1
 -12   0  -9   27.78    5.27   1
 -12   0  -8   44.70    6.69   1
 -12   0  -7   18.78    4.33   1
 -12   0  -6    7.61    2.76   1
 -12   0  -5    6.60    2.57   1
 -12   0  -4   18.19    4.26   1
 -12   0  -3    9.01    3.00   1
 -12   0  -2   97.34    9.87   1
 -12   0  -1  186.15   13.64   1
 -12   0   0  184.60   13.59   1
 -12   0   1  541.54   23.27   1
 -12   0   2  381.93   19.54   1
 -12   0   3   39.38    6.27   1
 -12   0   5    5.25    2.29   1
 -12   0   7   19.50    4.42   1
 -12   0   8   24.75    4.97   1
 -12   0   9   27.94    5.29   1
 -12   0  10   42.19    6.50   1
 -12   0  11    4.09    2.02   1
 -12   0  12   33.67    5.80   1
 -12   0  13    9.10    3.02   1
 -12   0  15   29.04    5.39   1
 -12   0  16   44.88    6.70   1
 -12   0  17   32.30    5.68   1
 -12   0  19    5.40    2.32   1
 -12   0  20   10.27    3.21   1
 -12   0  21   10.57    3.25   1
 -12   2 -23    4.44    2.11   1
 -12   2 -19    8.84    2.97   1
 -12   2 -16    9.41    3.07   1
 -12   2 -14   19.42    4.41   1
 -12   2 -12   13.43    3.66   1
 -12   2 -11   33.71    5.81   1
 -12   2 -10   39.53    6.29   1
 -12   2  -9   55.31    7.44   1
 -12   2  -8   86.16    9.28   1
 -12   2  -6   20.08    4.48   1
 -12   2  -5   19.05    4.36   1
 -12   2  -4   29.29    5.41   1
 -12   2  -3    9.00    3.00   1
 -12   2  -2   35.78    5.98   1
 -12   2  -1   19.20    4.38   1
 -12   2   0   21.60    4.65   1
 -12   2   1   54.75    7.40   1
 -12   2   2   48.12    6.94   1
 -12   2   3   42.08    6.49   1
 -12   2   4   26.28    5.13   1
 -12   2   5    8.25    2.87   1
 -12   2   7   33.00    5.74   1
 -12   2   8    4.31    2.08   1
 -12   2   9   54.38    7.37   1
 -12   2  10   73.89    8.60   1
 -12   2  11    7.88    2.81   1
 -12   2  12    6.29    2.51   1
 -12   2  13   14.02    3.74   1
 -12   2  15    4.01    2.00   1
 -12   2  17   12.19    3.49   1
 -12   2  20    9.24    3.04   1
 -12   2  21    6.22    2.49   1
 -12   2  23   12.49    3.53   1
 -12   4 -23    8.93    2.99   1
 -12   4 -22   11.66    3.42   1
 -12   4 -20    7.01    2.65   1
 -12   4 -18   10.65    3.26   1
 -12   4 -16    5.29    2.30   1
 -12   4 -15    9.99    3.16   1
 -12   4 -14   18.02    4.25   1
 -12   4 -12   22.71    4.77   1
 -12   4 -11   19.50    4.42   1
 -12   4 -10   83.32    9.13   1
 -12   4  -9   34.43    5.87   1
 -12   4  -8   51.29    7.16   1
 -12   4  -7   15.22    3.90   1
 -12   4  -6   12.94    3.60   1
 -12   4  -5   91.43    9.56   1
 -12   4  -4   23.25    4.82   1
 -12   4  -3   55.20    7.43   1
 -12   4  -2   33.19    5.76   1
 -12   4  -1   29.17    5.40   1
 -12   4   0   13.43    3.66   1
 -12   4   1   44.92    6.70   1
 -12   4   2   20.10    4.48   1
 -12   4   3   49.95    7.07   1
 -12   4   4   54.83    7.40   1
 -12   4   5   94.35    9.71   1
 -12   4   6   39.45    6.28   1
 -12   4   7   38.29    6.19   1
 -12   4   8    3.40    1.84   1
 -12   4   9   36.83    6.07   1
 -12   4  10   59.70    7.73   1
 -12   4  11    4.49    2.12   1
 -12   4  12   23.74    4.87   1
 -12   4  13   63.89    7.99   1
 -12   4  14   63.00    7.94   1
 -12   4  15    4.30    2.07   1
 -12   4  18   23.78    4.88   1
 -12   6 -22   17.96    4.24   1
 -12   6 -19   17.17    4.14   1
 -12   6 -18   17.37    4.17   1
 -12   6 -17   19.95    4.47   1
 -12   6 -12   18.30    4.28   1
 -12   6 -11   23.85    4.88   1
 -12   6 -10   37.72    6.14   1
 -12   6  -8   24.45    4.94   1
 -12   6  -7   20.33    4.51   1
 -12   6  -6   14.77    3.84   1
 -12   6  -5    9.40    3.07   1
 -12   6  -4   78.60    8.87   1
 -12   6  -3   49.76    7.05   1
 -12   6  -2   14.70    3.83   1
 -12   6  -1   47.24    6.87   1
 -12   6   0   22.94    4.79   1
 -12   6   1   20.69    4.55   1
 -12   6   3    8.55    2.92   1
 -12   6   4   35.89    5.99   1
 -12   6   5   95.21    9.76   1
 -12   6   6    4.67    2.16   1
 -12   6   7   45.45    6.74   1
 -12   6   8   43.81    6.62   1
 -12   6  10   29.63    5.44   1
 -12   6  12   24.69    4.97   1
 -12   6  13   18.90    4.35   1
 -12   6  14   37.80    6.15   1
 -12   6  15   10.76    3.28   1
 -12   6  16    6.96    2.64   1
 -12   6  20   21.26    4.61   1
 -12   6  22   18.13    4.26   1
 -12   8 -21    4.53    2.13   1
 -12   8 -20    5.32    2.31   1
 -12   8 -19   11.25    3.35   1
 -12   8 -17   16.88    4.11   1
 -12   8 -16    7.84    2.80   1
 -12   8 -15   21.03    4.59   1
 -12   8 -13   10.62    3.26   1
 -12   8 -12   23.85    4.88   1
 -12   8 -11    5.40    2.32   1
 -12   8 -10   16.60    4.07   1
 -12   8  -8   20.81    4.56   1
 -12   8  -7    7.70    2.77   1
 -12   8  -5   12.23    3.50   1
 -12   8  -4   13.76    3.71   1
 -12   8  -3    7.28    2.70   1
 -12   8  -2   13.63    3.69   1
 -12   8  -1   80.66    8.98   1
 -12   8   0   55.00    7.42   1
 -12   8   1   96.03    9.80   1
 -12   8   2   44.62    6.68   1
 -12   8   3   21.04    4.59   1
 -12   8   4    7.05    2.66   1
 -12   8   5   32.33    5.69   1
 -12   8   6    3.67    1.92   1
 -12   8  10   19.31    4.39   1
 -12   8  11   18.85    4.34   1
 -12   8  12    5.77    2.40   1
 -12   8  13   35.25    5.94   1
 -12   8  15    7.91    2.81   1
 -12   8  17   10.05    3.17   1
 -12   8  18   10.00    3.16   1
 -12   8  19    7.10    2.66   1
 -12   8  22   15.68    3.96   1
 -12  10 -21   11.67    3.42   1
 -12  10 -20    8.25    2.87   1
 -12  10 -18   12.75    3.57   1
 -12  10 -16   10.75    3.28   1
 -12  10 -14    9.39    3.06   1
 -12  10 -11    6.87    2.62   1
 -12  10 -10    8.59    2.93   1
 -12  10  -9   21.65    4.65   1
 -12  10  -8   21.45    4.63   1
 -12  10  -6    4.13    2.03   1
 -12  10  -4   15.82    3.98   1
 -12  10  -3   16.35    4.04   1
 -12  10  -2   13.16    3.63   1
 -12  10  -1   33.22    5.76   1
 -12  10   0   21.95    4.68   1
 -12  10   1   34.09    5.84   1
 -12  10   2   44.17    6.65   1
 -12  10   3   32.56    5.71   1
 -12  10   4   14.37    3.79   1
 -12  10   5   39.67    6.30   1
 -12  10   6   17.78    4.22   1
 -12  10   7   37.80    6.15   1
 -12  10   8   17.33    4.16   1
 -12  10   9   16.88    4.11   1
 -12  10  10   25.47    5.05   1
 -12  10  11   28.80    5.37   1
 -12  10  14   18.45    4.30   1
 -12  10  15    8.08    2.84   1
 -12  10  16   10.70    3.27   1
 -12  10  17    3.41    1.85   1
 -12  10  18    3.00    1.73   1
 -12  10  19   19.20    4.38   1
 -12  12 -21    4.65    2.16   1
 -12  12 -20    8.81    2.97   1
 -12  12 -18   26.33    5.13   1
 -12  12 -12   19.58    4.42   1
 -12  12 -11    8.90    2.98   1
 -12  12 -10   23.77    4.88   1
 -12  12  -7   20.17    4.49   1
 -12  12  -6    4.61    2.15   1
 -12  12  -5   62.78    7.92   1
 -12  12  -4   51.90    7.20   1
 -12  12  -3   28.46    5.34   1
 -12  12  -2   26.58    5.16   1
 -12  12  -1   18.08    4.25   1
 -12  12   1   21.98    4.69   1
 -12  12   2   23.35    4.83   1
 -12  12   3   20.64    4.54   1
 -12  12   4   11.80    3.44   1
 -12  12   5   34.01    5.83   1
 -12  12   6   42.53    6.52   1
 -12  12   7    5.40    2.32   1
 -12  12   8   29.57    5.44   1
 -12  12   9   20.70    4.55   1
 -12  12  10    3.13    1.77   1
 -12  12  12    2.59    1.61   1
 -12  12  13   25.80    5.08   1
 -12  12  14   16.65    4.08   1
 -12  12  16    2.50    1.58   1
 -12  12  18   18.99    4.36   1
 -12  14 -19   17.02    4.13   1
 -12  14 -15   16.13    4.02   1
 -12  14 -14   13.35    3.65   1
 -12  14 -12   12.93    3.60   1
 -12  14 -11   14.53    3.81   1
 -12  14 -10   14.21    3.77   1
 -12  14  -8   12.30    3.51   1
 -12  14  -7   40.76    6.38   1
 -12  14  -6   14.13    3.76   1
 -12  14  -5   23.85    4.88   1
 -12  14  -4   29.82    5.46   1
 -12  14  -3    9.22    3.04   1
 -12  14  -2   29.01    5.39   1
 -12  14  -1   13.40    3.66   1
 -12  14   0   24.90    4.99   1
 -12  14   1   22.24    4.72   1
 -12  14   2   30.71    5.54   1
 -12  14   3   20.82    4.56   1
 -12  14   4   29.51    5.43   1
 -12  14   5   14.75    3.84   1
 -12  14   6    8.89    2.98   1
 -12  14   7    5.10    2.26   1
 -12  14   9   15.11    3.89   1
 -12  14  10   13.16    3.63   1
 -12  14  11   12.20    3.49   1
 -12  14  12   41.40    6.43   1
 -12  14  13    7.39    2.72   1
 -12  14  14   22.80    4.77   1
 -12  14  16   12.60    3.55   1
 -12  14  17    6.84    2.62   1
 -12  14  19    1.90    1.38   1
 -12  16 -17    6.97    2.64   1
 -12  16 -14    5.43    2.33   1
 -12  16 -13    5.70    2.39   1
 -12  16 -12    5.44    2.33   1
 -12  16 -10   13.54    3.68   1
 -12  16  -8    8.51    2.92   1
 -12  16  -7   27.45    5.24   1
 -12  16  -6   20.14    4.49   1
 -12  16  -4    9.38    3.06   1
 -12  16  -3   27.95    5.29   1
 -12  16  -2   23.63    4.86   1
 -12  16  -1   20.67    4.55   1
 -12  16   0   55.53    7.45   1
 -12  16   1   60.75    7.79   1
 -12  16   2   42.17    6.49   1
 -12  16   3    8.40    2.90   1
 -12  16   4   21.60    4.65   1
 -12  16   5    7.53    2.74   1
 -12  16   6   22.83    4.78   1
 -12  16   7   12.05    3.47   1
 -12  16   8   36.97    6.08   1
 -12  16  12   23.33    4.83   1
 -12  16  13    4.27    2.07   1
 -12  16  16    2.17    1.47   1
 -12  16  17   22.05    4.70   1
 -12  18 -20   29.13    5.40   1
 -12  18 -19    6.22    2.49   1
 -12  18 -18    3.19    1.79   1
 -12  18 -17   12.40    3.52   1
 -12  18 -14   13.77    3.71   1
 -12  18 -13   12.68    3.56   1
 -12  18 -10    3.24    1.80   1
 -12  18  -9    5.66    2.38   1
 -12  18  -8   11.18    3.34   1
 -12  18  -7   15.38    3.92   1
 -12  18  -6    4.31    2.08   1
 -12  18  -3    9.94    3.15   1
 -12  18  -2    7.13    2.67   1
 -12  18  -1   26.55    5.15   1
 -12  18   0   12.00    3.46   1
 -12  18   1   27.79    5.27   1
 -12  18   2   10.73    3.27   1
 -12  18   3    3.50    1.87   1
 -12  18   4    5.89    2.43   1
 -12  18   5   15.49    3.94   1
 -12  18   6    8.89    2.98   1
 -12  18   9    6.20    2.49   1
 -12  18  10   12.26    3.50   1
 -12  18  11   39.30    6.27   1
 -12  18  15    3.76    1.94   1
 -12  18  16   26.02    5.10   1
 -12  18  18   23.58    4.86   1
 -12  20 -17   14.55    3.81   1
 -12  20 -14   14.14    3.76   1
 -12  20 -12    6.36    2.52   1
 -12  20 -11   12.98    3.60   1
 -12  20  -8    4.96    2.23   1
 -12  20  -7   12.72    3.57   1
 -12  20  -6   15.68    3.96   1
 -12  20  -5    7.65    2.77   1
 -12  20  -4   11.70    3.42   1
 -12  20  -3    7.99    2.83   1
 -12  20  -2    4.28    2.07   1
 -12  20  -1   20.33    4.51   1
 -12  20   0   34.64    5.89   1
 -12  20   1   17.06    4.13   1
 -12  20   2   14.17    3.76   1
 -12  20   3    7.72    2.78   1
 -12  20   4   13.13    3.62   1
 -12  20   5   18.60    4.31   1
 -12  20   6   22.76    4.77   1
 -12  20   7    8.70    2.95   1
 -12  20   8   12.27    3.50   1
 -12  20   9   12.00    3.46   1
 -12  20  10    5.20    2.28   1
 -12  20  12    5.89    2.43   1
 -12  20  13    9.92    3.15   1
 -12  20  14   21.36    4.62   1
 -12  20  16    8.82    2.97   1
 -12  20  17    3.75    1.94   1
 -12  20  19    5.54    2.35   1
 -12  22 -18    5.70    2.39   1
 -12  22 -16    4.03    2.01   1
 -12  22 -15   14.32    3.78   1
 -12  22 -13   17.40    4.17   1
 -12  22 -10   19.06    4.37   1
 -12  22  -9    8.63    2.94   1
 -12  22  -7    8.48    2.91   1
 -12  22  -6   21.49    4.64   1
 -12  22  -5    4.40    2.10   1
 -12  22  -4    7.30    2.70   1
 -12  22  -2    7.15    2.67   1
 -12  22  -1    9.45    3.07   1
 -12  22   0   28.27    5.32   1
 -12  22   1   24.38    4.94   1
 -12  22   2   24.45    4.94   1
 -12  22   3   39.00    6.24   1
 -12  22   4    4.02    2.00   1
 -12  22   6   10.35    3.22   1
 -12  22   8    1.59    1.26   1
 -12  22   9   12.09    3.48   1
 -12  22  10   17.76    4.21   1
 -12  22  11   12.63    3.55   1
 -12  22  12   25.15    5.02   1
 -12  22  13   15.07    3.88   1
 -12  22  15   10.91    3.30   1
 -12  22  18    8.55    2.92   1
 -12  24 -14    4.43    2.10   1
 -12  24 -13    5.22    2.29   1
 -12  24 -11   15.30    3.91   1
 -12  24  -9    3.90    1.97   1
 -12  24  -7    3.30    1.82   1
 -12  24  -6   11.18    3.34   1
 -12  24  -5   15.60    3.95   1
 -12  24  -4    4.24    2.06   1
 -12  24  -3    7.70    2.77   1
 -12  24  -2   11.25    3.35   1
 -12  24  -1    6.04    2.46   1
 -12  24   0   22.98    4.79   1
 -12  24   1   22.04    4.69   1
 -12  24   2   20.77    4.56   1
 -12  24   3    2.44    1.56   1
 -12  24   4    7.65    2.77   1
 -12  24   5   13.88    3.72   1
 -12  24   6    3.45    1.86   1
 -12  24  11    4.28    2.07   1
 -12  24  12    7.22    2.69   1
 -12  24  16   19.35    4.40   1
 -11 -23 -20    3.25    1.80   1
 -11 -23 -17    3.60    1.90   1
 -11 -23 -11   12.41    3.52   1
 -11 -23 -10    6.75    2.60   1
 -11 -23  -6    8.96    2.99   1
 -11 -23  -4   13.57    3.68   1
 -11 -23  -3    2.85    1.69   1
 -11 -23  -2    5.24    2.29   1
 -11 -23   1    7.80    2.79   1
 -11 -23   4    2.91    1.71   1
 -11 -23   5    2.50    1.58   1
 -11 -23   6   15.88    3.99   1
 -11 -23   7    9.23    3.04   1
 -11 -23   8    4.38    2.09   1
 -11 -23  13   15.29    3.91   1
 -11 -23  14    4.20    2.05   1
 -11 -23  15    9.27    3.04   1
 -11 -23  17    1.61    1.27   1
 -11 -21 -22   15.11    3.89   1
 -11 -21 -19   13.39    3.66   1
 -11 -21 -14    5.93    2.43   1
 -11 -21 -12   14.02    3.74   1
 -11 -21 -11    8.14    2.85   1
 -11 -21  -9    5.82    2.41   1
 -11 -21  -8    9.52    3.09   1
 -11 -21  -7    6.68    2.58   1
 -11 -21  -5    9.69    3.11   1
 -11 -21  -4   15.42    3.93   1
 -11 -21  -3    4.95    2.22   1
 -11 -21  -1    7.80    2.79   1
 -11 -21   0    2.10    1.45   1
 -11 -21   6    9.48    3.08   1
 -11 -21  10    7.20    2.68   1
 -11 -21  11    1.88    1.37   1
 -11 -21  13    3.97    1.99   1
 -11 -21  15   16.20    4.02   1
 -11 -21  21   14.10    3.75   1
 -11 -21  22    9.30    3.05   1
 -11 -19 -22    4.16    2.04   1
 -11 -19 -18    6.04    2.46   1
 -11 -19 -12   20.33    4.51   1
 -11 -19 -11   11.85    3.44   1
 -11 -19  -9    8.37    2.89   1
 -11 -19  -7   13.30    3.65   1
 -11 -19  -6   19.78    4.45   1
 -11 -19  -5   42.00    6.48   1
 -11 -19  -4    7.43    2.72   1
 -11 -19  -1   16.17    4.02   1
 -11 -19   0    1.80    1.34   1
 -11 -19   1   33.33    5.77   1
 -11 -19   3   12.52    3.54   1
 -11 -19   7    8.02    2.83   1
 -11 -19   8   10.13    3.18   1
 -11 -19  10    2.70    1.64   1
 -11 -19  11    2.58    1.60   1
 -11 -19  14   14.69    3.83   1
 -11 -19  15    7.72    2.78   1
 -11 -19  17    3.22    1.80   1
 -11 -19  18   13.09    3.62   1
 -11 -19  20    6.92    2.63   1
 -11 -17 -23   11.77    3.43   1
 -11 -17 -22    6.45    2.54   1
 -11 -17 -19    9.89    3.15   1
 -11 -17 -15    1.92    1.38   1
 -11 -17 -13   18.11    4.26   1
 -11 -17 -12    6.60    2.57   1
 -11 -17 -11    3.26    1.81   1
 -11 -17  -8   10.96    3.31   1
 -11 -17  -6    2.96    1.72   1
 -11 -17  -5   13.32    3.65   1
 -11 -17  -4    7.45    2.73   1
 -11 -17  -3    7.61    2.76   1
 -11 -17   2    5.20    2.28   1
 -11 -17   3   17.29    4.16   1
 -11 -17   4    7.13    2.67   1
 -11 -17   5    2.74    1.65   1
 -11 -17   6   14.05    3.75   1
 -11 -17   7   10.73    3.27   1
 -11 -17   8   29.35    5.42   1
 -11 -17  12    3.60    1.90   1
 -11 -17  15    6.96    2.64   1
 -11 -17  18    7.95    2.82   1
 -11 -17  23   12.23    3.50   1
 -11 -17  24    2.44    1.56   1
 -11 -15 -20   27.30    5.22   1
 -11 -15 -19   11.51    3.39   1
 -11 -15 -17   12.03    3.47   1
 -11 -15 -15   12.64    3.55   1
 -11 -15 -13    9.41    3.07   1
 -11 -15 -12   10.09    3.18   1
 -11 -15 -11    8.88    2.98   1
 -11 -15  -9    8.78    2.96   1
 -11 -15  -7    8.43    2.90   1
 -11 -15  -6   10.84    3.29   1
 -11 -15  -4   36.96    6.08   1
 -11 -15  -3   37.15    6.10   1
 -11 -15  -2   15.30    3.91   1
 -11 -15   1    5.78    2.40   1
 -11 -15   4   23.51    4.85   1
 -11 -15   5   73.50    8.57   1
 -11 -15   9   33.85    5.82   1
 -11 -15  10   24.12    4.91   1
 -11 -15  11   11.89    3.45   1
 -11 -15  12    6.86    2.62   1
 -11 -15  13   17.60    4.20   1
 -11 -15  14    5.52    2.35   1
 -11 -15  17    9.26    3.04   1
 -11 -15  20   11.26    3.36   1
 -11 -15  24    5.44    2.33   1
 -11 -13 -20   10.59    3.25   1
 -11 -13 -19    7.68    2.77   1
 -11 -13 -16    6.19    2.49   1
 -11 -13 -13   27.14    5.21   1
 -11 -13 -12    4.95    2.22   1
 -11 -13 -11   19.16    4.38   1
 -11 -13  -9   10.32    3.21   1
 -11 -13  -7   30.00    5.48   1
 -11 -13  -6   43.50    6.60   1
 -11 -13  -5   38.47    6.20   1
 -11 -13  -3   25.09    5.01   1
 -11 -13  -1   27.08    5.20   1
 -11 -13   1    7.50    2.74   1
 -11 -13   5   28.99    5.38   1
 -11 -13   6    3.41    1.85   1
 -11 -13   7   16.92    4.11   1
 -11 -13   8   34.14    5.84   1
 -11 -13   9   11.25    3.35   1
 -11 -13  13   17.02    4.13   1
 -11 -13  14   14.81    3.85   1
 -11 -13  21    6.25    2.50   1
 -11 -13  22    7.39    2.72   1
 -11 -13  23   37.05    6.09   1
 -11 -13  24    6.57    2.56   1
 -11 -11 -24   20.40    4.52   1
 -11 -11 -23    7.24    2.69   1
 -11 -11 -22    1.95    1.40   1
 -11 -11 -18    5.56    2.36   1
 -11 -11 -15    8.91    2.98   1
 -11 -11 -13    3.44    1.86   1
 -11 -11 -12    8.58    2.93   1
 -11 -11 -11   16.88    4.11   1
 -11 -11 -10   22.73    4.77   1
 -11 -11  -5   14.40    3.79   1
 -11 -11  -3    6.12    2.47   1
 -11 -11  -2    4.72    2.17   1
 -11 -11   0    8.63    2.94   1
 -11 -11   1   21.19    4.60   1
 -11 -11   2   11.56    3.40   1
 -11 -11   6    9.11    3.02   1
 -11 -11   7   14.50    3.81   1
 -11 -11   9    4.83    2.20   1
 -11 -11  11   28.54    5.34   1
 -11 -11  12    8.48    2.91   1
 -11 -11  13   20.70    4.55   1
 -11 -11  14    5.47    2.34   1
 -11 -11  15    5.66    2.38   1
 -11 -11  16    4.43    2.11   1
 -11 -11  18    3.00    1.73   1
 -11 -11  19   22.88    4.78   1
 -11 -11  22   10.76    3.28   1
 -11 -11  24    5.25    2.29   1
 -11  -9 -23    2.47    1.57   1
 -11  -9 -21    5.70    2.39   1
 -11  -9 -20    4.32    2.08   1
 -11  -9 -18    4.20    2.05   1
 -11  -9 -17    9.89    3.14   1
 -11  -9 -16   13.65    3.69   1
 -11  -9 -15   13.50    3.67   1
 -11  -9 -12   50.63    7.12   1
 -11  -9 -11    7.13    2.67   1
 -11  -9 -10   28.43    5.33   1
 -11  -9  -9    9.34    3.06   1
 -11  -9  -7   12.68    3.56   1
 -11  -9  -6    3.22    1.80   1
 -11  -9  -5   40.31    6.35   1
 -11  -9  -4   68.18    8.26   1
 -11  -9  -3  220.43   14.85   1
 -11  -9  -2   22.95    4.79   1
 -11  -9  -1   23.33    4.83   1
 -11  -9   0    4.50    2.12   1
 -11  -9   1   22.42    4.74   1
 -11  -9   2   14.29    3.78   1
 -11  -9   4  130.05   11.40   1
 -11  -9   5   74.85    8.65   1
 -11  -9   6   27.33    5.23   1
 -11  -9   7   32.33    5.69   1
 -11  -9   9   19.50    4.42   1
 -11  -9  10   10.20    3.19   1
 -11  -9  11   18.34    4.28   1
 -11  -9  12   45.91    6.78   1
 -11  -9  13   35.59    5.97   1
 -11  -9  14   42.11    6.49   1
 -11  -9  17   21.69    4.66   1
 -11  -9  18   25.79    5.08   1
 -11  -9  20    3.11    1.76   1
 -11  -9  24   10.81    3.29   1
 -11  -7 -24    4.99    2.23   1
 -11  -7 -20   12.86    3.59   1
 -11  -7 -15   12.16    3.49   1
 -11  -7 -14    8.10    2.85   1
 -11  -7 -13   16.47    4.06   1
 -11  -7 -12   15.02    3.87   1
 -11  -7 -11   23.01    4.80   1
 -11  -7 -10   11.63    3.41   1
 -11  -7  -9   12.75    3.57   1
 -11  -7  -8    8.09    2.84   1
 -11  -7  -7   24.15    4.91   1
 -11  -7  -6   17.29    4.16   1
 -11  -7  -5    9.66    3.11   1
 -11  -7  -4   21.99    4.69   1
 -11  -7  -3   22.97    4.79   1
 -11  -7  -2   23.17    4.81   1
 -11  -7  -1   29.14    5.40   1
 -11  -7   0    3.15    1.77   1
 -11  -7   1    7.35    2.71   1
 -11  -7   2   10.17    3.19   1
 -11  -7   3   10.01    3.16   1
 -11  -7   4   37.65    6.14   1
 -11  -7   5   22.42    4.74   1
 -11  -7   7    3.67    1.92   1
 -11  -7   8    4.56    2.14   1
 -11  -7  10    9.38    3.06   1
 -11  -7  12    5.85    2.42   1
 -11  -7  14   10.80    3.29   1
 -11  -7  17   26.17    5.12   1
 -11  -7  18    9.42    3.07   1
 -11  -7  22    2.75    1.66   1
 -11  -5 -21    1.80    1.34   1
 -11  -5 -19   13.11    3.62   1
 -11  -5 -18    8.85    2.97   1
 -11  -5 -17    6.71    2.59   1
 -11  -5 -16   19.32    4.40   1
 -11  -5 -15   23.15    4.81   1
 -11  -5 -12    7.17    2.68   1
 -11  -5 -11  114.82   10.72   1
 -11  -5 -10   63.53    7.97   1
 -11  -5  -9    3.08    1.75   1
 -11  -5  -8   42.87    6.55   1
 -11  -5  -6   17.92    4.23   1
 -11  -5  -5   47.17    6.87   1
 -11  -5  -4   23.85    4.88   1
 -11  -5  -3   39.22    6.26   1
 -11  -5  -2   40.40    6.36   1
 -11  -5  -1   10.05    3.17   1
 -11  -5   1   32.85    5.73   1
 -11  -5   2   47.85    6.92   1
 -11  -5   3   16.46    4.06   1
 -11  -5   4    6.64    2.58   1
 -11  -5   5    7.83    2.80   1
 -11  -5   6   63.45    7.97   1
 -11  -5   7   34.28    5.85   1
 -11  -5   8   11.29    3.36   1
 -11  -5   9   28.53    5.34   1
 -11  -5  10   13.65    3.69   1
 -11  -5  11   17.17    4.14   1
 -11  -5  12   94.70    9.73   1
 -11  -5  13   24.24    4.92   1
 -11  -5  15   36.97    6.08   1
 -11  -5  16    1.58    1.25   1
 -11  -5  17    8.18    2.86   1
 -11  -5  18    2.10    1.45   1
 -11  -5  23    3.75    1.94   1
 -11  -3 -24    9.68    3.11   1
 -11  -3 -23    7.95    2.82   1
 -11  -3 -18   16.32    4.04   1
 -11  -3 -17    7.05    2.66   1
 -11  -3 -15    5.67    2.38   1
 -11  -3 -14   12.70    3.56   1
 -11  -3 -13  198.00   14.07   1
 -11  -3 -12   45.53    6.75   1
 -11  -3 -11  121.04   11.00   1
 -11  -3 -10   33.01    5.75   1
 -11  -3  -9   30.30    5.50   1
 -11  -3  -8   12.71    3.57   1
 -11  -3  -7   34.05    5.84   1
 -11  -3  -6    4.46    2.11   1
 -11  -3  -5   13.02    3.61   1
 -11  -3  -4  121.76   11.03   1
 -11  -3  -3  222.07   14.90   1
 -11  -3  -2   15.13    3.89   1
 -11  -3  -1   26.02    5.10   1
 -11  -3   0   16.41    4.05   1
 -11  -3   1   41.11    6.41   1
 -11  -3   2    8.26    2.87   1
 -11  -3   3   82.43    9.08   1
 -11  -3   4  118.45   10.88   1
 -11  -3   5   57.65    7.59   1
 -11  -3   6   44.47    6.67   1
 -11  -3   7    6.26    2.50   1
 -11  -3   8   12.00    3.46   1
 -11  -3  10   23.33    4.83   1
 -11  -3  11   31.95    5.65   1
 -11  -3  12   68.85    8.30   1
 -11  -3  13   35.40    5.95   1
 -11  -3  14   55.54    7.45   1
 -11  -3  15    9.30    3.05   1
 -11  -3  17   21.67    4.66   1
 -11  -3  19   24.15    4.91   1
 -11  -3  20   39.90    6.32   1
 -11  -3  21    1.86    1.36   1
 -11  -3  22    1.94    1.39   1
 -11  -3  23   13.35    3.65   1
 -11  -1 -23    8.29    2.88   1
 -11  -1 -22   13.57    3.68   1
 -11  -1 -21    7.39    2.72   1
 -11  -1 -16    8.55    2.92   1
 -11  -1 -14   26.81    5.18   1
 -11  -1 -12   18.60    4.31   1
 -11  -1 -11   20.97    4.58   1
 -11  -1 -10   14.16    3.76   1
 -11  -1  -9    3.71    1.93   1
 -11  -1  -8   25.76    5.08   1
 -11  -1  -7   12.78    3.58   1
 -11  -1  -6   28.32    5.32   1
 -11  -1  -5   31.59    5.62   1
 -11  -1  -4    5.21    2.28   1
 -11  -1  -3   18.62    4.32   1
 -11  -1  -2   34.43    5.87   1
 -11  -1  -1   35.85    5.99   1
 -11  -1   1   12.58    3.55   1
 -11  -1   3   21.15    4.60   1
 -11  -1   4    7.16    2.68   1
 -11  -1   5   15.30    3.91   1
 -11  -1   6   37.01    6.08   1
 -11  -1   7   36.45    6.04   1
 -11  -1   8   39.00    6.24   1
 -11  -1   9   38.55    6.21   1
 -11  -1  11   12.00    3.46   1
 -11  -1  12    4.23    2.06   1
 -11  -1  13   32.04    5.66   1
 -11  -1  15   15.51    3.94   1
 -11  -1  16   15.07    3.88   1
 -11  -1  18   18.08    4.25   1
 -11  -1  21    3.00    1.73   1
 -11  -1  22    3.94    1.98   1
 -11   1 -21   21.60    4.65   1
 -11   1 -19   10.50    3.24   1
 -11   1 -17   10.90    3.30   1
 -11   1 -16    2.10    1.45   1
 -11   1 -15   20.06    4.48   1
 -11   1 -14   25.35    5.03   1
 -11   1 -13   17.15    4.14   1
 -11   1 -12   41.63    6.45   1
 -11   1 -11   36.22    6.02   1
 -11   1 -10   33.15    5.76   1
 -11   1  -9   18.75    4.33   1
 -11   1  -8  100.91   10.05   1
 -11   1  -7   27.25    5.22   1
 -11   1  -6   29.01    5.39   1
 -11   1  -3   28.26    5.32   1
 -11   1  -2   13.05    3.61   1
 -11   1   1   17.07    4.13   1
 -11   1   2   12.90    3.59   1
 -11   1   3   11.35    3.37   1
 -11   1   5   24.54    4.95   1
 -11   1   6   34.68    5.89   1
 -11   1   7   38.40    6.20   1
 -11   1   8  111.50   10.56   1
 -11   1   9    3.83    1.96   1
 -11   1  10   14.48    3.80   1
 -11   1  11   41.85    6.47   1
 -11   1  12   45.71    6.76   1
 -11   1  13    1.54    1.24   1
 -11   1  18   28.57    5.34   1
 -11   1  19    4.28    2.07   1
 -11   1  21    5.05    2.25   1
 -11   3 -19   23.92    4.89   1
 -11   3 -18    3.15    1.77   1
 -11   3 -15   12.05    3.47   1
 -11   3 -14   60.54    7.78   1
 -11   3 -13   95.74    9.78   1
 -11   3 -12  114.60   10.71   1
 -11   3 -11   50.17    7.08   1
 -11   3 -10   33.53    5.79   1
 -11   3  -9    9.64    3.10   1
 -11   3  -8    9.93    3.15   1
 -11   3  -7    6.30    2.51   1
 -11   3  -6   30.67    5.54   1
 -11   3  -5   73.80    8.59   1
 -11   3  -4  278.02   16.67   1
 -11   3  -3  128.55   11.34   1
 -11   3  -1   31.05    5.57   1
 -11   3   0   16.31    4.04   1
 -11   3   1   38.96    6.24   1
 -11   3   2   27.37    5.23   1
 -11   3   3   95.93    9.79   1
 -11   3   4  212.88   14.59   1
 -11   3   5   72.30    8.50   1
 -11   3   6   42.08    6.49   1
 -11   3   7   32.03    5.66   1
 -11   3   8   10.34    3.22   1
 -11   3   9   12.38    3.52   1
 -11   3  10   26.33    5.13   1
 -11   3  12  104.78   10.24   1
 -11   3  13   19.22    4.38   1
 -11   3  14   46.46    6.82   1
 -11   3  15   23.57    4.85   1
 -11   3  16    2.23    1.49   1
 -11   3  17    1.88    1.37   1
 -11   3  18   28.08    5.30   1
 -11   3  20    2.10    1.45   1
 -11   3  21    2.36    1.54   1
 -11   5 -20    5.35    2.31   1
 -11   5 -17   11.10    3.33   1
 -11   5 -16   10.84    3.29   1
 -11   5 -15   29.92    5.47   1
 -11   5 -13   13.57    3.68   1
 -11   5 -12   61.76    7.86   1
 -11   5 -11   21.23    4.61   1
 -11   5 -10   16.75    4.09   1
 -11   5  -9   15.30    3.91   1
 -11   5  -8   25.55    5.05   1
 -11   5  -6   38.03    6.17   1
 -11   5  -5   22.77    4.77   1
 -11   5  -4   36.83    6.07   1
 -11   5  -3   51.53    7.18   1
 -11   5  -2   48.45    6.96   1
 -11   5  -1   20.63    4.54   1
 -11   5   0   22.06    4.70   1
 -11   5   1   23.92    4.89   1
 -11   5   2   11.21    3.35   1
 -11   5   3    7.57    2.75   1
 -11   5   4   34.58    5.88   1
 -11   5   5    7.08    2.66   1
 -11   5   6   36.97    6.08   1
 -11   5   7   34.23    5.85   1
 -11   5   8   18.71    4.33   1
 -11   5   9   34.54    5.88   1
 -11   5  11   17.29    4.16   1
 -11   5  12   57.56    7.59   1
 -11   5  13   26.48    5.15   1
 -11   5  14    3.75    1.94   1
 -11   5  15   31.25    5.59   1
 -11   5  16   32.95    5.74   1
 -11   5  17   11.16    3.34   1
 -11   5  18    6.97    2.64   1
 -11   5  19   10.45    3.23   1
 -11   5  20   10.27    3.21   1
 -11   7 -19    4.25    2.06   1
 -11   7 -16   20.52    4.53   1
 -11   7 -13    4.25    2.06   1
 -11   7 -12   34.24    5.85   1
 -11   7 -11    2.06    1.44   1
 -11   7 -10   11.93    3.45   1
 -11   7  -9   13.57    3.68   1
 -11   7  -8   19.54    4.42   1
 -11   7  -7   12.00    3.46   1
 -11   7  -6    7.43    2.72   1
 -11   7  -5   31.20    5.59   1
 -11   7  -4   24.58    4.96   1
 -11   7  -3   35.60    5.97   1
 -11   7  -2   36.27    6.02   1
 -11   7  -1   42.83    6.54   1
 -11   7   0   29.49    5.43   1
 -11   7   1   45.00    6.71   1
 -11   7   2   41.17    6.42   1
 -11   7   4   19.80    4.45   1
 -11   7   5   29.48    5.43   1
 -11   7   6   21.15    4.60   1
 -11   7   7   14.21    3.77   1
 -11   7   8   17.26    4.15   1
 -11   7  10   15.68    3.96   1
 -11   7  11   40.95    6.40   1
 -11   7  12    6.07    2.46   1
 -11   7  13   15.65    3.96   1
 -11   7  14   21.56    4.64   1
 -11   7  15   15.73    3.97   1
 -11   7  16   32.36    5.69   1
 -11   7  17   46.16    6.79   1
 -11   7  20    3.64    1.91   1
 -11   9 -19    2.88    1.70   1
 -11   9 -14   32.47    5.70   1
 -11   9 -13   24.46    4.95   1
 -11   9 -12   67.05    8.19   1
 -11   9 -11   23.15    4.81   1
 -11   9 -10    9.40    3.07   1
 -11   9  -9   44.10    6.64   1
 -11   9  -8    3.89    1.97   1
 -11   9  -7   11.38    3.37   1
 -11   9  -6   47.33    6.88   1
 -11   9  -5   57.08    7.55   1
 -11   9  -4  114.75   10.71   1
 -11   9  -3   42.40    6.51   1
 -11   9  -2   19.42    4.41   1
 -11   9   0   22.88    4.78   1
 -11   9   1   29.18    5.40   1
 -11   9   2   33.07    5.75   1
 -11   9   3   33.00    5.74   1
 -11   9   4   47.55    6.90   1
 -11   9   5   63.90    7.99   1
 -11   9   6   60.55    7.78   1
 -11   9   7   28.95    5.38   1
 -11   9   9   33.45    5.78   1
 -11   9  10   26.25    5.12   1
 -11   9  11   10.31    3.21   1
 -11   9  12   40.15    6.34   1
 -11   9  13   15.71    3.96   1
 -11   9  14   33.30    5.77   1
 -11   9  15    2.46    1.57   1
 -11   9  18   22.95    4.79   1
 -11  11 -19    7.54    2.75   1
 -11  11 -17   14.88    3.86   1
 -11  11 -16    9.98    3.16   1
 -11  11 -15    9.11    3.02   1
 -11  11 -14   21.44    4.63   1
 -11  11 -12   12.96    3.60   1
 -11  11 -10    9.71    3.12   1
 -11  11  -9   10.40    3.22   1
 -11  11  -7   18.75    4.33   1
 -11  11  -6   58.42    7.64   1
 -11  11  -3   15.72    3.96   1
 -11  11  -2   24.64    4.96   1
 -11  11  -1   27.51    5.24   1
 -11  11   0   15.86    3.98   1
 -11  11   1    3.60    1.90   1
 -11  11   2   26.40    5.14   1
 -11  11   3    7.46    2.73   1
 -11  11   4   21.38    4.62   1
 -11  11   5    5.63    2.37   1
 -11  11   6   16.71    4.09   1
 -11  11   7   23.95    4.89   1
 -11  11   8   23.71    4.87   1
 -11  11   9    1.61    1.27   1
 -11  11  11   26.06    5.10   1
 -11  11  13    7.28    2.70   1
 -11  11  16    6.53    2.55   1
 -11  11  17   24.42    4.94   1
 -11  11  19    2.34    1.53   1
 -11  13 -19   11.80    3.43   1
 -11  13 -18   10.31    3.21   1
 -11  13 -14    6.49    2.55   1
 -11  13 -11   39.72    6.30   1
 -11  13 -10    3.94    1.98   1
 -11  13  -9    9.30    3.05   1
 -11  13  -8   30.47    5.52   1
 -11  13  -7   26.14    5.11   1
 -11  13  -6   39.30    6.27   1
 -11  13  -5   36.67    6.06   1
 -11  13  -3    5.83    2.41   1
 -11  13  -2   14.29    3.78   1
 -11  13  -1   24.11    4.91   1
 -11  13   0   26.17    5.12   1
 -11  13   1   32.10    5.67   1
 -11  13   2    6.22    2.49   1
 -11  13   3   21.45    4.63   1
 -11  13   4    3.40    1.84   1
 -11  13   6   10.27    3.21   1
 -11  13   7   47.36    6.88   1
 -11  13   8    7.90    2.81   1
 -11  13   9   31.31    5.60   1
 -11  13  10   21.83    4.67   1
 -11  13  11   24.15    4.91   1
 -11  13  12   21.63    4.65   1
 -11  13  15    4.80    2.19   1
 -11  13  16   11.40    3.38   1
 -11  13  17   13.16    3.63   1
 -11  13  18    6.97    2.64   1
 -11  15 -19    8.32    2.89   1
 -11  15 -18    9.25    3.04   1
 -11  15 -12   18.30    4.28   1
 -11  15 -10    7.38    2.72   1
 -11  15  -8   10.43    3.23   1
 -11  15  -7   34.69    5.89   1
 -11  15  -5   46.84    6.84   1
 -11  15  -4   72.41    8.51   1
 -11  15  -3   54.73    7.40   1
 -11  15  -2   10.33    3.21   1
 -11  15   0   25.20    5.02   1
 -11  15   1   22.27    4.72   1
 -11  15   2   24.41    4.94   1
 -11  15   3    7.29    2.70   1
 -11  15   4   39.11    6.25   1
 -11  15   5   69.22    8.32   1
 -11  15   6   36.15    6.01   1
 -11  15   7   13.50    3.67   1
 -11  15   8   15.49    3.94   1
 -11  15   9   21.49    4.64   1
 -11  15  10    9.90    3.15   1
 -11  15  12   24.49    4.95   1
 -11  15  13   12.98    3.60   1
 -11  15  14   20.96    4.58   1
 -11  15  18   19.20    4.38   1
 -11  17 -17    9.12    3.02   1
 -11  17 -16    2.41    1.55   1
 -11  17 -15   15.14    3.89   1
 -11  17 -14   12.97    3.60   1
 -11  17 -12   11.13    3.34   1
 -11  17 -11    7.87    2.81   1
 -11  17 -10   19.42    4.41   1
 -11  17  -9   23.31    4.83   1
 -11  17  -8   18.23    4.27   1
 -11  17  -5    6.72    2.59   1
 -11  17  -4   19.24    4.39   1
 -11  17  -3    8.44    2.90   1
 -11  17  -2   11.92    3.45   1
 -11  17  -1    5.51    2.35   1
 -11  17   0    9.79    3.13   1
 -11  17   1    6.35    2.52   1
 -11  17   3   13.13    3.62   1
 -11  17   4   15.60    3.95   1
 -11  17   5    4.05    2.01   1
 -11  17   6   12.11    3.48   1
 -11  17   7   12.58    3.55   1
 -11  17   8   17.17    4.14   1
 -11  17   9   11.91    3.45   1
 -11  17  10   17.02    4.13   1
 -11  17  14   21.83    4.67   1
 -11  17  15    5.70    2.39   1
 -11  19 -13    7.95    2.82   1
 -11  19  -9   11.36    3.37   1
 -11  19  -8   15.38    3.92   1
 -11  19  -7   19.76    4.45   1
 -11  19  -6   13.60    3.69   1
 -11  19  -5   44.10    6.64   1
 -11  19  -4   20.50    4.53   1
 -11  19  -3   14.03    3.75   1
 -11  19  -1    9.23    3.04   1
 -11  19   0    2.63    1.62   1
 -11  19   1   14.82    3.85   1
 -11  19   3   18.30    4.28   1
 -11  19   4    9.90    3.15   1
 -11  19   5    3.86    1.97   1
 -11  19   6    8.02    2.83   1
 -11  19   7    4.72    2.17   1
 -11  19   8   23.92    4.89   1
 -11  19   9   15.79    3.97   1
 -11  19  11   14.60    3.82   1
 -11  19  12    1.69    1.30   1
 -11  19  14    9.79    3.13   1
 -11  19  15    5.63    2.37   1
 -11  19  16    4.54    2.13   1
 -11  21 -17    4.83    2.20   1
 -11  21 -15    4.29    2.07   1
 -11  21 -14    4.26    2.06   1
 -11  21 -11    6.60    2.57   1
 -11  21 -10    3.67    1.92   1
 -11  21  -9   11.94    3.46   1
 -11  21  -7    7.09    2.66   1
 -11  21  -6   11.25    3.35   1
 -11  21  -3   13.20    3.63   1
 -11  21  -2    5.25    2.29   1
 -11  21  -1    8.60    2.93   1
 -11  21   1   12.90    3.59   1
 -11  21   2    3.40    1.84   1
 -11  21   3   12.93    3.60   1
 -11  21   4    8.74    2.96   1
 -11  21   5   20.78    4.56   1
 -11  21   6   11.45    3.38   1
 -11  21   7   13.02    3.61   1
 -11  21   8   14.48    3.80   1
 -11  21   9   12.37    3.52   1
 -11  21  11    6.45    2.54   1
 -11  21  12    6.27    2.50   1
 -11  23 -15    9.11    3.02   1
 -11  23 -13    1.91    1.38   1
 -11  23 -12    2.03    1.42   1
 -11  23 -11   16.25    4.03   1
 -11  23 -10   17.13    4.14   1
 -11  23  -9    3.30    1.82   1
 -11  23  -8    7.12    2.67   1
 -11  23  -7    2.29    1.51   1
 -11  23  -6   13.15    3.63   1
 -11  23  -4   13.86    3.72   1
 -11  23  -3    8.85    2.97   1
 -11  23  -2   19.70    4.44   1
 -11  23  -1   18.99    4.36   1
 -11  23   0   15.71    3.96   1
 -11  23   1   18.67    4.32   1
 -11  23   3   15.39    3.92   1
 -11  23   4    7.83    2.80   1
 -11  23   6    5.70    2.39   1
 -11  23   7    6.01    2.45   1
 -11  23   8    3.38    1.84   1
 -11  23   9    3.00    1.73   1
 -11  23  10   20.33    4.51   1
 -11  23  11    3.11    1.76   1
 -11  23  12    7.65    2.77   1
 -11  23  13    8.59    2.93   1
 -11  23  14    3.67    1.92   1
 -11  23  15    6.23    2.50   1
 -11  23  16   10.27    3.21   1
 -10 -24 -18   10.16    3.19   1
 -10 -24 -17    6.94    2.63   1
 -10 -24 -16   16.24    4.03   1
 -10 -24 -13   15.19    3.90   1
 -10 -24 -12    2.63    1.62   1
 -10 -24  -8    9.41    3.07   1
 -10 -24  -6    1.73    1.31   1
 -10 -24  -4   14.84    3.85   1
 -10 -24  -3    6.45    2.54   1
 -10 -24  -1   24.19    4.92   1
 -10 -24   0   21.52    4.64   1
 -10 -24   1   27.86    5.28   1
 -10 -24   2   12.15    3.49   1
 -10 -24   3    4.12    2.03   1
 -10 -24   7    9.68    3.11   1
 -10 -24   9   19.77    4.45   1
 -10 -24  11   14.76    3.84   1
 -10 -24  13   10.20    3.19   1
 -10 -24  14    3.86    1.97   1
 -10 -24  15    6.85    2.62   1
 -10 -24  19    3.64    1.91   1
 -10 -22 -22    3.44    1.86   1
 -10 -22 -19    7.28    2.70   1
 -10 -22 -18   10.99    3.31   1
 -10 -22 -17   11.70    3.42   1
 -10 -22 -16    6.82    2.61   1
 -10 -22 -15    6.14    2.48   1
 -10 -22 -13    6.15    2.48   1
 -10 -22 -12    7.65    2.77   1
 -10 -22 -10   15.52    3.94   1
 -10 -22  -9   10.65    3.26   1
 -10 -22  -6    3.15    1.77   1
 -10 -22  -5    2.17    1.47   1
 -10 -22  -4    4.04    2.01   1
 -10 -22  -3    2.95    1.72   1
 -10 -22  -2   14.44    3.80   1
 -10 -22  -1   10.54    3.25   1
 -10 -22   0    4.88    2.21   1
 -10 -22   1    8.30    2.88   1
 -10 -22   2   18.03    4.25   1
 -10 -22   3   20.17    4.49   1
 -10 -22   6   10.99    3.31   1
 -10 -22  10    3.08    1.76   1
 -10 -22  11   11.48    3.39   1
 -10 -22  12   19.50    4.42   1
 -10 -22  14    6.53    2.55   1
 -10 -22  15    1.70    1.30   1
 -10 -22  22    2.10    1.45   1
 -10 -22  23    2.25    1.50   1
 -10 -20 -24    4.75    2.18   1
 -10 -20 -18    8.76    2.96   1
 -10 -20 -17    6.22    2.49   1
 -10 -20 -14    5.55    2.36   1
 -10 -20 -12   17.74    4.21   1
 -10 -20  -8    3.41    1.85   1
 -10 -20  -7    4.50    2.12   1
 -10 -20  -6   11.81    3.44   1
 -10 -20  -5    2.65    1.63   1
 -10 -20  -4    1.95    1.40   1
 -10 -20  -2    3.38    1.84   1
 -10 -20  -1   15.09    3.88   1
 -10 -20   1   40.16    6.34   1
 -10 -20   2    5.83    2.42   1
 -10 -20   4    3.71    1.93   1
 -10 -20   7    1.97    1.40   1
 -10 -20  15   11.85    3.44   1
 -10 -20  18    5.47    2.34   1
 -10 -20  20    4.54    2.13   1
 -10 -20  21    2.51    1.58   1
 -10 -20  22   20.48    4.53   1
 -10 -20  23    7.26    2.69   1
 -10 -18 -23    1.60    1.26   1
 -10 -18 -22   10.32    3.21   1
 -10 -18 -21    2.63    1.62   1
 -10 -18 -20   26.33    5.13   1
 -10 -18 -19    9.56    3.09   1
 -10 -18 -18    3.08    1.75   1
 -10 -18 -17   12.60    3.55   1
 -10 -18 -14    4.33    2.08   1
 -10 -18 -11   14.25    3.77   1
 -10 -18 -10   13.37    3.66   1
 -10 -18  -9   14.25    3.77   1
 -10 -18  -7   24.97    5.00   1
 -10 -18  -6   16.28    4.03   1
 -10 -18  -5   10.57    3.25   1
 -10 -18  -4   18.55    4.31   1
 -10 -18  -3   23.16    4.81   1
 -10 -18  -2    9.60    3.10   1
 -10 -18  -1    7.83    2.80   1
 -10 -18   0    1.83    1.35   1
 -10 -18   2   19.65    4.43   1
 -10 -18   3   14.08    3.75   1
 -10 -18   5   13.43    3.66   1
 -10 -18   6    5.66    2.38   1
 -10 -18   7    4.38    2.09   1
 -10 -18   8   14.10    3.76   1
 -10 -18   9   19.16    4.38   1
 -10 -18  10    9.90    3.15   1
 -10 -18  15   15.52    3.94   1
 -10 -18  17    4.99    2.23   1
 -10 -18  20   26.77    5.17   1
 -10 -18  23    4.63    2.15   1
 -10 -16 -20   24.39    4.94   1
 -10 -16 -19   18.75    4.33   1
 -10 -16 -16   16.13    4.02   1
 -10 -16 -15    1.88    1.37   1
 -10 -16 -14   19.95    4.47   1
 -10 -16 -13    2.69    1.64   1
 -10 -16 -10   12.38    3.52   1
 -10 -16  -8   90.73    9.53   1
 -10 -16  -7   49.88    7.06   1
 -10 -16  -6   13.57    3.68   1
 -10 -16  -5    5.25    2.29   1
 -10 -16  -3   23.77    4.88   1
 -10 -16  -2   22.54    4.75   1
 -10 -16  -1   29.28    5.41   1
 -10 -16   0   35.78    5.98   1
 -10 -16   1   51.37    7.17   1
 -10 -16   2   15.75    3.97   1
 -10 -16   3    6.51    2.55   1
 -10 -16   4    4.95    2.22   1
 -10 -16   5   42.52    6.52   1
 -10 -16   6    2.63    1.62   1
 -10 -16   7   12.78    3.58   1
 -10 -16   8   31.31    5.60   1
 -10 -16   9  108.49   10.42   1
 -10 -16  10    8.48    2.91   1
 -10 -16  13   18.74    4.33   1
 -10 -16  14    8.93    2.99   1
 -10 -16  16    4.72    2.17   1
 -10 -16  17   17.04    4.13   1
 -10 -16  18   15.80    3.97   1
 -10 -14 -24    1.91    1.38   1
 -10 -14 -21   11.50    3.39   1
 -10 -14 -11   22.35    4.73   1
 -10 -14  -9   23.82    4.88   1
 -10 -14  -8    7.65    2.77   1
 -10 -14  -7    1.95    1.40   1
 -10 -14  -6   20.40    4.52   1
 -10 -14  -5   34.07    5.84   1
 -10 -14  -4   14.74    3.84   1
 -10 -14  -2   36.18    6.02   1
 -10 -14  -1   39.53    6.29   1
 -10 -14   0   31.49    5.61   1
 -10 -14   1   45.81    6.77   1
 -10 -14   2   23.33    4.83   1
 -10 -14   3   19.08    4.37   1
 -10 -14   4    3.38    1.84   1
 -10 -14   5    4.72    2.17   1
 -10 -14   6   13.61    3.69   1
 -10 -14   7   14.10    3.75   1
 -10 -14   8   14.48    3.80   1
 -10 -14  10    8.43    2.90   1
 -10 -14  11   43.95    6.63   1
 -10 -14  12    2.42    1.55   1
 -10 -14  14   12.82    3.58   1
 -10 -14  15    5.83    2.42   1
 -10 -14  17   14.96    3.87   1
 -10 -14  18   11.07    3.33   1
 -10 -14  19    7.88    2.81   1
 -10 -14  21    1.60    1.26   1
 -10 -12 -22   15.67    3.96   1
 -10 -12 -21   19.76    4.45   1
 -10 -12 -14    6.84    2.62   1
 -10 -12 -10   33.22    5.76   1
 -10 -12  -9   36.45    6.04   1
 -10 -12  -8   18.83    4.34   1
 -10 -12  -6   13.50    3.67   1
 -10 -12  -5   11.51    3.39   1
 -10 -12  -4    6.07    2.46   1
 -10 -12  -3   88.99    9.43   1
 -10 -12  -2  121.13   11.01   1
 -10 -12  -1   59.51    7.71   1
 -10 -12   0   24.03    4.90   1
 -10 -12   1    8.28    2.88   1
 -10 -12   2   17.56    4.19   1
 -10 -12   3    6.11    2.47   1
 -10 -12   4   21.34    4.62   1
 -10 -12   5   11.83    3.44   1
 -10 -12   6    6.60    2.57   1
 -10 -12   8   25.50    5.05   1
 -10 -12   9   14.51    3.81   1
 -10 -12  13   11.25    3.35   1
 -10 -12  15   10.25    3.20   1
 -10 -12  19    3.30    1.82   1
 -10 -12  20    7.80    2.79   1
 -10 -12  22    4.13    2.03   1
 -10 -10 -20    7.57    2.75   1
 -10 -10 -19   14.93    3.86   1
 -10 -10 -12   24.96    5.00   1
 -10 -10 -11  104.87   10.24   1
 -10 -10  -9  101.68   10.08   1
 -10 -10  -8   41.40    6.43   1
 -10 -10  -7   65.15    8.07   1
 -10 -10  -6    3.53    1.88   1
 -10 -10  -5   54.30    7.37   1
 -10 -10  -3   19.87    4.46   1
 -10 -10  -2   28.20    5.31   1
 -10 -10  -1    7.75    2.78   1
 -10 -10   0    9.45    3.07   1
 -10 -10   2   19.09    4.37   1
 -10 -10   3    8.59    2.93   1
 -10 -10   4   17.91    4.23   1
 -10 -10   5   16.80    4.10   1
 -10 -10   6    8.75    2.96   1
 -10 -10   7   55.40    7.44   1
 -10 -10   8    6.23    2.50   1
 -10 -10   9   27.56    5.25   1
 -10 -10  10   70.99    8.43   1
 -10 -10  11   29.10    5.39   1
 -10 -10  12   61.20    7.82   1
 -10 -10  13   12.13    3.48   1
 -10 -10  14   29.50    5.43   1
 -10 -10  15   10.27    3.21   1
 -10 -10  17   30.49    5.52   1
 -10 -10  18    8.74    2.96   1
 -10 -10  20    5.00    2.24   1
 -10 -10  22   13.13    3.62   1
 -10 -10  23    2.78    1.67   1
 -10  -8 -23   16.04    4.00   1
 -10  -8 -22    9.07    3.01   1
 -10  -8 -18   18.23    4.27   1
 -10  -8 -14    9.73    3.12   1
 -10  -8 -13   46.88    6.85   1
 -10  -8 -12   20.33    4.51   1
 -10  -8 -11   13.40    3.66   1
 -10  -8  -9   13.68    3.70   1
 -10  -8  -8   18.48    4.30   1
 -10  -8  -7   10.16    3.19   1
 -10  -8  -5   38.78    6.23   1
 -10  -8  -3   13.73    3.70   1
 -10  -8  -2    9.82    3.13   1
 -10  -8  -1   15.07    3.88   1
 -10  -8   0  136.31   11.68   1
 -10  -8   1   10.27    3.21   1
 -10  -8   2   34.42    5.87   1
 -10  -8   5   33.45    5.78   1
 -10  -8   6   19.39    4.40   1
 -10  -8   8   17.19    4.15   1
 -10  -8   9    1.73    1.31   1
 -10  -8  10   16.13    4.02   1
 -10  -8  11   13.76    3.71   1
 -10  -8  14    5.72    2.39   1
 -10  -8  16   21.52    4.64   1
 -10  -8  18   22.01    4.69   1
 -10  -6 -22    3.16    1.78   1
 -10  -6 -19   64.13    8.01   1
 -10  -6 -17   17.38    4.17   1
 -10  -6 -13   59.36    7.70   1
 -10  -6 -11   24.00    4.90   1
 -10  -6 -10   26.56    5.15   1
 -10  -6  -9   36.97    6.08   1
 -10  -6  -8    3.79    1.95   1
 -10  -6  -6   41.33    6.43   1
 -10  -6  -5   38.17    6.18   1
 -10  -6  -4   25.71    5.07   1
 -10  -6  -3   17.21    4.15   1
 -10  -6  -2   17.04    4.13   1
 -10  -6  -1   19.50    4.42   1
 -10  -6   0   34.83    5.90   1
 -10  -6   1    2.86    1.69   1
 -10  -6   2    7.99    2.83   1
 -10  -6   3    6.08    2.47   1
 -10  -6   5   12.64    3.55   1
 -10  -6   6    6.64    2.58   1
 -10  -6   8   73.80    8.59   1
 -10  -6   9   46.61    6.83   1
 -10  -6  10   28.73    5.36   1
 -10  -6  11    5.75    2.40   1
 -10  -6  12   18.01    4.24   1
 -10  -6  14   25.42    5.04   1
 -10  -6  15   17.81    4.22   1
 -10  -6  16    2.03    1.42   1
 -10  -6  18   25.20    5.02   1
 -10  -6  20   17.55    4.19   1
 -10  -4 -18   17.61    4.20   1
 -10  -4 -17   14.70    3.83   1
 -10  -4 -15    7.35    2.71   1
 -10  -4 -13   45.38    6.74   1
 -10  -4 -11   27.98    5.29   1
 -10  -4 -10   16.16    4.02   1
 -10  -4  -8    8.59    2.93   1
 -10  -4  -7   21.28    4.61   1
 -10  -4  -6   31.13    5.58   1
 -10  -4  -5   33.46    5.78   1
 -10  -4  -4   11.21    3.35   1
 -10  -4  -3   26.32    5.13   1
 -10  -4  -2   45.60    6.75   1
 -10  -4  -1   15.90    3.99   1
 -10  -4   0   60.05    7.75   1
 -10  -4   1    3.35    1.83   1
 -10  -4   2   13.98    3.74   1
 -10  -4   3   39.49    6.28   1
 -10  -4   4   47.27    6.88   1
 -10  -4   5   34.46    5.87   1
 -10  -4   6    8.80    2.97   1
 -10  -4   8   46.15    6.79   1
 -10  -4   9   10.50    3.24   1
 -10  -4  10   13.36    3.65   1
 -10  -4  12   26.10    5.11   1
 -10  -4  13    5.65    2.38   1
 -10  -4  14    9.23    3.04   1
 -10  -4  15    7.13    2.67   1
 -10  -4  16   17.02    4.13   1
 -10  -4  17    8.44    2.90   1
 -10  -4  19    2.80    1.67   1
 -10  -2 -21   10.16    3.19   1
 -10  -2 -19   10.73    3.27   1
 -10  -2 -18   16.50    4.06   1
 -10  -2 -16    1.80    1.34   1
 -10  -2 -15   14.18    3.76   1
 -10  -2 -14   14.36    3.79   1
 -10  -2 -13    1.73    1.31   1
 -10  -2  -9    6.71    2.59   1
 -10  -2  -8   14.81    3.85   1
 -10  -2  -7   36.00    6.00   1
 -10  -2  -5   16.20    4.02   1
 -10  -2  -4   29.66    5.45   1
 -10  -2  -3   10.34    3.21   1
 -10  -2  -2   35.95    6.00   1
 -10  -2  -1   32.44    5.70   1
 -10  -2   0    7.25    2.69   1
 -10  -2   1   37.69    6.14   1
 -10  -2   2   43.54    6.60   1
 -10  -2   3   29.58    5.44   1
 -10  -2   4   47.17    6.87   1
 -10  -2   5    3.64    1.91   1
 -10  -2   6   29.88    5.47   1
 -10  -2   8   38.60    6.21   1
 -10  -2   9   19.51    4.42   1
 -10  -2  10   21.00    4.58   1
 -10  -2  12   18.53    4.30   1
 -10  -2  13   18.88    4.34   1
 -10  -2  14    7.46    2.73   1
 -10  -2  17   22.91    4.79   1
 -10  -2  18   67.90    8.24   1
 -10  -2  19   16.11    4.01   1
 -10  -2  20   23.40    4.84   1
 -10   0 -21   10.38    3.22   1
 -10   0 -18   11.63    3.41   1
 -10   0 -17   16.83    4.10   1
 -10   0 -16   12.82    3.58   1
 -10   0 -15   22.88    4.78   1
 -10   0 -13   31.42    5.61   1
 -10   0 -12    1.88    1.37   1
 -10   0 -10   10.91    3.30   1
 -10   0  -9   30.60    5.53   1
 -10   0  -8   96.56    9.83   1
 -10   0  -7   30.75    5.55   1
 -10   0  -6  182.02   13.49   1
 -10   0  -5   38.25    6.18   1
 -10   0  -4   36.30    6.02   1
 -10   0  -3   13.01    3.61   1
 -10   0  -2   96.22    9.81   1
 -10   0  -1   41.78    6.46   1
 -10   0   0   95.70    9.78   1
 -10   0   1   13.40    3.66   1
 -10   0   2   29.04    5.39   1
 -10   0   3   24.15    4.91   1
 -10   0   4   33.83    5.82   1
 -10   0   5   26.29    5.13   1
 -10   0   6  149.51   12.23   1
 -10   0   7   87.90    9.38   1
 -10   0   8  292.85   17.11   1
 -10   0   9   18.19    4.27   1
 -10   0  10  196.95   14.03   1
 -10   0  11    8.35    2.89   1
 -10   0  12    6.87    2.62   1
 -10   0  14   14.74    3.84   1
 -10   0  15   19.35    4.40   1
 -10   0  16   14.15    3.76   1
 -10   0  19    3.95    1.99   1
 -10   0  20    4.30    2.07   1
 -10   2 -17   25.66    5.07   1
 -10   2 -16    8.50    2.91   1
 -10   2 -15    6.73    2.59   1
 -10   2 -14   40.75    6.38   1
 -10   2 -13   10.88    3.30   1
 -10   2 -12   24.75    4.97   1
 -10   2 -11    8.48    2.91   1
 -10   2 -10   11.92    3.45   1
 -10   2  -9    4.02    2.01   1
 -10   2  -8   30.56    5.53   1
 -10   2  -7   14.93    3.86   1
 -10   2  -6   11.29    3.36   1
 -10   2  -4   29.02    5.39   1
 -10   2  -3   12.75    3.57   1
 -10   2  -2   53.69    7.33   1
 -10   2  -1   23.02    4.80   1
 -10   2   0   28.27    5.32   1
 -10   2   1   18.77    4.33   1
 -10   2   2   38.64    6.22   1
 -10   2   3    9.06    3.01   1
 -10   2   5    7.42    2.72   1
 -10   2   6    8.77    2.96   1
 -10   2   7    9.40    3.07   1
 -10   2   8   29.25    5.41   1
 -10   2  10    6.79    2.61   1
 -10   2  11   20.06    4.48   1
 -10   2  14   28.66    5.35   1
 -10   2  15   11.49    3.39   1
 -10   2  16   21.30    4.62   1
 -10   2  17    4.65    2.16   1
 -10   2  18    8.25    2.87   1
 -10   4 -19   21.64    4.65   1
 -10   4 -18   15.34    3.92   1
 -10   4 -16   13.61    3.69   1
 -10   4 -14   21.88    4.68   1
 -10   4 -12   10.95    3.31   1
 -10   4 -11   40.24    6.34   1
 -10   4 -10   39.00    6.24   1
 -10   4  -9   14.51    3.81   1
 -10   4  -8   16.48    4.06   1
 -10   4  -7   43.95    6.63   1
 -10   4  -4   18.67    4.32   1
 -10   4  -3   16.52    4.06   1
 -10   4  -2    2.17    1.47   1
 -10   4  -1    8.70    2.95   1
 -10   4   0   28.02    5.29   1
 -10   4   1   12.54    3.54   1
 -10   4   2   41.47    6.44   1
 -10   4   3   12.21    3.49   1
 -10   4   4   17.17    4.14   1
 -10   4   5   23.55    4.85   1
 -10   4   7   15.28    3.91   1
 -10   4   8   29.59    5.44   1
 -10   4  10   24.67    4.97   1
 -10   4  12   52.42    7.24   1
 -10   4  14   29.41    5.42   1
 -10   4  15    3.52    1.88   1
 -10   4  16    8.06    2.84   1
 -10   4  18   14.81    3.85   1
 -10   4  19    3.04    1.74   1
 -10   6 -19   50.85    7.13   1
 -10   6 -16    5.66    2.38   1
 -10   6 -14    6.68    2.59   1
 -10   6 -12    2.00    1.42   1
 -10   6 -11    8.48    2.91   1
 -10   6 -10   20.92    4.57   1
 -10   6  -9   30.79    5.55   1
 -10   6  -8  220.99   14.87   1
 -10   6  -7    3.22    1.80   1
 -10   6  -6   39.89    6.32   1
 -10   6  -5   15.55    3.94   1
 -10   6  -4   13.97    3.74   1
 -10   6  -3   18.09    4.25   1
 -10   6  -2   12.75    3.57   1
 -10   6  -1   20.48    4.52   1
 -10   6   0   59.21    7.69   1
 -10   6   1   10.76    3.28   1
 -10   6   2   13.12    3.62   1
 -10   6   3   31.40    5.60   1
 -10   6   4   28.91    5.38   1
 -10   6   5    2.96    1.72   1
 -10   6   6   56.95    7.55   1
 -10   6   7   14.48    3.80   1
 -10   6   8  109.61   10.47   1
 -10   6   9   28.16    5.31   1
 -10   6  10   24.41    4.94   1
 -10   6  11   14.63    3.82   1
 -10   6  12   17.36    4.17   1
 -10   6  14   12.45    3.53   1
 -10   6  15   12.60    3.55   1
 -10   6  18    3.63    1.90   1
 -10   8 -18   24.25    4.92   1
 -10   8 -17    5.18    2.28   1
 -10   8 -14   18.50    4.30   1
 -10   8 -13   17.02    4.13   1
 -10   8 -11    5.63    2.37   1
 -10   8 -10    9.75    3.12   1
 -10   8  -9   14.70    3.83   1
 -10   8  -8   13.05    3.61   1
 -10   8  -7   27.60    5.25   1
 -10   8  -6   47.25    6.87   1
 -10   8  -5   26.64    5.16   1
 -10   8  -4   57.00    7.55   1
 -10   8  -3   16.11    4.01   1
 -10   8  -2   20.56    4.53   1
 -10   8   0  128.40   11.33   1
 -10   8   1   45.20    6.72   1
 -10   8   2   24.83    4.98   1
 -10   8   3   22.06    4.70   1
 -10   8   4   25.69    5.07   1
 -10   8   6   37.20    6.10   1
 -10   8   7   14.36    3.79   1
 -10   8   8   36.16    6.01   1
 -10   8   9   23.14    4.81   1
 -10   8  10   43.13    6.57   1
 -10   8  11   15.78    3.97   1
 -10   8  12   23.14    4.81   1
 -10   8  13    6.61    2.57   1
 -10   8  15   10.15    3.19   1
 -10  10 -17    5.97    2.44   1
 -10  10 -15    9.18    3.03   1
 -10  10 -14    1.56    1.25   1
 -10  10 -12  112.28   10.60   1
 -10  10 -11   28.03    5.29   1
 -10  10 -10   25.35    5.03   1
 -10  10  -9   29.21    5.40   1
 -10  10  -8   85.99    9.27   1
 -10  10  -7   24.90    4.99   1
 -10  10  -5   19.38    4.40   1
 -10  10  -4   27.30    5.22   1
 -10  10  -3    5.10    2.26   1
 -10  10  -2   52.76    7.26   1
 -10  10  -1   38.96    6.24   1
 -10  10   0   72.79    8.53   1
 -10  10   1  170.22   13.05   1
 -10  10   2   41.80    6.47   1
 -10  10   3   46.11    6.79   1
 -10  10   4    7.27    2.70   1
 -10  10   5   11.89    3.45   1
 -10  10   6   41.35    6.43   1
 -10  10   7   15.84    3.98   1
 -10  10   8   27.78    5.27   1
 -10  10   9   23.10    4.81   1
 -10  10  10   43.58    6.60   1
 -10  10  11   10.99    3.31   1
 -10  10  13   48.90    6.99   1
 -10  10  14   16.35    4.04   1
 -10  10  16    4.77    2.18   1
 -10  12 -16   16.13    4.02   1
 -10  12 -15    2.78    1.67   1
 -10  12 -14   27.67    5.26   1
 -10  12 -13   22.53    4.75   1
 -10  12 -11   20.55    4.53   1
 -10  12 -10   24.25    4.92   1
 -10  12  -9   13.50    3.67   1
 -10  12  -8   30.84    5.55   1
 -10  12  -7   30.23    5.50   1
 -10  12  -6   15.45    3.93   1
 -10  12  -5   17.55    4.19   1
 -10  12  -4   28.35    5.32   1
 -10  12  -3   13.53    3.68   1
 -10  12  -2   66.76    8.17   1
 -10  12  -1   71.29    8.44   1
 -10  12   0  166.70   12.91   1
 -10  12   1  137.24   11.71   1
 -10  12   2   56.07    7.49   1
 -10  12   3  100.55   10.03   1
 -10  12   4    7.73    2.78   1
 -10  12   5   12.41    3.52   1
 -10  12   6   23.48    4.85   1
 -10  12   7   25.35    5.03   1
 -10  12   8   28.35    5.32   1
 -10  12   9   38.43    6.20   1
 -10  12  10   20.10    4.48   1
 -10  12  11    9.59    3.10   1
 -10  12  12   14.55    3.81   1
 -10  12  14   13.84    3.72   1
 -10  12  15   14.06    3.75   1
 -10  14 -17    6.56    2.56   1
 -10  14 -16   12.16    3.49   1
 -10  14 -13   25.13    5.01   1
 -10  14 -12   15.23    3.90   1
 -10  14 -11   18.71    4.33   1
 -10  14 -10   24.90    4.99   1
 -10  14  -9   30.61    5.53   1
 -10  14  -8   10.99    3.31   1
 -10  14  -7   30.00    5.48   1
 -10  14  -6    6.34    2.52   1
 -10  14  -5   23.55    4.85   1
 -10  14  -4   30.98    5.57   1
 -10  14  -3   11.44    3.38   1
 -10  14  -2   19.05    4.36   1
 -10  14  -1   13.80    3.71   1
 -10  14   0  119.32   10.92   1
 -10  14   1  187.57   13.70   1
 -10  14   2   34.23    5.85   1
 -10  14   3    5.36    2.32   1
 -10  14   4   30.75    5.55   1
 -10  14   5   24.26    4.93   1
 -10  14   6   28.53    5.34   1
 -10  14   7    7.05    2.66   1
 -10  14   9   24.49    4.95   1
 -10  14  10   17.14    4.14   1
 -10  14  12   26.75    5.17   1
 -10  14  13    7.54    2.75   1
 -10  14  14    1.76    1.33   1
 -10  14  15   28.98    5.38   1
 -10  16 -15   16.65    4.08   1
 -10  16 -12    4.13    2.03   1
 -10  16 -11    4.76    2.18   1
 -10  16 -10   43.80    6.62   1
 -10  16  -8   73.51    8.57   1
 -10  16  -7  125.37   11.20   1
 -10  16  -6    9.94    3.15   1
 -10  16  -4   39.79    6.31   1
 -10  16  -3   29.17    5.40   1
 -10  16  -2   31.35    5.60   1
 -10  16  -1   23.02    4.80   1
 -10  16   0   26.17    5.12   1
 -10  16   1   39.83    6.31   1
 -10  16   2    9.79    3.13   1
 -10  16   3   22.46    4.74   1
 -10  16   4   32.49    5.70   1
 -10  16   5   28.73    5.36   1
 -10  16   6   12.90    3.59   1
 -10  16   7    6.86    2.62   1
 -10  16   8   80.40    8.97   1
 -10  16   9   55.73    7.47   1
 -10  16  10   62.34    7.90   1
 -10  16  11   10.69    3.27   1
 -10  16  12    8.85    2.97   1
 -10  16  13    6.15    2.48   1
 -10  16  15    4.13    2.03   1
 -10  18 -16    1.65    1.28   1
 -10  18 -15   15.65    3.96   1
 -10  18 -12    5.32    2.31   1
 -10  18 -11    9.92    3.15   1
 -10  18 -10   17.51    4.18   1
 -10  18  -9   48.54    6.97   1
 -10  18  -8   37.42    6.12   1
 -10  18  -7    7.69    2.77   1
 -10  18  -6   19.44    4.41   1
 -10  18  -5   23.02    4.80   1
 -10  18  -4   13.50    3.67   1
 -10  18  -2   23.44    4.84   1
 -10  18  -1   27.94    5.29   1
 -10  18   0   14.21    3.77   1
 -10  18   1   22.26    4.72   1
 -10  18   2   34.31    5.86   1
 -10  18   3   27.48    5.24   1
 -10  18   4   28.73    5.36   1
 -10  18   5    7.49    2.74   1
 -10  18   6    3.79    1.95   1
 -10  18   7   15.00    3.87   1
 -10  18   8   21.94    4.68   1
 -10  18   9   42.15    6.49   1
 -10  18  10   25.01    5.00   1
 -10  18  11   35.47    5.96   1
 -10  18  12    6.19    2.49   1
 -10  18  13    7.57    2.75   1
 -10  18  14    8.55    2.92   1
 -10  18  15    2.20    1.48   1
 -10  20 -15    9.56    3.09   1
 -10  20 -11    7.90    2.81   1
 -10  20  -9    6.90    2.63   1
 -10  20  -8    9.86    3.14   1
 -10  20  -7    2.10    1.45   1
 -10  20  -6    9.10    3.02   1
 -10  20  -5   10.82    3.29   1
 -10  20  -4    9.26    3.04   1
 -10  20  -3    9.07    3.01   1
 -10  20  -1   29.63    5.44   1
 -10  20   1   16.69    4.09   1
 -10  20   2   10.88    3.30   1
 -10  20   3   16.13    4.02   1
 -10  20   4   19.50    4.42   1
 -10  20   5    7.64    2.76   1
 -10  20   6   17.77    4.21   1
 -10  20   7   12.90    3.59   1
 -10  20   8   19.17    4.38   1
 -10  20   9   35.70    5.97   1
 -10  20  10   15.00    3.87   1
 -10  20  13   17.25    4.15   1
 -10  20  14   10.65    3.26   1
 -10  22 -13    4.20    2.05   1
 -10  22 -12   12.25    3.50   1
 -10  22  -9    7.30    2.70   1
 -10  22  -6   14.96    3.87   1
 -10  22  -5   24.34    4.93   1
 -10  22  -4   14.04    3.75   1
 -10  22  -3   13.80    3.71   1
 -10  22  -2   14.76    3.84   1
 -10  22  -1   18.04    4.25   1
 -10  22   0   20.40    4.52   1
 -10  22   1   20.65    4.54   1
 -10  22   2   10.73    3.28   1
 -10  22   3    4.35    2.09   1
 -10  22   4   22.88    4.78   1
 -10  22   5   18.90    4.35   1
 -10  22   6   17.63    4.20   1
 -10  22   7    7.09    2.66   1
 -10  22   8   13.28    3.64   1
 -10  22   9   14.06    3.75   1
 -10  22  10    3.60    1.90   1
 -10  22  11    3.71    1.93   1
 -10  22  14    7.51    2.74   1
 -10  24 -13    6.51    2.55   1
 -10  24 -11   13.50    3.67   1
 -10  24 -10    6.60    2.57   1
 -10  24  -9   15.38    3.92   1
 -10  24  -8   13.73    3.70   1
 -10  24  -6    3.19    1.79   1
 -10  24  -5    9.23    3.04   1
 -10  24  -4    5.74    2.40   1
 -10  24  -3    5.70    2.39   1
 -10  24  -2   10.46    3.23   1
 -10  24  -1   19.08    4.37   1
 -10  24   0   12.82    3.58   1
 -10  24   1   10.95    3.31   1
 -10  24   2   33.16    5.76   1
 -10  24   3   11.02    3.32   1
 -10  24   4    8.63    2.94   1
 -10  24   5    7.03    2.65   1
 -10  24   6    8.63    2.94   1
 -10  24   7   27.11    5.21   1
 -10  24   9   13.76    3.71   1
 -10  24  11    6.31    2.51   1
 -10  24  13   10.67    3.27   1
  -9 -23 -19   10.54    3.25   1
  -9 -23 -18   10.57    3.25   1
  -9 -23 -15    8.35    2.89   1
  -9 -23  -7    4.24    2.06   1
  -9 -23  -6    2.58    1.61   1
  -9 -23  -5    8.40    2.90   1
  -9 -23  -2    2.63    1.62   1
  -9 -23  -1    4.91    2.22   1
  -9 -23   0    4.01    2.00   1
  -9 -23   3    4.09    2.02   1
  -9 -23   4   18.62    4.31   1
  -9 -23   5   16.50    4.06   1
  -9 -23   6   11.70    3.42   1
  -9 -23   7    4.54    2.13   1
  -9 -23   8   10.65    3.26   1
  -9 -23   9    7.28    2.70   1
  -9 -23  10    6.27    2.50   1
  -9 -23  11   13.69    3.70   1
  -9 -23  12    3.63    1.91   1
  -9 -23  13   19.88    4.46   1
  -9 -23  17    2.66    1.63   1
  -9 -23  19    6.86    2.62   1
  -9 -21 -24    9.56    3.09   1
  -9 -21 -18    6.75    2.60   1
  -9 -21 -17    3.97    1.99   1
  -9 -21 -15    5.89    2.43   1
  -9 -21 -14   23.39    4.84   1
  -9 -21 -12   13.43    3.66   1
  -9 -21 -11   19.82    4.45   1
  -9 -21  -9   28.69    5.36   1
  -9 -21  -8    9.03    3.00   1
  -9 -21  -6    8.74    2.96   1
  -9 -21  -4    6.48    2.55   1
  -9 -21  -3   13.09    3.62   1
  -9 -21  -2    4.07    2.02   1
  -9 -21   0    4.59    2.14   1
  -9 -21   1    4.58    2.14   1
  -9 -21   2   18.23    4.27   1
  -9 -21   4    5.40    2.32   1
  -9 -21   5   20.61    4.54   1
  -9 -21   6   10.86    3.30   1
  -9 -21   7   13.55    3.68   1
  -9 -21   9   19.95    4.47   1
  -9 -21  10   14.55    3.81   1
  -9 -21  11   10.76    3.28   1
  -9 -21  13    5.13    2.26   1
  -9 -21  15    6.07    2.46   1
  -9 -21  18    4.05    2.01   1
  -9 -21  21   15.90    3.99   1
  -9 -21  23   12.86    3.59   1
  -9 -21  24    7.33    2.71   1
  -9 -19 -23   13.20    3.63   1
  -9 -19 -15   12.07    3.47   1
  -9 -19 -13   16.50    4.06   1
  -9 -19 -11    7.20    2.68   1
  -9 -19  -8    5.39    2.32   1
  -9 -19  -7   12.86    3.59   1
  -9 -19  -6    5.59    2.36   1
  -9 -19  -5   13.52    3.68   1
  -9 -19  -4    3.15    1.77   1
  -9 -19  -3   42.01    6.48   1
  -9 -19  -2   38.15    6.18   1
  -9 -19  -1   18.71    4.33   1
  -9 -19   0   11.30    3.36   1
  -9 -19   1    8.37    2.89   1
  -9 -19   2    9.38    3.06   1
  -9 -19   3   23.33    4.83   1
  -9 -19   4    2.78    1.67   1
  -9 -19   5    7.84    2.80   1
  -9 -19   6    1.95    1.40   1
  -9 -19   7   11.53    3.40   1
  -9 -19   9    4.18    2.05   1
  -9 -19  10    4.88    2.21   1
  -9 -19  11   16.40    4.05   1
  -9 -19  15    1.65    1.28   1
  -9 -19  17    9.23    3.04   1
  -9 -19  18    7.86    2.80   1
  -9 -19  23    8.59    2.93   1
  -9 -17 -23    9.52    3.09   1
  -9 -17 -22    8.55    2.92   1
  -9 -17 -20   18.55    4.31   1
  -9 -17 -19   19.13    4.37   1
  -9 -17 -18   10.10    3.18   1
  -9 -17 -16    3.41    1.85   1
  -9 -17 -15    7.50    2.74   1
  -9 -17 -14    4.39    2.10   1
  -9 -17 -10    4.57    2.14   1
  -9 -17  -9    2.85    1.69   1
  -9 -17  -6    3.55    1.89   1
  -9 -17  -5   14.07    3.75   1
  -9 -17  -4   26.85    5.18   1
  -9 -17  -3    8.10    2.85   1
  -9 -17  -2    3.60    1.90   1
  -9 -17  -1   44.10    6.64   1
  -9 -17   2    3.08    1.75   1
  -9 -17   3   33.39    5.78   1
  -9 -17   5    7.13    2.67   1
  -9 -17   7   19.75    4.44   1
  -9 -17  10    4.27    2.07   1
  -9 -17  11    6.67    2.58   1
  -9 -17  14    9.19    3.03   1
  -9 -17  16    4.84    2.20   1
  -9 -17  17   13.28    3.64   1
  -9 -17  18   23.17    4.81   1
  -9 -17  21    5.10    2.26   1
  -9 -15 -19   11.40    3.38   1
  -9 -15 -16   14.63    3.83   1
  -9 -15 -12    5.99    2.45   1
  -9 -15 -11    3.30    1.82   1
  -9 -15  -5  356.28   18.88   1
  -9 -15  -4   15.03    3.88   1
  -9 -15  -3  316.45   17.79   1
  -9 -15  -2   30.15    5.49   1
  -9 -15  -1   13.05    3.61   1
  -9 -15   0   13.65    3.69   1
  -9 -15   1   26.34    5.13   1
  -9 -15   2   13.57    3.68   1
  -9 -15   3   11.86    3.44   1
  -9 -15   4   22.59    4.75   1
  -9 -15   5  308.48   17.56   1
  -9 -15   6   10.31    3.21   1
  -9 -15   7  257.89   16.06   1
  -9 -15   8   20.60    4.54   1
  -9 -15   9   18.85    4.34   1
  -9 -15  11    6.85    2.62   1
  -9 -15  13    5.96    2.44   1
  -9 -15  14   17.62    4.20   1
  -9 -15  15   30.38    5.51   1
  -9 -15  16   19.80    4.45   1
  -9 -15  17    8.10    2.85   1
  -9 -15  21   17.27    4.16   1
  -9 -15  22    7.00    2.65   1
  -9 -13 -22    4.93    2.22   1
  -9 -13 -21    2.58    1.61   1
  -9 -13 -18   12.75    3.57   1
  -9 -13 -16    8.44    2.91   1
  -9 -13 -14    6.11    2.47   1
  -9 -13 -13   13.80    3.71   1
  -9 -13 -11   41.47    6.44   1
  -9 -13  -5   24.75    4.97   1
  -9 -13  -4   27.00    5.20   1
  -9 -13  -3   25.31    5.03   1
  -9 -13  -2   12.38    3.52   1
  -9 -13  -1   61.99    7.87   1
  -9 -13   0    5.06    2.25   1
  -9 -13   1   11.32    3.37   1
  -9 -13   2    8.90    2.98   1
  -9 -13   3   27.15    5.21   1
  -9 -13   5   11.23    3.35   1
  -9 -13   6    5.63    2.37   1
  -9 -13   7   40.95    6.40   1
  -9 -13   8    6.53    2.55   1
  -9 -13  10   10.83    3.29   1
  -9 -13  11   13.83    3.72   1
  -9 -13  15   11.51    3.39   1
  -9 -13  19    6.38    2.52   1
  -9 -13  20   10.69    3.27   1
  -9 -13  21    3.33    1.83   1
  -9 -13  22    3.45    1.86   1
  -9 -11 -19   25.95    5.09   1
  -9 -11 -16    8.18    2.86   1
  -9 -11 -15   13.95    3.73   1
  -9 -11 -14   25.30    5.03   1
  -9 -11 -13    5.74    2.40   1
  -9 -11 -11   15.86    3.98   1
  -9 -11 -10    8.66    2.94   1
  -9 -11  -9    6.49    2.55   1
  -9 -11  -8    9.63    3.10   1
  -9 -11  -7   21.31    4.62   1
  -9 -11  -6    5.18    2.27   1
  -9 -11  -5  243.36   15.60   1
  -9 -11  -4   19.88    4.46   1
  -9 -11  -3  158.48   12.59   1
  -9 -11  -2    8.24    2.87   1
  -9 -11  -1    7.45    2.73   1
  -9 -11   1    1.54    1.24   1
  -9 -11   2   27.15    5.21   1
  -9 -11   3   11.60    3.41   1
  -9 -11   4   64.46    8.03   1
  -9 -11   5   22.78    4.77   1
  -9 -11   6   25.16    5.02   1
  -9 -11   7    8.96    2.99   1
  -9 -11   9   22.50    4.74   1
  -9 -11  10   19.05    4.36   1
  -9 -11  13    2.52    1.59   1
  -9 -11  14   14.55    3.81   1
  -9 -11  15   26.02    5.10   1
  -9 -11  18    6.71    2.59   1
  -9 -11  20    8.52    2.92   1
  -9 -11  21   12.60    3.55   1
  -9  -9 -21   17.33    4.16   1
  -9  -9 -20   17.67    4.20   1
  -9  -9 -19   17.02    4.13   1
  -9  -9 -16   11.65    3.41   1
  -9  -9 -15    5.36    2.32   1
  -9  -9 -13   15.16    3.89   1
  -9  -9 -12    3.40    1.84   1
  -9  -9 -10   17.10    4.14   1
  -9  -9  -9   19.95    4.47   1
  -9  -9  -8   19.17    4.38   1
  -9  -9  -7   23.50    4.85   1
  -9  -9  -6   12.23    3.50   1
  -9  -9  -5   18.83    4.34   1
  -9  -9  -4   16.80    4.10   1
  -9  -9  -3  395.82   19.90   1
  -9  -9  -2   15.45    3.93   1
  -9  -9  -1   27.83    5.27   1
  -9  -9   0   22.95    4.79   1
  -9  -9   1   13.97    3.74   1
  -9  -9   2   11.68    3.42   1
  -9  -9   3   14.25    3.77   1
  -9  -9   4  464.70   21.56   1
  -9  -9   5  224.10   14.97   1
  -9  -9   6   32.05    5.66   1
  -9  -9   7   11.02    3.32   1
  -9  -9   8   24.26    4.93   1
  -9  -9   9   13.02    3.61   1
  -9  -9  11   16.84    4.10   1
  -9  -9  13    4.61    2.15   1
  -9  -9  14   59.65    7.72   1
  -9  -9  15   20.63    4.54   1
  -9  -9  16   24.75    4.97   1
  -9  -9  18    1.54    1.24   1
  -9  -9  20    4.20    2.05   1
  -9  -7 -18   20.29    4.50   1
  -9  -7 -16   15.90    3.99   1
  -9  -7 -15   51.38    7.17   1
  -9  -7 -14   11.93    3.45   1
  -9  -7 -13   85.57    9.25   1
  -9  -7 -12    7.30    2.70   1
  -9  -7 -11   42.11    6.49   1
  -9  -7 -10   12.15    3.49   1
  -9  -7  -9   54.60    7.39   1
  -9  -7  -8   62.10    7.88   1
  -9  -7  -6   16.48    4.06   1
  -9  -7  -5   55.95    7.48   1
  -9  -7  -4    3.06    1.75   1
  -9  -7  -3   21.71    4.66   1
  -9  -7  -2   15.48    3.93   1
  -9  -7  -1   38.85    6.23   1
  -9  -7   0   19.76    4.45   1
  -9  -7   1    5.93    2.43   1
  -9  -7   2    3.15    1.77   1
  -9  -7   3   15.79    3.97   1
  -9  -7   4    2.85    1.69   1
  -9  -7   5   25.93    5.09   1
  -9  -7   6  137.89   11.74   1
  -9  -7   7   53.66    7.33   1
  -9  -7   8   53.36    7.30   1
  -9  -7   9    8.86    2.98   1
  -9  -7  10   19.58    4.42   1
  -9  -7  12    5.25    2.29   1
  -9  -7  13   19.45    4.41   1
  -9  -7  14   55.42    7.44   1
  -9  -7  16   45.41    6.74   1
  -9  -7  19    5.41    2.33   1
  -9  -7  20    8.39    2.90   1
  -9  -5 -18   15.43    3.93   1
  -9  -5 -17   11.59    3.40   1
  -9  -5 -15    2.33    1.52   1
  -9  -5 -14    3.68    1.92   1
  -9  -5 -12   10.20    3.19   1
  -9  -5 -11   20.63    4.54   1
  -9  -5 -10   23.74    4.87   1
  -9  -5  -9   28.58    5.35   1
  -9  -5  -7    4.24    2.06   1
  -9  -5  -6   33.90    5.82   1
  -9  -5  -5   23.43    4.84   1
  -9  -5  -4   29.06    5.39   1
  -9  -5  -3  109.65   10.47   1
  -9  -5  -2   45.10    6.72   1
  -9  -5  -1   11.59    3.40   1
  -9  -5   0   34.20    5.85   1
  -9  -5   1   13.13    3.62   1
  -9  -5   2   50.03    7.07   1
  -9  -5   4  306.96   17.52   1
  -9  -5   5   17.55    4.19   1
  -9  -5   6  229.88   15.16   1
  -9  -5   7   35.43    5.95   1
  -9  -5   8   49.28    7.02   1
  -9  -5   9   13.17    3.63   1
  -9  -5  11   17.05    4.13   1
  -9  -5  12   12.20    3.49   1
  -9  -5  13   23.73    4.87   1
  -9  -5  14   25.27    5.03   1
  -9  -5  15   20.80    4.56   1
  -9  -5  16   13.42    3.66   1
  -9  -5  18   27.48    5.24   1
  -9  -3 -19    4.01    2.00   1
  -9  -3 -18   16.69    4.09   1
  -9  -3 -16    3.27    1.81   1
  -9  -3 -15    3.45    1.86   1
  -9  -3 -14   35.28    5.94   1
  -9  -3 -13    6.02    2.45   1
  -9  -3 -12   33.38    5.78   1
  -9  -3 -11   51.30    7.16   1
  -9  -3 -10   16.42    4.05   1
  -9  -3  -9   27.83    5.27   1
  -9  -3  -8   17.48    4.18   1
  -9  -3  -7   88.09    9.39   1
  -9  -3  -6   22.39    4.73   1
  -9  -3  -5   13.54    3.68   1
  -9  -3  -4   12.52    3.54   1
  -9  -3  -3   22.76    4.77   1
  -9  -3  -1    3.15    1.77   1
  -9  -3   0    4.04    2.01   1
  -9  -3   1    2.36    1.54   1
  -9  -3   3   43.72    6.61   1
  -9  -3   4   11.29    3.36   1
  -9  -3   5   20.77    4.56   1
  -9  -3   6  221.48   14.88   1
  -9  -3   7   40.05    6.33   1
  -9  -3   8   89.32    9.45   1
  -9  -3   9    2.86    1.69   1
  -9  -3  10   16.86    4.11   1
  -9  -3  11   40.98    6.40   1
  -9  -3  12   28.58    5.35   1
  -9  -3  13    3.16    1.78   1
  -9  -3  18    9.39    3.06   1
  -9  -1 -19    2.59    1.61   1
  -9  -1 -16   26.28    5.13   1
  -9  -1 -15  152.48   12.35   1
  -9  -1 -14   11.35    3.37   1
  -9  -1 -12   14.96    3.87   1
  -9  -1  -9   10.86    3.30   1
  -9  -1  -8    8.48    2.91   1
  -9  -1  -5    9.20    3.03   1
  -9  -1  -4    4.69    2.17   1
  -9  -1  -3   27.63    5.26   1
  -9  -1  -2   43.65    6.61   1
  -9  -1  -1   22.73    4.77   1
  -9  -1   0    9.79    3.13   1
  -9  -1   1   14.87    3.86   1
  -9  -1   2   24.60    4.96   1
  -9  -1   4   54.60    7.39   1
  -9  -1   5    6.71    2.59   1
  -9  -1   6   27.38    5.23   1
  -9  -1   8   60.71    7.79   1
  -9  -1  10    7.01    2.65   1
  -9  -1  11   12.19    3.49   1
  -9  -1  14   68.39    8.27   1
  -9  -1  15    4.16    2.04   1
  -9  -1  17    5.18    2.27   1
  -9   1 -14   43.91    6.63   1
  -9   1 -11    5.44    2.33   1
  -9   1 -10   29.55    5.44   1
  -9   1  -9   26.52    5.15   1
  -9   1  -8   52.84    7.27   1
  -9   1  -7   13.50    3.67   1
  -9   1  -6   34.20    5.85   1
  -9   1  -4   26.49    5.15   1
  -9   1  -3    2.92    1.71   1
  -9   1  -2   43.58    6.60   1
  -9   1  -1   18.56    4.31   1
  -9   1   0    2.74    1.65   1
  -9   1   1   37.80    6.15   1
  -9   1   2   12.60    3.55   1
  -9   1   3   17.75    4.21   1
  -9   1   4   33.32    5.77   1
  -9   1   6   18.04    4.25   1
  -9   1   7   16.25    4.03   1
  -9   1   8   44.83    6.70   1
  -9   1   9   11.54    3.40   1
  -9   1  10   15.45    3.93   1
  -9   1  11    4.83    2.20   1
  -9   1  12   44.63    6.68   1
  -9   1  13   10.00    3.16   1
  -9   1  14   71.81    8.47   1
  -9   1  15    1.58    1.25   1
  -9   1  16   48.63    6.97   1
  -9   1  17    7.39    2.72   1
  -9   3 -17    8.96    2.99   1
  -9   3 -16    4.17    2.04   1
  -9   3 -15    9.96    3.16   1
  -9   3 -14    8.25    2.87   1
  -9   3  -9   16.80    4.10   1
  -9   3  -8   34.85    5.90   1
  -9   3  -7   29.54    5.44   1
  -9   3  -6   20.43    4.52   1
  -9   3  -5   13.65    3.69   1
  -9   3  -4   39.38    6.27   1
  -9   3  -3   20.14    4.49   1
  -9   3  -2   43.72    6.61   1
  -9   3  -1   25.90    5.09   1
  -9   3   0    8.77    2.96   1
  -9   3   1    3.30    1.82   1
  -9   3   2   26.50    5.15   1
  -9   3   3   23.70    4.87   1
  -9   3   4    3.19    1.79   1
  -9   3   5    8.02    2.83   1
  -9   3   6  277.27   16.65   1
  -9   3   7   11.59    3.40   1
  -9   3   8   71.91    8.48   1
  -9   3   9   16.71    4.09   1
  -9   3  10   11.06    3.33   1
  -9   3  11    6.90    2.63   1
  -9   3  12   32.21    5.68   1
  -9   3  13   15.52    3.94   1
  -9   3  14    6.15    2.48   1
  -9   3  15   19.61    4.43   1
  -9   3  17    4.65    2.16   1
  -9   5 -18   13.75    3.71   1
  -9   5 -16   23.25    4.82   1
  -9   5 -14   13.54    3.68   1
  -9   5 -13    2.40    1.55   1
  -9   5 -12   17.63    4.20   1
  -9   5 -10   10.69    3.27   1
  -9   5  -8    3.20    1.79   1
  -9   5  -7   22.60    4.75   1
  -9   5  -6  171.75   13.11   1
  -9   5  -4  198.66   14.09   1
  -9   5  -3   30.57    5.53   1
  -9   5  -2   99.79    9.99   1
  -9   5  -1    6.55    2.56   1
  -9   5   0   29.40    5.42   1
  -9   5   2   84.74    9.21   1
  -9   5   3   28.28    5.32   1
  -9   5   4  268.42   16.38   1
  -9   5   5   20.36    4.51   1
  -9   5   6   74.83    8.65   1
  -9   5   7   48.08    6.93   1
  -9   5   8   14.85    3.85   1
  -9   5   9   18.45    4.30   1
  -9   5  11    8.02    2.83   1
  -9   5  12    3.19    1.79   1
  -9   5  13    6.34    2.52   1
  -9   5  16   33.97    5.83   1
  -9   7 -16   12.60    3.55   1
  -9   7 -13   78.56    8.86   1
  -9   7 -12    4.44    2.11   1
  -9   7 -11   12.82    3.58   1
  -9   7 -10    7.50    2.74   1
  -9   7  -9   16.95    4.12   1
  -9   7  -8   18.15    4.26   1
  -9   7  -7   40.05    6.33   1
  -9   7  -6  110.85   10.53   1
  -9   7  -5   10.65    3.26   1
  -9   7  -4   14.70    3.83   1
  -9   7  -3   38.20    6.18   1
  -9   7  -2   23.70    4.87   1
  -9   7  -1   20.62    4.54   1
  -9   7   1   12.11    3.48   1
  -9   7   2   28.10    5.30   1
  -9   7   3   23.44    4.84   1
  -9   7   4   31.35    5.60   1
  -9   7   5   19.10    4.37   1
  -9   7   6   87.68    9.36   1
  -9   7   7   17.14    4.14   1
  -9   7   8   51.79    7.20   1
  -9   7  10   23.18    4.81   1
  -9   7  11    5.96    2.44   1
  -9   7  12   13.86    3.72   1
  -9   7  13   12.98    3.60   1
  -9   7  14   49.99    7.07   1
  -9   7  15   21.84    4.67   1
  -9   7  16    8.05    2.84   1
  -9   9 -16    6.61    2.57   1
  -9   9 -15   14.44    3.80   1
  -9   9 -14   16.24    4.03   1
  -9   9 -13    6.00    2.45   1
  -9   9 -12   28.61    5.35   1
  -9   9 -11   19.42    4.41   1
  -9   9  -9    2.73    1.65   1
  -9   9  -8   21.64    4.65   1
  -9   9  -7   22.57    4.75   1
  -9   9  -6   57.90    7.61   1
  -9   9  -5    8.48    2.91   1
  -9   9  -4  321.69   17.94   1
  -9   9  -3   27.15    5.21   1
  -9   9  -2   19.42    4.41   1
  -9   9  -1   30.71    5.54   1
  -9   9   0    2.78    1.67   1
  -9   9   1    9.14    3.02   1
  -9   9   2   16.88    4.11   1
  -9   9   3    2.08    1.44   1
  -9   9   4  351.26   18.74   1
  -9   9   5   26.97    5.19   1
  -9   9   6   54.67    7.39   1
  -9   9   7   18.58    4.31   1
  -9   9   8   17.40    4.17   1
  -9   9   9   42.83    6.54   1
  -9   9  10   31.05    5.57   1
  -9   9  12   29.48    5.43   1
  -9   9  14    2.17    1.47   1
  -9  11 -16   13.20    3.63   1
  -9  11 -15   12.80    3.58   1
  -9  11 -14    9.00    3.00   1
  -9  11 -13   29.62    5.44   1
  -9  11 -12   31.25    5.59   1
  -9  11 -11    7.99    2.83   1
  -9  11 -10   18.90    4.35   1
  -9  11  -7    5.93    2.43   1
  -9  11  -6  156.57   12.51   1
  -9  11  -5   10.50    3.24   1
  -9  11  -4  141.82   11.91   1
  -9  11  -3   40.13    6.33   1
  -9  11  -2   37.13    6.09   1
  -9  11  -1    6.36    2.52   1
  -9  11   0    5.36    2.32   1
  -9  11   1   16.84    4.10   1
  -9  11   2   29.50    5.43   1
  -9  11   3    7.70    2.77   1
  -9  11   4  116.06   10.77   1
  -9  11   5   55.31    7.44   1
  -9  11   6   98.98    9.95   1
  -9  11   8   10.95    3.31   1
  -9  11   9   12.12    3.48   1
  -9  11  11    6.07    2.46   1
  -9  11  13    6.68    2.58   1
  -9  13 -15    7.50    2.74   1
  -9  13 -13   21.52    4.64   1
  -9  13 -12   20.82    4.56   1
  -9  13 -11   35.51    5.96   1
  -9  13 -10    2.45    1.57   1
  -9  13  -9    3.19    1.79   1
  -9  13  -8    9.15    3.02   1
  -9  13  -7   44.24    6.65   1
  -9  13  -6    6.22    2.49   1
  -9  13  -5   20.02    4.47   1
  -9  13  -4   23.97    4.90   1
  -9  13  -3   10.16    3.19   1
  -9  13  -2   93.60    9.67   1
  -9  13  -1   83.74    9.15   1
  -9  13   0    3.17    1.78   1
  -9  13   1   33.97    5.83   1
  -9  13   2   47.95    6.92   1
  -9  13   3   72.90    8.54   1
  -9  13   4   41.89    6.47   1
  -9  13   5    9.52    3.09   1
  -9  13   6   20.25    4.50   1
  -9  13   7   27.15    5.21   1
  -9  13   8   44.22    6.65   1
  -9  13  10   13.08    3.62   1
  -9  13  11   11.93    3.45   1
  -9  15 -14    3.35    1.83   1
  -9  15 -13   28.73    5.36   1
  -9  15 -12    5.25    2.29   1
  -9  15 -10   16.76    4.09   1
  -9  15  -9   12.73    3.57   1
  -9  15  -8   62.47    7.90   1
  -9  15  -7    9.73    3.12   1
  -9  15  -6  144.57   12.02   1
  -9  15  -5   96.71    9.83   1
  -9  15  -4  193.50   13.91   1
  -9  15  -3   51.67    7.19   1
  -9  15  -2   19.00    4.36   1
  -9  15  -1   26.48    5.15   1
  -9  15   0   17.39    4.17   1
  -9  15   1   26.17    5.12   1
  -9  15   2   42.55    6.52   1
  -9  15   3   24.45    4.94   1
  -9  15   4  189.96   13.78   1
  -9  15   5  100.00   10.00   1
  -9  15   6  178.62   13.36   1
  -9  15   7   94.62    9.73   1
  -9  15   8   34.05    5.84   1
  -9  15   9   15.68    3.96   1
  -9  15  11    9.23    3.04   1
  -9  15  12   36.68    6.06   1
  -9  15  14    5.00    2.24   1
  -9  17 -14   17.17    4.14   1
  -9  17 -12    7.95    2.82   1
  -9  17 -11   33.10    5.75   1
  -9  17 -10    4.97    2.23   1
  -9  17  -8   17.36    4.17   1
  -9  17  -7    2.85    1.69   1
  -9  17  -6   28.61    5.35   1
  -9  17  -5   14.18    3.76   1
  -9  17  -4   17.96    4.24   1
  -9  17  -3   15.90    3.99   1
  -9  17  -2   27.38    5.23   1
  -9  17  -1   16.95    4.12   1
  -9  17   0   18.95    4.35   1
  -9  17   1   25.57    5.06   1
  -9  17   2    6.75    2.60   1
  -9  17   3   38.85    6.23   1
  -9  17   4    9.26    3.04   1
  -9  17   5    8.43    2.90   1
  -9  17   6   14.36    3.79   1
  -9  17   7   18.55    4.31   1
  -9  17   9   31.67    5.63   1
  -9  17  11   17.28    4.16   1
  -9  17  13   17.33    4.16   1
  -9  19 -13    7.59    2.75   1
  -9  19 -11    7.84    2.80   1
  -9  19 -10    6.78    2.60   1
  -9  19  -8    5.01    2.24   1
  -9  19  -7    3.97    1.99   1
  -9  19  -6   33.67    5.80   1
  -9  19  -5   29.63    5.44   1
  -9  19  -4   45.18    6.72   1
  -9  19  -3   45.83    6.77   1
  -9  19  -2   17.05    4.13   1
  -9  19  -1    7.95    2.82   1
  -9  19   0    4.72    2.17   1
  -9  19   1   19.65    4.43   1
  -9  19   2   16.43    4.05   1
  -9  19   3    8.31    2.88   1
  -9  19   4   39.12    6.25   1
  -9  19   5   37.02    6.08   1
  -9  19   6    7.92    2.82   1
  -9  19   7   10.16    3.19   1
  -9  19   9    5.25    2.29   1
  -9  19  10   14.74    3.84   1
  -9  19  12   20.58    4.54   1
  -9  21 -11    8.40    2.90   1
  -9  21 -10   18.02    4.24   1
  -9  21  -8    9.90    3.15   1
  -9  21  -6   14.79    3.85   1
  -9  21  -5    3.53    1.88   1
  -9  21  -4   13.85    3.72   1
  -9  21  -3   10.91    3.30   1
  -9  21  -2    3.97    1.99   1
  -9  21  -1   10.46    3.23   1
  -9  21   0   14.59    3.82   1
  -9  21   1    2.63    1.62   1
  -9  21   2   19.69    4.44   1
  -9  21   3    5.21    2.28   1
  -9  21   4    7.40    2.72   1
  -9  21   5    6.68    2.59   1
  -9  21   6   17.25    4.15   1
  -9  21   8    4.50    2.12   1
  -9  21   9   14.32    3.78   1
  -9  21  10   11.30    3.36   1
  -9  21  11    6.04    2.46   1
  -9  21  12    6.33    2.51   1
  -9  23 -10    3.93    1.98   1
  -9  23  -8   11.13    3.34   1
  -9  23  -7    7.31    2.70   1
  -9  23  -6   12.94    3.60   1
  -9  23  -5   18.23    4.27   1
  -9  23  -4    9.40    3.07   1
  -9  23  -3    7.35    2.71   1
  -9  23  -2    5.99    2.45   1
  -9  23  -1   13.12    3.62   1
  -9  23   0   29.59    5.44   1
  -9  23   1   10.27    3.21   1
  -9  23   2   10.28    3.21   1
  -9  23   3    7.72    2.78   1
  -9  23   5    7.60    2.76   1
  -9  23   6    7.76    2.79   1
  -9  23   7    5.55    2.36   1
  -9  23  10    3.08    1.75   1
  -9  23  11   16.20    4.02   1
  -9  23  12    8.97    2.99   1
  -8 -24 -20   10.04    3.17   1
  -8 -24 -15    4.10    2.02   1
  -8 -24 -14   16.58    4.07   1
  -8 -24 -13   16.37    4.05   1
  -8 -24 -11    7.23    2.69   1
  -8 -24 -10   17.29    4.16   1
  -8 -24  -2    2.47    1.57   1
  -8 -24  -1    6.79    2.61   1
  -8 -24   1   14.48    3.80   1
  -8 -24   2    5.78    2.40   1
  -8 -24   3    4.65    2.16   1
  -8 -24   5    4.20    2.05   1
  -8 -24   7    4.01    2.00   1
  -8 -24  10   16.95    4.12   1
  -8 -24  11    9.60    3.10   1
  -8 -24  12    6.05    2.46   1
  -8 -24  13   17.85    4.22   1
  -8 -24  17    3.42    1.85   1
  -8 -24  18   13.73    3.71   1
  -8 -24  19    3.41    1.85   1
  -8 -22 -20   12.45    3.53   1
  -8 -22 -19    2.50    1.58   1
  -8 -22 -16   11.13    3.34   1
  -8 -22  -9    3.71    1.93   1
  -8 -22  -8    8.73    2.96   1
  -8 -22  -7    4.50    2.12   1
  -8 -22  -6    4.28    2.07   1
  -8 -22  -5   10.95    3.31   1
  -8 -22  -2   11.77    3.43   1
  -8 -22  -1   23.77    4.88   1
  -8 -22   0    2.36    1.54   1
  -8 -22   1   17.52    4.19   1
  -8 -22   2    6.57    2.56   1
  -8 -22   3    1.79    1.34   1
  -8 -22   6    2.30    1.52   1
  -8 -22   7   15.78    3.97   1
  -8 -22   8   11.58    3.40   1
  -8 -22  10   13.37    3.66   1
  -8 -22  11   11.00    3.32   1
  -8 -22  12   21.67    4.66   1
  -8 -22  15    8.77    2.96   1
  -8 -22  18    5.24    2.29   1
  -8 -22  19    4.65    2.16   1
  -8 -22  23    4.57    2.14   1
  -8 -20 -19   13.31    3.65   1
  -8 -20 -14    3.30    1.82   1
  -8 -20 -10   14.70    3.83   1
  -8 -20  -9   11.96    3.46   1
  -8 -20  -7    2.72    1.65   1
  -8 -20  -3    7.91    2.81   1
  -8 -20  -2    8.79    2.97   1
  -8 -20  -1   20.89    4.57   1
  -8 -20   1   22.88    4.78   1
  -8 -20   5   16.88    4.11   1
  -8 -20   6    2.83    1.68   1
  -8 -20   7   15.71    3.96   1
  -8 -20   8   23.85    4.88   1
  -8 -20   9   12.75    3.57   1
  -8 -20  10    7.51    2.74   1
  -8 -20  11   25.73    5.07   1
  -8 -20  13   15.00    3.87   1
  -8 -20  14    4.44    2.11   1
  -8 -20  18    1.97    1.40   1
  -8 -20  19    3.88    1.97   1
  -8 -20  20    6.20    2.49   1
  -8 -18  -7   17.60    4.20   1
  -8 -18  -6    2.25    1.50   1
  -8 -18  -3   22.50    4.74   1
  -8 -18   0   15.34    3.92   1
  -8 -18   1   42.54    6.52   1
  -8 -18   2    3.53    1.88   1
  -8 -18   3    9.23    3.04   1
  -8 -18   4   13.39    3.66   1
  -8 -18   5   11.44    3.38   1
  -8 -18   6   17.59    4.19   1
  -8 -18   8    5.87    2.42   1
  -8 -18   9   30.18    5.49   1
  -8 -18  12    8.26    2.87   1
  -8 -18  13   28.95    5.38   1
  -8 -18  15   14.30    3.78   1
  -8 -18  19   14.89    3.86   1
  -8 -18  20   11.79    3.43   1
  -8 -18  21    9.68    3.11   1
  -8 -16 -21    9.96    3.16   1
  -8 -16 -19    1.90    1.38   1
  -8 -16 -15    8.25    2.87   1
  -8 -16  -9    2.59    1.61   1
  -8 -16  -7   39.83    6.31   1
  -8 -16  -5   87.78    9.37   1
  -8 -16  -4   31.20    5.59   1
  -8 -16  -3   28.27    5.32   1
  -8 -16  -1   19.99    4.47   1
  -8 -16   0   15.92    3.99   1
  -8 -16   1   60.40    7.77   1
  -8 -16   3    5.00    2.24   1
  -8 -16   4   18.15    4.26   1
  -8 -16   5   10.84    3.29   1
  -8 -16   6    2.45    1.57   1
  -8 -16   7   45.54    6.75   1
  -8 -16   8   18.30    4.28   1
  -8 -16   9    4.35    2.09   1
  -8 -16  10    4.01    2.00   1
  -8 -16  11   10.01    3.16   1
  -8 -16  12   25.54    5.05   1
  -8 -16  13   19.91    4.46   1
  -8 -16  17    1.64    1.28   1
  -8 -16  18   11.96    3.46   1
  -8 -16  21   11.25    3.35   1
  -8 -14 -19    5.83    2.41   1
  -8 -14 -18    9.25    3.04   1
  -8 -14 -17    5.01    2.24   1
  -8 -14 -14   11.14    3.34   1
  -8 -14 -13   14.10    3.75   1
  -8 -14 -12   20.25    4.50   1
  -8 -14 -10    3.67    1.92   1
  -8 -14  -7   18.80    4.34   1
  -8 -14  -5    7.76    2.79   1
  -8 -14  -4   30.08    5.48   1
  -8 -14  -3   23.85    4.88   1
  -8 -14  -1   63.08    7.94   1
  -8 -14   0   26.59    5.16   1
  -8 -14   1    2.00    1.42   1
  -8 -14   3   31.82    5.64   1
  -8 -14   5   21.23    4.61   1
  -8 -14   7   14.80    3.85   1
  -8 -14   9   27.08    5.20   1
  -8 -14  10    6.25    2.50   1
  -8 -14  11   18.00    4.24   1
  -8 -14  12   16.70    4.09   1
  -8 -14  13    6.75    2.60   1
  -8 -14  19   16.15    4.02   1
  -8 -12 -19   12.34    3.51   1
  -8 -12 -18    6.45    2.54   1
  -8 -12 -17    4.88    2.21   1
  -8 -12 -16   12.33    3.51   1
  -8 -12 -15   12.64    3.55   1
  -8 -12 -14   10.61    3.26   1
  -8 -12 -13   17.50    4.18   1
  -8 -12 -12    2.92    1.71   1
  -8 -12  -9   24.08    4.91   1
  -8 -12  -8   29.06    5.39   1
  -8 -12  -6   21.53    4.64   1
  -8 -12  -5   18.72    4.33   1
  -8 -12  -4   39.71    6.30   1
  -8 -12  -3    2.63    1.62   1
  -8 -12  -2    8.89    2.98   1
  -8 -12  -1   37.90    6.16   1
  -8 -12   0   26.92    5.19   1
  -8 -12   1   12.52    3.54   1
  -8 -12   2   22.62    4.76   1
  -8 -12   3   15.41    3.93   1
  -8 -12   5   38.68    6.22   1
  -8 -12   7    7.57    2.75   1
  -8 -12   8    5.06    2.25   1
  -8 -12   9   36.11    6.01   1
  -8 -12  10   17.51    4.18   1
  -8 -12  11   26.59    5.16   1
  -8 -12  12    3.45    1.86   1
  -8 -12  14   17.21    4.15   1
  -8 -12  16    6.49    2.55   1
  -8 -12  17   21.23    4.61   1
  -8 -12  19   11.91    3.45   1
  -8 -10 -19    5.29    2.30   1
  -8 -10 -18   27.38    5.23   1
  -8 -10 -17    3.68    1.92   1
  -8 -10 -15    6.15    2.48   1
  -8 -10 -14   32.14    5.67   1
  -8 -10 -13    2.85    1.69   1
  -8 -10 -12    4.76    2.18   1
  -8 -10 -11   27.94    5.29   1
  -8 -10 -10   11.40    3.38   1
  -8 -10  -8   11.40    3.38   1
  -8 -10  -7   55.29    7.44   1
  -8 -10  -6   26.25    5.12   1
  -8 -10  -5    1.55    1.24   1
  -8 -10  -4   26.40    5.14   1
  -8 -10  -3  176.93   13.30   1
  -8 -10  -2   20.10    4.48   1
  -8 -10  -1   13.65    3.69   1
  -8 -10   0   35.81    5.98   1
  -8 -10   1   14.85    3.85   1
  -8 -10   3   14.02    3.74   1
  -8 -10   4  185.91   13.63   1
  -8 -10   5   52.05    7.21   1
  -8 -10   6   17.95    4.24   1
  -8 -10   7   20.54    4.53   1
  -8 -10   8    8.79    2.97   1
  -8 -10   9   19.80    4.45   1
  -8 -10  10   17.88    4.23   1
  -8 -10  11   13.01    3.61   1
  -8 -10  12    4.08    2.02   1
  -8 -10  13   21.04    4.59   1
  -8 -10  14   20.33    4.51   1
  -8 -10  16   16.12    4.02   1
  -8  -8 -16   22.91    4.79   1
  -8  -8 -12   45.34    6.73   1
  -8  -8 -11   34.50    5.87   1
  -8  -8 -10   12.11    3.48   1
  -8  -8  -9   46.28    6.80   1
  -8  -8  -8    2.10    1.45   1
  -8  -8  -7   39.54    6.29   1
  -8  -8  -6   34.35    5.86   1
  -8  -8  -5   33.65    5.80   1
  -8  -8  -4   25.09    5.01   1
  -8  -8  -3   29.85    5.46   1
  -8  -8  -2   30.98    5.57   1
  -8  -8  -1   49.46    7.03   1
  -8  -8   0   90.25    9.50   1
  -8  -8   1   31.18    5.58   1
  -8  -8   2  102.82   10.14   1
  -8  -8   3   29.33    5.42   1
  -8  -8   4   60.37    7.77   1
  -8  -8   5   37.47    6.12   1
  -8  -8   6   28.23    5.31   1
  -8  -8   7   24.56    4.96   1
  -8  -8   8   24.83    4.98   1
  -8  -8   9   20.17    4.49   1
  -8  -8  10    7.72    2.78   1
  -8  -8  11   17.40    4.17   1
  -8  -8  12   10.27    3.21   1
  -8  -8  13   26.44    5.14   1
  -8  -8  14   18.39    4.29   1
  -8  -8  17    1.80    1.34   1
  -8  -8  18   19.82    4.45   1
  -8  -6 -17   26.27    5.13   1
  -8  -6 -15   30.60    5.53   1
  -8  -6 -13    2.85    1.69   1
  -8  -6 -11    2.35    1.53   1
  -8  -6  -9   20.02    4.47   1
  -8  -6  -8    8.85    2.97   1
  -8  -6  -7   15.75    3.97   1
  -8  -6  -6   26.48    5.15   1
  -8  -6  -5   66.72    8.17   1
  -8  -6  -4   31.82    5.64   1
  -8  -6  -3   13.69    3.70   1
  -8  -6  -2   48.79    6.98   1
  -8  -6  -1   52.17    7.22   1
  -8  -6   0  586.62   24.22   1
  -8  -6   1   61.12    7.82   1
  -8  -6   2   26.99    5.20   1
  -8  -6   3    4.54    2.13   1
  -8  -6   4    1.80    1.34   1
  -8  -6   5   19.80    4.45   1
  -8  -6   6   32.47    5.70   1
  -8  -6   7   28.13    5.30   1
  -8  -6   8   64.80    8.05   1
  -8  -6   9   19.73    4.44   1
  -8  -6  11   16.87    4.11   1
  -8  -6  12   15.71    3.96   1
  -8  -6  14   26.21    5.12   1
  -8  -6  16    8.36    2.89   1
  -8  -4 -18    4.83    2.20   1
  -8  -4 -15   15.45    3.93   1
  -8  -4 -14   14.03    3.75   1
  -8  -4 -12   26.92    5.19   1
  -8  -4  -9   27.83    5.27   1
  -8  -4  -8   96.70    9.83   1
  -8  -4  -7  354.70   18.83   1
  -8  -4  -5  125.55   11.20   1
  -8  -4  -4   80.85    8.99   1
  -8  -4  -3    7.35    2.71   1
  -8  -4  -1   15.71    3.96   1
  -8  -4   0   83.55    9.14   1
  -8  -4   1   23.36    4.83   1
  -8  -4   2   18.94    4.35   1
  -8  -4   3   26.63    5.16   1
  -8  -4   4   36.75    6.06   1
  -8  -4   5   20.88    4.57   1
  -8  -4   6   68.10    8.25   1
  -8  -4   7   30.75    5.55   1
  -8  -4   8  243.49   15.60   1
  -8  -4   9   31.24    5.59   1
  -8  -4  10   14.82    3.85   1
  -8  -4  11   13.09    3.62   1
  -8  -4  12    4.97    2.23   1
  -8  -4  13    7.16    2.68   1
  -8  -4  15    7.19    2.68   1
  -8  -4  17   22.32    4.72   1
  -8  -2 -17   34.26    5.85   1
  -8  -2 -16    9.71    3.12   1
  -8  -2 -15   31.50    5.61   1
  -8  -2 -14   25.24    5.02   1
  -8  -2 -12    2.65    1.63   1
  -8  -2 -11   10.43    3.23   1
  -8  -2 -10   10.30    3.21   1
  -8  -2  -8   33.58    5.80   1
  -8  -2  -7   52.37    7.24   1
  -8  -2  -6   42.77    6.54   1
  -8  -2  -5   19.91    4.46   1
  -8  -2  -4   32.60    5.71   1
  -8  -2  -3   33.60    5.80   1
  -8  -2  -2   39.86    6.31   1
  -8  -2  -1   62.03    7.88   1
  -8  -2   0  348.52   18.67   1
  -8  -2   1   24.24    4.92   1
  -8  -2   2   32.58    5.71   1
  -8  -2   3   27.75    5.27   1
  -8  -2   4   47.14    6.87   1
  -8  -2   5   31.58    5.62   1
  -8  -2   6  205.57   14.34   1
  -8  -2   7   35.85    5.99   1
  -8  -2   8   75.38    8.68   1
  -8  -2   9   23.23    4.82   1
  -8  -2  10   85.95    9.27   1
  -8  -2  11   11.79    3.43   1
  -8  -2  12   34.27    5.85   1
  -8  -2  13   24.15    4.91   1
  -8  -2  14   19.24    4.39   1
  -8  -2  15   15.49    3.94   1
  -8  -2  16   15.90    3.99   1
  -8   0 -16   47.55    6.90   1
  -8   0 -14   27.12    5.21   1
  -8   0 -13    5.46    2.34   1
  -8   0 -12   17.17    4.14   1
  -8   0 -11   20.70    4.55   1
  -8   0 -10   83.59    9.14   1
  -8   0  -9   44.44    6.67   1
  -8   0  -8  125.47   11.20   1
  -8   0  -7   67.13    8.19   1
  -8   0  -6   21.30    4.62   1
  -8   0  -5   71.54    8.46   1
  -8   0  -4   52.95    7.28   1
  -8   0  -1   54.34    7.37   1
  -8   0   0  224.28   14.98   1
  -8   0   1   22.04    4.69   1
  -8   0   2   43.11    6.57   1
  -8   0   3   36.05    6.00   1
  -8   0   5   53.25    7.30   1
  -8   0   6  149.60   12.23   1
  -8   0   7   54.30    7.37   1
  -8   0   8  627.53   25.05   1
  -8   0   9   44.67    6.68   1
  -8   0  10   77.32    8.79   1
  -8   0  11   22.30    4.72   1
  -8   0  12   40.72    6.38   1
  -8   0  14   10.73    3.28   1
  -8   0  15   16.84    4.10   1
  -8   2 -16   11.21    3.35   1
  -8   2 -15    6.90    2.63   1
  -8   2 -13   18.04    4.25   1
  -8   2 -12   13.73    3.70   1
  -8   2 -11   10.73    3.27   1
  -8   2 -10  133.95   11.57   1
  -8   2  -9   46.61    6.83   1
  -8   2  -8   67.50    8.22   1
  -8   2  -7   58.83    7.67   1
  -8   2  -6  101.25   10.06   1
  -8   2  -5   75.64    8.70   1
  -8   2  -4   28.61    5.35   1
  -8   2  -3   13.97    3.74   1
  -8   2  -2   38.62    6.21   1
  -8   2  -1   28.61    5.35   1
  -8   2   0  320.30   17.90   1
  -8   2   1   45.30    6.73   1
  -8   2   2   14.85    3.85   1
  -8   2   3   23.91    4.89   1
  -8   2   4   42.07    6.49   1
  -8   2   5   18.67    4.32   1
  -8   2   6  147.60   12.15   1
  -8   2   7   19.35    4.40   1
  -8   2   8  105.79   10.29   1
  -8   2   9   37.79    6.15   1
  -8   2  10  139.43   11.81   1
  -8   2  11   38.00    6.16   1
  -8   2  12   43.49    6.59   1
  -8   2  13   22.91    4.79   1
  -8   2  14   17.93    4.23   1
  -8   4 -15    8.40    2.90   1
  -8   4 -12   11.93    3.45   1
  -8   4 -11   18.56    4.31   1
  -8   4 -10   13.53    3.68   1
  -8   4  -9   25.65    5.06   1
  -8   4  -8  230.79   15.19   1
  -8   4  -7  282.93   16.82   1
  -8   4  -6  118.99   10.91   1
  -8   4  -5   19.99    4.47   1
  -8   4  -4   52.50    7.25   1
  -8   4  -3   13.45    3.67   1
  -8   4  -1   37.20    6.10   1
  -8   4   0  245.70   15.67   1
  -8   4   1   22.24    4.72   1
  -8   4   3   59.03    7.68   1
  -8   4   4   35.45    5.95   1
  -8   4   5   46.52    6.82   1
  -8   4   6  112.00   10.58   1
  -8   4   7   45.25    6.73   1
  -8   4   8  388.47   19.71   1
  -8   4   9   27.00    5.20   1
  -8   4  10   11.40    3.38   1
  -8   4  12   35.45    5.95   1
  -8   4  14   17.25    4.15   1
  -8   6 -15    2.67    1.64   1
  -8   6 -14   13.01    3.61   1
  -8   6 -13   18.79    4.33   1
  -8   6 -12   13.46    3.67   1
  -8   6 -11    8.94    2.99   1
  -8   6 -10    3.70    1.92   1
  -8   6  -9   19.58    4.42   1
  -8   6  -8    2.88    1.70   1
  -8   6  -6   22.84    4.78   1
  -8   6  -5   53.00    7.28   1
  -8   6  -4    8.77    2.96   1
  -8   6  -3   29.02    5.39   1
  -8   6  -2   21.55    4.64   1
  -8   6  -1   54.25    7.37   1
  -8   6   0  168.74   12.99   1
  -8   6   1   22.54    4.75   1
  -8   6   2   20.98    4.58   1
  -8   6   3   43.50    6.60   1
  -8   6   4   22.95    4.79   1
  -8   6   5   14.17    3.76   1
  -8   6   6   62.96    7.93   1
  -8   6   7    4.41    2.10   1
  -8   6   8    8.77    2.96   1
  -8   6  12   22.93    4.79   1
  -8   6  13   11.25    3.35   1
  -8   8 -14    6.15    2.48   1
  -8   8 -12   14.66    3.83   1
  -8   8 -11   25.13    5.01   1
  -8   8  -8   42.30    6.50   1
  -8   8  -6  108.53   10.42   1
  -8   8  -5   18.54    4.31   1
  -8   8  -4   75.64    8.70   1
  -8   8  -3   11.85    3.44   1
  -8   8  -2  117.04   10.82   1
  -8   8  -1   56.68    7.53   1
  -8   8   0   53.59    7.32   1
  -8   8   1   38.40    6.20   1
  -8   8   2   47.77    6.91   1
  -8   8   3    9.72    3.12   1
  -8   8   4   75.00    8.66   1
  -8   8   5   20.89    4.57   1
  -8   8   6   89.43    9.46   1
  -8   8   7   27.57    5.25   1
  -8   8   8   29.29    5.41   1
  -8   8  10   16.05    4.01   1
  -8   8  11   13.57    3.68   1
  -8   8  12   19.73    4.44   1
  -8  10 -13   31.73    5.63   1
  -8  10 -12   18.05    4.25   1
  -8  10 -11   11.87    3.45   1
  -8  10 -10   10.46    3.23   1
  -8  10  -9   20.63    4.54   1
  -8  10  -8   85.20    9.23   1
  -8  10  -7   51.11    7.15   1
  -8  10  -6   15.72    3.97   1
  -8  10  -5   12.10    3.48   1
  -8  10  -4  177.52   13.32   1
  -8  10  -3   28.47    5.34   1
  -8  10  -2   27.98    5.29   1
  -8  10  -1   31.76    5.64   1
  -8  10   0   43.26    6.58   1
  -8  10   1   24.49    4.95   1
  -8  10   2   34.95    5.91   1
  -8  10   3   21.45    4.63   1
  -8  10   4  197.63   14.06   1
  -8  10   5   61.28    7.83   1
  -8  10   7    9.43    3.07   1
  -8  10   8   18.11    4.26   1
  -8  10   9   31.29    5.59   1
  -8  10  10    5.66    2.38   1
  -8  10  11   40.05    6.33   1
  -8  10  13    5.25    2.29   1
  -8  12 -13    6.55    2.56   1
  -8  12 -12    6.87    2.62   1
  -8  12 -11   24.90    4.99   1
  -8  12 -10   34.47    5.87   1
  -8  12  -8   71.10    8.43   1
  -8  12  -6   31.84    5.64   1
  -8  12  -5   47.59    6.90   1
  -8  12  -4   18.13    4.26   1
  -8  12  -3   29.82    5.46   1
  -8  12  -2   69.82    8.36   1
  -8  12  -1   41.29    6.43   1
  -8  12   0   51.34    7.17   1
  -8  12   1   27.56    5.25   1
  -8  12   2   91.90    9.59   1
  -8  12   3   18.34    4.28   1
  -8  12   4   43.32    6.58   1
  -8  12   5   31.42    5.60   1
  -8  12   6   11.66    3.42   1
  -8  12   7   18.53    4.30   1
  -8  12   8   82.35    9.07   1
  -8  12  10   14.42    3.80   1
  -8  12  11   22.65    4.76   1
  -8  14 -12    1.80    1.34   1
  -8  14 -10   39.94    6.32   1
  -8  14  -9    5.55    2.36   1
  -8  14  -8   10.39    3.22   1
  -8  14  -7   24.02    4.90   1
  -8  14  -6   10.70    3.27   1
  -8  14  -5   52.91    7.27   1
  -8  14  -3   13.92    3.73   1
  -8  14  -2   13.50    3.67   1
  -8  14  -1   22.58    4.75   1
  -8  14   0   70.02    8.37   1
  -8  14   1   88.80    9.42   1
  -8  14   2   18.52    4.30   1
  -8  14   3   20.77    4.56   1
  -8  14   4    8.63    2.94   1
  -8  14   5   37.61    6.13   1
  -8  14   6   33.90    5.82   1
  -8  14   7   19.50    4.42   1
  -8  14   8   35.10    5.92   1
  -8  14   9   29.16    5.40   1
  -8  14  10   26.92    5.19   1
  -8  14  11    3.64    1.91   1
  -8  14  12   25.97    5.10   1
  -8  16 -12   15.27    3.91   1
  -8  16 -11    9.86    3.14   1
  -8  16 -10   18.15    4.26   1
  -8  16  -9    1.68    1.30   1
  -8  16  -8   25.27    5.03   1
  -8  16  -7    6.68    2.58   1
  -8  16  -6   99.97   10.00   1
  -8  16  -5   17.25    4.15   1
  -8  16  -4   44.07    6.64   1
  -8  16  -3   14.44    3.80   1
  -8  16  -2   34.40    5.87   1
  -8  16  -1   20.77    4.56   1
  -8  16   0   43.66    6.61   1
  -8  16   1   44.70    6.69   1
  -8  16   2   19.73    4.44   1
  -8  16   3   41.47    6.44   1
  -8  16   4   12.20    3.49   1
  -8  16   5   17.40    4.17   1
  -8  16   6   47.76    6.91   1
  -8  16   7   50.71    7.12   1
  -8  16   8    8.63    2.94   1
  -8  16   9   19.82    4.45   1
  -8  16  10   11.21    3.35   1
  -8  16  11    8.14    2.85   1
  -8  18 -11   11.48    3.39   1
  -8  18  -9    6.64    2.58   1
  -8  18  -8   37.24    6.10   1
  -8  18  -7   14.64    3.83   1
  -8  18  -6    8.03    2.83   1
  -8  18  -5   16.65    4.08   1
  -8  18  -4   29.85    5.46   1
  -8  18  -3   30.87    5.56   1
  -8  18  -2   11.55    3.40   1
  -8  18  -1   38.25    6.18   1
  -8  18   0   26.97    5.19   1
  -8  18   1    3.71    1.93   1
  -8  18   2   18.66    4.32   1
  -8  18   3    4.90    2.21   1
  -8  18   4   13.00    3.61   1
  -8  18   5   10.77    3.28   1
  -8  18   6   17.17    4.14   1
  -8  18   7   28.03    5.29   1
  -8  18   8    8.54    2.92   1
  -8  18   9   10.90    3.30   1
  -8  18  11   10.01    3.16   1
  -8  20 -10   12.07    3.47   1
  -8  20  -8    8.60    2.93   1
  -8  20  -7   17.22    4.15   1
  -8  20  -6   24.38    4.94   1
  -8  20  -5   13.85    3.72   1
  -8  20  -4   24.41    4.94   1
  -8  20  -3   13.73    3.70   1
  -8  20  -2   15.06    3.88   1
  -8  20  -1   31.20    5.59   1
  -8  20   0   19.58    4.42   1
  -8  20   1   41.97    6.48   1
  -8  20   2   12.79    3.58   1
  -8  20   3    9.07    3.01   1
  -8  20   4   20.59    4.54   1
  -8  20   5    9.44    3.07   1
  -8  20   6    4.69    2.17   1
  -8  20   7   24.26    4.93   1
  -8  20   8   11.68    3.42   1
  -8  20   9   19.65    4.43   1
  -8  22 -10   11.78    3.43   1
  -8  22  -8    8.48    2.91   1
  -8  22  -7    6.65    2.58   1
  -8  22  -6   21.45    4.63   1
  -8  22  -5    1.73    1.31   1
  -8  22  -3    8.59    2.93   1
  -8  22  -2   34.01    5.83   1
  -8  22  -1   36.06    6.00   1
  -8  22   0   26.27    5.13   1
  -8  22   1   19.99    4.47   1
  -8  22   2   28.58    5.35   1
  -8  22   3   19.95    4.47   1
  -8  22   4    5.21    2.28   1
  -8  22   5    2.33    1.52   1
  -8  22   6   12.38    3.52   1
  -8  22   7   17.70    4.21   1
  -8  22   9   18.60    4.31   1
  -8  24  -9   15.34    3.92   1
  -8  24  -8    2.59    1.61   1
  -8  24  -7    1.80    1.34   1
  -8  24  -5   10.76    3.28   1
  -8  24  -4   11.36    3.37   1
  -8  24  -3   11.10    3.33   1
  -8  24  -2    9.79    3.13   1
  -8  24  -1   20.92    4.57   1
  -8  24   0   15.67    3.96   1
  -8  24   1   30.45    5.52   1
  -8  24   2   12.00    3.46   1
  -8  24   3   35.71    5.98   1
  -8  24   4   18.60    4.31   1
  -8  24   5    9.34    3.06   1
  -8  24   6   17.80    4.22   1
  -8  24   8    8.04    2.84   1
  -8  24   9    3.45    1.86   1
  -8  24  10    7.19    2.68   1
  -7 -23 -20    2.42    1.56   1
  -7 -23 -19   15.07    3.88   1
  -7 -23 -15    4.80    2.19   1
  -7 -23 -14    3.16    1.78   1
  -7 -23 -11    2.05    1.43   1
  -7 -23 -10    2.40    1.55   1
  -7 -23  -9   22.04    4.69   1
  -7 -23  -7   10.99    3.31   1
  -7 -23  -5   13.84    3.72   1
  -7 -23  -4   19.05    4.36   1
  -7 -23  -3    7.08    2.66   1
  -7 -23  -2   13.46    3.67   1
  -7 -23  -1    9.07    3.01   1
  -7 -23   0    5.96    2.44   1
  -7 -23   1   15.26    3.91   1
  -7 -23   2   16.95    4.12   1
  -7 -23   4    7.65    2.77   1
  -7 -23   5   24.49    4.95   1
  -7 -23   6   11.85    3.44   1
  -7 -23   7    1.88    1.37   1
  -7 -23   9    4.16    2.04   1
  -7 -23  10    9.68    3.11   1
  -7 -23  14    7.17    2.68   1
  -7 -23  16   16.50    4.06   1
  -7 -23  17    3.18    1.78   1
  -7 -23  18    2.70    1.64   1
  -7 -23  19   10.61    3.26   1
  -7 -23  20    5.60    2.37   1
  -7 -23  21    2.59    1.61   1
  -7 -21 -20    5.32    2.31   1
  -7 -21 -19    9.86    3.14   1
  -7 -21 -18    4.86    2.20   1
  -7 -21 -17    5.06    2.25   1
  -7 -21 -13    2.89    1.70   1
  -7 -21 -12    6.07    2.46   1
  -7 -21 -11    3.94    1.98   1
  -7 -21  -8    1.62    1.27   1
  -7 -21  -7   15.15    3.89   1
  -7 -21  -6   13.16    3.63   1
  -7 -21  -5   21.40    4.63   1
  -7 -21  -4   35.25    5.94   1
  -7 -21  -3   16.27    4.03   1
  -7 -21  -2   11.77    3.43   1
  -7 -21  -1    2.10    1.45   1
  -7 -21   0   22.73    4.77   1
  -7 -21   1   16.65    4.08   1
  -7 -21   2   16.58    4.07   1
  -7 -21   3   11.21    3.35   1
  -7 -21   5   12.86    3.59   1
  -7 -21   6   11.96    3.46   1
  -7 -21   7    6.82    2.61   1
  -7 -21   8   17.63    4.20   1
  -7 -21   9   36.64    6.05   1
  -7 -21  11   11.48    3.39   1
  -7 -21  12   12.11    3.48   1
  -7 -21  13    7.88    2.81   1
  -7 -21  14   10.69    3.27   1
  -7 -21  16    9.75    3.12   1
  -7 -21  18   14.29    3.78   1
  -7 -19 -19   12.86    3.59   1
  -7 -19 -17    9.82    3.13   1
  -7 -19 -13    9.30    3.05   1
  -7 -19  -9    4.09    2.02   1
  -7 -19  -8   44.47    6.67   1
  -7 -19  -6   16.42    4.05   1
  -7 -19  -5    1.88    1.37   1
  -7 -19  -4    9.18    3.03   1
  -7 -19  -3   73.72    8.59   1
  -7 -19  -2   53.10    7.29   1
  -7 -19   0    8.99    3.00   1
  -7 -19   1   15.82    3.98   1
  -7 -19   2   26.02    5.10   1
  -7 -19   3   20.79    4.56   1
  -7 -19   4   11.63    3.41   1
  -7 -19   5   20.81    4.56   1
  -7 -19   6   29.41    5.42   1
  -7 -19   7   11.18    3.34   1
  -7 -19   8   19.39    4.40   1
  -7 -19   9    3.63    1.90   1
  -7 -19  10   17.70    4.21   1
  -7 -19  13   16.42    4.05   1
  -7 -19  14   21.30    4.62   1
  -7 -19  15    6.05    2.46   1
  -7 -19  19    9.75    3.12   1
  -7 -17 -18    8.63    2.94   1
  -7 -17 -17   19.48    4.41   1
  -7 -17 -16   15.54    3.94   1
  -7 -17 -15   16.01    4.00   1
  -7 -17 -12    5.32    2.31   1
  -7 -17  -9   31.95    5.65   1
  -7 -17  -7    8.63    2.94   1
  -7 -17  -6   10.72    3.27   1
  -7 -17  -5   31.16    5.58   1
  -7 -17  -4   14.49    3.81   1
  -7 -17  -2   21.41    4.63   1
  -7 -17  -1    3.38    1.84   1
  -7 -17   0   20.02    4.47   1
  -7 -17   1   27.26    5.22   1
  -7 -17   2    6.38    2.52   1
  -7 -17   3    8.96    2.99   1
  -7 -17   4   20.22    4.50   1
  -7 -17   6   21.23    4.61   1
  -7 -17   7   10.60    3.26   1
  -7 -17   8    8.28    2.88   1
  -7 -17  10   16.96    4.12   1
  -7 -17  11    1.86    1.36   1
  -7 -17  18   11.32    3.37   1
  -7 -15 -18   10.96    3.31   1
  -7 -15 -16    7.20    2.68   1
  -7 -15 -14   19.13    4.37   1
  -7 -15 -13   21.19    4.60   1
  -7 -15 -12   18.86    4.34   1
  -7 -15 -11   41.03    6.41   1
  -7 -15  -8    6.15    2.48   1
  -7 -15  -7    6.30    2.51   1
  -7 -15  -6   32.85    5.73   1
  -7 -15  -5   47.40    6.88   1
  -7 -15  -4   90.38    9.51   1
  -7 -15  -3   40.15    6.34   1
  -7 -15  -2    4.88    2.21   1
  -7 -15  -1   25.44    5.04   1
  -7 -15   0   14.88    3.86   1
  -7 -15   1   16.66    4.08   1
  -7 -15   2    3.79    1.95   1
  -7 -15   4   17.48    4.18   1
  -7 -15   5   10.75    3.28   1
  -7 -15   6   26.89    5.19   1
  -7 -15   7   16.98    4.12   1
  -7 -15   8   41.66    6.45   1
  -7 -15   9   33.59    5.80   1
  -7 -15  10   13.86    3.72   1
  -7 -15  12   14.48    3.80   1
  -7 -15  13    3.38    1.84   1
  -7 -15  14   16.62    4.08   1
  -7 -15  15   12.64    3.55   1
  -7 -13 -18    9.00    3.00   1
  -7 -13 -17   13.42    3.66   1
  -7 -13 -13   16.04    4.00   1
  -7 -13 -11   12.52    3.54   1
  -7 -13 -10   21.19    4.60   1
  -7 -13  -9   15.36    3.92   1
  -7 -13  -8   35.78    5.98   1
  -7 -13  -7   78.08    8.84   1
  -7 -13  -6   57.67    7.59   1
  -7 -13  -5   46.11    6.79   1
  -7 -13  -4   12.55    3.54   1
  -7 -13  -3    8.47    2.91   1
  -7 -13  -2   14.81    3.85   1
  -7 -13  -1   14.13    3.76   1
  -7 -13   0    2.29    1.51   1
  -7 -13   1    5.09    2.26   1
  -7 -13   3   14.18    3.76   1
  -7 -13   4    4.65    2.16   1
  -7 -13   5    5.67    2.38   1
  -7 -13   7   18.51    4.30   1
  -7 -13   8   61.13    7.82   1
  -7 -13   9   13.69    3.70   1
  -7 -13  11    7.35    2.71   1
  -7 -13  12   18.94    4.35   1
  -7 -13  14    2.80    1.67   1
  -7 -13  15    5.57    2.36   1
  -7 -13  16    2.92    1.71   1
  -7 -11 -18    2.59    1.61   1
  -7 -11 -16    5.52    2.35   1
  -7 -11 -12    4.50    2.12   1
  -7 -11 -11    1.84    1.36   1
  -7 -11 -10   20.40    4.52   1
  -7 -11  -8   16.80    4.10   1
  -7 -11  -6   14.32    3.78   1
  -7 -11  -5   64.76    8.05   1
  -7 -11  -4  102.75   10.14   1
  -7 -11  -3  138.07   11.75   1
  -7 -11  -2   90.70    9.52   1
  -7 -11  -1    8.00    2.83   1
  -7 -11   0   29.27    5.41   1
  -7 -11   1    1.80    1.34   1
  -7 -11   2    8.18    2.86   1
  -7 -11   3   47.85    6.92   1
  -7 -11   4   71.79    8.47   1
  -7 -11   5   42.75    6.54   1
  -7 -11   6   33.04    5.75   1
  -7 -11   9   17.72    4.21   1
  -7 -11  10   10.37    3.22   1
  -7 -11  11    4.86    2.20   1
  -7 -11  12    4.80    2.19   1
  -7 -11  13   23.63    4.86   1
  -7 -11  17    4.05    2.01   1
  -7  -9 -16    5.14    2.27   1
  -7  -9 -13   19.89    4.46   1
  -7  -9 -12  184.35   13.58   1
  -7  -9 -11   83.96    9.16   1
  -7  -9 -10    4.20    2.05   1
  -7  -9  -8   15.78    3.97   1
  -7  -9  -7    4.84    2.20   1
  -7  -9  -5   25.01    5.00   1
  -7  -9  -4   21.58    4.65   1
  -7  -9  -3   25.09    5.01   1
  -7  -9  -2   39.15    6.26   1
  -7  -9  -1   33.19    5.76   1
  -7  -9   1   32.70    5.72   1
  -7  -9   2   28.24    5.31   1
  -7  -9   3   30.64    5.54   1
  -7  -9   4   35.03    5.92   1
  -7  -9   5   17.89    4.23   1
  -7  -9   6   19.54    4.42   1
  -7  -9   7   17.55    4.19   1
  -7  -9   8   32.92    5.74   1
  -7  -9   9   15.34    3.92   1
  -7  -9  10   20.10    4.48   1
  -7  -9  12   50.00    7.07   1
  -7  -9  13   65.05    8.07   1
  -7  -9  14   48.67    6.98   1
  -7  -9  15    2.52    1.59   1
  -7  -9  16   68.32    8.27   1
  -7  -7 -15   16.24    4.03   1
  -7  -7 -14   13.84    3.72   1
  -7  -7 -12   47.35    6.88   1
  -7  -7 -10   19.95    4.47   1
  -7  -7  -9   18.57    4.31   1
  -7  -7  -8   42.53    6.52   1
  -7  -7  -7    2.70    1.64   1
  -7  -7  -6   39.49    6.28   1
  -7  -7  -5   12.72    3.57   1
  -7  -7  -4   18.19    4.26   1
  -7  -7  -3   85.43    9.24   1
  -7  -7  -2   53.97    7.35   1
  -7  -7  -1   96.07    9.80   1
  -7  -7   1   65.00    8.06   1
  -7  -7   2  109.05   10.44   1
  -7  -7   3   61.72    7.86   1
  -7  -7   4  121.13   11.01   1
  -7  -7   5    9.56    3.09   1
  -7  -7   6   53.14    7.29   1
  -7  -7   7   16.36    4.05   1
  -7  -7   8   34.23    5.85   1
  -7  -7   9   11.25    3.35   1
  -7  -7  10   24.07    4.91   1
  -7  -7  11   20.09    4.48   1
  -7  -7  13   10.81    3.29   1
  -7  -7  14   14.07    3.75   1
  -7  -5 -15    6.00    2.45   1
  -7  -5 -14   13.94    3.73   1
  -7  -5 -13   11.67    3.42   1
  -7  -5 -12    9.52    3.09   1
  -7  -5 -10    8.00    2.83   1
  -7  -5  -9   24.26    4.93   1
  -7  -5  -8   13.27    3.64   1
  -7  -5  -7   24.71    4.97   1
  -7  -5  -6   30.15    5.49   1
  -7  -5  -5   39.21    6.26   1
  -7  -5  -4   42.32    6.51   1
  -7  -5  -3   92.35    9.61   1
  -7  -5  -2   10.46    3.23   1
  -7  -5  -1   25.84    5.08   1
  -7  -5   1   24.42    4.94   1
  -7  -5   2   98.93    9.95   1
  -7  -5   3   44.29    6.65   1
  -7  -5   4  197.40   14.05   1
  -7  -5   5   95.79    9.79   1
  -7  -5   6   34.99    5.92   1
  -7  -5   7   18.86    4.34   1
  -7  -5   8    9.26    3.04   1
  -7  -5   9   26.35    5.13   1
  -7  -5  10   23.93    4.89   1
  -7  -5  11    4.24    2.06   1
  -7  -5  12   20.73    4.55   1
  -7  -5  13   24.23    4.92   1
  -7  -3 -15    6.53    2.55   1
  -7  -3 -14   26.55    5.15   1
  -7  -3 -13   15.90    3.99   1
  -7  -3 -12   12.86    3.59   1
  -7  -3 -11   18.46    4.30   1
  -7  -3 -10   14.01    3.74   1
  -7  -3  -9   33.30    5.77   1
  -7  -3  -8   67.49    8.22   1
  -7  -3  -7   48.17    6.94   1
  -7  -3  -6   22.80    4.77   1
  -7  -3  -5  135.19   11.63   1
  -7  -3  -4  283.80   16.85   1
  -7  -3  -3  123.47   11.11   1
  -7  -3  -2   34.42    5.87   1
  -7  -3  -1   43.95    6.63   1
  -7  -3   0    6.53    2.55   1
  -7  -3   1   11.44    3.38   1
  -7  -3   2   24.64    4.96   1
  -7  -3   3   74.93    8.66   1
  -7  -3   4  505.27   22.48   1
  -7  -3   5  164.51   12.83   1
  -7  -3   7   23.30    4.83   1
  -7  -3   8   62.03    7.88   1
  -7  -3   9   17.53    4.19   1
  -7  -3  10    8.69    2.95   1
  -7  -3  11   27.52    5.25   1
  -7  -3  12   49.46    7.03   1
  -7  -3  13   60.60    7.78   1
  -7  -3  14   79.88    8.94   1
  -7  -1 -13   10.95    3.31   1
  -7  -1 -12   25.88    5.09   1
  -7  -1 -11    9.40    3.07   1
  -7  -1 -10   15.75    3.97   1
  -7  -1  -9    9.90    3.15   1
  -7  -1  -8   61.83    7.86   1
  -7  -1  -7  229.13   15.14   1
  -7  -1  -6  372.03   19.29   1
  -7  -1  -5  457.92   21.40   1
  -7  -1  -4  151.32   12.30   1
  -7  -1  -3   26.21    5.12   1
  -7  -1  -2  186.26   13.65   1
  -7  -1  -1   44.76    6.69   1
  -7  -1   0   31.01    5.57   1
  -7  -1   1   33.30    5.77   1
  -7  -1   2  125.93   11.22   1
  -7  -1   3   51.83    7.20   1
  -7  -1   4  140.79   11.87   1
  -7  -1   5  497.67   22.31   1
  -7  -1   6  779.25   27.92   1
  -7  -1   7  188.15   13.72   1
  -7  -1   8  106.43   10.32   1
  -7  -1   9    6.15    2.48   1
  -7  -1  10   26.21    5.12   1
  -7  -1  11   36.41    6.03   1
  -7  -1  12    8.13    2.85   1
  -7  -1  13   28.84    5.37   1
  -7  -1  14   42.86    6.55   1
  -7   1 -15    5.36    2.32   1
  -7   1 -14   29.39    5.42   1
  -7   1 -13   44.48    6.67   1
  -7   1 -12   16.05    4.01   1
  -7   1 -11    3.64    1.91   1
  -7   1 -10    5.05    2.25   1
  -7   1  -9   13.27    3.64   1
  -7   1  -7   85.57    9.25   1
  -7   1  -6  490.39   22.14   1
  -7   1  -5  522.45   22.86   1
  -7   1  -4   74.63    8.64   1
  -7   1  -3   20.94    4.58   1
  -7   1  -2  232.35   15.24   1
  -7   1  -1   30.52    5.52   1
  -7   1   0   23.58    4.86   1
  -7   1   1   21.60    4.65   1
  -7   1   2  146.29   12.09   1
  -7   1   3   40.28    6.35   1
  -7   1   4  101.82   10.09   1
  -7   1   5  433.65   20.82   1
  -7   1   6  753.85   27.46   1
  -7   1   7  129.98   11.40   1
  -7   1   8   15.52    3.94   1
  -7   1   9   11.03    3.32   1
  -7   1  10   27.99    5.29   1
  -7   1  12   21.26    4.61   1
  -7   1  13   36.75    6.06   1
  -7   3 -13   34.33    5.86   1
  -7   3 -12   37.42    6.12   1
  -7   3 -11   30.64    5.54   1
  -7   3 -10   44.59    6.68   1
  -7   3  -9   45.26    6.73   1
  -7   3  -8   60.83    7.80   1
  -7   3  -7   12.68    3.56   1
  -7   3  -6   61.91    7.87   1
  -7   3  -5  166.88   12.92   1
  -7   3  -4  466.07   21.59   1
  -7   3  -3  147.45   12.14   1
  -7   3  -2   22.73    4.77   1
  -7   3  -1    4.95    2.22   1
  -7   3   0    3.54    1.88   1
  -7   3   1   25.29    5.03   1
  -7   3   2   37.18    6.10   1
  -7   3   3   93.84    9.69   1
  -7   3   4  459.98   21.45   1
  -7   3   5  207.15   14.39   1
  -7   3   6   30.93    5.56   1
  -7   3   7   32.28    5.68   1
  -7   3   8   74.43    8.63   1
  -7   3   9   29.63    5.44   1
  -7   3  10   22.21    4.71   1
  -7   3  11    7.10    2.66   1
  -7   3  12   38.03    6.17   1
  -7   3  13   39.83    6.31   1
  -7   5 -13   14.74    3.84   1
  -7   5 -12   10.20    3.19   1
  -7   5 -11   23.52    4.85   1
  -7   5 -10   14.70    3.83   1
  -7   5  -9   23.74    4.87   1
  -7   5  -8   23.55    4.85   1
  -7   5  -7   20.63    4.54   1
  -7   5  -6   25.88    5.09   1
  -7   5  -5   64.69    8.04   1
  -7   5  -4  127.68   11.30   1
  -7   5  -3  107.07   10.35   1
  -7   5  -2   17.85    4.22   1
  -7   5  -1   42.34    6.51   1
  -7   5   0   38.47    6.20   1
  -7   5   1   19.05    4.36   1
  -7   5   2   23.70    4.87   1
  -7   5   3   30.26    5.50   1
  -7   5   4  152.77   12.36   1
  -7   5   5   38.90    6.24   1
  -7   5   6   33.30    5.77   1
  -7   5   7   30.30    5.50   1
  -7   5   8   22.80    4.77   1
  -7   5   9   13.73    3.70   1
  -7   5  10   26.78    5.17   1
  -7   5  11   21.38    4.62   1
  -7   5  12   23.74    4.87   1
  -7   7 -13   49.95    7.07   1
  -7   7 -11   17.30    4.16   1
  -7   7 -10   29.06    5.39   1
  -7   7  -8   11.75    3.43   1
  -7   7  -7   45.15    6.72   1
  -7   7  -6   41.74    6.46   1
  -7   7  -5   19.84    4.45   1
  -7   7  -4   88.21    9.39   1
  -7   7  -3  106.45   10.32   1
  -7   7  -2  204.65   14.31   1
  -7   7  -1   59.40    7.71   1
  -7   7   0   13.13    3.62   1
  -7   7   1   67.88    8.24   1
  -7   7   2  189.29   13.76   1
  -7   7   3  107.91   10.39   1
  -7   7   4   87.50    9.35   1
  -7   7   5   32.40    5.69   1
  -7   7   6  134.73   11.61   1
  -7   7   7   53.80    7.34   1
  -7   7   8   47.40    6.88   1
  -7   7   9   29.85    5.46   1
  -7   7  10   17.63    4.20   1
  -7   7  11    7.92    2.81   1
  -7   9 -12   63.59    7.97   1
  -7   9 -11   19.69    4.44   1
  -7   9 -10   23.60    4.86   1
  -7   9  -9   57.76    7.60   1
  -7   9  -8   27.82    5.27   1
  -7   9  -7   52.58    7.25   1
  -7   9  -6   18.52    4.30   1
  -7   9  -5   21.15    4.60   1
  -7   9  -4   33.86    5.82   1
  -7   9  -3   21.75    4.66   1
  -7   9  -2   34.58    5.88   1
  -7   9  -1    2.06    1.44   1
  -7   9   1   30.08    5.48   1
  -7   9   2   24.86    4.99   1
  -7   9   3   46.14    6.79   1
  -7   9   4   15.86    3.98   1
  -7   9   6   17.77    4.22   1
  -7   9   7   30.97    5.57   1
  -7   9   8   15.75    3.97   1
  -7   9   9   22.88    4.78   1
  -7   9  10   17.40    4.17   1
  -7   9  11    7.60    2.76   1
  -7  11 -11   12.98    3.60   1
  -7  11 -10    9.90    3.15   1
  -7  11  -9   37.08    6.09   1
  -7  11  -8    5.93    2.43   1
  -7  11  -7   23.91    4.89   1
  -7  11  -6   50.15    7.08   1
  -7  11  -5   55.60    7.46   1
  -7  11  -4  102.38   10.12   1
  -7  11  -3   61.64    7.85   1
  -7  11  -2   23.92    4.89   1
  -7  11  -1   18.94    4.35   1
  -7  11   0    1.69    1.30   1
  -7  11   1   18.60    4.31   1
  -7  11   2   31.50    5.61   1
  -7  11   3   31.05    5.57   1
  -7  11   4  123.56   11.12   1
  -7  11   5   66.88    8.18   1
  -7  11   6   61.04    7.81   1
  -7  11   7   39.00    6.24   1
  -7  11   8   13.24    3.64   1
  -7  11   9   10.57    3.25   1
  -7  11  10   36.94    6.08   1
  -7  11  11   22.35    4.73   1
  -7  13 -11   18.25    4.27   1
  -7  13 -10   22.01    4.69   1
  -7  13  -9    5.65    2.38   1
  -7  13  -8   94.46    9.72   1
  -7  13  -7   35.07    5.92   1
  -7  13  -6   28.61    5.35   1
  -7  13  -5   19.46    4.41   1
  -7  13  -4   34.05    5.84   1
  -7  13  -2   23.70    4.87   1
  -7  13  -1   19.88    4.46   1
  -7  13   0   21.90    4.68   1
  -7  13   1   12.82    3.58   1
  -7  13   2   24.78    4.98   1
  -7  13   3   11.56    3.40   1
  -7  13   4    5.76    2.40   1
  -7  13   5    3.70    1.92   1
  -7  13   6   24.04    4.90   1
  -7  13   7   22.70    4.76   1
  -7  13   8   41.11    6.41   1
  -7  13   9   25.97    5.10   1
  -7  13  10   14.32    3.78   1
  -7  15 -10    5.56    2.36   1
  -7  15  -9    9.98    3.16   1
  -7  15  -8   24.20    4.92   1
  -7  15  -7    9.07    3.01   1
  -7  15  -6   24.71    4.97   1
  -7  15  -5   86.76    9.31   1
  -7  15  -4  132.15   11.50   1
  -7  15  -3   96.57    9.83   1
  -7  15  -2  102.20   10.11   1
  -7  15  -1   24.96    5.00   1
  -7  15   0   17.98    4.24   1
  -7  15   1   19.69    4.44   1
  -7  15   2   19.99    4.47   1
  -7  15   3   28.99    5.38   1
  -7  15   4   43.28    6.58   1
  -7  15   5   33.30    5.77   1
  -7  15   6   29.05    5.39   1
  -7  15   7   36.08    6.01   1
  -7  15   8   21.18    4.60   1
  -7  15   9    7.39    2.72   1
  -7  15  10    6.15    2.48   1
  -7  17  -9    4.35    2.09   1
  -7  17  -8    4.38    2.09   1
  -7  17  -7   17.63    4.20   1
  -7  17  -6   16.85    4.10   1
  -7  17  -5   22.88    4.78   1
  -7  17  -4   11.18    3.34   1
  -7  17  -3   18.52    4.30   1
  -7  17  -1    6.68    2.58   1
  -7  17   0   13.80    3.71   1
  -7  17   1    2.21    1.49   1
  -7  17   2   10.01    3.16   1
  -7  17   3   24.86    4.99   1
  -7  17   4   34.20    5.85   1
  -7  17   5   12.30    3.51   1
  -7  17   6   53.40    7.31   1
  -7  17   7    4.97    2.23   1
  -7  17   8   14.70    3.83   1
  -7  17   9   13.16    3.63   1
  -7  19  -9    9.07    3.01   1
  -7  19  -8   19.65    4.43   1
  -7  19  -7   10.81    3.29   1
  -7  19  -6   12.68    3.56   1
  -7  19  -5   40.05    6.33   1
  -7  19  -4   46.16    6.79   1
  -7  19  -3   76.50    8.75   1
  -7  19  -2   17.85    4.22   1
  -7  19  -1   45.08    6.71   1
  -7  19   0   11.25    3.35   1
  -7  19   1   11.02    3.32   1
  -7  19   2    7.15    2.67   1
  -7  19   3   13.05    3.61   1
  -7  19   4   41.81    6.47   1
  -7  19   5   28.42    5.33   1
  -7  19   6   15.75    3.97   1
  -7  19   8    4.25    2.06   1
  -7  21  -7   34.50    5.87   1
  -7  21  -5    8.61    2.93   1
  -7  21  -4    4.99    2.23   1
  -7  21  -3    9.75    3.12   1
  -7  21  -2   11.47    3.39   1
  -7  21  -1   27.62    5.26   1
  -7  21   0   14.27    3.78   1
  -7  21   1   11.48    3.39   1
  -7  21   2   22.16    4.71   1
  -7  21   3   36.90    6.07   1
  -7  21   4    8.70    2.95   1
  -7  21   5    3.75    1.94   1
  -7  21   6   12.75    3.57   1
  -7  21   7    6.22    2.49   1
  -7  23  -6   17.21    4.15   1
  -7  23  -5    9.23    3.04   1
  -7  23  -4   17.74    4.21   1
  -7  23  -3   17.45    4.18   1
  -7  23  -2   21.75    4.66   1
  -7  23  -1   11.40    3.38   1
  -7  23   0   23.77    4.88   1
  -7  23   1    6.30    2.51   1
  -7  23   2   11.86    3.44   1
  -7  23   3   20.02    4.47   1
  -7  23   4   19.35    4.40   1
  -7  23   5    3.57    1.89   1
  -7  23   6    3.03    1.74   1
  -7  23   7    9.85    3.14   1
  -6 -24 -18    4.57    2.14   1
  -6 -24 -15    5.56    2.36   1
  -6 -24 -10   24.30    4.93   1
  -6 -24  -9    9.26    3.04   1
  -6 -24  -8    8.37    2.89   1
  -6 -24  -7    2.59    1.61   1
  -6 -24  -6   18.75    4.33   1
  -6 -24  -5    8.53    2.92   1
  -6 -24  -4   10.57    3.25   1
  -6 -24  -1    5.44    2.33   1
  -6 -24   0   21.08    4.59   1
  -6 -24   2   28.24    5.31   1
  -6 -24   4    4.24    2.06   1
  -6 -24   5   15.82    3.98   1
  -6 -24   6   10.20    3.19   1
  -6 -24   7   13.90    3.73   1
  -6 -24   8   24.63    4.96   1
  -6 -24   9    6.30    2.51   1
  -6 -24  10   10.29    3.21   1
  -6 -24  12   16.80    4.10   1
  -6 -24  14    4.65    2.16   1
  -6 -24  15   14.73    3.84   1
  -6 -24  16   15.16    3.89   1
  -6 -24  17    5.03    2.24   1
  -6 -22 -16    9.90    3.15   1
  -6 -22 -15   13.46    3.67   1
  -6 -22 -13   22.88    4.78   1
  -6 -22 -10   10.69    3.27   1
  -6 -22  -8   14.97    3.87   1
  -6 -22  -7    3.15    1.77   1
  -6 -22  -6   16.99    4.12   1
  -6 -22  -5    6.53    2.55   1
  -6 -22  -4   10.35    3.22   1
  -6 -22  -3   13.95    3.73   1
  -6 -22  -2   15.72    3.97   1
  -6 -22  -1   18.83    4.34   1
  -6 -22   0   25.10    5.01   1
  -6 -22   1   24.38    4.94   1
  -6 -22   3    9.20    3.03   1
  -6 -22   4   27.00    5.20   1
  -6 -22   6   28.50    5.34   1
  -6 -22   7   13.98    3.74   1
  -6 -22   8   23.74    4.87   1
  -6 -22   9   15.79    3.97   1
  -6 -22  11   10.13    3.18   1
  -6 -22  12   12.11    3.48   1
  -6 -22  13    1.84    1.36   1
  -6 -22  17    2.17    1.47   1
  -6 -22  18   37.50    6.12   1
  -6 -22  19   10.73    3.27   1
  -6 -20 -17    4.50    2.12   1
  -6 -20 -15   14.63    3.82   1
  -6 -20 -14    9.75    3.12   1
  -6 -20 -12   12.36    3.52   1
  -6 -20 -10    2.85    1.69   1
  -6 -20  -9    5.14    2.27   1
  -6 -20  -7    5.29    2.30   1
  -6 -20  -6    2.25    1.50   1
  -6 -20  -4    4.43    2.10   1
  -6 -20  -3   10.43    3.23   1
  -6 -20  -2   16.13    4.02   1
  -6 -20  -1   22.58    4.75   1
  -6 -20   0   25.24    5.02   1
  -6 -20   1   12.56    3.54   1
  -6 -20   4    8.10    2.85   1
  -6 -20   5   12.86    3.59   1
  -6 -20   7    2.89    1.70   1
  -6 -20   8   12.65    3.56   1
  -6 -20   9    7.46    2.73   1
  -6 -20  11   18.50    4.30   1
  -6 -20  12   19.88    4.46   1
  -6 -20  14   14.95    3.87   1
  -6 -20  16    5.55    2.36   1
  -6 -20  17   15.68    3.96   1
  -6 -18 -17    8.77    2.96   1
  -6 -18 -16    4.90    2.21   1
  -6 -18 -15   17.81    4.22   1
  -6 -18  -9   12.15    3.49   1
  -6 -18  -8   28.16    5.31   1
  -6 -18  -7   14.03    3.75   1
  -6 -18  -6    6.97    2.64   1
  -6 -18  -5   11.40    3.38   1
  -6 -18  -3    5.63    2.37   1
  -6 -18  -1   36.12    6.01   1
  -6 -18   0   20.02    4.47   1
  -6 -18   1    4.95    2.22   1
  -6 -18   2   12.34    3.51   1
  -6 -18   3   16.46    4.06   1
  -6 -18   5   13.55    3.68   1
  -6 -18   6    8.89    2.98   1
  -6 -18   7    3.41    1.85   1
  -6 -18   8    9.11    3.02   1
  -6 -18  12   17.09    4.13   1
  -6 -18  13    3.38    1.84   1
  -6 -18  14   11.36    3.37   1
  -6 -18  16    2.25    1.50   1
  -6 -18  17   13.35    3.65   1
  -6 -16 -17   10.73    3.27   1
  -6 -16 -16    2.65    1.63   1
  -6 -16 -13   19.42    4.41   1
  -6 -16 -11   16.65    4.08   1
  -6 -16 -10   13.69    3.70   1
  -6 -16  -8    5.26    2.29   1
  -6 -16  -7   15.53    3.94   1
  -6 -16  -6   10.16    3.19   1
  -6 -16  -5    9.19    3.03   1
  -6 -16  -4   26.67    5.16   1
  -6 -16  -3   33.60    5.80   1
  -6 -16  -2   13.40    3.66   1
  -6 -16  -1   60.50    7.78   1
  -6 -16   0  125.98   11.22   1
  -6 -16   1  113.06   10.63   1
  -6 -16   2   54.15    7.36   1
  -6 -16   3    5.70    2.39   1
  -6 -16   4   13.31    3.65   1
  -6 -16   5   10.82    3.29   1
  -6 -16   6    7.20    2.68   1
  -6 -16   7   23.59    4.86   1
  -6 -16   8    2.89    1.70   1
  -6 -16   9   23.32    4.83   1
  -6 -16  10   25.59    5.06   1
  -6 -16  11    4.57    2.14   1
  -6 -16  12    4.80    2.19   1
  -6 -16  13   32.90    5.74   1
  -6 -16  14    3.65    1.91   1
  -6 -16  15   14.32    3.78   1
  -6 -16  16   16.18    4.02   1
  -6 -16  17   11.78    3.43   1
  -6 -14 -16   12.30    3.51   1
  -6 -14 -15   13.56    3.68   1
  -6 -14 -13   11.63    3.41   1
  -6 -14 -11   12.95    3.60   1
  -6 -14  -9    4.60    2.14   1
  -6 -14  -8   12.64    3.55   1
  -6 -14  -7   38.78    6.23   1
  -6 -14  -6    9.52    3.09   1
  -6 -14  -5   21.27    4.61   1
  -6 -14  -4    6.82    2.61   1
  -6 -14  -3    7.31    2.70   1
  -6 -14  -2   54.85    7.41   1
  -6 -14  -1  116.47   10.79   1
  -6 -14   0   24.37    4.94   1
  -6 -14   1  143.93   12.00   1
  -6 -14   2   36.08    6.01   1
  -6 -14   3   21.57    4.64   1
  -6 -14   4   33.71    5.81   1
  -6 -14   5    4.39    2.09   1
  -6 -14   7    3.09    1.76   1
  -6 -14   8   10.05    3.17   1
  -6 -14   9   17.35    4.17   1
  -6 -14  10    7.05    2.66   1
  -6 -14  11   36.30    6.02   1
  -6 -14  12   32.99    5.74   1
  -6 -14  14   11.34    3.37   1
  -6 -14  15    5.73    2.39   1
  -6 -14  16    4.95    2.22   1
  -6 -12 -14   10.43    3.23   1
  -6 -12 -13   18.90    4.35   1
  -6 -12 -12   17.77    4.22   1
  -6 -12 -10    5.67    2.38   1
  -6 -12  -9   29.77    5.46   1
  -6 -12  -8   54.04    7.35   1
  -6 -12  -7   12.75    3.57   1
  -6 -12  -6   42.30    6.50   1
  -6 -12  -5   19.66    4.43   1
  -6 -12  -4   35.36    5.95   1
  -6 -12  -3    5.47    2.34   1
  -6 -12  -2   39.45    6.28   1
  -6 -12  -1  110.95   10.53   1
  -6 -12   0   44.05    6.64   1
  -6 -12   1   46.72    6.83   1
  -6 -12   2    2.95    1.72   1
  -6 -12   3   23.84    4.88   1
  -6 -12   4   30.38    5.51   1
  -6 -12   5   24.48    4.95   1
  -6 -12   6    9.82    3.13   1
  -6 -12   7   27.75    5.27   1
  -6 -12   8   20.50    4.53   1
  -6 -12   9    9.45    3.07   1
  -6 -12  10    3.04    1.74   1
  -6 -12  11    7.35    2.71   1
  -6 -12  13   20.70    4.55   1
  -6 -12  14   21.45    4.63   1
  -6 -10 -13    5.48    2.34   1
  -6 -10 -11   14.66    3.83   1
  -6 -10  -9   11.22    3.35   1
  -6 -10  -8    6.35    2.52   1
  -6 -10  -7   17.33    4.16   1
  -6 -10  -6   37.50    6.12   1
  -6 -10  -5   29.08    5.39   1
  -6 -10  -4   83.06    9.11   1
  -6 -10  -3   81.60    9.03   1
  -6 -10  -2   77.14    8.78   1
  -6 -10  -1   70.65    8.41   1
  -6 -10   0   47.17    6.87   1
  -6 -10   1   60.30    7.77   1
  -6 -10   2   24.15    4.91   1
  -6 -10   3  170.96   13.07   1
  -6 -10   4  231.99   15.23   1
  -6 -10   5  137.57   11.73   1
  -6 -10   6   23.10    4.81   1
  -6 -10   7   90.75    9.53   1
  -6 -10   8   33.40    5.78   1
  -6 -10   9   27.40    5.23   1
  -6 -10  10   20.63    4.54   1
  -6 -10  11   41.92    6.47   1
  -6 -10  13   19.16    4.38   1
  -6 -10  14    6.17    2.48   1
  -6 -10  15   32.30    5.68   1
  -6  -8 -15    1.96    1.40   1
  -6  -8 -13   36.45    6.04   1
  -6  -8 -12   54.86    7.41   1
  -6  -8 -11   19.58    4.42   1
  -6  -8 -10   25.20    5.02   1
  -6  -8  -9   50.98    7.14   1
  -6  -8  -8   83.63    9.14   1
  -6  -8  -7   11.55    3.40   1
  -6  -8  -6   16.09    4.01   1
  -6  -8  -5   20.29    4.50   1
  -6  -8  -4  242.93   15.59   1
  -6  -8  -3   21.79    4.67   1
  -6  -8  -2   22.09    4.70   1
  -6  -8  -1  316.01   17.78   1
  -6  -8   0   65.32    8.08   1
  -6  -8   1  198.76   14.10   1
  -6  -8   2   47.70    6.91   1
  -6  -8   3   11.14    3.34   1
  -6  -8   4   49.71    7.05   1
  -6  -8   5  202.49   14.23   1
  -6  -8   7    9.38    3.06   1
  -6  -8   8    7.72    2.78   1
  -6  -8   9   85.02    9.22   1
  -6  -8  10    9.45    3.07   1
  -6  -8  11   51.83    7.20   1
  -6  -8  12   45.90    6.77   1
  -6  -8  13   62.06    7.88   1
  -6  -8  14    6.65    2.58   1
  -6  -6 -14   52.95    7.28   1
  -6  -6 -13    7.43    2.72   1
  -6  -6 -11   25.13    5.01   1
  -6  -6  -8   18.87    4.34   1
  -6  -6  -7    9.78    3.13   1
  -6  -6  -6    2.78    1.67   1
  -6  -6  -5  130.46   11.42   1
  -6  -6  -4   53.44    7.31   1
  -6  -6  -3    6.86    2.62   1
  -6  -6  -2   16.50    4.06   1
  -6  -6  -1 1604.70   40.06   1
  -6  -6   0  384.89   19.62   1
  -6  -6   1 2688.90   51.85   1
  -6  -6   2   64.07    8.00   1
  -6  -6   3   27.60    5.25   1
  -6  -6   4   57.63    7.59   1
  -6  -6   5  223.80   14.96   1
  -6  -6   6   12.35    3.51   1
  -6  -6   7   43.05    6.56   1
  -6  -6   8    5.18    2.27   1
  -6  -6   9   30.75    5.55   1
  -6  -6  10   32.51    5.70   1
  -6  -6  11   35.36    5.95   1
  -6  -6  12   15.57    3.95   1
  -6  -6  13   22.27    4.72   1
  -6  -4 -13   27.85    5.28   1
  -6  -4 -12   12.23    3.50   1
  -6  -4 -11  155.77   12.48   1
  -6  -4 -10   26.29    5.13   1
  -6  -4  -8   21.30    4.61   1
  -6  -4  -7   10.05    3.17   1
  -6  -4  -6   18.60    4.31   1
  -6  -4  -5   14.27    3.78   1
  -6  -4  -4   28.91    5.38   1
  -6  -4  -3   32.66    5.72   1
  -6  -4  -2  189.38   13.76   1
  -6  -4  -1  657.15   25.63   1
  -6  -4   0  181.99   13.49   1
  -6  -4   1 1171.09   34.22   1
  -6  -4   2  150.30   12.26   1
  -6  -4   3   40.60    6.37   1
  -6  -4   4   22.58    4.75   1
  -6  -4   5   48.11    6.94   1
  -6  -4   6   28.27    5.32   1
  -6  -4   7   30.56    5.53   1
  -6  -4   8   38.79    6.23   1
  -6  -4   9   51.01    7.14   1
  -6  -4  10   16.13    4.02   1
  -6  -4  11   51.15    7.15   1
  -6  -4  12   13.47    3.67   1
  -6  -2 -13    7.53    2.74   1
  -6  -2 -12   13.31    3.65   1
  -6  -2 -11   70.05    8.37   1
  -6  -2 -10  141.15   11.88   1
  -6  -2  -9  290.60   17.05   1
  -6  -2  -8   56.63    7.52   1
  -6  -2  -7   23.04    4.80   1
  -6  -2  -6   83.85    9.16   1
  -6  -2  -5 1650.45   40.63   1
  -6  -2  -4  373.36   19.32   1
  -6  -2  -3  322.77   17.97   1
  -6  -2  -2   33.75    5.81   1
  -6  -2  -1  242.10   15.56   1
  -6  -2   0   98.93    9.95   1
  -6  -2   1  118.97   10.91   1
  -6  -2   2   11.29    3.36   1
  -6  -2   3  296.80   17.23   1
  -6  -2   4  234.35   15.31   1
  -6  -2   5 1346.66   36.70   1
  -6  -2   6  100.65   10.03   1
  -6  -2   7   25.73    5.07   1
  -6  -2   8   16.40    4.05   1
  -6  -2   9  253.76   15.93   1
  -6  -2  10   50.63    7.12   1
  -6  -2  11   95.03    9.75   1
  -6  -2  12   47.61    6.90   1
  -6   0 -12   11.77    3.43   1
  -6   0 -11  111.60   10.56   1
  -6   0 -10   47.85    6.92   1
  -6   0  -9   17.77    4.22   1
  -6   0  -7  165.75   12.87   1
  -6   0  -6   51.38    7.17   1
  -6   0  -5 1172.47   34.24   1
  -6   0  -4  322.90   17.97   1
  -6   0  -3  280.50   16.75   1
  -6   0  -2   77.96    8.83   1
  -6   0  -1  405.45   20.14   1
  -6   0   0  100.28   10.01   1
  -6   0   1  132.23   11.50   1
  -6   0   2   84.97    9.22   1
  -6   0   3  225.06   15.00   1
  -6   0   4  472.88   21.75   1
  -6   0   5 1071.87   32.74   1
  -6   0   6   57.00    7.55   1
  -6   0   7  147.27   12.14   1
  -6   0   8   10.46    3.23   1
  -6   0   9   12.45    3.53   1
  -6   0  11   37.11    6.09   1
  -6   2 -12   18.77    4.33   1
  -6   2 -11   58.72    7.66   1
  -6   2 -10   77.10    8.78   1
  -6   2  -9  311.48   17.65   1
  -6   2  -8   32.85    5.73   1
  -6   2  -6   61.20    7.82   1
  -6   2  -5 1321.43   36.35   1
  -6   2  -4  199.73   14.13   1
  -6   2  -3  254.35   15.95   1
  -6   2  -2   46.72    6.84   1
  -6   2  -1  411.67   20.29   1
  -6   2   0   91.43    9.56   1
  -6   2   1  148.20   12.17   1
  -6   2   2   46.58    6.82   1
  -6   2   3  280.39   16.74   1
  -6   2   4  381.75   19.54   1
  -6   2   5 1049.55   32.40   1
  -6   2   6   82.70    9.09   1
  -6   2   7   19.74    4.44   1
  -6   2   8   33.05    5.75   1
  -6   2   9  188.09   13.71   1
  -6   2  10  122.89   11.09   1
  -6   2  11  117.60   10.84   1
  -6   4 -11  102.19   10.11   1
  -6   4 -10    3.18    1.78   1
  -6   4  -9   46.92    6.85   1
  -6   4  -7   15.41    3.93   1
  -6   4  -6   43.13    6.57   1
  -6   4  -5   23.77    4.88   1
  -6   4  -4    8.48    2.91   1
  -6   4  -3   31.70    5.63   1
  -6   4  -2  250.79   15.84   1
  -6   4  -1  994.95   31.54   1
  -6   4   0  265.01   16.28   1
  -6   4   1  902.72   30.05   1
  -6   4   2  301.73   17.37   1
  -6   4   3   73.72    8.59   1
  -6   4   4   21.08    4.59   1
  -6   4   5   44.92    6.70   1
  -6   4   6   39.34    6.27   1
  -6   4   7    7.33    2.71   1
  -6   4   8   37.65    6.14   1
  -6   4   9   18.90    4.35   1
  -6   4  11    5.47    2.34   1
  -6   6  -9    9.90    3.15   1
  -6   6  -8   32.33    5.69   1
  -6   6  -6   29.55    5.44   1
  -6   6  -5  198.48   14.09   1
  -6   6  -4   23.58    4.86   1
  -6   6  -3   45.68    6.76   1
  -6   6  -2  117.82   10.85   1
  -6   6  -1 1258.98   35.48   1
  -6   6   0  557.09   23.60   1
  -6   6   1 1635.00   40.44   1
  -6   6   2  126.07   11.23   1
  -6   6   3   60.66    7.79   1
  -6   6   4   47.31    6.88   1
  -6   6   5  161.77   12.72   1
  -6   6   6    3.08    1.76   1
  -6   6   7   13.73    3.70   1
  -6   6   8   13.67    3.70   1
  -6   6   9    8.10    2.85   1
  -6   6  10   19.32    4.40   1
  -6   8 -10    8.40    2.90   1
  -6   8  -9   66.92    8.18   1
  -6   8  -8    6.87    2.62   1
  -6   8  -7   10.99    3.31   1
  -6   8  -6   34.31    5.86   1
  -6   8  -5  135.75   11.65   1
  -6   8  -4   48.22    6.94   1
  -6   8  -2   76.23    8.73   1
  -6   8  -1  260.88   16.15   1
  -6   8   0  105.15   10.25   1
  -6   8   1  233.02   15.27   1
  -6   8   2   39.11    6.25   1
  -6   8   3   34.08    5.84   1
  -6   8   4   60.70    7.79   1
  -6   8   5   88.72    9.42   1
  -6   8   6   58.00    7.62   1
  -6   8   7   30.15    5.49   1
  -6   8   8    7.04    2.65   1
  -6   8   9   36.79    6.07   1
  -6  10  -8    3.07    1.75   1
  -6  10  -7   77.25    8.79   1
  -6  10  -5   83.40    9.13   1
  -6  10  -4   80.75    8.99   1
  -6  10  -3  248.93   15.78   1
  -6  10  -2   43.62    6.60   1
  -6  10  -1   72.75    8.53   1
  -6  10   0   35.03    5.92   1
  -6  10   1   72.07    8.49   1
  -6  10   2   69.85    8.36   1
  -6  10   3  206.96   14.39   1
  -6  10   4   59.63    7.72   1
  -6  10   5  174.68   13.22   1
  -6  10   6   11.06    3.33   1
  -6  10   7   38.70    6.22   1
  -6  10   8   36.45    6.04   1
  -6  10   9   47.10    6.86   1
  -6  12  -9   37.50    6.12   1
  -6  12  -7   30.93    5.56   1
  -6  12  -6   36.96    6.08   1
  -6  12  -5   22.95    4.79   1
  -6  12  -4   21.04    4.59   1
  -6  12  -3   27.76    5.27   1
  -6  12  -2   35.21    5.93   1
  -6  12  -1  150.00   12.25   1
  -6  12   0   66.80    8.17   1
  -6  12   1   46.40    6.81   1
  -6  12   2   14.10    3.75   1
  -6  12   3   23.51    4.85   1
  -6  12   4   22.02    4.69   1
  -6  12   5   27.30    5.22   1
  -6  12   6   38.40    6.20   1
  -6  12   7   14.16    3.76   1
  -6  12   8   16.50    4.06   1
  -6  14  -9    3.98    2.00   1
  -6  14  -8   16.95    4.12   1
  -6  14  -7   16.68    4.08   1
  -6  14  -6   34.28    5.85   1
  -6  14  -5   24.38    4.94   1
  -6  14  -4    5.76    2.40   1
  -6  14  -3   44.60    6.68   1
  -6  14  -2   51.52    7.18   1
  -6  14  -1  188.38   13.73   1
  -6  14   0   83.80    9.15   1
  -6  14   1  107.85   10.39   1
  -6  14   2   54.58    7.39   1
  -6  14   3   25.42    5.04   1
  -6  14   4   24.15    4.91   1
  -6  14   5   16.42    4.05   1
  -6  14   6    7.72    2.78   1
  -6  14   7   11.01    3.32   1
  -6  16  -8    2.05    1.43   1
  -6  16  -7   12.97    3.60   1
  -6  16  -6   12.19    3.49   1
  -6  16  -5   26.66    5.16   1
  -6  16  -4   34.04    5.83   1
  -6  16  -3   14.77    3.84   1
  -6  16  -2   23.29    4.83   1
  -6  16  -1  147.62   12.15   1
  -6  16   0   92.11    9.60   1
  -6  16   1  107.43   10.36   1
  -6  16   2   88.13    9.39   1
  -6  16   3   26.17    5.12   1
  -6  16   4   13.98    3.74   1
  -6  16   5   26.92    5.19   1
  -6  16   6   24.01    4.90   1
  -6  16   7   26.00    5.10   1
  -6  18  -7   14.10    3.75   1
  -6  18  -6   20.25    4.50   1
  -6  18  -4   10.88    3.30   1
  -6  18  -3   17.54    4.19   1
  -6  18  -2   19.61    4.43   1
  -6  18  -1   17.48    4.18   1
  -6  18   0   18.20    4.27   1
  -6  18   1   23.04    4.80   1
  -6  18   2   14.40    3.79   1
  -6  18   3   13.10    3.62   1
  -6  18   4   14.55    3.81   1
  -6  18   5   12.64    3.55   1
  -6  18   7    4.80    2.19   1
  -6  20  -6    3.90    1.97   1
  -6  20  -5   22.94    4.79   1
  -6  20  -4    6.54    2.56   1
  -6  20  -3   18.66    4.32   1
  -6  20  -2   22.58    4.75   1
  -6  20  -1   14.73    3.84   1
  -6  20   0   59.03    7.68   1
  -6  20   1   30.15    5.49   1
  -6  20   3   24.01    4.90   1
  -6  20   4   13.43    3.66   1
  -6  20   5   14.85    3.85   1
  -6  20   6   14.93    3.86   1
  -6  20   7   14.01    3.74   1
  -6  22  -6   12.89    3.59   1
  -6  22  -4   18.64    4.32   1
  -6  22  -3   12.18    3.49   1
  -6  22  -2   35.22    5.93   1
  -6  22  -1   45.38    6.74   1
  -6  22   0   42.53    6.52   1
  -6  22   1   27.98    5.29   1
  -6  22   2   16.16    4.02   1
  -6  22   3   22.20    4.71   1
  -6  22   4   23.10    4.81   1
  -6  22   5    6.00    2.45   1
  -6  22   6   18.07    4.25   1
  -6  24  -4   12.18    3.49   1
  -6  24  -3   21.75    4.66   1
  -6  24  -2   11.25    3.35   1
  -6  24  -1   36.15    6.01   1
  -6  24   0   46.20    6.80   1
  -6  24   1   30.71    5.54   1
  -6  24   2   34.58    5.88   1
  -6  24   3   11.58    3.40   1
  -6  24   4    9.52    3.09   1
  -6  24   6   16.80    4.10   1
  -5 -23 -16   19.58    4.42   1
  -5 -23 -15    2.82    1.68   1
  -5 -23 -13   18.34    4.28   1
  -5 -23 -11   11.26    3.36   1
  -5 -23  -9   11.34    3.37   1
  -5 -23  -7   10.20    3.19   1
  -5 -23  -6    9.15    3.02   1
  -5 -23  -5    8.30    2.88   1
  -5 -23  -4   15.19    3.90   1
  -5 -23  -3   12.00    3.46   1
  -5 -23  -1   20.77    4.56   1
  -5 -23   0    3.96    1.99   1
  -5 -23   1    6.34    2.52   1
  -5 -23   2   19.69    4.44   1
  -5 -23   4   10.09    3.18   1
  -5 -23   5    1.82    1.35   1
  -5 -23   6   18.94    4.35   1
  -5 -23   8   21.51    4.64   1
  -5 -23  11    3.83    1.96   1
  -5 -23  12    4.19    2.05   1
  -5 -23  14    2.56    1.60   1
  -5 -23  15    6.00    2.45   1
  -5 -21 -15   11.18    3.34   1
  -5 -21 -11    8.36    2.89   1
  -5 -21 -10   29.70    5.45   1
  -5 -21  -8    4.23    2.06   1
  -5 -21  -7   10.69    3.27   1
  -5 -21  -6   23.39    4.84   1
  -5 -21  -5    8.69    2.95   1
  -5 -21  -4    5.78    2.40   1
  -5 -21  -3   14.81    3.85   1
  -5 -21  -2   18.52    4.30   1
  -5 -21   1    8.82    2.97   1
  -5 -21   2   17.67    4.20   1
  -5 -21   3    3.65    1.91   1
  -5 -21   4    5.32    2.31   1
  -5 -21   5   15.29    3.91   1
  -5 -21   7    3.23    1.80   1
  -5 -21   8   10.49    3.24   1
  -5 -21   9   17.40    4.17   1
  -5 -21  10    3.45    1.86   1
  -5 -21  11   11.02    3.32   1
  -5 -21  13   32.03    5.66   1
  -5 -21  15   11.99    3.46   1
  -5 -19 -15   17.02    4.13   1
  -5 -19 -13    8.14    2.85   1
  -5 -19 -12   20.33    4.51   1
  -5 -19 -11    6.96    2.64   1
  -5 -19 -10   11.29    3.36   1
  -5 -19  -9   16.21    4.03   1
  -5 -19  -8   10.22    3.20   1
  -5 -19  -7    3.64    1.91   1
  -5 -19  -6    8.32    2.89   1
  -5 -19  -5   17.40    4.17   1
  -5 -19  -4   23.63    4.86   1
  -5 -19  -3    1.95    1.40   1
  -5 -19  -2   77.93    8.83   1
  -5 -19  -1   18.27    4.27   1
  -5 -19   0    5.06    2.25   1
  -5 -19   1   11.83    3.44   1
  -5 -19   2   11.06    3.33   1
  -5 -19   3   10.88    3.30   1
  -5 -19   4   39.11    6.25   1
  -5 -19   5   34.28    5.85   1
  -5 -19   6   36.38    6.03   1
  -5 -19   7    4.36    2.09   1
  -5 -19   8   23.44    4.84   1
  -5 -19   9   20.80    4.56   1
  -5 -19  10   18.15    4.26   1
  -5 -19  11   23.69    4.87   1
  -5 -19  13    1.60    1.26   1
  -5 -19  14    9.00    3.00   1
  -5 -19  15    7.16    2.68   1
  -5 -17 -14    9.69    3.11   1
  -5 -17 -13   14.21    3.77   1
  -5 -17 -10    4.99    2.23   1
  -5 -17  -9   20.14    4.49   1
  -5 -17  -8   14.55    3.81   1
  -5 -17  -7    8.44    2.90   1
  -5 -17  -6   29.77    5.46   1
  -5 -17  -5    6.78    2.60   1
  -5 -17  -4   13.70    3.70   1
  -5 -17  -3    4.80    2.19   1
  -5 -17  -2   81.60    9.03   1
  -5 -17  -1   24.49    4.95   1
  -5 -17   1   19.73    4.44   1
  -5 -17   2    5.81    2.41   1
  -5 -17   3   51.13    7.15   1
  -5 -17   4   45.97    6.78   1
  -5 -17   5   10.27    3.21   1
  -5 -17   7    5.55    2.36   1
  -5 -17   9   12.07    3.47   1
  -5 -17  10    8.27    2.88   1
  -5 -17  11   15.38    3.92   1
  -5 -17  13    5.99    2.45   1
  -5 -15 -13    6.75    2.60   1
  -5 -15 -11    1.92    1.39   1
  -5 -15  -9   18.30    4.28   1
  -5 -15  -8   16.95    4.12   1
  -5 -15  -7    1.99    1.41   1
  -5 -15  -5   41.70    6.46   1
  -5 -15  -4   11.85    3.44   1
  -5 -15  -3   25.27    5.03   1
  -5 -15  -2   24.00    4.90   1
  -5 -15  -1   22.60    4.75   1
  -5 -15   0   13.50    3.67   1
  -5 -15   1   30.04    5.48   1
  -5 -15   2   20.89    4.57   1
  -5 -15   3   24.08    4.91   1
  -5 -15   4    5.55    2.36   1
  -5 -15   5    6.77    2.60   1
  -5 -15   8    7.64    2.76   1
  -5 -15   9   63.53    7.97   1
  -5 -15  10   26.10    5.11   1
  -5 -15  11   32.77    5.72   1
  -5 -15  12    8.10    2.85   1
  -5 -15  13   29.85    5.46   1
  -5 -13 -13   10.12    3.18   1
  -5 -13 -11    1.76    1.33   1
  -5 -13  -9   25.05    5.00   1
  -5 -13  -8   75.05    8.66   1
  -5 -13  -7   17.86    4.23   1
  -5 -13  -6   17.74    4.21   1
  -5 -13  -5   47.10    6.86   1
  -5 -13  -4   45.15    6.72   1
  -5 -13  -3   29.55    5.44   1
  -5 -13  -2   47.89    6.92   1
  -5 -13  -1   27.57    5.25   1
  -5 -13   0   22.17    4.71   1
  -5 -13   1   18.28    4.28   1
  -5 -13   2    1.99    1.41   1
  -5 -13   3   21.46    4.63   1
  -5 -13   4   31.73    5.63   1
  -5 -13   5   11.25    3.35   1
  -5 -13   6   10.30    3.21   1
  -5 -13   7    7.99    2.83   1
  -5 -13   8    4.32    2.08   1
  -5 -13   9   29.02    5.39   1
  -5 -13  10   10.84    3.29   1
  -5 -13  11   34.05    5.84   1
  -5 -13  12   26.85    5.18   1
  -5 -11 -14   11.52    3.39   1
  -5 -11 -13    5.88    2.42   1
  -5 -11  -8   24.94    4.99   1
  -5 -11  -7    4.72    2.17   1
  -5 -11  -6  108.31   10.41   1
  -5 -11  -5   23.09    4.81   1
  -5 -11  -4   24.45    4.94   1
  -5 -11  -3   28.24    5.31   1
  -5 -11  -1   36.00    6.00   1
  -5 -11   0   17.86    4.23   1
  -5 -11   1   27.38    5.23   1
  -5 -11   3   18.39    4.29   1
  -5 -11   4   13.57    3.68   1
  -5 -11   5   21.79    4.67   1
  -5 -11   6   34.54    5.88   1
  -5 -11   7   20.48    4.53   1
  -5 -11   8   20.77    4.56   1
  -5 -11   9   54.08    7.35   1
  -5 -11  11   24.38    4.94   1
  -5 -11  12   30.26    5.50   1
  -5 -11  13    4.82    2.20   1
  -5  -9 -12   13.05    3.61   1
  -5  -9 -11   33.72    5.81   1
  -5  -9 -10   47.61    6.90   1
  -5  -9  -8   55.44    7.45   1
  -5  -9  -6   25.90    5.09   1
  -5  -9  -5   98.91    9.95   1
  -5  -9  -4 1446.87   38.04   1
  -5  -9  -3  110.13   10.49   1
  -5  -9  -2   49.85    7.06   1
  -5  -9  -1  128.02   11.31   1
  -5  -9   0    2.25    1.50   1
  -5  -9   1   28.87    5.37   1
  -5  -9   2   20.90    4.57   1
  -5  -9   3  264.67   16.27   1
  -5  -9   4   31.88    5.65   1
  -5  -9   5  958.08   30.95   1
  -5  -9   6  406.65   20.17   1
  -5  -9   7   19.24    4.39   1
  -5  -9   8   38.65    6.22   1
  -5  -9   9  104.18   10.21   1
  -5  -9  10   11.25    3.35   1
  -5  -9  11   31.46    5.61   1
  -5  -9  12    6.73    2.59   1
  -5  -7 -13   34.50    5.87   1
  -5  -7 -12    4.51    2.12   1
  -5  -7 -11    1.92    1.39   1
  -5  -7 -10   20.36    4.51   1
  -5  -7  -8    1.55    1.25   1
  -5  -7  -7   22.65    4.76   1
  -5  -7  -4   73.43    8.57   1
  -5  -7  -3   91.20    9.55   1
  -5  -7  -2   40.28    6.35   1
  -5  -7  -1   13.40    3.66   1
  -5  -7   0    8.50    2.92   1
  -5  -7   2    3.15    1.77   1
  -5  -7   3  424.27   20.60   1
  -5  -7   4   44.09    6.64   1
  -5  -7   5   93.40    9.66   1
  -5  -7   6   19.16    4.38   1
  -5  -7   7   94.56    9.72   1
  -5  -7   8   13.14    3.62   1
  -5  -7   9  154.73   12.44   1
  -5  -7  10   10.13    3.18   1
  -5  -7  11   23.86    4.88   1
  -5  -7  12    4.98    2.23   1
  -5  -5 -12   16.16    4.02   1
  -5  -5 -11   16.58    4.07   1
  -5  -5 -10    9.11    3.02   1
  -5  -5  -9    6.26    2.50   1
  -5  -5  -7   74.93    8.66   1
  -5  -5  -5   41.67    6.46   1
  -5  -5  -3  218.99   14.80   1
  -5  -5  -2   40.31    6.35   1
  -5  -5  -1  160.57   12.67   1
  -5  -5   0   14.63    3.83   1
  -5  -5   1  180.90   13.45   1
  -5  -5   2    4.70    2.17   1
  -5  -5   3  130.85   11.44   1
  -5  -5   5   29.55    5.44   1
  -5  -5   6    8.97    2.99   1
  -5  -5   7   36.87    6.07   1
  -5  -5   8   42.86    6.55   1
  -5  -5   9  244.30   15.63   1
  -5  -5  10   20.59    4.54   1
  -5  -5  11   20.80    4.56   1
  -5  -3 -11   87.90    9.38   1
  -5  -3  -9   17.76    4.21   1
  -5  -3  -8   14.22    3.77   1
  -5  -3  -7    3.58    1.89   1
  -5  -3  -6   25.65    5.06   1
  -5  -3  -5  323.14   17.98   1
  -5  -3  -4   48.59    6.97   1
  -5  -3  -3 1122.12   33.50   1
  -5  -3  -2   34.58    5.88   1
  -5  -3  -1   63.45    7.97   1
  -5  -3   0   19.98    4.47   1
  -5  -3   1    6.25    2.50   1
  -5  -3   2   26.30    5.13   1
  -5  -3   3 1181.10   34.37   1
  -5  -3   4   31.13    5.58   1
  -5  -3   5  286.99   16.94   1
  -5  -3   6   16.13    4.02   1
  -5  -3   7   65.93    8.12   1
  -5  -3   8   16.22    4.03   1
  -5  -3   9   20.02    4.47   1
  -5  -3  10   13.13    3.62   1
  -5  -3  11   26.70    5.17   1
  -5  -1 -11   12.00    3.46   1
  -5  -1  -9   36.60    6.05   1
  -5  -1  -8   32.67    5.72   1
  -5  -1  -7   21.51    4.64   1
  -5  -1  -6   23.77    4.88   1
  -5  -1  -5  223.15   14.94   1
  -5  -1  -4   24.13    4.91   1
  -5  -1  -3  151.65   12.31   1
  -5  -1  -2   28.01    5.29   1
  -5  -1  -1  416.45   20.41   1
  -5  -1   0   38.83    6.23   1
  -5  -1   1  373.27   19.32   1
  -5  -1   2   29.40    5.42   1
  -5  -1   3  241.24   15.53   1
  -5  -1   4   19.83    4.45   1
  -5  -1   5  176.32   13.28   1
  -5  -1   6   22.30    4.72   1
  -5  -1   7    3.93    1.98   1
  -5  -1   8   64.50    8.03   1
  -5  -1   9    8.55    2.92   1
  -5  -1  10   42.18    6.49   1
  -5   1 -10   28.54    5.34   1
  -5   1  -9   50.00    7.07   1
  -5   1  -8   34.41    5.87   1
  -5   1  -7   66.97    8.18   1
  -5   1  -5  171.46   13.09   1
  -5   1  -4   30.52    5.52   1
  -5   1  -3  256.24   16.01   1
  -5   1  -2   43.95    6.63   1
  -5   1  -1  443.88   21.07   1
  -5   1   0   37.39    6.11   1
  -5   1   1  262.50   16.20   1
  -5   1   2   32.16    5.67   1
  -5   1   3   94.02    9.70   1
  -5   1   4   32.41    5.69   1
  -5   1   5  208.17   14.43   1
  -5   1   6   30.23    5.50   1
  -5   1   7   33.74    5.81   1
  -5   1   8   17.02    4.13   1
  -5   1   9   19.35    4.40   1
  -5   3 -10   35.51    5.96   1
  -5   3  -9   17.77    4.22   1
  -5   3  -8   32.17    5.67   1
  -5   3  -7   35.44    5.95   1
  -5   3  -6    4.50    2.12   1
  -5   3  -5   96.00    9.80   1
  -5   3  -4   70.28    8.38   1
  -5   3  -3 1398.60   37.40   1
  -5   3  -1   90.07    9.49   1
  -5   3   0    9.50    3.08   1
  -5   3   1   74.70    8.64   1
  -5   3   2   31.92    5.65   1
  -5   3   3 1317.24   36.29   1
  -5   3   4   67.85    8.24   1
  -5   3   5  112.28   10.60   1
  -5   3   6   18.30    4.28   1
  -5   3   7   23.81    4.88   1
  -5   3   9   37.13    6.09   1
  -5   5  -9   65.25    8.08   1
  -5   5  -8   33.67    5.80   1
  -5   5  -7   55.82    7.47   1
  -5   5  -6   32.47    5.70   1
  -5   5  -5    6.60    2.57   1
  -5   5  -4   13.43    3.66   1
  -5   5  -3  241.13   15.53   1
  -5   5  -2   22.87    4.78   1
  -5   5  -1  110.21   10.50   1
  -5   5   0   19.25    4.39   1
  -5   5   1  140.66   11.86   1
  -5   5   2   12.38    3.52   1
  -5   5   3  180.06   13.42   1
  -5   5   4   65.15    8.07   1
  -5   5   5   12.42    3.52   1
  -5   5   6   15.26    3.91   1
  -5   5   7   41.52    6.44   1
  -5   5   8   17.66    4.20   1
  -5   7  -9   39.64    6.30   1
  -5   7  -8   42.53    6.52   1
  -5   7  -7  125.81   11.22   1
  -5   7  -6   31.88    5.65   1
  -5   7  -5   78.64    8.87   1
  -5   7  -4   20.43    4.52   1
  -5   7  -3  355.11   18.84   1
  -5   7  -2   31.50    5.61   1
  -5   7  -1  101.47   10.07   1
  -5   7   0   11.88    3.45   1
  -5   7   1   29.02    5.39   1
  -5   7   2   29.54    5.44   1
  -5   7   3  333.30   18.26   1
  -5   7   4   50.47    7.10   1
  -5   7   5   39.71    6.30   1
  -5   7   6   20.07    4.48   1
  -5   7   7   97.28    9.86   1
  -5   7   8   29.92    5.47   1
  -5   9  -8   25.99    5.10   1
  -5   9  -7   21.36    4.62   1
  -5   9  -6   40.72    6.38   1
  -5   9  -5  487.79   22.09   1
  -5   9  -4   36.83    6.07   1
  -5   9  -3  194.31   13.94   1
  -5   9  -2   36.18    6.01   1
  -5   9  -1  146.70   12.11   1
  -5   9   0   15.79    3.97   1
  -5   9   1   68.36    8.27   1
  -5   9   2   19.55    4.42   1
  -5   9   3  139.16   11.80   1
  -5   9   4   65.36    8.08   1
  -5   9   5  520.84   22.82   1
  -5   9   6   52.13    7.22   1
  -5   9   7   10.77    3.28   1
  -5  11  -7   29.10    5.39   1
  -5  11  -6   31.47    5.61   1
  -5  11  -5   26.09    5.11   1
  -5  11  -4   38.47    6.20   1
  -5  11  -3   32.66    5.72   1
  -5  11  -2   12.33    3.51   1
  -5  11  -1   20.66    4.55   1
  -5  11   0   26.76    5.17   1
  -5  11   1   38.05    6.17   1
  -5  11   2   16.61    4.08   1
  -5  11   3   33.64    5.80   1
  -5  11   4   16.78    4.10   1
  -5  11   5   21.10    4.59   1
  -5  11   6   14.02    3.74   1
  -5  11   7   54.38    7.37   1
  -5  13  -7   12.53    3.54   1
  -5  13  -6   26.53    5.15   1
  -5  13  -5   15.42    3.93   1
  -5  13  -4   29.92    5.47   1
  -5  13  -3   52.42    7.24   1
  -5  13  -2   23.14    4.81   1
  -5  13  -1   51.45    7.17   1
  -5  13   0   12.26    3.50   1
  -5  13   1   48.94    7.00   1
  -5  13   2   43.42    6.59   1
  -5  13   3   48.59    6.97   1
  -5  13   4   24.30    4.93   1
  -5  13   5    5.10    2.26   1
  -5  13   6   21.26    4.61   1
  -5  15  -5   33.94    5.83   1
  -5  15  -4    7.01    2.65   1
  -5  15  -3   15.06    3.88   1
  -5  15  -2   17.95    4.24   1
  -5  15  -1   16.61    4.08   1
  -5  15   0   17.38    4.17   1
  -5  15   1    9.33    3.05   1
  -5  15   2    4.75    2.18   1
  -5  15   3   25.73    5.07   1
  -5  15   4   15.33    3.92   1
  -5  15   5   28.16    5.31   1
  -5  17  -5    3.75    1.94   1
  -5  17  -4   29.10    5.39   1
  -5  17  -3   54.60    7.39   1
  -5  17  -2   32.33    5.69   1
  -5  17  -1   52.60    7.25   1
  -5  17   0   23.07    4.80   1
  -5  17   1   34.84    5.90   1
  -5  17   2   21.80    4.67   1
  -5  17   3   40.34    6.35   1
  -5  17   4   33.51    5.79   1
  -5  17   5   17.10    4.14   1
  -5  19  -5   40.37    6.35   1
  -5  19  -4   22.20    4.71   1
  -5  19  -3   82.05    9.06   1
  -5  19  -2   43.35    6.58   1
  -5  19  -1   21.55    4.64   1
  -5  19   0   10.65    3.26   1
  -5  19   1   31.84    5.64   1
  -5  19   2   21.90    4.68   1
  -5  19   3   67.80    8.23   1
  -5  19   4   45.38    6.74   1
  -5  19   5   42.60    6.53   1
  -5  21  -4   26.70    5.17   1
  -5  21  -3   19.46    4.41   1
  -5  21  -2    9.98    3.16   1
  -5  21  -1   17.02    4.13   1
  -5  21   0   34.80    5.90   1
  -5  21   1   14.23    3.77   1
  -5  21   2   34.72    5.89   1
  -5  21   3    8.07    2.84   1
  -5  21   4   19.65    4.43   1
  -5  23  -3   14.63    3.82   1
  -5  23  -2    8.73    2.96   1
  -5  23  -1   10.84    3.29   1
  -5  23   0   23.08    4.80   1
  -5  23   1   36.53    6.04   1
  -5  23   2   10.57    3.25   1
  -5  23   3   20.70    4.55   1
  -5  23   4   14.81    3.85   1
  -4 -24 -14    5.07    2.25   1
  -4 -24 -12    4.99    2.23   1
  -4 -24 -10    8.81    2.97   1
  -4 -24  -9   22.13    4.70   1
  -4 -24  -8   16.08    4.01   1
  -4 -24  -6   22.99    4.79   1
  -4 -24  -5    4.87    2.21   1
  -4 -24  -4   15.07    3.88   1
  -4 -24  -3   10.80    3.29   1
  -4 -24   0   11.98    3.46   1
  -4 -24   1    3.62    1.90   1
  -4 -24   2    7.76    2.79   1
  -4 -24   3    4.43    2.10   1
  -4 -24   4    9.00    3.00   1
  -4 -24   5   14.33    3.79   1
  -4 -24   6   15.41    3.93   1
  -4 -24   7    4.50    2.12   1
  -4 -24   9    9.42    3.07   1
  -4 -24  10   23.40    4.84   1
  -4 -24  12   19.17    4.38   1
  -4 -24  14   17.59    4.19   1
  -4 -22 -10   15.23    3.90   1
  -4 -22  -6    3.03    1.74   1
  -4 -22  -5   12.19    3.49   1
  -4 -22  -3    4.54    2.13   1
  -4 -22  -2   16.16    4.02   1
  -4 -22   1    9.45    3.07   1
  -4 -22   4    6.07    2.46   1
  -4 -22   5   28.58    5.35   1
  -4 -22   6   19.80    4.45   1
  -4 -22   8   18.19    4.26   1
  -4 -22   9    2.82    1.68   1
  -4 -22  11    7.49    2.74   1
  -4 -22  14   15.11    3.89   1
  -4 -20 -13   26.93    5.19   1
  -4 -20 -12    7.19    2.68   1
  -4 -20 -11    7.20    2.68   1
  -4 -20 -10    6.07    2.46   1
  -4 -20  -9    8.37    2.89   1
  -4 -20  -8    6.87    2.62   1
  -4 -20  -5   18.19    4.26   1
  -4 -20  -3   26.52    5.15   1
  -4 -20  -2    4.74    2.18   1
  -4 -20  -1   16.46    4.06   1
  -4 -20   0   11.48    3.39   1
  -4 -20   1   11.14    3.34   1
  -4 -20   2   32.82    5.73   1
  -4 -20   3   17.96    4.24   1
  -4 -20   4    7.95    2.82   1
  -4 -20   5   22.95    4.79   1
  -4 -20   6    9.52    3.09   1
  -4 -20   7    5.47    2.34   1
  -4 -20   9    7.05    2.66   1
  -4 -20  10   17.33    4.16   1
  -4 -20  11   10.01    3.16   1
  -4 -18 -12   27.04    5.20   1
  -4 -18 -11   19.44    4.41   1
  -4 -18  -8   47.44    6.89   1
  -4 -18  -6    6.84    2.62   1
  -4 -18  -5   32.99    5.74   1
  -4 -18  -4   10.99    3.32   1
  -4 -18  -3    9.23    3.04   1
  -4 -18  -2   19.05    4.36   1
  -4 -18  -1   75.64    8.70   1
  -4 -18   0  215.18   14.67   1
  -4 -18   1   71.15    8.44   1
  -4 -18   2  104.70   10.23   1
  -4 -18   3   32.55    5.71   1
  -4 -18   4   10.06    3.17   1
  -4 -18   5    9.07    3.01   1
  -4 -18   7    3.04    1.74   1
  -4 -18   8   11.18    3.34   1
  -4 -16 -12    9.79    3.13   1
  -4 -16 -11    3.81    1.95   1
  -4 -16 -10   12.57    3.55   1
  -4 -16  -9    6.90    2.63   1
  -4 -16  -8   23.06    4.80   1
  -4 -16  -7   13.50    3.67   1
  -4 -16  -6   13.46    3.67   1
  -4 -16  -5   11.75    3.43   1
  -4 -16  -4   13.06    3.61   1
  -4 -16  -3   16.65    4.08   1
  -4 -16  -2   29.79    5.46   1
  -4 -16  -1   21.38    4.62   1
  -4 -16   0   35.44    5.95   1
  -4 -16   1   43.39    6.59   1
  -4 -16   2    3.45    1.86   1
  -4 -16   3   17.55    4.19   1
  -4 -16   4   25.76    5.08   1
  -4 -16   6   14.89    3.86   1
  -4 -16   7    5.81    2.41   1
  -4 -16   8    9.32    3.05   1
  -4 -16  10   35.33    5.94   1
  -4 -16  11    6.24    2.50   1
  -4 -16  13   19.96    4.47   1
  -4 -14  -9   15.85    3.98   1
  -4 -14  -8   11.77    3.43   1
  -4 -14  -6   56.47    7.51   1
  -4 -14  -4   10.51    3.24   1
  -4 -14  -3   14.01    3.74   1
  -4 -14  -2   11.66    3.42   1
  -4 -14  -1  115.91   10.77   1
  -4 -14   0   43.91    6.63   1
  -4 -14   1   97.31    9.86   1
  -4 -14   2   75.37    8.68   1
  -4 -14   3   14.57    3.82   1
  -4 -14   4   10.55    3.25   1
  -4 -14   5   11.35    3.37   1
  -4 -14   6   47.24    6.87   1
  -4 -14   7   94.94    9.74   1
  -4 -14   8   50.14    7.08   1
  -4 -14   9   40.88    6.39   1
  -4 -14  12   24.09    4.91   1
  -4 -12 -12    9.52    3.09   1
  -4 -12  -6   73.70    8.58   1
  -4 -12  -5   12.38    3.52   1
  -4 -12  -4   23.85    4.88   1
  -4 -12  -3   21.99    4.69   1
  -4 -12  -2  109.44   10.46   1
  -4 -12  -1  152.70   12.36   1
  -4 -12   0   65.25    8.08   1
  -4 -12   1  186.45   13.65   1
  -4 -12   2   29.14    5.40   1
  -4 -12   3   52.35    7.24   1
  -4 -12   4   31.58    5.62   1
  -4 -12   5   30.49    5.52   1
  -4 -12   7   97.65    9.88   1
  -4 -12   8    5.94    2.44   1
  -4 -12   9  268.35   16.38   1
  -4 -12  10   32.58    5.71   1
  -4 -12  11   22.96    4.79   1
  -4 -10 -11    7.46    2.73   1
  -4 -10 -10   17.48    4.18   1
  -4 -10  -9    9.72    3.12   1
  -4 -10  -6   13.31    3.65   1
  -4 -10  -5   48.60    6.97   1
  -4 -10  -4  127.46   11.29   1
  -4 -10  -3   27.30    5.22   1
  -4 -10  -2   17.25    4.15   1
  -4 -10  -1  118.50   10.89   1
  -4 -10   0   13.68    3.70   1
  -4 -10   1  121.72   11.03   1
  -4 -10   2   15.84    3.98   1
  -4 -10   3   68.76    8.29   1
  -4 -10   4   19.94    4.47   1
  -4 -10   5  158.28   12.58   1
  -4 -10   6   37.03    6.09   1
  -4 -10   7   20.55    4.53   1
  -4 -10   8    5.97    2.44   1
  -4 -10  10    5.93    2.43   1
  -4  -8  -9   17.85    4.22   1
  -4  -8  -8   18.08    4.25   1
  -4  -8  -7    8.70    2.95   1
  -4  -8  -6    4.65    2.16   1
  -4  -8  -5   49.30    7.02   1
  -4  -8  -4   92.55    9.62   1
  -4  -8  -3   20.66    4.55   1
  -4  -8  -2   26.81    5.18   1
  -4  -8  -1  382.85   19.57   1
  -4  -8   0  113.76   10.67   1
  -4  -8   1  283.47   16.84   1
  -4  -8   2   10.84    3.29   1
  -4  -8   3   63.64    7.98   1
  -4  -8   4   77.44    8.80   1
  -4  -8   5  322.13   17.95   1
  -4  -8   8   26.17    5.12   1
  -4  -8   9   62.88    7.93   1
  -4  -8  10   12.15    3.49   1
  -4  -6 -10   20.12    4.49   1
  -4  -6  -9  137.46   11.72   1
  -4  -6  -7   22.73    4.77   1
  -4  -6  -6   21.13    4.60   1
  -4  -6  -5  421.27   20.52   1
  -4  -6  -4   53.70    7.33   1
  -4  -6  -3   15.28    3.91   1
  -4  -6  -2   15.98    4.00   1
  -4  -6  -1  367.07   19.16   1
  -4  -6   0   66.87    8.18   1
  -4  -6   1  510.45   22.59   1
  -4  -6   2   26.67    5.16   1
  -4  -6   3   20.81    4.56   1
  -4  -6   4   37.50    6.12   1
  -4  -6   5  449.33   21.20   1
  -4  -6   6   12.04    3.47   1
  -4  -6   7   38.75    6.22   1
  -4  -6   8   22.95    4.79   1
  -4  -6   9  131.66   11.47   1
  -4  -4  -9   18.23    4.27   1
  -4  -4  -8   19.50    4.42   1
  -4  -4  -7   55.13    7.42   1
  -4  -4  -6   48.31    6.95   1
  -4  -4  -5  195.00   13.96   1
  -4  -4  -4  231.16   15.20   1
  -4  -4  -3   36.75    6.06   1
  -4  -4  -2    7.99    2.83   1
  -4  -4  -1  240.23   15.50   1
  -4  -4   0   49.40    7.03   1
  -4  -4   1  203.32   14.26   1
  -4  -4   2   20.70    4.55   1
  -4  -4   3   66.14    8.13   1
  -4  -4   4   54.22    7.36   1
  -4  -4   5  154.65   12.44   1
  -4  -4   6   43.01    6.56   1
  -4  -4   7   46.09    6.79   1
  -4  -4   8   13.73    3.70   1
  -4  -4   9   41.80    6.47   1
  -4  -2  -9  260.80   16.15   1
  -4  -2  -7   37.99    6.16   1
  -4  -2  -6   59.47    7.71   1
  -4  -2  -5   54.42    7.38   1
  -4  -2  -4    5.81    2.41   1
  -4  -2  -3   44.81    6.69   1
  -4  -2  -2   87.27    9.34   1
  -4  -2  -1  465.72   21.58   1
  -4  -2   0   55.16    7.43   1
  -4  -2   1  279.83   16.73   1
  -4  -2   2   21.24    4.61   1
  -4  -2   3   55.88    7.47   1
  -4  -2   4   26.81    5.18   1
  -4  -2   5   19.61    4.43   1
  -4  -2   7   27.12    5.21   1
  -4  -2   8   33.21    5.76   1
  -4   0  -9 1651.65   40.64   1
  -4   0  -8  130.45   11.42   1
  -4   0  -7  205.08   14.32   1
  -4   0  -6   30.52    5.52   1
  -4   0  -5   25.50    5.05   1
  -4   0  -4   24.72    4.97   1
  -4   0  -3  262.24   16.19   1
  -4   0  -2   91.70    9.58   1
  -4   0  -1 1688.55   41.09   1
  -4   0   0   76.13    8.72   1
  -4   0   1 1833.15   42.82   1
  -4   0   2   60.26    7.76   1
  -4   0   3  300.75   17.34   1
  -4   0   4   51.22    7.16   1
  -4   0   5   86.25    9.29   1
  -4   0   6    9.22    3.04   1
  -4   0   7  198.10   14.07   1
  -4   0   8   18.08    4.25   1
  -4   2  -8   38.21    6.18   1
  -4   2  -7   17.70    4.21   1
  -4   2  -6   50.78    7.13   1
  -4   2  -5   14.66    3.83   1
  -4   2  -4    2.75    1.66   1
  -4   2  -3   64.05    8.00   1
  -4   2  -2   14.29    3.78   1
  -4   2  -1  384.87   19.62   1
  -4   2   0   91.05    9.54   1
  -4   2   1  234.38   15.31   1
  -4   2   2   37.72    6.14   1
  -4   2   3  124.65   11.16   1
  -4   2   4    5.36    2.32   1
  -4   2   5  114.30   10.69   1
  -4   2   6   52.00    7.21   1
  -4   2   7   17.17    4.14   1
  -4   4  -7   35.21    5.93   1
  -4   4  -6    6.15    2.48   1
  -4   4  -5  180.52   13.44   1
  -4   4  -4   42.86    6.55   1
  -4   4  -3   29.44    5.43   1
  -4   4  -2   50.09    7.08   1
  -4   4  -1  259.62   16.11   1
  -4   4   0   71.85    8.48   1
  -4   4   1  307.92   17.55   1
  -4   4   2   42.16    6.49   1
  -4   4   3   45.26    6.73   1
  -4   4   4   32.25    5.68   1
  -4   4   5   90.56    9.52   1
  -4   4   7    2.97    1.72   1
  -4   6  -7   31.01    5.57   1
  -4   6  -6   11.60    3.41   1
  -4   6  -5  702.53   26.51   1
  -4   6  -4   14.48    3.80   1
  -4   6  -3   41.05    6.41   1
  -4   6  -2   35.63    5.97   1
  -4   6  -1  420.00   20.49   1
  -4   6   0   55.50    7.45   1
  -4   6   1  334.65   18.29   1
  -4   6   2   26.49    5.15   1
  -4   6   3   45.56    6.75   1
  -4   6   4   22.47    4.74   1
  -4   6   5  327.55   18.10   1
  -4   6   6    8.02    2.83   1
  -4   8  -6   12.60    3.55   1
  -4   8  -5  210.26   14.50   1
  -4   8  -4   52.23    7.23   1
  -4   8  -3   51.53    7.18   1
  -4   8  -2   42.41    6.51   1
  -4   8  -1  613.97   24.78   1
  -4   8   0  117.45   10.84   1
  -4   8   1  553.52   23.53   1
  -4   8   2   24.75    4.97   1
  -4   8   3   46.58    6.82   1
  -4   8   4   15.82    3.98   1
  -4   8   5  136.88   11.70   1
  -4   8   6    2.26    1.50   1
  -4  10  -5  168.55   12.98   1
  -4  10  -4    6.94    2.63   1
  -4  10  -3   48.26    6.95   1
  -4  10  -2   69.11    8.31   1
  -4  10  -1  172.93   13.15   1
  -4  10   0   72.36    8.51   1
  -4  10   1   55.95    7.48   1
  -4  10   2   33.30    5.77   1
  -4  10   3   67.57    8.22   1
  -4  10   4   21.38    4.62   1
  -4  10   5   62.66    7.92   1
  -4  12  -5   22.73    4.77   1
  -4  12  -4   41.17    6.42   1
  -4  12  -3   68.10    8.25   1
  -4  12  -2    8.05    2.84   1
  -4  12  -1  272.48   16.51   1
  -4  12   0   43.66    6.61   1
  -4  12   1  243.48   15.60   1
  -4  12   2   36.27    6.02   1
  -4  12   3   79.50    8.92   1
  -4  12   4   31.33    5.60   1
  -4  14  -4   13.05    3.61   1
  -4  14  -3   11.21    3.35   1
  -4  14  -2   11.18    3.34   1
  -4  14  -1   76.54    8.75   1
  -4  14   0   41.75    6.46   1
  -4  14   1   49.65    7.05   1
  -4  14   2   31.13    5.58   1
  -4  14   3   34.55    5.88   1
  -4  16  -3   12.60    3.55   1
  -4  16  -2   40.52    6.37   1
  -4  16  -1   95.47    9.77   1
  -4  16   0   44.67    6.68   1
  -4  16   1   85.64    9.25   1
  -4  16   2   32.17    5.67   1
  -4  16   3   25.49    5.05   1
  -4  18  -3   22.38    4.73   1
  -4  18  -2   45.90    6.77   1
  -4  18  -1  442.50   21.04   1
  -4  18   0  271.86   16.49   1
  -4  18   1  379.29   19.48   1
  -4  18   2  238.79   15.45   1
  -4  18   3   21.56    4.64   1
  -4  20  -2    9.82    3.13   1
  -4  20  -1   18.79    4.33   1
  -4  20   0  100.43   10.02   1
  -4  20   1   27.60    5.25   1
  -4  20   2   23.40    4.84   1
  -4  20   3   16.39    4.05   1
  -4  22  -2    4.35    2.09   1
  -4  22  -1   21.68    4.66   1
  -4  22   0   25.65    5.06   1
  -4  22   1   14.82    3.85   1
  -4  22   2   15.38    3.92   1
  -4  24  -1   13.69    3.70   1
  -4  24   0   26.36    5.13   1
  -4  24   1   16.73    4.09   1
  -4  24   2   14.69    3.83   1
  -3 -23 -12    4.60    2.14   1
  -3 -23 -11   11.25    3.35   1
  -3 -23 -10    7.78    2.79   1
  -3 -23  -9    8.96    2.99   1
  -3 -23  -8    4.72    2.17   1
  -3 -23  -7   20.63    4.54   1
  -3 -23  -4    9.98    3.16   1
  -3 -23  -3    9.31    3.05   1
  -3 -23  -2   19.13    4.37   1
  -3 -23   0   24.98    5.00   1
  -3 -23   1   19.42    4.41   1
  -3 -23   2    6.79    2.61   1
  -3 -23   3    6.60    2.57   1
  -3 -23   4    1.67    1.29   1
  -3 -23   5    7.45    2.73   1
  -3 -23   6   17.02    4.13   1
  -3 -23   7   12.92    3.59   1
  -3 -23   8    5.06    2.25   1
  -3 -23  12    7.39    2.72   1
  -3 -23  13   13.73    3.70   1
  -3 -21 -11   11.52    3.39   1
  -3 -21 -10   10.68    3.27   1
  -3 -21  -9    8.97    3.00   1
  -3 -21  -8   14.00    3.74   1
  -3 -21  -6    7.77    2.79   1
  -3 -21  -5   10.91    3.30   1
  -3 -21  -4   30.98    5.57   1
  -3 -21  -3   20.40    4.52   1
  -3 -21  -2    4.95    2.22   1
  -3 -21  -1   11.80    3.44   1
  -3 -21   0   11.22    3.35   1
  -3 -21   2   25.69    5.07   1
  -3 -21   3   32.25    5.68   1
  -3 -21   4   24.60    4.96   1
  -3 -21   5    6.53    2.55   1
  -3 -21   7   16.50    4.06   1
  -3 -21   8    5.66    2.38   1
  -3 -21  10   14.77    3.84   1
  -3 -21  11    3.26    1.81   1
  -3 -19  -9   16.91    4.11   1
  -3 -19  -8   24.75    4.97   1
  -3 -19  -7    5.36    2.32   1
  -3 -19  -6    4.94    2.22   1
  -3 -19  -5   25.12    5.01   1
  -3 -19  -4   17.06    4.13   1
  -3 -19  -2   36.45    6.04   1
  -3 -19  -1   36.51    6.04   1
  -3 -19   0   15.98    4.00   1
  -3 -19   2   10.13    3.18   1
  -3 -19   3   25.95    5.09   1
  -3 -19   4   13.50    3.67   1
  -3 -19   5   24.52    4.95   1
  -3 -19   6   14.60    3.82   1
  -3 -19   7   25.20    5.02   1
  -3 -19   8    9.38    3.06   1
  -3 -19   9   11.40    3.38   1
  -3 -19  10   24.17    4.92   1
  -3 -19  11    6.87    2.62   1
  -3 -19  12   10.65    3.26   1
  -3 -17 -10    6.79    2.61   1
  -3 -17  -8   18.74    4.33   1
  -3 -17  -7    6.67    2.58   1
  -3 -17  -6   12.90    3.59   1
  -3 -17  -5   83.82    9.16   1
  -3 -17  -4   58.13    7.62   1
  -3 -17  -3    5.00    2.24   1
  -3 -17  -2   31.69    5.63   1
  -3 -17  -1    5.61    2.37   1
  -3 -17   0    7.05    2.66   1
  -3 -17   1   23.14    4.81   1
  -3 -17   2    7.61    2.76   1
  -3 -17   3   14.32    3.78   1
  -3 -17   5   21.38    4.62   1
  -3 -17   6   20.48    4.52   1
  -3 -17   7   31.91    5.65   1
  -3 -17   8    7.60    2.76   1
  -3 -17   9   14.00    3.74   1
  -3 -17  10   15.71    3.96   1
  -3 -17  11    8.18    2.86   1
  -3 -15  -8   30.15    5.49   1
  -3 -15  -6    6.50    2.55   1
  -3 -15  -4   23.63    4.86   1
  -3 -15  -3   35.84    5.99   1
  -3 -15  -2   89.26    9.45   1
  -3 -15  -1   13.95    3.73   1
  -3 -15   0   24.49    4.95   1
  -3 -15   1    9.60    3.10   1
  -3 -15   2   22.73    4.77   1
  -3 -15   3   64.28    8.02   1
  -3 -15   4   48.60    6.97   1
  -3 -15   5   38.59    6.21   1
  -3 -15   6   20.02    4.47   1
  -3 -15   7   87.29    9.34   1
  -3 -15   8   77.55    8.81   1
  -3 -15   9   33.17    5.76   1
  -3 -13  -9   23.38    4.84   1
  -3 -13  -8   34.35    5.86   1
  -3 -13  -6   23.29    4.83   1
  -3 -13  -5    8.95    2.99   1
  -3 -13  -4   29.55    5.44   1
  -3 -13  -3   17.56    4.19   1
  -3 -13  -2   26.92    5.19   1
  -3 -13  -1   14.54    3.81   1
  -3 -13   0   21.76    4.66   1
  -3 -13   1   13.95    3.73   1
  -3 -13   2    6.38    2.52   1
  -3 -13   3   23.06    4.80   1
  -3 -13   4   28.68    5.35   1
  -3 -13   5    5.72    2.39   1
  -3 -13   6   18.08    4.25   1
  -3 -13   7    5.67    2.38   1
  -3 -13   8   11.14    3.34   1
  -3 -13   9   20.85    4.57   1
  -3 -11  -9   16.84    4.10   1
  -3 -11  -8   18.83    4.34   1
  -3 -11  -7   17.21    4.15   1
  -3 -11  -6   15.93    3.99   1
  -3 -11  -5    2.80    1.67   1
  -3 -11  -4   68.25    8.26   1
  -3 -11  -3   25.20    5.02   1
  -3 -11  -2   55.09    7.42   1
  -3 -11  -1   77.51    8.80   1
  -3 -11   0   25.10    5.01   1
  -3 -11   1   93.25    9.66   1
  -3 -11   2   48.07    6.93   1
  -3 -11   3   57.83    7.60   1
  -3 -11   4   46.88    6.85   1
  -3 -11   5   50.32    7.09   1
  -3 -11   6   14.13    3.76   1
  -3 -11   7   12.33    3.51   1
  -3 -11   8   28.74    5.36   1
  -3 -11   9   17.75    4.21   1
  -3  -9  -8   24.94    4.99   1
  -3  -9  -7   22.95    4.79   1
  -3  -9  -6   16.46    4.06   1
  -3  -9  -5   26.92    5.19   1
  -3  -9  -4   15.52    3.94   1
  -3  -9  -3   16.27    4.03   1
  -3  -9  -2   27.26    5.22   1
  -3  -9  -1   37.31    6.11   1
  -3  -9   0    5.67    2.38   1
  -3  -9   1   54.67    7.39   1
  -3  -9   2   37.61    6.13   1
  -3  -9   3   85.50    9.25   1
  -3  -9   4   28.58    5.35   1
  -3  -9   5   10.40    3.22   1
  -3  -9   6   34.02    5.83   1
  -3  -9   7   66.29    8.14   1
  -3  -9   8    4.01    2.00   1
  -3  -7  -8   23.97    4.90   1
  -3  -7  -7   15.30    3.91   1
  -3  -7  -6  108.60   10.42   1
  -3  -7  -5  447.05   21.14   1
  -3  -7  -4 1102.20   33.20   1
  -3  -7  -3  142.27   11.93   1
  -3  -7  -2   84.07    9.17   1
  -3  -7  -1  110.47   10.51   1
  -3  -7   0   58.39    7.64   1
  -3  -7   1  115.13   10.73   1
  -3  -7   2   71.47    8.45   1
  -3  -7   3   53.29    7.30   1
  -3  -7   4  225.35   15.01   1
  -3  -7   5 1140.68   33.77   1
  -3  -7   6  119.85   10.95   1
  -3  -7   7   48.83    6.99   1
  -3  -7   8    4.65    2.16   1
  -3  -5  -7   95.06    9.75   1
  -3  -5  -6  153.00   12.37   1
  -3  -5  -5   21.75    4.66   1
  -3  -5  -4   47.85    6.92   1
  -3  -5  -3  171.48   13.10   1
  -3  -5  -2   12.52    3.54   1
  -3  -5  -1  194.41   13.94   1
  -3  -5   0   11.20    3.35   1
  -3  -5   1  233.58   15.28   1
  -3  -5   2   47.85    6.92   1
  -3  -5   3  162.45   12.75   1
  -3  -5   4   47.72    6.91   1
  -3  -5   5   44.06    6.64   1
  -3  -5   6   62.14    7.88   1
  -3  -5   7   58.13    7.62   1
  -3  -3  -7   37.62    6.13   1
  -3  -3  -6   51.71    7.19   1
  -3  -3  -5  684.75   26.17   1
  -3  -3  -4  294.54   17.16   1
  -3  -3  -3  310.35   17.62   1
  -3  -3  -2   80.38    8.97   1
  -3  -3  -1  991.68   31.49   1
  -3  -3   0   49.13    7.01   1
  -3  -3   1  633.10   25.16   1
  -3  -3   2  128.81   11.35   1
  -3  -3   3  214.20   14.64   1
  -3  -3   4  222.55   14.92   1
  -3  -3   5  372.05   19.29   1
  -3  -3   6   50.96    7.14   1
  -3  -1  -7  222.20   14.91   1
  -3  -1  -6  102.79   10.14   1
  -3  -1  -5  138.79   11.78   1
  -3  -1  -4   23.85    4.88   1
  -3  -1  -3  237.23   15.40   1
  -3  -1  -2   36.10    6.01   1
  -3  -1  -1   97.57    9.88   1
  -3  -1   0   23.51    4.85   1
  -3  -1   1   87.97    9.38   1
  -3  -1   2   49.83    7.06   1
  -3  -1   3  314.33   17.73   1
  -3  -1   4   16.47    4.06   1
  -3  -1   5  119.38   10.93   1
  -3  -1   6  128.18   11.32   1
  -3   1  -6  151.92   12.33   1
  -3   1  -5   62.43    7.90   1
  -3   1  -4   31.58    5.62   1
  -3   1  -3  219.27   14.81   1
  -3   1  -2   36.11    6.01   1
  -3   1  -1   53.74    7.33   1
  -3   1   0   30.30    5.50   1
  -3   1   1   86.60    9.31   1
  -3   1   2   30.38    5.51   1
  -3   1   3  233.25   15.27   1
  -3   1   4   35.08    5.92   1
  -3   1   5   65.93    8.12   1
  -3   1   6   37.95    6.16   1
  -3   3  -6   24.98    5.00   1
  -3   3  -5  446.94   21.14   1
  -3   3  -4  215.67   14.69   1
  -3   3  -3  201.93   14.21   1
  -3   3  -2   87.43    9.35   1
  -3   3  -1  924.45   30.40   1
  -3   3   0   58.50    7.65   1
  -3   3   1  743.70   27.27   1
  -3   3   2  114.11   10.68   1
  -3   3   3  118.01   10.86   1
  -3   3   4  182.63   13.51   1
  -3   3   5  396.00   19.90   1
  -3   5  -5   61.13    7.82   1
  -3   5  -4   71.18    8.44   1
  -3   5  -3   93.72    9.68   1
  -3   5  -2   57.06    7.55   1
  -3   5  -1  276.98   16.64   1
  -3   5   0   36.34    6.03   1
  -3   5   1  234.33   15.31   1
  -3   5   2   17.06    4.13   1
  -3   5   3  119.87   10.95   1
  -3   5   4   35.21    5.93   1
  -3   7  -4  123.82   11.13   1
  -3   7  -3  159.82   12.64   1
  -3   7  -2   35.29    5.94   1
  -3   7  -1  158.74   12.60   1
  -3   7   0   28.65    5.35   1
  -3   7   1  158.63   12.59   1
  -3   7   2   50.47    7.10   1
  -3   7   3   73.15    8.55   1
  -3   7   4  139.90   11.83   1
  -3   9  -3   49.65    7.05   1
  -3   9  -2   31.46    5.61   1
  -3   9  -1   77.55    8.81   1
  -3   9   0   34.61    5.88   1
  -3   9   1   73.09    8.55   1
  -3   9   2   51.63    7.19   1
  -3   9   3   41.10    6.41   1
  -3  11  -3   58.89    7.67   1
  -3  11  -2   36.08    6.01   1
  -3  11  -1  145.73   12.07   1
  -3  11   0   37.80    6.15   1
  -3  11   1  130.88   11.44   1
  -3  11   2   39.08    6.25   1
  -3  11   3   35.25    5.94   1
  -3  13  -2   30.49    5.52   1
  -3  13  -1   38.78    6.23   1
  -3  13   0   25.28    5.03   1
  -3  13   1   40.84    6.39   1
  -3  13   2   26.10    5.11   1
  -3  15  -2   33.67    5.80   1
  -3  15  -1   27.18    5.21   1
  -3  15   0   19.51    4.42   1
  -3  15   1   43.40    6.59   1
  -3  15   2   30.03    5.48   1
  -3  17  -1   38.55    6.21   1
  -3  17   0   33.98    5.83   1
  -3  17   1   15.60    3.95   1
  -3  19   0   44.21    6.65   1
  -3  19   1   17.59    4.19   1
  -3  21   0   28.26    5.32   1
  -3  21   1   14.63    3.82   1
  -3  23   0   29.32    5.41   1
  -3  23   1   19.58    4.42   1
  -2 -24 -10    7.01    2.65   1
  -2 -24  -9   14.19    3.77   1
  -2 -24  -8   20.73    4.55   1
  -2 -24  -7   24.23    4.92   1
  -2 -24  -6    7.05    2.66   1
  -2 -24  -5    6.27    2.50   1
  -2 -24  -3   17.63    4.20   1
  -2 -24  -2   19.23    4.39   1
  -2 -24  -1   13.27    3.64   1
  -2 -24   0    3.30    1.82   1
  -2 -24   1   24.85    4.99   1
  -2 -24   2    8.77    2.96   1
  -2 -24   3    6.97    2.64   1
  -2 -24   4    5.36    2.32   1
  -2 -24   5    7.91    2.81   1
  -2 -24   6   13.04    3.61   1
  -2 -24   7    4.28    2.07   1
  -2 -24   8   12.75    3.57   1
  -2 -24   9    2.97    1.72   1
  -2 -24  10   14.02    3.74   1
  -2 -24  11    7.13    2.67   1
  -2 -22  -9   16.44    4.05   1
  -2 -22  -8    9.63    3.10   1
  -2 -22  -6   18.08    4.25   1
  -2 -22  -5    6.82    2.61   1
  -2 -22  -4    3.11    1.76   1
  -2 -22  -3   22.65    4.76   1
  -2 -22  -2   10.50    3.24   1
  -2 -22  -1   16.97    4.12   1
  -2 -22   0   25.39    5.04   1
  -2 -22   1   46.71    6.83   1
  -2 -22   2   15.21    3.90   1
  -2 -22   3   21.33    4.62   1
  -2 -22   5   13.35    3.65   1
  -2 -22   6   13.10    3.62   1
  -2 -22   7   11.94    3.46   1
  -2 -20  -9    5.70    2.39   1
  -2 -20  -8   11.35    3.37   1
  -2 -20  -7    8.07    2.84   1
  -2 -20  -5    7.77    2.79   1
  -2 -20  -4    9.71    3.12   1
  -2 -20  -3    2.89    1.70   1
  -2 -20  -2   17.33    4.16   1
  -2 -20  -1   91.56    9.57   1
  -2 -20   0   23.61    4.86   1
  -2 -20   1   80.51    8.97   1
  -2 -20   2   22.58    4.75   1
  -2 -20   3   50.81    7.13   1
  -2 -20   4   32.47    5.70   1
  -2 -20   6    3.90    1.97   1
  -2 -20   7    7.65    2.77   1
  -2 -20   8   14.40    3.79   1
  -2 -18  -8    7.69    2.77   1
  -2 -18  -7   16.09    4.01   1
  -2 -18  -6   21.49    4.64   1
  -2 -18  -5    2.76    1.66   1
  -2 -18  -4   20.14    4.49   1
  -2 -18  -3   28.42    5.33   1
  -2 -18  -2   13.90    3.73   1
  -2 -18  -1   13.45    3.67   1
  -2 -18   0   60.29    7.76   1
  -2 -18   1   66.28    8.14   1
  -2 -18   2   16.95    4.12   1
  -2 -18   3   10.73    3.27   1
  -2 -18   4   38.33    6.19   1
  -2 -18   5   20.92    4.57   1
  -2 -18   6    7.72    2.78   1
  -2 -18   7    9.91    3.15   1
  -2 -18   8    2.47    1.57   1
  -2 -16  -7   31.92    5.65   1
  -2 -16  -6    2.17    1.47   1
  -2 -16  -5   15.90    3.99   1
  -2 -16  -4   18.49    4.30   1
  -2 -16  -3   23.63    4.86   1
  -2 -16  -2   18.45    4.30   1
  -2 -16  -1   36.45    6.04   1
  -2 -16   0   86.77    9.31   1
  -2 -16   1   40.91    6.40   1
  -2 -16   2   53.92    7.34   1
  -2 -16   3   47.03    6.86   1
  -2 -16   4    4.14    2.04   1
  -2 -16   5    7.43    2.72   1
  -2 -16   6   21.31    4.62   1
  -2 -16   7   25.88    5.09   1
  -2 -16   8    7.87    2.81   1
  -2 -14  -8   11.85    3.44   1
  -2 -14  -7   30.60    5.53   1
  -2 -14  -6   29.66    5.45   1
  -2 -14  -5   45.08    6.71   1
  -2 -14  -4   19.60    4.43   1
  -2 -14  -3   29.25    5.41   1
  -2 -14  -2   19.01    4.36   1
  -2 -14  -1  179.85   13.41   1
  -2 -14   0  452.33   21.27   1
  -2 -14   1  264.72   16.27   1
  -2 -14   2  125.78   11.21   1
  -2 -14   3   65.85    8.11   1
  -2 -14   4   34.50    5.87   1
  -2 -14   5   22.27    4.72   1
  -2 -14   6    2.43    1.56   1
  -2 -14   7   27.90    5.28   1
  -2 -14   8    5.14    2.27   1
  -2 -12  -7    3.67    1.92   1
  -2 -12  -6   11.70    3.42   1
  -2 -12  -4   37.42    6.12   1
  -2 -12  -3    8.45    2.91   1
  -2 -12  -2   29.15    5.40   1
  -2 -12  -1   40.89    6.39   1
  -2 -12   0   57.76    7.60   1
  -2 -12   1   51.61    7.18   1
  -2 -12   2   39.08    6.25   1
  -2 -12   3   25.20    5.02   1
  -2 -12   4   15.23    3.90   1
  -2 -12   5   27.04    5.20   1
  -2 -12   6   20.02    4.47   1
  -2 -12   7   23.94    4.89   1
  -2 -10  -7   31.85    5.64   1
  -2 -10  -6   20.57    4.54   1
  -2 -10  -5   36.38    6.03   1
  -2 -10  -4   29.48    5.43   1
  -2 -10  -3   48.15    6.94   1
  -2 -10  -2    8.74    2.96   1
  -2 -10  -1    4.29    2.07   1
  -2 -10   0  146.25   12.09   1
  -2 -10   1   45.30    6.73   1
  -2 -10   2   28.95    5.38   1
  -2 -10   3   43.88    6.62   1
  -2 -10   4   29.20    5.40   1
  -2 -10   5   37.30    6.11   1
  -2 -10   6    9.35    3.06   1
  -2 -10   7   28.73    5.36   1
  -2  -8  -6  202.79   14.24   1
  -2  -8  -5   87.53    9.36   1
  -2  -8  -4  126.82   11.26   1
  -2  -8  -3   50.97    7.14   1
  -2  -8  -2   32.07    5.66   1
  -2  -8  -1   50.63    7.12   1
  -2  -8   0  169.05   13.00   1
  -2  -8   1   43.80    6.62   1
  -2  -8   2   12.26    3.50   1
  -2  -8   3   13.59    3.69   1
  -2  -8   4   78.04    8.83   1
  -2  -8   5  129.25   11.37   1
  -2  -8   6  125.47   11.20   1
  -2  -6  -6   33.35    5.77   1
  -2  -6  -5   68.40    8.27   1
  -2  -6  -4  848.29   29.13   1
  -2  -6  -3  122.93   11.09   1
  -2  -6  -2  290.16   17.03   1
  -2  -6  -1  495.08   22.25   1
  -2  -6   0  495.23   22.25   1
  -2  -6   1  359.95   18.97   1
  -2  -6   2  335.48   18.32   1
  -2  -6   3   45.08    6.71   1
  -2  -6   4  509.92   22.58   1
  -2  -6   5   92.03    9.59   1
  -2  -6   6   11.29    3.36   1
  -2  -4  -5  103.09   10.15   1
  -2  -4  -4  368.64   19.20   1
  -2  -4  -3   63.08    7.94   1
  -2  -4  -2   62.20    7.89   1
  -2  -4  -1   94.68    9.73   1
  -2  -4   0  184.27   13.57   1
  -2  -4   1   85.66    9.26   1
  -2  -4   2   54.31    7.37   1
  -2  -4   3   87.05    9.33   1
  -2  -4   4  146.25   12.09   1
  -2  -4   5   49.05    7.00   1
  -2  -2  -5   45.71    6.76   1
  -2  -2  -4   55.97    7.48   1
  -2  -2  -3   28.73    5.36   1
  -2  -2  -2  154.54   12.43   1
  -2  -2  -1  420.35   20.50   1
  -2  -2   0  717.55   26.79   1
  -2  -2   1  292.47   17.10   1
  -2  -2   2   70.80    8.41   1
  -2  -2   3   77.55    8.81   1
  -2  -2   4   55.72    7.46   1
  -2   0  -4   42.45    6.52   1
  -2   0  -3   25.74    5.07   1
  -2   0  -2   62.91    7.93   1
  -2   0  -1   33.67    5.80   1
  -2   0   0  257.85   16.06   1
  -2   0   1   66.34    8.14   1
  -2   0   2   18.71    4.33   1
  -2   0   3   59.33    7.70   1
  -2   0   4   24.07    4.91   1
  -2   2  -3   36.79    6.07   1
  -2   2  -2   46.55    6.82   1
  -2   2  -1  260.28   16.13   1
  -2   2   0  483.08   21.98   1
  -2   2   1  281.43   16.78   1
  -2   2   2   68.96    8.30   1
  -2   2   3   58.13    7.62   1
  -2   4  -3   57.67    7.59   1
  -2   4  -2   51.54    7.18   1
  -2   4  -1   89.10    9.44   1
  -2   4   0  267.08   16.34   1
  -2   4   1   82.65    9.09   1
  -2   4   2   24.56    4.96   1
  -2   4   3   46.39    6.81   1
  -2   6  -2  201.38   14.19   1
  -2   6  -1  473.27   21.75   1
  -2   6   0  680.51   26.09   1
  -2   6   1  482.82   21.97   1
  -2   6   2  208.47   14.44   1
  -2   8  -2   33.85    5.82   1
  -2   8  -1   28.67    5.35   1
  -2   8   0   65.40    8.09   1
  -2   8   1   33.93    5.83   1
  -2   8   2   39.64    6.30   1
  -2  10  -1   50.93    7.14   1
  -2  10   0   84.11    9.17   1
  -2  10   1   28.50    5.34   1
  -2  12  -1   39.55    6.29   1
  -2  12   0   68.96    8.30   1
  -2  12   1   42.83    6.54   1
  -2  14   0  683.19   26.14   1
  -2  16   0   69.82    8.36   1
  -2  16   1    9.11    3.02   1
  -2  18  -1   22.54    4.75   1
  -2  18   0   54.56    7.39   1
  -2  18   1   23.77    4.88   1
  -2  20  -1   58.72    7.66   1
  -2  20   0   60.60    7.78   1
  -2  20   1   54.38    7.37   1
  -2  20   2   18.39    4.29   1
  -2  22  -2    8.02    2.83   1
  -2  22  -1   27.23    5.22   1
  -2  22   0   34.70    5.89   1
  -2  22   1   29.21    5.40   1
  -2  22   2   28.42    5.33   1
  -2  22   3   24.75    4.97   1
  -2  24  -2   20.79    4.56   1
  -2  24  -1   20.14    4.49   1
  -2  24   0   42.49    6.52   1
  -2  24   1   34.11    5.84   1
  -2  24   2   15.41    3.93   1
  -2  24   3   14.68    3.83   1
  -1 -23  -7    7.88    2.81   1
  -1 -23  -6   12.60    3.55   1
  -1 -23  -5    2.59    1.61   1
  -1 -23  -4   14.55    3.81   1
  -1 -23  -3   36.97    6.08   1
  -1 -23  -2    9.56    3.09   1
  -1 -23  -1   18.98    4.36   1
  -1 -23   0   39.75    6.30   1
  -1 -23   1   13.16    3.63   1
  -1 -23   2   12.34    3.51   1
  -1 -23   3   10.69    3.27   1
  -1 -23   4   22.27    4.72   1
  -1 -23   5   28.85    5.37   1
  -1 -23   6   15.50    3.94   1
  -1 -23   7    1.54    1.24   1
  -1 -23   8    4.28    2.07   1
  -1 -23   9    7.43    2.72   1
  -1 -21  -6   16.20    4.02   1
  -1 -21  -4   10.24    3.20   1
  -1 -21  -3   30.19    5.49   1
  -1 -21  -2   14.70    3.83   1
  -1 -21  -1   31.63    5.62   1
  -1 -21   0   14.99    3.87   1
  -1 -21   1   28.27    5.32   1
  -1 -21   2   15.64    3.95   1
  -1 -21   3   17.96    4.24   1
  -1 -21   4   10.75    3.28   1
  -1 -21   6    3.00    1.73   1
  -1 -21   7   19.33    4.40   1
  -1 -21   8   15.85    3.98   1
  -1 -19  -6   27.79    5.27   1
  -1 -19  -4   10.80    3.29   1
  -1 -19  -3  133.57   11.56   1
  -1 -19  -2   35.39    5.95   1
  -1 -19  -1   29.15    5.40   1
  -1 -19   0   15.75    3.97   1
  -1 -19   1    7.57    2.75   1
  -1 -19   2   28.54    5.34   1
  -1 -19   3   16.19    4.02   1
  -1 -19   4   42.19    6.50   1
  -1 -19   5    3.83    1.96   1
  -1 -19   6    4.72    2.17   1
  -1 -19   7   21.32    4.62   1
  -1 -19   8   16.50    4.06   1
  -1 -17  -6   21.45    4.63   1
  -1 -17  -4    4.16    2.04   1
  -1 -17  -3   24.92    4.99   1
  -1 -17  -2   23.74    4.87   1
  -1 -17  -1   29.59    5.44   1
  -1 -17   0   14.18    3.77   1
  -1 -17   1   21.38    4.62   1
  -1 -17   2   35.06    5.92   1
  -1 -17   3   38.03    6.17   1
  -1 -17   4   30.98    5.57   1
  -1 -17   5    7.50    2.74   1
  -1 -17   6    5.13    2.26   1
  -1 -17   7   10.61    3.26   1
  -1 -15  -6   27.23    5.22   1
  -1 -15  -5   17.65    4.20   1
  -1 -15  -4   24.75    4.97   1
  -1 -15  -3   23.70    4.87   1
  -1 -15  -2   14.53    3.81   1
  -1 -15  -1   39.01    6.25   1
  -1 -15   0    7.40    2.72   1
  -1 -15   1   25.20    5.02   1
  -1 -15   2   54.75    7.40   1
  -1 -15   3   27.17    5.21   1
  -1 -15   4   27.27    5.22   1
  -1 -15   5   20.10    4.48   1
  -1 -15   6   10.53    3.24   1
  -1 -13  -5   14.85    3.85   1
  -1 -13  -4   16.65    4.08   1
  -1 -13  -3    5.89    2.43   1
  -1 -13  -2   23.36    4.83   1
  -1 -13  -1  141.07   11.88   1
  -1 -13   0   18.98    4.36   1
  -1 -13   1    2.78    1.67   1
  -1 -13   2  113.93   10.67   1
  -1 -13   3   42.60    6.53   1
  -1 -13   4   17.72    4.21   1
  -1 -13   5   12.90    3.59   1
  -1 -13   6   16.70    4.09   1
  -1 -11  -5    3.24    1.80   1
  -1 -11  -4   49.58    7.04   1
  -1 -11  -3   29.21    5.40   1
  -1 -11  -2   25.92    5.09   1
  -1 -11  -1   14.35    3.79   1
  -1 -11   0   40.51    6.36   1
  -1 -11   1   40.20    6.34   1
  -1 -11   2   37.06    6.09   1
  -1 -11   3   35.55    5.96   1
  -1 -11   4   61.81    7.86   1
  -1 -11   5   36.97    6.08   1
  -1  -9  -4   29.02    5.39   1
  -1  -9  -3   29.96    5.47   1
  -1  -9  -2   55.09    7.42   1
  -1  -9  -1   51.75    7.19   1
  -1  -9   0   39.83    6.31   1
  -1  -9   1   33.21    5.76   1
  -1  -9   2   94.80    9.74   1
  -1  -9   3   60.00    7.75   1
  -1  -9   4   61.89    7.87   1
  -1  -7  -4   29.75    5.45   1
  -1  -7  -3   39.75    6.30   1
  -1  -7  -2  846.89   29.10   1
  -1  -7  -1   97.05    9.85   1
  -1  -7   1  126.22   11.23   1
  -1  -7   2  874.70   29.58   1
  -1  -7   3   48.63    6.97   1
  -1  -7   4   10.36    3.22   1
  -1  -5  -3   48.79    6.99   1
  -1  -5  -2  179.25   13.39   1
  -1  -5  -1   70.38    8.39   1
  -1  -5   0   55.86    7.47   1
  -1  -5   1   40.22    6.34   1
  -1  -5   2   43.65    6.61   1
  -1  -5   3   51.71    7.19   1
  -1  -3  -3   39.60    6.29   1
  -1  -3  -2  457.13   21.38   1
  -1  -3  -1   91.60    9.57   1
  -1  -3   0   39.45    6.28   1
  -1  -3   1   37.13    6.09   1
  -1  -3   2  163.62   12.79   1
  -1  -3   3   66.30    8.14   1
  -1  -1  -2  479.17   21.89   1
  -1  -1   2  402.86   20.07   1
  -1   1  -2   40.35    6.35   1
  -1   3  -1   46.65    6.83   1
  -1   3   0  148.24   12.18   1
  -1   3   1   37.16    6.10   1
  -1   5  -1   43.35    6.58   1
  -1   5   0   77.81    8.82   1
  -1   5   1   81.71    9.04   1
  -1   7   0  382.38   19.55   1
  -1   9   0   43.26    6.58   1
  -1   9   1    8.16    2.86   1
  -1  11  -1   33.03    5.75   1
  -1  11   0   57.88    7.61   1
  -1  11   1   46.39    6.81   1
  -1  13  -1   28.23    5.31   1
  -1  13   0   38.66    6.22   1
  -1  13   1   24.11    4.91   1
  -1  13   2   38.48    6.20   1
  -1  15  -2   17.95    4.24   1
  -1  15  -1   42.22    6.50   1
  -1  15   0   37.65    6.14   1
  -1  15   1   40.20    6.34   1
  -1  15   2   45.78    6.77   1
  -1  17  -2   31.58    5.62   1
  -1  17  -1   19.58    4.42   1
  -1  17   0   33.67    5.80   1
  -1  17   1   24.71    4.97   1
  -1  17   2   47.25    6.87   1
  -1  17   3   14.99    3.87   1
  -1  19  -3   28.00    5.29   1
  -1  19  -2   45.15    6.72   1
  -1  19  -1   34.35    5.86   1
  -1  19   0   26.70    5.17   1
  -1  19   1   20.74    4.55   1
  -1  19   2   22.46    4.74   1
  -1  19   3   11.18    3.34   1
  -1  19   4   27.75    5.27   1
  -1  21  -3   22.20    4.71   1
  -1  21  -2   25.88    5.09   1
  -1  21  -1   23.33    4.83   1
  -1  21   0   29.90    5.47   1
  -1  21   1    8.63    2.94   1
  -1  21   2   34.11    5.84   1
  -1  21   3    3.38    1.84   1
  -1  21   4   17.89    4.23   1
  -1  23  -4   14.48    3.80   1
  -1  23  -3   13.13    3.62   1
  -1  23  -2    8.21    2.87   1
  -1  23  -1   14.02    3.74   1
  -1  23   0    3.87    1.97   1
  -1  23   1   20.59    4.54   1
  -1  23   2   12.26    3.50   1
  -1  23   3   17.85    4.22   1
  -1  23   4   13.91    3.73   1
   0 -24  -6    2.28    1.51   1
   0 -24  -5   11.98    3.46   1
   0 -24  -4    4.24    2.06   1
   0 -24  -3    6.10    2.47   1
   0 -24  -2    9.98    3.16   1
   0 -24  -1   37.65    6.14   1
   0 -24   0   17.39    4.17   1
   0 -24   1   31.38    5.60   1
   0 -24   2   16.88    4.11   1
   0 -24   3   18.04    4.25   1
   0 -24   4   15.30    3.91   1
   0 -24   5    4.23    2.06   1
   0 -24   7    9.45    3.07   1
   0 -22  -5    2.12    1.46   1
   0 -22  -4    6.03    2.45   1
   0 -22  -3    3.11    1.76   1
   0 -22  -2   23.02    4.80   1
   0 -22  -1   19.58    4.42   1
   0 -22   0   41.03    6.41   1
   0 -22   1  125.15   11.19   1
   0 -22   2    2.85    1.69   1
   0 -22   3   15.18    3.90   1
   0 -22   4    3.23    1.80   1
   0 -22   5    2.66    1.63   1
   0 -22   6   29.20    5.40   1
   0 -22   7   27.71    5.26   1
   0 -20  -4    7.01    2.65   1
   0 -20  -3   23.45    4.84   1
   0 -20  -2   16.18    4.02   1
   0 -20  -1   26.70    5.17   1
   0 -20   0   69.80    8.35   1
   0 -20   1  164.55   12.83   1
   0 -20   3    9.84    3.14   1
   0 -20   4   27.90    5.28   1
   0 -20   5   18.09    4.25   1
   0 -20   6   19.73    4.44   1
   0 -18  -4   13.46    3.67   1
   0 -18  -3    4.84    2.20   1
   0 -18  -2    8.59    2.93   1
   0 -18  -1   22.05    4.70   1
   0 -18   0   65.55    8.10   1
   0 -18   1  123.57   11.12   1
   0 -18   2   15.31    3.91   1
   0 -18   3   17.79    4.22   1
   0 -18   4   16.39    4.05   1
   0 -18   5   23.02    4.80   1
   0 -16  -3   26.10    5.11   1
   0 -16  -2   13.32    3.65   1
   0 -16  -1  203.82   14.28   1
   0 -16   0  394.71   19.87   1
   0 -16   1  103.50   10.17   1
   0 -16   2   95.63    9.78   1
   0 -16   3  142.57   11.94   1
   0 -16   4   72.80    8.53   1
   0 -14  -4   28.35    5.32   1
   0 -14  -3   48.60    6.97   1
   0 -14  -2   25.33    5.03   1
   0 -14  -1   12.64    3.55   1
   0 -14   0  490.77   22.15   1
   0 -14   1  103.89   10.19   1
   0 -14   2   17.55    4.19   1
   0 -14   3   15.79    3.97   1
   0 -14   4   42.01    6.48   1
   0 -12  -3   11.54    3.40   1
   0 -12  -2   16.98    4.12   1
   0 -12  -1   43.60    6.60   1
   0 -12   0  365.13   19.11   1
   0 -12   1  120.07   10.96   1
   0 -12   2   21.23    4.61   1
   0 -12   3   37.54    6.13   1
   0 -12   4    2.80    1.67   1
   0 -10  -2   29.89    5.47   1
   0 -10  -1   83.59    9.14   1
   0 -10   0 1049.70   32.40   1
   0 -10   1   38.90    6.24   1
   0 -10   2   42.40    6.51   1
   0 -10   3   46.76    6.84   1
   0  -8  -2 1180.91   34.36   1
   0  -8  -1  123.04   11.09   1
   0  -8   0 5568.30   74.62   1
   0  -8   1  392.40   19.81   1
   0  -8   2  836.33   28.92   1
   0  -6  -2   60.12    7.75   1
   0  -6  -1   37.24    6.10   1
   0  -6   0 1329.15   36.46   1
   0  -6   1   72.11    8.49   1
   0  -6   2   66.77    8.17   1
   0  -4  -1   30.30    5.50   1
   0  -4   0  439.13   20.96   1
   0  -4   1   61.01    7.81   1
   0  -2   0 1688.25   41.09   1
   0   2   0 1784.10   42.24   1
   0   4  -1   32.27    5.68   1
   0   4   0  700.56   26.47   1
   0   4   1   28.69    5.36   1
   0   6  -2   23.92    4.89   1
   0   6  -1   31.84    5.64   1
   0   6   0 1310.03   36.19   1
   0   6   1   33.60    5.80   1
   0   6   2   85.66    9.26   1
   0   8  -2 1051.24   32.42   1
   0   8  -1   71.93    8.48   1
   0   8   0 7835.70   88.52   1
   0   8   1   79.19    8.90   1
   0   8   2 1713.45   41.39   1
   0  10  -2   53.81    7.34   1
   0  10  -1   32.78    5.72   1
   0  10   0 1538.85   39.23   1
   0  10   1   12.51    3.54   1
   0  10   2   43.27    6.58   1
   0  10   3   34.72    5.89   1
   0  12  -3   37.50    6.12   1
   0  12  -2   32.10    5.67   1
   0  12  -1   52.95    7.28   1
   0  12   0  263.13   16.22   1
   0  12   1   43.87    6.62   1
   0  12   2   29.43    5.43   1
   0  12   3   29.73    5.45   1
   0  12   4    3.63    1.90   1
   0  14  -4    7.62    2.76   1
   0  14  -3   27.81    5.27   1
   0  14  -2   20.37    4.51   1
   0  14  -1   11.77    3.43   1
   0  14   0  265.80   16.30   1
   0  14   1   35.92    5.99   1
   0  14   2    9.60    3.10   1
   0  14   3   11.30    3.36   1
   0  14   4   56.66    7.53   1
   0  16  -4   59.47    7.71   1
   0  16  -3  108.15   10.40   1
   0  16  -2  200.15   14.15   1
   0  16  -1  132.64   11.52   1
   0  16   0  153.66   12.40   1
   0  16   1   27.98    5.29   1
   0  16   2  242.24   15.56   1
   0  16   3   51.11    7.15   1
   0  16   4  119.10   10.91   1
   0  16   5   12.30    3.51   1
   0  18  -4   26.12    5.11   1
   0  18  -3   44.85    6.70   1
   0  18  -2   22.65    4.76   1
   0  18  -1   49.45    7.03   1
   0  18   0   95.29    9.76   1
   0  18   1   21.08    4.59   1
   0  18   2   37.17    6.10   1
   0  18   3   10.32    3.21   1
   0  18   4   28.80    5.37   1
   0  18   5   35.47    5.96   1
   0  20  -5   22.13    4.70   1
   0  20  -4    9.07    3.01   1
   0  20  -3   20.78    4.56   1
   0  20  -2   24.00    4.90   1
   0  20  -1   27.75    5.27   1
   0  20   0   65.10    8.07   1
   0  20   1   15.75    3.97   1
   0  20   2   20.92    4.57   1
   0  20   3    2.80    1.67   1
   0  20   4   26.92    5.19   1
   0  20   5   14.45    3.80   1
   0  20   6   29.33    5.42   1
   0  22  -5   21.45    4.63   1
   0  22  -4   28.27    5.32   1
   0  22  -3   16.65    4.08   1
   0  22  -2   18.71    4.33   1
   0  22  -1   27.45    5.24   1
   0  22   0   35.40    5.95   1
   0  22   1   37.72    6.14   1
   0  22   2   20.25    4.50   1
   0  22   3   15.90    3.99   1
   0  22   4   31.50    5.61   1
   0  22   5    7.39    2.72   1
   0  22   6   18.26    4.27   1
   0  22   7   24.34    4.93   1
   0  24  -6    3.90    1.97   1
   0  24  -5   24.83    4.98   1
   0  24  -4   12.07    3.47   1
   0  24  -3   20.75    4.56   1
   0  24  -2   24.90    4.99   1
   0  24  -1   18.57    4.31   1
   0  24   0   11.82    3.44   1
   0  24   1   36.97    6.08   1
   0  24   2   16.20    4.02   1
   0  24   3   10.64    3.26   1
   0  24   4   23.92    4.89   1
   0  24   5    2.59    1.61   1
   0  24   7   15.87    3.98   1
   1 -23  -4    2.28    1.51   1
   1 -23  -3   25.42    5.04   1
   1 -23  -2   23.99    4.90   1
   1 -23  -1   13.46    3.67   1
   1 -23   0   10.61    3.26   1
   1 -23   1   26.85    5.18   1
   1 -23   2   22.20    4.71   1
   1 -23   3    4.15    2.04   1
   1 -23   4   13.88    3.72   1
   1 -23   5   10.56    3.25   1
   1 -21  -3    6.98    2.64   1
   1 -21  -2    8.29    2.88   1
   1 -21  -1   14.85    3.85   1
   1 -21   0   23.48    4.85   1
   1 -21   1   19.17    4.38   1
   1 -21   2   18.23    4.27   1
   1 -21   3   14.25    3.78   1
   1 -21   4   21.95    4.69   1
   1 -21   5   25.58    5.06   1
   1 -19  -2   16.75    4.09   1
   1 -19  -1   37.50    6.12   1
   1 -19   0   30.45    5.52   1
   1 -19   1   24.83    4.98   1
   1 -19   2   28.41    5.33   1
   1 -19   3   23.17    4.81   1
   1 -19   4    8.70    2.95   1
   1 -17  -2    8.10    2.85   1
   1 -17  -1   11.77    3.43   1
   1 -17   0   40.20    6.34   1
   1 -17   1   26.94    5.19   1
   1 -17   2   26.55    5.15   1
   1 -17   3   18.74    4.33   1
   1 -15  -1    4.09    2.02   1
   1 -15   0   25.31    5.03   1
   1 -15   1   16.58    4.07   1
   1 -15   2   40.10    6.33   1
   1 -13  -1   23.63    4.86   1
   1 -13   0  100.83   10.04   1
   1 -13   1   56.10    7.49   1
   1 -13   2   20.55    4.53   1
   1 -11  -1   26.54    5.15   1
   1 -11   0   45.42    6.74   1
   1 -11   1   40.90    6.40   1
   1  -9   0   47.33    6.88   1
   1  -9   1   31.39    5.60   1
   1  -7   0   61.76    7.86   1
   1  -5   0   62.15    7.88   1
   1  -5   1   72.70    8.53   1
   1  -3  -1   56.97    7.55   1
   1  -3   0   51.69    7.19   1
   1  -3   1   61.39    7.84   1
   1  -1   2   45.08    6.71   1
   1   1  -2  243.07   15.59   1
   1   1   2  650.55   25.51   1
   1   3  -3    3.04    1.74   1
   1   3  -2  219.10   14.80   1
   1   3  -1    4.43    2.10   1
   1   3   0    7.99    2.83   1
   1   3   1   45.94    6.78   1
   1   3   2  239.58   15.48   1
   1   3   3   13.20    3.63   1
   1   5  -3   94.75    9.73   1
   1   5  -2   44.70    6.69   1
   1   5  -1   81.80    9.04   1
   1   5   0   35.10    5.92   1
   1   5   1   54.58    7.39   1
   1   5   2  138.90   11.79   1
   1   5   3   36.27    6.02   1
   1   5   4   53.55    7.32   1
   1   7  -3   25.13    5.01   1
   1   7  -2  829.01   28.79   1
   1   7  -1  120.54   10.98   1
   1   7   1  127.46   11.29   1
   1   7   2 1067.93   32.68   1
   1   7   3   66.56    8.16   1
   1   7   4   48.89    6.99   1
   1   9  -4   56.89    7.54   1
   1   9  -3   45.22    6.72   1
   1   9  -2  110.63   10.52   1
   1   9  -1   39.03    6.25   1
   1   9   0   19.50    4.42   1
   1   9   1   31.42    5.61   1
   1   9   2   89.55    9.46   1
   1   9   3   21.38    4.62   1
   1   9   4   87.27    9.34   1
   1   9   5   24.04    4.90   1
   1  11  -5    1.81    1.34   1
   1  11  -4   86.32    9.29   1
   1  11  -3   26.59    5.16   1
   1  11  -2   35.78    5.98   1
   1  11  -1   37.80    6.15   1
   1  11   0   45.96    6.78   1
   1  11   1   25.54    5.05   1
   1  11   2   71.97    8.48   1
   1  11   3   19.20    4.38   1
   1  11   4  126.38   11.24   1
   1  11   5   14.14    3.76   1
   1  11   6    3.75    1.94   1
   1  13  -4   21.75    4.66   1
   1  13  -3   26.40    5.14   1
   1  13  -2  157.57   12.55   1
   1  13  -1   24.76    4.98   1
   1  13   0    3.92    1.98   1
   1  13   1   25.14    5.01   1
   1  13   2  155.10   12.45   1
   1  13   3   35.99    6.00   1
   1  13   4   29.55    5.44   1
   1  13   5   28.05    5.30   1
   1  13   6   40.05    6.33   1
   1  15  -6   27.30    5.22   1
   1  15  -5    7.03    2.65   1
   1  15  -4   35.73    5.98   1
   1  15  -3   21.34    4.62   1
   1  15  -2   40.72    6.38   1
   1  15  -1   44.35    6.66   1
   1  15   0   13.20    3.63   1
   1  15   1   29.10    5.39   1
   1  15   2   47.08    6.86   1
   1  15   3   20.48    4.52   1
   1  15   4   21.75    4.66   1
   1  15   5   16.16    4.02   1
   1  15   6   15.37    3.92   1
   1  15   7    3.08    1.76   1
   1  17  -5    3.96    1.99   1
   1  17  -4   41.10    6.41   1
   1  17  -3   29.06    5.39   1
   1  17  -2   47.55    6.90   1
   1  17  -1   34.81    5.90   1
   1  17   0   16.10    4.01   1
   1  17   1    6.11    2.47   1
   1  17   2   32.70    5.72   1
   1  17   3   24.00    4.90   1
   1  17   4   21.70    4.66   1
   1  17   5    8.35    2.89   1
   1  17   6   38.05    6.17   1
   1  17   7   24.81    4.98   1
   1  17   8    9.85    3.14   1
   1  19  -7    6.38    2.52   1
   1  19  -6   20.69    4.55   1
   1  19  -5   36.75    6.06   1
   1  19  -4   49.28    7.02   1
   1  19  -3  107.37   10.36   1
   1  19  -2   22.35    4.73   1
   1  19  -1    6.53    2.55   1
   1  19   0   18.48    4.30   1
   1  19   1   25.84    5.08   1
   1  19   2   24.34    4.93   1
   1  19   3   10.76    3.28   1
   1  19   4  115.65   10.75   1
   1  19   5   11.40    3.38   1
   1  19   6   24.34    4.93   1
   1  19   8   38.33    6.19   1
   1  21  -5    6.82    2.61   1
   1  21  -4   11.16    3.34   1
   1  21  -3   19.39    4.40   1
   1  21  -2    9.18    3.03   1
   1  21  -1   11.76    3.43   1
   1  21   0   16.16    4.02   1
   1  21   1    7.35    2.71   1
   1  21   2    7.61    2.76   1
   1  21   3   13.43    3.66   1
   1  21   4   30.30    5.50   1
   1  21   5   11.87    3.44   1
   1  21   6   14.06    3.75   1
   1  21   7    6.61    2.57   1
   1  21   8   50.51    7.11   1
   1  23  -7    5.20    2.28   1
   1  23  -6   13.13    3.62   1
   1  23  -5   17.25    4.15   1
   1  23  -4    7.31    2.70   1
   1  23  -3   20.17    4.49   1
   1  23  -2   16.35    4.04   1
   1  23  -1   18.54    4.31   1
   1  23   0   15.38    3.92   1
   1  23   1   11.74    3.43   1
   1  23   2    7.65    2.77   1
   1  23   3   17.33    4.16   1
   1  23   4   31.91    5.65   1
   1  23   5    6.90    2.63   1
   1  23   7    1.50    1.22   1
   1  23   8    8.18    2.86   1
   2 -24  -1   16.31    4.04   1
   2 -24   0   29.47    5.43   1
   2 -24   1   17.74    4.21   1
   2 -24   2   15.33    3.91   1
   2 -24   3   18.83    4.34   1
   2 -22  -1   29.66    5.45   1
   2 -22   0   18.53    4.30   1
   2 -22   1   41.25    6.42   1
   2 -22   2   18.64    4.32   1
   2 -22   3   10.20    3.19   1
   2 -20  -1   11.20    3.35   1
   2 -20   0   51.38    7.17   1
   2 -20   1   45.39    6.74   1
   2 -20   2   19.42    4.41   1
   2 -18   0   26.00    5.10   1
   2 -18   1   39.45    6.28   1
   2 -18   2   14.63    3.82   1
   2 -16   0   28.90    5.38   1
   2 -16   1   46.39    6.81   1
   2 -14   0  387.27   19.68   1
   2 -14   1    6.90    2.63   1
   2 -12   0   63.90    7.99   1
   2 -12   1   26.51    5.15   1
   2 -10  -1   36.00    6.00   1
   2 -10   0  115.16   10.73   1
   2 -10   1   42.30    6.50   1
   2 -10   2   20.27    4.50   1
   2  -8  -1   55.83    7.47   1
   2  -8   0   77.96    8.83   1
   2  -8   1   69.60    8.34   1
   2  -8   2   34.01    5.83   1
   2  -6  -2  156.99   12.53   1
   2  -6  -1  513.02   22.65   1
   2  -6   0  603.48   24.57   1
   2  -6   1  424.48   20.60   1
   2  -6   2  169.21   13.01   1
   2  -4  -3    7.20    2.68   1
   2  -4  -2  101.78   10.09   1
   2  -4  -1  108.77   10.43   1
   2  -4   0  190.44   13.80   1
   2  -4   1  119.31   10.92   1
   2  -4   2   26.81    5.18   1
   2  -4   3   35.77    5.98   1
   2  -2  -3   48.94    7.00   1
   2  -2  -2   25.21    5.02   1
   2  -2  -1  148.72   12.19   1
   2  -2   0  440.89   21.00   1
   2  -2   1  245.29   15.66   1
   2  -2   2   70.13    8.37   1
   2  -2   3   66.07    8.13   1
   2  -2   4   13.65    3.70   1
   2   0  -4    4.54    2.13   1
   2   0  -3   38.78    6.23   1
   2   0  -2   22.35    4.73   1
   2   0   0  123.33   11.11   1
   2   0   4   41.59    6.45   1
   2   2  -4   13.57    3.68   1
   2   2  -3   23.06    4.80   1
   2   2  -2  140.50   11.85   1
   2   2  -1  298.70   17.28   1
   2   2   0  648.00   25.46   1
   2   2   1  118.13   10.87   1
   2   2   2    2.06    1.44   1
   2   2   3   59.15    7.69   1
   2   2   4   44.25    6.65   1
   2   2   5    4.53    2.13   1
   2   4  -5   65.78    8.11   1
   2   4  -4  145.20   12.05   1
   2   4  -3   56.59    7.52   1
   2   4  -2   33.14    5.76   1
   2   4  -1   46.84    6.84   1
   2   4   0  145.35   12.06   1
   2   4   1  132.79   11.52   1
   2   4   2   38.36    6.19   1
   2   4   3   42.60    6.53   1
   2   4   4  284.68   16.87   1
   2   4   5  109.81   10.48   1
   2   6  -5  116.45   10.79   1
   2   6  -4  506.10   22.50   1
   2   6  -3  104.15   10.21   1
   2   6  -2  270.38   16.44   1
   2   6  -1  352.62   18.78   1
   2   6   0  588.45   24.26   1
   2   6   1  485.14   22.03   1
   2   6   2  370.86   19.26   1
   2   6   3   71.79    8.47   1
   2   6   4  838.41   28.96   1
   2   6   5  113.14   10.64   1
   2   6   6   22.50    4.74   1
   2   8  -6   79.65    8.92   1
   2   8  -5   99.71    9.99   1
   2   8  -4  108.94   10.44   1
   2   8  -3   29.48    5.43   1
   2   8  -2   38.08    6.17   1
   2   8  -1   11.25    3.35   1
   2   8   0  102.79   10.14   1
   2   8   1   24.07    4.91   1
   2   8   2   25.54    5.05   1
   2   8   3   17.73    4.21   1
   2   8   4  132.30   11.50   1
   2   8   5  120.84   10.99   1
   2   8   6  127.49   11.29   1
   2   8   7   36.38    6.03   1
   2  10  -6   46.43    6.81   1
   2  10  -5   11.46    3.39   1
   2  10  -4   30.40    5.51   1
   2  10  -3   25.82    5.08   1
   2  10  -2   36.63    6.05   1
   2  10  -1   15.26    3.91   1
   2  10   0  205.62   14.34   1
   2  10   1   36.38    6.03   1
   2  10   2   31.33    5.60   1
   2  10   3   15.56    3.94   1
   2  10   4   55.90    7.48   1
   2  10   5    3.60    1.90   1
   2  10   6   37.78    6.15   1
   2  10   7   14.99    3.87   1
   2  12  -7   36.34    6.03   1
   2  12  -6   21.61    4.65   1
   2  12  -5   29.48    5.43   1
   2  12  -4   23.59    4.86   1
   2  12  -3   16.67    4.08   1
   2  12  -2   54.62    7.39   1
   2  12  -1   14.06    3.75   1
   2  12   0   67.50    8.22   1
   2  12   1   15.24    3.90   1
   2  12   2   62.34    7.90   1
   2  12   3   12.80    3.58   1
   2  12   4    8.92    2.99   1
   2  12   5   16.82    4.10   1
   2  12   6   78.78    8.88   1
   2  12   8    4.42    2.10   1
   2  14  -7   17.88    4.23   1
   2  14  -6   18.13    4.26   1
   2  14  -5   19.65    4.43   1
   2  14  -4   48.79    6.98   1
   2  14  -2  126.19   11.23   1
   2  14  -1   92.39    9.61   1
   2  14   0  555.89   23.58   1
   2  14   1  241.02   15.52   1
   2  14   2  133.27   11.54   1
   2  14   3   33.13    5.76   1
   2  14   4   63.36    7.96   1
   2  14   5   36.71    6.06   1
   2  14   6   16.35    4.04   1
   2  14   7   19.31    4.39   1
   2  14   8   13.60    3.69   1
   2  16  -8   26.39    5.14   1
   2  16  -7   17.70    4.21   1
   2  16  -6    3.45    1.86   1
   2  16  -5   26.06    5.11   1
   2  16  -4   44.25    6.65   1
   2  16  -3   21.90    4.68   1
   2  16  -2   42.82    6.54   1
   2  16  -1   28.09    5.30   1
   2  16   0   66.04    8.13   1
   2  16   1   28.30    5.32   1
   2  16   2   32.10    5.67   1
   2  16   3   11.15    3.34   1
   2  16   4   12.34    3.51   1
   2  16   5    7.65    2.77   1
   2  16   6   24.15    4.91   1
   2  16   7    7.65    2.77   1
   2  16   8   30.71    5.54   1
   2  16   9   33.95    5.83   1
   2  18  -8   13.54    3.68   1
   2  18  -7   29.10    5.39   1
   2  18  -6   19.39    4.40   1
   2  18  -5   10.95    3.31   1
   2  18  -4   29.40    5.42   1
   2  18  -3   42.46    6.52   1
   2  18  -2    9.45    3.07   1
   2  18  -1   14.21    3.77   1
   2  18   0   70.44    8.39   1
   2  18   1   75.11    8.67   1
   2  18   2   13.73    3.70   1
   2  18   3   15.75    3.97   1
   2  18   4   24.52    4.95   1
   2  18   5   39.38    6.27   1
   2  18   6   12.37    3.52   1
   2  18   7   38.74    6.22   1
   2  18   8    2.86    1.69   1
   2  18   9    6.04    2.46   1
   2  18  10   14.10    3.75   1
   2  20  -7   15.52    3.94   1
   2  20  -5    1.57    1.25   1
   2  20  -4   11.40    3.38   1
   2  20  -3   34.20    5.85   1
   2  20  -2   40.95    6.40   1
   2  20  -1   51.75    7.19   1
   2  20   0   52.19    7.22   1
   2  20   1   69.05    8.31   1
   2  20   2   64.16    8.01   1
   2  20   3   10.75    3.28   1
   2  20   4   40.22    6.34   1
   2  20   5   27.50    5.24   1
   2  20   6   16.05    4.01   1
   2  20   7   23.52    4.85   1
   2  20   8   16.54    4.07   1
   2  20  11   18.63    4.32   1
   2  22  -9    8.70    2.95   1
   2  22  -8    3.90    1.97   1
   2  22  -7   18.67    4.32   1
   2  22  -5   30.23    5.50   1
   2  22  -4   21.71    4.66   1
   2  22  -3   12.30    3.51   1
   2  22  -2   29.67    5.45   1
   2  22  -1   22.20    4.71   1
   2  22   0   37.28    6.11   1
   2  22   1   74.22    8.61   1
   2  22   2   16.80    4.10   1
   2  22   3   20.85    4.57   1
   2  22   5    4.40    2.10   1
   2  22   6   10.50    3.24   1
   2  22   7    4.35    2.09   1
   2  22   8    9.11    3.02   1
   2  22   9   14.10    3.75   1
   2  22  11   30.35    5.51   1
   2  22  12    3.41    1.85   1
   2  24  -9   23.63    4.86   1
   2  24  -8   22.27    4.72   1
   2  24  -6    2.29    1.51   1
   2  24  -5   14.32    3.78   1
   2  24  -4   16.13    4.02   1
   2  24  -3   10.95    3.31   1
   2  24  -2   28.75    5.36   1
   2  24  -1   11.55    3.40   1
   2  24   0   13.43    3.66   1
   2  24   1   49.42    7.03   1
   2  24   2   31.03    5.57   1
   2  24   3   12.03    3.47   1
   2  24   4   21.33    4.62   1
   2  24   6    6.42    2.53   1
   2  24   7   15.68    3.96   1
   2  24   8   18.12    4.26   1
   2  24   9   12.00    3.46   1
   2  24  10    6.04    2.46   1
   2  24  12    6.79    2.61   1
   3 -23   1   24.04    4.90   1
   3 -21   1   31.70    5.63   1
   3 -19   0   28.05    5.30   1
   3 -19   1   19.65    4.43   1
   3 -19   2   10.54    3.25   1
   3 -17  -1   18.38    4.29   1
   3 -17   0   25.42    5.04   1
   3 -17   1   28.65    5.35   1
   3 -17   2   15.07    3.88   1
   3 -15  -1   22.35    4.73   1
   3 -15   0   22.74    4.77   1
   3 -15   1   22.95    4.79   1
   3 -15   2   22.68    4.76   1
   3 -13  -2   29.06    5.39   1
   3 -13  -1   20.99    4.58   1
   3 -13   0   37.31    6.11   1
   3 -13   1   33.75    5.81   1
   3 -13   2   24.98    5.00   1
   3 -13   3   20.30    4.51   1
   3 -11  -2   37.99    6.16   1
   3 -11  -1  105.27   10.26   1
   3 -11   0   81.75    9.04   1
   3 -11   1  121.69   11.03   1
   3 -11   2    6.23    2.50   1
   3 -11   3   20.17    4.49   1
   3 -11   4   10.18    3.19   1
   3  -9  -3   52.80    7.27   1
   3  -9  -2   28.99    5.38   1
   3  -9  -1   80.70    8.98   1
   3  -9   0   41.80    6.47   1
   3  -9   1   93.14    9.65   1
   3  -9   2   27.12    5.21   1
   3  -9   3   56.89    7.54   1
   3  -9   4   34.13    5.84   1
   3  -7  -4  107.20   10.35   1
   3  -7  -3   93.02    9.64   1
   3  -7  -2   47.51    6.89   1
   3  -7  -1  232.27   15.24   1
   3  -7   0   39.99    6.32   1
   3  -7   1  257.52   16.05   1
   3  -7   2   22.85    4.78   1
   3  -7   3   75.18    8.67   1
   3  -7   4  113.30   10.64   1
   3  -5  -4   11.06    3.33   1
   3  -5  -3  112.43   10.60   1
   3  -5  -2   37.76    6.15   1
   3  -5  -1  209.02   14.46   1
   3  -5   0   37.43    6.12   1
   3  -5   1  261.80   16.18   1
   3  -5   2   53.19    7.29   1
   3  -5   3  141.33   11.89   1
   3  -5   4   26.22    5.12   1
   3  -5   5   18.95    4.35   1
   3  -3  -5  268.53   16.39   1
   3  -3  -4  106.84   10.34   1
   3  -3  -3  170.02   13.04   1
   3  -3  -2  164.77   12.84   1
   3  -3  -1 1086.38   32.96   1
   3  -3   0   42.24    6.50   1
   3  -3   1 1104.60   33.24   1
   3  -3   2   80.40    8.97   1
   3  -3   3  217.98   14.76   1
   3  -3   4  172.46   13.13   1
   3  -3   5  481.39   21.94   1
   3  -1  -5   97.65    9.88   1
   3  -1  -4   61.16    7.82   1
   3  -1  -3   22.71    4.77   1
   3  -1  -2    7.59    2.75   1
   3  -1   0   24.55    4.95   1
   3  -1   1   32.25    5.68   1
   3  -1   3  193.56   13.91   1
   3  -1   4   93.76    9.68   1
   3  -1   5  138.35   11.76   1
   3  -1   6   62.03    7.88   1
   3   1  -6  122.93   11.09   1
   3   1  -5   84.97    9.22   1
   3   1  -4    3.60    1.90   1
   3   1  -3  217.05   14.73   1
   3   1  -1   26.58    5.16   1
   3   1   0   35.90    5.99   1
   3   1   1   35.78    5.98   1
   3   1   2   38.74    6.22   1
   3   1   3  196.65   14.02   1
   3   1   4  105.53   10.27   1
   3   1   5  119.63   10.94   1
   3   1   6  127.88   11.31   1
   3   1   7   69.35    8.33   1
   3   3  -6   37.38    6.11   1
   3   3  -5  549.69   23.45   1
   3   3  -4  144.68   12.03   1
   3   3  -3  246.84   15.71   1
   3   3  -2  123.40   11.11   1
   3   3  -1  696.30   26.39   1
   3   3   0   19.17    4.38   1
   3   3   1 1070.97   32.73   1
   3   3   2   92.44    9.61   1
   3   3   3  142.98   11.96   1
   3   3   4  324.00   18.00   1
   3   3   5  522.20   22.85   1
   3   3   6   75.60    8.69   1
   3   3   7   43.20    6.57   1
   3   5  -7   49.50    7.04   1
   3   5  -6   63.71    7.98   1
   3   5  -5   51.41    7.17   1
   3   5  -4   99.68    9.98   1
   3   5  -3  169.88   13.03   1
   3   5  -2   62.75    7.92   1
   3   5  -1  212.93   14.59   1
   3   5   0   46.05    6.79   1
   3   5   1  346.01   18.60   1
   3   5   2   42.08    6.49   1
   3   5   3  186.36   13.65   1
   3   5   4   73.28    8.56   1
   3   5   5   42.45    6.52   1
   3   5   6   34.92    5.91   1
   3   5   7  130.56   11.43   1
   3   7  -8   21.08    4.59   1
   3   7  -7   28.50    5.34   1
   3   7  -6   90.41    9.51   1
   3   7  -5 1015.36   31.86   1
   3   7  -4  270.52   16.45   1
   3   7  -3   92.32    9.61   1
   3   7  -2   38.54    6.21   1
   3   7  -1  100.35   10.02   1
   3   7   0   26.80    5.18   1
   3   7   1   92.40    9.61   1
   3   7   2   35.85    5.99   1
   3   7   3   99.64    9.98   1
   3   7   4  307.13   17.52   1
   3   7   5 1259.86   35.49   1
   3   7   6  100.72   10.04   1
   3   7   7   25.99    5.10   1
   3   7   8   25.90    5.09   1
   3   9  -8   38.85    6.23   1
   3   9  -7  112.13   10.59   1
   3   9  -6   72.02    8.49   1
   3   9  -5   32.29    5.68   1
   3   9  -4   27.05    5.20   1
   3   9  -3   29.44    5.43   1
   3   9  -2   33.69    5.80   1
   3   9  -1   35.03    5.92   1
   3   9   0   26.30    5.13   1
   3   9   1   43.02    6.56   1
   3   9   2   41.63    6.45   1
   3   9   3   45.10    6.72   1
   3   9   4   20.41    4.52   1
   3   9   5   42.97    6.56   1
   3   9   6  112.40   10.60   1
   3   9   7   85.10    9.22   1
   3   9   8   12.75    3.57   1
   3  11  -7   18.41    4.29   1
   3  11  -6   54.56    7.39   1
   3  11  -5   93.64    9.68   1
   3  11  -4   49.39    7.03   1
   3  11  -3   49.23    7.02   1
   3  11  -2   36.53    6.04   1
   3  11  -1   72.53    8.52   1
   3  11   0    3.67    1.92   1
   3  11   1   81.54    9.03   1
   3  11   2   57.81    7.60   1
   3  11   3   74.40    8.63   1
   3  11   4   19.15    4.38   1
   3  11   5   90.79    9.53   1
   3  11   6   30.83    5.55   1
   3  11   7 1772.25   42.10   1
   3  11   8   10.03    3.17   1
   3  11   9    1.61    1.27   1
   3  13  -9   37.58    6.13   1
   3  13  -8   39.90    6.32   1
   3  13  -7   26.36    5.13   1
   3  13  -6    3.34    1.83   1
   3  13  -5    6.69    2.59   1
   3  13  -4   23.25    4.82   1
   3  13  -3   30.19    5.49   1
   3  13  -2   18.56    4.31   1
   3  13  -1   50.92    7.14   1
   3  13   0   32.67    5.72   1
   3  13   1   19.44    4.41   1
   3  13   2   35.10    5.92   1
   3  13   3   15.14    3.89   1
   3  13   4   19.18    4.38   1
   3  13   5   21.52    4.64   1
   3  13   6   20.25    4.50   1
   3  13   7   24.54    4.95   1
   3  13   8   26.39    5.14   1
   3  13   9   14.61    3.82   1
   3  13  10    7.70    2.77   1
   3  15  -9   37.20    6.10   1
   3  15  -8    2.85    1.69   1
   3  15  -7  109.80   10.48   1
   3  15  -6   25.76    5.08   1
   3  15  -5   15.63    3.95   1
   3  15  -4  119.65   10.94   1
   3  15  -3  114.22   10.69   1
   3  15  -2   45.05    6.71   1
   3  15  -1   18.19    4.26   1
   3  15   0   24.60    4.96   1
   3  15   1   24.34    4.93   1
   3  15   2   40.65    6.38   1
   3  15   3  107.77   10.38   1
   3  15   4   86.70    9.31   1
   3  15   5   42.15    6.49   1
   3  15   6   33.48    5.79   1
   3  15   7   93.85    9.69   1
   3  15   8  122.18   11.05   1
   3  15   9   21.34    4.62   1
   3  15  10   25.65    5.06   1
   3  15  11    5.73    2.39   1
   3  17 -10    4.54    2.13   1
   3  17  -9    7.78    2.79   1
   3  17  -8   30.90    5.56   1
   3  17  -7    8.36    2.89   1
   3  17  -6   43.50    6.60   1
   3  17  -5   64.50    8.03   1
   3  17  -4   26.40    5.14   1
   3  17  -3   24.79    4.98   1
   3  17  -2   18.52    4.30   1
   3  17  -1    9.51    3.08   1
   3  17   0   31.97    5.65   1
   3  17   1   34.72    5.89   1
   3  17   2   32.63    5.71   1
   3  17   3   32.32    5.69   1
   3  17   4   13.06    3.61   1
   3  17   5   36.97    6.08   1
   3  17   6   15.68    3.96   1
   3  17   7   12.00    3.46   1
   3  17   8   24.42    4.94   1
   3  17  11    4.53    2.13   1
   3  19 -10   10.84    3.29   1
   3  19  -9   14.13    3.76   1
   3  19  -7   21.75    4.66   1
   3  19  -6   32.47    5.70   1
   3  19  -5   10.31    3.21   1
   3  19  -4   20.14    4.49   1
   3  19  -3   17.54    4.19   1
   3  19  -2   36.67    6.06   1
   3  19  -1   35.36    5.95   1
   3  19   0   11.09    3.33   1
   3  19   1   26.10    5.11   1
   3  19   2   39.86    6.31   1
   3  19   3   21.83    4.67   1
   3  19   5   23.85    4.88   1
   3  19   6   48.90    6.99   1
   3  19   7   21.86    4.68   1
   3  19   9   26.17    5.12   1
   3  19  10    7.97    2.82   1
   3  19  11    5.59    2.36   1
   3  19  13    6.53    2.55   1
   3  21  -9    6.86    2.62   1
   3  21  -8   12.87    3.59   1
   3  21  -6   25.54    5.05   1
   3  21  -5   32.70    5.72   1
   3  21  -4    5.10    2.26   1
   3  21  -3    5.18    2.27   1
   3  21  -2   18.98    4.36   1
   3  21  -1   27.17    5.21   1
   3  21   0    4.56    2.14   1
   3  21   1   13.09    3.62   1
   3  21   2   14.81    3.85   1
   3  21   3   22.95    4.79   1
   3  21   4    3.90    1.97   1
   3  21   5    9.11    3.02   1
   3  21   6   11.93    3.45   1
   3  21   7   23.76    4.87   1
   3  21   9   10.39    3.22   1
   3  21  11   13.65    3.69   1
   3  21  12   22.58    4.75   1
   3  21  13   43.13    6.57   1
   3  23 -10   15.23    3.90   1
   3  23  -9    4.31    2.08   1
   3  23  -8    1.52    1.23   1
   3  23  -6   32.33    5.69   1
   3  23  -5   14.93    3.86   1
   3  23  -4   14.81    3.85   1
   3  23  -3   18.74    4.33   1
   3  23  -2   47.29    6.88   1
   3  23  -1    8.77    2.96   1
   3  23   0   15.03    3.88   1
   3  23   2    9.04    3.01   1
   3  23   3   18.45    4.30   1
   3  23   4    5.67    2.38   1
   3  23   5   16.09    4.01   1
   3  23   6   30.52    5.52   1
   3  23   8    4.69    2.17   1
   3  23  11    1.77    1.33   1
   3  23  12   10.50    3.24   1
   3  23  14    3.34    1.83   1
   4 -24   0   30.30    5.50   1
   4 -24   1   22.65    4.76   1
   4 -24   2   23.64    4.86   1
   4 -24   3   13.73    3.70   1
   4 -22  -1   26.17    5.12   1
   4 -22   0   17.95    4.24   1
   4 -22   1   20.66    4.55   1
   4 -22   2   15.86    3.98   1
   4 -22   3   15.07    3.88   1
   4 -20  -1   34.42    5.87   1
   4 -20   0   25.23    5.02   1
   4 -20   1   25.99    5.10   1
   4 -20   2   21.50    4.64   1
   4 -20   3   25.97    5.10   1
   4 -20   4    2.90    1.70   1
   4 -18  -2    9.52    3.09   1
   4 -18  -1  164.51   12.83   1
   4 -18   0  325.58   18.04   1
   4 -18   1   45.11    6.72   1
   4 -18   2  276.75   16.64   1
   4 -18   3   25.05    5.00   1
   4 -18   4    7.24    2.69   1
   4 -16  -3   20.68    4.55   1
   4 -16  -2   21.27    4.61   1
   4 -16  -1   32.44    5.70   1
   4 -16   0   52.50    7.25   1
   4 -16   1   20.59    4.54   1
   4 -16   2   23.05    4.80   1
   4 -16   3   14.93    3.86   1
   4 -16   4   27.75    5.27   1
   4 -16   5    2.06    1.44   1
   4 -14  -3   38.15    6.18   1
   4 -14  -2    7.16    2.68   1
   4 -14  -1   43.90    6.63   1
   4 -14   0   29.10    5.39   1
   4 -14   1   28.95    5.38   1
   4 -14   2   20.09    4.48   1
   4 -14   3    8.14    2.85   1
   4 -14   4   13.95    3.74   1
   4 -14   5   14.61    3.82   1
   4 -12  -4    5.78    2.40   1
   4 -12  -3   69.97    8.37   1
   4 -12  -2   39.83    6.31   1
   4 -12  -1  243.75   15.61   1
   4 -12   0   94.65    9.73   1
   4 -12   1  377.02   19.42   1
   4 -12   2   29.97    5.47   1
   4 -12   3   34.28    5.85   1
   4 -12   4   18.56    4.31   1
   4 -12   5    7.88    2.81   1
   4 -12   6    8.59    2.93   1
   4 -10  -5  109.80   10.48   1
   4 -10  -4   35.41    5.95   1
   4 -10  -3   43.99    6.63   1
   4 -10  -2   24.64    4.96   1
   4 -10  -1   46.98    6.85   1
   4 -10   0   47.33    6.88   1
   4 -10   1   82.50    9.08   1
   4 -10   2   33.79    5.81   1
   4 -10   3   37.12    6.09   1
   4 -10   4   13.20    3.63   1
   4 -10   5  148.11   12.17   1
   4  -8  -5  123.14   11.10   1
   4  -8  -4   52.05    7.21   1
   4  -8  -3   51.65    7.19   1
   4  -8  -2   46.65    6.83   1
   4  -8  -1  484.65   22.01   1
   4  -8   0  113.55   10.66   1
   4  -8   1  762.45   27.61   1
   4  -8   2   42.31    6.50   1
   4  -8   3   43.81    6.62   1
   4  -8   4   20.00    4.47   1
   4  -8   5  193.73   13.92   1
   4  -6  -6   31.77    5.64   1
   4  -6  -5  523.22   22.87   1
   4  -6  -4  252.95   15.90   1
   4  -6  -3   29.18    5.40   1
   4  -6  -2   27.67    5.26   1
   4  -6  -1  254.26   15.95   1
   4  -6   0   56.29    7.50   1
   4  -6   1  391.08   19.78   1
   4  -6   2   21.64    4.65   1
   4  -6   3   78.08    8.84   1
   4  -6   4    5.39    2.32   1
   4  -6   5  615.72   24.81   1
   4  -6   6   43.80    6.62   1
   4  -6   7   25.05    5.00   1
   4  -4  -6   22.50    4.74   1
   4  -4  -5   53.03    7.28   1
   4  -4  -4   23.10    4.81   1
   4  -4  -3   16.27    4.03   1
   4  -4  -2   64.28    8.02   1
   4  -4  -1  284.33   16.86   1
   4  -4   0   90.92    9.54   1
   4  -4   1  324.86   18.02   1
   4  -4   2   23.56    4.85   1
   4  -4   3   84.98    9.22   1
   4  -4   4   13.74    3.71   1
   4  -4   5   33.45    5.78   1
   4  -4   6   66.68    8.17   1
   4  -4   7   62.33    7.89   1
   4  -4   8   36.55    6.05   1
   4  -2  -7   34.10    5.84   1
   4  -2  -6   94.47    9.72   1
   4  -2  -5   90.40    9.51   1
   4  -2  -4   91.24    9.55   1
   4  -2  -3   49.82    7.06   1
   4  -2  -2   70.05    8.37   1
   4  -2  -1  219.23   14.81   1
   4  -2   0   48.46    6.96   1
   4  -2   1  308.07   17.55   1
   4  -2   2   24.23    4.92   1
   4  -2   3   28.19    5.31   1
   4  -2   4   47.85    6.92   1
   4  -2   5   93.07    9.65   1
   4  -2   6   51.42    7.17   1
   4  -2   7   24.75    4.97   1
   4  -2   8   60.21    7.76   1
   4   0  -8    7.02    2.65   1
   4   0  -7  176.22   13.27   1
   4   0  -6   24.45    4.94   1
   4   0  -5   20.29    4.50   1
   4   0  -4   36.08    6.01   1
   4   0  -3  156.23   12.50   1
   4   0  -2   60.38    7.77   1
   4   0  -1 1467.24   38.30   1
   4   0   0   70.03    8.37   1
   4   0   1 1487.93   38.57   1
   4   0   2   62.02    7.88   1
   4   0   3  211.82   14.55   1
   4   0   5   24.51    4.95   1
   4   0   6   14.29    3.78   1
   4   0   7  309.87   17.60   1
   4   0   8   42.05    6.48   1
   4   2  -8   24.60    4.96   1
   4   2  -7   43.84    6.62   1
   4   2  -6   36.96    6.08   1
   4   2  -5   55.83    7.47   1
   4   2  -4   15.75    3.97   1
   4   2  -3   55.42    7.44   1
   4   2  -2   73.13    8.55   1
   4   2  -1  217.95   14.76   1
   4   2   0   47.11    6.86   1
   4   2   1  427.85   20.68   1
   4   2   2   85.62    9.25   1
   4   2   3   85.50    9.25   1
   4   2   4   48.31    6.95   1
   4   2   5   95.63    9.78   1
   4   2   6    5.84    2.42   1
   4   2   7   92.10    9.60   1
   4   2   8   21.06    4.59   1
   4   2   9  270.00   16.43   1
   4   4  -9   49.72    7.05   1
   4   4  -8   14.13    3.76   1
   4   4  -7   12.82    3.58   1
   4   4  -6   29.74    5.45   1
   4   4  -5  154.92   12.45   1
   4   4  -4   24.76    4.98   1
   4   4  -3   31.16    5.58   1
   4   4  -2   16.80    4.10   1
   4   4  -1  264.98   16.28   1
   4   4   0   57.67    7.59   1
   4   4   1  160.21   12.66   1
   4   4   2  320.97   17.92   1
   4   4   3  315.55   17.76   1
   4   4   4   39.14    6.26   1
   4   4   5  288.67   16.99   1
   4   4   6   45.08    6.71   1
   4   4   7   13.84    3.72   1
   4   4   8   32.33    5.69   1
   4   4   9   69.53    8.34   1
   4   6  -9   57.97    7.61   1
   4   6  -8   40.06    6.33   1
   4   6  -7    6.45    2.54   1
   4   6  -6   33.89    5.82   1
   4   6  -5  383.17   19.57   1
   4   6  -4   37.99    6.16   1
   4   6  -3    9.75    3.12   1
   4   6  -2   16.01    4.00   1
   4   6  -1  510.98   22.60   1
   4   6   0   79.36    8.91   1
   4   6   1  373.65   19.33   1
   4   6   2   52.54    7.25   1
   4   6   3   44.92    6.70   1
   4   6   4   41.47    6.44   1
   4   6   5  720.97   26.85   1
   4   6   6   19.78    4.45   1
   4   6   7   28.82    5.37   1
   4   6   8   14.96    3.87   1
   4   6   9   87.53    9.36   1
   4   6  10   14.11    3.76   1
   4   6  11    7.69    2.77   1
   4   8  -9   95.70    9.78   1
   4   8  -8   33.02    5.75   1
   4   8  -7   30.90    5.56   1
   4   8  -5  299.30   17.30   1
   4   8  -4   35.92    5.99   1
   4   8  -3   95.03    9.75   1
   4   8  -2   45.00    6.71   1
   4   8  -1  323.14   17.98   1
   4   8   0  104.40   10.22   1
   4   8   1  247.50   15.73   1
   4   8   2   43.64    6.61   1
   4   8   3   58.68    7.66   1
   4   8   4   68.81    8.30   1
   4   8   5  432.21   20.79   1
   4   8   6   12.58    3.55   1
   4   8   7   16.69    4.09   1
   4   8   8   13.24    3.64   1
   4   8   9   65.25    8.08   1
   4   8  10    6.22    2.49   1
   4   8  11   63.30    7.96   1
   4  10 -10   46.99    6.85   1
   4  10  -9   12.75    3.57   1
   4  10  -8    6.86    2.62   1
   4  10  -7   25.13    5.01   1
   4  10  -6    9.52    3.09   1
   4  10  -5  166.57   12.91   1
   4  10  -4    6.67    2.58   1
   4  10  -3  116.78   10.81   1
   4  10  -2   28.63    5.35   1
   4  10  -1  147.40   12.14   1
   4  10   0   58.39    7.64   1
   4  10   1  181.88   13.49   1
   4  10   2    3.18    1.78   1
   4  10   3   31.85    5.64   1
   4  10   4   24.86    4.99   1
   4  10   5  225.91   15.03   1
   4  10   6    7.62    2.76   1
   4  10   7   56.40    7.51   1
   4  10   8   19.65    4.43   1
   4  10   9   18.40    4.29   1
   4  10  10   21.94    4.68   1
   4  10  11   28.32    5.32   1
   4  12 -11    6.30    2.51   1
   4  12 -10   23.55    4.85   1
   4  12  -9  245.74   15.68   1
   4  12  -7   19.65    4.43   1
   4  12  -6   13.96    3.74   1
   4  12  -5    1.58    1.25   1
   4  12  -4   23.48    4.85   1
   4  12  -3   73.61    8.58   1
   4  12  -2   26.25    5.12   1
   4  12  -1  188.48   13.73   1
   4  12   0   18.08    4.25   1
   4  12   1  289.82   17.02   1
   4  12   2   14.81    3.85   1
   4  12   3   96.53    9.82   1
   4  12   4    3.51    1.87   1
   4  12   5   64.92    8.06   1
   4  12   6   24.78    4.98   1
   4  12   7  103.99   10.20   1
   4  12   8   22.13    4.70   1
   4  12   9  220.90   14.86   1
   4  12  10   22.05    4.70   1
   4  12  11   22.31    4.72   1
   4  12  12   16.95    4.12   1
   4  12  13   16.39    4.05   1
   4  14 -11   23.51    4.85   1
   4  14 -10    9.68    3.11   1
   4  14  -9   21.74    4.66   1
   4  14  -8   23.19    4.82   1
   4  14  -7   40.46    6.36   1
   4  14  -6   19.05    4.36   1
   4  14  -5   24.05    4.90   1
   4  14  -4   22.69    4.76   1
   4  14  -3   30.23    5.50   1
   4  14  -2   12.26    3.50   1
   4  14  -1   87.07    9.33   1
   4  14   0   29.14    5.40   1
   4  14   1  120.04   10.96   1
   4  14   2   25.73    5.07   1
   4  14   3    2.21    1.49   1
   4  14   4   14.56    3.82   1
   4  14   5   34.35    5.86   1
   4  14   6   45.08    6.71   1
   4  14   7   51.46    7.17   1
   4  14   8   15.15    3.89   1
   4  14   9   70.88    8.42   1
   4  14  10   16.52    4.06   1
   4  14  12   14.32    3.78   1
   4  14  13    4.35    2.09   1
   4  16 -11   27.30    5.22   1
   4  16  -9    6.36    2.52   1
   4  16  -8   24.08    4.91   1
   4  16  -7   45.60    6.75   1
   4  16  -6    5.40    2.32   1
   4  16  -5   48.68    6.98   1
   4  16  -4   22.91    4.79   1
   4  16  -3   44.23    6.65   1
   4  16  -2   20.58    4.54   1
   4  16  -1   33.08    5.75   1
   4  16   0   37.92    6.16   1
   4  16   1  110.21   10.50   1
   4  16   3   42.90    6.55   1
   4  16   4    9.41    3.07   1
   4  16   5   36.94    6.08   1
   4  16   6    4.07    2.02   1
   4  16   7   26.45    5.14   1
   4  16   8   16.67    4.08   1
   4  16   9   43.28    6.58   1
   4  16  10    4.65    2.16   1
   4  16  11   34.95    5.91   1
   4  16  12    7.36    2.71   1
   4  16  13    6.59    2.57   1
   4  18 -12    1.95    1.40   1
   4  18 -10   14.74    3.84   1
   4  18  -9    5.43    2.33   1
   4  18  -8   53.89    7.34   1
   4  18  -7   10.69    3.27   1
   4  18  -6   12.08    3.48   1
   4  18  -5    4.20    2.05   1
   4  18  -3   21.25    4.61   1
   4  18  -2   40.35    6.35   1
   4  18  -1   54.38    7.37   1
   4  18   0  186.36   13.65   1
   4  18   1  129.52   11.38   1
   4  18   2   33.24    5.77   1
   4  18   3   21.10    4.59   1
   4  18   4   16.94    4.12   1
   4  18   5    4.05    2.01   1
   4  18   7   28.44    5.33   1
   4  18   8    4.06    2.01   1
   4  18   9   39.15    6.26   1
   4  18  10   14.02    3.74   1
   4  18  11   20.70    4.55   1
   4  18  14    8.79    2.97   1
   4  20 -12    2.94    1.72   1
   4  20 -10   12.36    3.52   1
   4  20  -9    7.43    2.72   1
   4  20  -6   16.12    4.01   1
   4  20  -5   19.09    4.37   1
   4  20  -4   13.91    3.73   1
   4  20  -3   11.78    3.43   1
   4  20  -2   19.73    4.44   1
   4  20  -1    8.76    2.96   1
   4  20   0   14.23    3.77   1
   4  20   1   16.76    4.09   1
   4  20   2   10.27    3.20   1
   4  20   3   16.40    4.05   1
   4  20   4    2.65    1.63   1
   4  20   5    8.14    2.85   1
   4  20   6   28.82    5.37   1
   4  20   7   12.07    3.47   1
   4  20   9   40.53    6.37   1
   4  20  11    2.32    1.52   1
   4  20  12    7.83    2.80   1
   4  20  13    8.16    2.86   1
   4  20  15    5.10    2.26   1
   4  22 -12   17.96    4.24   1
   4  22 -10   16.24    4.03   1
   4  22  -9    8.02    2.83   1
   4  22  -8    2.83    1.68   1
   4  22  -7   11.70    3.42   1
   4  22  -6    3.25    1.80   1
   4  22  -4   14.06    3.75   1
   4  22  -3   14.40    3.79   1
   4  22  -2    5.93    2.43   1
   4  22  -1   11.10    3.33   1
   4  22   0   21.47    4.63   1
   4  22   1   21.94    4.68   1
   4  22   2    9.19    3.03   1
   4  22   3   13.65    3.69   1
   4  22   4   24.56    4.96   1
   4  22   5    6.82    2.61   1
   4  22   6    1.73    1.32   1
   4  22   8   11.28    3.36   1
   4  22   9   10.55    3.25   1
   4  22  10    9.07    3.01   1
   4  22  11   12.82    3.58   1
   4  22  13    1.53    1.23   1
   4  22  15    8.06    2.84   1
   4  22  16    1.90    1.38   1
   4  24 -13   18.98    4.36   1
   4  24 -11    7.61    2.76   1
   4  24 -10    9.13    3.02   1
   4  24  -7    7.12    2.67   1
   4  24  -6   19.88    4.46   1
   4  24  -5    9.84    3.14   1
   4  24  -3    4.20    2.05   1
   4  24  -2    6.75    2.60   1
   4  24   0    6.40    2.53   1
   4  24   1   14.02    3.74   1
   4  24   3   15.52    3.94   1
   4  24   6   12.02    3.47   1
   4  24   7   15.52    3.94   1
   4  24   8   12.75    3.57   1
   4  24   9   12.30    3.51   1
   4  24  14    7.99    2.83   1
   4  24  16    2.87    1.69   1
   5 -23  -2   32.82    5.73   1
   5 -23  -1   25.50    5.05   1
   5 -23   0   18.09    4.25   1
   5 -23   1    3.38    1.84   1
   5 -23   2   22.73    4.77   1
   5 -23   3   14.28    3.78   1
   5 -23   4   13.69    3.70   1
   5 -23   5   11.35    3.37   1
   5 -21  -3   25.37    5.04   1
   5 -21  -2   22.20    4.71   1
   5 -21  -1   16.14    4.02   1
   5 -21   0   28.55    5.34   1
   5 -21   1   11.65    3.41   1
   5 -21   2    4.05    2.01   1
   5 -21   4   25.33    5.03   1
   5 -21   6   11.89    3.45   1
   5 -19  -4   33.17    5.76   1
   5 -19  -3   12.41    3.52   1
   5 -19  -2   45.97    6.78   1
   5 -19  -1   14.88    3.86   1
   5 -19   0   13.95    3.73   1
   5 -19   1   12.03    3.47   1
   5 -19   2   26.92    5.19   1
   5 -19   3   11.89    3.45   1
   5 -19   4   19.39    4.40   1
   5 -19   6   17.38    4.17   1
   5 -17  -4   30.41    5.51   1
   5 -17  -2   42.75    6.54   1
   5 -17  -1   35.25    5.94   1
   5 -17   0    7.72    2.78   1
   5 -17   1   25.91    5.09   1
   5 -17   2   35.21    5.93   1
   5 -17   5   12.00    3.46   1
   5 -17   6   13.13    3.62   1
   5 -17   7   35.40    5.95   1
   5 -15  -4   10.27    3.21   1
   5 -15  -3   12.94    3.60   1
   5 -15  -2    5.40    2.32   1
   5 -15  -1   11.36    3.37   1
   5 -15   0    4.28    2.07   1
   5 -15   1   21.25    4.61   1
   5 -15   2   13.27    3.64   1
   5 -15   3   14.29    3.78   1
   5 -15   4    4.70    2.17   1
   5 -15   5   13.84    3.72   1
   5 -15   7    4.30    2.07   1
   5 -13  -5   20.65    4.54   1
   5 -13  -4    1.54    1.24   1
   5 -13  -3   66.74    8.17   1
   5 -13  -2   34.40    5.87   1
   5 -13  -1   41.85    6.47   1
   5 -13   0   47.03    6.86   1
   5 -13   1   40.20    6.34   1
   5 -13   2   27.64    5.26   1
   5 -13   3   45.67    6.76   1
   5 -13   4   16.91    4.11   1
   5 -13   5   18.57    4.31   1
   5 -13   6   15.56    3.94   1
   5 -13   7   29.33    5.42   1
   5 -11  -6   16.26    4.03   1
   5 -11  -5   39.87    6.31   1
   5 -11  -4    7.17    2.68   1
   5 -11  -3   41.03    6.41   1
   5 -11  -2    4.80    2.19   1
   5 -11  -1   19.42    4.41   1
   5 -11   0   32.97    5.74   1
   5 -11   1   28.61    5.35   1
   5 -11   2    6.41    2.53   1
   5 -11   3   24.00    4.90   1
   5 -11   4    5.40    2.32   1
   5 -11   6   14.32    3.78   1
   5 -11   7   59.74    7.73   1
   5 -11   8   13.20    3.63   1
   5  -9  -7   10.35    3.22   1
   5  -9  -6   13.74    3.71   1
   5  -9  -5  517.30   22.74   1
   5  -9  -4  164.99   12.84   1
   5  -9  -3   98.66    9.93   1
   5  -9  -2   26.44    5.14   1
   5  -9  -1   59.40    7.71   1
   5  -9   0    9.38    3.06   1
   5  -9   1   87.60    9.36   1
   5  -9   2   13.58    3.69   1
   5  -9   3  261.00   16.16   1
   5  -9   4   31.54    5.62   1
   5  -9   5  405.52   20.14   1
   5  -9   6   58.65    7.66   1
   5  -7  -7   47.85    6.92   1
   5  -7  -6   96.60    9.83   1
   5  -7  -5   14.52    3.81   1
   5  -7  -4   30.49    5.52   1
   5  -7  -3  303.30   17.42   1
   5  -7  -2   28.54    5.34   1
   5  -7   1   64.77    8.05   1
   5  -7   2   24.56    4.96   1
   5  -7   3  349.21   18.69   1
   5  -7   4   37.35    6.11   1
   5  -7   5   96.38    9.82   1
   5  -7   7  100.28   10.01   1
   5  -7   8   32.56    5.71   1
   5  -7   9   16.58    4.07   1
   5  -5  -8    7.94    2.82   1
   5  -5  -7   32.06    5.66   1
   5  -5  -6   28.65    5.35   1
   5  -5  -5    8.19    2.86   1
   5  -5  -4    8.65    2.94   1
   5  -5  -3   85.05    9.22   1
   5  -5  -2   23.30    4.83   1
   5  -5  -1   30.79    5.55   1
   5  -5   0   40.35    6.35   1
   5  -5   1   71.32    8.45   1
   5  -5   2   17.92    4.23   1
   5  -5   3  144.82   12.03   1
   5  -5   4    4.28    2.07   1
   5  -5   5   42.18    6.49   1
   5  -5   6   35.40    5.95   1
   5  -5   7   43.58    6.60   1
   5  -5   8   46.80    6.84   1
   5  -5   9   48.34    6.95   1
   5  -3  -9   14.14    3.76   1
   5  -3  -8   42.19    6.50   1
   5  -3  -7   27.08    5.20   1
   5  -3  -5  148.96   12.20   1
   5  -3  -4   72.45    8.51   1
   5  -3  -3 1234.05   35.13   1
   5  -3  -2   49.32    7.02   1
   5  -3  -1   42.64    6.53   1
   5  -3   0   34.89    5.91   1
   5  -3   1   72.05    8.49   1
   5  -3   3  944.03   30.72   1
   5  -3   4   77.03    8.78   1
   5  -3   5   67.20    8.20   1
   5  -3   7   85.95    9.27   1
   5  -3   8   18.79    4.33   1
   5  -3   9   82.48    9.08   1
   5  -3  10    5.47    2.34   1
   5  -1  -8   42.56    6.52   1
   5  -1  -7   80.18    8.95   1
   5  -1  -6   22.56    4.75   1
   5  -1  -5  248.29   15.76   1
   5  -1  -4   61.47    7.84   1
   5  -1  -3  125.95   11.22   1
   5  -1  -2   49.11    7.01   1
   5  -1  -1  382.13   19.55   1
   5  -1   0   12.09    3.48   1
   5  -1   1  458.40   21.41   1
   5  -1   2   32.85    5.73   1
   5  -1   3  146.40   12.10   1
   5  -1   4   39.35    6.27   1
   5  -1   5  379.13   19.47   1
   5  -1   6   14.89    3.86   1
   5  -1   7   34.78    5.90   1
   5  -1   8   67.16    8.20   1
   5  -1   9   13.75    3.71   1
   5  -1  10   34.65    5.89   1
   5  -1  11   25.62    5.06   1
   5   1 -10   13.37    3.66   1
   5   1  -9    7.94    2.82   1
   5   1  -8   20.57    4.54   1
   5   1  -7   23.55    4.85   1
   5   1  -6   30.18    5.49   1
   5   1  -5  200.79   14.17   1
   5   1  -4   65.81    8.11   1
   5   1  -3  206.29   14.36   1
   5   1  -2   44.64    6.68   1
   5   1  -1  535.95   23.15   1
   5   1   0   21.89    4.68   1
   5   1   1  454.77   21.33   1
   5   1   2   61.61    7.85   1
   5   1   3  125.63   11.21   1
   5   1   4   48.53    6.97   1
   5   1   5  282.64   16.81   1
   5   1   6    9.15    3.02   1
   5   1   7   13.64    3.69   1
   5   1   8   27.42    5.24   1
   5   1   9   36.15    6.01   1
   5   1  10   26.79    5.18   1
   5   3 -10   80.18    8.95   1
   5   3  -9   41.51    6.44   1
   5   3  -8    5.81    2.41   1
   5   3  -7   10.24    3.20   1
   5   3  -6   37.51    6.12   1
   5   3  -5  381.90   19.54   1
   5   3  -4   74.47    8.63   1
   5   3  -3  846.63   29.10   1
   5   3  -2   18.64    4.32   1
   5   3  -1    5.74    2.40   1
   5   3   0   65.70    8.11   1
   5   3   1   22.88    4.78   1
   5   3   2   25.27    5.03   1
   5   3   3 1417.99   37.66   1
   5   3   4   63.75    7.98   1
   5   3   5  208.51   14.44   1
   5   3   6   17.66    4.20   1
   5   3   7   22.82    4.78   1
   5   3   8   25.34    5.03   1
   5   3   9   30.30    5.50   1
   5   3  10    5.93    2.43   1
   5   3  11  202.38   14.23   1
   5   3  12    4.55    2.13   1
   5   5 -11    5.76    2.40   1
   5   5 -10   26.92    5.19   1
   5   5  -9  186.79   13.67   1
   5   5  -8   19.66    4.43   1
   5   5  -7   24.32    4.93   1
   5   5  -5   50.36    7.10   1
   5   5  -4   21.08    4.59   1
   5   5  -3  197.99   14.07   1
   5   5  -2   22.20    4.71   1
   5   5  -1  122.25   11.06   1
   5   5   1  111.40   10.55   1
   5   5   2   40.30    6.35   1
   5   5   3  108.97   10.44   1
   5   5   5   38.25    6.18   1
   5   5   6    6.15    2.48   1
   5   5   7  130.99   11.44   1
   5   5   8   21.70    4.66   1
   5   5   9  459.63   21.44   1
   5   5  10   18.86    4.34   1
   5   5  11   17.63    4.20   1
   5   5  12    8.32    2.89   1
   5   5  13    9.68    3.11   1
   5   7 -11   17.70    4.21   1
   5   7  -8   37.32    6.11   1
   5   7  -7  109.94   10.49   1
   5   7  -6   44.92    6.70   1
   5   7  -5  156.52   12.51   1
   5   7  -4   41.07    6.41   1
   5   7  -3  516.54   22.73   1
   5   7  -2   32.20    5.67   1
   5   7  -1   36.68    6.06   1
   5   7   0    4.28    2.07   1
   5   7   1   50.96    7.14   1
   5   7   3  428.88   20.71   1
   5   7   4   39.90    6.32   1
   5   7   5  142.28   11.93   1
   5   7   6    8.32    2.89   1
   5   7   7   76.72    8.76   1
   5   7   8   51.97    7.21   1
   5   7   9   61.28    7.83   1
   5   7  10    2.70    1.64   1
   5   7  11    5.20    2.28   1
   5   7  12   14.61    3.82   1
   5   7  13   19.88    4.46   1
   5   9 -11   28.20    5.31   1
   5   9 -10    3.21    1.79   1
   5   9  -9   40.67    6.38   1
   5   9  -8   29.63    5.44   1
   5   9  -7   11.27    3.36   1
   5   9  -6   64.68    8.04   1
   5   9  -5 1054.65   32.48   1
   5   9  -4   57.75    7.60   1
   5   9  -3  535.28   23.14   1
   5   9  -2   20.95    4.58   1
   5   9  -1   57.60    7.59   1
   5   9   0   32.92    5.74   1
   5   9   1  104.70   10.23   1
   5   9   2   25.38    5.04   1
   5   9   3  418.35   20.45   1
   5   9   4   60.04    7.75   1
   5   9   5 1600.05   40.00   1
   5   9   6   41.81    6.47   1
   5   9   7   33.26    5.77   1
   5   9   8   21.27    4.61   1
   5   9   9  103.61   10.18   1
   5   9  10   20.39    4.52   1
   5   9  11    8.40    2.90   1
   5   9  12   20.10    4.48   1
   5  11 -11   20.44    4.52   1
   5  11 -10   17.37    4.17   1
   5  11  -9   38.78    6.23   1
   5  11  -7   86.03    9.27   1
   5  11  -6   18.87    4.34   1
   5  11  -5   42.34    6.51   1
   5  11  -4   19.42    4.41   1
   5  11  -3   36.54    6.04   1
   5  11   0   11.81    3.44   1
   5  11   1    5.96    2.44   1
   5  11   2    3.71    1.92   1
   5  11   3   37.84    6.15   1
   5  11   4   23.21    4.82   1
   5  11   5    3.97    1.99   1
   5  11   6   17.96    4.24   1
   5  11   7   45.71    6.76   1
   5  11   8   30.23    5.50   1
   5  11   9   28.06    5.30   1
   5  11  10    5.18    2.27   1
   5  11  11   28.88    5.37   1
   5  11  12   11.48    3.39   1
   5  11  13    5.28    2.30   1
   5  11  14   15.45    3.93   1
   5  13 -13   11.82    3.44   1
   5  13 -11    9.54    3.09   1
   5  13 -10    9.41    3.07   1
   5  13  -9   35.83    5.99   1
   5  13  -7   15.65    3.96   1
   5  13  -6   37.95    6.16   1
   5  13  -5    7.61    2.76   1
   5  13  -4   13.80    3.71   1
   5  13  -3   49.84    7.06   1
   5  13  -2   17.96    4.24   1
   5  13  -1   38.36    6.19   1
   5  13   0   15.33    3.92   1
   5  13   1   64.80    8.05   1
   5  13   2   12.23    3.50   1
   5  13   3   48.75    6.98   1
   5  13   5   24.60    4.96   1
   5  13   6   10.95    3.31   1
   5  13   7   31.31    5.60   1
   5  13   8   19.13    4.37   1
   5  13  11   13.40    3.66   1
   5  13  12    2.25    1.50   1
   5  13  13   22.60    4.75   1
   5  13  14   10.20    3.19   1
   5  15 -13   20.25    4.50   1
   5  15 -11   23.48    4.85   1
   5  15  -9   28.69    5.36   1
   5  15  -7   17.19    4.15   1
   5  15  -6   30.86    5.56   1
   5  15  -5   10.57    3.25   1
   5  15  -4   22.50    4.74   1
   5  15  -3   19.37    4.40   1
   5  15  -2   18.71    4.33   1
   5  15  -1   16.73    4.09   1
   5  15   1   20.44    4.52   1
   5  15   2   21.08    4.59   1
   5  15   3   11.10    3.33   1
   5  15   4   32.28    5.68   1
   5  15   5   14.25    3.77   1
   5  15   6   13.55    3.68   1
   5  15   7   38.30    6.19   1
   5  15   9   59.33    7.70   1
   5  15  10   33.00    5.74   1
   5  15  11   40.74    6.38   1
   5  15  12   11.29    3.36   1
   5  15  13    3.00    1.73   1
   5  15  14   47.33    6.88   1
   5  15  15    3.19    1.79   1
   5  17 -12    8.29    2.88   1
   5  17 -11    5.85    2.42   1
   5  17 -10    8.70    2.95   1
   5  17  -9    2.67    1.64   1
   5  17  -8   12.31    3.51   1
   5  17  -7   14.85    3.85   1
   5  17  -5   25.34    5.03   1
   5  17  -4   30.75    5.55   1
   5  17  -3   45.26    6.73   1
   5  17  -2   69.60    8.34   1
   5  17  -1   13.40    3.66   1
   5  17   0   15.98    4.00   1
   5  17   2   16.36    4.04   1
   5  17   3   68.63    8.28   1
   5  17   4   17.56    4.19   1
   5  17   5   31.47    5.61   1
   5  17   6   12.30    3.51   1
   5  17   7   32.63    5.71   1
   5  17   9   37.28    6.11   1
   5  17  10   16.42    4.05   1
   5  17  12    3.97    1.99   1
   5  17  13    5.19    2.28   1
   5  17  14    8.55    2.92   1
   5  17  15    5.51    2.35   1
   5  17  16   11.24    3.35   1
   5  19 -14    6.38    2.52   1
   5  19 -12   23.14    4.81   1
   5  19 -10    7.85    2.80   1
   5  19  -9    3.72    1.93   1
   5  19  -6   16.69    4.09   1
   5  19  -5   49.69    7.05   1
   5  19  -4   41.63    6.45   1
   5  19  -3   30.07    5.48   1
   5  19  -2   36.83    6.07   1
   5  19  -1   27.45    5.24   1
   5  19   0   10.79    3.29   1
   5  19   1   19.41    4.41   1
   5  19   2   15.93    3.99   1
   5  19   3   83.68    9.15   1
   5  19   4   39.00    6.24   1
   5  19   5   97.73    9.89   1
   5  19   6   17.02    4.13   1
   5  19   7   27.14    5.21   1
   5  19   8    7.95    2.82   1
   5  19   9   16.83    4.10   1
   5  19  10   14.70    3.83   1
   5  19  12    4.59    2.14   1
   5  19  16    7.25    2.69   1
   5  21 -13   10.05    3.17   1
   5  21 -12    8.74    2.96   1
   5  21 -11    9.67    3.11   1
   5  21 -10    3.60    1.90   1
   5  21  -9    4.37    2.09   1
   5  21  -8    3.58    1.89   1
   5  21  -7   18.63    4.32   1
   5  21  -6   10.84    3.29   1
   5  21  -5   17.10    4.14   1
   5  21  -4   15.26    3.91   1
   5  21  -2   26.71    5.17   1
   5  21  -1   13.35    3.65   1
   5  21   0   25.58    5.06   1
   5  21   2   13.70    3.70   1
   5  21   3    6.30    2.51   1
   5  21   4    2.83    1.68   1
   5  21   5    2.29    1.51   1
   5  21   6    4.61    2.15   1
   5  21   8    9.30    3.05   1
   5  21  10    7.52    2.74   1
   5  21  11    7.97    2.82   1
   5  21  12    6.72    2.59   1
   5  21  13   14.29    3.78   1
   5  21  14    8.21    2.87   1
   5  21  15   24.90    4.99   1
   5  21  16    5.02    2.24   1
   5  23 -15    3.86    1.96   1
   5  23 -13   10.80    3.29   1
   5  23 -12    3.81    1.95   1
   5  23 -11    8.36    2.89   1
   5  23 -10   21.57    4.64   1
   5  23  -9   19.35    4.40   1
   5  23  -8    8.88    2.98   1
   5  23  -7   15.61    3.95   1
   5  23  -6   13.65    3.69   1
   5  23  -5    7.23    2.69   1
   5  23  -4   20.74    4.55   1
   5  23  -3    9.75    3.12   1
   5  23  -2   19.32    4.40   1
   5  23  -1    5.65    2.38   1
   5  23   0   16.02    4.00   1
   5  23   1   19.35    4.40   1
   5  23   3   12.90    3.59   1
   5  23   5   34.80    5.90   1
   5  23   6    2.50    1.58   1
   5  23   7   17.39    4.17   1
   5  23   9   15.05    3.88   1
   5  23  10    4.72    2.17   1
   5  23  11   14.48    3.80   1
   5  23  12    7.05    2.66   1
   5  23  13    1.86    1.36   1
   6 -24  -3   21.34    4.62   1
   6 -24  -2    1.95    1.40   1
   6 -24  -1   12.30    3.51   1
   6 -24   0   23.92    4.89   1
   6 -24   1   28.35    5.32   1
   6 -24   2   17.25    4.15   1
   6 -24   3    8.93    2.99   1
   6 -24   4    2.63    1.62   1
   6 -24   6    9.98    3.16   1
   6 -24   7    7.88    2.81   1
   6 -22  -4   17.33    4.16   1
   6 -22  -3   21.23    4.61   1
   6 -22  -2    8.65    2.94   1
   6 -22  -1   19.77    4.45   1
   6 -22   1    7.48    2.73   1
   6 -22   2   14.85    3.85   1
   6 -22   3   21.66    4.65   1
   6 -22   5    7.50    2.74   1
   6 -22   6    8.35    2.89   1
   6 -22   7    2.46    1.57   1
   6 -22   8   12.29    3.51   1
   6 -20  -5   44.78    6.69   1
   6 -20  -4   14.90    3.86   1
   6 -20  -3   11.96    3.46   1
   6 -20  -2   24.67    4.97   1
   6 -20  -1   24.64    4.96   1
   6 -20   0   22.52    4.75   1
   6 -20   1   21.15    4.60   1
   6 -20   2   36.60    6.05   1
   6 -20   3    1.65    1.28   1
   6 -20   4   37.31    6.11   1
   6 -20   5   11.02    3.32   1
   6 -20   6   10.95    3.31   1
   6 -20   7   22.35    4.73   1
   6 -20   8   19.50    4.42   1
   6 -18  -6   18.01    4.24   1
   6 -18  -5   28.94    5.38   1
   6 -18  -4   14.92    3.86   1
   6 -18  -3   18.98    4.36   1
   6 -18  -1   18.56    4.31   1
   6 -18   0    9.94    3.15   1
   6 -18   1   27.71    5.26   1
   6 -18   2   12.99    3.60   1
   6 -18   3   20.92    4.57   1
   6 -18   4    6.41    2.53   1
   6 -18   5   22.23    4.72   1
   6 -18   6   23.50    4.85   1
   6 -18   7   15.15    3.89   1
   6 -18   8    8.36    2.89   1
   6 -16  -6   20.81    4.56   1
   6 -16  -5   13.80    3.71   1
   6 -16  -4   11.73    3.43   1
   6 -16  -2   20.05    4.48   1
   6 -16  -1   89.55    9.46   1
   6 -16   0   68.29    8.26   1
   6 -16   1  142.57   11.94   1
   6 -16   2  172.13   13.12   1
   6 -16   3    7.05    2.66   1
   6 -16   4   10.25    3.20   1
   6 -16   7    4.24    2.06   1
   6 -16   8    9.48    3.08   1
   6 -14  -6   22.40    4.73   1
   6 -14  -5    5.29    2.30   1
   6 -14  -4    9.77    3.13   1
   6 -14  -3   32.02    5.66   1
   6 -14  -2   39.67    6.30   1
   6 -14  -1  101.12   10.06   1
   6 -14   0   63.42    7.96   1
   6 -14   1  126.10   11.23   1
   6 -14   2  171.68   13.10   1
   6 -14   3   21.11    4.59   1
   6 -14   4   12.19    3.49   1
   6 -14   9   10.17    3.19   1
   6 -12  -7   10.41    3.23   1
   6 -12  -6    1.68    1.30   1
   6 -12  -5   10.32    3.21   1
   6 -12  -4    8.81    2.97   1
   6 -12  -3    6.93    2.63   1
   6 -12  -2   11.15    3.34   1
   6 -12  -1   48.84    6.99   1
   6 -12   0  123.00   11.09   1
   6 -12   1  145.24   12.05   1
   6 -12   2   15.80    3.98   1
   6 -12   3    3.80    1.95   1
   6 -12   4   29.17    5.40   1
   6 -12   5    3.35    1.83   1
   6 -12   6   16.46    4.06   1
   6 -12   7   14.81    3.85   1
   6 -12   9   10.80    3.29   1
   6 -10  -8   21.21    4.61   1
   6 -10  -7   25.95    5.09   1
   6 -10  -6   33.15    5.76   1
   6 -10  -5  110.59   10.52   1
   6 -10  -4   76.50    8.75   1
   6 -10  -3  185.37   13.62   1
   6 -10  -2  144.82   12.03   1
   6 -10  -1   35.10    5.92   1
   6 -10   0   45.31    6.73   1
   6 -10   1   73.07    8.55   1
   6 -10   2   57.94    7.61   1
   6 -10   3  287.33   16.95   1
   6 -10   4   83.78    9.15   1
   6 -10   5   55.72    7.46   1
   6 -10   7    2.73    1.65   1
   6 -10   8   16.48    4.06   1
   6 -10   9   11.31    3.36   1
   6  -8  -9   29.52    5.43   1
   6  -8  -8    4.73    2.18   1
   6  -8  -7    8.65    2.94   1
   6  -8  -6    8.02    2.83   1
   6  -8  -5   83.68    9.15   1
   6  -8  -4   33.90    5.82   1
   6  -8  -3   61.05    7.81   1
   6  -8  -2   36.32    6.03   1
   6  -8  -1  195.68   13.99   1
   6  -8   0  157.70   12.56   1
   6  -8   1  199.01   14.11   1
   6  -8   2   38.33    6.19   1
   6  -8   3 2950.65   54.32   1
   6  -8   4   43.08    6.56   1
   6  -8   5   90.15    9.49   1
   6  -8   7   31.43    5.61   1
   6  -8   9   10.24    3.20   1
   6  -8  11    3.42    1.85   1
   6  -6 -10   18.94    4.35   1
   6  -6  -9   32.06    5.66   1
   6  -6  -6   31.13    5.58   1
   6  -6  -5  135.75   11.65   1
   6  -6  -4   29.40    5.42   1
   6  -6  -3   24.48    4.95   1
   6  -6  -2  102.07   10.10   1
   6  -6  -1  932.15   30.53   1
   6  -6   0  718.80   26.81   1
   6  -6   1 1609.65   40.12   1
   6  -6   2  110.14   10.49   1
   6  -6   3   30.45    5.52   1
   6  -6   4    4.51    2.12   1
   6  -6   5  185.18   13.61   1
   6  -6   6   24.41    4.94   1
   6  -6   7   17.48    4.18   1
   6  -6   8   10.30    3.21   1
   6  -6   9   34.99    5.92   1
   6  -6  11   10.73    3.27   1
   6  -6  12    5.75    2.40   1
   6  -4  -8    9.52    3.09   1
   6  -4  -7   19.05    4.36   1
   6  -4  -6   26.85    5.18   1
   6  -4  -5   53.15    7.29   1
   6  -4  -4   32.63    5.71   1
   6  -4  -3   49.54    7.04   1
   6  -4  -2  221.18   14.87   1
   6  -4  -1 1011.81   31.81   1
   6  -4   0  250.88   15.84   1
   6  -4   1 1061.27   32.58   1
   6  -4   2  238.76   15.45   1
   6  -4   3   62.42    7.90   1
   6  -4   4   58.42    7.64   1
   6  -4   5   44.47    6.67   1
   6  -4   7   30.79    5.55   1
   6  -4   8   31.01    5.57   1
   6  -4   9   43.69    6.61   1
   6  -4  10   18.85    4.34   1
   6  -4  11   66.50    8.15   1
   6  -2 -11   20.18    4.49   1
   6  -2 -10   78.30    8.85   1
   6  -2  -9  171.65   13.10   1
   6  -2  -8    9.34    3.06   1
   6  -2  -7   24.85    4.99   1
   6  -2  -6   16.13    4.02   1
   6  -2  -5 1014.28   31.85   1
   6  -2  -4  344.70   18.57   1
   6  -2  -3  343.76   18.54   1
   6  -2  -2   66.07    8.13   1
   6  -2  -1   53.81    7.34   1
   6  -2   0  121.50   11.02   1
   6  -2   1  242.55   15.57   1
   6  -2   2   27.19    5.21   1
   6  -2   3  279.87   16.73   1
   6  -2   4  265.36   16.29   1
   6  -2   5 1202.44   34.68   1
   6  -2   6   43.15    6.57   1
   6  -2   8   21.88    4.68   1
   6  -2   9  321.26   17.92   1
   6  -2  10  162.21   12.74   1
   6  -2  11  121.13   11.01   1
   6  -2  12   38.85    6.23   1
   6   0 -11   32.10    5.67   1
   6   0 -10   10.46    3.23   1
   6   0  -9   65.29    8.08   1
   6   0  -8    5.03    2.24   1
   6   0  -7  188.74   13.74   1
   6   0  -6   27.60    5.25   1
   6   0  -5  995.52   31.55   1
   6   0  -4  447.52   21.15   1
   6   0  -3  232.77   15.26   1
   6   0  -2   50.00    7.07   1
   6   0  -1  347.61   18.64   1
   6   0   0   65.36    8.08   1
   6   0   1  477.93   21.86   1
   6   0   2  114.14   10.68   1
   6   0   3  262.90   16.21   1
   6   0   4  518.67   22.77   1
   6   0   5 1169.78   34.20   1
   6   0   7  128.17   11.32   1
   6   0  10    7.50    2.74   1
   6   0  11   32.44    5.70   1
   6   0  12   13.59    3.69   1
   6   0  13   67.72    8.23   1
   6   2 -12   28.64    5.35   1
   6   2 -11  229.13   15.14   1
   6   2 -10  123.07   11.09   1
   6   2  -9  300.83   17.34   1
   6   2  -7   20.33    4.51   1
   6   2  -6   74.37    8.62   1
   6   2  -5 1639.50   40.49   1
   6   2  -4  247.05   15.72   1
   6   2  -3  286.45   16.92   1
   6   2  -2   25.01    5.00   1
   6   2  -1   50.66    7.12   1
   6   2   0   92.25    9.60   1
   6   2   1  332.71   18.24   1
   6   2   2   15.25    3.90   1
   6   2   3  494.73   22.24   1
   6   2   4  173.55   13.17   1
   6   2   5 1956.45   44.23   1
   6   2   6   77.44    8.80   1
   6   2   7   34.01    5.83   1
   6   2   8   28.36    5.33   1
   6   2   9  286.38   16.92   1
   6   2  10   66.30    8.14   1
   6   2  11  232.27   15.24   1
   6   2  12    4.43    2.10   1
   6   2  14   23.48    4.85   1
   6   4 -12   15.77    3.97   1
   6   4 -11   43.35    6.58   1
   6   4 -10   20.10    4.48   1
   6   4  -9   67.13    8.19   1
   6   4  -8   40.73    6.38   1
   6   4  -7   26.92    5.19   1
   6   4  -6   19.44    4.41   1
   6   4  -5   21.48    4.63   1
   6   4  -4   27.23    5.22   1
   6   4  -3   38.33    6.19   1
   6   4  -2  104.13   10.20   1
   6   4  -1  995.90   31.56   1
   6   4   0  202.27   14.22   1
   6   4   1  975.53   31.23   1
   6   4   2  124.61   11.16   1
   6   4   3   38.58    6.21   1
   6   4   4    9.26    3.04   1
   6   4   5   28.16    5.31   1
   6   4   6   10.35    3.22   1
   6   4   7   38.79    6.23   1
   6   4   9   47.49    6.89   1
   6   4  10    4.84    2.20   1
   6   4  11   51.34    7.17   1
   6   4  12    5.13    2.26   1
   6   4  13   15.11    3.89   1
   6   6 -13   37.28    6.11   1
   6   6 -11   20.33    4.51   1
   6   6 -10   18.11    4.26   1
   6   6  -9   37.28    6.11   1
   6   6  -8   42.60    6.53   1
   6   6  -7   26.74    5.17   1
   6   6  -6    4.05    2.01   1
   6   6  -5  218.82   14.79   1
   6   6  -4   58.35    7.64   1
   6   6  -3   26.66    5.16   1
   6   6  -2   64.51    8.03   1
   6   6  -1 1997.40   44.69   1
   6   6   0  428.92   20.71   1
   6   6   1 1476.34   38.42   1
   6   6   2  151.05   12.29   1
   6   6   3   36.59    6.05   1
   6   6   4   37.20    6.10   1
   6   6   5  307.86   17.55   1
   6   6   6   43.87    6.62   1
   6   6   8   24.00    4.90   1
   6   6   9   66.71    8.17   1
   6   6  10   26.16    5.11   1
   6   6  11   37.35    6.11   1
   6   6  12    3.26    1.81   1
   6   6  13    9.38    3.06   1
   6   6  14    9.34    3.06   1
   6   6  15   19.16    4.38   1
   6   8 -13    9.44    3.07   1
   6   8 -11    8.04    2.84   1
   6   8 -10   21.11    4.59   1
   6   8  -9   33.86    5.82   1
   6   8  -8   28.73    5.36   1
   6   8  -7   18.76    4.33   1
   6   8  -6   30.23    5.50   1
   6   8  -5  301.62   17.37   1
   6   8  -4   18.87    4.34   1
   6   8  -3   21.52    4.64   1
   6   8  -2   33.15    5.76   1
   6   8  -1  181.24   13.46   1
   6   8   0  129.15   11.36   1
   6   8   1  296.37   17.22   1
   6   8   2   20.29    4.50   1
   6   8   3   12.52    3.54   1
   6   8   4   45.53    6.75   1
   6   8   5  199.80   14.14   1
   6   8   6   28.49    5.34   1
   6   8   7   22.90    4.79   1
   6   8   8    7.34    2.71   1
   6   8   9   65.37    8.09   1
   6   8  10   27.87    5.28   1
   6   8  11  116.22   10.78   1
   6   8  12    8.36    2.89   1
   6   8  13  102.90   10.14   1
   6   8  14   23.76    4.87   1
   6   8  16    1.70    1.30   1
   6  10 -11    1.61    1.27   1
   6  10  -8   39.00    6.24   1
   6  10  -7   90.87    9.53   1
   6  10  -6   51.25    7.16   1
   6  10  -5  151.07   12.29   1
   6  10  -4   55.69    7.46   1
   6  10  -3  403.23   20.08   1
   6  10  -2   18.75    4.33   1
   6  10  -1   44.59    6.68   1
   6  10   0   37.95    6.16   1
   6  10   1  114.38   10.69   1
   6  10   2   33.75    5.81   1
   6  10   3  437.67   20.92   1
   6  10   4   97.46    9.87   1
   6  10   5  219.07   14.80   1
   6  10   6   11.85    3.44   1
   6  10   7   81.53    9.03   1
   6  10   8   18.67    4.32   1
   6  10   9   20.06    4.48   1
   6  10  11   22.32    4.72   1
   6  10  12    4.16    2.04   1
   6  10  13   23.33    4.83   1
   6  10  14   13.01    3.61   1
   6  10  15    3.20    1.79   1
   6  12 -13   10.20    3.19   1
   6  12 -12    4.72    2.17   1
   6  12  -9   19.20    4.38   1
   6  12  -8   33.72    5.81   1
   6  12  -7    8.65    2.94   1
   6  12  -6   11.77    3.43   1
   6  12  -4   19.50    4.42   1
   6  12  -3   46.20    6.80   1
   6  12  -2   25.70    5.07   1
   6  12  -1   51.30    7.16   1
   6  12   0   32.84    5.73   1
   6  12   1  185.12   13.61   1
   6  12   2   13.15    3.63   1
   6  12   3   81.38    9.02   1
   6  12   4   13.86    3.72   1
   6  12   6   35.32    5.94   1
   6  12   8   35.83    5.99   1
   6  12   9   10.39    3.22   1
   6  12  10    5.92    2.43   1
   6  12  11    6.63    2.57   1
   6  12  12   29.63    5.44   1
   6  12  13    2.88    1.70   1
   6  12  16   34.54    5.88   1
   6  14 -11   11.34    3.37   1
   6  14 -10   22.03    4.69   1
   6  14  -9   13.00    3.61   1
   6  14  -8    2.21    1.49   1
   6  14  -7   10.55    3.25   1
   6  14  -5   17.77    4.22   1
   6  14  -4    7.58    2.75   1
   6  14  -3   32.56    5.71   1
   6  14  -2   31.39    5.60   1
   6  14  -1  298.27   17.27   1
   6  14   0  114.71   10.71   1
   6  14   1  327.09   18.09   1
   6  14   2   66.00    8.12   1
   6  14   3   51.32    7.16   1
   6  14   4    2.66    1.63   1
   6  14   5    8.74    2.96   1
   6  14   6    8.48    2.91   1
   6  14   7    5.52    2.35   1
   6  14   9    3.87    1.97   1
   6  14  10    3.41    1.85   1
   6  14  11    2.33    1.52   1
   6  14  12   25.84    5.08   1
   6  14  14   26.74    5.17   1
   6  14  15   10.64    3.26   1
   6  14  16   14.29    3.78   1
   6  14  17   14.10    3.75   1
   6  16 -15    2.47    1.57   1
   6  16 -14    2.24    1.50   1
   6  16 -12   12.16    3.49   1
   6  16  -8   32.30    5.68   1
   6  16  -7   27.30    5.22   1
   6  16  -5   31.57    5.62   1
   6  16  -3   24.52    4.95   1
   6  16  -2    4.20    2.05   1
   6  16  -1  129.29   11.37   1
   6  16   0   82.65    9.09   1
   6  16   1  112.39   10.60   1
   6  16   2  215.93   14.69   1
   6  16   4   29.48    5.43   1
   6  16   5   47.63    6.90   1
   6  16   6    9.14    3.02   1
   6  16   7   18.52    4.30   1
   6  16   8    5.85    2.42   1
   6  16   9   11.36    3.37   1
   6  16  10   12.35    3.51   1
   6  16  11   12.66    3.56   1
   6  16  13   63.04    7.94   1
   6  16  14   23.85    4.88   1
   6  16  17    7.57    2.75   1
   6  16  18   19.39    4.40   1
   6  18 -16    9.92    3.15   1
   6  18 -14   12.88    3.59   1
   6  18 -12    1.95    1.40   1
   6  18 -10   11.55    3.40   1
   6  18  -9   11.15    3.34   1
   6  18  -8   51.46    7.17   1
   6  18  -7   23.65    4.86   1
   6  18  -6    6.05    2.46   1
   6  18  -5   22.01    4.69   1
   6  18  -4    5.22    2.29   1
   6  18  -3    9.11    3.02   1
   6  18  -2   30.11    5.49   1
   6  18  -1   17.33    4.16   1
   6  18   0   20.36    4.51   1
   6  18   1   26.10    5.11   1
   6  18   2   32.63    5.71   1
   6  18   3    9.60    3.10   1
   6  18   6   27.09    5.20   1
   6  18   7   19.28    4.39   1
   6  18   8   26.59    5.16   1
   6  18   9   66.82    8.17   1
   6  18  13   19.19    4.38   1
   6  18  15    8.76    2.96   1
   6  18  17   15.93    3.99   1
   6  18  18    1.88    1.37   1
   6  18  19    6.22    2.49   1
   6  20 -13    4.96    2.23   1
   6  20 -11   12.45    3.53   1
   6  20 -10   12.75    3.57   1
   6  20  -9   10.43    3.23   1
   6  20  -8   10.28    3.21   1
   6  20  -7   20.85    4.57   1
   6  20  -6   29.36    5.42   1
   6  20  -5   21.36    4.62   1
   6  20  -3   15.79    3.97   1
   6  20  -2   22.09    4.70   1
   6  20  -1   25.50    5.05   1
   6  20   0   43.69    6.61   1
   6  20   1   14.86    3.85   1
   6  20   2    5.90    2.43   1
   6  20   3    9.15    3.02   1
   6  20   4    8.25    2.87   1
   6  20   6    8.18    2.86   1
   6  20   8   18.15    4.26   1
   6  20  12    1.92    1.39   1
   6  20  13    4.13    2.03   1
   6  20  16    3.41    1.85   1
   6  20  18   10.80    3.29   1
   6  22 -11   27.83    5.27   1
   6  22 -10   13.27    3.64   1
   6  22  -9    7.99    2.83   1
   6  22  -8   15.96    4.00   1
   6  22  -7   10.05    3.17   1
   6  22  -6   19.95    4.47   1
   6  22  -5   17.22    4.15   1
   6  22  -4   32.14    5.67   1
   6  22  -3   12.04    3.47   1
   6  22  -2   12.30    3.51   1
   6  22  -1   10.35    3.22   1
   6  22   0   11.13    3.34   1
   6  22   1   14.21    3.77   1
   6  22   2   26.65    5.16   1
   6  22   3   14.93    3.86   1
   6  22   4   21.35    4.62   1
   6  22   5   38.78    6.23   1
   6  22   6    6.75    2.60   1
   6  22   7    5.14    2.27   1
   6  22   9   17.75    4.21   1
   6  22  11    8.51    2.92   1
   6  22  13    3.22    1.80   1
   6  22  14    2.74    1.65   1
   6  22  15    8.02    2.83   1
   6  22  17   13.65    3.69   1
   6  24 -17   14.50    3.81   1
   6  24 -16    7.35    2.71   1
   6  24 -15    4.60    2.14   1
   6  24 -14    2.51    1.59   1
   6  24 -13    5.80    2.41   1
   6  24 -10    5.55    2.36   1
   6  24  -9    6.65    2.58   1
   6  24  -8    4.05    2.01   1
   6  24  -7    7.31    2.70   1
   6  24  -6    6.87    2.62   1
   6  24  -5   16.13    4.02   1
   6  24  -3   12.53    3.54   1
   6  24  -1    9.68    3.11   1
   6  24   0   32.07    5.66   1
   6  24   1   25.47    5.05   1
   6  24   2   33.41    5.78   1
   6  24   4    1.85    1.36   1
   6  24   5    7.35    2.71   1
   6  24   7   14.77    3.84   1
   6  24   8    6.74    2.60   1
   6  24   9    6.38    2.52   1
   6  24  10   11.77    3.43   1
   6  24  11   11.58    3.40   1
   6  24  12    6.38    2.52   1
   6  24  13   12.86    3.59   1
   6  24  17   32.92    5.74   1
   6  24  18    2.65    1.63   1
   6  24  20   15.56    3.94   1
   7 -23  -6   20.33    4.51   1
   7 -23  -5   15.82    3.98   1
   7 -23  -4   23.33    4.83   1
   7 -23  -3    4.43    2.10   1
   7 -23  -2   17.55    4.19   1
   7 -23  -1   18.57    4.31   1
   7 -23   0   22.88    4.78   1
   7 -23   1   13.80    3.71   1
   7 -23   2   10.43    3.23   1
   7 -23   3    6.44    2.54   1
   7 -23   4    9.07    3.01   1
   7 -23   5    2.60    1.61   1
   7 -23   6    4.32    2.08   1
   7 -23   7    4.01    2.00   1
   7 -23   8   13.17    3.63   1
   7 -23   9    2.85    1.69   1
   7 -23  10    6.36    2.52   1
   7 -21  -6   13.23    3.64   1
   7 -21  -5   25.14    5.01   1
   7 -21  -4    6.29    2.51   1
   7 -21  -3    9.45    3.07   1
   7 -21  -2   14.70    3.83   1
   7 -21  -1   10.62    3.26   1
   7 -21   0   10.31    3.21   1
   7 -21   1   16.79    4.10   1
   7 -21   2   16.42    4.05   1
   7 -21   3   17.09    4.13   1
   7 -21   4   12.43    3.53   1
   7 -21   5    8.92    2.99   1
   7 -21   6   15.75    3.97   1
   7 -21   7    2.51    1.59   1
   7 -21   8    1.72    1.31   1
   7 -21   9   19.84    4.45   1
   7 -19  -7    7.95    2.82   1
   7 -19  -6   23.77    4.88   1
   7 -19  -5   15.91    3.99   1
   7 -19  -4    6.82    2.61   1
   7 -19  -3   18.63    4.32   1
   7 -19  -2   19.33    4.40   1
   7 -19  -1   16.79    4.10   1
   7 -19   0   16.35    4.04   1
   7 -19   1   27.70    5.26   1
   7 -19   2   17.63    4.20   1
   7 -19   3    6.45    2.54   1
   7 -19   4    2.58    1.60   1
   7 -19   5    6.60    2.57   1
   7 -19   6    2.45    1.57   1
   7 -19   7    8.94    2.99   1
   7 -19   8    9.07    3.01   1
   7 -19   9   18.52    4.30   1
   7 -19  10    4.25    2.06   1
   7 -19  11   16.15    4.02   1
   7 -17  -8    4.09    2.02   1
   7 -17  -6   15.15    3.89   1
   7 -17  -5   11.42    3.38   1
   7 -17  -4   25.21    5.02   1
   7 -17  -3   18.15    4.26   1
   7 -17  -2   27.52    5.25   1
   7 -17  -1   11.48    3.39   1
   7 -17   0   39.86    6.31   1
   7 -17   1    8.55    2.92   1
   7 -17   2    8.55    2.92   1
   7 -17   3   13.43    3.66   1
   7 -17   5    7.28    2.70   1
   7 -17   6    8.85    2.97   1
   7 -17   7    7.20    2.68   1
   7 -17   8    5.55    2.36   1
   7 -17   9   10.85    3.29   1
   7 -17  10    2.36    1.54   1
   7 -17  11    8.59    2.93   1
   7 -15  -8    7.72    2.78   1
   7 -15  -7   10.24    3.20   1
   7 -15  -6    7.65    2.77   1
   7 -15  -5   22.41    4.73   1
   7 -15  -4   47.63    6.90   1
   7 -15  -3   26.19    5.12   1
   7 -15  -2   16.21    4.03   1
   7 -15   0   29.50    5.43   1
   7 -15   1   32.92    5.74   1
   7 -15   2   23.55    4.85   1
   7 -15   3   61.46    7.84   1
   7 -15   6   43.42    6.59   1
   7 -15   7   13.58    3.69   1
   7 -15   9    5.66    2.38   1
   7 -15  10   20.57    4.54   1
   7 -15  11   13.64    3.69   1
   7 -13  -9   55.38    7.44   1
   7 -13  -8    5.10    2.26   1
   7 -13  -7   13.37    3.66   1
   7 -13  -6   21.98    4.69   1
   7 -13  -5   19.09    4.37   1
   7 -13  -3   20.56    4.53   1
   7 -13  -2   11.96    3.46   1
   7 -13  -1    4.09    2.02   1
   7 -13   0   14.97    3.87   1
   7 -13   1   15.44    3.93   1
   7 -13   2   10.99    3.31   1
   7 -13   3   13.15    3.63   1
   7 -13   4   14.20    3.77   1
   7 -13   5   11.55    3.40   1
   7 -13   6    6.93    2.63   1
   7 -13   8    9.68    3.11   1
   7 -13  10   21.71    4.66   1
   7 -13  11   11.36    3.37   1
   7 -11 -10   10.35    3.22   1
   7 -11  -9    4.05    2.01   1
   7 -11  -8    4.46    2.11   1
   7 -11  -7   27.58    5.25   1
   7 -11  -6   15.21    3.90   1
   7 -11  -5   51.05    7.14   1
   7 -11  -4   83.93    9.16   1
   7 -11  -3   46.72    6.84   1
   7 -11  -2   11.32    3.37   1
   7 -11  -1    3.86    1.96   1
   7 -11   0    3.17    1.78   1
   7 -11   1    9.96    3.16   1
   7 -11   2    3.90    1.97   1
   7 -11   3   31.35    5.60   1
   7 -11   4  108.35   10.41   1
   7 -11   5   36.64    6.05   1
   7 -11   8    1.52    1.23   1
   7 -11   9   10.13    3.18   1
   7 -11  10   38.03    6.17   1
   7 -11  11   20.61    4.54   1
   7  -9 -10    4.99    2.23   1
   7  -9  -9   16.27    4.03   1
   7  -9  -7    4.23    2.06   1
   7  -9  -6   38.40    6.20   1
   7  -9  -5   18.48    4.30   1
   7  -9  -4   11.96    3.46   1
   7  -9  -3   23.40    4.84   1
   7  -9  -2   13.18    3.63   1
   7  -9  -1   25.76    5.08   1
   7  -9   0   12.56    3.54   1
   7  -9   1   20.10    4.48   1
   7  -9   2   26.17    5.12   1
   7  -9   3   24.04    4.90   1
   7  -9   5    3.27    1.81   1
   7  -9   6   26.55    5.15   1
   7  -9   7   19.27    4.39   1
   7  -9   8   42.45    6.52   1
   7  -9   9   18.33    4.28   1
   7  -9  10    3.50    1.87   1
   7  -9  11   24.08    4.91   1
   7  -9  12   13.07    3.61   1
   7  -7 -10   46.08    6.79   1
   7  -7  -9    6.95    2.64   1
   7  -7  -8   37.61    6.13   1
   7  -7  -6   63.95    8.00   1
   7  -7  -5   44.78    6.69   1
   7  -7  -4  115.69   10.76   1
   7  -7  -3   76.35    8.74   1
   7  -7  -2  219.23   14.81   1
   7  -7  -1   98.25    9.91   1
   7  -7   1   57.16    7.56   1
   7  -7   2  165.72   12.87   1
   7  -7   3   87.38    9.35   1
   7  -7   4   26.37    5.14   1
   7  -7   5    4.15    2.04   1
   7  -7   6   36.25    6.02   1
   7  -7   7   19.65    4.43   1
   7  -7   8   44.20    6.65   1
   7  -7   9   21.55    4.64   1
   7  -7  10    9.00    3.00   1
   7  -7  12   20.98    4.58   1
   7  -7  13   56.78    7.53   1
   7  -5 -12   11.89    3.45   1
   7  -5 -10    4.16    2.04   1
   7  -5  -9   10.05    3.17   1
   7  -5  -8   47.75    6.91   1
   7  -5  -7   35.16    5.93   1
   7  -5  -6   47.40    6.88   1
   7  -5  -5   13.52    3.68   1
   7  -5  -4  147.90   12.16   1
   7  -5  -3  115.88   10.76   1
   7  -5  -2   53.44    7.31   1
   7  -5  -1   14.54    3.81   1
   7  -5   0   20.42    4.52   1
   7  -5   1   25.42    5.04   1
   7  -5   2    9.86    3.14   1
   7  -5   3   33.60    5.80   1
   7  -5   4  155.85   12.48   1
   7  -5   5   93.60    9.67   1
   7  -5   6   31.42    5.61   1
   7  -5   7   26.42    5.14   1
   7  -5   8   38.22    6.18   1
   7  -5   9   46.80    6.84   1
   7  -5  12   31.50    5.61   1
   7  -5  14    9.30    3.05   1
   7  -3 -11    6.94    2.63   1
   7  -3 -10   36.17    6.01   1
   7  -3  -9   52.69    7.26   1
   7  -3  -7   21.08    4.59   1
   7  -3  -6   37.69    6.14   1
   7  -3  -5  239.02   15.46   1
   7  -3  -4  479.83   21.91   1
   7  -3  -3  135.47   11.64   1
   7  -3  -2   15.86    3.98   1
   7  -3  -1   52.05    7.21   1
   7  -3   0   29.74    5.45   1
   7  -3   1   16.31    4.04   1
   7  -3   2   10.90    3.30   1
   7  -3   3  101.78   10.09   1
   7  -3   4  473.74   21.77   1
   7  -3   5  205.95   14.35   1
   7  -3   6   45.71    6.76   1
   7  -3   7   48.30    6.95   1
   7  -3   8   93.41    9.67   1
   7  -3   9   68.25    8.26   1
   7  -3  10   31.07    5.57   1
   7  -3  11    5.25    2.29   1
   7  -3  12   19.92    4.46   1
   7  -3  13    2.25    1.50   1
   7  -3  14   26.36    5.13   1
   7  -3  15   18.19    4.26   1
   7  -1 -12   36.60    6.05   1
   7  -1 -11   18.20    4.27   1
   7  -1 -10    5.16    2.27   1
   7  -1  -9    6.97    2.64   1
   7  -1  -8   51.64    7.19   1
   7  -1  -7  111.06   10.54   1
   7  -1  -6  700.58   26.47   1
   7  -1  -5  395.20   19.88   1
   7  -1  -4  155.29   12.46   1
   7  -1  -3   45.93    6.78   1
   7  -1  -2   96.46    9.82   1
   7  -1  -1   16.07    4.01   1
   7  -1   0   14.36    3.79   1
   7  -1   2  161.85   12.72   1
   7  -1   3   51.83    7.20   1
   7  -1   4  146.70   12.11   1
   7  -1   5  503.02   22.43   1
   7  -1   6  893.21   29.89   1
   7  -1   7  176.79   13.30   1
   7  -1   8   48.38    6.96   1
   7  -1   9    9.45    3.07   1
   7  -1  10   47.42    6.89   1
   7  -1  12   21.75    4.66   1
   7  -1  13   23.96    4.90   1
   7  -1  14   17.17    4.14   1
   7  -1  15   20.74    4.55   1
   7   1 -12   15.37    3.92   1
   7   1 -11   16.02    4.00   1
   7   1 -10   21.52    4.64   1
   7   1  -9   34.39    5.86   1
   7   1  -8   35.29    5.94   1
   7   1  -7  255.38   15.98   1
   7   1  -6  643.92   25.38   1
   7   1  -5  392.97   19.82   1
   7   1  -4  175.65   13.25   1
   7   1  -3    7.61    2.76   1
   7   1  -2   81.86    9.05   1
   7   1  -1   24.90    4.99   1
   7   1   0   12.86    3.59   1
   7   1   2  161.55   12.71   1
   7   1   3   13.03    3.61   1
   7   1   4  105.49   10.27   1
   7   1   5  361.90   19.02   1
   7   1   6 1029.21   32.08   1
   7   1   7  220.80   14.86   1
   7   1   8   62.33    7.89   1
   7   1   9    2.70    1.64   1
   7   1  10    5.40    2.32   1
   7   1  11   19.11    4.37   1
   7   1  12   13.05    3.61   1
   7   1  13   11.63    3.41   1
   7   1  14   18.83    4.34   1
   7   1  15   36.85    6.07   1
   7   3 -14    5.63    2.37   1
   7   3 -13    1.83    1.35   1
   7   3 -12   71.25    8.44   1
   7   3  -9   26.58    5.16   1
   7   3  -8   74.33    8.62   1
   7   3  -7   26.70    5.17   1
   7   3  -6   12.19    3.49   1
   7   3  -5  192.13   13.86   1
   7   3  -4  411.70   20.29   1
   7   3  -3   97.18    9.86   1
   7   3  -2   55.79    7.47   1
   7   3  -1   10.87    3.30   1
   7   3   0   18.38    4.29   1
   7   3   1   29.45    5.43   1
   7   3   2   24.46    4.95   1
   7   3   3   92.43    9.61   1
   7   3   4  563.51   23.74   1
   7   3   5  233.70   15.29   1
   7   3   6   50.67    7.12   1
   7   3   7   13.47    3.67   1
   7   3   8   46.60    6.83   1
   7   3   9   16.53    4.07   1
   7   3  10   11.93    3.45   1
   7   3  12   21.69    4.66   1
   7   3  13  125.53   11.20   1
   7   3  14   21.61    4.65   1
   7   3  16   15.64    3.95   1
   7   5 -14    8.77    2.96   1
   7   5 -13    3.71    1.93   1
   7   5 -12    8.70    2.95   1
   7   5  -9   21.18    4.60   1
   7   5  -8   25.91    5.09   1
   7   5  -7   33.53    5.79   1
   7   5  -6   32.14    5.67   1
   7   5  -5  111.15   10.54   1
   7   5  -4  216.18   14.70   1
   7   5  -3   76.61    8.75   1
   7   5  -2   48.04    6.93   1
   7   5  -1   46.56    6.82   1
   7   5   0    3.83    1.96   1
   7   5   1   38.44    6.20   1
   7   5   2   47.45    6.89   1
   7   5   3   48.45    6.96   1
   7   5   4  249.46   15.79   1
   7   5   5   89.86    9.48   1
   7   5   6   38.45    6.20   1
   7   5   7   46.69    6.83   1
   7   5   8   52.28    7.23   1
   7   5   9    7.35    2.71   1
   7   5  11   16.35    4.04   1
   7   5  12   41.92    6.47   1
   7   5  13   16.78    4.10   1
   7   5  14   14.30    3.78   1
   7   5  16    5.43    2.33   1
   7   7 -14   15.95    3.99   1
   7   7 -13   29.25    5.41   1
   7   7 -10   25.23    5.02   1
   7   7  -9    9.58    3.10   1
   7   7  -8   64.09    8.01   1
   7   7  -7   34.68    5.89   1
   7   7  -6  109.88   10.48   1
   7   7  -5   33.74    5.81   1
   7   7  -4  109.19   10.45   1
   7   7  -3   70.80    8.41   1
   7   7  -2  104.32   10.21   1
   7   7  -1   90.93    9.54   1
   7   7   1   31.58    5.62   1
   7   7   2  102.53   10.13   1
   7   7   3  141.00   11.87   1
   7   7   4   99.15    9.96   1
   7   7   5    7.27    2.70   1
   7   7   6   63.70    7.98   1
   7   7   7   58.05    7.62   1
   7   7   8   25.92    5.09   1
   7   7   9   25.73    5.07   1
   7   7  11   18.20    4.27   1
   7   7  12   17.92    4.23   1
   7   7  14   10.03    3.17   1
   7   7  16   14.10    3.75   1
   7   9 -15   25.76    5.08   1
   7   9 -12   38.25    6.18   1
   7   9 -10    7.40    2.72   1
   7   9  -9   21.56    4.64   1
   7   9  -8   10.22    3.20   1
   7   9  -7   18.45    4.30   1
   7   9  -6   32.62    5.71   1
   7   9  -5   22.11    4.70   1
   7   9  -4   12.45    3.53   1
   7   9  -3   12.07    3.47   1
   7   9  -2    3.53    1.88   1
   7   9   1   30.98    5.57   1
   7   9   2    8.85    2.97   1
   7   9   3   52.72    7.26   1
   7   9   4   35.97    6.00   1
   7   9   6   38.41    6.20   1
   7   9   7   24.80    4.98   1
   7   9   8   27.98    5.29   1
   7   9   9    2.55    1.60   1
   7   9  10    7.65    2.77   1
   7   9  12   65.10    8.07   1
   7   9  13  274.23   16.56   1
   7   9  14   34.53    5.88   1
   7   9  15   33.26    5.77   1
   7   9  18   14.25    3.78   1
   7  11 -16   10.65    3.26   1
   7  11 -15    9.25    3.04   1
   7  11 -14   17.10    4.14   1
   7  11 -13    3.18    1.78   1
   7  11 -11   11.96    3.46   1
   7  11  -9   18.30    4.28   1
   7  11  -8   28.31    5.32   1
   7  11  -7   32.55    5.71   1
   7  11  -6   48.53    6.97   1
   7  11  -5   54.25    7.37   1
   7  11  -4  115.72   10.76   1
   7  11  -3   91.50    9.57   1
   7  11  -2   33.30    5.77   1
   7  11  -1    8.28    2.88   1
   7  11   0   14.45    3.80   1
   7  11   1   25.13    5.01   1
   7  11   2    2.81    1.68   1
   7  11   3   90.71    9.52   1
   7  11   4  202.76   14.24   1
   7  11   5   45.21    6.72   1
   7  11   6   44.03    6.64   1
   7  11   7   20.96    4.58   1
   7  11   9   14.82    3.85   1
   7  11  12   17.66    4.20   1
   7  11  13    6.82    2.61   1
   7  11  14   22.70    4.76   1
   7  11  17    2.29    1.51   1
   7  11  18   13.69    3.70   1
   7  13 -16    4.81    2.19   1
   7  13 -15   19.35    4.40   1
   7  13 -13    7.95    2.82   1
   7  13 -12    5.29    2.30   1
   7  13 -10   16.58    4.07   1
   7  13  -9    2.40    1.55   1
   7  13  -8   65.78    8.11   1
   7  13  -7   50.17    7.08   1
   7  13  -6   35.79    5.98   1
   7  13  -5   17.25    4.15   1
   7  13  -4   19.58    4.42   1
   7  13  -3   11.63    3.41   1
   7  13  -1    2.33    1.52   1
   7  13   0   11.23    3.35   1
   7  13   1    9.60    3.10   1
   7  13   2    3.75    1.94   1
   7  13   3   15.52    3.94   1
   7  13   4   45.15    6.72   1
   7  13   5    1.59    1.26   1
   7  13   6   10.73    3.27   1
   7  13   7  101.63   10.08   1
   7  13   8   97.67    9.88   1
   7  13  10   12.75    3.57   1
   7  13  11   10.57    3.25   1
   7  13  13    3.40    1.84   1
   7  13  14   36.90    6.07   1
   7  13  15   11.22    3.35   1
   7  13  18   19.39    4.40   1
   7  13  19   17.43    4.17   1
   7  15 -15    7.80    2.79   1
   7  15 -14    8.70    2.95   1
   7  15 -13   43.68    6.61   1
   7  15 -12    4.47    2.11   1
   7  15  -9   30.71    5.54   1
   7  15  -8   24.60    4.96   1
   7  15  -6   24.83    4.98   1
   7  15  -5   66.82    8.17   1
   7  15  -4   25.88    5.09   1
   7  15  -3   31.64    5.62   1
   7  15  -2   30.45    5.52   1
   7  15  -1   15.82    3.98   1
   7  15   0   16.13    4.02   1
   7  15   1    2.53    1.59   1
   7  15   2   37.76    6.15   1
   7  15   3   17.22    4.15   1
   7  15   4   36.60    6.05   1
   7  15   5   75.79    8.71   1
   7  15   6   28.80    5.37   1
   7  15   7   35.10    5.92   1
   7  15   8   32.17    5.67   1
   7  15   9   50.08    7.08   1
   7  15  10    6.63    2.57   1
   7  15  12   21.71    4.66   1
   7  15  13   19.84    4.45   1
   7  15  14   11.66    3.41   1
   7  15  15   14.81    3.85   1
   7  15  17   21.47    4.63   1
   7  15  19    2.37    1.54   1
   7  17 -17   30.00    5.48   1
   7  17 -13    9.21    3.03   1
   7  17 -12    6.45    2.54   1
   7  17  -9   45.15    6.72   1
   7  17  -8   14.10    3.75   1
   7  17  -7   25.73    5.07   1
   7  17  -6   17.61    4.20   1
   7  17  -5   17.89    4.23   1
   7  17  -4   17.97    4.24   1
   7  17  -2   15.98    4.00   1
   7  17  -1   27.49    5.24   1
   7  17   2    7.02    2.65   1
   7  17   3    5.85    2.42   1
   7  17   4   10.20    3.19   1
   7  17   5   26.34    5.13   1
   7  17   6   44.55    6.67   1
   7  17   7   13.18    3.63   1
   7  17   8   25.88    5.09   1
   7  17   9    5.37    2.32   1
   7  17  10   50.10    7.08   1
   7  17  13    7.38    2.72   1
   7  17  14   24.08    4.91   1
   7  17  15   12.90    3.59   1
   7  17  18    5.56    2.36   1
   7  17  19    8.25    2.87   1
   7  17  20    2.89    1.70   1
   7  19 -18    2.39    1.55   1
   7  19 -16   12.49    3.53   1
   7  19 -15   11.63    3.41   1
   7  19 -13    5.36    2.32   1
   7  19 -10   13.05    3.61   1
   7  19  -7    8.18    2.86   1
   7  19  -6    2.63    1.62   1
   7  19  -5   12.27    3.50   1
   7  19  -4   64.70    8.04   1
   7  19  -3   88.32    9.40   1
   7  19  -2   14.13    3.76   1
   7  19  -1   23.29    4.83   1
   7  19   0   22.60    4.75   1
   7  19   1   12.64    3.56   1
   7  19   2   32.21    5.68   1
   7  19   3   74.36    8.62   1
   7  19   4   50.74    7.12   1
   7  19   5   20.33    4.51   1
   7  19   6    5.21    2.28   1
   7  19   7    5.93    2.43   1
   7  19   8    7.05    2.66   1
   7  19  10   13.09    3.62   1
   7  19  11   17.81    4.22   1
   7  19  12   57.67    7.59   1
   7  19  13   49.88    7.06   1
   7  19  15   19.65    4.43   1
   7  19  16    8.15    2.85   1
   7  19  17    9.90    3.15   1
   7  19  18    5.31    2.30   1
   7  19  19   21.39    4.63   1
   7  19  20   20.02    4.47   1
   7  19  21   11.13    3.34   1
   7  21 -18    8.40    2.90   1
   7  21 -16   11.93    3.45   1
   7  21 -15   19.64    4.43   1
   7  21 -12    9.49    3.08   1
   7  21 -11    4.65    2.16   1
   7  21 -10   10.01    3.16   1
   7  21  -9    7.09    2.66   1
   7  21  -8    4.61    2.15   1
   7  21  -7    2.52    1.59   1
   7  21  -6    2.40    1.55   1
   7  21  -5   16.56    4.07   1
   7  21  -4   31.45    5.61   1
   7  21  -3   23.40    4.84   1
   7  21  -1    6.11    2.47   1
   7  21   1    6.25    2.50   1
   7  21   2   22.63    4.76   1
   7  21   3   19.35    4.40   1
   7  21   4    7.88    2.81   1
   7  21   5   32.44    5.70   1
   7  21   6   29.05    5.39   1
   7  21   7   14.72    3.84   1
   7  21   8   17.77    4.22   1
   7  21   9   11.85    3.44   1
   7  21  10   14.57    3.82   1
   7  21  12   10.73    3.28   1
   7  21  14   14.74    3.84   1
   7  21  16    7.50    2.74   1
   7  21  19    1.73    1.31   1
   7  21  21   10.68    3.27   1
   7  21  22    3.45    1.86   1
   7  23 -16    6.20    2.49   1
   7  23 -14   32.33    5.69   1
   7  23 -12    3.13    1.77   1
   7  23 -11    2.40    1.55   1
   7  23  -9    6.56    2.56   1
   7  23  -7   11.26    3.36   1
   7  23  -6    8.74    2.96   1
   7  23  -5    8.80    2.97   1
   7  23  -4   17.36    4.17   1
   7  23  -3   12.89    3.59   1
   7  23  -2   11.36    3.37   1
   7  23  -1   12.82    3.58   1
   7  23   0    5.51    2.35   1
   7  23   2   26.21    5.12   1
   7  23   3    4.65    2.16   1
   7  23   5   12.75    3.57   1
   7  23   6    6.60    2.57   1
   7  23   7    7.57    2.75   1
   7  23   8    6.60    2.57   1
   7  23   9   15.82    3.98   1
   7  23  10   11.66    3.42   1
   7  23  11    9.45    3.07   1
   7  23  12    4.09    2.02   1
   7  23  14    2.80    1.67   1
   7  23  15    5.28    2.30   1
   7  23  16    2.40    1.55   1
   7  23  17    3.91    1.98   1
   7  23  18    3.90    1.97   1
   7  23  19   13.20    3.63   1
   7  23  21    5.70    2.39   1
   7  23  22   13.90    3.73   1
   7  23  23    8.37    2.89   1
   8 -24  -6   11.63    3.41   1
   8 -24  -5    8.45    2.91   1
   8 -24  -3    4.28    2.07   1
   8 -24  -2   29.77    5.46   1
   8 -24  -1   12.04    3.47   1
   8 -24   0   22.80    4.77   1
   8 -24   1   25.39    5.04   1
   8 -24   2   21.86    4.68   1
   8 -24   3    6.41    2.53   1
   8 -24   4    9.80    3.13   1
   8 -24   5   13.95    3.73   1
   8 -24   7   13.09    3.62   1
   8 -24   8   30.42    5.52   1
   8 -24  10   12.23    3.50   1
   8 -24  11    5.47    2.34   1
   8 -22  -8   14.77    3.84   1
   8 -22  -7   32.47    5.70   1
   8 -22  -6    4.70    2.17   1
   8 -22  -5   11.59    3.40   1
   8 -22  -4   11.66    3.42   1
   8 -22  -3    5.32    2.31   1
   8 -22  -2    6.97    2.64   1
   8 -22  -1   14.63    3.82   1
   8 -22   0   11.81    3.44   1
   8 -22   1   16.53    4.07   1
   8 -22   2   16.19    4.02   1
   8 -22   3   34.38    5.86   1
   8 -22   4   11.85    3.44   1
   8 -22   7   15.88    3.99   1
   8 -22   9    7.25    2.69   1
   8 -22  10   24.09    4.91   1
   8 -22  11   18.71    4.33   1
   8 -20  -9    1.80    1.34   1
   8 -20  -8    5.91    2.43   1
   8 -20  -7   20.59    4.54   1
   8 -20  -5   11.80    3.44   1
   8 -20  -4    9.03    3.00   1
   8 -20  -3    4.45    2.11   1
   8 -20  -2   13.84    3.72   1
   8 -20  -1    8.30    2.88   1
   8 -20   0   24.83    4.98   1
   8 -20   2   19.27    4.39   1
   8 -20   3    7.60    2.76   1
   8 -20   4   37.72    6.14   1
   8 -20   5   15.64    3.95   1
   8 -20   6   12.70    3.56   1
   8 -20   7   12.14    3.48   1
   8 -20   8    7.65    2.77   1
   8 -20  10    4.57    2.14   1
   8 -20  11    7.91    2.81   1
   8 -20  12    5.36    2.32   1
   8 -18 -10   10.57    3.25   1
   8 -18  -9   17.59    4.19   1
   8 -18  -8   21.19    4.60   1
   8 -18  -7   13.46    3.67   1
   8 -18  -6    6.83    2.61   1
   8 -18  -4    7.85    2.80   1
   8 -18  -2   15.76    3.97   1
   8 -18  -1   26.60    5.16   1
   8 -18   0    8.25    2.87   1
   8 -18   1   23.60    4.86   1
   8 -18   2    8.10    2.85   1
   8 -18   4    8.26    2.87   1
   8 -18   6   16.09    4.01   1
   8 -18   8   26.39    5.14   1
   8 -18   9    4.05    2.01   1
   8 -18  12    4.64    2.15   1
   8 -18  13   18.00    4.24   1
   8 -16 -10    1.69    1.30   1
   8 -16  -9   17.33    4.16   1
   8 -16  -8    8.75    2.96   1
   8 -16  -7   11.77    3.43   1
   8 -16  -6    9.07    3.01   1
   8 -16  -4   35.04    5.92   1
   8 -16  -3   25.52    5.05   1
   8 -16  -2   13.97    3.74   1
   8 -16  -1    6.07    2.46   1
   8 -16   0   30.67    5.54   1
   8 -16   1   55.42    7.44   1
   8 -16   2   20.51    4.53   1
   8 -16   3   24.79    4.98   1
   8 -16   4    4.28    2.07   1
   8 -16   8   29.51    5.43   1
   8 -16   9    2.85    1.69   1
   8 -16  10    6.35    2.52   1
   8 -16  11   27.90    5.28   1
   8 -16  12   22.13    4.70   1
   8 -16  13    9.82    3.13   1
   8 -16  14   27.86    5.28   1
   8 -14  -9   14.72    3.84   1
   8 -14  -6   23.89    4.89   1
   8 -14  -5   14.50    3.81   1
   8 -14  -3   29.77    5.46   1
   8 -14  -2   16.77    4.09   1
   8 -14  -1    4.35    2.09   1
   8 -14   0   79.09    8.89   1
   8 -14   1   78.11    8.84   1
   8 -14   2   34.81    5.90   1
   8 -14   3    2.44    1.56   1
   8 -14   4   13.08    3.62   1
   8 -14   7    4.05    2.01   1
   8 -14   8   16.81    4.10   1
   8 -14  12   19.13    4.37   1
   8 -14  13   17.96    4.24   1
   8 -14  14   16.65    4.08   1
   8 -12 -11   20.73    4.55   1
   8 -12 -10   12.43    3.53   1
   8 -12  -8    1.80    1.34   1
   8 -12  -7   12.15    3.49   1
   8 -12  -6   16.50    4.06   1
   8 -12  -4   28.45    5.33   1
   8 -12  -3   15.13    3.89   1
   8 -12  -2   43.02    6.56   1
   8 -12  -1   18.42    4.29   1
   8 -12   0   78.18    8.84   1
   8 -12   1    9.42    3.07   1
   8 -12   2   24.07    4.91   1
   8 -12   3   10.95    3.31   1
   8 -12   4   14.70    3.83   1
   8 -12   5    9.90    3.15   1
   8 -12   6   10.92    3.30   1
   8 -12   7    3.44    1.85   1
   8 -12   8    6.07    2.46   1
   8 -12  10   15.71    3.96   1
   8 -12  12    4.65    2.16   1
   8 -12  13   29.62    5.44   1
   8 -10 -12    8.21    2.87   1
   8 -10 -11    8.02    2.83   1
   8 -10 -10    4.43    2.10   1
   8 -10  -9   18.23    4.27   1
   8 -10  -8   54.83    7.40   1
   8 -10  -6   14.26    3.78   1
   8 -10  -5   14.70    3.83   1
   8 -10  -4  125.64   11.21   1
   8 -10  -3   53.03    7.28   1
   8 -10  -2   22.81    4.78   1
   8 -10  -1   21.10    4.59   1
   8 -10   0   44.47    6.67   1
   8 -10   1   22.97    4.79   1
   8 -10   2   13.31    3.65   1
   8 -10   3    8.02    2.83   1
   8 -10   4   65.47    8.09   1
   8 -10   7   23.54    4.85   1
   8 -10   8   72.82    8.53   1
   8 -10   9   30.60    5.53   1
   8 -10  11   27.08    5.20   1
   8 -10  12    5.97    2.44   1
   8  -8 -12    1.98    1.41   1
   8  -8 -11   32.70    5.72   1
   8  -8 -10    2.78    1.67   1
   8  -8  -8    3.11    1.76   1
   8  -8  -7   10.00    3.16   1
   8  -8  -6   87.15    9.34   1
   8  -8  -5   17.44    4.18   1
   8  -8  -4   76.05    8.72   1
   8  -8  -3   29.41    5.42   1
   8  -8  -2   91.22    9.55   1
   8  -8  -1   21.06    4.59   1
   8  -8   0  104.97   10.25   1
   8  -8   1   45.60    6.75   1
   8  -8   2  123.38   11.11   1
   8  -8   3   48.36    6.95   1
   8  -8   4   11.54    3.40   1
   8  -8   5   48.40    6.96   1
   8  -8   6  107.18   10.35   1
   8  -8  10    5.55    2.36   1
   8  -8  11    7.97    2.82   1
   8  -8  12   11.96    3.46   1
   8  -8  13    2.55    1.60   1
   8  -8  15    7.72    2.78   1
   8  -6 -12    6.22    2.49   1
   8  -6 -11   16.50    4.06   1
   8  -6 -10    9.20    3.03   1
   8  -6  -9   14.01    3.74   1
   8  -6  -6   35.35    5.95   1
   8  -6  -5   77.18    8.78   1
   8  -6  -4    2.43    1.56   1
   8  -6  -2   14.74    3.84   1
   8  -6  -1   46.97    6.85   1
   8  -6   0  246.42   15.70   1
   8  -6   1   55.67    7.46   1
   8  -6   2   18.56    4.31   1
   8  -6   3   29.40    5.42   1
   8  -6   4   26.06    5.10   1
   8  -6   6   25.76    5.08   1
   8  -6   8   11.02    3.32   1
   8  -6   9    1.97    1.40   1
   8  -6  10   10.36    3.22   1
   8  -6  12   25.88    5.09   1
   8  -6  13    9.62    3.10   1
   8  -6  14   20.41    4.52   1
   8  -4 -12   18.83    4.34   1
   8  -4 -11    9.98    3.16   1
   8  -4 -10    6.57    2.56   1
   8  -4  -8  246.23   15.69   1
   8  -4  -7   51.75    7.19   1
   8  -4  -6  122.44   11.07   1
   8  -4  -5   35.78    5.98   1
   8  -4  -4   55.72    7.46   1
   8  -4  -3    7.72    2.78   1
   8  -4  -2    6.55    2.56   1
   8  -4  -1    6.38    2.52   1
   8  -4   0  271.50   16.48   1
   8  -4   1   39.68    6.30   1
   8  -4   3    6.00    2.45   1
   8  -4   4   77.40    8.80   1
   8  -4   5    7.45    2.73   1
   8  -4   6  149.81   12.24   1
   8  -4   7   41.05    6.41   1
   8  -4   8  455.89   21.35   1
   8  -4  11    8.77    2.96   1
   8  -4  12    5.47    2.34   1
   8  -4  13    2.82    1.68   1
   8  -4  14   25.95    5.09   1
   8  -4  15   34.50    5.87   1
   8  -4  16   18.38    4.29   1
   8  -4  17   16.05    4.01   1
   8  -2 -14   24.91    4.99   1
   8  -2 -13    5.66    2.38   1
   8  -2 -12   22.26    4.72   1
   8  -2 -10   44.66    6.68   1
   8  -2  -9   52.77    7.26   1
   8  -2  -8   83.18    9.12   1
   8  -2  -7   61.88    7.87   1
   8  -2  -6  123.82   11.13   1
   8  -2  -5   62.65    7.92   1
   8  -2  -4   28.01    5.29   1
   8  -2  -3   10.43    3.23   1
   8  -2  -2   14.74    3.84   1
   8  -2  -1   52.09    7.22   1
   8  -2   0  284.79   16.88   1
   8  -2   1   61.05    7.81   1
   8  -2   2  114.22   10.69   1
   8  -2   3   66.35    8.15   1
   8  -2   4   17.25    4.15   1
   8  -2   5   48.90    6.99   1
   8  -2   6  237.04   15.40   1
   8  -2   7   21.11    4.59   1
   8  -2   8  165.07   12.85   1
   8  -2   9   20.85    4.57   1
   8  -2  11    4.99    2.23   1
   8  -2  12    8.21    2.87   1
   8  -2  13    5.51    2.35   1
   8  -2  14   16.77    4.10   1
   8   0 -13   24.23    4.92   1
   8   0 -12   26.25    5.12   1
   8   0 -11    8.95    2.99   1
   8   0  -9   83.53    9.14   1
   8   0  -8  582.53   24.14   1
   8   0  -7   66.55    8.16   1
   8   0  -6  116.63   10.80   1
   8   0  -5   32.05    5.66   1
   8   0  -4   41.78    6.46   1
   8   0  -3   46.29    6.80   1
   8   0  -2   47.92    6.92   1
   8   0  -1   28.73    5.36   1
   8   0   0  201.90   14.21   1
   8   0   1   44.89    6.70   1
   8   0   2   16.14    4.02   1
   8   0   3   34.01    5.83   1
   8   0   4   16.35    4.04   1
   8   0   5   74.47    8.63   1
   8   0   6  174.27   13.20   1
   8   0   7   53.78    7.33   1
   8   0   8  587.35   24.24   1
   8   0   9   25.37    5.04   1
   8   0  10   97.20    9.86   1
   8   0  12   12.38    3.52   1
   8   0  13   40.42    6.36   1
   8   0  15   12.81    3.58   1
   8   0  16  154.54   12.43   1
   8   0  18    5.86    2.42   1
   8   2 -14    8.63    2.94   1
   8   2 -13   17.92    4.23   1
   8   2 -12   18.79    4.33   1
   8   2 -11   14.89    3.86   1
   8   2 -10   38.04    6.17   1
   8   2  -9   26.14    5.11   1
   8   2  -8   27.23    5.22   1
   8   2  -7   10.44    3.23   1
   8   2  -6  133.43   11.55   1
   8   2  -5   19.79    4.45   1
   8   2  -3    9.84    3.14   1
   8   2  -2   33.94    5.83   1
   8   2  -1   21.63    4.65   1
   8   2   0  329.60   18.15   1
   8   2   1   23.40    4.84   1
   8   2   2    7.86    2.80   1
   8   2   3   34.40    5.87   1
   8   2   4   19.99    4.47   1
   8   2   6  176.18   13.27   1
   8   2   8   92.66    9.63   1
   8   2   9    8.87    2.98   1
   8   2  10   37.50    6.12   1
   8   2  11   21.04    4.59   1
   8   2  14   16.88    4.11   1
   8   2  16   12.61    3.55   1
   8   4 -15    2.52    1.59   1
   8   4 -14   10.88    3.30   1
   8   4 -11   33.64    5.80   1
   8   4 -10   17.97    4.24   1
   8   4  -9   20.10    4.48   1
   8   4  -8  418.95   20.47   1
   8   4  -7   23.54    4.85   1
   8   4  -6   48.45    6.96   1
   8   4  -5   39.49    6.28   1
   8   4  -4   34.46    5.87   1
   8   4  -3    1.54    1.24   1
   8   4  -2   19.65    4.43   1
   8   4  -1   63.78    7.99   1
   8   4   0  131.81   11.48   1
   8   4   1   46.61    6.83   1
   8   4   2   38.03    6.17   1
   8   4   3    2.52    1.59   1
   8   4   4   18.41    4.29   1
   8   4   5   44.04    6.64   1
   8   4   6   56.92    7.54   1
   8   4   7   49.20    7.01   1
   8   4   8  644.92   25.40   1
   8   4   9   16.16    4.02   1
   8   4  10   17.02    4.13   1
   8   4  12   28.87    5.37   1
   8   4  13    7.40    2.72   1
   8   4  14   26.78    5.18   1
   8   4  15   10.71    3.27   1
   8   4  17   18.00    4.24   1
   8   4  18   30.33    5.51   1
   8   4  19   24.98    5.00   1
   8   6 -16    7.08    2.66   1
   8   6 -11    3.60    1.90   1
   8   6  -9   12.75    3.57   1
   8   6  -8   43.84    6.62   1
   8   6  -7   15.79    3.97   1
   8   6  -6   54.75    7.40   1
   8   6  -5   35.03    5.92   1
   8   6  -4   26.48    5.15   1
   8   6  -2   41.03    6.41   1
   8   6  -1   58.28    7.63   1
   8   6   0  432.38   20.79   1
   8   6   1   72.11    8.49   1
   8   6   2   42.26    6.50   1
   8   6   3    4.39    2.09   1
   8   6   4   41.68    6.46   1
   8   6   5    5.87    2.42   1
   8   6   6   20.55    4.53   1
   8   6   7    9.68    3.11   1
   8   6   8   10.31    3.21   1
   8   6   9    6.74    2.60   1
   8   6  10    9.55    3.09   1
   8   6  11   12.19    3.49   1
   8   6  12   12.80    3.58   1
   8   6  13   13.30    3.65   1
   8   6  16   11.76    3.43   1
   8   6  17   14.48    3.80   1
   8   6  18    3.88    1.97   1
   8   6  19   12.05    3.47   1
   8   6  20    3.47    1.86   1
   8   8 -16    7.37    2.71   1
   8   8 -15    9.45    3.07   1
   8   8 -14    8.24    2.87   1
   8   8 -13   29.30    5.41   1
   8   8 -12    8.10    2.85   1
   8   8  -8   36.01    6.00   1
   8   8  -7   25.05    5.01   1
   8   8  -6   61.09    7.82   1
   8   8  -5   31.86    5.64   1
   8   8  -4   42.99    6.56   1
   8   8  -3   22.16    4.71   1
   8   8  -2  128.63   11.34   1
   8   8  -1   54.67    7.39   1
   8   8   0   89.78    9.47   1
   8   8   1   32.96    5.74   1
   8   8   2  142.03   11.92   1
   8   8   3    6.15    2.48   1
   8   8   4   95.18    9.76   1
   8   8   5   51.51    7.18   1
   8   8   6  123.68   11.12   1
   8   8   7   33.63    5.80   1
   8   8   8   21.58    4.65   1
   8   8   9    2.96    1.72   1
   8   8  10    9.63    3.10   1
   8   8  11   38.92    6.24   1
   8   8  15   29.25    5.41   1
   8   8  16    6.10    2.47   1
   8   8  17    7.57    2.75   1
   8   8  19    5.70    2.39   1
   8  10 -16    4.13    2.03   1
   8  10 -12   23.14    4.81   1
   8  10 -11   26.33    5.13   1
   8  10 -10   13.73    3.70   1
   8  10  -9    6.69    2.59   1
   8  10  -8   61.30    7.83   1
   8  10  -7   26.46    5.14   1
   8  10  -6   31.99    5.66   1
   8  10  -5   47.67    6.90   1
   8  10  -4  233.28   15.27   1
   8  10  -3   34.05    5.84   1
   8  10  -2   48.22    6.94   1
   8  10  -1   26.94    5.19   1
   8  10   0   60.95    7.81   1
   8  10   1   14.54    3.81   1
   8  10   2   56.29    7.50   1
   8  10   3   20.78    4.56   1
   8  10   4  275.70   16.60   1
   8  10   5   42.00    6.48   1
   8  10   6   25.33    5.03   1
   8  10   7    8.41    2.90   1
   8  10   8   39.23    6.26   1
   8  10   9   16.42    4.05   1
   8  10  10   19.71    4.44   1
   8  10  11   14.94    3.86   1
   8  10  12   19.95    4.47   1
   8  10  16    3.41    1.85   1
   8  10  19   29.06    5.39   1
   8  10  20   14.60    3.82   1
   8  12 -17    2.92    1.71   1
   8  12 -16   22.50    4.74   1
   8  12 -13   14.77    3.84   1
   8  12 -11   15.32    3.91   1
   8  12 -10   11.22    3.35   1
   8  12  -8   25.13    5.01   1
   8  12  -7   16.05    4.01   1
   8  12  -6   19.99    4.47   1
   8  12  -5   20.64    4.54   1
   8  12  -4   27.38    5.23   1
   8  12  -3   37.40    6.12   1
   8  12  -2   29.07    5.39   1
   8  12  -1   18.00    4.24   1
   8  12   0   83.49    9.14   1
   8  12   1   11.85    3.44   1
   8  12   2   53.96    7.35   1
   8  12   3    1.59    1.26   1
   8  12   4   33.90    5.82   1
   8  12   5   15.69    3.96   1
   8  12   7   11.32    3.37   1
   8  12   8  104.74   10.23   1
   8  12   9   12.71    3.57   1
   8  12  10    4.33    2.08   1
   8  12  11   15.68    3.96   1
   8  12  12   18.90    4.35   1
   8  12  14    3.83    1.96   1
   8  12  15   10.76    3.28   1
   8  12  18    2.03    1.42   1
   8  12  21    7.35    2.71   1
   8  14 -18    4.18    2.04   1
   8  14 -13   14.48    3.80   1
   8  14 -12    8.44    2.90   1
   8  14 -10   39.11    6.25   1
   8  14  -9    3.83    1.96   1
   8  14  -8    3.79    1.95   1
   8  14  -7    6.30    2.51   1
   8  14  -6   23.66    4.86   1
   8  14  -4   23.74    4.87   1
   8  14  -2   16.92    4.11   1
   8  14  -1   39.75    6.30   1
   8  14   0  213.75   14.62   1
   8  14   1   43.80    6.62   1
   8  14   2   18.52    4.30   1
   8  14   3   10.13    3.18   1
   8  14   5   17.02    4.13   1
   8  14   6   21.04    4.59   1
   8  14   7    3.23    1.80   1
   8  14   8   51.33    7.16   1
   8  14   9   14.74    3.84   1
   8  14  10   27.75    5.27   1
   8  14  12   14.11    3.76   1
   8  14  16   30.15    5.49   1
   8  14  18    8.83    2.97   1
   8  14  19    2.40    1.55   1
   8  14  22    3.11    1.76   1
   8  16 -17   19.35    4.40   1
   8  16 -16   14.88    3.86   1
   8  16 -15   16.68    4.08   1
   8  16 -14   23.19    4.82   1
   8  16 -13    7.61    2.76   1
   8  16 -12    5.21    2.28   1
   8  16 -10    5.36    2.32   1
   8  16  -8   19.35    4.40   1
   8  16  -7   25.48    5.05   1
   8  16  -6   57.17    7.56   1
   8  16  -5   10.95    3.31   1
   8  16  -4   38.55    6.21   1
   8  16  -3   40.88    6.39   1
   8  16  -2   13.61    3.69   1
   8  16  -1   32.06    5.66   1
   8  16   0   28.80    5.37   1
   8  16   1   33.45    5.78   1
   8  16   2   39.78    6.31   1
   8  16   3    9.94    3.15   1
   8  16   4    5.29    2.30   1
   8  16   5   16.47    4.06   1
   8  16   6  119.78   10.94   1
   8  16   9    3.89    1.97   1
   8  16  10   18.35    4.28   1
   8  16  11   32.29    5.68   1
   8  16  12    4.46    2.11   1
   8  16  13   25.54    5.05   1
   8  16  14    5.50    2.35   1
   8  16  15   16.35    4.04   1
   8  16  17    3.03    1.74   1
   8  16  19    3.04    1.74   1
   8  18 -17    4.91    2.22   1
   8  18 -16    2.21    1.49   1
   8  18 -14   13.65    3.69   1
   8  18 -13    3.19    1.79   1
   8  18 -12   18.15    4.26   1
   8  18 -11   29.89    5.47   1
   8  18  -9   21.48    4.63   1
   8  18  -8   51.42    7.17   1
   8  18  -7   61.90    7.87   1
   8  18  -6   34.29    5.86   1
   8  18  -4   21.24    4.61   1
   8  18  -3   25.89    5.09   1
   8  18  -2    7.80    2.79   1
   8  18  -1    5.01    2.24   1
   8  18   0   24.64    4.96   1
   8  18   1   19.38    4.40   1
   8  18   2   50.52    7.11   1
   8  18   3   24.58    4.96   1
   8  18   4    7.56    2.75   1
   8  18   6   16.83    4.10   1
   8  18   7   16.31    4.04   1
   8  18   8   68.56    8.28   1
   8  18   9   21.23    4.61   1
   8  18  10   10.16    3.19   1
   8  18  12   10.65    3.26   1
   8  18  14    9.25    3.04   1
   8  18  15   17.25    4.15   1
   8  18  17    9.23    3.04   1
   8  18  18   14.63    3.82   1
   8  18  20   13.35    3.65   1
   8  18  21    7.09    2.66   1
   8  18  22   15.03    3.88   1
   8  20 -20    2.44    1.56   1
   8  20 -19   10.68    3.27   1
   8  20 -13   15.30    3.91   1
   8  20 -12    7.65    2.77   1
   8  20 -11   23.88    4.89   1
   8  20 -10    2.64    1.62   1
   8  20  -9   29.59    5.44   1
   8  20  -8   16.88    4.11   1
   8  20  -7   11.79    3.43   1
   8  20  -6   13.88    3.72   1
   8  20  -5    7.09    2.66   1
   8  20  -4    4.43    2.10   1
   8  20  -3   10.57    3.25   1
   8  20  -1   16.71    4.09   1
   8  20   0   11.66    3.42   1
   8  20   1   32.25    5.68   1
   8  20   2   12.15    3.49   1
   8  20   3   11.02    3.32   1
   8  20   8   27.23    5.22   1
   8  20   9    5.78    2.40   1
   8  20  10   28.16    5.31   1
   8  20  11   10.00    3.16   1
   8  20  12    4.69    2.17   1
   8  20  14   10.80    3.29   1
   8  20  16   13.88    3.73   1
   8  20  17    2.65    1.63   1
   8  20  18    6.48    2.54   1
   8  20  19   16.67    4.08   1
   8  20  21    3.75    1.94   1
   8  20  24   13.12    3.62   1
   8  22 -20    2.11    1.45   1
   8  22 -18   16.64    4.08   1
   8  22 -15    3.83    1.96   1
   8  22  -9    1.84    1.36   1
   8  22  -8   22.06    4.70   1
   8  22  -7   12.79    3.58   1
   8  22  -6    1.70    1.30   1
   8  22  -5   10.46    3.23   1
   8  22  -3   24.67    4.97   1
   8  22  -1   34.21    5.85   1
   8  22   1   16.91    4.11   1
   8  22   2   13.13    3.62   1
   8  22   3    4.99    2.23   1
   8  22   4   14.76    3.84   1
   8  22   7   20.36    4.51   1
   8  22   8    8.78    2.96   1
   8  22   9   16.39    4.05   1
   8  22  10    5.78    2.40   1
   8  22  11   22.27    4.72   1
   8  22  13   21.75    4.66   1
   8  22  14   11.10    3.33   1
   8  22  16    6.49    2.55   1
   8  22  17   12.91    3.59   1
   8  22  20    6.58    2.56   1
   8  22  21   14.48    3.80   1
   8  22  22    6.75    2.60   1
   8  24 -17    5.52    2.35   1
   8  24 -16   13.35    3.65   1
   8  24 -15    6.11    2.47   1
   8  24 -13   13.20    3.63   1
   8  24 -12    7.85    2.80   1
   8  24  -9    3.72    1.93   1
   8  24  -8   13.48    3.67   1
   8  24  -7   18.38    4.29   1
   8  24  -6   11.77    3.43   1
   8  24  -5   14.06    3.75   1
   8  24  -3    2.81    1.68   1
   8  24  -1    5.40    2.32   1
   8  24   0    8.02    2.83   1
   8  24   1   21.38    4.62   1
   8  24   2   20.14    4.49   1
   8  24   3    6.25    2.50   1
   8  24   4   11.52    3.39   1
   8  24   5   12.98    3.60   1
   8  24   6   12.26    3.50   1
   8  24   7    5.80    2.41   1
   8  24   9   23.10    4.81   1
   8  24  10    1.95    1.40   1
   8  24  11    2.47    1.57   1
   8  24  14    3.22    1.80   1
   8  24  15   13.84    3.72   1
   8  24  17    8.28    2.88   1
   8  24  18   11.18    3.34   1
   9 -23 -10   36.38    6.03   1
   9 -23  -8    5.32    2.31   1
   9 -23  -7   12.80    3.58   1
   9 -23  -5   20.48    4.52   1
   9 -23  -3   14.45    3.80   1
   9 -23  -2    9.49    3.08   1
   9 -23  -1   20.06    4.48   1
   9 -23   0   10.13    3.18   1
   9 -23   1    3.04    1.74   1
   9 -23   2   15.83    3.98   1
   9 -23   3   14.70    3.83   1
   9 -23   4    2.70    1.64   1
   9 -23   5    5.55    2.36   1
   9 -23   6    6.60    2.57   1
   9 -23   7    3.30    1.82   1
   9 -23   9    3.83    1.96   1
   9 -23  11    5.93    2.43   1
   9 -23  12    3.26    1.81   1
   9 -23  13    1.65    1.28   1
   9 -23  14    6.10    2.47   1
   9 -21  -9   20.28    4.50   1
   9 -21  -8    7.63    2.76   1
   9 -21  -7   13.27    3.64   1
   9 -21  -6   15.56    3.94   1
   9 -21  -5   19.50    4.42   1
   9 -21  -3    9.90    3.15   1
   9 -21  -2    2.28    1.51   1
   9 -21  -1   22.41    4.73   1
   9 -21   0    6.86    2.62   1
   9 -21   1    7.70    2.77   1
   9 -21   2    5.36    2.32   1
   9 -21   3    6.09    2.47   1
   9 -21   4   16.69    4.09   1
   9 -21   6    5.95    2.44   1
   9 -21   7   17.92    4.23   1
   9 -21   8   13.43    3.66   1
   9 -21  10    4.65    2.16   1
   9 -21  12    3.79    1.95   1
   9 -21  13    6.50    2.55   1
   9 -21  14   10.39    3.22   1
   9 -21  15    8.58    2.93   1
   9 -19 -11   10.87    3.30   1
   9 -19 -10   27.15    5.21   1
   9 -19  -9   34.64    5.89   1
   9 -19  -8   26.73    5.17   1
   9 -19  -7    9.99    3.16   1
   9 -19  -6    7.19    2.68   1
   9 -19  -5    6.00    2.45   1
   9 -19  -4   21.51    4.64   1
   9 -19  -3   57.15    7.56   1
   9 -19  -2    7.30    2.70   1
   9 -19  -1    3.60    1.90   1
   9 -19   0    4.05    2.01   1
   9 -19   1    7.74    2.78   1
   9 -19   2   11.40    3.38   1
   9 -19   3   26.22    5.12   1
   9 -19   4    2.88    1.70   1
   9 -19   5   15.93    3.99   1
   9 -19   6   19.27    4.39   1
   9 -19  11   12.75    3.57   1
   9 -19  12   19.58    4.42   1
   9 -17 -12    5.18    2.27   1
   9 -17 -11   16.95    4.12   1
   9 -17  -9   11.81    3.44   1
   9 -17  -6    8.43    2.90   1
   9 -17  -5   28.18    5.31   1
   9 -17  -4   15.41    3.93   1
   9 -17  -3   13.80    3.72   1
   9 -17  -1   16.35    4.04   1
   9 -17   2   18.75    4.33   1
   9 -17   3   31.55    5.62   1
   9 -17   4   11.25    3.35   1
   9 -17   6    7.24    2.69   1
   9 -17   9    2.47    1.57   1
   9 -17  11    6.59    2.57   1
   9 -17  12    6.36    2.52   1
   9 -17  14   10.31    3.21   1
   9 -17  15   20.94    4.58   1
   9 -15 -10   15.71    3.96   1
   9 -15  -9   13.77    3.71   1
   9 -15  -5  102.82   10.14   1
   9 -15  -4   45.14    6.72   1
   9 -15  -3  125.03   11.18   1
   9 -15  -2   22.47    4.74   1
   9 -15  -1   15.60    3.95   1
   9 -15   0   12.20    3.49   1
   9 -15   1    8.77    2.96   1
   9 -15   2   12.82    3.58   1
   9 -15   3   20.52    4.53   1
   9 -15   4   16.10    4.01   1
   9 -15   6   31.05    5.57   1
   9 -15   8   17.61    4.20   1
   9 -15   9    8.77    2.96   1
   9 -15  10   14.18    3.76   1
   9 -15  11   15.77    3.97   1
   9 -15  13    4.05    2.01   1
   9 -15  14    4.25    2.06   1
   9 -15  15   16.60    4.07   1
   9 -13 -12    4.77    2.18   1
   9 -13 -11   15.23    3.90   1
   9 -13  -8   30.93    5.56   1
   9 -13  -7   12.60    3.55   1
   9 -13  -5   15.34    3.92   1
   9 -13  -4   15.20    3.90   1
   9 -13  -3   28.92    5.38   1
   9 -13  -2  109.80   10.48   1
   9 -13  -1   15.38    3.92   1
   9 -13   1   12.45    3.53   1
   9 -13   2   51.35    7.17   1
   9 -13   3   63.53    7.97   1
   9 -13   4   18.72    4.33   1
   9 -13   5   15.19    3.90   1
   9 -13   6    7.41    2.72   1
   9 -13   7   10.30    3.21   1
   9 -13   8   11.22    3.35   1
   9 -13   9    7.95    2.82   1
   9 -13  15    6.53    2.55   1
   9 -11 -14   37.42    6.12   1
   9 -11 -13    5.40    2.32   1
   9 -11 -11   20.19    4.49   1
   9 -11 -10   16.35    4.04   1
   9 -11  -7   28.88    5.37   1
   9 -11  -6   79.08    8.89   1
   9 -11  -5   24.80    4.98   1
   9 -11  -4   43.01    6.56   1
   9 -11  -3   95.50    9.77   1
   9 -11  -2   29.92    5.47   1
   9 -11  -1    5.25    2.29   1
   9 -11   0    6.68    2.58   1
   9 -11   1   13.32    3.65   1
   9 -11   2   53.33    7.30   1
   9 -11   3    3.11    1.76   1
   9 -11   4   27.38    5.23   1
   9 -11   6   87.75    9.37   1
   9 -11   8   14.55    3.81   1
   9 -11   9    6.45    2.54   1
   9 -11  10   10.50    3.24   1
   9 -11  11    3.90    1.97   1
   9 -11  12   22.65    4.76   1
   9 -11  13   40.98    6.40   1
   9 -11  14   25.35    5.03   1
   9 -11  16   25.88    5.09   1
   9 -11  17   10.92    3.30   1
   9  -9 -14   19.46    4.41   1
   9  -9 -11    4.50    2.12   1
   9  -9  -9   10.35    3.22   1
   9  -9  -7   20.86    4.57   1
   9  -9  -6   38.62    6.21   1
   9  -9  -5   24.64    4.96   1
   9  -9  -4  314.86   17.74   1
   9  -9  -3   14.33    3.79   1
   9  -9  -2   30.26    5.50   1
   9  -9  -1    8.70    2.95   1
   9  -9   0   14.78    3.84   1
   9  -9   1   29.66    5.45   1
   9  -9   2   25.91    5.09   1
   9  -9   3   26.02    5.10   1
   9  -9   4  152.10   12.33   1
   9  -9   5   18.93    4.35   1
   9  -9   6   49.88    7.06   1
   9  -9   7    6.76    2.60   1
   9  -9   8   47.29    6.88   1
   9  -9   9   10.76    3.28   1
   9  -9  10   33.53    5.79   1
   9  -9  11   27.86    5.28   1
   9  -9  12   31.38    5.60   1
   9  -9  13    7.28    2.70   1
   9  -9  15   30.19    5.49   1
   9  -9  16    5.56    2.36   1
   9  -9  17   15.78    3.97   1
   9  -9  18   12.83    3.58   1
   9  -7 -13   21.12    4.60   1
   9  -7 -12   22.82    4.78   1
   9  -7  -9    3.75    1.94   1
   9  -7  -8   13.10    3.62   1
   9  -7  -7    1.54    1.24   1
   9  -7  -6   37.01    6.08   1
   9  -7  -5   14.48    3.80   1
   9  -7  -3   16.83    4.10   1
   9  -7  -2   11.84    3.44   1
   9  -7  -1   23.01    4.80   1
   9  -7   0   11.52    3.39   1
   9  -7   1   12.45    3.53   1
   9  -7   2   29.42    5.42   1
   9  -7   3   35.29    5.94   1
   9  -7   4    6.04    2.46   1
   9  -7   5   20.85    4.57   1
   9  -7   6   16.87    4.11   1
   9  -7   8    6.68    2.58   1
   9  -7  10   37.59    6.13   1
   9  -7  11    5.40    2.32   1
   9  -7  12   36.60    6.05   1
   9  -7  13    1.58    1.25   1
   9  -7  14   84.79    9.21   1
   9  -7  15    5.93    2.43   1
   9  -7  17    4.53    2.13   1
   9  -7  18   13.39    3.66   1
   9  -5 -15   13.84    3.72   1
   9  -5 -14    6.82    2.61   1
   9  -5 -12   36.23    6.02   1
   9  -5 -11    7.50    2.74   1
   9  -5  -9   15.97    4.00   1
   9  -5  -8   13.07    3.62   1
   9  -5  -7   35.44    5.95   1
   9  -5  -6   55.10    7.42   1
   9  -5  -5   25.16    5.02   1
   9  -5  -4  232.99   15.26   1
   9  -5  -3   14.83    3.85   1
   9  -5  -2   60.73    7.79   1
   9  -5   0   36.60    6.05   1
   9  -5   1    7.70    2.77   1
   9  -5   2   99.00    9.95   1
   9  -5   3   30.45    5.52   1
   9  -5   4  172.32   13.13   1
   9  -5   5   21.90    4.68   1
   9  -5   6  180.38   13.43   1
   9  -5   7   12.60    3.55   1
   9  -5   8   12.30    3.51   1
   9  -5   9   17.43    4.17   1
   9  -5  11   19.31    4.39   1
   9  -5  12   16.27    4.03   1
   9  -5  13    5.94    2.44   1
   9  -5  16   40.80    6.39   1
   9  -3 -16   21.52    4.64   1
   9  -3 -14    4.43    2.10   1
   9  -3 -12   18.12    4.26   1
   9  -3 -10   12.52    3.54   1
   9  -3  -8   40.42    6.36   1
   9  -3  -7   20.66    4.55   1
   9  -3  -6  236.32   15.37   1
   9  -3  -5   15.07    3.88   1
   9  -3  -4   38.65    6.22   1
   9  -3  -3   27.60    5.25   1
   9  -3  -2   54.16    7.36   1
   9  -3  -1   42.38    6.51   1
   9  -3   2   30.21    5.50   1
   9  -3   3    1.68    1.29   1
   9  -3   6  405.45   20.14   1
   9  -3   8   46.69    6.83   1
   9  -3   9   10.53    3.24   1
   9  -3  10    2.10    1.45   1
   9  -3  11   13.84    3.72   1
   9  -3  12   29.40    5.42   1
   9  -3  13   12.31    3.51   1
   9  -3  15   74.05    8.61   1
   9  -3  16  285.86   16.91   1
   9  -3  17    7.20    2.68   1
   9  -3  18    4.02    2.01   1
   9  -3  19   26.17    5.12   1
   9  -1 -14   18.45    4.29   1
   9  -1 -11    6.44    2.54   1
   9  -1  -9    5.10    2.26   1
   9  -1  -7   39.87    6.31   1
   9  -1  -6    4.48    2.12   1
   9  -1  -4   75.71    8.70   1
   9  -1  -3   11.93    3.45   1
   9  -1  -1   35.56    5.96   1
   9  -1   0   26.26    5.12   1
   9  -1   1   20.43    4.52   1
   9  -1   2   32.70    5.72   1
   9  -1   3   10.05    3.17   1
   9  -1   4   18.49    4.30   1
   9  -1   6   17.81    4.22   1
   9  -1   8   40.39    6.36   1
   9  -1   9   22.36    4.73   1
   9  -1  10   29.36    5.42   1
   9  -1  13   23.85    4.88   1
   9  -1  14   37.78    6.15   1
   9  -1  16   19.55    4.42   1
   9  -1  18   20.74    4.55   1
   9  -1  20    4.05    2.01   1
   9   1 -17    2.80    1.67   1
   9   1 -16   23.50    4.85   1
   9   1 -15    7.01    2.65   1
   9   1 -14    6.27    2.50   1
   9   1 -11    6.86    2.62   1
   9   1 -10    7.14    2.67   1
   9   1  -8   35.55    5.96   1
   9   1  -7    4.94    2.22   1
   9   1  -6    9.95    3.15   1
   9   1  -5    9.20    3.03   1
   9   1  -4   73.80    8.59   1
   9   1  -3   29.92    5.47   1
   9   1  -2   30.34    5.51   1
   9   1  -1   13.29    3.65   1
   9   1   0   18.52    4.30   1
   9   1   2   68.40    8.27   1
   9   1   3   24.64    4.96   1
   9   1   4   78.56    8.86   1
   9   1   6   38.14    6.18   1
   9   1   7   24.81    4.98   1
   9   1   8   46.46    6.82   1
   9   1   9   15.85    3.98   1
   9   1  11   12.19    3.49   1
   9   1  12    9.83    3.14   1
   9   1  14  119.10   10.91   1
   9   1  15    2.47    1.57   1
   9   1  16  177.52   13.32   1
   9   1  17    5.97    2.44   1
   9   1  19    5.25    2.29   1
   9   1  20   11.70    3.42   1
   9   3 -18   29.35    5.42   1
   9   3 -17    7.96    2.82   1
   9   3 -15   10.43    3.23   1
   9   3 -10   20.33    4.51   1
   9   3  -9    6.90    2.63   1
   9   3  -8   29.06    5.39   1
   9   3  -6  152.97   12.37   1
   9   3  -5   35.57    5.96   1
   9   3  -4    8.25    2.87   1
   9   3  -3   20.73    4.55   1
   9   3  -2   14.21    3.77   1
   9   3  -1   11.25    3.35   1
   9   3   0   14.10    3.75   1
   9   3   1    1.55    1.25   1
   9   3   2   23.87    4.89   1
   9   3   3   17.77    4.22   1
   9   3   4    4.46    2.11   1
   9   3   5   14.62    3.82   1
   9   3   6   22.74    4.77   1
   9   3   7    9.75    3.12   1
   9   3   8   83.09    9.12   1
   9   3   9   33.09    5.75   1
   9   3  10 2408.85   49.08   1
   9   3  11   33.60    5.80   1
   9   3  12   26.98    5.19   1
   9   3  13   18.67    4.32   1
   9   3  14   26.33    5.13   1
   9   3  16   21.68    4.66   1
   9   3  18   29.92    5.47   1
   9   5 -16    2.89    1.70   1
   9   5 -14    2.68    1.64   1
   9   5 -11   15.57    3.95   1
   9   5 -10   27.15    5.21   1
   9   5  -9    2.20    1.48   1
   9   5  -8    3.60    1.90   1
   9   5  -7   27.86    5.28   1
   9   5  -6  283.20   16.83   1
   9   5  -5    7.15    2.67   1
   9   5  -4  424.42   20.60   1
   9   5  -3   11.96    3.46   1
   9   5  -2   83.93    9.16   1
   9   5  -1   37.20    6.10   1
   9   5   0   16.42    4.05   1
   9   5   2   30.80    5.55   1
   9   5   3    1.80    1.34   1
   9   5   4  571.05   23.90   1
   9   5   5    6.60    2.57   1
   9   5   6   92.89    9.64   1
   9   5   7   22.27    4.72   1
   9   5  10    4.24    2.06   1
   9   5  11    3.78    1.94   1
   9   5  12   20.43    4.52   1
   9   5  13    4.73    2.18   1
   9   5  16   27.63    5.26   1
   9   5  18    4.99    2.23   1
   9   5  20   16.20    4.02   1
   9   7 -18   10.05    3.17   1
   9   7 -16   17.73    4.21   1
   9   7 -15   19.13    4.37   1
   9   7 -13   42.90    6.55   1
   9   7 -12   10.77    3.28   1
   9   7 -10   17.10    4.14   1
   9   7  -9    9.60    3.10   1
   9   7  -8   35.63    5.97   1
   9   7  -7    5.96    2.44   1
   9   7  -6   68.95    8.30   1
   9   7  -5   13.43    3.66   1
   9   7  -4   20.10    4.48   1
   9   7  -3   15.92    3.99   1
   9   7  -1   18.98    4.36   1
   9   7   0   21.83    4.67   1
   9   7   2   34.78    5.90   1
   9   7   3   34.88    5.91   1
   9   7   4   26.89    5.19   1
   9   7   5    8.15    2.85   1
   9   7   6  160.57   12.67   1
   9   7   7   23.28    4.83   1
   9   7   8   52.99    7.28   1
   9   7   9    2.42    1.55   1
   9   7  10   35.97    6.00   1
   9   7  11    9.90    3.15   1
   9   7  12    9.31    3.05   1
   9   7  14  127.40   11.29   1
   9   7  15    8.34    2.89   1
   9   7  16   17.06    4.13   1
   9   7  17   12.86    3.59   1
   9   7  20   12.17    3.49   1
   9   7  21   16.45    4.06   1
   9   9 -18    7.05    2.66   1
   9   9 -17   17.77    4.22   1
   9   9 -16   10.95    3.31   1
   9   9 -13   38.68    6.22   1
   9   9 -10   14.26    3.78   1
   9   9  -8   41.89    6.47   1
   9   9  -7   17.37    4.17   1
   9   9  -6   42.15    6.49   1
   9   9  -5   39.67    6.30   1
   9   9  -4  451.02   21.24   1
   9   9  -3   37.57    6.13   1
   9   9  -2   11.32    3.36   1
   9   9  -1    7.35    2.71   1
   9   9   0   15.60    3.95   1
   9   9   1   31.58    5.62   1
   9   9   2    2.92    1.71   1
   9   9   3   19.79    4.45   1
   9   9   4  376.08   19.39   1
   9   9   5   31.68    5.63   1
   9   9   6   40.95    6.40   1
   9   9   7    4.72    2.17   1
   9   9   8   28.67    5.35   1
   9   9   9    1.82    1.35   1
   9   9  10   11.14    3.34   1
   9   9  12    6.38    2.52   1
   9   9  13   20.62    4.54   1
   9   9  14   23.51    4.85   1
   9   9  15   11.63    3.41   1
   9   9  16   84.68    9.20   1
   9   9  18   29.12    5.40   1
   9   9  19    2.10    1.45   1
   9  11 -15    6.05    2.46   1
   9  11 -12   13.01    3.61   1
   9  11 -10   23.57    4.85   1
   9  11  -9   17.84    4.22   1
   9  11  -7    3.44    1.86   1
   9  11  -6  118.99   10.91   1
   9  11  -5   11.30    3.36   1
   9  11  -4   73.88    8.60   1
   9  11  -3   17.57    4.19   1
   9  11  -2    4.65    2.16   1
   9  11  -1   13.24    3.64   1
   9  11   0    9.75    3.12   1
   9  11   2    1.65    1.28   1
   9  11   3   24.00    4.90   1
   9  11   4   94.09    9.70   1
   9  11   5   21.14    4.60   1
   9  11   6  205.83   14.35   1
   9  11   7   15.07    3.88   1
   9  11  10   18.25    4.27   1
   9  11  12   31.13    5.58   1
   9  11  13    7.25    2.69   1
   9  11  14   38.09    6.17   1
   9  11  17    6.05    2.46   1
   9  11  18    8.31    2.88   1
   9  11  21    7.18    2.68   1
   9  11  22   18.60    4.31   1
   9  11  23   17.61    4.20   1
   9  13 -16    1.91    1.38   1
   9  13 -15   22.73    4.77   1
   9  13 -14    4.31    2.08   1
   9  13 -10    6.79    2.61   1
   9  13  -9    2.44    1.56   1
   9  13  -8   16.28    4.04   1
   9  13  -7   10.76    3.28   1
   9  13  -6   37.95    6.16   1
   9  13  -5   20.64    4.54   1
   9  13  -4    4.87    2.21   1
   9  13  -3   23.33    4.83   1
   9  13  -2    3.63    1.91   1
   9  13  -1    5.10    2.26   1
   9  13   0   21.36    4.62   1
   9  13   1   25.69    5.07   1
   9  13   2  121.39   11.02   1
   9  13   3   11.02    3.32   1
   9  13   4    9.98    3.16   1
   9  13   6   23.29    4.83   1
   9  13   7   11.24    3.35   1
   9  13   8   33.64    5.80   1
   9  13  10   14.29    3.78   1
   9  13  12   25.16    5.02   1
   9  13  13   15.05    3.88   1
   9  13  14    6.68    2.58   1
   9  13  15   14.48    3.80   1
   9  13  16   30.19    5.49   1
   9  13  17   22.61    4.76   1
   9  13  20   16.83    4.10   1
   9  13  21    4.13    2.03   1
   9  13  23   10.81    3.29   1
   9  15 -17   18.60    4.31   1
   9  15 -16   13.43    3.66   1
   9  15 -13   21.45    4.63   1
   9  15 -12   17.89    4.23   1
   9  15 -10   12.52    3.54   1
   9  15  -9   24.51    4.95   1
   9  15  -8   46.35    6.81   1
   9  15  -7    8.48    2.91   1
   9  15  -6  141.72   11.90   1
   9  15  -5   46.14    6.79   1
   9  15  -4  360.64   18.99   1
   9  15  -3  286.35   16.92   1
   9  15  -2   13.29    3.64   1
   9  15   0    3.74    1.93   1
   9  15   1    8.02    2.83   1
   9  15   2   21.56    4.64   1
   9  15   4  286.68   16.93   1
   9  15   6  301.45   17.36   1
   9  15   7    5.62    2.37   1
   9  15   8   20.21    4.50   1
   9  15  10    6.19    2.49   1
   9  15  12    7.84    2.80   1
   9  15  13    1.83    1.35   1
   9  15  14    8.28    2.88   1
   9  15  19   16.20    4.02   1
   9  15  20   17.70    4.21   1
   9  15  23   10.12    3.18   1
   9  17 -20   13.76    3.71   1
   9  17 -18   18.20    4.27   1
   9  17 -12   13.65    3.69   1
   9  17 -11   28.50    5.34   1
   9  17  -6    8.25    2.87   1
   9  17  -5   26.92    5.19   1
   9  17  -4   16.84    4.10   1
   9  17  -3   29.96    5.47   1
   9  17  -2   25.80    5.08   1
   9  17  -1   37.39    6.11   1
   9  17   0    4.54    2.13   1
   9  17   1   14.81    3.85   1
   9  17   2   14.42    3.80   1
   9  17   3    4.37    2.09   1
   9  17   5    6.18    2.49   1
   9  17   6   16.99    4.12   1
   9  17  10    9.52    3.09   1
   9  17  14    8.39    2.90   1
   9  17  17   13.31    3.65   1
   9  17  19   12.67    3.56   1
   9  17  24    8.10    2.85   1
   9  19 -20    2.43    1.56   1
   9  19 -19    6.11    2.47   1
   9  19 -16    9.50    3.08   1
   9  19 -13   10.34    3.22   1
   9  19  -7   30.52    5.52   1
   9  19  -6    7.30    2.70   1
   9  19  -5    4.52    2.13   1
   9  19  -4    9.45    3.07   1
   9  19  -3   36.34    6.03   1
   9  19  -2    1.61    1.27   1
   9  19  -1    7.45    2.73   1
   9  19   0   14.63    3.82   1
   9  19   1    8.43    2.90   1
   9  19   3   11.42    3.38   1
   9  19   4   39.97    6.32   1
   9  19   6    6.55    2.56   1
   9  19   7    1.75    1.32   1
   9  19   8   14.81    3.85   1
   9  19  10   16.61    4.08   1
   9  19  11    7.16    2.68   1
   9  19  12    9.40    3.07   1
   9  19  13    5.28    2.30   1
   9  19  14   17.51    4.18   1
   9  19  15    7.05    2.66   1
   9  19  18    4.13    2.03   1
   9  19  20   11.93    3.45   1
   9  19  21   18.83    4.34   1
   9  19  22   10.86    3.30   1
   9  21 -22    9.80    3.13   1
   9  21 -20    3.50    1.87   1
   9  21 -16    5.25    2.29   1
   9  21 -15    5.55    2.36   1
   9  21 -13    2.70    1.64   1
   9  21 -11    6.44    2.54   1
   9  21  -9   12.60    3.55   1
   9  21  -8   30.60    5.53   1
   9  21  -5   13.13    3.62   1
   9  21  -3   15.00    3.87   1
   9  21  -2   10.69    3.27   1
   9  21  -1   23.84    4.88   1
   9  21   0   14.36    3.79   1
   9  21   3    5.51    2.35   1
   9  21   4   11.63    3.41   1
   9  21   5   11.65    3.41   1
   9  21   6    9.30    3.05   1
   9  21   7    8.89    2.98   1
   9  21   8   17.70    4.21   1
   9  21   9   12.96    3.60   1
   9  21  10    6.11    2.47   1
   9  21  11    7.72    2.78   1
   9  21  12   13.95    3.73   1
   9  21  13    5.93    2.43   1
   9  21  15    7.83    2.80   1
   9  21  18    7.01    2.65   1
   9  21  24   16.37    4.05   1
   9  23 -21    2.03    1.42   1
   9  23 -20    3.90    1.97   1
   9  23 -19   23.89    4.89   1
   9  23 -17   10.48    3.24   1
   9  23 -15    7.62    2.76   1
   9  23 -14    5.18    2.27   1
   9  23 -13    6.07    2.46   1
   9  23 -11    6.50    2.55   1
   9  23 -10   13.97    3.74   1
   9  23  -8    3.56    1.89   1
   9  23  -7   16.20    4.02   1
   9  23  -5    3.70    1.92   1
   9  23  -4   19.10    4.37   1
   9  23  -3    3.33    1.83   1
   9  23  -2    9.82    3.13   1
   9  23   4    9.80    3.13   1
   9  23   5   17.33    4.16   1
   9  23   6   10.50    3.24   1
   9  23   8   11.00    3.32   1
   9  23   9    2.03    1.42   1
   9  23  10   15.60    3.95   1
   9  23  11   12.15    3.49   1
   9  23  12   24.75    4.97   1
   9  23  16    2.62    1.62   1
   9  23  17   18.30    4.28   1
   9  23  19   15.68    3.96   1
   9  23  21   11.85    3.44   1
  10 -24 -11    3.82    1.95   1
  10 -24 -10    7.17    2.68   1
  10 -24  -9   25.20    5.02   1
  10 -24  -8    8.10    2.85   1
  10 -24  -6   14.48    3.80   1
  10 -24  -5   17.33    4.16   1
  10 -24  -4   20.92    4.57   1
  10 -24  -3   13.65    3.69   1
  10 -24  -2   16.80    4.10   1
  10 -24  -1    4.95    2.22   1
  10 -24   0    8.82    2.97   1
  10 -24   1    2.05    1.43   1
  10 -24   2   12.42    3.52   1
  10 -24   3   13.57    3.68   1
  10 -24   4    4.35    2.09   1
  10 -24   5    3.41    1.85   1
  10 -24   6   10.84    3.29   1
  10 -24   7    8.25    2.87   1
  10 -24   8    3.26    1.81   1
  10 -24   9   15.52    3.94   1
  10 -24  10   12.38    3.52   1
  10 -24  11    7.62    2.76   1
  10 -24  13    6.60    2.57   1
  10 -24  15   16.13    4.02   1
  10 -22 -10    3.07    1.75   1
  10 -22  -9    1.88    1.37   1
  10 -22  -8    8.89    2.98   1
  10 -22  -7   13.88    3.73   1
  10 -22  -6    9.45    3.07   1
  10 -22  -5    6.86    2.62   1
  10 -22  -4   12.34    3.51   1
  10 -22  -3   24.26    4.93   1
  10 -22  -2   17.44    4.18   1
  10 -22  -1   12.49    3.53   1
  10 -22   0   16.46    4.06   1
  10 -22   1    9.64    3.10   1
  10 -22   2   12.07    3.47   1
  10 -22   3    2.25    1.50   1
  10 -22   4    5.29    2.30   1
  10 -22   5    7.01    2.65   1
  10 -22   6    2.33    1.52   1
  10 -22   7   13.60    3.69   1
  10 -22   8    2.78    1.67   1
  10 -22   9   13.98    3.74   1
  10 -22  10   13.68    3.70   1
  10 -22  11    3.71    1.93   1
  10 -22  14    7.26    2.70   1
  10 -22  15    2.59    1.61   1
  10 -22  16    8.18    2.86   1
  10 -20 -13   16.69    4.09   1
  10 -20 -12    5.58    2.36   1
  10 -20 -11   10.32    3.21   1
  10 -20  -9   10.37    3.22   1
  10 -20  -8   18.56    4.31   1
  10 -20  -7    3.90    1.97   1
  10 -20  -6    7.54    2.75   1
  10 -20  -5   11.10    3.33   1
  10 -20  -4   25.50    5.05   1
  10 -20  -3    9.27    3.04   1
  10 -20  -2    3.22    1.79   1
  10 -20  -1   13.65    3.69   1
  10 -20   0   42.30    6.50   1
  10 -20   1   14.88    3.86   1
  10 -20   2   14.29    3.78   1
  10 -20   3    4.82    2.19   1
  10 -20   5    9.68    3.11   1
  10 -20   6    4.31    2.08   1
  10 -20   7    2.38    1.54   1
  10 -20  12    1.52    1.23   1
  10 -20  13    4.74    2.18   1
  10 -20  15    3.94    1.99   1
  10 -20  16   25.30    5.03   1
  10 -20  17    6.75    2.60   1
  10 -18 -12    2.33    1.52   1
  10 -18 -11    7.35    2.71   1
  10 -18  -8    8.59    2.93   1
  10 -18  -7   16.03    4.00   1
  10 -18  -6   20.10    4.48   1
  10 -18  -4    8.10    2.85   1
  10 -18  -3   10.92    3.31   1
  10 -18  -2   24.45    4.94   1
  10 -18   1    3.79    1.95   1
  10 -18   2   14.40    3.79   1
  10 -18   3   24.71    4.97   1
  10 -18   6   16.95    4.12   1
  10 -18   7   12.98    3.60   1
  10 -18   8    7.80    2.79   1
  10 -18   9    8.81    2.97   1
  10 -18  10    8.05    2.84   1
  10 -18  11    2.95    1.72   1
  10 -18  14    7.28    2.70   1
  10 -18  15    9.90    3.15   1
  10 -18  16   11.10    3.33   1
  10 -18  17    4.02    2.01   1
  10 -16 -12   13.59    3.69   1
  10 -16 -11    7.01    2.65   1
  10 -16 -10   13.13    3.62   1
  10 -16  -9   17.37    4.17   1
  10 -16  -8   27.90    5.28   1
  10 -16  -5    5.89    2.43   1
  10 -16  -4   28.27    5.32   1
  10 -16  -3   20.40    4.52   1
  10 -16  -2   13.83    3.72   1
  10 -16   0   24.60    4.96   1
  10 -16   1   18.42    4.29   1
  10 -16   2   25.13    5.01   1
  10 -16   3    6.85    2.62   1
  10 -16   4   15.52    3.94   1
  10 -16   5   53.70    7.33   1
  10 -16   6    1.98    1.41   1
  10 -16  12   11.94    3.46   1
  10 -16  15  102.04   10.10   1
  10 -16  17   15.90    3.99   1
  10 -16  18    8.10    2.85   1
  10 -14 -11    9.02    3.00   1
  10 -14  -5   11.40    3.38   1
  10 -14  -3    9.82    3.13   1
  10 -14  -2    8.58    2.93   1
  10 -14  -1   16.75    4.09   1
  10 -14   0   68.81    8.30   1
  10 -14   1   19.13    4.37   1
  10 -14   2   15.60    3.95   1
  10 -14   3    7.05    2.66   1
  10 -14   5    9.52    3.09   1
  10 -14   7    2.82    1.68   1
  10 -14   8   26.25    5.12   1
  10 -14  10    2.97    1.72   1
  10 -14  12   24.00    4.90   1
  10 -14  13    4.31    2.08   1
  10 -14  14   20.36    4.51   1
  10 -14  15    6.46    2.54   1
  10 -14  17   25.80    5.08   1
  10 -12 -11   12.38    3.52   1
  10 -12 -10    7.13    2.67   1
  10 -12  -8   12.03    3.47   1
  10 -12  -7   21.23    4.61   1
  10 -12  -5    7.41    2.72   1
  10 -12  -3    8.77    2.96   1
  10 -12  -2   48.34    6.95   1
  10 -12  -1   38.28    6.19   1
  10 -12   0  157.40   12.55   1
  10 -12   1   70.20    8.38   1
  10 -12   2   90.71    9.52   1
  10 -12   3  104.89   10.24   1
  10 -12   4    2.62    1.62   1
  10 -12   5    8.48    2.91   1
  10 -12   6   12.13    3.48   1
  10 -12   7    6.30    2.51   1
  10 -12   8   11.18    3.34   1
  10 -12  10   16.50    4.06   1
  10 -12  12   14.48    3.80   1
  10 -12  14    8.51    2.92   1
  10 -12  16    8.48    2.91   1
  10 -12  18   16.61    4.08   1
  10 -10 -14    3.56    1.89   1
  10 -10 -10   20.17    4.49   1
  10 -10  -9   41.88    6.47   1
  10 -10  -8    7.97    2.82   1
  10 -10  -6   26.06    5.11   1
  10 -10  -5   13.50    3.67   1
  10 -10  -4    4.69    2.17   1
  10 -10  -3    6.11    2.47   1
  10 -10  -2   65.63    8.10   1
  10 -10  -1   14.81    3.85   1
  10 -10   0  157.47   12.55   1
  10 -10   1   53.92    7.34   1
  10 -10   2   59.63    7.72   1
  10 -10   3    3.67    1.92   1
  10 -10   5   14.70    3.83   1
  10 -10   6    8.39    2.90   1
  10 -10   7   13.13    3.62   1
  10 -10   9   21.04    4.59   1
  10 -10  10   43.61    6.60   1
  10 -10  11    8.66    2.94   1
  10 -10  12  100.95   10.05   1
  10 -10  13    4.76    2.18   1
  10 -10  14   22.35    4.73   1
  10 -10  20    7.71    2.78   1
  10  -8 -16    9.07    3.01   1
  10  -8 -14   13.69    3.70   1
  10  -8 -12   11.31    3.36   1
  10  -8 -11    1.95    1.40   1
  10  -8 -10   16.50    4.06   1
  10  -8  -9    5.07    2.25   1
  10  -8  -7   22.09    4.70   1
  10  -8  -6    5.96    2.44   1
  10  -8  -5   22.27    4.72   1
  10  -8  -3   19.90    4.46   1
  10  -8  -2   14.29    3.78   1
  10  -8  -1    5.80    2.41   1
  10  -8   0  139.24   11.80   1
  10  -8   1   51.15    7.15   1
  10  -8   2   10.54    3.25   1
  10  -8   3   25.27    5.03   1
  10  -8   5    5.09    2.26   1
  10  -8   6   10.73    3.27   1
  10  -8   7    4.20    2.05   1
  10  -8   8   20.73    4.55   1
  10  -8  11    7.68    2.77   1
  10  -8  12    7.05    2.66   1
  10  -8  15    9.82    3.13   1
  10  -8  16   19.39    4.40   1
  10  -8  17    5.81    2.41   1
  10  -8  18    7.18    2.68   1
  10  -8  19   12.90    3.59   1
  10  -8  20   12.12    3.48   1
  10  -6 -14   22.88    4.78   1
  10  -6 -12   25.35    5.03   1
  10  -6  -9   43.61    6.60   1
  10  -6  -8   46.88    6.85   1
  10  -6  -7   85.91    9.27   1
  10  -6  -6   35.92    5.99   1
  10  -6  -5   17.05    4.13   1
  10  -6  -4   41.44    6.44   1
  10  -6  -3   24.45    4.95   1
  10  -6  -2   47.07    6.86   1
  10  -6  -1   31.73    5.63   1
  10  -6   0   63.22    7.95   1
  10  -6   1   10.92    3.31   1
  10  -6   2   47.17    6.87   1
  10  -6   3   20.33    4.51   1
  10  -6   4   11.71    3.42   1
  10  -6   6   39.83    6.31   1
  10  -6   7    3.45    1.86   1
  10  -6   8  102.22   10.11   1
  10  -6  10   35.35    5.95   1
  10  -6  11    3.32    1.82   1
  10  -6  14   20.72    4.55   1
  10  -6  15   18.81    4.34   1
  10  -6  16    2.81    1.68   1
  10  -6  20    4.04    2.01   1
  10  -4 -17    9.94    3.15   1
  10  -4 -15   26.96    5.19   1
  10  -4 -14   18.67    4.32   1
  10  -4 -11   13.69    3.70   1
  10  -4 -10   13.12    3.62   1
  10  -4  -9   36.58    6.05   1
  10  -4  -8   10.17    3.19   1
  10  -4  -7    6.94    2.63   1
  10  -4  -6    2.59    1.61   1
  10  -4  -4   10.77    3.28   1
  10  -4  -3   40.12    6.33   1
  10  -4  -2   12.30    3.51   1
  10  -4   0   66.07    8.13   1
  10  -4   2   36.71    6.06   1
  10  -4   3   20.10    4.48   1
  10  -4   4   38.85    6.23   1
  10  -4   5   40.35    6.35   1
  10  -4   6   71.40    8.45   1
  10  -4   7   64.88    8.05   1
  10  -4   8  238.23   15.43   1
  10  -4   9    5.09    2.26   1
  10  -4  10   19.07    4.37   1
  10  -4  11   15.30    3.91   1
  10  -4  13   14.93    3.86   1
  10  -4  14   22.83    4.78   1
  10  -4  16    7.05    2.66   1
  10  -4  17   27.34    5.23   1
  10  -4  18    1.62    1.27   1
  10  -4  20   12.95    3.60   1
  10  -2 -18    9.35    3.06   1
  10  -2 -15   23.03    4.80   1
  10  -2 -14    9.75    3.12   1
  10  -2 -13   17.97    4.24   1
  10  -2 -12    3.57    1.89   1
  10  -2 -10    2.75    1.66   1
  10  -2  -7   35.50    5.96   1
  10  -2  -6   48.83    6.99   1
  10  -2  -5    4.85    2.20   1
  10  -2  -4   18.17    4.26   1
  10  -2  -3   30.75    5.55   1
  10  -2  -2    5.41    2.33   1
  10  -2  -1    7.08    2.66   1
  10  -2   0   80.12    8.95   1
  10  -2   1   19.82    4.45   1
  10  -2   2   48.94    7.00   1
  10  -2   3   16.54    4.07   1
  10  -2   4   36.80    6.07   1
  10  -2   5    8.77    2.96   1
  10  -2   6   10.28    3.21   1
  10  -2   8    9.43    3.07   1
  10  -2  10   39.14    6.26   1
  10  -2  11    9.93    3.15   1
  10  -2  12   10.57    3.25   1
  10  -2  15    9.45    3.07   1
  10  -2  16   12.90    3.59   1
  10  -2  17   10.50    3.24   1
  10  -2  18   37.72    6.14   1
  10  -2  19    8.50    2.92   1
  10  -2  20    8.25    2.87   1
  10   0 -18   17.77    4.22   1
  10   0 -14   15.17    3.89   1
  10   0 -12   42.97    6.56   1
  10   0 -11   14.77    3.84   1
  10   0 -10  110.76   10.52   1
  10   0  -9   32.75    5.72   1
  10   0  -8  236.55   15.38   1
  10   0  -7   46.88    6.85   1
  10   0  -6  152.97   12.37   1
  10   0  -5   20.41    4.52   1
  10   0  -4   59.55    7.72   1
  10   0  -3   24.52    4.95   1
  10   0  -2   66.44    8.15   1
  10   0   0  113.36   10.65   1
  10   0   1   40.65    6.38   1
  10   0   2   74.18    8.61   1
  10   0   3   27.11    5.21   1
  10   0   4   52.99    7.28   1
  10   0   6  312.06   17.67   1
  10   0   7   41.31    6.43   1
  10   0   8  307.88   17.55   1
  10   0   9   53.85    7.34   1
  10   0  10  105.89   10.29   1
  10   0  12   10.79    3.28   1
  10   0  14   26.84    5.18   1
  10   0  17    3.64    1.91   1
  10   0  18   22.20    4.71   1
  10   0  19    1.66    1.29   1
  10   0  20   58.50    7.65   1
  10   0  21    7.65    2.77   1
  10   2 -17   20.44    4.52   1
  10   2 -16   12.90    3.59   1
  10   2 -15   13.16    3.63   1
  10   2 -13    8.07    2.84   1
  10   2 -12   10.35    3.22   1
  10   2  -8   37.65    6.14   1
  10   2  -6   21.23    4.61   1
  10   2  -5   41.17    6.42   1
  10   2  -4   86.13    9.28   1
  10   2  -2   80.55    8.97   1
  10   2  -1   13.97    3.74   1
  10   2   0   91.69    9.58   1
  10   2   1   31.20    5.59   1
  10   2   2   59.03    7.68   1
  10   2   3   25.54    5.05   1
  10   2   4   77.63    8.81   1
  10   2   6    8.25    2.87   1
  10   2   7    8.20    2.86   1
  10   2   8   12.34    3.51   1
  10   2   9    9.20    3.03   1
  10   2  10    9.60    3.10   1
  10   2  11    3.74    1.93   1
  10   2  12    5.44    2.33   1
  10   2  13    5.21    2.28   1
  10   2  15    8.81    2.97   1
  10   2  16    6.54    2.56   1
  10   2  17   14.55    3.81   1
  10   2  18   71.20    8.44   1
  10   4 -20   11.89    3.45   1
  10   4 -18    2.20    1.48   1
  10   4 -16   19.22    4.38   1
  10   4 -14   30.40    5.51   1
  10   4 -10   19.16    4.38   1
  10   4  -7   19.42    4.41   1
  10   4  -6   17.36    4.17   1
  10   4  -5   11.32    3.37   1
  10   4  -4   33.00    5.74   1
  10   4  -3    3.04    1.74   1
  10   4  -2   33.04    5.75   1
  10   4   0   68.55    8.28   1
  10   4   1   11.70    3.42   1
  10   4   2   48.30    6.95   1
  10   4   3    3.65    1.91   1
  10   4   4   76.79    8.76   1
  10   4   8   39.71    6.30   1
  10   4   9   10.65    3.26   1
  10   4  11   24.12    4.91   1
  10   4  12   10.90    3.30   1
  10   4  13   10.27    3.21   1
  10   4  14   11.51    3.39   1
  10   4  15   16.13    4.02   1
  10   4  17   33.67    5.80   1
  10   4  18   22.05    4.70   1
  10   4  20   12.82    3.58   1
  10   4  22   19.16    4.38   1
  10   4  24    9.36    3.06   1
  10   6 -20   11.40    3.38   1
  10   6 -15    8.30    2.88   1
  10   6 -14    6.41    2.53   1
  10   6 -12   37.64    6.14   1
  10   6 -11    5.95    2.44   1
  10   6 -10    5.85    2.42   1
  10   6  -9   22.99    4.79   1
  10   6  -8  127.62   11.30   1
  10   6  -7   13.38    3.66   1
  10   6  -6  102.04   10.10   1
  10   6  -4    5.55    2.36   1
  10   6  -3    4.46    2.11   1
  10   6  -1   50.92    7.14   1
  10   6   0   67.90    8.24   1
  10   6   1   28.50    5.34   1
  10   6   2   36.67    6.06   1
  10   6   3    8.04    2.84   1
  10   6   4   18.78    4.33   1
  10   6   6   91.25    9.55   1
  10   6   7   28.77    5.36   1
  10   6   8  341.77   18.49   1
  10   6   9   24.62    4.96   1
  10   6  10   33.11    5.75   1
  10   6  11   16.58    4.07   1
  10   6  12   26.77    5.17   1
  10   6  13    7.03    2.65   1
  10   6  17    4.84    2.20   1
  10   6  18   10.62    3.26   1
  10   6  20   54.21    7.36   1
  10   6  22    3.90    1.97   1
  10   6  24    3.40    1.84   1
  10   8 -20   22.45    4.74   1
  10   8 -19    7.76    2.79   1
  10   8 -17   13.56    3.68   1
  10   8 -16    9.68    3.11   1
  10   8 -15   35.63    5.97   1
  10   8 -14   14.70    3.83   1
  10   8 -13   33.61    5.80   1
  10   8 -11    3.55    1.88   1
  10   8 -10   13.70    3.70   1
  10   8  -9   30.46    5.52   1
  10   8  -8   21.00    4.58   1
  10   8  -7   13.91    3.73   1
  10   8  -5   20.55    4.53   1
  10   8  -4    4.38    2.09   1
  10   8  -3   22.61    4.76   1
  10   8  -2   16.32    4.04   1
  10   8   0   39.22    6.26   1
  10   8   1    2.17    1.47   1
  10   8   2   26.68    5.17   1
  10   8   3   28.28    5.32   1
  10   8   5   11.55    3.40   1
  10   8   6    7.91    2.81   1
  10   8   8   25.53    5.05   1
  10   8   9   35.63    5.97   1
  10   8  10    5.25    2.29   1
  10   8  11    7.59    2.75   1
  10   8  12    7.82    2.80   1
  10   8  20    7.77    2.79   1
  10   8  24   11.25    3.35   1
  10  10 -20   19.05    4.36   1
  10  10 -18   10.09    3.18   1
  10  10 -14    3.38    1.84   1
  10  10 -12   37.83    6.15   1
  10  10 -11   57.12    7.56   1
  10  10 -10   51.53    7.18   1
  10  10  -9   44.45    6.67   1
  10  10  -8   45.88    6.77   1
  10  10  -7   25.35    5.03   1
  10  10  -6   75.00    8.66   1
  10  10  -5    6.67    2.58   1
  10  10  -4   10.62    3.26   1
  10  10  -3   12.60    3.55   1
  10  10  -2   10.26    3.20   1
  10  10  -1   19.60    4.43   1
  10  10   0  104.66   10.23   1
  10  10   1   26.73    5.17   1
  10  10   2   19.35    4.40   1
  10  10   4   12.52    3.54   1
  10  10   5    5.47    2.34   1
  10  10   6   62.85    7.93   1
  10  10   7   22.95    4.79   1
  10  10   8    2.22    1.49   1
  10  10   9   15.95    3.99   1
  10  10  10   23.14    4.81   1
  10  10  11   12.41    3.52   1
  10  10  12  107.36   10.36   1
  10  10  13   16.20    4.02   1
  10  10  14   44.63    6.68   1
  10  10  16   53.70    7.33   1
  10  10  17    7.91    2.81   1
  10  10  20   21.83    4.67   1
  10  10  21   11.70    3.42   1
  10  10  22   13.20    3.63   1
  10  10  23    6.39    2.53   1
  10  12 -22    3.46    1.86   1
  10  12 -19    6.94    2.63   1
  10  12 -18   14.90    3.86   1
  10  12 -17   13.91    3.73   1
  10  12 -15    6.07    2.46   1
  10  12 -14   25.84    5.08   1
  10  12 -12   27.30    5.22   1
  10  12 -11   12.07    3.47   1
  10  12 -10   38.53    6.21   1
  10  12  -9   11.28    3.36   1
  10  12  -8   10.66    3.26   1
  10  12  -7   33.22    5.76   1
  10  12  -6   30.52    5.52   1
  10  12  -5   16.04    4.00   1
  10  12  -4   15.60    3.95   1
  10  12  -3   31.95    5.65   1
  10  12  -2  167.54   12.94   1
  10  12  -1   19.73    4.44   1
  10  12   0  141.71   11.90   1
  10  12   1   40.05    6.33   1
  10  12   2   63.60    7.97   1
  10  12   3    7.35    2.71   1
  10  12   4   76.28    8.73   1
  10  12   5    4.84    2.20   1
  10  12   7   18.71    4.33   1
  10  12   9    9.61    3.10   1
  10  12  10   54.26    7.37   1
  10  12  14   16.76    4.09   1
  10  12  15    7.55    2.75   1
  10  12  17   25.65    5.06   1
  10  12  18    1.73    1.31   1
  10  12  19    5.07    2.25   1
  10  12  23    5.63    2.37   1
  10  12  24   18.98    4.36   1
  10  14 -21   15.52    3.94   1
  10  14 -20   11.63    3.41   1
  10  14 -17    5.18    2.27   1
  10  14 -16   35.20    5.93   1
  10  14 -15   23.25    4.82   1
  10  14 -12    3.30    1.82   1
  10  14 -11   18.75    4.33   1
  10  14 -10   27.31    5.23   1
  10  14  -9   12.47    3.53   1
  10  14  -8   25.50    5.05   1
  10  14  -6   21.38    4.62   1
  10  14  -5   13.61    3.69   1
  10  14  -2   31.10    5.58   1
  10  14  -1    4.99    2.23   1
  10  14   0   61.95    7.87   1
  10  14   1   24.56    4.96   1
  10  14   3   31.80    5.64   1
  10  14   4   19.65    4.43   1
  10  14   5   13.57    3.68   1
  10  14   6   40.25    6.34   1
  10  14   8   10.13    3.18   1
  10  14   9    6.12    2.47   1
  10  14  10   97.35    9.87   1
  10  14  11    3.03    1.74   1
  10  14  12    2.14    1.46   1
  10  14  14   26.25    5.12   1
  10  14  16    3.87    1.97   1
  10  14  19   10.76    3.28   1
  10  14  21   16.73    4.09   1
  10  14  23    3.33    1.83   1
  10  16 -21    7.80    2.79   1
  10  16 -20   11.06    3.33   1
  10  16 -18    5.78    2.40   1
  10  16 -16    5.55    2.36   1
  10  16 -14   10.00    3.16   1
  10  16 -13   15.82    3.98   1
  10  16 -11   23.33    4.83   1
  10  16 -10   14.02    3.74   1
  10  16  -9   72.19    8.50   1
  10  16  -8   60.34    7.77   1
  10  16  -7  102.60   10.13   1
  10  16  -6   13.98    3.74   1
  10  16  -4   18.08    4.25   1
  10  16  -3   64.10    8.01   1
  10  16  -2   34.50    5.87   1
  10  16  -1    1.84    1.36   1
  10  16   0   22.54    4.75   1
  10  16   1   10.64    3.26   1
  10  16   2   20.51    4.53   1
  10  16   3   27.67    5.26   1
  10  16   4   44.03    6.64   1
  10  16   5    9.68    3.11   1
  10  16   6    5.38    2.32   1
  10  16   7   28.90    5.38   1
  10  16   8  217.60   14.75   1
  10  16   9   36.19    6.02   1
  10  16  10  120.25   10.97   1
  10  16  13   10.44    3.23   1
  10  16  14   23.48    4.85   1
  10  16  20    6.26    2.50   1
  10  16  24   11.41    3.38   1
  10  18 -23    5.51    2.35   1
  10  18 -22   13.40    3.66   1
  10  18 -19    7.43    2.72   1
  10  18 -17    6.22    2.49   1
  10  18 -14    8.08    2.84   1
  10  18 -13   10.36    3.22   1
  10  18 -10   42.15    6.49   1
  10  18  -9   77.44    8.80   1
  10  18  -8   12.30    3.51   1
  10  18  -7   28.73    5.36   1
  10  18  -6   12.30    3.51   1
  10  18  -5    4.21    2.05   1
  10  18  -4    4.23    2.06   1
  10  18  -3   13.88    3.72   1
  10  18  -1   24.94    4.99   1
  10  18   1   13.00    3.61   1
  10  18   3    2.63    1.62   1
  10  18   4   15.23    3.90   1
  10  18   5    9.93    3.15   1
  10  18   6   17.40    4.17   1
  10  18   8   54.56    7.39   1
  10  18   9   14.32    3.78   1
  10  18  10  132.56   11.51   1
  10  18  11    6.19    2.49   1
  10  18  12   25.31    5.03   1
  10  18  14   23.26    4.82   1
  10  18  16   14.21    3.77   1
  10  18  18   18.84    4.34   1
  10  18  19   14.93    3.86   1
  10  18  20   17.89    4.23   1
  10  18  21    8.21    2.87   1
  10  18  22   11.96    3.46   1
  10  18  23    1.71    1.31   1
  10  18  24   12.70    3.56   1
  10  20 -23    3.53    1.88   1
  10  20 -21   12.49    3.53   1
  10  20 -19    6.27    2.50   1
  10  20 -18    2.10    1.45   1
  10  20 -17    5.63    2.37   1
  10  20 -16    7.80    2.79   1
  10  20 -15   17.92    4.23   1
  10  20 -14    1.72    1.31   1
  10  20 -13   13.31    3.65   1
  10  20 -11   11.77    3.43   1
  10  20 -10   12.09    3.48   1
  10  20  -9    7.95    2.82   1
  10  20  -8   11.39    3.38   1
  10  20  -7   20.25    4.50   1
  10  20  -4    7.24    2.69   1
  10  20  -3   17.47    4.18   1
  10  20  -1    5.90    2.43   1
  10  20   0    5.55    2.36   1
  10  20   1   96.03    9.80   1
  10  20   2   11.35    3.37   1
  10  20   3    5.18    2.27   1
  10  20   4   11.74    3.43   1
  10  20   5    2.93    1.71   1
  10  20   6    3.45    1.86   1
  10  20   7    6.60    2.57   1
  10  20   8   14.55    3.81   1
  10  20   9   11.85    3.44   1
  10  20  10   23.25    4.82   1
  10  20  12    7.43    2.72   1
  10  20  13    3.90    1.97   1
  10  20  14   15.52    3.94   1
  10  20  15    6.25    2.50   1
  10  20  19   12.75    3.57   1
  10  20  21    7.65    2.77   1
  10  20  24    4.39    2.09   1
  10  22 -22    2.47    1.57   1
  10  22 -21    1.83    1.35   1
  10  22 -19    6.81    2.61   1
  10  22 -16    9.85    3.14   1
  10  22 -11   10.69    3.27   1
  10  22  -8   12.83    3.58   1
  10  22  -7    6.49    2.55   1
  10  22  -6    4.16    2.04   1
  10  22  -5   13.31    3.65   1
  10  22  -4    6.42    2.53   1
  10  22  -2    8.02    2.83   1
  10  22  -1    6.41    2.53   1
  10  22   1   27.01    5.20   1
  10  22   2    3.60    1.90   1
  10  22   3   29.85    5.46   1
  10  22   4   15.06    3.88   1
  10  22   5   16.88    4.11   1
  10  22   8    9.74    3.12   1
  10  22  10    8.66    2.94   1
  10  22  11    7.39    2.72   1
  10  22  13   14.48    3.81   1
  10  22  14    6.30    2.51   1
  10  22  15    9.60    3.10   1
  10  22  17    3.31    1.82   1
  10  22  19   23.25    4.82   1
  10  22  22    3.22    1.80   1
  10  24 -20    4.68    2.16   1
  10  24 -13    5.10    2.26   1
  10  24 -11    8.96    2.99   1
  10  24 -10   13.27    3.64   1
  10  24  -9   11.62    3.41   1
  10  24  -7   31.27    5.59   1
  10  24  -6    2.78    1.67   1
  10  24  -5   17.45    4.18   1
  10  24  -3   16.63    4.08   1
  10  24  -1   19.27    4.39   1
  10  24   0    2.25    1.50   1
  10  24   1   18.70    4.32   1
  10  24   2   13.54    3.68   1
  10  24   4   13.61    3.69   1
  10  24   5   12.20    3.49   1
  10  24   6    7.76    2.79   1
  10  24   7   12.79    3.58   1
  10  24   8   16.70    4.09   1
  10  24   9   16.42    4.05   1
  10  24  10   16.27    4.03   1
  10  24  18    1.86    1.36   1
  11 -23 -12    5.13    2.27   1
  11 -23 -11   16.30    4.04   1
  11 -23 -10   10.61    3.26   1
  11 -23  -9   15.90    3.99   1
  11 -23  -8   12.03    3.47   1
  11 -23  -7   14.46    3.80   1
  11 -23  -6   11.82    3.44   1
  11 -23  -5    5.78    2.40   1
  11 -23  -4    7.09    2.66   1
  11 -23  -3   13.05    3.61   1
  11 -23  -2    7.61    2.76   1
  11 -23   1    4.28    2.07   1
  11 -23   2   12.93    3.60   1
  11 -23   3    6.86    2.62   1
  11 -23   4    7.49    2.74   1
  11 -23   6   10.58    3.25   1
  11 -23   7   14.99    3.87   1
  11 -23   8    7.72    2.78   1
  11 -23  10    6.37    2.52   1
  11 -23  11    2.10    1.45   1
  11 -23  13    3.83    1.96   1
  11 -23  17    2.86    1.69   1
  11 -23  18    3.74    1.93   1
  11 -21 -14   17.57    4.19   1
  11 -21 -11   10.85    3.29   1
  11 -21  -9    7.80    2.79   1
  11 -21  -8    5.16    2.27   1
  11 -21  -7   10.31    3.21   1
  11 -21  -3    9.98    3.16   1
  11 -21  -2    5.01    2.24   1
  11 -21  -1   14.82    3.85   1
  11 -21   1    5.89    2.43   1
  11 -21   2   15.87    3.98   1
  11 -21   3   15.93    3.99   1
  11 -21   4   13.05    3.61   1
  11 -21   5   12.10    3.48   1
  11 -21   6    4.28    2.07   1
  11 -21   7    5.23    2.29   1
  11 -21   9   12.43    3.53   1
  11 -21  10   22.50    4.74   1
  11 -21  12    5.32    2.31   1
  11 -21  14    1.79    1.34   1
  11 -21  15    7.61    2.76   1
  11 -21  16    6.49    2.55   1
  11 -19 -14    1.55    1.25   1
  11 -19 -13   23.55    4.85   1
  11 -19 -11   10.76    3.28   1
  11 -19 -10    3.41    1.85   1
  11 -19  -9    2.45    1.56   1
  11 -19  -8    3.29    1.81   1
  11 -19  -7    8.52    2.92   1
  11 -19  -6    8.51    2.92   1
  11 -19  -4    4.43    2.10   1
  11 -19  -3    9.60    3.10   1
  11 -19  -2   16.58    4.07   1
  11 -19  -1    6.68    2.58   1
  11 -19   0   25.05    5.00   1
  11 -19   1   25.27    5.03   1
  11 -19   2   21.08    4.59   1
  11 -19   3   11.06    3.33   1
  11 -19   4    6.38    2.53   1
  11 -19   5   15.74    3.97   1
  11 -19   7    9.34    3.06   1
  11 -19  10    3.86    1.97   1
  11 -19  11    8.22    2.87   1
  11 -19  17    7.46    2.73   1
  11 -19  20    7.20    2.68   1
  11 -17 -11   12.44    3.53   1
  11 -17  -9   30.45    5.52   1
  11 -17  -8   12.82    3.58   1
  11 -17  -4   22.09    4.70   1
  11 -17  -3   11.48    3.39   1
  11 -17  -2   19.85    4.46   1
  11 -17   0    7.76    2.79   1
  11 -17   1    5.35    2.31   1
  11 -17   2    2.80    1.67   1
  11 -17   3   20.48    4.52   1
  11 -17   7   76.75    8.76   1
  11 -17   8   11.29    3.36   1
  11 -17   9    9.71    3.12   1
  11 -17  11    6.58    2.57   1
  11 -17  12    5.20    2.28   1
  11 -17  13    2.31    1.52   1
  11 -17  17   19.13    4.37   1
  11 -17  18   22.91    4.79   1
  11 -17  20    7.26    2.69   1
  11 -15 -13   19.26    4.39   1
  11 -15 -12   10.05    3.17   1
  11 -15 -11    3.35    1.83   1
  11 -15  -9   24.00    4.90   1
  11 -15  -7   10.52    3.24   1
  11 -15  -6   28.34    5.32   1
  11 -15  -5   34.20    5.85   1
  11 -15  -4   38.61    6.21   1
  11 -15  -3   18.30    4.28   1
  11 -15  -1   10.05    3.17   1
  11 -15   1   13.73    3.71   1
  11 -15   2    2.92    1.71   1
  11 -15   3   11.39    3.37   1
  11 -15   4   21.03    4.59   1
  11 -15   5   25.13    5.01   1
  11 -15   6    8.74    2.96   1
  11 -15   7    7.48    2.73   1
  11 -15  12   11.40    3.38   1
  11 -15  13   23.02    4.80   1
  11 -15  14   16.01    4.00   1
  11 -15  16   12.05    3.47   1
  11 -15  17    8.40    2.90   1
  11 -15  18    2.59    1.61   1
  11 -15  20   25.27    5.03   1
  11 -13 -17    3.53    1.88   1
  11 -13 -15    3.43    1.85   1
  11 -13 -14   10.65    3.26   1
  11 -13  -9    2.63    1.62   1
  11 -13  -7   13.80    3.71   1
  11 -13  -6   43.28    6.58   1
  11 -13  -5   31.38    5.60   1
  11 -13  -4   15.15    3.89   1
  11 -13   2   34.72    5.89   1
  11 -13   3    6.30    2.51   1
  11 -13   4    6.22    2.49   1
  11 -13   7   16.58    4.07   1
  11 -13   9   13.74    3.71   1
  11 -13  15    6.40    2.53   1
  11 -13  17   10.46    3.23   1
  11 -13  19    6.04    2.46   1
  11 -13  20    4.61    2.15   1
  11 -11 -17   15.30    3.91   1
  11 -11 -13   15.62    3.95   1
  11 -11 -12    6.22    2.49   1
  11 -11 -10   10.50    3.24   1
  11 -11  -9   17.02    4.13   1
  11 -11  -8   23.86    4.88   1
  11 -11  -6   24.03    4.90   1
  11 -11  -5    1.75    1.32   1
  11 -11  -4   18.93    4.35   1
  11 -11  -2   13.38    3.66   1
  11 -11  -1   10.75    3.28   1
  11 -11   1   23.73    4.87   1
  11 -11   2   34.99    5.92   1
  11 -11   3   27.27    5.22   1
  11 -11   4   72.90    8.54   1
  11 -11   6  107.32   10.36   1
  11 -11   8   17.07    4.13   1
  11 -11  10   25.16    5.02   1
  11 -11  11    5.78    2.40   1
  11 -11  12   10.24    3.20   1
  11 -11  13   11.02    3.32   1
  11 -11  14    4.06    2.01   1
  11 -11  15   13.05    3.61   1
  11 -11  17   10.54    3.25   1
  11 -11  18   11.02    3.32   1
  11  -9 -17   24.83    4.98   1
  11  -9 -13   32.25    5.68   1
  11  -9  -7   30.83    5.55   1
  11  -9  -6   29.88    5.47   1
  11  -9  -5   53.40    7.31   1
  11  -9  -4   60.13    7.75   1
  11  -9  -3   89.51    9.46   1
  11  -9  -2    7.97    2.82   1
  11  -9  -1   47.17    6.87   1
  11  -9   0   29.02    5.39   1
  11  -9   1   24.76    4.98   1
  11  -9   2   35.05    5.92   1
  11  -9   3   13.35    3.65   1
  11  -9   4   70.79    8.41   1
  11  -9   5   81.30    9.02   1
  11  -9   7   13.27    3.64   1
  11  -9  10   27.23    5.22   1
  11  -9  11   20.25    4.50   1
  11  -9  13    3.26    1.81   1
  11  -9  16   10.43    3.23   1
  11  -9  17   32.49    5.70   1
  11  -9  18    4.35    2.09   1
  11  -9  19   22.65    4.76   1
  11  -9  20   14.93    3.86   1
  11  -9  22   18.60    4.31   1
  11  -7 -18   17.60    4.20   1
  11  -7 -17   14.93    3.86   1
  11  -7 -12    3.83    1.96   1
  11  -7  -9    7.95    2.82   1
  11  -7  -8   17.43    4.18   1
  11  -7  -6    4.57    2.14   1
  11  -7  -4   38.77    6.23   1
  11  -7  -3    8.06    2.84   1
  11  -7  -2   41.96    6.48   1
  11  -7  -1   24.98    5.00   1
  11  -7   0   12.94    3.60   1
  11  -7   1    8.29    2.88   1
  11  -7   2   43.64    6.61   1
  11  -7   3   27.49    5.24   1
  11  -7   4   35.78    5.98   1
  11  -7   5    8.81    2.97   1
  11  -7   6   34.58    5.88   1
  11  -7   7   24.02    4.90   1
  11  -7   8   11.22    3.35   1
  11  -7   9   22.08    4.70   1
  11  -7  10   32.21    5.68   1
  11  -7  11    6.14    2.48   1
  11  -7  13    1.60    1.26   1
  11  -7  14   11.66    3.42   1
  11  -7  17   16.41    4.05   1
  11  -7  20    8.45    2.91   1
  11  -7  23    3.65    1.91   1
  11  -5 -19   39.60    6.29   1
  11  -5 -18   25.41    5.04   1
  11  -5 -15    6.15    2.48   1
  11  -5 -14    4.50    2.12   1
  11  -5 -12   23.45    4.84   1
  11  -5 -11   30.86    5.56   1
  11  -5 -10   18.35    4.28   1
  11  -5  -9    2.92    1.71   1
  11  -5  -7   29.21    5.40   1
  11  -5  -6   26.77    5.17   1
  11  -5  -5   26.94    5.19   1
  11  -5  -4   13.42    3.66   1
  11  -5  -3   31.98    5.66   1
  11  -5  -2   38.63    6.21   1
  11  -5  -1   15.10    3.89   1
  11  -5   1   18.71    4.33   1
  11  -5   2   48.08    6.93   1
  11  -5   3   42.11    6.49   1
  11  -5   4   45.33    6.73   1
  11  -5   5   14.14    3.76   1
  11  -5   6   15.71    3.96   1
  11  -5   7   30.25    5.50   1
  11  -5   8   14.05    3.75   1
  11  -5   9   26.70    5.17   1
  11  -5  10   11.02    3.32   1
  11  -5  11   20.41    4.52   1
  11  -5  12   84.22    9.18   1
  11  -5  14   32.10    5.67   1
  11  -5  16   16.50    4.06   1
  11  -5  17    5.72    2.39   1
  11  -5  21   19.83    4.45   1
  11  -3 -18   23.55    4.85   1
  11  -3 -12   11.93    3.45   1
  11  -3 -11   37.65    6.14   1
  11  -3  -9   17.17    4.14   1
  11  -3  -8    3.11    1.76   1
  11  -3  -7   30.62    5.53   1
  11  -3  -6   47.10    6.86   1
  11  -3  -5   58.72    7.66   1
  11  -3  -4  278.52   16.69   1
  11  -3  -3   97.57    9.88   1
  11  -3  -2   26.73    5.17   1
  11  -3  -1   38.13    6.17   1
  11  -3   0   23.79    4.88   1
  11  -3   1   39.17    6.26   1
  11  -3   2   40.33    6.35   1
  11  -3   3  100.21   10.01   1
  11  -3   4  220.05   14.83   1
  11  -3   5  131.85   11.48   1
  11  -3   6   28.09    5.30   1
  11  -3   7   18.03    4.25   1
  11  -3  10   11.18    3.34   1
  11  -3  11    8.18    2.86   1
  11  -3  12  152.61   12.35   1
  11  -3  13   25.35    5.04   1
  11  -3  14    9.68    3.11   1
  11  -3  15   12.52    3.54   1
  11  -3  16    6.92    2.63   1
  11  -3  19   25.71    5.07   1
  11  -3  20   12.45    3.53   1
  11  -3  21    1.65    1.29   1
  11  -3  22   11.12    3.34   1
  11  -1 -20    6.34    2.52   1
  11  -1 -19   14.74    3.84   1
  11  -1 -16   13.73    3.70   1
  11  -1 -14   23.85    4.88   1
  11  -1 -13   14.02    3.74   1
  11  -1 -12    7.90    2.81   1
  11  -1 -10   10.73    3.27   1
  11  -1  -9   26.92    5.19   1
  11  -1  -8   34.92    5.91   1
  11  -1  -7   53.40    7.31   1
  11  -1  -6   24.49    4.95   1
  11  -1  -5   22.47    4.74   1
  11  -1  -3   31.94    5.65   1
  11  -1  -2   24.52    4.95   1
  11  -1  -1   15.25    3.91   1
  11  -1   1    9.56    3.09   1
  11  -1   2   30.30    5.50   1
  11  -1   4    4.16    2.04   1
  11  -1   5   41.70    6.46   1
  11  -1   6   33.59    5.80   1
  11  -1   7   65.25    8.08   1
  11  -1   8  100.39   10.02   1
  11  -1   9   34.17    5.85   1
  11  -1  10    6.77    2.60   1
  11  -1  11    5.47    2.34   1
  11  -1  12    2.85    1.69   1
  11  -1  13   14.85    3.85   1
  11  -1  14   11.40    3.38   1
  11  -1  16    2.92    1.71   1
  11  -1  18   28.50    5.34   1
  11  -1  19   18.14    4.26   1
  11  -1  21   18.55    4.31   1
  11  -1  22   16.02    4.00   1
  11   1 -20   15.52    3.94   1
  11   1 -18   17.51    4.18   1
  11   1 -17   23.21    4.82   1
  11   1 -14   17.77    4.22   1
  11   1 -13    8.94    2.99   1
  11   1 -12   25.65    5.06   1
  11   1 -11    4.36    2.09   1
  11   1  -9   10.62    3.26   1
  11   1  -8   36.64    6.05   1
  11   1  -7   21.48    4.63   1
  11   1  -6   29.21    5.40   1
  11   1  -5   20.02    4.47   1
  11   1  -4   20.70    4.55   1
  11   1  -3   41.92    6.47   1
  11   1  -2   16.00    4.00   1
  11   1   2    5.55    2.36   1
  11   1   3   10.35    3.22   1
  11   1   4   54.94    7.41   1
  11   1   5   16.73    4.09   1
  11   1   8   76.95    8.77   1
  11   1   9   14.60    3.82   1
  11   1  10   11.74    3.43   1
  11   1  11   10.98    3.31   1
  11   1  12   18.64    4.32   1
  11   1  13   14.28    3.78   1
  11   1  15    2.70    1.64   1
  11   1  18   15.52    3.94   1
  11   1  20   10.13    3.18   1
  11   1  21   11.81    3.44   1
  11   1  23   14.36    3.79   1
  11   3 -19   10.54    3.25   1
  11   3 -17   15.32    3.91   1
  11   3 -16    2.33    1.53   1
  11   3 -15   18.36    4.28   1
  11   3 -12   37.42    6.12   1
  11   3 -11   13.54    3.68   1
  11   3 -10   15.23    3.90   1
  11   3  -9    4.54    2.13   1
  11   3  -7    9.71    3.12   1
  11   3  -6   38.17    6.18   1
  11   3  -5   92.78    9.63   1
  11   3  -4  331.02   18.19   1
  11   3  -3  127.80   11.30   1
  11   3  -2   17.14    4.14   1
  11   3   0   29.25    5.41   1
  11   3   1   55.50    7.45   1
  11   3   2   12.71    3.57   1
  11   3   3  139.13   11.80   1
  11   3   4  392.19   19.80   1
  11   3   5   71.40    8.45   1
  11   3   6   62.31    7.89   1
  11   3  10   15.48    3.93   1
  11   3  11   33.90    5.82   1
  11   3  13   41.28    6.42   1
  11   3  14   94.92    9.74   1
  11   3  19   12.20    3.49   1
  11   3  24    6.68    2.58   1
  11   5 -21   27.83    5.27   1
  11   5 -19    1.73    1.31   1
  11   5 -18   14.02    3.74   1
  11   5 -15    3.38    1.84   1
  11   5 -13    3.81    1.95   1
  11   5 -12    3.42    1.85   1
  11   5 -11   17.85    4.22   1
  11   5 -10    5.55    2.36   1
  11   5  -9   39.30    6.27   1
  11   5  -8    6.18    2.48   1
  11   5  -7   20.77    4.56   1
  11   5  -6   55.36    7.44   1
  11   5  -5   25.22    5.02   1
  11   5  -4   51.45    7.17   1
  11   5  -3   18.75    4.33   1
  11   5  -2   23.17    4.81   1
  11   5  -1   44.06    6.64   1
  11   5   0   24.75    4.97   1
  11   5   2    8.89    2.98   1
  11   5   3   58.62    7.66   1
  11   5   4   27.83    5.27   1
  11   5   5   12.30    3.51   1
  11   5   6   48.04    6.93   1
  11   5   7   54.46    7.38   1
  11   5   9   27.15    5.21   1
  11   5  10   28.87    5.37   1
  11   5  11   11.55    3.40   1
  11   5  12   77.75    8.82   1
  11   5  13   14.21    3.77   1
  11   5  14   20.88    4.57   1
  11   5  15    3.56    1.89   1
  11   5  16   20.25    4.50   1
  11   5  21    5.02    2.24   1
  11   5  24   12.11    3.48   1
  11   7 -22   19.35    4.40   1
  11   7 -21    4.05    2.01   1
  11   7 -20    7.88    2.81   1
  11   7 -15   17.14    4.14   1
  11   7 -14    4.39    2.09   1
  11   7 -13   17.07    4.13   1
  11   7 -11    2.31    1.52   1
  11   7 -10   30.42    5.52   1
  11   7  -9   22.90    4.79   1
  11   7  -8   15.60    3.95   1
  11   7  -6    8.50    2.92   1
  11   7  -5   10.91    3.30   1
  11   7  -4    5.32    2.31   1
  11   7  -2   15.26    3.91   1
  11   7  -1   27.01    5.20   1
  11   7   0   19.50    4.42   1
  11   7   1    7.05    2.66   1
  11   7   2    9.04    3.01   1
  11   7   3   12.68    3.56   1
  11   7   4   18.08    4.25   1
  11   7   5   21.98    4.69   1
  11   7   6    7.79    2.79   1
  11   7   7    5.67    2.38   1
  11   7   8    9.07    3.01   1
  11   7  10   32.03    5.66   1
  11   7  11   13.35    3.65   1
  11   7  12    6.13    2.48   1
  11   7  14    2.06    1.43   1
  11   7  18    9.92    3.15   1
  11   7  23   17.10    4.14   1
  11   9 -22   10.05    3.17   1
  11   9 -20   26.33    5.13   1
  11   9 -19   17.36    4.17   1
  11   9 -13   18.26    4.27   1
  11   9 -12   20.46    4.52   1
  11   9 -11   14.29    3.78   1
  11   9 -10   30.45    5.52   1
  11   9  -9   18.56    4.31   1
  11   9  -8   10.69    3.27   1
  11   9  -7    8.30    2.88   1
  11   9  -6    1.65    1.28   1
  11   9  -5   37.41    6.12   1
  11   9  -4  143.05   11.96   1
  11   9  -3   47.89    6.92   1
  11   9  -1   13.76    3.71   1
  11   9   0   23.44    4.84   1
  11   9   1   12.84    3.58   1
  11   9   2   13.12    3.62   1
  11   9   3   35.29    5.94   1
  11   9   4  189.90   13.78   1
  11   9   5   61.88    7.87   1
  11   9   6   50.17    7.08   1
  11   9   8   12.16    3.49   1
  11   9   9   13.09    3.62   1
  11   9  10   39.70    6.30   1
  11   9  11   28.54    5.34   1
  11   9  12   86.40    9.30   1
  11   9  13   27.67    5.26   1
  11   9  14   84.15    9.17   1
  11   9  17    3.30    1.82   1
  11   9  19    9.45    3.07   1
  11   9  20   13.01    3.61   1
  11   9  22    5.37    2.32   1
  11   9  23    1.92    1.39   1
  11  11 -23   23.89    4.89   1
  11  11 -21   21.15    4.60   1
  11  11 -20   13.78    3.71   1
  11  11 -18    3.45    1.86   1
  11  11 -13    6.82    2.61   1
  11  11 -11   23.68    4.87   1
  11  11 -10   46.76    6.84   1
  11  11  -9   29.92    5.47   1
  11  11  -8   11.52    3.39   1
  11  11  -7   19.96    4.47   1
  11  11  -6   31.36    5.60   1
  11  11  -5   26.77    5.17   1
  11  11  -4   15.27    3.91   1
  11  11  -3   24.81    4.98   1
  11  11  -1    8.85    2.97   1
  11  11   1    5.08    2.25   1
  11  11   2   13.36    3.65   1
  11  11   3   17.02    4.13   1
  11  11   4   10.36    3.22   1
  11  11   5   13.99    3.74   1
  11  11   6   33.90    5.82   1
  11  11   9    9.03    3.00   1
  11  11  10   58.35    7.64   1
  11  11  11   24.75    4.97   1
  11  11  12    5.38    2.32   1
  11  11  13    8.93    2.99   1
  11  11  18   14.48    3.80   1
  11  11  20    8.70    2.95   1
  11  11  24    1.58    1.25   1
  11  13 -22   10.61    3.26   1
  11  13 -16   24.94    4.99   1
  11  13 -11   13.24    3.64   1
  11  13  -8   26.83    5.18   1
  11  13  -7   25.13    5.01   1
  11  13  -6   24.90    4.99   1
  11  13  -5    6.60    2.57   1
  11  13  -3    5.36    2.32   1
  11  13  -2    9.86    3.14   1
  11  13   2   23.33    4.83   1
  11  13   3    5.73    2.39   1
  11  13   5    3.71    1.93   1
  11  13   6   52.39    7.24   1
  11  13   7   38.16    6.18   1
  11  13   8   39.90    6.32   1
  11  13  10    4.69    2.17   1
  11  13  11   24.38    4.94   1
  11  13  12   23.20    4.82   1
  11  13  17    6.82    2.61   1
  11  13  20   19.08    4.37   1
  11  13  22    3.04    1.74   1
  11  13  23    8.63    2.94   1
  11  13  24    3.27    1.81   1
  11  15 -24    3.26    1.81   1
  11  15 -19    8.10    2.85   1
  11  15 -18   19.42    4.41   1
  11  15 -16   14.46    3.80   1
  11  15 -14   16.80    4.10   1
  11  15 -13    4.57    2.14   1
  11  15 -10    8.40    2.90   1
  11  15  -8    9.04    3.01   1
  11  15  -7   15.23    3.90   1
  11  15  -6   15.75    3.97   1
  11  15  -5    5.25    2.29   1
  11  15  -4   43.50    6.60   1
  11  15  -3   28.23    5.31   1
  11  15  -1    5.47    2.34   1
  11  15   0   12.23    3.50   1
  11  15   1    5.55    2.36   1
  11  15   2   19.54    4.42   1
  11  15   4   55.42    7.44   1
  11  15   5   26.95    5.19   1
  11  15   8   46.17    6.80   1
  11  15  10    4.07    2.02   1
  11  15  12   27.67    5.26   1
  11  15  13   12.68    3.56   1
  11  15  14   12.30    3.51   1
  11  15  15    9.33    3.05   1
  11  15  16    6.97    2.64   1
  11  17 -24    4.32    2.08   1
  11  17 -23    6.85    2.62   1
  11  17 -19    6.94    2.63   1
  11  17 -18   23.19    4.82   1
  11  17 -15   17.55    4.19   1
  11  17 -13    1.61    1.27   1
  11  17 -11   13.15    3.63   1
  11  17  -9   19.65    4.43   1
  11  17  -8   10.84    3.29   1
  11  17  -7   16.13    4.02   1
  11  17  -6    7.80    2.79   1
  11  17  -5   16.05    4.01   1
  11  17  -3    8.56    2.93   1
  11  17  -1   19.65    4.43   1
  11  17   0   20.04    4.48   1
  11  17   2    3.90    1.97   1
  11  17   3   24.01    4.90   1
  11  17   4   12.04    3.47   1
  11  17   5    8.28    2.88   1
  11  17   7    8.25    2.87   1
  11  17   8    6.20    2.49   1
  11  17   9   19.44    4.41   1
  11  17  10    8.96    2.99   1
  11  17  11   17.33    4.16   1
  11  17  12   15.49    3.94   1
  11  17  15    8.40    2.90   1
  11  17  18    6.75    2.60   1
  11  17  22    7.05    2.66   1
  11  17  23    9.45    3.07   1
  11  19 -24   15.00    3.87   1
  11  19 -23    6.26    2.50   1
  11  19 -21   12.15    3.49   1
  11  19 -17   11.63    3.41   1
  11  19 -16   10.97    3.31   1
  11  19 -15   10.13    3.18   1
  11  19 -14    9.80    3.13   1
  11  19  -8   31.83    5.64   1
  11  19  -6    7.97    2.82   1
  11  19  -5   33.26    5.77   1
  11  19  -3   17.74    4.21   1
  11  19  -1    7.53    2.74   1
  11  19   0   13.35    3.65   1
  11  19   2   30.83    5.55   1
  11  19   5    9.26    3.04   1
  11  19   6    9.60    3.10   1
  11  19   7    2.63    1.62   1
  11  19   8    6.15    2.48   1
  11  19  10   23.66    4.86   1
  11  19  13    7.46    2.73   1
  11  19  16   17.25    4.15   1
  11  19  17   14.77    3.84   1
  11  19  19   14.18    3.76   1
  11  19  20    3.45    1.86   1
  11  19  22   10.69    3.27   1
  11  19  23    9.98    3.16   1
  11  19  24    7.49    2.74   1
  11  21 -23    3.45    1.86   1
  11  21 -22    7.84    2.80   1
  11  21 -21    7.26    2.69   1
  11  21 -20   13.15    3.63   1
  11  21 -19    1.80    1.34   1
  11  21 -16    3.75    1.94   1
  11  21 -11   16.13    4.02   1
  11  21 -10    2.95    1.72   1
  11  21  -9    8.58    2.93   1
  11  21  -7   12.11    3.48   1
  11  21  -6    5.43    2.33   1
  11  21  -5   20.22    4.50   1
  11  21  -4   16.16    4.02   1
  11  21  -3   15.43    3.93   1
  11  21  -1    7.91    2.81   1
  11  21   1   13.65    3.69   1
  11  21   3    7.20    2.68   1
  11  21   6    5.10    2.26   1
  11  21   8   10.05    3.17   1
  11  21   9   19.50    4.42   1
  11  21  10    5.72    2.39   1
  11  21  11    9.82    3.13   1
  11  21  13    7.75    2.78   1
  11  21  14   12.63    3.55   1
  11  21  15   11.85    3.44   1
  11  21  23    9.00    3.00   1
  11  23 -21    1.59    1.26   1
  11  23 -20    5.89    2.43   1
  11  23 -16    2.23    1.49   1
  11  23 -14   10.50    3.24   1
  11  23 -13    5.33    2.31   1
  11  23 -12    2.92    1.71   1
  11  23 -11   13.85    3.72   1
  11  23  -9   10.99    3.31   1
  11  23  -8    7.63    2.76   1
  11  23  -7   13.40    3.66   1
  11  23  -6   16.91    4.11   1
  11  23  -5   16.01    4.00   1
  11  23  -4    6.22    2.49   1
  11  23  -1   11.47    3.39   1
  11  23   0   13.47    3.67   1
  11  23   1    4.66    2.16   1
  11  23   3   14.97    3.87   1
  11  23   4   19.95    4.47   1
  11  23   5    3.92    1.98   1
  11  23   6    5.40    2.32   1
  11  23   8    9.23    3.04   1
  11  23  10    7.57    2.75   1
  11  23  14    8.93    2.99   1
  11  23  16   10.20    3.19   1
  12 -24 -15    4.23    2.06   1
  12 -24 -12    6.32    2.51   1
  12 -24 -10   18.30    4.28   1
  12 -24  -9   16.05    4.01   1
  12 -24  -7    5.10    2.26   1
  12 -24  -6   18.67    4.32   1
  12 -24  -5    6.30    2.51   1
  12 -24  -4    7.13    2.67   1
  12 -24  -3    5.39    2.32   1
  12 -24  -1    3.34    1.83   1
  12 -24   2   24.30    4.93   1
  12 -24   3   13.91    3.73   1
  12 -24   4    4.05    2.01   1
  12 -24   5   14.48    3.80   1
  12 -24   6    3.08    1.75   1
  12 -24  11   11.10    3.33   1
  12 -24  12    6.78    2.60   1
  12 -24  14    7.16    2.68   1
  12 -24  16   17.26    4.15   1
  12 -22 -15   13.31    3.65   1
  12 -22 -12   20.17    4.49   1
  12 -22 -11    5.93    2.44   1
  12 -22  -8    2.33    1.52   1
  12 -22  -6    6.60    2.57   1
  12 -22  -4    3.31    1.82   1
  12 -22  -2   10.43    3.23   1
  12 -22  -1   15.94    3.99   1
  12 -22   0    7.92    2.81   1
  12 -22   1    4.43    2.10   1
  12 -22   2   11.45    3.38   1
  12 -22   3    2.44    1.56   1
  12 -22   5   14.13    3.76   1
  12 -22   6    6.89    2.63   1
  12 -22   7   20.37    4.51   1
  12 -22   9   11.40    3.38   1
  12 -22  15   13.43    3.66   1
  12 -22  18   28.73    5.36   1
  12 -22  19    9.68    3.11   1
  12 -20 -16    8.70    2.95   1
  12 -20 -15    2.05    1.43   1
  12 -20 -14   20.70    4.55   1
  12 -20 -13   12.52    3.54   1
  12 -20 -12    1.73    1.31   1
  12 -20  -8    6.64    2.58   1
  12 -20  -7    7.13    2.67   1
  12 -20  -5    8.41    2.90   1
  12 -20  -4   14.59    3.82   1
  12 -20  -2   11.10    3.33   1
  12 -20   0   13.73    3.70   1
  12 -20   1    3.83    1.96   1
  12 -20   3   21.90    4.68   1
  12 -20   4    2.03    1.42   1
  12 -20   6   11.48    3.39   1
  12 -20   7    6.33    2.52   1
  12 -20   9    6.94    2.63   1
  12 -20  11   11.59    3.40   1
  12 -20  12    8.02    2.83   1
  12 -20  13   10.32    3.21   1
  12 -20  14   11.25    3.35   1
  12 -20  15    9.97    3.16   1
  12 -20  16    9.27    3.05   1
  12 -20  17    4.35    2.09   1
  12 -20  18    1.80    1.34   1
  12 -20  19   24.40    4.94   1
  12 -20  21   13.27    3.64   1
  12 -18 -16    8.22    2.87   1
  12 -18 -15    1.84    1.36   1
  12 -18 -13   11.10    3.33   1
  12 -18 -12    1.72    1.31   1
  12 -18  -6    4.31    2.08   1
  12 -18  -5    1.67    1.29   1
  12 -18  -4   19.70    4.44   1
  12 -18  -3    4.88    2.21   1
  12 -18  -2    3.26    1.81   1
  12 -18  -1   13.43    3.66   1
  12 -18   0   12.30    3.51   1
  12 -18   1   24.10    4.91   1
  12 -18   2   10.40    3.22   1
  12 -18   3    2.33    1.52   1
  12 -18   4    3.53    1.88   1
  12 -18   5   19.95    4.47   1
  12 -18   6    5.93    2.43   1
  12 -18   7    2.17    1.47   1
  12 -18   8    2.81    1.68   1
  12 -18   9   22.96    4.79   1
  12 -18  10   10.90    3.30   1
  12 -18  11    2.25    1.50   1
  12 -18  12   10.30    3.21   1
  12 -18  13    9.15    3.02   1
  12 -18  14    9.75    3.12   1
  12 -18  15   16.40    4.05   1
  12 -18  16    8.75    2.96   1
  12 -18  19   10.01    3.16   1
  12 -18  20    5.85    2.42   1
  12 -18  21   14.55    3.81   1
  12 -16 -18   12.26    3.50   1
  12 -16 -17    5.70    2.39   1
  12 -16 -13   17.88    4.23   1
  12 -16 -12   29.53    5.43   1
  12 -16  -9   16.23    4.03   1
  12 -16  -8   10.74    3.28   1
  12 -16  -7   30.63    5.53   1
  12 -16  -6   22.05    4.70   1
  12 -16  -4   13.11    3.62   1
  12 -16  -3    5.06    2.25   1
  12 -16  -2   19.12    4.37   1
  12 -16  -1   44.74    6.69   1
  12 -16   0   36.04    6.00   1
  12 -16   1   35.66    5.97   1
  12 -16   2   65.18    8.07   1
  12 -16   3    4.72    2.17   1
  12 -16   4   29.92    5.47   1
  12 -16   5   19.05    4.36   1
  12 -16  10    3.69    1.92   1
  12 -16  12    2.80    1.67   1
  12 -16  14   19.13    4.37   1
  12 -16  17    5.02    2.24   1
  12 -16  20    2.29    1.51   1
  12 -16  22    5.55    2.35   1
  12 -16  23    3.97    1.99   1
  12 -14 -12   12.82    3.58   1
  12 -14 -11    6.58    2.57   1
  12 -14 -10    8.37    2.89   1
  12 -14  -8   18.66    4.32   1
  12 -14  -7   20.10    4.48   1
  12 -14  -6   16.27    4.03   1
  12 -14  -5   26.66    5.16   1
  12 -14  -4   28.27    5.32   1
  12 -14  -1    1.80    1.34   1
  12 -14   0   24.80    4.98   1
  12 -14   1    2.33    1.52   1
  12 -14   2   21.33    4.62   1
  12 -14   4   53.51    7.32   1
  12 -14   5    8.15    2.86   1
  12 -14   9    7.24    2.69   1
  12 -14  11    8.81    2.97   1
  12 -14  12    4.28    2.07   1
  12 -14  15   19.05    4.36   1
  12 -14  16    2.29    1.51   1
  12 -14  23    2.03    1.43   1
  12 -12 -15   16.42    4.05   1
  12 -12 -14   11.74    3.43   1
  12 -12 -12    3.36    1.83   1
  12 -12  -8   18.41    4.29   1
  12 -12  -6   10.57    3.25   1
  12 -12  -5   27.90    5.28   1
  12 -12  -4   17.51    4.18   1
  12 -12  -2   28.61    5.35   1
  12 -12   0   10.34    3.22   1
  12 -12   1    2.01    1.42   1
  12 -12   2   15.60    3.95   1
  12 -12   4   26.67    5.16   1
  12 -12   5   15.85    3.98   1
  12 -12   6   21.26    4.61   1
  12 -12   7   17.70    4.21   1
  12 -12   8    5.20    2.28   1
  12 -12   9    8.01    2.83   1
  12 -12  10    8.25    2.87   1
  12 -12  12    8.55    2.92   1
  12 -12  17    6.07    2.46   1
  12 -12  18    5.22    2.28   1
  12 -12  19   16.76    4.09   1
  12 -12  20    7.56    2.75   1
  12 -12  24    3.97    1.99   1
  12 -10 -19   11.55    3.40   1
  12 -10 -17   11.48    3.39   1
  12 -10 -16   34.50    5.87   1
  12 -10 -15   23.10    4.81   1
  12 -10 -14   10.19    3.19   1
  12 -10 -12   11.86    3.44   1
  12 -10 -11   23.10    4.81   1
  12 -10  -9   10.20    3.19   1
  12 -10  -8   38.75    6.22   1
  12 -10  -7   19.05    4.36   1
  12 -10  -6    2.10    1.45   1
  12 -10  -4    6.55    2.56   1
  12 -10  -3   16.32    4.04   1
  12 -10  -2   31.75    5.63   1
  12 -10   1   33.53    5.79   1
  12 -10   2   30.58    5.53   1
  12 -10   3   12.04    3.47   1
  12 -10   4    1.73    1.31   1
  12 -10  11    9.93    3.15   1
  12 -10  13    4.96    2.23   1
  12 -10  16    2.77    1.66   1
  12 -10  18   10.61    3.26   1
  12 -10  21    1.69    1.30   1
  12  -8 -20    6.26    2.50   1
  12  -8 -18   12.07    3.47   1
  12  -8 -17   15.38    3.92   1
  12  -8 -16    1.53    1.23   1
  12  -8 -13    6.94    2.63   1
  12  -8 -11    7.28    2.70   1
  12  -8  -9   19.52    4.42   1
  12  -8  -8    8.57    2.93   1
  12  -8  -7   11.93    3.45   1
  12  -8  -6   12.38    3.52   1
  12  -8  -5    8.66    2.94   1
  12  -8  -4   16.05    4.01   1
  12  -8  -3    8.02    2.83   1
  12  -8  -2   42.60    6.53   1
  12  -8  -1   30.83    5.55   1
  12  -8   0   29.28    5.41   1
  12  -8   1   63.26    7.95   1
  12  -8   2   50.46    7.10   1
  12  -8   3   12.93    3.60   1
  12  -8   7    2.20    1.48   1
  12  -8   8   16.08    4.01   1
  12  -8   9    9.90    3.15   1
  12  -8  10    6.04    2.46   1
  12  -8  12   34.10    5.84   1
  12  -8  13   17.13    4.14   1
  12  -8  14    3.00    1.73   1
  12  -8  15    7.28    2.70   1
  12  -8  16   10.43    3.23   1
  12  -8  19    5.74    2.40   1
  12  -8  22    8.70    2.95   1
  12  -6 -21    8.32    2.89   1
  12  -6 -18   14.90    3.86   1
  12  -6 -17    9.94    3.15   1
  12  -6 -16   13.94    3.73   1
  12  -6 -13    3.08    1.75   1
  12  -6 -11   42.45    6.52   1
  12  -6  -9    6.53    2.55   1
  12  -6  -8   18.04    4.25   1
  12  -6  -7   20.36    4.51   1
  12  -6  -5   97.12    9.85   1
  12  -6  -4   27.38    5.23   1
  12  -6  -3   62.63    7.91   1
  12  -6  -2    9.19    3.03   1
  12  -6  -1   32.01    5.66   1
  12  -6   0   51.09    7.15   1
  12  -6   1   44.25    6.65   1
  12  -6   2   62.66    7.92   1
  12  -6   3   72.00    8.49   1
  12  -6   4   43.35    6.58   1
  12  -6   5   59.03    7.68   1
  12  -6   6   50.76    7.12   1
  12  -6   7   12.45    3.53   1
  12  -6  12   20.36    4.51   1
  12  -6  13   47.06    6.86   1
  12  -6  15   10.61    3.26   1
  12  -6  16    8.74    2.96   1
  12  -6  18    3.90    1.97   1
  12  -6  23   14.02    3.74   1
  12  -4 -20   19.03    4.36   1
  12  -4 -18   10.84    3.29   1
  12  -4 -13   16.87    4.11   1
  12  -4 -12   28.55    5.34   1
  12  -4 -10   55.80    7.47   1
  12  -4  -9   34.69    5.89   1
  12  -4  -8   12.70    3.56   1
  12  -4  -7   28.20    5.31   1
  12  -4  -6   31.25    5.59   1
  12  -4  -5    7.85    2.80   1
  12  -4  -3    2.06    1.44   1
  12  -4  -1    8.84    2.97   1
  12  -4   0   16.50    4.06   1
  12  -4   1   52.13    7.22   1
  12  -4   2   29.48    5.43   1
  12  -4   3  111.41   10.56   1
  12  -4   4   48.30    6.95   1
  12  -4   5   69.80    8.35   1
  12  -4   6   41.07    6.41   1
  12  -4   7   14.93    3.86   1
  12  -4   9   21.21    4.61   1
  12  -4  10   18.07    4.25   1
  12  -4  11  105.07   10.25   1
  12  -4  13   68.78    8.29   1
  12  -4  14    3.33    1.83   1
  12  -4  15   31.05    5.57   1
  12  -4  16    2.26    1.50   1
  12  -4  18    9.28    3.05   1
  12  -4  20    5.40    2.32   1
  12  -4  21   16.87    4.11   1
  12  -4  23   28.65    5.35   1
  12  -2 -15   18.18    4.26   1
  12  -2 -11   18.79    4.33   1
  12  -2  -9  118.89   10.90   1
  12  -2  -8   37.65    6.14   1
  12  -2  -7    6.04    2.46   1
  12  -2  -5   10.44    3.23   1
  12  -2  -4   12.16    3.49   1
  12  -2  -3   16.34    4.04   1
  12  -2  -2   24.94    4.99   1
  12  -2  -1   88.92    9.43   1
  12  -2   0   28.98    5.38   1
  12  -2   1   61.78    7.86   1
  12  -2   2   72.35    8.51   1
  12  -2   4    5.18    2.27   1
  12  -2   8   15.90    3.99   1
  12  -2   9   27.75    5.27   1
  12  -2  10   41.14    6.41   1
  12  -2  12   19.84    4.45   1
  12  -2  14    4.02    2.00   1
  12  -2  17   12.98    3.60   1
  12  -2  21   12.98    3.60   1
  12  -2  24    5.85    2.42   1
  12   0 -22   19.42    4.41   1
  12   0 -21   15.56    3.94   1
  12   0 -16   13.88    3.72   1
  12   0 -14    1.56    1.25   1
  12   0 -13   39.00    6.24   1
  12   0 -12   12.09    3.48   1
  12   0  -9   76.49    8.75   1
  12   0  -8   21.17    4.60   1
  12   0  -5    6.99    2.64   1
  12   0  -3   13.57    3.68   1
  12   0  -2   45.57    6.75   1
  12   0  -1  678.57   26.05   1
  12   0   0  259.61   16.11   1
  12   0   1  473.77   21.77   1
  12   0   2  108.82   10.43   1
  12   0   3   32.73    5.72   1
  12   0   4   18.98    4.36   1
  12   0   7    5.51    2.35   1
  12   0   8   20.61    4.54   1
  12   0   9   38.45    6.20   1
  12   0  11   11.01    3.32   1
  12   0  13   12.48    3.53   1
  12   0  14   12.19    3.49   1
  12   0  16   52.28    7.23   1
  12   0  18   10.35    3.22   1
  12   0  19    5.18    2.27   1
  12   0  21    1.79    1.34   1
  12   0  22    7.17    2.68   1
  12   0  23   20.48    4.52   1
  12   2 -22    2.47    1.57   1
  12   2 -21    3.67    1.92   1
  12   2 -20   10.61    3.26   1
  12   2 -16    9.85    3.14   1
  12   2 -14   15.75    3.97   1
  12   2 -13   25.53    5.05   1
  12   2 -12   25.13    5.01   1
  12   2 -11    4.99    2.23   1
  12   2 -10   36.10    6.01   1
  12   2  -9  216.79   14.72   1
  12   2  -8   30.90    5.56   1
  12   2  -7    3.69    1.92   1
  12   2  -5   19.74    4.44   1
  12   2  -4   15.64    3.96   1
  12   2  -3   39.79    6.31   1
  12   2  -2   27.30    5.22   1
  12   2  -1   43.35    6.58   1
  12   2   0   46.13    6.79   1
  12   2   1   62.05    7.88   1
  12   2   2   74.97    8.66   1
  12   2   3   45.72    6.76   1
  12   2   5   28.39    5.33   1
  12   2   6    6.97    2.64   1
  12   2   7    5.43    2.33   1
  12   2   9  142.09   11.92   1
  12   2  10   31.80    5.64   1
  12   2  11   18.64    4.32   1
  12   2  13   19.98    4.47   1
  12   2  14   19.41    4.41   1
  12   2  18   13.27    3.64   1
  12   2  19    2.21    1.49   1
  12   2  21   17.17    4.14   1
  12   2  22   11.58    3.40   1
  12   4 -23    3.04    1.74   1
  12   4 -20   22.58    4.75   1
  12   4 -18    5.70    2.39   1
  12   4 -17   14.59    3.82   1
  12   4 -14   14.02    3.74   1
  12   4 -11   24.19    4.92   1
  12   4 -10   57.75    7.60   1
  12   4  -9   80.56    8.98   1
  12   4  -8   30.52    5.52   1
  12   4  -7   21.60    4.65   1
  12   4  -6    5.91    2.43   1
  12   4  -5   94.09    9.70   1
  12   4  -4   36.94    6.08   1
  12   4  -3   44.92    6.70   1
  12   4  -2   19.35    4.40   1
  12   4  -1   21.98    4.69   1
  12   4   0   35.85    5.99   1
  12   4   1   31.52    5.61   1
  12   4   2    7.35    2.71   1
  12   4   3  129.73   11.39   1
  12   4   4  105.60   10.28   1
  12   4   5   95.70    9.78   1
  12   4   6   14.60    3.82   1
  12   4   7   37.91    6.16   1
  12   4   9   74.70    8.64   1
  12   4  10   26.22    5.12   1
  12   4  11   57.49    7.58   1
  12   4  12    6.94    2.63   1
  12   4  13   73.75    8.59   1
  12   4  14   25.58    5.06   1
  12   4  16   24.19    4.92   1
  12   4  17    9.30    3.05   1
  12   4  18    3.88    1.97   1
  12   4  19    9.52    3.09   1
  12   4  21   32.59    5.71   1
  12   4  24    7.98    2.82   1
  12   6 -24    8.93    2.99   1
  12   6 -23    9.38    3.06   1
  12   6 -19    8.80    2.97   1
  12   6 -16   12.68    3.56   1
  12   6 -15   18.83    4.34   1
  12   6 -11   13.80    3.71   1
  12   6  -9    1.81    1.35   1
  12   6  -8    4.69    2.17   1
  12   6  -7   47.63    6.90   1
  12   6  -6   19.64    4.43   1
  12   6  -5   81.75    9.04   1
  12   6  -3   55.88    7.48   1
  12   6  -2   21.23    4.61   1
  12   6  -1    9.19    3.03   1
  12   6   1   21.22    4.61   1
  12   6   2   16.81    4.10   1
  12   6   3   32.70    5.72   1
  12   6   4   35.47    5.96   1
  12   6   5   68.63    8.28   1
  12   6   6   17.40    4.17   1
  12   6   7   78.07    8.84   1
  12   6   9    3.75    1.94   1
  12   6  11    6.42    2.53   1
  12   6  12    6.79    2.61   1
  12   6  13   46.70    6.83   1
  12   6  16    8.87    2.98   1
  12   6  18    9.41    3.07   1
  12   6  19   19.11    4.37   1
  12   6  21    4.24    2.06   1
  12   6  22   11.14    3.34   1
  12   6  23    2.40    1.55   1
  12   6  24    4.99    2.23   1
  12   8 -24    7.16    2.68   1
  12   8 -23    9.00    3.00   1
  12   8 -19    2.86    1.69   1
  12   8 -15   17.36    4.17   1
  12   8 -12   11.81    3.44   1
  12   8 -11   21.71    4.66   1
  12   8 -10   10.79    3.29   1
  12   8  -9   20.10    4.48   1
  12   8  -7   15.68    3.96   1
  12   8  -6    6.15    2.48   1
  12   8  -5   16.69    4.09   1
  12   8  -4   18.52    4.30   1
  12   8  -2   22.27    4.72   1
  12   8  -1   56.97    7.55   1
  12   8   0   52.46    7.24   1
  12   8   1  167.82   12.95   1
  12   8   2   42.37    6.51   1
  12   8   3   23.81    4.88   1
  12   8   4   16.57    4.07   1
  12   8   5    7.35    2.71   1
  12   8   7   21.60    4.65   1
  12   8   8   12.23    3.50   1
  12   8   9   51.31    7.16   1
  12   8  10   11.96    3.46   1
  12   8  11   35.96    6.00   1
  12   8  12    3.86    1.97   1
  12   8  14   16.27    4.03   1
  12   8  15    5.96    2.44   1
  12   8  16    8.18    2.86   1
  12   8  19   16.55    4.07   1
  12   8  21   30.04    5.48   1
  12   8  24    4.80    2.19   1
  12  10 -17   19.95    4.47   1
  12  10 -14    6.53    2.55   1
  12  10  -9   18.78    4.33   1
  12  10  -8    9.41    3.07   1
  12  10  -7   10.16    3.19   1
  12  10  -5    1.65    1.28   1
  12  10  -4    7.73    2.78   1
  12  10  -3    4.95    2.22   1
  12  10  -2   81.22    9.01   1
  12  10  -1   31.76    5.64   1
  12  10   0   12.30    3.51   1
  12  10   1   43.77    6.62   1
  12  10   2   68.63    8.28   1
  12  10   4   32.17    5.67   1
  12  10   5   31.09    5.58   1
  12  10   7   15.45    3.93   1
  12  10   8   17.02    4.13   1
  12  10   9    9.45    3.07   1
  12  10  10    2.50    1.58   1
  12  10  11   23.10    4.81   1
  12  10  13    3.15    1.77   1
  12  10  16   23.88    4.89   1
  12  10  17   11.70    3.42   1
  12  10  20    8.48    2.91   1
  12  10  21   12.74    3.57   1
  12  10  22    9.15    3.02   1
  12  10  24    9.38    3.06   1
  12  12 -23   21.52    4.64   1
  12  12 -19    1.73    1.31   1
  12  12 -18    7.00    2.65   1
  12  12 -16    9.34    3.06   1
  12  12 -15    7.16    2.68   1
  12  12 -13   27.37    5.23   1
  12  12 -12   25.95    5.09   1
  12  12 -11    6.08    2.47   1
  12  12 -10   28.63    5.35   1
  12  12  -9    8.81    2.97   1
  12  12  -8    1.99    1.41   1
  12  12  -7   11.21    3.35   1
  12  12  -6   20.48    4.52   1
  12  12  -5    2.45    1.57   1
  12  12  -4   57.67    7.59   1
  12  12  -3   15.72    3.97   1
  12  12  -2   38.25    6.18   1
  12  12  -1   18.83    4.34   1
  12  12   2   14.89    3.86   1
  12  12   3    5.96    2.44   1
  12  12   4   67.69    8.23   1
  12  12   5   97.83    9.89   1
  12  12   6    9.80    3.13   1
  12  12   8    6.22    2.49   1
  12  12   9   10.77    3.28   1
  12  12  10    5.03    2.24   1
  12  12  11   17.70    4.21   1
  12  12  12   24.33    4.93   1
  12  12  13   11.30    3.36   1
  12  12  14   19.27    4.39   1
  12  12  19   23.22    4.82   1
  12  12  23   10.84    3.29   1
  12  12  24   13.41    3.66   1
  12  14 -22   10.74    3.28   1
  12  14 -17   27.13    5.21   1
  12  14 -14    7.46    2.73   1
  12  14 -13    7.12    2.67   1
  12  14 -12   20.01    4.47   1
  12  14  -9   16.35    4.04   1
  12  14  -8   25.58    5.06   1
  12  14  -6    3.70    1.92   1
  12  14  -5   14.92    3.86   1
  12  14  -3    6.34    2.52   1
  12  14  -2    9.40    3.07   1
  12  14  -1   26.63    5.16   1
  12  14   0    2.33    1.52   1
  12  14   1   20.57    4.54   1
  12  14   2    3.69    1.92   1
  12  14   3   18.18    4.26   1
  12  14   4   26.75    5.17   1
  12  14   7    7.40    2.72   1
  12  14   8   12.52    3.54   1
  12  14   9    3.18    1.78   1
  12  14  10    5.60    2.37   1
  12  14  11   40.07    6.33   1
  12  14  12   20.33    4.51   1
  12  14  13   16.88    4.11   1
  12  14  18   27.75    5.27   1
  12  16 -23   10.73    3.27   1
  12  16 -21    2.89    1.70   1
  12  16 -19   17.31    4.16   1
  12  16 -18    2.44    1.56   1
  12  16 -15   18.70    4.32   1
  12  16 -14    1.73    1.31   1
  12  16 -13    5.88    2.42   1
  12  16 -10   30.42    5.52   1
  12  16  -8   10.13    3.18   1
  12  16  -7   10.16    3.19   1
  12  16  -6   42.45    6.52   1
  12  16  -5   13.53    3.68   1
  12  16  -4    8.43    2.90   1
  12  16  -2   13.10    3.62   1
  12  16  -1   20.53    4.53   1
  12  16   0   22.20    4.71   1
  12  16   1   21.64    4.65   1
  12  16   2   18.21    4.27   1
  12  16   3   10.57    3.25   1
  12  16   4   15.86    3.98   1
  12  16   5   31.42    5.61   1
  12  16   7   63.62    7.98   1
  12  16   8    7.57    2.75   1
  12  16   9    8.43    2.90   1
  12  16  10   15.71    3.96   1
  12  16  12   17.63    4.20   1
  12  16  13    8.18    2.86   1
  12  16  21   11.81    3.44   1
  12  16  23    9.38    3.06   1
  12  18 -24    8.85    2.97   1
  12  18 -23    9.98    3.16   1
  12  18 -20    5.70    2.39   1
  12  18 -17   15.48    3.93   1
  12  18 -16    4.50    2.12   1
  12  18 -14   15.02    3.88   1
  12  18 -12    3.86    1.97   1
  12  18  -8    2.20    1.48   1
  12  18  -7   13.38    3.66   1
  12  18  -6    6.94    2.63   1
  12  18  -5    1.68    1.29   1
  12  18  -1    3.83    1.96   1
  12  18   0   33.21    5.76   1
  12  18   1   31.20    5.59   1
  12  18   2   12.52    3.54   1
  12  18   3    2.29    1.51   1
  12  18   4    8.02    2.83   1
  12  18   7    4.99    2.23   1
  12  18   8    4.05    2.01   1
  12  18  11    9.86    3.14   1
  12  18  13    3.51    1.87   1
  12  18  16    2.36    1.54   1
  12  18  17   14.55    3.81   1
  12  18  19    6.99    2.64   1
  12  18  20    4.68    2.16   1
  12  18  21   10.38    3.22   1
  12  18  23    4.43    2.10   1
  12  20 -24   10.52    3.24   1
  12  20 -21   10.88    3.30   1
  12  20 -20   13.57    3.68   1
  12  20 -18    3.11    1.76   1
  12  20 -17   21.00    4.58   1
  12  20 -16   14.59    3.82   1
  12  20 -13    6.35    2.52   1
  12  20 -12    2.10    1.45   1
  12  20 -10    2.36    1.54   1
  12  20  -8    8.58    2.93   1
  12  20  -7    9.68    3.11   1
  12  20  -6    6.58    2.57   1
  12  20  -5   24.59    4.96   1
  12  20  -4   15.52    3.94   1
  12  20  -3    6.11    2.47   1
  12  20  -2   11.55    3.40   1
  12  20  -1   25.75    5.07   1
  12  20   0    4.70    2.17   1
  12  20   1    3.38    1.84   1
  12  20   2   18.34    4.28   1
  12  20   3   13.72    3.70   1
  12  20   5   12.29    3.51   1
  12  20   6   16.90    4.11   1
  12  20   7    8.28    2.88   1
  12  20   9   19.73    4.44   1
  12  20  11    7.31    2.70   1
  12  20  13   10.57    3.25   1
  12  20  14    8.29    2.88   1
  12  20  16    3.99    2.00   1
  12  20  17   10.73    3.27   1
  12  20  18    5.78    2.40   1
  12  20  19    8.55    2.92   1
  12  20  20   12.52    3.54   1
  12  20  21   24.76    4.98   1
  12  20  22    8.55    2.92   1
  12  20  23    5.03    2.24   1
  12  22 -16   12.76    3.57   1
  12  22 -15    2.47    1.57   1
  12  22 -14    4.57    2.14   1
  12  22 -13   17.10    4.14   1
  12  22 -10   14.89    3.86   1
  12  22  -7   11.14    3.34   1
  12  22  -6   23.55    4.85   1
  12  22  -5    7.83    2.80   1
  12  22  -4    4.88    2.21   1
  12  22  -3    9.98    3.16   1
  12  22  -2    5.70    2.39   1
  12  22  -1   30.39    5.51   1
  12  22   0   14.85    3.85   1
  12  22   1    9.75    3.12   1
  12  22   2   36.41    6.03   1
  12  22   3    8.34    2.89   1
  12  22   5    6.34    2.52   1
  12  22   6    4.43    2.10   1
  12  22   7   13.57    3.68   1
  12  22   9    9.78    3.13   1
  12  22  10   21.57    4.64   1
  12  22  11   13.79    3.71   1
  12  22  15    8.96    2.99   1
  12  22  16    8.55    2.92   1
  12  22  19   13.20    3.63   1
  12  24 -18    4.40    2.10   1
  12  24 -16   15.00    3.87   1
  12  24 -15    5.80    2.41   1
  12  24 -12    5.07    2.25   1
  12  24 -11    7.89    2.81   1
  12  24 -10    7.88    2.81   1
  12  24  -9   16.15    4.02   1
  12  24  -8    6.48    2.54   1
  12  24  -3   11.44    3.38   1
  12  24  -2    5.70    2.39   1
  12  24   0   15.26    3.91   1
  12  24   1    7.16    2.68   1
  12  24   6    8.18    2.86   1
  12  24  10    5.03    2.24   1
  12  24  14   10.50    3.24   1
  12  24  16    9.82    3.13   1
  13 -23 -17    2.38    1.54   1
  13 -23 -16   12.75    3.57   1
  13 -23 -14    4.28    2.07   1
  13 -23 -13    8.94    2.99   1
  13 -23 -12    3.53    1.88   1
  13 -23  -8    9.82    3.13   1
  13 -23  -6    6.35    2.52   1
  13 -23  -5   13.05    3.61   1
  13 -23  -4   20.74    4.55   1
  13 -23  -3    8.85    2.97   1
  13 -23  -1   11.85    3.44   1
  13 -23   0    4.11    2.03   1
  13 -23   3    8.70    2.95   1
  13 -23   4    6.41    2.53   1
  13 -23   5    1.61    1.27   1
  13 -23   6   10.50    3.24   1
  13 -23   7    2.59    1.61   1
  13 -23   9    8.65    2.94   1
  13 -23  12    8.19    2.86   1
  13 -21 -18    7.43    2.72   1
  13 -21 -17    6.07    2.46   1
  13 -21 -15    9.38    3.06   1
  13 -21 -14   24.42    4.94   1
  13 -21 -13   15.55    3.94   1
  13 -21 -12   11.36    3.37   1
  13 -21  -8    3.19    1.79   1
  13 -21  -5    8.93    2.99   1
  13 -21  -4    8.74    2.96   1
  13 -21  -3   12.16    3.49   1
  13 -21  -1    7.50    2.74   1
  13 -21   0   13.88    3.72   1
  13 -21   1    9.00    3.00   1
  13 -21   2   11.08    3.33   1
  13 -21   3    2.70    1.64   1
  13 -21   5    1.88    1.37   1
  13 -21   6    3.00    1.73   1
  13 -21   7    7.09    2.66   1
  13 -21   8    8.15    2.85   1
  13 -21   9    6.71    2.59   1
  13 -21  13   14.02    3.74   1
  13 -21  14    8.82    2.97   1
  13 -21  15    5.03    2.24   1
  13 -21  16    3.88    1.97   1
  13 -21  19    8.77    2.96   1
  13 -21  20   25.42    5.04   1
  13 -19 -18   11.39    3.37   1
  13 -19 -16   16.00    4.00   1
  13 -19 -15    6.82    2.61   1
  13 -19 -13   11.29    3.36   1
  13 -19 -12    5.15    2.27   1
  13 -19 -11    6.25    2.50   1
  13 -19 -10    5.82    2.41   1
  13 -19  -9    2.21    1.49   1
  13 -19  -7   11.48    3.39   1
  13 -19  -5    4.38    2.09   1
  13 -19  -4   30.52    5.52   1
  13 -19   1    4.16    2.04   1
  13 -19   4   26.33    5.13   1
  13 -19   6    9.98    3.16   1
  13 -19   7    5.25    2.29   1
  13 -19   8   12.00    3.46   1
  13 -19   9    2.81    1.68   1
  13 -19  10    9.54    3.09   1
  13 -19  12    2.51    1.58   1
  13 -19  14    5.11    2.26   1
  13 -19  16   10.47    3.24   1
  13 -19  17   12.86    3.59   1
  13 -19  19    8.55    2.92   1
  13 -19  20    2.28    1.51   1
  13 -19  21   10.23    3.20   1
  13 -19  22    1.77    1.33   1
  13 -17 -19   12.07    3.47   1
  13 -17 -18    6.33    2.52   1
  13 -17 -17   10.73    3.27   1
  13 -17 -16   16.49    4.06   1
  13 -17 -15    8.32    2.88   1
  13 -17 -14    1.85    1.36   1
  13 -17 -12    9.60    3.10   1
  13 -17 -10    6.92    2.63   1
  13 -17  -9   10.25    3.20   1
  13 -17  -7    7.31    2.70   1
  13 -17  -6    3.38    1.84   1
  13 -17  -4   12.38    3.52   1
  13 -17  -3   11.21    3.35   1
  13 -17  -2    2.05    1.43   1
  13 -17   0   20.10    4.48   1
  13 -17   1    9.94    3.15   1
  13 -17   2   31.31    5.60   1
  13 -17   4   12.38    3.52   1
  13 -17   6   17.13    4.14   1
  13 -17   7   15.19    3.90   1
  13 -17   8   13.93    3.73   1
  13 -17   9    3.15    1.77   1
  13 -17  10   21.76    4.66   1
  13 -17  11    3.08    1.75   1
  13 -17  12    5.55    2.36   1
  13 -17  14   11.18    3.34   1
  13 -17  15   16.90    4.11   1
  13 -17  18   14.70    3.83   1
  13 -17  24   13.65    3.69   1
  13 -15 -17    6.00    2.45   1
  13 -15 -16    8.43    2.90   1
  13 -15 -15   13.76    3.71   1
  13 -15 -14   18.00    4.24   1
  13 -15 -13    2.63    1.62   1
  13 -15  -9   21.94    4.68   1
  13 -15  -5   37.28    6.11   1
  13 -15  -3    4.13    2.03   1
  13 -15  -1   12.75    3.57   1
  13 -15   4   81.45    9.02   1
  13 -15   5   13.20    3.63   1
  13 -15   6   46.76    6.84   1
  13 -15   7   13.84    3.72   1
  13 -15  11   10.73    3.27   1
  13 -15  17   20.77    4.56   1
  13 -15  18    6.00    2.45   1
  13 -15  21    7.05    2.66   1
  13 -15  24    4.65    2.16   1
  13 -13 -20   10.73    3.27   1
  13 -13 -19    3.12    1.77   1
  13 -13 -18    4.95    2.22   1
  13 -13 -13   17.36    4.17   1
  13 -13 -11    9.49    3.08   1
  13 -13  -7    2.63    1.62   1
  13 -13  -6    1.58    1.25   1
  13 -13  -5    8.05    2.84   1
  13 -13  -4   17.96    4.24   1
  13 -13  -2    9.71    3.12   1
  13 -13  -1    2.21    1.49   1
  13 -13   0    5.25    2.29   1
  13 -13   1   51.22    7.16   1
  13 -13   2   10.00    3.16   1
  13 -13   3    7.72    2.78   1
  13 -13   4   20.67    4.55   1
  13 -13   5   13.91    3.73   1
  13 -13   7   13.46    3.67   1
  13 -13   8    2.47    1.57   1
  13 -13  12    5.13    2.26   1
  13 -13  17   10.24    3.20   1
  13 -13  18    8.70    2.95   1
  13 -13  20    9.30    3.05   1
  13 -13  24    4.43    2.10   1
  13 -11 -18   18.46    4.30   1
  13 -11 -15    2.52    1.59   1
  13 -11 -14    1.80    1.34   1
  13 -11 -13    5.32    2.31   1
  13 -11  -7    4.80    2.19   1
  13 -11  -6   23.47    4.84   1
  13 -11  -3    2.74    1.65   1
  13 -11  -2   17.47    4.18   1
  13 -11  -1   19.64    4.43   1
  13 -11   0   34.35    5.86   1
  13 -11   1   11.07    3.33   1
  13 -11   2   27.19    5.21   1
  13 -11   3   15.00    3.87   1
  13 -11   4    7.50    2.74   1
  13 -11   5    3.19    1.79   1
  13 -11   8    5.70    2.39   1
  13 -11   9    6.37    2.52   1
  13 -11  17   19.73    4.44   1
  13 -11  18    2.40    1.55   1
  13 -11  20    4.94    2.22   1
  13 -11  21    2.70    1.64   1
  13 -11  22   14.38    3.79   1
  13 -11  24   26.77    5.17   1
  13  -9 -20    4.12    2.03   1
  13  -9 -18   10.69    3.27   1
  13  -9 -17    7.88    2.81   1
  13  -9 -15   22.42    4.74   1
  13  -9 -14   23.36    4.83   1
  13  -9 -13    6.95    2.64   1
  13  -9 -11   11.68    3.42   1
  13  -9 -10    6.97    2.64   1
  13  -9  -9    4.83    2.20   1
  13  -9  -8   21.38    4.62   1
  13  -9  -7   14.96    3.87   1
  13  -9  -6   32.17    5.67   1
  13  -9  -5  270.83   16.46   1
  13  -9  -4   54.00    7.35   1
  13  -9  -3   41.33    6.43   1
  13  -9  -2   10.13    3.18   1
  13  -9   1    7.05    2.66   1
  13  -9   2   32.33    5.69   1
  13  -9   3  104.03   10.20   1
  13  -9   4   21.33    4.62   1
  13  -9   5   68.75    8.29   1
  13  -9   6  225.85   15.03   1
  13  -9   8   20.96    4.58   1
  13  -9  12   20.31    4.51   1
  13  -9  13    1.61    1.27   1
  13  -9  14    5.06    2.25   1
  13  -9  15    5.21    2.28   1
  13  -9  16   16.06    4.01   1
  13  -9  17    9.79    3.13   1
  13  -9  22   32.47    5.70   1
  13  -9  24    5.77    2.40   1
  13  -7 -17    3.79    1.95   1
  13  -7 -16    1.80    1.34   1
  13  -7  -9   12.07    3.47   1
  13  -7  -8   13.08    3.62   1
  13  -7  -7    7.72    2.78   1
  13  -7  -6   17.10    4.14   1
  13  -7  -5   44.36    6.66   1
  13  -7  -4   15.52    3.94   1
  13  -7  -3    9.19    3.03   1
  13  -7  -2   29.17    5.40   1
  13  -7  -1   15.05    3.88   1
  13  -7   0   10.91    3.30   1
  13  -7   2   10.47    3.24   1
  13  -7   3    3.56    1.89   1
  13  -7   4   20.27    4.50   1
  13  -7   5  231.79   15.22   1
  13  -7   6   42.08    6.49   1
  13  -7   8   30.94    5.56   1
  13  -7  11   14.89    3.86   1
  13  -7  12   19.27    4.39   1
  13  -7  13   32.55    5.71   1
  13  -7  18    4.65    2.16   1
  13  -7  20    6.09    2.47   1
  13  -7  21   15.75    3.97   1
  13  -7  23    2.25    1.50   1
  13  -5 -19    7.94    2.82   1
  13  -5 -18    6.94    2.63   1
  13  -5 -17    7.39    2.72   1
  13  -5 -15    5.36    2.32   1
  13  -5 -12   19.80    4.45   1
  13  -5 -11    2.47    1.57   1
  13  -5 -10   14.74    3.84   1
  13  -5  -9   25.67    5.07   1
  13  -5  -8    9.45    3.07   1
  13  -5  -7    4.95    2.22   1
  13  -5  -5    6.66    2.58   1
  13  -5  -4   18.13    4.26   1
  13  -5  -1   71.85    8.48   1
  13  -5   1   42.61    6.53   1
  13  -5   3   23.92    4.89   1
  13  -5   5   41.85    6.47   1
  13  -5   6   17.95    4.24   1
  13  -5   7    4.02    2.01   1
  13  -5   9   14.97    3.87   1
  13  -5  10   17.40    4.17   1
  13  -5  11   24.15    4.91   1
  13  -5  12   26.25    5.12   1
  13  -5  13   45.63    6.75   1
  13  -5  14   10.65    3.26   1
  13  -5  15   17.04    4.13   1
  13  -5  20    4.24    2.06   1
  13  -5  22   21.26    4.61   1
  13  -5  23    2.74    1.65   1
  13  -3 -23    6.26    2.50   1
  13  -3 -21    1.54    1.24   1
  13  -3 -19    6.04    2.46   1
  13  -3 -12   19.04    4.36   1
  13  -3 -11   22.44    4.74   1
  13  -3  -9   38.01    6.17   1
  13  -3  -8    2.92    1.71   1
  13  -3  -7   27.65    5.26   1
  13  -3  -6   24.01    4.90   1
  13  -3  -5  252.00   15.87   1
  13  -3  -3   19.69    4.44   1
  13  -3  -2   21.60    4.65   1
  13  -3  -1    6.04    2.46   1
  13  -3   0    5.95    2.44   1
  13  -3   1   26.48    5.15   1
  13  -3   2   17.28    4.16   1
  13  -3   3   70.80    8.41   1
  13  -3   4   52.80    7.27   1
  13  -3   5  196.92   14.03   1
  13  -3   6    6.45    2.54   1
  13  -3   7   28.50    5.34   1
  13  -3  10    9.35    3.06   1
  13  -3  11   16.79    4.10   1
  13  -3  12    9.02    3.00   1
  13  -3  15   31.08    5.57   1
  13  -3  19    8.25    2.87   1
  13  -3  20   12.27    3.50   1
  13  -3  22    9.18    3.03   1
  13  -1 -22    3.53    1.88   1
  13  -1 -21    7.88    2.81   1
  13  -1 -19   10.19    3.19   1
  13  -1 -16   23.15    4.81   1
  13  -1 -13   14.01    3.74   1
  13  -1 -12    2.47    1.57   1
  13  -1  -9    8.84    2.97   1
  13  -1  -8    3.67    1.92   1
  13  -1  -7   45.22    6.72   1
  13  -1  -6   23.49    4.85   1
  13  -1  -5   56.03    7.48   1
  13  -1  -3   30.38    5.51   1
  13  -1  -2   25.42    5.04   1
  13  -1  -1   23.06    4.80   1
  13  -1   0    1.92    1.39   1
  13  -1   1   33.00    5.74   1
  13  -1   2    4.95    2.22   1
  13  -1   3   42.75    6.54   1
  13  -1   6   14.37    3.79   1
  13  -1   7   60.96    7.81   1
  13  -1   8    6.45    2.54   1
  13  -1   9   10.05    3.17   1
  13  -1  11   53.78    7.33   1
  13  -1  13   32.44    5.70   1
  13  -1  14    4.80    2.19   1
  13  -1  15    6.30    2.51   1
  13  -1  18    6.85    2.62   1
  13  -1  20   23.74    4.87   1
  13  -1  22   10.99    3.32   1
  13   1 -22    8.60    2.93   1
  13   1 -20   12.38    3.52   1
  13   1 -18   13.84    3.72   1
  13   1 -13   55.28    7.43   1
  13   1 -11   44.88    6.70   1
  13   1  -7    5.67    2.38   1
  13   1  -6    1.80    1.34   1
  13   1  -5   16.71    4.09   1
  13   1  -4    4.21    2.05   1
  13   1  -3   10.85    3.29   1
  13   1  -2   17.07    4.13   1
  13   1  -1   42.32    6.51   1
  13   1   1   26.56    5.15   1
  13   1   3   81.30    9.02   1
  13   1   5   30.75    5.55   1
  13   1   6   23.55    4.85   1
  13   1   7   15.64    3.95   1
  13   1   8   36.41    6.03   1
  13   1  10   13.31    3.65   1
  13   1  13   37.42    6.12   1
  13   1  15   24.09    4.91   1
  13   1  16   18.25    4.27   1
  13   1  19    8.29    2.88   1
  13   1  22   12.27    3.50   1
  13   3 -24   15.21    3.90   1
  13   3 -22   11.40    3.38   1
  13   3 -18    9.15    3.02   1
  13   3 -15   16.63    4.08   1
  13   3 -14   45.87    6.77   1
  13   3 -11   14.70    3.83   1
  13   3 -10    9.34    3.06   1
  13   3  -8   16.86    4.11   1
  13   3  -7   20.36    4.51   1
  13   3  -6    3.71    1.93   1
  13   3  -5  240.26   15.50   1
  13   3  -4   31.94    5.65   1
  13   3  -3  129.00   11.36   1
  13   3  -2  105.52   10.27   1
  13   3  -1   35.36    5.95   1
  13   3   2   10.17    3.19   1
  13   3   3  225.72   15.02   1
  13   3   4   65.93    8.12   1
  13   3   5  326.14   18.06   1
  13   3   6   52.23    7.23   1
  13   3   7    8.32    2.89   1
  13   3   9   13.01    3.61   1
  13   3  11   49.18    7.01   1
  13   3  13    3.30    1.82   1
  13   3  14   14.05    3.75   1
  13   3  16    6.68    2.58   1
  13   3  20    3.79    1.95   1
  13   3  21    8.32    2.89   1
  13   5 -17    1.90    1.38   1
  13   5 -16   22.40    4.73   1
  13   5 -13   32.92    5.74   1
  13   5 -12   28.94    5.38   1
  13   5 -10   24.67    4.97   1
  13   5  -7   43.64    6.61   1
  13   5  -6    2.37    1.54   1
  13   5  -3   10.38    3.22   1
  13   5  -2   11.50    3.39   1
  13   5  -1   24.58    4.96   1
  13   5   0   10.72    3.27   1
  13   5   1   14.06    3.75   1
  13   5   4    4.00    2.00   1
  13   5   5   16.55    4.07   1
  13   5   6   12.79    3.58   1
  13   5   7   47.92    6.92   1
  13   5   8   14.25    3.78   1
  13   5  10    2.28    1.51   1
  13   5  11   52.53    7.25   1
  13   5  12    9.70    3.11   1
  13   5  17   68.78    8.29   1
  13   5  19    8.95    2.99   1
  13   5  20   20.86    4.57   1
  13   5  23    7.72    2.78   1
  13   5  24    7.05    2.66   1
  13   7 -19    6.19    2.49   1
  13   7 -18    7.27    2.70   1
  13   7 -16    3.33    1.83   1
  13   7 -12   30.45    5.52   1
  13   7 -11   16.42    4.05   1
  13   7  -9    8.32    2.89   1
  13   7  -7  279.98   16.73   1
  13   7  -6   42.15    6.49   1
  13   7  -5   87.55    9.36   1
  13   7  -4   30.45    5.52   1
  13   7  -2   23.44    4.84   1
  13   7  -1   15.48    3.93   1
  13   7   0   12.75    3.57   1
  13   7   1   17.92    4.23   1
  13   7   4   11.70    3.42   1
  13   7   5  303.60   17.42   1
  13   7   6   50.55    7.11   1
  13   7   7  243.49   15.60   1
  13   7   8   16.91    4.11   1
  13   7   9   13.73    3.70   1
  13   7  11   28.44    5.33   1
  13   7  12   10.29    3.21   1
  13   7  14   12.21    3.49   1
  13   7  15  171.66   13.10   1
  13   7  19   14.32    3.78   1
  13   7  24    7.13    2.67   1
  13   9 -24    7.31    2.70   1
  13   9 -21    2.89    1.70   1
  13   9 -19    1.57    1.25   1
  13   9 -17    6.60    2.57   1
  13   9 -13   19.30    4.39   1
  13   9 -10    6.75    2.60   1
  13   9  -8    7.91    2.81   1
  13   9  -5  242.12   15.56   1
  13   9  -4   60.45    7.77   1
  13   9  -3   33.00    5.74   1
  13   9  -2    5.32    2.31   1
  13   9  -1   15.82    3.98   1
  13   9   1    6.22    2.49   1
  13   9   3   38.06    6.17   1
  13   9   4   27.00    5.20   1
  13   9   5  213.33   14.61   1
  13   9   6   15.60    3.95   1
  13   9   7   24.11    4.91   1
  13   9   9   23.51    4.85   1
  13   9  10    1.88    1.37   1
  13   9  13    5.51    2.35   1
  13   9  14    6.90    2.63   1
  13   9  15    6.05    2.46   1
  13   9  17   13.45    3.67   1
  13   9  18    6.56    2.56   1
  13   9  19    5.85    2.42   1
  13   9  21    4.23    2.06   1
  13   9  22    9.68    3.11   1
  13   9  23    8.77    2.96   1
  13  11 -24    5.44    2.33   1
  13  11 -23    2.40    1.55   1
  13  11 -18    2.47    1.57   1
  13  11 -17   14.63    3.82   1
  13  11 -13   16.80    4.10   1
  13  11 -12    8.63    2.94   1
  13  11 -11   19.61    4.43   1
  13  11  -9   12.75    3.57   1
  13  11  -7   25.84    5.08   1
  13  11  -6   17.88    4.23   1
  13  11  -5   11.55    3.40   1
  13  11  -4   40.24    6.34   1
  13  11  -3   23.14    4.81   1
  13  11  -2    3.15    1.77   1
  13  11  -1   13.88    3.72   1
  13  11   0    3.94    1.98   1
  13  11   2   20.48    4.52   1
  13  11   3    1.73    1.31   1
  13  11   5   33.10    5.75   1
  13  11   6   12.30    3.51   1
  13  11   7   15.23    3.90   1
  13  11  10   11.82    3.44   1
  13  11  11   14.89    3.86   1
  13  11  12    7.50    2.74   1
  13  11  13   40.20    6.34   1
  13  11  14   17.36    4.17   1
  13  11  15   14.55    3.81   1
  13  11  18   14.10    3.75   1
  13  11  19   21.44    4.63   1
  13  11  23    2.85    1.69   1
  13  13 -20   21.66    4.65   1
  13  13 -19   10.50    3.24   1
  13  13 -18    4.65    2.16   1
  13  13 -17   20.40    4.52   1
  13  13 -16   14.48    3.80   1
  13  13 -14   12.34    3.51   1
  13  13 -13   32.63    5.71   1
  13  13 -12   70.25    8.38   1
  13  13 -11   26.13    5.11   1
  13  13  -8    6.41    2.53   1
  13  13  -7   26.77    5.17   1
  13  13  -5   25.12    5.01   1
  13  13  -4   37.21    6.10   1
  13  13  -3   15.98    4.00   1
  13  13  -2   10.98    3.31   1
  13  13   0   22.24    4.72   1
  13  13   3    5.74    2.40   1
  13  13   4   16.17    4.02   1
  13  13   5   39.55    6.29   1
  13  13   6   13.73    3.70   1
  13  13   7   24.03    4.90   1
  13  13   8  103.35   10.17   1
  13  13   9    2.16    1.47   1
  13  13  10   10.27    3.21   1
  13  13  11   16.13    4.02   1
  13  13  12   36.30    6.02   1
  13  13  13  117.19   10.83   1
  13  13  18   22.69    4.76   1
  13  13  21    4.83    2.20   1
  13  13  23    4.20    2.05   1
  13  15 -22   14.64    3.83   1
  13  15 -21    9.16    3.03   1
  13  15 -19    3.44    1.86   1
  13  15 -16    2.03    1.42   1
  13  15 -12   15.98    4.00   1
  13  15 -11   21.19    4.60   1
  13  15 -10    6.68    2.58   1
  13  15  -7    9.33    3.05   1
  13  15  -6    9.75    3.12   1
  13  15  -5    9.18    3.03   1
  13  15  -4   93.78    9.68   1
  13  15  -3   24.19    4.92   1
  13  15  -2  103.35   10.17   1
  13  15  -1    9.50    3.08   1
  13  15   0   23.44    4.84   1
  13  15   3   43.69    6.61   1
  13  15   4   27.64    5.26   1
  13  15   5  135.38   11.64   1
  13  15   6   16.65    4.08   1
  13  15   8   20.36    4.51   1
  13  15   9    8.55    2.92   1
  13  15  10   18.88    4.35   1
  13  15  12    7.44    2.73   1
  13  15  13   26.49    5.15   1
  13  15  14    3.25    1.80   1
  13  15  15   22.80    4.77   1
  13  15  22    8.02    2.83   1
  13  15  23    4.43    2.10   1
  13  15  24   10.43    3.23   1
  13  17 -21   13.73    3.71   1
  13  17 -20   14.25    3.77   1
  13  17 -17    3.24    1.80   1
  13  17 -15   15.68    3.96   1
  13  17 -13    3.38    1.84   1
  13  17 -12   15.07    3.88   1
  13  17  -9   20.63    4.54   1
  13  17  -7   10.40    3.22   1
  13  17  -6    1.66    1.29   1
  13  17  -4   20.63    4.54   1
  13  17  -3   17.42    4.17   1
  13  17  -2   26.72    5.17   1
  13  17  -1    2.47    1.57   1
  13  17   1   21.30    4.62   1
  13  17   2   16.50    4.06   1
  13  17   3    5.47    2.34   1
  13  17   5   28.31    5.32   1
  13  17   7   10.27    3.21   1
  13  17   9    5.70    2.39   1
  13  17  11   11.87    3.44   1
  13  17  14    5.78    2.40   1
  13  17  15   20.77    4.56   1
  13  17  16    3.37    1.83   1
  13  17  17   11.81    3.44   1
  13  17  22   12.16    3.49   1
  13  17  23    4.76    2.18   1
  13  19 -24    3.30    1.82   1
  13  19 -23    3.40    1.84   1
  13  19 -16    9.23    3.04   1
  13  19 -12    4.79    2.19   1
  13  19 -11    5.85    2.42   1
  13  19 -10    9.81    3.13   1
  13  19  -8    1.92    1.39   1
  13  19  -7    5.18    2.27   1
  13  19  -6   13.30    3.65   1
  13  19  -5    8.25    2.87   1
  13  19  -4   16.95    4.12   1
  13  19  -3    2.63    1.62   1
  13  19  -2   23.55    4.85   1
  13  19  -1    7.35    2.71   1
  13  19   1    5.59    2.36   1
  13  19   2    3.90    1.97   1
  13  19   3   12.64    3.55   1
  13  19   7    8.10    2.85   1
  13  19   8    2.78    1.67   1
  13  19  11    7.23    2.69   1
  13  19  13    9.07    3.01   1
  13  19  14   10.99    3.31   1
  13  19  20    8.96    2.99   1
  13  19  21    4.41    2.10   1
  13  21 -22    2.78    1.67   1
  13  21 -21    7.65    2.77   1
  13  21 -20    5.23    2.29   1
  13  21 -17    7.50    2.74   1
  13  21 -16    9.49    3.08   1
  13  21 -14   13.71    3.70   1
  13  21 -13    5.14    2.27   1
  13  21 -12   24.23    4.92   1
  13  21 -11    6.38    2.52   1
  13  21 -10    2.40    1.55   1
  13  21  -9    3.49    1.87   1
  13  21  -7    5.93    2.43   1
  13  21  -5   13.57    3.68   1
  13  21  -4    4.43    2.10   1
  13  21  -3    3.45    1.86   1
  13  21  -2    4.01    2.00   1
  13  21   0    2.33    1.52   1
  13  21   2    2.14    1.46   1
  13  21   3    2.57    1.60   1
  13  21   4    2.95    1.72   1
  13  21   8    5.59    2.36   1
  13  21   9    3.38    1.84   1
  13  21  11   12.27    3.50   1
  13  21  14    6.60    2.57   1
  13  21  16   14.55    3.81   1
  13  21  17    1.95    1.40   1
  13  21  18    9.94    3.15   1
  13  21  19    1.86    1.36   1
  13  23 -18    2.72    1.65   1
  13  23 -17    3.45    1.86   1
  13  23 -11    5.92    2.43   1
  13  23  -9    2.23    1.49   1
  13  23  -7   11.48    3.39   1
  13  23  -6   11.02    3.32   1
  13  23  -4    7.85    2.80   1
  13  23  -2   11.40    3.38   1
  13  23  -1   17.10    4.14   1
  13  23   0   11.63    3.41   1
  13  23   2   15.46    3.93   1
  13  23   3    5.88    2.42   1
  13  23   5    4.35    2.09   1
  13  23  10    5.17    2.27   1
  13  23  12   10.27    3.21   1
  13  23  13    9.98    3.16   1
  13  23  16    5.66    2.38   1
  13  23  17    8.15    2.86   1
  14 -24 -13   10.65    3.26   1
  14 -24 -12   13.27    3.64   1
  14 -24 -10    2.81    1.68   1
  14 -24  -9    9.38    3.06   1
  14 -24  -7    8.59    2.93   1
  14 -24  -6    3.34    1.83   1
  14 -24  -5   16.50    4.06   1
  14 -24  -2   20.60    4.54   1
  14 -24   2   22.42    4.74   1
  14 -24   3    7.10    2.67   1
  14 -24   4   21.38    4.62   1
  14 -24   5    3.45    1.86   1
  14 -24   7    3.30    1.82   1
  14 -22 -18    5.03    2.24   1
  14 -22 -17    8.25    2.87   1
  14 -22 -14    7.25    2.69   1
  14 -22 -10    9.60    3.10   1
  14 -22  -8   10.58    3.25   1
  14 -22  -7    3.41    1.85   1
  14 -22  -5    1.54    1.24   1
  14 -22  -2    2.47    1.57   1
  14 -22  -1   13.31    3.65   1
  14 -22   5    3.67    1.92   1
  14 -22   7   16.70    4.09   1
  14 -22   9   12.32    3.51   1
  14 -22  12    6.11    2.47   1
  14 -22  14    2.85    1.69   1
  14 -22  16    2.25    1.50   1
  14 -20 -19    7.99    2.83   1
  14 -20 -17    6.59    2.57   1
  14 -20 -15   16.20    4.02   1
  14 -20 -13   12.51    3.54   1
  14 -20 -12   23.17    4.81   1
  14 -20 -11   13.16    3.63   1
  14 -20  -7   11.35    3.37   1
  14 -20  -4    2.14    1.46   1
  14 -20  -3   10.20    3.19   1
  14 -20   0   15.23    3.90   1
  14 -20   1    1.85    1.36   1
  14 -20   2    3.70    1.92   1
  14 -20   3   15.90    3.99   1
  14 -20   4    1.90    1.38   1
  14 -20   8   10.13    3.18   1
  14 -20  10   33.90    5.82   1
  14 -20  17    6.40    2.53   1
  14 -20  19    9.32    3.05   1
  14 -18 -21    1.68    1.30   1
  14 -18 -20    8.85    2.97   1
  14 -18 -19   14.06    3.75   1
  14 -18 -18    7.75    2.78   1
  14 -18 -17   14.88    3.86   1
  14 -18 -16    3.97    1.99   1
  14 -18 -12    5.74    2.40   1
  14 -18 -10   10.87    3.30   1
  14 -18  -8   33.75    5.81   1
  14 -18  -7    9.50    3.08   1
  14 -18  -6   14.03    3.75   1
  14 -18  -5    4.65    2.16   1
  14 -18  -3    5.63    2.37   1
  14 -18  -1   28.73    5.36   1
  14 -18   0   19.65    4.43   1
  14 -18   1   21.94    4.68   1
  14 -18   3    2.17    1.47   1
  14 -18   4   23.00    4.80   1
  14 -18   6   19.61    4.43   1
  14 -18   7    7.45    2.73   1
  14 -18   8    4.01    2.00   1
  14 -18   9   15.12    3.89   1
  14 -18  10   16.80    4.10   1
  14 -18  11    6.97    2.64   1
  14 -18  14    6.50    2.55   1
  14 -18  15    7.65    2.77   1
  14 -18  18    6.00    2.45   1
  14 -18  21    8.02    2.83   1
  14 -16 -20   16.91    4.11   1
  14 -16 -18    3.34    1.83   1
  14 -16 -14   13.10    3.62   1
  14 -16 -11   15.70    3.96   1
  14 -16  -9    3.70    1.92   1
  14 -16  -6    9.00    3.00   1
  14 -16  -5    6.39    2.53   1
  14 -16  -4    7.50    2.74   1
  14 -16  -3    2.49    1.58   1
  14 -16  -2   20.81    4.56   1
  14 -16   2   12.52    3.54   1
  14 -16   3    2.25    1.50   1
  14 -16   5    9.18    3.03   1
  14 -16   8    3.43    1.85   1
  14 -16   9   20.25    4.50   1
  14 -16  10   10.38    3.22   1
  14 -16  12   17.77    4.22   1
  14 -16  15    5.36    2.31   1
  14 -16  17    2.25    1.50   1
  14 -16  19    8.86    2.98   1
  14 -16  22    3.97    1.99   1
  14 -16  23    2.81    1.68   1
  14 -16  24    1.73    1.31   1
  14 -14 -20    8.63    2.94   1
  14 -14 -18   15.19    3.90   1
  14 -14 -16    9.30    3.05   1
  14 -14 -15   14.72    3.84   1
  14 -14 -14   15.64    3.95   1
  14 -14 -13   11.25    3.35   1
  14 -14 -12   18.69    4.32   1
  14 -14 -11   10.05    3.17   1
  14 -14  -6   18.13    4.26   1
  14 -14  -5    6.22    2.49   1
  14 -14  -4   10.06    3.17   1
  14 -14  -3    2.10    1.45   1
  14 -14  -2   18.30    4.28   1
  14 -14  -1   91.20    9.55   1
  14 -14   0   45.60    6.75   1
  14 -14   1   61.85    7.86   1
  14 -14   2   39.15    6.26   1
  14 -14   4    8.02    2.83   1
  14 -14   8    2.82    1.68   1
  14 -14  12    5.07    2.25   1
  14 -14  13   13.04    3.61   1
  14 -14  15   18.38    4.29   1
  14 -14  18    5.92    2.43   1
  14 -14  20    8.85    2.97   1
  14 -12 -22   15.78    3.97   1
  14 -12 -15    2.20    1.48   1
  14 -12 -14    8.10    2.85   1
  14 -12  -9    6.07    2.46   1
  14 -12  -8    3.71    1.93   1
  14 -12  -7   37.58    6.13   1
  14 -12  -5   10.98    3.31   1
  14 -12  -3    6.50    2.55   1
  14 -12  -2    1.88    1.37   1
  14 -12  -1   23.21    4.82   1
  14 -12   0    9.25    3.04   1
  14 -12   1   16.82    4.10   1
  14 -12   3   15.13    3.89   1
  14 -12   5    6.30    2.51   1
  14 -12   7   10.13    3.18   1
  14 -12   8   15.64    3.95   1
  14 -12   9   24.45    4.94   1
  14 -12  11    7.23    2.69   1
  14 -12  13   19.13    4.37   1
  14 -12  17   16.58    4.07   1
  14 -12  19   17.21    4.15   1
  14 -12  21    3.76    1.94   1
  14 -12  24    8.18    2.86   1
  14 -10 -21    5.70    2.39   1
  14 -10 -19    7.12    2.67   1
  14 -10 -16   18.81    4.34   1
  14 -10 -15   19.59    4.43   1
  14 -10 -14    9.65    3.11   1
  14 -10 -12   11.23    3.35   1
  14 -10 -10   13.74    3.71   1
  14 -10  -9   12.30    3.51   1
  14 -10  -8   26.14    5.11   1
  14 -10  -7    6.67    2.58   1
  14 -10  -6    3.38    1.84   1
  14 -10  -4   23.24    4.82   1
  14 -10  -3   69.33    8.33   1
  14 -10  -1    9.44    3.07   1
  14 -10   0   35.92    5.99   1
  14 -10   2   11.82    3.44   1
  14 -10   3   22.78    4.77   1
  14 -10   4   17.06    4.13   1
  14 -10   6    2.43    1.56   1
  14 -10   8    4.59    2.14   1
  14 -10   9   65.66    8.10   1
  14 -10  11    9.99    3.16   1
  14 -10  12    2.95    1.72   1
  14 -10  14   16.15    4.02   1
  14 -10  15   17.07    4.13   1
  14 -10  16   11.10    3.33   1
  14 -10  17    1.80    1.34   1
  14 -10  21    6.47    2.54   1
  14 -10  23    3.97    1.99   1
  14 -10  24    4.56    2.14   1
  14  -8 -22    9.27    3.04   1
  14  -8 -19   12.38    3.52   1
  14  -8 -18    5.26    2.29   1
  14  -8 -15   17.35    4.17   1
  14  -8 -13   20.77    4.56   1
  14  -8 -10   43.13    6.57   1
  14  -8  -8   27.66    5.26   1
  14  -8  -7   12.97    3.60   1
  14  -8  -6   16.09    4.01   1
  14  -8  -5   19.89    4.46   1
  14  -8  -3   15.67    3.96   1
  14  -8  -2    5.14    2.27   1
  14  -8  -1   72.41    8.51   1
  14  -8   0   12.68    3.56   1
  14  -8   1   44.60    6.68   1
  14  -8   2   13.45    3.67   1
  14  -8   4   20.97    4.58   1
  14  -8   5   25.13    5.01   1
  14  -8   9    2.44    1.56   1
  14  -8  10    6.30    2.51   1
  14  -8  11   25.84    5.08   1
  14  -8  18   11.39    3.38   1
  14  -8  19   16.17    4.02   1
  14  -6 -21    1.76    1.33   1
  14  -6 -19   15.64    3.95   1
  14  -6  -8  169.37   13.01   1
  14  -6  -7   18.04    4.25   1
  14  -6  -5   59.59    7.72   1
  14  -6  -4    4.99    2.23   1
  14  -6  -1   23.33    4.83   1
  14  -6   0   32.59    5.71   1
  14  -6   1   16.78    4.10   1
  14  -6   2   16.05    4.01   1
  14  -6   3   20.40    4.52   1
  14  -6   4   20.70    4.55   1
  14  -6   5   78.42    8.86   1
  14  -6   6    4.18    2.05   1
  14  -6   7   17.33    4.16   1
  14  -6   8    2.00    1.41   1
  14  -6   9  126.86   11.26   1
  14  -6  11    6.34    2.52   1
  14  -6  12   18.55    4.31   1
  14  -6  13    6.80    2.61   1
  14  -6  14    4.20    2.05   1
  14  -6  19   13.43    3.66   1
  14  -6  21    4.65    2.16   1
  14  -6  23   12.66    3.56   1
  14  -6  24    9.20    3.03   1
  14  -4 -24    7.55    2.75   1
  14  -4 -23    3.92    1.98   1
  14  -4 -20    5.70    2.39   1
  14  -4 -18    4.13    2.03   1
  14  -4 -16   17.02    4.13   1
  14  -4 -12    1.69    1.30   1
  14  -4 -10    7.91    2.81   1
  14  -4  -9   30.60    5.53   1
  14  -4  -8   20.04    4.48   1
  14  -4  -7   38.21    6.18   1
  14  -4  -6   17.55    4.19   1
  14  -4  -5    8.29    2.88   1
  14  -4  -2    8.40    2.90   1
  14  -4   0   20.90    4.57   1
  14  -4   1   39.16    6.26   1
  14  -4   2   15.49    3.94   1
  14  -4   3   22.88    4.78   1
  14  -4   5    5.21    2.28   1
  14  -4   6    8.47    2.91   1
  14  -4   8    5.82    2.41   1
  14  -4  11    2.59    1.61   1
  14  -4  12    6.07    2.46   1
  14  -4  17    7.08    2.66   1
  14  -4  18   12.85    3.58   1
  14  -4  20    3.63    1.91   1
  14  -4  23    3.18    1.78   1
  14  -4  24    6.56    2.56   1
  14  -2 -21    8.70    2.95   1
  14  -2 -20    9.07    3.01   1
  14  -2 -16   11.58    3.40   1
  14  -2 -13   34.21    5.85   1
  14  -2 -12    6.90    2.63   1
  14  -2 -10   42.83    6.54   1
  14  -2  -8    9.16    3.03   1
  14  -2  -7  432.23   20.79   1
  14  -2  -6   14.99    3.87   1
  14  -2  -5   20.07    4.48   1
  14  -2  -3    2.94    1.72   1
  14  -2  -2   14.89    3.86   1
  14  -2   0   14.16    3.76   1
  14  -2   1   36.86    6.07   1
  14  -2   2   16.42    4.05   1
  14  -2   3    8.00    2.83   1
  14  -2   5    2.10    1.45   1
  14  -2   6   14.40    3.79   1
  14  -2   7  195.72   13.99   1
  14  -2   8   16.73    4.09   1
  14  -2   9    4.32    2.08   1
  14  -2  11    9.92    3.15   1
  14  -2  13    5.44    2.33   1
  14  -2  14   27.15    5.21   1
  14  -2  16    4.52    2.13   1
  14  -2  17    6.26    2.50   1
  14  -2  18    1.73    1.31   1
  14  -2  21    8.86    2.98   1
  14  -2  24   10.80    3.29   1
  14   0 -23    9.78    3.13   1
  14   0 -22    5.78    2.40   1
  14   0 -20    2.66    1.63   1
  14   0 -19    4.95    2.22   1
  14   0 -18   11.90    3.45   1
  14   0 -12   30.34    5.51   1
  14   0  -9   62.85    7.93   1
  14   0  -8   38.78    6.23   1
  14   0  -7   10.74    3.28   1
  14   0  -6   39.97    6.32   1
  14   0  -5    4.35    2.09   1
  14   0  -4    6.34    2.52   1
  14   0  -1  174.21   13.20   1
  14   0   0   53.13    7.29   1
  14   0   1  222.15   14.90   1
  14   0   2  115.17   10.73   1
  14   0   3   11.32    3.37   1
  14   0   5   20.92    4.57   1
  14   0   7   37.80    6.15   1
  14   0   9   20.14    4.49   1
  14   0  10   25.03    5.00   1
  14   0  11   11.20    3.35   1
  14   0  12    8.77    2.96   1
  14   0  13   47.85    6.92   1
  14   0  18   12.68    3.56   1
  14   0  21    3.25    1.80   1
  14   0  22   11.02    3.32   1
  14   2 -21    4.58    2.14   1
  14   2 -20   19.42    4.41   1
  14   2 -13   15.71    3.96   1
  14   2 -11   15.83    3.98   1
  14   2 -10    5.76    2.40   1
  14   2  -7  426.98   20.66   1
  14   2  -6   27.14    5.21   1
  14   2  -5   40.42    6.36   1
  14   2  -4    6.12    2.47   1
  14   2  -3   13.35    3.65   1
  14   2  -2    6.79    2.61   1
  14   2  -1    4.49    2.12   1
  14   2   0   15.52    3.94   1
  14   2   1   32.25    5.68   1
  14   2   2   40.49    6.36   1
  14   2   4    9.90    3.15   1
  14   2   5   75.11    8.67   1
  14   2   6   18.91    4.35   1
  14   2   7  160.70   12.68   1
  14   2   8   17.10    4.14   1
  14   2  14   12.38    3.52   1
  14   2  20    5.63    2.37   1
  14   2  23    8.63    2.94   1
  14   2  24   17.78    4.22   1
  14   4 -24    5.53    2.35   1
  14   4 -22   12.90    3.59   1
  14   4 -21    8.16    2.86   1
  14   4 -20   14.03    3.75   1
  14   4 -15    5.15    2.27   1
  14   4 -13    4.32    2.08   1
  14   4 -11   33.15    5.76   1
  14   4  -9   15.46    3.93   1
  14   4  -8   16.07    4.01   1
  14   4  -7   34.88    5.91   1
  14   4  -6   18.95    4.35   1
  14   4  -5   26.97    5.19   1
  14   4  -4    3.00    1.73   1
  14   4  -1   52.42    7.24   1
  14   4   0    9.38    3.06   1
  14   4   1   37.96    6.16   1
  14   4   2   41.84    6.47   1
  14   4   4   18.60    4.31   1
  14   4   5   38.84    6.23   1
  14   4   6    9.34    3.06   1
  14   4   7   20.30    4.51   1
  14   4   8    5.78    2.40   1
  14   4   9    5.12    2.26   1
  14   4  11   28.95    5.38   1
  14   4  12   12.60    3.55   1
  14   4  13    6.97    2.64   1
  14   4  15    6.41    2.53   1
  14   4  17    2.70    1.64   1
  14   4  19   10.01    3.16   1
  14   4  20    2.47    1.57   1
  14   4  23    6.15    2.48   1
  14   4  24    8.93    2.99   1
  14   6 -22    3.80    1.95   1
  14   6 -17    3.30    1.82   1
  14   6 -15    7.32    2.71   1
  14   6 -14   22.58    4.75   1
  14   6 -13   26.66    5.16   1
  14   6 -12    1.61    1.27   1
  14   6 -11   40.09    6.33   1
  14   6  -9   25.06    5.01   1
  14   6  -8  206.97   14.39   1
  14   6  -7    1.58    1.25   1
  14   6  -5   31.13    5.58   1
  14   6  -4   33.00    5.74   1
  14   6  -3   14.92    3.86   1
  14   6  -1   26.55    5.15   1
  14   6   1    3.70    1.92   1
  14   6   2   11.07    3.33   1
  14   6   5   84.90    9.21   1
  14   6   6  158.13   12.57   1
  14   6   7   32.47    5.70   1
  14   6   8    4.83    2.20   1
  14   6   9  217.35   14.74   1
  14   6  11    4.72    2.17   1
  14   6  14   25.35    5.03   1
  14   6  15   71.03    8.43   1
  14   6  16    1.54    1.24   1
  14   6  19    8.30    2.88   1
  14   6  23   13.51    3.68   1
  14   8 -22   20.15    4.49   1
  14   8 -14    2.67    1.64   1
  14   8 -12  108.11   10.40   1
  14   8 -10   11.85    3.44   1
  14   8  -9   11.18    3.34   1
  14   8  -7   20.15    4.49   1
  14   8  -6    6.53    2.56   1
  14   8  -4   16.10    4.01   1
  14   8  -3   35.92    5.99   1
  14   8  -2   12.03    3.47   1
  14   8  -1   84.68    9.20   1
  14   8   0    9.75    3.12   1
  14   8   1   85.24    9.23   1
  14   8   2   18.15    4.26   1
  14   8   3    5.10    2.26   1
  14   8   4    7.65    2.76   1
  14   8   5   31.50    5.61   1
  14   8   7   20.74    4.55   1
  14   8  10    3.78    1.95   1
  14   8  11    6.05    2.46   1
  14   8  12    8.93    2.99   1
  14   8  13  131.32   11.46   1
  14   8  17   13.43    3.66   1
  14   8  18    9.00    3.00   1
  14   8  19    1.70    1.30   1
  14   8  23    5.67    2.38   1
  14  10 -24    7.84    2.80   1
  14  10 -23    2.06    1.44   1
  14  10 -20    5.32    2.31   1
  14  10 -19   15.45    3.93   1
  14  10 -16    6.15    2.48   1
  14  10 -15   11.32    3.37   1
  14  10 -14    1.63    1.28   1
  14  10 -11    6.07    2.46   1
  14  10 -10    5.63    2.37   1
  14  10  -9   11.10    3.33   1
  14  10  -8  102.90   10.14   1
  14  10  -7    1.71    1.31   1
  14  10  -6   14.75    3.84   1
  14  10  -3   13.20    3.63   1
  14  10  -2   31.93    5.65   1
  14  10  -1   14.89    3.86   1
  14  10   0   20.10    4.48   1
  14  10   1   62.17    7.89   1
  14  10   2   40.29    6.35   1
  14  10   3   29.48    5.43   1
  14  10   7   27.38    5.23   1
  14  10   8   17.66    4.20   1
  14  10   9   90.65    9.52   1
  14  10  10   14.42    3.80   1
  14  10  13   31.09    5.58   1
  14  10  14    8.06    2.84   1
  14  10  15    3.19    1.79   1
  14  10  16   14.85    3.85   1
  14  10  18   22.50    4.74   1
  14  10  20    5.78    2.40   1
  14  12 -17   11.00    3.32   1
  14  12 -14    2.70    1.64   1
  14  12 -11   30.35    5.51   1
  14  12  -6   15.50    3.94   1
  14  12  -5   15.23    3.90   1
  14  12  -4   26.14    5.11   1
  14  12  -2   27.26    5.22   1
  14  12   0   39.97    6.32   1
  14  12   1   29.63    5.44   1
  14  12   2   48.98    7.00   1
  14  12   6   15.79    3.97   1
  14  12   7    5.18    2.27   1
  14  12   8    4.95    2.22   1
  14  12  11   10.35    3.22   1
  14  12  12   12.79    3.58   1
  14  12  13   20.17    4.49   1
  14  12  14   14.21    3.77   1
  14  12  15   10.13    3.18   1
  14  12  17    2.49    1.58   1
  14  12  18    2.96    1.72   1
  14  12  19    1.95    1.40   1
  14  12  20   17.19    4.15   1
  14  14 -24    2.85    1.69   1
  14  14 -22    7.05    2.66   1
  14  14 -21   14.39    3.79   1
  14  14 -18    3.83    1.96   1
  14  14 -11    1.63    1.28   1
  14  14 -10   20.11    4.48   1
  14  14  -9    5.10    2.26   1
  14  14  -7   11.82    3.44   1
  14  14  -4   20.75    4.55   1
  14  14  -3   18.25    4.27   1
  14  14  -2    4.76    2.18   1
  14  14  -1   42.30    6.50   1
  14  14   0  247.53   15.73   1
  14  14   1   98.07    9.90   1
  14  14   2   63.56    7.97   1
  14  14   3    5.96    2.44   1
  14  14   4   10.98    3.31   1
  14  14   5   28.53    5.34   1
  14  14   6   21.86    4.68   1
  14  14   9    5.40    2.32   1
  14  14  13    3.97    1.99   1
  14  14  15   22.42    4.74   1
  14  14  17    7.14    2.67   1
  14  14  18    8.77    2.96   1
  14  14  19    6.82    2.61   1
  14  14  21    5.88    2.42   1
  14  14  23   14.77    3.84   1
  14  16 -22    4.73    2.18   1
  14  16 -21    7.88    2.81   1
  14  16 -16    6.97    2.64   1
  14  16 -15    6.12    2.47   1
  14  16 -14    1.99    1.41   1
  14  16 -13    2.70    1.64   1
  14  16 -11   14.06    3.75   1
  14  16 -10    6.68    2.58   1
  14  16  -8   29.48    5.43   1
  14  16  -3   21.07    4.59   1
  14  16  -2   10.02    3.17   1
  14  16  -1   12.00    3.46   1
  14  16   1   19.87    4.46   1
  14  16   2   19.54    4.42   1
  14  16   3    6.60    2.57   1
  14  16   5   11.25    3.35   1
  14  16   6   25.65    5.06   1
  14  16   7    8.10    2.85   1
  14  16   8   15.38    3.92   1
  14  16   9    2.87    1.69   1
  14  16  10    6.68    2.58   1
  14  16  11    1.69    1.30   1
  14  16  13    8.95    2.99   1
  14  16  14    1.85    1.36   1
  14  16  15   10.37    3.22   1
  14  16  16    6.97    2.64   1
  14  16  19   11.10    3.33   1
  14  16  20    8.22    2.87   1
  14  16  21    8.57    2.93   1
  14  16  22   18.00    4.24   1
  14  18 -24    2.85    1.69   1
  14  18 -23   12.07    3.47   1
  14  18 -19    7.50    2.74   1
  14  18 -17    8.53    2.92   1
  14  18 -15   12.07    3.47   1
  14  18 -12    7.80    2.79   1
  14  18  -8   19.73    4.44   1
  14  18  -7    3.60    1.90   1
  14  18  -6    9.56    3.09   1
  14  18  -4   11.89    3.45   1
  14  18  -3    3.34    1.83   1
  14  18  -2   29.25    5.41   1
  14  18  -1   29.70    5.45   1
  14  18   0   23.70    4.87   1
  14  18   1    2.09    1.45   1
  14  18   2   36.71    6.06   1
  14  18   3    2.17    1.47   1
  14  18   5   11.40    3.38   1
  14  18   6    5.90    2.43   1
  14  18   8   13.52    3.68   1
  14  18   9    7.80    2.79   1
  14  18  10   11.02    3.32   1
  14  18  12   10.99    3.32   1
  14  18  13   14.10    3.75   1
  14  18  15    1.61    1.27   1
  14  18  16    4.21    2.05   1
  14  18  17    3.00    1.73   1
  14  20 -22   16.13    4.02   1
  14  20 -21   12.85    3.58   1
  14  20 -16    1.62    1.27   1
  14  20 -14    9.05    3.01   1
  14  20 -13    6.45    2.54   1
  14  20 -12   17.10    4.14   1
  14  20  -9   25.61    5.06   1
  14  20  -8    8.18    2.86   1
  14  20  -7    7.20    2.68   1
  14  20  -5    3.20    1.79   1
  14  20  -3    3.00    1.73   1
  14  20   0   46.02    6.78   1
  14  20   1    5.37    2.32   1
  14  20   2   39.25    6.27   1
  14  20   3   16.60    4.07   1
  14  20   6    7.99    2.83   1
  14  20   7    6.82    2.61   1
  14  20   8    3.65    1.91   1
  14  20  14    3.90    1.97   1
  14  22 -20   16.73    4.09   1
  14  22 -19    1.88    1.37   1
  14  22 -16   25.20    5.02   1
  14  22 -14   15.00    3.87   1
  14  22 -13    7.80    2.79   1
  14  22 -12    9.38    3.06   1
  14  22  -9   21.00    4.58   1
  14  22  -8   32.44    5.70   1
  14  22  -6    5.32    2.31   1
  14  22  -3   10.65    3.26   1
  14  22  -2   13.35    3.65   1
  14  22  -1   10.50    3.24   1
  14  22   0   26.70    5.17   1
  14  22   1    2.25    1.50   1
  14  22   2   43.84    6.62   1
  14  22   4    2.55    1.60   1
  14  22   5    8.51    2.92   1
  14  22   7    3.11    1.76   1
  14  22  11    2.54    1.59   1
  14  22  13   10.24    3.20   1
  14  22  16    4.30    2.07   1
  14  22  18   13.80    3.71   1
  14  24 -15    8.02    2.83   1
  14  24 -13   13.73    3.70   1
  14  24  -9   11.93    3.45   1
  14  24  -8    3.04    1.74   1
  14  24  -7   41.17    6.42   1
  14  24  -6    8.14    2.85   1
  14  24  -5   12.75    3.57   1
  14  24  -3   15.23    3.90   1
  14  24  -2    4.39    2.09   1
  14  24  -1   12.82    3.58   1
  14  24   0   18.05    4.25   1
  14  24   1   19.56    4.42   1
  14  24   2   40.88    6.39   1
  14  24   3   15.00    3.87   1
  14  24   4   18.23    4.27   1
  14  24   5    8.71    2.95   1
  14  24   7   18.11    4.26   1
  14  24   8   13.05    3.61   1
  14  24   9    2.98    1.73   1
  15 -23 -13    4.83    2.20   1
  15 -23 -12    8.05    2.84   1
  15 -23 -11    3.97    1.99   1
  15 -23  -9    3.72    1.93   1
  15 -23  -8    2.89    1.70   1
  15 -23  -7   14.34    3.79   1
  15 -23  -4   17.62    4.20   1
  15 -23  -3    6.56    2.56   1
  15 -23  -2   11.55    3.40   1
  15 -23  -1   10.34    3.22   1
  15 -23   1    3.15    1.77   1
  15 -23   2    7.72    2.78   1
  15 -23   3    1.99    1.41   1
  15 -23   4    7.88    2.81   1
  15 -23   5    2.67    1.64   1
  15 -23   6    3.75    1.94   1
  15 -23   7   12.82    3.58   1
  15 -23   8    7.43    2.72   1
  15 -23   9    8.25    2.87   1
  15 -21 -18   12.08    3.48   1
  15 -21 -14   13.20    3.63   1
  15 -21 -11    5.99    2.45   1
  15 -21  -9    4.72    2.17   1
  15 -21  -8    7.03    2.65   1
  15 -21  -7    7.38    2.72   1
  15 -21  -6    7.88    2.81   1
  15 -21  -3    2.66    1.63   1
  15 -21  -2    7.58    2.75   1
  15 -21  -1    2.54    1.60   1
  15 -21   0   20.04    4.48   1
  15 -21   2   14.26    3.78   1
  15 -21   4    3.08    1.75   1
  15 -21   5   17.14    4.14   1
  15 -21   7    5.70    2.39   1
  15 -21   8    8.70    2.95   1
  15 -21  11    1.98    1.41   1
  15 -21  13    2.90    1.70   1
  15 -21  14   13.13    3.62   1
  15 -21  15    5.28    2.30   1
  15 -21  16   12.94    3.60   1
  15 -19 -20   16.20    4.03   1
  15 -19 -18   10.35    3.22   1
  15 -19 -16    6.53    2.56   1
  15 -19 -15   11.70    3.42   1
  15 -19 -14    2.88    1.70   1
  15 -19 -12    2.10    1.45   1
  15 -19  -9    3.50    1.87   1
  15 -19  -8    3.00    1.73   1
  15 -19  -7    2.14    1.46   1
  15 -19  -6    1.95    1.40   1
  15 -19  -5   17.45    4.18   1
  15 -19  -4   13.47    3.67   1
  15 -19  -2    3.86    1.96   1
  15 -19  -1    6.93    2.63   1
  15 -19   0    4.05    2.01   1
  15 -19   1    4.05    2.01   1
  15 -19   2    9.58    3.10   1
  15 -19   5   11.21    3.35   1
  15 -19   6    3.66    1.91   1
  15 -19   7   15.34    3.92   1
  15 -19   8    7.74    2.78   1
  15 -19  14    2.55    1.60   1
  15 -19  15    3.24    1.80   1
  15 -19  18   16.88    4.11   1
  15 -17 -20   18.60    4.31   1
  15 -17 -18    6.21    2.49   1
  15 -17 -17    5.03    2.24   1
  15 -17 -16    8.13    2.85   1
  15 -17 -15    6.72    2.59   1
  15 -17 -13    2.14    1.46   1
  15 -17 -11    5.82    2.41   1
  15 -17 -10    2.10    1.45   1
  15 -17  -7   13.05    3.61   1
  15 -17  -6    8.55    2.92   1
  15 -17  -4   20.63    4.54   1
  15 -17  -3   11.54    3.40   1
  15 -17  -2   26.35    5.13   1
  15 -17  -1   24.00    4.90   1
  15 -17   2   18.65    4.32   1
  15 -17   4   10.88    3.30   1
  15 -17   5    2.85    1.69   1
  15 -17   6   23.72    4.87   1
  15 -17   9    3.90    1.97   1
  15 -17  10    2.81    1.68   1
  15 -17  14    5.50    2.35   1
  15 -17  16   26.25    5.12   1
  15 -17  21   16.80    4.10   1
  15 -17  23    5.63    2.37   1
  15 -15 -20   11.29    3.36   1
  15 -15 -19   13.95    3.73   1
  15 -15 -16   18.75    4.33   1
  15 -15 -15    3.94    1.98   1
  15 -15 -14    6.53    2.55   1
  15 -15 -13    3.90    1.97   1
  15 -15 -12    5.89    2.43   1
  15 -15  -9   14.03    3.75   1
  15 -15  -7    4.39    2.10   1
  15 -15  -6   26.63    5.16   1
  15 -15  -3    6.19    2.49   1
  15 -15  -2    8.21    2.87   1
  15 -15  -1   10.43    3.23   1
  15 -15   1   17.40    4.17   1
  15 -15   2    2.14    1.46   1
  15 -15   4   37.42    6.12   1
  15 -15   6    4.54    2.13   1
  15 -15   7    8.06    2.84   1
  15 -15  11   14.37    3.79   1
  15 -15  12    3.86    1.97   1
  15 -15  13   13.46    3.67   1
  15 -15  14    7.71    2.78   1
  15 -15  15    7.06    2.66   1
  15 -15  17    1.55    1.24   1
  15 -15  18    4.95    2.22   1
  15 -15  21    1.95    1.40   1
  15 -15  22    6.45    2.54   1
  15 -13 -22    7.88    2.81   1
  15 -13 -21   17.17    4.14   1
  15 -13 -15   13.00    3.60   1
  15 -13 -13    7.20    2.68   1
  15 -13 -12   16.20    4.02   1
  15 -13  -8   21.75    4.66   1
  15 -13  -7    7.88    2.81   1
  15 -13  -6    8.70    2.95   1
  15 -13  -5   13.17    3.63   1
  15 -13  -2    4.13    2.03   1
  15 -13  -1   12.82    3.58   1
  15 -13   0   18.92    4.35   1
  15 -13   2   13.25    3.64   1
  15 -13   5   41.14    6.41   1
  15 -13   6    9.68    3.11   1
  15 -13   7   16.08    4.01   1
  15 -13  11    4.75    2.18   1
  15 -13  12   10.13    3.18   1
  15 -13  13    8.40    2.90   1
  15 -13  17   10.82    3.29   1
  15 -13  18    9.21    3.03   1
  15 -13  19   23.02    4.80   1
  15 -13  20    2.22    1.49   1
  15 -13  21    3.62    1.90   1
  15 -13  23    4.84    2.20   1
  15 -11 -22   33.48    5.79   1
  15 -11 -21   11.71    3.42   1
  15 -11 -20    1.70    1.30   1
  15 -11 -19   10.74    3.28   1
  15 -11 -18   14.36    3.79   1
  15 -11 -17   23.89    4.89   1
  15 -11 -13    5.18    2.27   1
  15 -11 -10   16.27    4.03   1
  15 -11  -9   14.99    3.87   1
  15 -11  -8   15.15    3.89   1
  15 -11  -7   18.82    4.34   1
  15 -11  -3   19.62    4.43   1
  15 -11  -2   19.84    4.45   1
  15 -11  -1   11.58    3.40   1
  15 -11   1   25.25    5.03   1
  15 -11   2   25.68    5.07   1
  15 -11   3    8.69    2.95   1
  15 -11   5    7.40    2.72   1
  15 -11   7   34.39    5.86   1
  15 -11   8   10.84    3.29   1
  15 -11   9    4.42    2.10   1
  15 -11  11    5.14    2.27   1
  15 -11  12    4.20    2.05   1
  15 -11  16    4.76    2.18   1
  15 -11  20    6.44    2.54   1
  15 -11  24   21.04    4.59   1
  15  -9 -24    7.84    2.80   1
  15  -9 -20    4.10    2.03   1
  15  -9 -18    2.36    1.54   1
  15  -9 -15   18.75    4.33   1
  15  -9 -14    3.94    1.98   1
  15  -9 -11   21.89    4.68   1
  15  -9  -9    8.25    2.87   1
  15  -9  -8   32.96    5.74   1
  15  -9  -6   22.24    4.72   1
  15  -9  -5   88.84    9.43   1
  15  -9  -3    3.30    1.82   1
  15  -9  -1   17.02    4.13   1
  15  -9   0   30.47    5.52   1
  15  -9   1    7.43    2.72   1
  15  -9   3   37.46    6.12   1
  15  -9   4  111.34   10.55   1
  15  -9   5  354.45   18.83   1
  15  -9   8   30.08    5.48   1
  15  -9   9   71.78    8.47   1
  15  -9  10   17.70    4.21   1
  15  -9  12    2.78    1.67   1
  15  -9  13   14.10    3.75   1
  15  -9  14   11.96    3.46   1
  15  -9  16   13.66    3.70   1
  15  -9  20    7.06    2.66   1
  15  -9  21    7.72    2.78   1
  15  -7 -23   14.81    3.85   1
  15  -7 -21   16.77    4.10   1
  15  -7 -16   18.60    4.31   1
  15  -7 -15   13.78    3.71   1
  15  -7 -12   45.00    6.71   1
  15  -7 -10    7.23    2.69   1
  15  -7  -9   17.21    4.15   1
  15  -7  -8   39.89    6.32   1
  15  -7  -7   11.84    3.44   1
  15  -7  -6    7.97    2.82   1
  15  -7  -5    5.81    2.41   1
  15  -7  -4    2.97    1.72   1
  15  -7  -3    8.70    2.95   1
  15  -7  -2    9.15    3.02   1
  15  -7  -1   10.08    3.17   1
  15  -7   0    4.16    2.04   1
  15  -7   3    5.66    2.38   1
  15  -7   5   16.02    4.00   1
  15  -7   7   21.60    4.65   1
  15  -7  10    7.47    2.73   1
  15  -7  11   15.93    3.99   1
  15  -7  15   41.89    6.47   1
  15  -7  18    4.88    2.21   1
  15  -7  21    5.32    2.31   1
  15  -7  23    5.29    2.30   1
  15  -5 -24   16.27    4.03   1
  15  -5 -22   11.37    3.37   1
  15  -5 -20    4.09    2.02   1
  15  -5 -19    5.88    2.42   1
  15  -5 -17   10.59    3.25   1
  15  -5 -16   21.90    4.68   1
  15  -5 -10    5.89    2.43   1
  15  -5  -7   12.30    3.51   1
  15  -5  -6   18.41    4.29   1
  15  -5  -5   49.91    7.06   1
  15  -5  -4   37.00    6.08   1
  15  -5  -3   21.15    4.60   1
  15  -5  -2    9.91    3.15   1
  15  -5  -1   10.46    3.23   1
  15  -5   1    1.58    1.25   1
  15  -5   2    9.66    3.11   1
  15  -5   3   13.40    3.66   1
  15  -5   5   13.46    3.67   1
  15  -5   6   30.11    5.49   1
  15  -5   7   10.56    3.25   1
  15  -5   8    9.01    3.00   1
  15  -5  12   36.11    6.01   1
  15  -5  13   10.41    3.23   1
  15  -5  15   10.56    3.25   1
  15  -5  17    8.55    2.92   1
  15  -5  18    5.70    2.39   1
  15  -5  23    1.80    1.34   1
  15  -5  24    3.97    1.99   1
  15  -3 -24   10.35    3.22   1
  15  -3 -21   22.26    4.72   1
  15  -3 -20   12.23    3.50   1
  15  -3 -11   45.90    6.77   1
  15  -3 -10    2.33    1.53   1
  15  -3  -7   27.41    5.24   1
  15  -3  -6   12.36    3.52   1
  15  -3  -4   12.15    3.49   1
  15  -3  -3   25.57    5.06   1
  15  -3  -1    3.75    1.94   1
  15  -3   2   16.45    4.06   1
  15  -3   3   14.10    3.75   1
  15  -3   5    9.78    3.13   1
  15  -3   6    9.82    3.13   1
  15  -3   7    3.83    1.96   1
  15  -3   8   18.37    4.29   1
  15  -3   9   11.63    3.41   1
  15  -3  21    4.95    2.22   1
  15  -3  24    1.73    1.31   1
  15  -1 -24    5.05    2.25   1
  15  -1 -23   14.25    3.77   1
  15  -1 -22   21.52    4.64   1
  15  -1 -21    2.95    1.72   1
  15  -1 -17    4.50    2.12   1
  15  -1 -15    7.11    2.67   1
  15  -1 -10    9.78    3.13   1
  15  -1  -9   12.94    3.60   1
  15  -1  -8    8.12    2.85   1
  15  -1  -7    6.04    2.46   1
  15  -1  -5   76.47    8.74   1
  15  -1  -4    5.55    2.36   1
  15  -1  -3   12.07    3.47   1
  15  -1  -2   24.00    4.90   1
  15  -1   0   22.49    4.74   1
  15  -1   1   37.25    6.10   1
  15  -1   2   24.19    4.92   1
  15  -1   3    8.70    2.95   1
  15  -1   4   15.38    3.92   1
  15  -1   5   51.07    7.15   1
  15  -1   7   15.96    3.99   1
  15  -1  10   16.58    4.07   1
  15  -1  11    9.23    3.04   1
  15  -1  14   26.63    5.16   1
  15  -1  15  139.27   11.80   1
  15  -1  19    4.65    2.16   1
  15  -1  20    5.88    2.43   1
  15   1 -23    8.22    2.87   1
  15   1 -18   16.16    4.02   1
  15   1 -16    4.35    2.09   1
  15   1 -15    8.70    2.95   1
  15   1 -12   10.35    3.22   1
  15   1  -7   24.79    4.98   1
  15   1  -5   56.96    7.55   1
  15   1  -4    9.23    3.04   1
  15   1  -3    7.61    2.76   1
  15   1  -2    9.38    3.06   1
  15   1   0   15.77    3.97   1
  15   1   1   20.63    4.54   1
  15   1   2   10.50    3.24   1
  15   1   3    4.20    2.05   1
  15   1   4    4.20    2.05   1
  15   1   5   56.10    7.49   1
  15   1   6   29.65    5.45   1
  15   1   7   19.73    4.44   1
  15   1  10   13.60    3.69   1
  15   1  11   20.02    4.47   1
  15   1  12    9.58    3.09   1
  15   1  13   16.20    4.02   1
  15   1  14    3.80    1.95   1
  15   1  15   22.58    4.75   1
  15   1  17    9.85    3.14   1
  15   1  19   13.27    3.64   1
  15   1  20    6.35    2.52   1
  15   1  21    9.35    3.06   1
  15   1  23    8.05    2.84   1
  15   3 -20    6.84    2.61   1
  15   3 -12    7.75    2.78   1
  15   3 -10   30.30    5.50   1
  15   3  -9   35.47    5.96   1
  15   3  -8   21.23    4.61   1
  15   3  -7   15.38    3.92   1
  15   3  -6   14.15    3.76   1
  15   3  -5   16.35    4.04   1
  15   3  -4   30.94    5.56   1
  15   3  -3    3.53    1.88   1
  15   3  -2    1.88    1.37   1
  15   3   2    8.20    2.86   1
  15   3   4    5.03    2.24   1
  15   3   5   24.16    4.92   1
  15   3   7   15.54    3.94   1
  15   3   8   12.09    3.48   1
  15   3   9    1.64    1.28   1
  15   3  14   16.27    4.03   1
  15   3  20    8.80    2.97   1
  15   3  22   11.40    3.38   1
  15   3  24    6.53    2.55   1
  15   5 -23    9.48    3.08   1
  15   5 -21    6.04    2.46   1
  15   5 -19    5.55    2.36   1
  15   5 -18   23.92    4.89   1
  15   5 -17    6.49    2.55   1
  15   5 -14   23.92    4.89   1
  15   5 -13    6.28    2.51   1
  15   5 -12    2.30    1.52   1
  15   5 -11    3.19    1.79   1
  15   5 -10   13.58    3.68   1
  15   5  -9   13.51    3.68   1
  15   5  -6   15.23    3.90   1
  15   5  -5   34.17    5.85   1
  15   5  -4   46.00    6.78   1
  15   5  -3   10.73    3.27   1
  15   5  -2   13.16    3.63   1
  15   5  -1   13.80    3.71   1
  15   5   0   12.07    3.47   1
  15   5   1    4.92    2.22   1
  15   5   2   11.10    3.33   1
  15   5   3    5.94    2.44   1
  15   5   5   99.00    9.95   1
  15   5   6   10.75    3.28   1
  15   5   7   34.47    5.87   1
  15   5  10    4.16    2.04   1
  15   5  11    7.84    2.80   1
  15   5  13   11.96    3.46   1
  15   5  14   14.10    3.75   1
  15   5  15    2.36    1.54   1
  15   5  19    2.63    1.62   1
  15   5  20   11.55    3.40   1
  15   5  24    5.47    2.34   1
  15   7 -22    9.72    3.12   1
  15   7 -14   72.22    8.50   1
  15   7 -12   81.26    9.01   1
  15   7 -11   23.85    4.88   1
  15   7  -8   37.09    6.09   1
  15   7  -7   41.36    6.43   1
  15   7  -6   20.40    4.52   1
  15   7  -5    6.83    2.61   1
  15   7  -4    8.09    2.84   1
  15   7  -2   10.05    3.17   1
  15   7  -1    9.00    3.00   1
  15   7   0   12.36    3.52   1
  15   7   2   10.35    3.22   1
  15   7   3   27.52    5.25   1
  15   7   4    4.43    2.10   1
  15   7   5   33.97    5.83   1
  15   7   7   42.19    6.50   1
  15   7   8   52.50    7.25   1
  15   7   9   25.59    5.06   1
  15   7  12    2.44    1.56   1
  15   7  13  152.13   12.33   1
  15   7  14   56.05    7.49   1
  15   7  15  102.97   10.15   1
  15   7  16    2.05    1.43   1
  15   7  17   18.34    4.28   1
  15   7  18    4.40    2.10   1
  15   7  19   23.88    4.89   1
  15   7  21   16.46    4.06   1
  15   7  22    3.75    1.94   1
  15   7  24    4.15    2.04   1
  15   9 -24    5.79    2.41   1
  15   9 -17    4.67    2.16   1
  15   9 -16    5.50    2.35   1
  15   9 -15   24.50    4.95   1
  15   9 -13   34.99    5.92   1
  15   9 -12    3.86    1.97   1
  15   9  -8   24.30    4.93   1
  15   9  -7   23.85    4.88   1
  15   9  -6   25.00    5.00   1
  15   9  -5  200.58   14.16   1
  15   9  -4  330.06   18.17   1
  15   9  -3   48.41    6.96   1
  15   9  -2   81.54    9.03   1
  15   9   2   16.27    4.03   1
  15   9   3   63.05    7.94   1
  15   9   4   56.22    7.50   1
  15   9   5  524.13   22.89   1
  15   9   6   70.43    8.39   1
  15   9   9   46.91    6.85   1
  15   9  10    3.75    1.94   1
  15   9  12    4.41    2.10   1
  15   9  13   22.05    4.70   1
  15   9  15   42.71    6.54   1
  15   9  22    7.98    2.82   1
  15   9  23    2.52    1.59   1
  15  11 -24    7.39    2.72   1
  15  11 -19   17.55    4.19   1
  15  11 -14    7.43    2.72   1
  15  11 -13   11.70    3.42   1
  15  11 -10    4.72    2.17   1
  15  11  -9   33.25    5.77   1
  15  11  -6    6.69    2.59   1
  15  11  -5    6.70    2.59   1
  15  11  -4    7.20    2.68   1
  15  11  -3   15.02    3.88   1
  15  11  -2   11.40    3.38   1
  15  11  -1    3.38    1.84   1
  15  11   1   29.25    5.41   1
  15  11   3    8.25    2.87   1
  15  11   4   15.44    3.93   1
  15  11   5   53.40    7.31   1
  15  11   7   10.79    3.28   1
  15  11   9    5.82    2.41   1
  15  11  11    3.75    1.94   1
  15  11  12   20.29    4.50   1
  15  11  23   12.87    3.59   1
  15  13 -24    7.54    2.75   1
  15  13 -15    9.30    3.05   1
  15  13 -13    7.54    2.75   1
  15  13 -10   24.58    4.96   1
  15  13  -8   24.98    5.00   1
  15  13  -7   12.90    3.59   1
  15  13  -6   16.09    4.01   1
  15  13  -5    4.80    2.19   1
  15  13  -4   67.53    8.22   1
  15  13  -3    7.00    2.65   1
  15  13  -2   26.10    5.11   1
  15  13  -1   18.66    4.32   1
  15  13   0   52.68    7.26   1
  15  13   2    6.28    2.51   1
  15  13   4   30.71    5.54   1
  15  13   5   36.89    6.07   1
  15  13   6    4.25    2.06   1
  15  13   8    4.20    2.05   1
  15  13  10   14.04    3.75   1
  15  13  14   15.19    3.90   1
  15  13  16   17.90    4.23   1
  15  13  19   17.33    4.16   1
  15  13  21   10.20    3.19   1
  15  13  24    4.97    2.23   1
  15  15 -18    4.72    2.17   1
  15  15 -17    1.75    1.32   1
  15  15 -15    9.52    3.09   1
  15  15  -9    8.31    2.88   1
  15  15  -8    7.95    2.82   1
  15  15  -7    3.45    1.86   1
  15  15  -6   45.56    6.75   1
  15  15  -5   38.17    6.18   1
  15  15  -3   12.84    3.58   1
  15  15  -2   16.63    4.08   1
  15  15   0   12.64    3.55   1
  15  15   2    5.36    2.32   1
  15  15   3    4.01    2.00   1
  15  15   4    8.67    2.95   1
  15  15   6    2.03    1.42   1
  15  15   7   37.72    6.14   1
  15  15   9    4.28    2.07   1
  15  15  10   24.75    4.97   1
  15  15  11   15.95    3.99   1
  15  15  12    4.28    2.07   1
  15  15  13   12.19    3.49   1
  15  15  16    2.20    1.48   1
  15  15  21    6.97    2.64   1
  15  17 -24    5.93    2.43   1
  15  17 -20    3.40    1.84   1
  15  17 -19   13.61    3.69   1
  15  17 -18    4.95    2.22   1
  15  17 -17   14.32    3.78   1
  15  17 -13   16.38    4.05   1
  15  17  -8    2.05    1.43   1
  15  17  -7    4.76    2.18   1
  15  17  -6    5.03    2.24   1
  15  17  -5   19.73    4.44   1
  15  17  -4   57.22    7.56   1
  15  17  -2   38.30    6.19   1
  15  17  -1    1.73    1.31   1
  15  17   0    9.07    3.01   1
  15  17   2    2.84    1.68   1
  15  17   4   31.24    5.59   1
  15  17   5   10.50    3.24   1
  15  17   6   30.83    5.55   1
  15  17   7    2.91    1.71   1
  15  17   9    2.55    1.60   1
  15  17  12    5.21    2.28   1
  15  17  15    7.71    2.78   1
  15  17  16   10.50    3.24   1
  15  17  17    4.05    2.01   1
  15  17  19    8.77    2.96   1
  15  17  22    7.60    2.76   1
  15  17  24    9.07    3.01   1
  15  19 -21   11.29    3.36   1
  15  19 -20   10.46    3.23   1
  15  19 -16   14.93    3.86   1
  15  19 -15   11.44    3.38   1
  15  19 -12   13.44    3.67   1
  15  19  -9    4.46    2.11   1
  15  19  -7   11.66    3.42   1
  15  19  -6   16.88    4.11   1
  15  19  -4    2.85    1.69   1
  15  19  -2    4.54    2.13   1
  15  19  -1   14.85    3.85   1
  15  19   0    5.67    2.38   1
  15  19   2    7.89    2.81   1
  15  19   3   21.85    4.67   1
  15  19   4   22.54    4.75   1
  15  19   9   14.50    3.81   1
  15  19  10   10.36    3.22   1
  15  19  11   14.40    3.79   1
  15  19  14   10.52    3.24   1
  15  19  17   16.13    4.02   1
  15  19  18    7.91    2.81   1
  15  19  19   10.13    3.18   1
  15  19  21    5.51    2.35   1
  15  21 -20    4.80    2.19   1
  15  21 -19    2.66    1.63   1
  15  21 -15    1.99    1.41   1
  15  21 -13    3.22    1.80   1
  15  21 -12   31.42    5.61   1
  15  21 -11   11.47    3.39   1
  15  21  -6    3.64    1.91   1
  15  21  -4   39.43    6.28   1
  15  21  -2   12.82    3.58   1
  15  21  -1    4.57    2.14   1
  15  21   2    6.22    2.49   1
  15  21   5   44.06    6.64   1
  15  21   6   31.39    5.60   1
  15  21   8   15.04    3.88   1
  15  21   9   11.63    3.41   1
  15  21  10   10.17    3.19   1
  15  21  11   17.21    4.15   1
  15  21  12   10.35    3.22   1
  15  21  13   16.95    4.12   1
  15  21  16    6.20    2.49   1
  15  21  18    4.43    2.10   1
  15  21  19    7.17    2.68   1
  15  23 -11    2.78    1.67   1
  15  23  -4   11.18    3.34   1
  15  23  -3    7.38    2.72   1
  15  23  -2    4.13    2.03   1
  15  23  -1   12.86    3.59   1
  15  23   1   11.14    3.34   1
  15  23   2    6.45    2.54   1
  15  23   4   15.98    4.00   1
  15  23   5    6.07    2.46   1
  15  23   6    5.93    2.43   1
  15  23   7   12.19    3.49   1
  15  23   8    3.94    1.98   1
  15  23  15    4.52    2.13   1
  16 -24  -8   21.91    4.68   1
  16 -24  -6    3.60    1.90   1
  16 -24  -5   15.83    3.98   1
  16 -24  -4   12.95    3.60   1
  16 -24  -3    2.70    1.64   1
  16 -24  -2    7.05    2.66   1
  16 -24  -1   13.62    3.69   1
  16 -24   0    5.67    2.38   1
  16 -24   1   15.29    3.91   1
  16 -24   3    5.70    2.39   1
  16 -24   4    1.84    1.36   1
  16 -24   5    6.41    2.53   1
  16 -24   6    3.64    1.91   1
  16 -24   7   16.73    4.09   1
  16 -22 -14   16.42    4.05   1
  16 -22 -13    4.01    2.00   1
  16 -22 -11    9.54    3.09   1
  16 -22  -6    4.05    2.01   1
  16 -22  -5   12.97    3.60   1
  16 -22   0    6.90    2.63   1
  16 -22   1   27.30    5.22   1
  16 -22   2    1.58    1.25   1
  16 -22   3   10.43    3.23   1
  16 -22   4    6.39    2.53   1
  16 -22   6    7.93    2.82   1
  16 -22  10    4.18    2.05   1
  16 -22  11    5.81    2.41   1
  16 -22  12   10.50    3.24   1
  16 -20 -17    8.04    2.83   1
  16 -20 -15   11.00    3.32   1
  16 -20 -14    4.23    2.06   1
  16 -20 -12    7.80    2.79   1
  16 -20 -10    8.25    2.87   1
  16 -20  -9    6.63    2.58   1
  16 -20  -8    5.67    2.38   1
  16 -20  -7   15.15    3.89   1
  16 -20  -6    9.52    3.09   1
  16 -20  -5    4.43    2.10   1
  16 -20  -4    4.92    2.22   1
  16 -20  -2    9.27    3.04   1
  16 -20   0    4.95    2.23   1
  16 -20   1   10.88    3.30   1
  16 -20   2    7.95    2.82   1
  16 -20   3    2.44    1.56   1
  16 -20   4    4.95    2.22   1
  16 -20   5    8.98    3.00   1
  16 -20   6   13.69    3.70   1
  16 -20   7   11.36    3.37   1
  16 -20   8   25.58    5.06   1
  16 -20   9    6.83    2.61   1
  16 -20  10    9.41    3.07   1
  16 -18 -18    5.25    2.29   1
  16 -18 -17    8.62    2.94   1
  16 -18 -16    6.00    2.45   1
  16 -18 -15   16.76    4.09   1
  16 -18 -12   11.85    3.44   1
  16 -18  -9    7.82    2.80   1
  16 -18  -8    6.94    2.63   1
  16 -18  -7    6.30    2.51   1
  16 -18  -5    3.41    1.85   1
  16 -18  -3   18.03    4.25   1
  16 -18  -2   12.54    3.54   1
  16 -18   1    3.60    1.90   1
  16 -18   2   13.68    3.70   1
  16 -18   3   12.77    3.57   1
  16 -18   4    5.90    2.43   1
  16 -18   5   13.91    3.73   1
  16 -18   7   19.86    4.46   1
  16 -18   8    8.32    2.89   1
  16 -18   9   11.67    3.42   1
  16 -18  12    2.59    1.61   1
  16 -18  13   18.49    4.30   1
  16 -18  14   11.63    3.41   1
  16 -18  16    6.15    2.48   1
  16 -18  18   16.23    4.03   1
  16 -16 -21   11.10    3.33   1
  16 -16 -19   20.01    4.47   1
  16 -16 -18    7.50    2.74   1
  16 -16 -17    5.64    2.37   1
  16 -16 -15   15.55    3.94   1
  16 -16 -14   12.75    3.57   1
  16 -16 -13    6.38    2.52   1
  16 -16  -9   10.95    3.31   1
  16 -16  -8    3.67    1.92   1
  16 -16  -7    8.85    2.97   1
  16 -16  -6   31.21    5.59   1
  16 -16  -5   15.68    3.96   1
  16 -16  -4    1.88    1.37   1
  16 -16  -3   18.83    4.34   1
  16 -16  -2   16.13    4.02   1
  16 -16  -1    6.95    2.64   1
  16 -16   0    9.52    3.09   1
  16 -16   1   16.65    4.08   1
  16 -16   2   12.69    3.56   1
  16 -16   3    7.03    2.65   1
  16 -16   6   12.68    3.56   1
  16 -16   8   17.75    4.21   1
  16 -16  11    4.60    2.14   1
  16 -16  12    7.42    2.72   1
  16 -16  16   10.46    3.23   1
  16 -16  17   22.50    4.74   1
  16 -14 -24   23.92    4.89   1
  16 -14 -23    2.29    1.51   1
  16 -14 -20    6.04    2.46   1
  16 -14 -18    5.66    2.38   1
  16 -14 -17   18.56    4.31   1
  16 -14 -12   11.18    3.34   1
  16 -14  -9    8.65    2.94   1
  16 -14  -7    7.23    2.69   1
  16 -14  -5   13.87    3.72   1
  16 -14  -4    5.90    2.43   1
  16 -14  -2    3.49    1.87   1
  16 -14   2   37.02    6.08   1
  16 -14   3    3.86    1.97   1
  16 -14   4    4.90    2.21   1
  16 -14   6    2.63    1.62   1
  16 -14   7   11.78    3.43   1
  16 -14   9   21.04    4.59   1
  16 -14  10    2.65    1.63   1
  16 -14  16   16.05    4.01   1
  16 -14  24   10.06    3.17   1
  16 -12 -23    3.22    1.80   1
  16 -12 -22    2.55    1.60   1
  16 -12 -21    8.73    2.96   1
  16 -12 -20   13.24    3.64   1
  16 -12 -19   11.51    3.39   1
  16 -12 -18   13.80    3.71   1
  16 -12 -14    8.10    2.85   1
  16 -12 -11   19.51    4.42   1
  16 -12 -10    9.52    3.09   1
  16 -12  -7   10.27    3.21   1
  16 -12  -4   14.02    3.74   1
  16 -12  -2   14.73    3.84   1
  16 -12  -1   16.87    4.11   1
  16 -12   1   10.27    3.21   1
  16 -12   2   13.99    3.74   1
  16 -12   3   18.60    4.31   1
  16 -12   4   16.88    4.11   1
  16 -12   5   61.15    7.82   1
  16 -12   7   31.27    5.59   1
  16 -12  16    3.75    1.94   1
  16 -12  19    2.92    1.71   1
  16 -12  23   12.60    3.55   1
  16 -10 -23   18.17    4.26   1
  16 -10 -21    4.89    2.21   1
  16 -10 -18    3.22    1.80   1
  16 -10 -16   16.20    4.02   1
  16 -10 -15   17.22    4.15   1
  16 -10 -10    6.98    2.64   1
  16 -10  -8   11.25    3.35   1
  16 -10  -7   10.08    3.17   1
  16 -10  -6    4.24    2.06   1
  16 -10  -4   28.21    5.31   1
  16 -10  -1    7.54    2.75   1
  16 -10   0   88.30    9.40   1
  16 -10   1   60.90    7.80   1
  16 -10   2   52.46    7.24   1
  16 -10   3   11.22    3.35   1
  16 -10   5    8.63    2.94   1
  16 -10   6   12.87    3.59   1
  16 -10   9   19.50    4.42   1
  16 -10  13    7.32    2.71   1
  16 -10  15   17.33    4.16   1
  16 -10  16   17.44    4.18   1
  16 -10  17    2.25    1.50   1
  16 -10  20   19.58    4.42   1
  16 -10  23    7.31    2.70   1
  16  -8 -23   12.02    3.47   1
  16  -8 -22    7.18    2.68   1
  16  -8 -17   14.18    3.76   1
  16  -8 -16    1.53    1.23   1
  16  -8 -14   17.90    4.23   1
  16  -8  -6    2.78    1.67   1
  16  -8  -5   33.30    5.77   1
  16  -8  -4    7.80    2.79   1
  16  -8  -3   18.90    4.35   1
  16  -8  -1   29.03    5.39   1
  16  -8   0   22.84    4.78   1
  16  -8   1   25.95    5.09   1
  16  -8   2   14.32    3.78   1
  16  -8   3   12.30    3.51   1
  16  -8   4   51.75    7.19   1
  16  -8   8   16.50    4.06   1
  16  -8  11    1.70    1.30   1
  16  -8  12   10.07    3.17   1
  16  -8  14    3.30    1.82   1
  16  -8  16   14.52    3.81   1
  16  -8  24    5.32    2.31   1
  16  -6 -23   18.98    4.36   1
  16  -6 -19    8.49    2.91   1
  16  -6 -18    1.91    1.38   1
  16  -6 -17    2.66    1.63   1
  16  -6 -16   15.52    3.94   1
  16  -6  -9   19.55    4.42   1
  16  -6  -5   11.44    3.38   1
  16  -6  -4    8.95    2.99   1
  16  -6  -2   23.33    4.83   1
  16  -6   0   92.70    9.63   1
  16  -6   1  122.70   11.08   1
  16  -6   2   54.44    7.38   1
  16  -6   3   15.07    3.88   1
  16  -6   5    2.22    1.49   1
  16  -6   7   15.86    3.98   1
  16  -6   9    9.14    3.02   1
  16  -6  11    6.46    2.54   1
  16  -6  12    1.83    1.35   1
  16  -6  16    4.08    2.02   1
  16  -6  17    4.33    2.08   1
  16  -6  24   17.80    4.22   1
  16  -4 -21    1.76    1.33   1
  16  -4 -16   15.98    4.00   1
  16  -4 -12   28.14    5.30   1
  16  -4  -9    1.69    1.30   1
  16  -4  -8   19.30    4.39   1
  16  -4  -7   13.13    3.62   1
  16  -4  -4   24.60    4.96   1
  16  -4   0   26.53    5.15   1
  16  -4   1   27.56    5.25   1
  16  -4   2   28.03    5.29   1
  16  -4   4   20.33    4.51   1
  16  -4   9   14.55    3.81   1
  16  -4  11   12.30    3.51   1
  16  -4  13   12.40    3.52   1
  16  -4  15    1.73    1.31   1
  16  -4  20   11.55    3.40   1
  16  -4  21    9.64    3.10   1
  16  -4  22   12.57    3.55   1
  16  -2 -24    5.29    2.30   1
  16  -2 -17   16.68    4.08   1
  16  -2 -16   10.25    3.20   1
  16  -2 -13    7.50    2.74   1
  16  -2 -11   12.15    3.49   1
  16  -2 -10    9.71    3.12   1
  16  -2  -9   20.66    4.55   1
  16  -2  -8   22.09    4.70   1
  16  -2  -4    6.82    2.61   1
  16  -2  -1    4.75    2.18   1
  16  -2   0   35.94    6.00   1
  16  -2   1    7.29    2.70   1
  16  -2   2   36.47    6.04   1
  16  -2   3   10.02    3.17   1
  16  -2   7   25.82    5.08   1
  16  -2   8   13.68    3.70   1
  16  -2   9   12.60    3.55   1
  16  -2  22   16.73    4.09   1
  16  -2  24    9.30    3.05   1
  16   0 -22    2.07    1.44   1
  16   0 -18    5.12    2.26   1
  16   0 -15    3.64    1.91   1
  16   0 -14    7.52    2.74   1
  16   0 -12   33.80    5.81   1
  16   0 -11   24.35    4.93   1
  16   0 -10   49.56    7.04   1
  16   0  -9   58.92    7.68   1
  16   0  -8   40.05    6.33   1
  16   0  -7   37.20    6.10   1
  16   0  -6    9.63    3.10   1
  16   0  -5   12.23    3.50   1
  16   0  -4   24.38    4.94   1
  16   0  -3   18.05    4.25   1
  16   0  -2   20.30    4.51   1
  16   0  -1   15.45    3.93   1
  16   0   0   51.79    7.20   1
  16   0   3    8.36    2.89   1
  16   0   4   10.06    3.17   1
  16   0   5   40.35    6.35   1
  16   0   6   47.44    6.89   1
  16   0   8    8.93    2.99   1
  16   0   9   37.56    6.13   1
  16   0  12    7.85    2.80   1
  16   0  17   10.88    3.30   1
  16   0  20    1.94    1.39   1
  16   0  24    4.57    2.14   1
  16   2 -21    3.76    1.94   1
  16   2 -17   17.15    4.14   1
  16   2 -14   16.95    4.12   1
  16   2 -13   19.73    4.44   1
  16   2 -11    6.07    2.46   1
  16   2 -10   16.40    4.05   1
  16   2  -9   40.54    6.37   1
  16   2  -8   20.40    4.52   1
  16   2  -7    2.58    1.60   1
  16   2  -6    9.51    3.08   1
  16   2  -4    3.67    1.92   1
  16   2  -3   26.82    5.18   1
  16   2  -2   21.72    4.66   1
  16   2  -1   14.10    3.75   1
  16   2   0   29.89    5.47   1
  16   2   1   52.65    7.26   1
  16   2   2   26.40    5.14   1
  16   2   3   10.30    3.21   1
  16   2   8   12.19    3.49   1
  16   2   9    8.66    2.94   1
  16   2  10   25.69    5.07   1
  16   2  11   27.25    5.22   1
  16   2  13   11.89    3.45   1
  16   2  19   11.89    3.45   1
  16   2  21    1.90    1.38   1
  16   2  22   16.50    4.06   1
  16   2  23    2.63    1.62   1
  16   4 -24    1.88    1.37   1
  16   4 -22    2.63    1.62   1
  16   4 -19    6.38    2.52   1
  16   4 -18    5.55    2.36   1
  16   4 -16    4.16    2.04   1
  16   4 -14   14.41    3.80   1
  16   4 -13   13.27    3.64   1
  16   4 -12    8.73    2.95   1
  16   4  -9   31.58    5.62   1
  16   4  -8   20.37    4.51   1
  16   4  -3   13.50    3.67   1
  16   4  -2   14.28    3.78   1
  16   4  -1   15.38    3.92   1
  16   4   0    6.00    2.45   1
  16   4   1   18.56    4.31   1
  16   4   2   21.08    4.59   1
  16   4   3    6.22    2.49   1
  16   4   7   18.69    4.32   1
  16   4   8   17.63    4.20   1
  16   4   9    2.67    1.64   1
  16   4  10   32.03    5.66   1
  16   4  13    6.91    2.63   1
  16   4  16    4.59    2.14   1
  16   6 -21    6.19    2.49   1
  16   6 -20    7.62    2.76   1
  16   6 -18    9.45    3.07   1
  16   6 -14   16.35    4.04   1
  16   6 -12   20.73    4.55   1
  16   6  -9   35.25    5.94   1
  16   6  -5    8.44    2.90   1
  16   6  -3   10.15    3.19   1
  16   6  -2   56.81    7.54   1
  16   6  -1   70.35    8.39   1
  16   6   0  101.37   10.07   1
  16   6   1   98.20    9.91   1
  16   6   2   86.78    9.32   1
  16   6   5   20.04    4.48   1
  16   6   8    7.57    2.75   1
  16   6   9    6.75    2.60   1
  16   6  10   27.92    5.28   1
  16   6  11   27.45    5.24   1
  16   6  12    7.05    2.66   1
  16   6  13    5.71    2.39   1
  16   6  14   12.56    3.54   1
  16   6  15    1.91    1.38   1
  16   6  18    8.17    2.86   1
  16   6  20   13.27    3.64   1
  16   6  24    7.72    2.78   1
  16   8 -23    3.27    1.81   1
  16   8 -22    4.46    2.11   1
  16   8 -20   10.27    3.21   1
  16   8 -19    4.08    2.02   1
  16   8 -18    5.42    2.33   1
  16   8 -16    2.85    1.69   1
  16   8 -14   10.22    3.20   1
  16   8 -13    8.18    2.86   1
  16   8 -12    9.16    3.03   1
  16   8 -11    6.94    2.63   1
  16   8  -8    9.10    3.02   1
  16   8  -3   26.85    5.18   1
  16   8  -2    2.98    1.73   1
  16   8   0   27.83    5.27   1
  16   8   1   17.92    4.23   1
  16   8   2   21.99    4.69   1
  16   8   3    5.70    2.39   1
  16   8   4   14.79    3.85   1
  16   8   5   12.87    3.59   1
  16   8   6   14.93    3.86   1
  16   8   7   14.52    3.81   1
  16   8   8    1.58    1.25   1
  16   8  10   23.62    4.86   1
  16   8  11   20.55    4.53   1
  16   8  13    4.39    2.09   1
  16   8  14   22.20    4.71   1
  16   8  16   10.09    3.18   1
  16   8  19    5.85    2.42   1
  16   8  21    1.55    1.24   1
  16  10 -20    6.18    2.48   1
  16  10 -15    8.70    2.95   1
  16  10 -13   15.24    3.90   1
  16  10  -9   26.88    5.18   1
  16  10  -8   18.29    4.28   1
  16  10  -7    1.83    1.35   1
  16  10  -6   33.60    5.80   1
  16  10  -4   17.78    4.22   1
  16  10  -3    6.45    2.54   1
  16  10  -2   11.69    3.42   1
  16  10   0   53.85    7.34   1
  16  10   1   42.56    6.52   1
  16  10   2   24.86    4.99   1
  16  10   4    2.55    1.60   1
  16  10   5   13.57    3.68   1
  16  10   6   12.35    3.51   1
  16  10  10    7.09    2.66   1
  16  10  13   17.80    4.22   1
  16  10  19   20.38    4.51   1
  16  12 -23   12.34    3.51   1
  16  12 -22    9.52    3.09   1
  16  12 -21    2.13    1.46   1
  16  12 -19    6.27    2.50   1
  16  12 -16    7.11    2.67   1
  16  12 -12   13.24    3.64   1
  16  12 -11    9.81    3.13   1
  16  12 -10   16.94    4.12   1
  16  12  -6   10.31    3.21   1
  16  12  -4    5.71    2.39   1
  16  12  -2   11.18    3.34   1
  16  12  -1    8.63    2.94   1
  16  12   0   31.99    5.66   1
  16  12   1   27.77    5.27   1
  16  12   2   15.82    3.98   1
  16  12   4   11.02    3.32   1
  16  12   6   10.13    3.18   1
  16  12   7   23.13    4.81   1
  16  12   8   13.85    3.72   1
  16  12   9    7.43    2.72   1
  16  12  10   17.33    4.16   1
  16  12  11   13.01    3.61   1
  16  12  13    1.65    1.28   1
  16  12  14    1.94    1.39   1
  16  12  15   26.10    5.11   1
  16  12  16    3.53    1.88   1
  16  14 -22    2.55    1.60   1
  16  14 -21   10.43    3.23   1
  16  14 -20    3.41    1.85   1
  16  14 -15   23.44    4.84   1
  16  14 -14   14.87    3.86   1
  16  14 -13   11.18    3.34   1
  16  14 -11    7.88    2.81   1
  16  14  -8   12.95    3.60   1
  16  14  -7   17.36    4.17   1
  16  14  -4    2.70    1.64   1
  16  14  -3   18.34    4.28   1
  16  14  -2   13.39    3.66   1
  16  14  -1    8.93    2.99   1
  16  14   0   45.55    6.75   1
  16  14   1   33.93    5.82   1
  16  14   2   45.08    6.71   1
  16  14   3    2.03    1.42   1
  16  14   4    8.63    2.94   1
  16  14   6    1.80    1.34   1
  16  14   7    8.08    2.84   1
  16  14   9    9.70    3.11   1
  16  14  10   12.65    3.56   1
  16  14  12    9.87    3.14   1
  16  14  13    9.07    3.01   1
  16  14  15   15.38    3.92   1
  16  14  17   11.18    3.34   1
  16  14  18    5.47    2.34   1
  16  14  19    6.11    2.47   1
  16  14  20    8.37    2.89   1
  16  14  21    6.45    2.54   1
  16  16 -23    2.59    1.61   1
  16  16 -21    9.45    3.07   1
  16  16 -20    4.46    2.11   1
  16  16 -17    3.29    1.81   1
  16  16 -14   10.03    3.17   1
  16  16 -12    2.03    1.42   1
  16  16 -11    3.91    1.98   1
  16  16  -9    5.59    2.36   1
  16  16  -8    9.02    3.00   1
  16  16  -6   18.25    4.27   1
  16  16  -5   18.83    4.34   1
  16  16  -3    5.13    2.26   1
  16  16  -2   10.46    3.23   1
  16  16  -1   13.64    3.69   1
  16  16   0   13.19    3.63   1
  16  16   1   13.19    3.63   1
  16  16   2   37.67    6.14   1
  16  16   3    4.02    2.01   1
  16  16   5   19.39    4.40   1
  16  16   9    6.11    2.47   1
  16  16  11    2.26    1.50   1
  16  16  12    5.24    2.29   1
  16  16  14    4.65    2.16   1
  16  16  17    9.35    3.06   1
  16  16  20    8.66    2.94   1
  16  16  21   11.70    3.42   1
  16  18 -23    4.05    2.01   1
  16  18 -18    6.30    2.51   1
  16  18 -15   25.50    5.05   1
  16  18 -13    4.70    2.17   1
  16  18 -12   16.80    4.10   1
  16  18 -10    1.58    1.25   1
  16  18  -8   10.74    3.28   1
  16  18  -7   15.23    3.90   1
  16  18  -6    6.72    2.59   1
  16  18  -5   22.42    4.74   1
  16  18  -4   12.64    3.55   1
  16  18  -2   17.96    4.24   1
  16  18  -1    1.73    1.31   1
  16  18   0    6.39    2.53   1
  16  18   1   27.38    5.23   1
  16  18   2   15.23    3.90   1
  16  18   3   13.46    3.67   1
  16  18   4    8.02    2.83   1
  16  18  13   14.48    3.80   1
  16  18  14   10.95    3.31   1
  16  18  16    2.14    1.46   1
  16  18  20    8.66    2.94   1
  16  18  21   12.15    3.49   1
  16  20 -17   29.02    5.39   1
  16  20 -13    7.24    2.69   1
  16  20 -11    6.07    2.46   1
  16  20 -10   11.30    3.36   1
  16  20  -7    4.02    2.01   1
  16  20  -3   11.09    3.33   1
  16  20  -1    6.01    2.45   1
  16  20   0   13.45    3.67   1
  16  20   1   29.14    5.40   1
  16  20   2   25.39    5.04   1
  16  20   3    2.34    1.53   1
  16  20   6    6.29    2.51   1
  16  20   8   12.33    3.51   1
  16  20  10    2.30    1.52   1
  16  20  11   11.85    3.44   1
  16  20  15   12.90    3.59   1
  16  22  -9    7.45    2.73   1
  16  22  -7    8.51    2.92   1
  16  22  -5    3.94    1.98   1
  16  22  -4   20.02    4.47   1
  16  22  -3    2.63    1.62   1
  16  22   0    5.07    2.25   1
  16  22   1   20.02    4.47   1
  16  22   2    4.48    2.12   1
  16  22   4   11.20    3.35   1
  16  22   5   15.68    3.96   1
  16  22  11    5.17    2.27   1
  16  22  12    2.30    1.52   1
  16  22  14    2.66    1.63   1
  16  24 -12    2.17    1.47   1
  16  24 -10    7.80    2.79   1
  16  24  -9    8.59    2.93   1
  16  24  -8   11.32    3.37   1
  16  24  -7    8.44    2.90   1
  16  24  -3    5.47    2.34   1
  16  24   0   12.45    3.53   1
  16  24   1    6.55    2.56   1
  16  24   2   27.67    5.26   1
  16  24   5   10.91    3.30   1
  16  24   6   15.98    4.00   1
  16  24   9    6.00    2.45   1
  17 -23  -9   23.33    4.83   1
  17 -23  -7   13.61    3.69   1
  17 -23  -5    8.89    2.98   1
  17 -23  -4    6.07    2.46   1
  17 -23  -2    2.36    1.53   1
  17 -23  -1    4.61    2.15   1
  17 -23   0    2.47    1.57   1
  17 -23   1    8.18    2.86   1
  17 -23   3    5.59    2.36   1
  17 -23   4   12.38    3.52   1
  17 -23   5   20.66    4.55   1
  17 -23   7    3.15    1.77   1
  17 -23   8    3.95    1.99   1
  17 -21 -14    5.59    2.36   1
  17 -21 -13   11.85    3.44   1
  17 -21 -11   23.85    4.88   1
  17 -21 -10   13.54    3.68   1
  17 -21  -8    1.65    1.28   1
  17 -21  -7    2.75    1.66   1
  17 -21  -5    1.73    1.32   1
  17 -21  -4   10.91    3.30   1
  17 -21  -3   10.44    3.23   1
  17 -21  -2   12.45    3.53   1
  17 -21  -1   10.16    3.19   1
  17 -21   0    2.03    1.42   1
  17 -21   1    5.10    2.26   1
  17 -21   4   12.77    3.57   1
  17 -21   5   27.83    5.27   1
  17 -21   6    4.88    2.21   1
  17 -21   7    3.49    1.87   1
  17 -21   8   12.28    3.50   1
  17 -21   9    3.60    1.90   1
  17 -21  10    6.22    2.49   1
  17 -21  12    5.21    2.28   1
  17 -21  13   16.65    4.08   1
  17 -21  14    2.70    1.64   1
  17 -19 -17    4.01    2.00   1
  17 -19 -15    6.38    2.52   1
  17 -19 -13    2.04    1.43   1
  17 -19 -12    4.74    2.18   1
  17 -19 -11   13.65    3.69   1
  17 -19 -10   16.69    4.09   1
  17 -19  -9    6.91    2.63   1
  17 -19  -6   13.91    3.73   1
  17 -19  -4    2.24    1.50   1
  17 -19  -3   11.25    3.35   1
  17 -19  -1    2.78    1.67   1
  17 -19   1    9.94    3.15   1
  17 -19   6    3.33    1.83   1
  17 -19   7    5.74    2.40   1
  17 -19   8    5.21    2.28   1
  17 -19  17    7.80    2.79   1
  17 -17 -20    2.80    1.67   1
  17 -17 -15   11.48    3.39   1
  17 -17 -14   13.32    3.65   1
  17 -17 -13    7.96    2.82   1
  17 -17 -12    6.30    2.51   1
  17 -17  -8   13.25    3.64   1
  17 -17  -5   15.86    3.98   1
  17 -17  -4    5.04    2.24   1
  17 -17  -3    3.45    1.86   1
  17 -17  -2   10.17    3.19   1
  17 -17   0   10.88    3.30   1
  17 -17   1    2.63    1.62   1
  17 -17   2    2.15    1.46   1
  17 -17   3   27.04    5.20   1
  17 -17   5    7.95    2.82   1
  17 -17  11   16.19    4.02   1
  17 -17  15    8.40    2.90   1
  17 -17  19    2.89    1.70   1
  17 -17  20    4.58    2.14   1
  17 -15 -23   17.63    4.20   1
  17 -15 -21   22.80    4.77   1
  17 -15 -20    2.14    1.46   1
  17 -15 -18    2.90    1.70   1
  17 -15 -12    3.97    1.99   1
  17 -15 -11    2.29    1.51   1
  17 -15 -10    7.43    2.72   1
  17 -15  -9   14.69    3.83   1
  17 -15  -8   13.31    3.65   1
  17 -15  -6    5.36    2.32   1
  17 -15  -4    3.42    1.85   1
  17 -15  -1   18.63    4.32   1
  17 -15   0    6.49    2.55   1
  17 -15   1    5.87    2.42   1
  17 -15   2    2.33    1.52   1
  17 -15   3   13.57    3.68   1
  17 -15   4   14.10    3.75   1
  17 -15   5   12.10    3.48   1
  17 -15   6   12.38    3.52   1
  17 -15   7    4.05    2.01   1
  17 -15   8    5.63    2.37   1
  17 -15   9    8.77    2.96   1
  17 -15  10    7.28    2.70   1
  17 -15  12    8.18    2.86   1
  17 -15  13   11.30    3.36   1
  17 -15  14   15.90    3.99   1
  17 -15  15    7.59    2.76   1
  17 -15  16    3.56    1.89   1
  17 -15  17    8.12    2.85   1
  17 -15  20   18.29    4.28   1
  17 -15  21    9.15    3.03   1
  17 -13 -24    1.61    1.27   1
  17 -13 -22   15.30    3.91   1
  17 -13 -21    8.97    2.99   1
  17 -13 -15   13.50    3.67   1
  17 -13 -14    7.57    2.75   1
  17 -13 -13    9.00    3.00   1
  17 -13 -11    4.05    2.01   1
  17 -13  -9   12.45    3.53   1
  17 -13  -8   11.25    3.35   1
  17 -13  -7    6.94    2.63   1
  17 -13  -6    4.01    2.00   1
  17 -13  -5   12.57    3.55   1
  17 -13  -4   48.36    6.95   1
  17 -13  -3    6.38    2.52   1
  17 -13   0    7.39    2.72   1
  17 -13   2    2.66    1.63   1
  17 -13   3    3.38    1.84   1
  17 -13   4    3.20    1.79   1
  17 -13   5    5.65    2.38   1
  17 -13   7   15.99    4.00   1
  17 -13   9    8.81    2.97   1
  17 -13  10    7.35    2.71   1
  17 -13  11    7.57    2.75   1
  17 -13  12    5.47    2.34   1
  17 -13  13   24.08    4.91   1
  17 -13  15    3.82    1.95   1
  17 -13  17   12.25    3.50   1
  17 -13  18    7.54    2.75   1
  17 -13  20   11.53    3.40   1
  17 -13  21   16.29    4.04   1
  17 -13  22    3.80    1.95   1
  17 -13  23   10.57    3.25   1
  17 -13  24   18.75    4.33   1
  17 -11 -24    9.86    3.14   1
  17 -11 -23   14.66    3.83   1
  17 -11 -21    5.51    2.35   1
  17 -11 -17   15.19    3.90   1
  17 -11 -15    3.03    1.74   1
  17 -11 -14    4.12    2.03   1
  17 -11 -13    6.86    2.62   1
  17 -11  -8   16.23    4.03   1
  17 -11  -6    5.64    2.38   1
  17 -11  -3   14.06    3.75   1
  17 -11  -1    2.55    1.60   1
  17 -11   1   14.58    3.82   1
  17 -11   2   30.12    5.49   1
  17 -11   4    8.20    2.86   1
  17 -11   6    6.90    2.63   1
  17 -11   9    1.91    1.38   1
  17 -11  10    6.22    2.49   1
  17 -11  16   24.67    4.97   1
  17 -11  18    7.05    2.66   1
  17 -11  21    3.20    1.79   1
  17 -11  23    7.36    2.71   1
  17  -9 -24    6.40    2.53   1
  17  -9 -23    5.10    2.26   1
  17  -9 -21   14.52    3.81   1
  17  -9 -19    8.90    2.98   1
  17  -9 -18   12.26    3.50   1
  17  -9 -17    7.35    2.71   1
  17  -9 -14    3.20    1.79   1
  17  -9 -13    4.31    2.08   1
  17  -9  -9   18.15    4.26   1
  17  -9  -8    3.41    1.85   1
  17  -9  -5   21.15    4.60   1
  17  -9  -1   22.14    4.71   1
  17  -9   6    4.56    2.14   1
  17  -9   7   16.20    4.02   1
  17  -9   8    1.64    1.28   1
  17  -9  10    9.19    3.03   1
  17  -9  11    4.72    2.17   1
  17  -9  12    5.78    2.40   1
  17  -9  13    2.74    1.65   1
  17  -9  14   13.27    3.64   1
  17  -9  16   15.00    3.87   1
  17  -9  18    5.93    2.43   1
  17  -9  19    6.22    2.49   1
  17  -9  22    8.25    2.87   1
  17  -7 -16    4.58    2.14   1
  17  -7 -14   14.48    3.80   1
  17  -7 -10   17.33    4.16   1
  17  -7  -9    9.14    3.02   1
  17  -7  -8    3.78    1.94   1
  17  -7  -6   55.37    7.44   1
  17  -7  -5   56.06    7.49   1
  17  -7  -4   19.55    4.42   1
  17  -7  -3    6.86    2.62   1
  17  -7  -2    3.45    1.86   1
  17  -7   0   19.84    4.45   1
  17  -7   2   14.43    3.80   1
  17  -7   3   19.39    4.40   1
  17  -7   4   38.17    6.18   1
  17  -7   6   45.61    6.75   1
  17  -7  11   13.88    3.72   1
  17  -7  12    9.45    3.07   1
  17  -7  13   24.60    4.96   1
  17  -7  14   44.10    6.64   1
  17  -7  16    3.10    1.76   1
  17  -7  17    9.30    3.05   1
  17  -7  18    7.68    2.77   1
  17  -7  19   11.48    3.39   1
  17  -7  22    5.95    2.44   1
  17  -7  23   14.07    3.75   1
  17  -5 -19   11.35    3.37   1
  17  -5 -18   10.45    3.23   1
  17  -5 -17    2.21    1.49   1
  17  -5 -16    8.25    2.87   1
  17  -5 -12    6.40    2.53   1
  17  -5 -10   11.73    3.43   1
  17  -5  -9    6.89    2.63   1
  17  -5  -7   78.28    8.85   1
  17  -5  -6   13.73    3.70   1
  17  -5  -5   74.32    8.62   1
  17  -5  -4   15.51    3.94   1
  17  -5  -3   38.29    6.19   1
  17  -5  -2   17.48    4.18   1
  17  -5  -1    3.67    1.92   1
  17  -5   2    3.13    1.77   1
  17  -5   4   21.97    4.69   1
  17  -5   5   11.10    3.33   1
  17  -5   6   33.97    5.83   1
  17  -5   8   64.39    8.02   1
  17  -5  11    6.80    2.61   1
  17  -5  12    3.97    1.99   1
  17  -5  13   28.27    5.32   1
  17  -5  14    8.81    2.97   1
  17  -5  16   11.32    3.37   1
  17  -5  17   22.66    4.76   1
  17  -5  18    4.20    2.05   1
  17  -5  24   19.05    4.36   1
  17  -3 -21    5.83    2.42   1
  17  -3 -20   15.23    3.90   1
  17  -3 -19    1.50    1.22   1
  17  -3 -18   23.26    4.82   1
  17  -3 -15   12.04    3.47   1
  17  -3 -11   33.57    5.79   1
  17  -3  -9   30.60    5.53   1
  17  -3  -8  132.00   11.49   1
  17  -3  -7    7.28    2.70   1
  17  -3  -6    4.88    2.21   1
  17  -3  -4   23.10    4.81   1
  17  -3  -2   22.73    4.77   1
  17  -3   1   20.02    4.47   1
  17  -3   2   11.55    3.40   1
  17  -3   3   21.36    4.62   1
  17  -3   4   50.82    7.13   1
  17  -3   5    5.32    2.31   1
  17  -3   7    2.93    1.71   1
  17  -3   8   57.78    7.60   1
  17  -3   9   10.38    3.22   1
  17  -3  10   12.27    3.50   1
  17  -3  12   50.31    7.09   1
  17  -3  14   17.70    4.21   1
  17  -3  15    8.82    2.97   1
  17  -3  23   21.85    4.67   1
  17  -1 -20   13.70    3.70   1
  17  -1 -16   11.21    3.35   1
  17  -1  -8    9.41    3.07   1
  17  -1  -6    6.07    2.46   1
  17  -1  -5   13.92    3.73   1
  17  -1  -2   12.15    3.49   1
  17  -1  -1   31.76    5.64   1
  17  -1   2   16.91    4.11   1
  17  -1   4   12.18    3.49   1
  17  -1   5   10.54    3.25   1
  17  -1   6    9.68    3.11   1
  17  -1   7   15.11    3.89   1
  17  -1   9    3.83    1.96   1
  17  -1  10   19.05    4.36   1
  17  -1  11   12.64    3.55   1
  17  -1  12    3.94    1.98   1
  17  -1  14   14.46    3.80   1
  17  -1  16   11.55    3.40   1
  17  -1  18    7.32    2.71   1
  17  -1  19    4.18    2.04   1
  17  -1  21   12.45    3.53   1
  17  -1  22   27.00    5.20   1
  17  -1  24   10.05    3.17   1
  17   1 -24    5.12    2.26   1
  17   1 -21    2.17    1.47   1
  17   1 -14    3.24    1.80   1
  17   1 -11   11.55    3.40   1
  17   1  -7    2.62    1.62   1
  17   1  -6   13.69    3.70   1
  17   1  -4   28.88    5.37   1
  17   1  -3   19.27    4.39   1
  17   1  -1   10.32    3.21   1
  17   1   0    9.36    3.06   1
  17   1   1    3.56    1.89   1
  17   1   2    9.07    3.01   1
  17   1   3   10.40    3.22   1
  17   1   6   21.53    4.64   1
  17   1   7   17.82    4.22   1
  17   1   8    7.90    2.81   1
  17   1   9    5.42    2.33   1
  17   1  13   21.38    4.62   1
  17   1  16    6.48    2.54   1
  17   1  19    8.12    2.85   1
  17   1  20   14.63    3.82   1
  17   1  21   15.15    3.89   1
  17   3 -17   10.03    3.17   1
  17   3 -13    6.68    2.58   1
  17   3  -9   36.92    6.08   1
  17   3  -8   20.44    4.52   1
  17   3  -7   22.00    4.69   1
  17   3  -5   12.75    3.57   1
  17   3  -4   11.19    3.35   1
  17   3  -3    6.68    2.58   1
  17   3  -2   15.29    3.91   1
  17   3   1   31.22    5.59   1
  17   3   2   10.88    3.30   1
  17   3   4   52.46    7.24   1
  17   3   6   37.59    6.13   1
  17   3   7    8.25    2.87   1
  17   3   8   88.88    9.43   1
  17   3  10    6.40    2.53   1
  17   3  12   27.87    5.28   1
  17   3  13    3.18    1.78   1
  17   3  17   12.82    3.58   1
  17   3  21    8.14    2.85   1
  17   3  23    3.22    1.80   1
  17   3  24    8.40    2.90   1
  17   5 -23    6.97    2.64   1
  17   5 -21    2.71    1.65   1
  17   5 -19   11.45    3.38   1
  17   5 -17    3.00    1.73   1
  17   5 -15    1.76    1.33   1
  17   5 -10   11.63    3.41   1
  17   5  -9    6.30    2.51   1
  17   5  -8   20.70    4.55   1
  17   5  -7   76.05    8.72   1
  17   5  -6   25.09    5.01   1
  17   5  -5   27.90    5.28   1
  17   5  -3    4.91    2.22   1
  17   5  -2    5.78    2.40   1
  17   5   0    8.18    2.86   1
  17   5   1    7.05    2.66   1
  17   5   3    6.45    2.54   1
  17   5   4    2.96    1.72   1
  17   5   6   31.31    5.60   1
  17   5   7   24.67    4.97   1
  17   5   8  144.23   12.01   1
  17   5  13    3.64    1.91   1
  17   5  14    3.36    1.83   1
  17   5  15   11.42    3.38   1
  17   5  17    9.52    3.09   1
  17   5  18    5.60    2.37   1
  17   5  19    7.24    2.69   1
  17   5  21    5.79    2.41   1
  17   5  24    7.87    2.80   1
  17   7 -23    7.97    2.82   1
  17   7 -22   11.58    3.40   1
  17   7 -20    4.80    2.19   1
  17   7 -18   16.74    4.09   1
  17   7 -15   21.30    4.62   1
  17   7 -12   23.26    4.82   1
  17   7 -10   19.28    4.39   1
  17   7  -8   14.55    3.81   1
  17   7  -7   22.65    4.76   1
  17   7  -6   21.57    4.64   1
  17   7  -5    2.19    1.48   1
  17   7  -4   11.76    3.43   1
  17   7  -3   16.40    4.05   1
  17   7  -2   38.46    6.20   1
  17   7  -1   10.39    3.22   1
  17   7   0   14.78    3.84   1
  17   7   2   21.38    4.62   1
  17   7   5   21.45    4.63   1
  17   7   6   80.32    8.96   1
  17   7   8    6.60    2.57   1
  17   7   9   12.63    3.55   1
  17   7  10    2.40    1.55   1
  17   7  11   27.67    5.26   1
  17   7  12   11.27    3.36   1
  17   7  13   34.28    5.85   1
  17   7  14   57.03    7.55   1
  17   7  15   21.98    4.69   1
  17   7  16   14.70    3.83   1
  17   7  19    6.68    2.58   1
  17   7  20    1.54    1.24   1
  17   7  22    4.54    2.13   1
  17   9 -20    2.23    1.49   1
  17   9  -8   15.94    3.99   1
  17   9  -7    6.86    2.62   1
  17   9  -6   12.45    3.53   1
  17   9  -5   22.27    4.72   1
  17   9  -4   10.06    3.17   1
  17   9  -2   26.17    5.12   1
  17   9   1    9.07    3.01   1
  17   9   2   12.06    3.47   1
  17   9   3   14.44    3.80   1
  17   9   4    8.28    2.88   1
  17   9   5    4.95    2.22   1
  17   9   6   14.21    3.77   1
  17   9   7    9.26    3.04   1
  17   9   9    6.14    2.48   1
  17   9  10    3.94    1.98   1
  17   9  12   13.35    3.65   1
  17   9  13   15.50    3.94   1
  17   9  14    5.47    2.34   1
  17   9  16    9.60    3.10   1
  17  11 -19   15.45    3.93   1
  17  11 -18    1.95    1.40   1
  17  11 -15    6.87    2.62   1
  17  11 -12    5.29    2.30   1
  17  11 -10    4.15    2.04   1
  17  11  -9   22.46    4.74   1
  17  11  -8   13.23    3.64   1
  17  11  -7   10.20    3.19   1
  17  11  -6   28.91    5.38   1
  17  11  -5   15.52    3.94   1
  17  11  -3   14.67    3.83   1
  17  11  -2   22.27    4.72   1
  17  11  -1   21.26    4.61   1
  17  11   0    2.76    1.66   1
  17  11   1   13.60    3.69   1
  17  11   2   11.55    3.40   1
  17  11   3   19.73    4.44   1
  17  11   4    5.22    2.29   1
  17  11   5    7.59    2.76   1
  17  11   6   37.72    6.14   1
  17  11   7   12.45    3.53   1
  17  11   8    3.58    1.89   1
  17  11  13   12.82    3.58   1
  17  11  15    9.82    3.13   1
  17  11  16   11.57    3.40   1
  17  11  19    6.53    2.55   1
  17  11  24    6.94    2.63   1
  17  13 -22    1.79    1.34   1
  17  13 -19    7.43    2.72   1
  17  13 -16    5.45    2.34   1
  17  13 -13    3.72    1.93   1
  17  13 -11   26.02    5.10   1
  17  13  -7   13.16    3.63   1
  17  13  -6    8.15    2.85   1
  17  13  -5   22.41    4.73   1
  17  13  -4   22.93    4.79   1
  17  13  -3   33.32    5.77   1
  17  13   0   17.85    4.22   1
  17  13   2    3.79    1.95   1
  17  13   3   20.17    4.49   1
  17  13   4   29.02    5.39   1
  17  13   5    4.05    2.01   1
  17  13   7    3.75    1.94   1
  17  13   8   19.88    4.46   1
  17  13   9   13.61    3.69   1
  17  13  10    7.20    2.68   1
  17  13  11    5.64    2.37   1
  17  13  14    6.63    2.58   1
  17  13  15   12.58    3.55   1
  17  13  16   19.30    4.39   1
  17  13  17   14.84    3.85   1
  17  13  23    5.67    2.38   1
  17  15 -24    9.05    3.01   1
  17  15 -21    7.77    2.79   1
  17  15 -20    6.77    2.60   1
  17  15 -17   19.20    4.38   1
  17  15 -15    5.18    2.27   1
  17  15 -14    3.03    1.74   1
  17  15 -13   18.15    4.26   1
  17  15 -11    3.29    1.81   1
  17  15 -10    9.90    3.15   1
  17  15  -7    5.40    2.32   1
  17  15  -6    5.54    2.35   1
  17  15  -5    9.07    3.01   1
  17  15  -4    4.88    2.21   1
  17  15   0   20.10    4.48   1
  17  15   1   25.27    5.03   1
  17  15   2    8.63    2.94   1
  17  15   4   12.88    3.59   1
  17  15   6    2.54    1.59   1
  17  15   8    7.28    2.70   1
  17  15  12    7.06    2.66   1
  17  15  18   11.40    3.38   1
  17  15  20   12.68    3.56   1
  17  15  23    6.55    2.56   1
  17  17 -22    6.21    2.49   1
  17  17 -19    2.70    1.64   1
  17  17 -17    3.63    1.91   1
  17  17 -13   12.07    3.47   1
  17  17 -11   13.31    3.65   1
  17  17  -9    5.45    2.33   1
  17  17  -7    5.06    2.25   1
  17  17  -6    8.95    2.99   1
  17  17  -5    6.22    2.49   1
  17  17  -3   13.89    3.73   1
  17  17  -2   13.50    3.67   1
  17  17  -1   12.00    3.46   1
  17  17   0   10.20    3.19   1
  17  17   4   10.01    3.16   1
  17  17   5   12.68    3.56   1
  17  17   6    3.14    1.77   1
  17  17  10    3.26    1.81   1
  17  17  21   13.01    3.61   1
  17  19 -17    8.02    2.83   1
  17  19 -12    3.12    1.77   1
  17  19 -11    8.29    2.88   1
  17  19 -10    4.97    2.23   1
  17  19  -9    8.96    2.99   1
  17  19  -8    5.98    2.45   1
  17  19  -7   14.85    3.85   1
  17  19  -6   23.92    4.89   1
  17  19   0    4.28    2.07   1
  17  19   3    1.80    1.34   1
  17  19   4   13.14    3.63   1
  17  19   5   14.67    3.83   1
  17  19   8    3.97    1.99   1
  17  19  14    8.84    2.97   1
  17  19  16    5.70    2.39   1
  17  19  18    8.48    2.91   1
  17  21 -17    2.06    1.44   1
  17  21 -15    2.66    1.63   1
  17  21 -14   11.19    3.34   1
  17  21 -13   12.18    3.49   1
  17  21 -10   15.35    3.92   1
  17  21  -9    5.47    2.34   1
  17  21  -8    7.57    2.75   1
  17  21  -7    2.85    1.69   1
  17  21  -5   19.42    4.41   1
  17  21  -3    6.68    2.58   1
  17  21  -1    8.74    2.96   1
  17  21   1   13.41    3.66   1
  17  21   3    7.67    2.77   1
  17  21   5    6.49    2.55   1
  17  21   7   21.30    4.62   1
  17  21  14   12.04    3.47   1
  17  23 -13    8.40    2.90   1
  17  23  -9    8.29    2.88   1
  17  23  -8    4.50    2.12   1
  17  23  -5   18.67    4.32   1
  17  23  -2    7.29    2.70   1
  17  23   7    1.59    1.26   1
  17  23   8   18.67    4.32   1
  17  23   9    2.85    1.69   1
  17  23  10    2.17    1.47   1
  18 -22  -8    6.26    2.50   1
  18 -22  -6    8.02    2.83   1
  18 -22  -5    7.09    2.66   1
  18 -22  -2    5.78    2.40   1
  18 -22  -1   11.85    3.44   1
  18 -22   0   11.10    3.33   1
  18 -22   1   12.60    3.55   1
  18 -22   2    6.45    2.54   1
  18 -22   4    4.73    2.18   1
  18 -22   5    4.88    2.21   1
  18 -22   7   10.05    3.17   1
  18 -22   8    3.94    1.98   1
  18 -20 -14   10.88    3.30   1
  18 -20 -13    7.46    2.73   1
  18 -20 -12    8.84    2.97   1
  18 -20 -10    5.75    2.40   1
  18 -20  -9   17.33    4.16   1
  18 -20  -8    7.92    2.81   1
  18 -20  -7   10.95    3.31   1
  18 -20  -6    9.94    3.15   1
  18 -20  -4   16.50    4.06   1
  18 -20  -2   23.52    4.85   1
  18 -20  -1    7.01    2.65   1
  18 -20   5   12.60    3.55   1
  18 -20   6    5.10    2.26   1
  18 -20  11    4.88    2.21   1
  18 -18 -18    4.65    2.16   1
  18 -18 -17    2.47    1.57   1
  18 -18 -16    4.75    2.18   1
  18 -18 -15    3.03    1.74   1
  18 -18 -14    9.95    3.15   1
  18 -18 -12    6.86    2.62   1
  18 -18 -11   10.95    3.31   1
  18 -18 -10   15.68    3.96   1
  18 -18  -9    7.72    2.78   1
  18 -18  -8   18.98    4.36   1
  18 -18  -3    6.56    2.56   1
  18 -18  -2   18.67    4.32   1
  18 -18   0   11.05    3.32   1
  18 -18   2   15.55    3.94   1
  18 -18   4    4.43    2.10   1
  18 -18   5    8.19    2.86   1
  18 -18   6   11.90    3.45   1
  18 -18   7   10.70    3.27   1
  18 -18   9    3.56    1.89   1
  18 -18  10    2.04    1.43   1
  18 -18  14   16.97    4.12   1
  18 -18  17    6.50    2.55   1
  18 -16 -21    4.08    2.02   1
  18 -16 -20    7.86    2.80   1
  18 -16 -19    8.85    2.97   1
  18 -16 -12    2.06    1.44   1
  18 -16 -11    6.18    2.49   1
  18 -16 -10   13.75    3.71   1
  18 -16  -8    1.91    1.38   1
  18 -16  -3    1.95    1.40   1
  18 -16  -2    8.99    3.00   1
  18 -16  -1   22.50    4.74   1
  18 -16   0    5.33    2.31   1
  18 -16   1    6.22    2.49   1
  18 -16   2    7.98    2.82   1
  18 -16   3    2.63    1.62   1
  18 -16   5    7.43    2.72   1
  18 -16   6    8.44    2.90   1
  18 -16   7    5.10    2.26   1
  18 -16   9    6.15    2.48   1
  18 -16  10    9.22    3.04   1
  18 -16  16   12.07    3.47   1
  18 -16  17    2.28    1.51   1
  18 -16  18    4.47    2.12   1
  18 -16  19    1.70    1.30   1
  18 -16  20   26.25    5.12   1
  18 -14 -23   14.88    3.86   1
  18 -14 -22   14.18    3.76   1
  18 -14 -16    7.47    2.73   1
  18 -14 -14    6.97    2.64   1
  18 -14 -10    5.03    2.24   1
  18 -14  -9    4.99    2.23   1
  18 -14  -7   13.65    3.69   1
  18 -14  -3   18.00    4.24   1
  18 -14   0   26.30    5.13   1
  18 -14   7   12.35    3.51   1
  18 -14   9   10.13    3.18   1
  18 -14  10    2.92    1.71   1
  18 -14  15    6.21    2.49   1
  18 -14  20   19.80    4.45   1
  18 -14  22    6.97    2.64   1
  18 -12 -24   13.78    3.71   1
  18 -12 -21    9.04    3.01   1
  18 -12 -20    7.54    2.75   1
  18 -12 -19    1.63    1.28   1
  18 -12 -17    6.15    2.48   1
  18 -12 -15    9.49    3.08   1
  18 -12 -14    8.80    2.97   1
  18 -12 -12   17.48    4.18   1
  18 -12 -11    9.57    3.09   1
  18 -12 -10   11.74    3.43   1
  18 -12  -8   16.64    4.08   1
  18 -12  -6   18.52    4.30   1
  18 -12  -5    1.54    1.24   1
  18 -12  -4   24.60    4.96   1
  18 -12  -2    9.91    3.15   1
  18 -12  -1   13.31    3.65   1
  18 -12   0   46.25    6.80   1
  18 -12   3   13.02    3.61   1
  18 -12   7    3.81    1.95   1
  18 -12  10   15.52    3.94   1
  18 -12  11    3.64    1.91   1
  18 -12  12    4.33    2.08   1
  18 -12  13   21.67    4.66   1
  18 -12  14    8.66    2.94   1
  18 -12  16    5.72    2.39   1
  18 -12  21   16.85    4.10   1
  18 -12  24    2.78    1.67   1
  18 -10 -23    2.85    1.69   1
  18 -10 -22    1.88    1.37   1
  18 -10 -21   18.19    4.26   1
  18 -10 -17    3.97    1.99   1
  18 -10 -15   19.42    4.41   1
  18 -10  -7   11.71    3.42   1
  18 -10  -5    3.60    1.90   1
  18 -10  -4    5.40    2.32   1
  18 -10  -3    5.90    2.43   1
  18 -10   0   20.10    4.48   1
  18 -10   1   21.53    4.64   1
  18 -10   2   17.77    4.22   1
  18 -10   3    3.97    1.99   1
  18 -10   4   23.40    4.84   1
  18 -10   8   10.51    3.24   1
  18 -10  12   41.70    6.46   1
  18 -10  16    2.92    1.71   1
  18 -10  18    8.66    2.94   1
  18 -10  20    9.19    3.03   1
  18 -10  23   11.63    3.41   1
  18  -8 -20    6.53    2.56   1
  18  -8 -18   11.13    3.34   1
  18  -8 -17    9.90    3.15   1
  18  -8 -16   14.02    3.74   1
  18  -8  -9    7.30    2.70   1
  18  -8  -7    6.40    2.53   1
  18  -8  -6   13.55    3.68   1
  18  -8  -2   10.13    3.18   1
  18  -8   0   13.20    3.63   1
  18  -8   1   33.75    5.81   1
  18  -8   3   33.83    5.82   1
  18  -8   7   20.13    4.49   1
  18  -8   8   21.52    4.64   1
  18  -8   9    3.29    1.81   1
  18  -8  10    9.25    3.04   1
  18  -8  11    2.85    1.69   1
  18  -8  16   34.94    5.91   1
  18  -8  18    9.48    3.08   1
  18  -8  20   10.79    3.29   1
  18  -8  24    7.22    2.69   1
  18  -6 -20   15.42    3.93   1
  18  -6 -19    6.60    2.57   1
  18  -6 -15    8.44    2.90   1
  18  -6  -9    8.81    2.97   1
  18  -6  -7   47.96    6.93   1
  18  -6  -6   12.28    3.50   1
  18  -6  -4    1.68    1.30   1
  18  -6   0   23.79    4.88   1
  18  -6   1   20.13    4.49   1
  18  -6   2   29.29    5.41   1
  18  -6   3   31.15    5.58   1
  18  -6   4   17.25    4.15   1
  18  -6   5   24.75    4.97   1
  18  -6   6   13.12    3.62   1
  18  -6   7   18.79    4.33   1
  18  -6   8  196.77   14.03   1
  18  -6  12   10.43    3.23   1
  18  -6  17    3.45    1.86   1
  18  -6  18   14.10    3.75   1
  18  -6  19   22.73    4.77   1
  18  -6  20    2.30    1.52   1
  18  -6  21    3.64    1.91   1
  18  -4 -21    8.54    2.92   1
  18  -4 -20    2.66    1.63   1
  18  -4 -19   15.68    3.96   1
  18  -4 -14   16.32    4.04   1
  18  -4 -13    4.50    2.12   1
  18  -4  -9    7.31    2.70   1
  18  -4  -8   16.67    4.08   1
  18  -4  -4   26.85    5.18   1
  18  -4  -3   22.84    4.78   1
  18  -4  -2   29.02    5.39   1
  18  -4  -1    1.65    1.28   1
  18  -4   0   24.45    4.94   1
  18  -4   1   31.78    5.64   1
  18  -4   2    9.05    3.01   1
  18  -4   3   16.95    4.12   1
  18  -4   4   19.17    4.38   1
  18  -4   8   34.62    5.88   1
  18  -4   9   25.42    5.04   1
  18  -4  10    8.13    2.85   1
  18  -4  23   22.99    4.79   1
  18  -4  24   11.77    3.43   1
  18  -2 -22   10.88    3.30   1
  18  -2 -16   12.98    3.60   1
  18  -2 -13   11.93    3.45   1
  18  -2 -10   11.96    3.46   1
  18  -2  -8    9.61    3.10   1
  18  -2  -6   18.43    4.29   1
  18  -2  -5   16.57    4.07   1
  18  -2  -3   29.75    5.45   1
  18  -2   0   11.84    3.44   1
  18  -2   1   36.19    6.02   1
  18  -2   2   11.13    3.34   1
  18  -2   3   29.92    5.47   1
  18  -2   4    2.04    1.43   1
  18  -2   5   10.84    3.29   1
  18  -2   6   26.45    5.14   1
  18  -2  10   10.01    3.16   1
  18  -2  11    9.00    3.00   1
  18  -2  12    1.58    1.25   1
  18  -2  14   10.54    3.25   1
  18  -2  15   33.15    5.76   1
  18  -2  16    7.50    2.74   1
  18  -2  21   15.89    3.99   1
  18  -2  23    5.10    2.26   1
  18   0 -20   10.70    3.27   1
  18   0 -19    8.55    2.92   1
  18   0 -13   26.77    5.17   1
  18   0 -11   88.01    9.38   1
  18   0 -10   12.79    3.58   1
  18   0  -9    3.90    1.98   1
  18   0  -6    5.19    2.28   1
  18   0  -4   53.29    7.30   1
  18   0  -3    3.26    1.81   1
  18   0  -2    7.84    2.80   1
  18   0  -1   48.81    6.99   1
  18   0   0    2.52    1.59   1
  18   0   1   25.50    5.05   1
  18   0   2   10.16    3.19   1
  18   0   3   39.85    6.31   1
  18   0   4   31.62    5.62   1
  18   0   5   20.25    4.50   1
  18   0   8   33.71    5.81   1
  18   0  12   52.88    7.27   1
  18   0  14   14.81    3.85   1
  18   0  15    6.22    2.49   1
  18   0  16    5.61    2.37   1
  18   0  22    3.83    1.96   1
  18   2 -23    6.38    2.52   1
  18   2 -20    2.26    1.50   1
  18   2 -16    3.44    1.86   1
  18   2 -14   17.48    4.18   1
  18   2 -10   20.10    4.48   1
  18   2  -9    7.97    2.82   1
  18   2  -8   10.35    3.22   1
  18   2  -7   34.35    5.86   1
  18   2  -4   37.26    6.10   1
  18   2  -2   31.83    5.64   1
  18   2  -1   27.13    5.21   1
  18   2   0   16.65    4.08   1
  18   2   1   78.85    8.88   1
  18   2   2   12.72    3.57   1
  18   2   3   21.61    4.65   1
  18   2   5   12.17    3.49   1
  18   2   6   12.68    3.56   1
  18   2   9    9.30    3.05   1
  18   2  10   18.95    4.35   1
  18   2  12   11.08    3.33   1
  18   2  14   10.34    3.22   1
  18   2  16    1.99    1.41   1
  18   2  17   20.53    4.53   1
  18   2  22   10.02    3.17   1
  18   4 -23    4.56    2.13   1
  18   4 -21   10.80    3.29   1
  18   4 -18    2.25    1.50   1
  18   4 -17    6.76    2.60   1
  18   4 -10   16.10    4.01   1
  18   4  -9   14.40    3.79   1
  18   4  -8   33.49    5.79   1
  18   4  -6   11.64    3.41   1
  18   4  -4   11.51    3.39   1
  18   4  -2   19.46    4.41   1
  18   4  -1   13.73    3.70   1
  18   4   0   83.25    9.12   1
  18   4   1   11.34    3.37   1
  18   4   2   35.36    5.95   1
  18   4   3   38.17    6.18   1
  18   4   4   14.97    3.87   1
  18   4   6    7.91    2.81   1
  18   4   8   17.84    4.22   1
  18   4  10   16.47    4.06   1
  18   4  11    6.38    2.52   1
  18   4  12   13.05    3.61   1
  18   4  13    2.44    1.56   1
  18   4  14   19.79    4.45   1
  18   4  18   12.93    3.60   1
  18   4  20    7.57    2.75   1
  18   4  21    4.33    2.08   1
  18   4  22    8.10    2.85   1
  18   4  23    2.24    1.50   1
  18   6 -18    1.95    1.40   1
  18   6 -14   12.30    3.51   1
  18   6 -13    4.57    2.14   1
  18   6 -10   23.17    4.81   1
  18   6  -9   49.29    7.02   1
  18   6  -8   51.60    7.18   1
  18   6  -7  117.12   10.82   1
  18   6  -6    2.92    1.71   1
  18   6  -4    9.56    3.09   1
  18   6  -3   18.84    4.34   1
  18   6  -2   19.80    4.45   1
  18   6  -1   13.04    3.61   1
  18   6   0  217.59   14.75   1
  18   6   1   67.01    8.19   1
  18   6   2   37.55    6.13   1
  18   6   3   13.03    3.61   1
  18   6   4   24.98    5.00   1
  18   6   6    6.63    2.57   1
  18   6   7    8.47    2.91   1
  18   6   8   93.68    9.68   1
  18   6  10   94.88    9.74   1
  18   6  13    7.50    2.74   1
  18   6  15    4.05    2.01   1
  18   6  20    4.99    2.23   1
  18   6  22    6.55    2.56   1
  18   6  24    4.28    2.07   1
  18   8 -21   15.16    3.89   1
  18   8 -15    2.63    1.62   1
  18   8 -12    7.13    2.67   1
  18   8 -10    7.43    2.72   1
  18   8  -9    3.75    1.94   1
  18   8  -8   11.77    3.43   1
  18   8  -7   18.60    4.31   1
  18   8  -6   10.69    3.27   1
  18   8  -5   19.47    4.41   1
  18   8  -3   22.40    4.73   1
  18   8  -1    3.60    1.90   1
  18   8   0   54.97    7.41   1
  18   8   1    2.40    1.55   1
  18   8   2    2.92    1.71   1
  18   8   3   21.38    4.62   1
  18   8   4    9.12    3.02   1
  18   8   5   14.77    3.84   1
  18   8   6   75.11    8.67   1
  18   8   8    6.82    2.61   1
  18   8   9   11.26    3.36   1
  18   8  15    7.70    2.78   1
  18   8  18   14.06    3.75   1
  18   8  20   14.36    3.79   1
  18   8  23   10.13    3.18   1
  18  10 -18    4.69    2.17   1
  18  10 -13    6.79    2.61   1
  18  10 -10   13.24    3.64   1
  18  10  -9    7.13    2.67   1
  18  10  -7   13.08    3.62   1
  18  10  -6    7.96    2.82   1
  18  10  -3    5.89    2.43   1
  18  10  -2    3.49    1.87   1
  18  10   0   18.67    4.32   1
  18  10   2    4.03    2.01   1
  18  10   8   17.63    4.20   1
  18  10  10    2.17    1.47   1
  18  10  14    8.77    2.96   1
  18  10  15    2.75    1.66   1
  18  10  16    3.00    1.73   1
  18  10  18   16.32    4.04   1
  18  10  19   14.10    3.75   1
  18  10  22   18.84    4.34   1
  18  10  23    4.57    2.14   1
  18  12 -24    6.13    2.48   1
  18  12 -23    2.22    1.49   1
  18  12 -22   13.13    3.62   1
  18  12 -18    5.34    2.31   1
  18  12 -16   17.89    4.23   1
  18  12 -10    2.97    1.72   1
  18  12  -9   17.74    4.21   1
  18  12  -8    3.45    1.86   1
  18  12  -7    7.95    2.82   1
  18  12  -6    1.61    1.27   1
  18  12  -5    4.13    2.03   1
  18  12  -4    2.47    1.57   1
  18  12  -3   10.35    3.22   1
  18  12  -2   10.39    3.22   1
  18  12  -1    2.92    1.71   1
  18  12   0    9.64    3.10   1
  18  12   1   42.49    6.52   1
  18  12   4   11.47    3.39   1
  18  12   5    6.61    2.57   1
  18  12   6   17.96    4.24   1
  18  12   7    7.80    2.79   1
  18  12   8   38.40    6.20   1
  18  12  10   36.30    6.02   1
  18  12  12    7.50    2.74   1
  18  12  14   10.20    3.19   1
  18  12  15   19.20    4.38   1
  18  12  16    3.74    1.93   1
  18  12  21    1.91    1.38   1
  18  12  22    2.39    1.55   1
  18  14 -24    1.88    1.37   1
  18  14 -20    9.07    3.01   1
  18  14 -18   10.73    3.27   1
  18  14 -15   24.27    4.93   1
  18  14 -13   21.00    4.58   1
  18  14  -9   14.04    3.75   1
  18  14  -7    7.48    2.74   1
  18  14  -5    7.08    2.66   1
  18  14  -2    8.81    2.97   1
  18  14   0    6.63    2.58   1
  18  14   1   21.67    4.66   1
  18  14   2    1.99    1.41   1
  18  14   3    4.78    2.19   1
  18  14   4    8.32    2.89   1
  18  14   5   13.55    3.68   1
  18  14   6    8.21    2.87   1
  18  14  12   11.29    3.36   1
  18  14  13   25.91    5.09   1
  18  14  14    5.57    2.36   1
  18  14  15   10.68    3.27   1
  18  14  16    8.37    2.89   1
  18  14  18   15.68    3.96   1
  18  14  20   12.05    3.47   1
  18  14  22   10.13    3.18   1
  18  16 -21    5.55    2.36   1
  18  16 -20    3.30    1.82   1
  18  16 -18   18.67    4.32   1
  18  16 -17    8.32    2.89   1
  18  16 -16    4.72    2.17   1
  18  16  -4    9.07    3.01   1
  18  16  -3    2.96    1.72   1
  18  16  -1   15.32    3.91   1
  18  16   0   21.25    4.61   1
  18  16   1    9.40    3.07   1
  18  16   2    7.39    2.72   1
  18  16   7    5.21    2.28   1
  18  16   8    4.13    2.03   1
  18  16  11    2.40    1.55   1
  18  16  14   10.24    3.20   1
  18  16  17    4.74    2.18   1
  18  16  20    7.43    2.73   1
  18  16  21   12.52    3.54   1
  18  18 -20    7.65    2.77   1
  18  18 -16    2.78    1.67   1
  18  18 -15    4.88    2.21   1
  18  18 -14    8.93    2.99   1
  18  18 -12    4.80    2.19   1
  18  18 -11   19.05    4.36   1
  18  18  -9    3.05    1.75   1
  18  18  -8   11.40    3.38   1
  18  18  -7   20.02    4.47   1
  18  18  -6    3.03    1.74   1
  18  18  -5   13.43    3.66   1
  18  18  -3    6.34    2.52   1
  18  18   0    3.60    1.90   1
  18  18   1    8.70    2.95   1
  18  18   2    6.60    2.57   1
  18  18   3    3.35    1.83   1
  18  18   4    7.80    2.79   1
  18  18   5   17.48    4.18   1
  18  18   7   22.80    4.77   1
  18  18   8    3.64    1.91   1
  18  18   9    9.96    3.16   1
  18  18  10    2.51    1.58   1
  18  18  11   11.18    3.34   1
  18  18  17    7.21    2.69   1
  18  18  18   10.57    3.25   1
  18  18  19    5.93    2.43   1
  18  20 -15    6.81    2.61   1
  18  20 -11   13.09    3.62   1
  18  20 -10    5.46    2.34   1
  18  20  -9   21.29    4.61   1
  18  20  -8   13.17    3.63   1
  18  20  -7    7.61    2.76   1
  18  20  -6    9.38    3.06   1
  18  20  -3    3.53    1.88   1
  18  20  -2    8.45    2.91   1
  18  20   0    5.17    2.27   1
  18  20   1    6.64    2.58   1
  18  20   4    3.94    1.98   1
  18  20   6    4.73    2.18   1
  18  20   8    6.45    2.54   1
  18  20   9   10.69    3.27   1
  18  20  10   18.45    4.30   1
  18  20  11    2.17    1.47   1
  18  20  12    6.82    2.61   1
  18  20  14    2.33    1.52   1
  18  22 -10   12.45    3.53   1
  18  22  -9    8.54    2.92   1
  18  22  -7   21.67    4.66   1
  18  22  -6   11.58    3.40   1
  18  22  -3   16.31    4.04   1
  18  22  -2   12.11    3.48   1
  18  22   3    2.10    1.45   1
  18  22   4   16.05    4.01   1
  18  22   5    3.02    1.74   1
  18  22   6    6.76    2.60   1
  18  22   7    9.50    3.08   1
  18  22  12    7.38    2.72   1
  18  24  -6   22.23    4.72   1
  18  24  -4    3.82    1.95   1
  18  24  -3    9.86    3.14   1
  18  24  -2    7.59    2.75   1
  18  24  -1    2.67    1.63   1
  18  24   1   37.58    6.13   1
  18  24   2   25.94    5.09   1
  18  24   3    3.38    1.84   1
  18  24   4    5.39    2.32   1
  19 -21  -9   10.55    3.25   1
  19 -21  -7    5.26    2.29   1
  19 -21  -6    3.04    1.74   1
  19 -21  -5    7.21    2.68   1
  19 -21  -1    7.84    2.80   1
  19 -21   2    7.22    2.69   1
  19 -21   3    7.43    2.73   1
  19 -21   4    6.45    2.54   1
  19 -21   5   13.05    3.61   1
  19 -21   8   14.09    3.75   1
  19 -19 -14   14.59    3.82   1
  19 -19 -13   15.30    3.91   1
  19 -19 -12   19.90    4.46   1
  19 -19 -11    4.56    2.13   1
  19 -19  -9    6.92    2.63   1
  19 -19  -7    8.77    2.96   1
  19 -19  -6    7.67    2.77   1
  19 -19  -3    9.23    3.04   1
  19 -19   3    5.07    2.25   1
  19 -19   4    6.18    2.49   1
  19 -19   5    6.49    2.55   1
  19 -19   7    1.72    1.31   1
  19 -19   9    3.07    1.75   1
  19 -19  10    9.69    3.11   1
  19 -19  13    7.80    2.79   1
  19 -17 -18   12.38    3.52   1
  19 -17 -17   22.09    4.70   1
  19 -17 -14    7.29    2.70   1
  19 -17 -10   16.05    4.01   1
  19 -17  -7   14.82    3.85   1
  19 -17  -6   10.27    3.21   1
  19 -17  -5    2.06    1.43   1
  19 -17  -2   13.73    3.70   1
  19 -17   0    1.50    1.22   1
  19 -17   1    7.30    2.70   1
  19 -17   3   13.58    3.69   1
  19 -17   7   13.09    3.62   1
  19 -17  10    8.93    2.99   1
  19 -15 -19    5.14    2.27   1
  19 -15 -18    5.88    2.42   1
  19 -15 -14    8.93    2.99   1
  19 -15 -11    6.15    2.48   1
  19 -15 -10    9.79    3.13   1
  19 -15  -8    2.41    1.55   1
  19 -15  -6    6.71    2.59   1
  19 -15  -3    9.07    3.01   1
  19 -15  -2   19.88    4.46   1
  19 -15  -1    3.86    1.97   1
  19 -15   6   29.39    5.42   1
  19 -15   7    5.04    2.24   1
  19 -15   9    4.05    2.01   1
  19 -15  11    2.59    1.61   1
  19 -15  12    5.04    2.25   1
  19 -15  13    5.52    2.35   1
  19 -15  15   13.73    3.71   1
  19 -15  17    6.52    2.55   1
  19 -15  18   15.05    3.88   1
  19 -13 -17    5.82    2.41   1
  19 -13 -14    3.53    1.88   1
  19 -13 -13    7.46    2.73   1
  19 -13 -12   22.83    4.78   1
  19 -13 -11   12.73    3.57   1
  19 -13  -7   13.43    3.66   1
  19 -13  -5   17.01    4.12   1
  19 -13  -3    9.23    3.04   1
  19 -13   4   24.00    4.90   1
  19 -13   8    9.75    3.12   1
  19 -13   9    6.17    2.48   1
  19 -13  15    9.00    3.00   1
  19 -13  16    9.30    3.05   1
  19 -13  18   12.74    3.57   1
  19 -11 -23   13.80    3.71   1
  19 -11 -22   16.84    4.10   1
  19 -11 -18   11.04    3.32   1
  19 -11 -16    4.65    2.16   1
  19 -11 -14    5.29    2.30   1
  19 -11 -12    9.82    3.13   1
  19 -11  -9    7.24    2.69   1
  19 -11  -8    8.79    2.97   1
  19 -11  -7    3.79    1.95   1
  19 -11  -4    5.15    2.27   1
  19 -11  -2    6.57    2.56   1
  19 -11   0    8.55    2.92   1
  19 -11   2   18.87    4.34   1
  19 -11   6    2.36    1.54   1
  19 -11   8   11.63    3.41   1
  19 -11  12    1.90    1.38   1
  19 -11  17    5.39    2.32   1
  19  -9 -22    1.61    1.27   1
  19  -9 -18    9.23    3.04   1
  19  -9 -17   19.26    4.39   1
  19  -9 -16   18.87    4.34   1
  19  -9 -13    8.81    2.97   1
  19  -9  -8    5.51    2.35   1
  19  -9  -6   18.67    4.32   1
  19  -9  -4   18.83    4.34   1
  19  -9   0    3.20    1.79   1
  19  -9   1   12.41    3.52   1
  19  -9   3   29.33    5.42   1
  19  -9   4   24.67    4.97   1
  19  -9   7   14.37    3.79   1
  19  -9   8    3.36    1.83   1
  19  -9   9    8.70    2.95   1
  19  -9  11    8.22    2.87   1
  19  -9  12    2.66    1.63   1
  19  -9  18    5.40    2.32   1
  19  -9  20    6.07    2.46   1
  19  -9  23    7.47    2.73   1
  19  -7 -22   14.49    3.81   1
  19  -7 -20    5.18    2.27   1
  19  -7 -19   12.34    3.51   1
  19  -7 -15    3.08    1.75   1
  19  -7 -14   10.27    3.21   1
  19  -7 -10    6.34    2.52   1
  19  -7  -9   20.92    4.57   1
  19  -7  -7    9.55    3.09   1
  19  -7  -5    7.22    2.69   1
  19  -7  -3    8.68    2.95   1
  19  -7   0   17.25    4.15   1
  19  -7   1   10.35    3.22   1
  19  -7   2   18.19    4.26   1
  19  -7   4   28.93    5.38   1
  19  -7   5    5.18    2.27   1
  19  -7   6   10.62    3.26   1
  19  -7   7   11.77    3.43   1
  19  -7   8    2.10    1.45   1
  19  -7  12   23.62    4.86   1
  19  -7  13   17.54    4.19   1
  19  -7  16   10.27    3.21   1
  19  -7  18   19.36    4.40   1
  19  -7  20    8.16    2.86   1
  19  -7  22    7.20    2.68   1
  19  -7  24    2.18    1.48   1
  19  -5 -24    9.42    3.07   1
  19  -5 -23   16.95    4.12   1
  19  -5 -21   14.70    3.83   1
  19  -5 -20   10.05    3.17   1
  19  -5 -17   31.81    5.64   1
  19  -5 -13   10.08    3.18   1
  19  -5 -12    3.56    1.89   1
  19  -5 -11    8.70    2.95   1
  19  -5  -9    4.99    2.23   1
  19  -5  -8   19.32    4.40   1
  19  -5  -7    7.75    2.78   1
  19  -5  -5   16.07    4.01   1
  19  -5  -1    2.45    1.57   1
  19  -5   2   16.50    4.06   1
  19  -5   3   10.27    3.21   1
  19  -5   4   14.02    3.74   1
  19  -5   5   25.65    5.06   1
  19  -5   8   11.77    3.43   1
  19  -5  10    9.15    3.02   1
  19  -5  12    6.15    2.48   1
  19  -5  13    8.32    2.88   1
  19  -5  15    3.50    1.87   1
  19  -5  24    7.88    2.81   1
  19  -3 -23    7.50    2.74   1
  19  -3 -22    6.22    2.49   1
  19  -3 -19    3.90    1.97   1
  19  -3 -18    4.80    2.19   1
  19  -3 -15   16.88    4.11   1
  19  -3 -10    3.38    1.84   1
  19  -3  -8   21.83    4.67   1
  19  -3  -5   14.40    3.79   1
  19  -3  -4   22.88    4.78   1
  19  -3  -1   10.43    3.23   1
  19  -3   0   18.30    4.28   1
  19  -3   1    2.38    1.54   1
  19  -3   2   31.13    5.58   1
  19  -3   4   15.49    3.94   1
  19  -3   6   21.98    4.69   1
  19  -3   8    7.54    2.75   1
  19  -3   9    8.70    2.95   1
  19  -3  11    5.03    2.24   1
  19  -3  19    2.61    1.62   1
  19  -3  23   13.65    3.69   1
  19  -1 -23   12.45    3.53   1
  19  -1 -20    9.88    3.14   1
  19  -1 -19    6.96    2.64   1
  19  -1 -17   19.05    4.36   1
  19  -1 -13    2.85    1.69   1
  19  -1 -11   12.52    3.54   1
  19  -1 -10   11.22    3.35   1
  19  -1  -9   20.11    4.48   1
  19  -1  -8    6.42    2.53   1
  19  -1  -5    2.08    1.44   1
  19  -1  -3    2.25    1.50   1
  19  -1  -2   14.74    3.84   1
  19  -1   1   22.06    4.70   1
  19  -1   3   19.36    4.40   1
  19  -1   5   43.50    6.60   1
  19  -1   6    7.65    2.77   1
  19  -1   8    9.48    3.08   1
  19  -1   9    6.53    2.55   1
  19  -1  11    2.63    1.62   1
  19  -1  12   24.99    5.00   1
  19  -1  14   14.89    3.86   1
  19  -1  16   15.42    3.93   1
  19  -1  21    6.32    2.51   1
  19  -1  22   13.32    3.65   1
  19   1 -24    7.08    2.66   1
  19   1 -22   11.81    3.44   1
  19   1 -21    4.40    2.10   1
  19   1 -20    4.57    2.14   1
  19   1 -14    7.36    2.71   1
  19   1 -11    4.39    2.10   1
  19   1 -10   12.90    3.59   1
  19   1  -9    5.63    2.37   1
  19   1  -8   29.02    5.39   1
  19   1  -6    2.06    1.44   1
  19   1  -2    2.40    1.55   1
  19   1  -1   14.95    3.87   1
  19   1   0    3.33    1.82   1
  19   1   1    7.13    2.67   1
  19   1   2   17.48    4.18   1
  19   1   3   11.65    3.41   1
  19   1   5   25.72    5.07   1
  19   1   6   33.57    5.79   1
  19   1   7    6.48    2.55   1
  19   1   8   34.42    5.87   1
  19   1  12   20.14    4.49   1
  19   1  13    4.95    2.22   1
  19   1  16   13.25    3.64   1
  19   1  17   29.26    5.41   1
  19   1  22    3.13    1.77   1
  19   3 -23    2.06    1.44   1
  19   3 -21    4.20    2.05   1
  19   3 -19    5.32    2.31   1
  19   3 -18    1.84    1.36   1
  19   3 -15   10.16    3.19   1
  19   3 -14   12.72    3.57   1
  19   3 -12   42.22    6.50   1
  19   3 -11    3.97    1.99   1
  19   3  -7   17.02    4.13   1
  19   3  -6   36.10    6.01   1
  19   3  -5    9.98    3.16   1
  19   3  -3   14.25    3.77   1
  19   3   0    2.85    1.69   1
  19   3   1   10.45    3.23   1
  19   3   2    4.20    2.05   1
  19   3   4   13.57    3.68   1
  19   3   5   48.11    6.94   1
  19   3   6   44.35    6.66   1
  19   3   8   58.31    7.64   1
  19   3  12    2.75    1.66   1
  19   3  14    7.85    2.80   1
  19   3  15    6.94    2.63   1
  19   3  17    9.78    3.13   1
  19   3  20    9.25    3.04   1
  19   3  22    8.40    2.90   1
  19   3  23    2.63    1.62   1
  19   3  24   12.11    3.48   1
  19   5 -22   19.65    4.43   1
  19   5 -21    3.11    1.76   1
  19   5 -18    7.13    2.67   1
  19   5 -17    9.00    3.00   1
  19   5 -14    4.62    2.15   1
  19   5 -11    2.12    1.46   1
  19   5  -8   10.20    3.19   1
  19   5  -7    3.38    1.84   1
  19   5  -6   12.93    3.60   1
  19   5  -4    5.74    2.40   1
  19   5  -3    7.00    2.65   1
  19   5  -1    7.72    2.78   1
  19   5   2    2.73    1.65   1
  19   5   3    7.20    2.68   1
  19   5   5   22.80    4.77   1
  19   5   6    4.24    2.06   1
  19   5   7   26.48    5.15   1
  19   5   8    4.72    2.17   1
  19   5  10    4.86    2.20   1
  19   5  12   25.42    5.04   1
  19   5  13    8.97    3.00   1
  19   5  17    3.78    1.95   1
  19   7 -16   17.40    4.17   1
  19   7 -13   12.98    3.60   1
  19   7 -12    6.35    2.52   1
  19   7 -11   11.25    3.35   1
  19   7  -7   27.84    5.28   1
  19   7  -6    1.94    1.39   1
  19   7  -3   10.05    3.17   1
  19   7  -2   23.33    4.83   1
  19   7  -1    6.61    2.57   1
  19   7   2   14.66    3.83   1
  19   7   4   17.22    4.15   1
  19   7   6    9.26    3.04   1
  19   7   9    3.08    1.75   1
  19   7  11   16.28    4.04   1
  19   7  12    2.25    1.50   1
  19   7  18   18.46    4.30   1
  19   7  20    2.70    1.64   1
  19   7  23    4.20    2.05   1
  19   9 -22   15.52    3.94   1
  19   9 -20    1.54    1.24   1
  19   9  -9   10.40    3.22   1
  19   9  -5   11.24    3.35   1
  19   9   0    1.94    1.39   1
  19   9   4   16.42    4.05   1
  19   9   5    8.20    2.86   1
  19   9   6    6.52    2.55   1
  19   9   9    1.58    1.25   1
  19   9  10    8.63    2.94   1
  19   9  12    6.82    2.61   1
  19   9  15    8.61    2.93   1
  19   9  20   23.55    4.85   1
  19   9  21   13.23    3.64   1
  19   9  23   13.80    3.71   1
  19  11 -23    2.40    1.55   1
  19  11 -17    6.72    2.59   1
  19  11 -15    3.15    1.77   1
  19  11 -11    2.63    1.62   1
  19  11  -7   11.55    3.40   1
  19  11  -6   11.08    3.33   1
  19  11  -5    5.47    2.34   1
  19  11  -2    6.22    2.49   1
  19  11  -1   19.88    4.46   1
  19  11   0    3.97    1.99   1
  19  11   1   16.75    4.09   1
  19  11   4   11.02    3.32   1
  19  11   6    9.79    3.13   1
  19  11  10   12.45    3.53   1
  19  11  17    6.82    2.61   1
  19  11  21    1.55    1.25   1
  19  11  22    5.10    2.26   1
  19  11  23    8.59    2.93   1
  19  11  24    7.61    2.76   1
  19  13 -24    4.13    2.03   1
  19  13 -19    6.53    2.55   1
  19  13 -18   14.18    3.76   1
  19  13 -17    9.55    3.09   1
  19  13 -12    8.25    2.87   1
  19  13 -11   10.65    3.26   1
  19  13  -8    5.93    2.43   1
  19  13  -5   24.87    4.99   1
  19  13  -4    1.91    1.38   1
  19  13  -3    1.79    1.34   1
  19  13  -2    6.82    2.61   1
  19  13   1   10.00    3.16   1
  19  13   2   32.25    5.68   1
  19  13   3    4.80    2.19   1
  19  13   4    6.98    2.64   1
  19  13   8    2.84    1.69   1
  19  13  10    7.50    2.74   1
  19  13  11   10.83    3.29   1
  19  13  13    5.65    2.38   1
  19  13  14   19.84    4.45   1
  19  15 -21    5.07    2.25   1
  19  15 -19    1.58    1.25   1
  19  15 -11    1.84    1.36   1
  19  15  -7    4.46    2.11   1
  19  15  -5    9.38    3.06   1
  19  15  -4   12.45    3.53   1
  19  15  -3    2.47    1.57   1
  19  15  -2    9.68    3.11   1
  19  15   2    7.21    2.68   1
  19  15   3    2.89    1.70   1
  19  15   4   11.36    3.37   1
  19  15   7    3.78    1.94   1
  19  15  18    6.90    2.63   1
  19  15  20   17.20    4.15   1
  19  15  21    8.77    2.96   1
  19  17 -19    1.54    1.24   1
  19  17 -18    1.65    1.28   1
  19  17 -16    7.65    2.77   1
  19  17 -13    9.45    3.07   1
  19  17 -11    6.03    2.46   1
  19  17  -8   16.88    4.11   1
  19  17  -7    7.55    2.75   1
  19  17  -5   15.69    3.96   1
  19  17  -4    5.32    2.31   1
  19  17  -2    3.35    1.83   1
  19  17   0    6.07    2.46   1
  19  17   4   10.23    3.20   1
  19  17   5    6.53    2.56   1
  19  17   6   14.88    3.86   1
  19  17   7    1.73    1.31   1
  19  17   8    2.66    1.63   1
  19  17   9    2.33    1.52   1
  19  17  10   23.92    4.89   1
  19  17  13    8.40    2.90   1
  19  19 -15    6.01    2.45   1
  19  19 -14    2.88    1.70   1
  19  19 -13   10.57    3.25   1
  19  19  -8    7.10    2.66   1
  19  19  -2    7.37    2.71   1
  19  19   1   10.57    3.25   1
  19  19   7    9.50    3.08   1
  19  19   8   11.56    3.40   1
  19  19  10    5.55    2.36   1
  19  19  14    7.72    2.78   1
  19  19  15   13.95    3.73   1
  19  21 -13   22.13    4.70   1
  19  21 -10   12.30    3.51   1
  19  21  -9   11.59    3.40   1
  19  21  -7   12.23    3.50   1
  19  21  -5    8.21    2.87   1
  19  21  -3   14.29    3.78   1
  19  21  -1    9.38    3.06   1
  19  21   0    3.79    1.95   1
  19  21   9   14.93    3.86   1
  19  23  -7   14.02    3.74   1
  19  23  -6   12.04    3.47   1
  19  23  -3   19.20    4.38   1
  19  23   0    3.33    1.83   1
  19  23   1    7.35    2.71   1
  19  23   3    7.58    2.75   1
  19  23   4    6.60    2.57   1
  19  23   5   10.07    3.17   1
  20 -20  -8   15.94    3.99   1
  20 -20  -7    1.86    1.36   1
  20 -20  -5    3.30    1.82   1
  20 -20  -4   23.02    4.80   1
  20 -20  -3   16.88    4.11   1
  20 -20  -2   12.90    3.59   1
  20 -20  -1   11.99    3.46   1
  20 -20   1   12.68    3.56   1
  20 -20   3    6.94    2.63   1
  20 -20   5    9.79    3.13   1
  20 -20   6   11.96    3.46   1
  20 -20   7    5.43    2.33   1
  20 -20   8    4.72    2.17   1
  20 -18 -14    7.57    2.75   1
  20 -18 -12   13.35    3.65   1
  20 -18 -11   13.90    3.73   1
  20 -18 -10    9.82    3.13   1
  20 -18  -6   12.86    3.59   1
  20 -18  -5    6.56    2.56   1
  20 -18  -3    8.90    2.98   1
  20 -18  -2   16.62    4.08   1
  20 -18   1    5.55    2.36   1
  20 -18   2   26.25    5.12   1
  20 -18   3    4.99    2.23   1
  20 -18   4   10.27    3.21   1
  20 -18   5    8.80    2.97   1
  20 -18   6   11.81    3.44   1
  20 -18   7   15.22    3.90   1
  20 -18   9   10.45    3.23   1
  20 -18  11    9.71    3.12   1
  20 -18  12    6.04    2.46   1
  20 -16 -15    2.30    1.52   1
  20 -16  -9    9.52    3.08   1
  20 -16  -6   12.91    3.59   1
  20 -16  -5    8.81    2.97   1
  20 -16  -3    8.98    3.00   1
  20 -16  -1    2.43    1.56   1
  20 -16   0    7.61    2.76   1
  20 -16   1   13.99    3.74   1
  20 -16   4   17.70    4.21   1
  20 -16   9   15.88    3.99   1
  20 -16  12    8.87    2.98   1
  20 -14 -17   14.02    3.74   1
  20 -14 -16    2.66    1.63   1
  20 -14 -15   19.97    4.47   1
  20 -14 -14    7.12    2.67   1
  20 -14 -13    1.58    1.25   1
  20 -14 -12    3.00    1.73   1
  20 -14 -11    9.79    3.13   1
  20 -14 -10    4.91    2.22   1
  20 -14  -7    7.43    2.73   1
  20 -14  -5   18.46    4.30   1
  20 -14  -4   26.32    5.13   1
  20 -14  -2    2.25    1.50   1
  20 -14  -1    5.32    2.31   1
  20 -14   1    7.05    2.66   1
  20 -14   2   19.02    4.36   1
  20 -14   4    5.36    2.32   1
  20 -14   5    5.63    2.37   1
  20 -14   7   15.77    3.97   1
  20 -14   8    1.65    1.28   1
  20 -14  14   21.60    4.65   1
  20 -12 -22    4.79    2.19   1
  20 -12 -20    7.57    2.75   1
  20 -12 -19    7.20    2.68   1
  20 -12 -18   31.39    5.60   1
  20 -12 -17   17.33    4.16   1
  20 -12 -16    8.81    2.97   1
  20 -12 -15   11.06    3.33   1
  20 -12  -8   14.70    3.83   1
  20 -12  -7    2.55    1.60   1
  20 -12  -5   12.23    3.50   1
  20 -12  -1    9.32    3.05   1
  20 -12   1   18.29    4.28   1
  20 -12   2    5.14    2.27   1
  20 -12   3   10.87    3.30   1
  20 -12   4    7.58    2.75   1
  20 -12   6   11.28    3.36   1
  20 -12   7   11.09    3.33   1
  20 -12  10   12.38    3.52   1
  20 -12  15    9.34    3.06   1
  20 -12  17    7.13    2.67   1
  20 -10 -22    1.58    1.25   1
  20 -10 -20    6.60    2.57   1
  20 -10 -17    5.63    2.37   1
  20 -10 -13   13.80    3.71   1
  20 -10 -11    6.56    2.56   1
  20 -10  -8   13.98    3.74   1
  20 -10  -5   27.47    5.24   1
  20 -10  -4    2.17    1.47   1
  20 -10  -3   13.20    3.63   1
  20 -10  -2    6.60    2.57   1
  20 -10  -1   16.30    4.04   1
  20 -10   3   33.20    5.76   1
  20 -10   5   21.60    4.65   1
  20 -10   6   15.90    3.99   1
  20 -10   8    9.23    3.04   1
  20 -10  10    3.94    1.98   1
  20 -10  13   11.85    3.44   1
  20 -10  17    3.56    1.89   1
  20 -10  19    4.90    2.21   1
  20  -8 -22    4.91    2.22   1
  20  -8 -21    2.47    1.57   1
  20  -8 -20   10.73    3.27   1
  20  -8 -18   16.65    4.08   1
  20  -8 -16   28.43    5.33   1
  20  -8 -15    4.44    2.11   1
  20  -8  -9   11.35    3.37   1
  20  -8  -3    7.43    2.72   1
  20  -8  -2    6.81    2.61   1
  20  -8  -1    3.00    1.73   1
  20  -8   3   26.83    5.18   1
  20  -8   5   25.73    5.07   1
  20  -8   6   21.41    4.63   1
  20  -8   7    4.31    2.08   1
  20  -8   8    9.11    3.02   1
  20  -8  18   10.05    3.17   1
  20  -8  22   11.25    3.35   1
  20  -6 -24    3.75    1.94   1
  20  -6 -21    5.78    2.40   1
  20  -6 -19   14.10    3.75   1
  20  -6 -14    6.56    2.56   1
  20  -6 -12   10.12    3.18   1
  20  -6 -10    3.26    1.81   1
  20  -6  -8   18.55    4.31   1
  20  -6  -7    6.02    2.45   1
  20  -6  -5   23.21    4.82   1
  20  -6  -4   21.74    4.66   1
  20  -6  -1    5.10    2.26   1
  20  -6   0    3.14    1.77   1
  20  -6   1   52.25    7.23   1
  20  -6   2   31.03    5.57   1
  20  -6   3   19.50    4.42   1
  20  -6   6   13.69    3.70   1
  20  -6   7   14.73    3.84   1
  20  -6   8   20.63    4.54   1
  20  -6   9    9.75    3.12   1
  20  -6  10   15.38    3.92   1
  20  -6  11    7.38    2.72   1
  20  -6  15   10.46    3.23   1
  20  -6  19    4.91    2.22   1
  20  -6  21   12.72    3.57   1
  20  -6  23    3.45    1.86   1
  20  -4 -24    5.78    2.40   1
  20  -4 -23   15.24    3.90   1
  20  -4 -22    5.86    2.42   1
  20  -4 -15   20.10    4.48   1
  20  -4 -12   13.88    3.72   1
  20  -4  -8    4.40    2.10   1
  20  -4  -7    7.80    2.79   1
  20  -4  -6   15.38    3.92   1
  20  -4  -1   25.40    5.04   1
  20  -4   5   13.20    3.63   1
  20  -4   6    5.14    2.27   1
  20  -4   8   13.30    3.65   1
  20  -4   9   12.98    3.60   1
  20  -4  11   17.33    4.16   1
  20  -4  15   13.35    3.65   1
  20  -4  17    3.67    1.92   1
  20  -4  18    3.19    1.79   1
  20  -4  23    9.04    3.01   1
  20  -2 -21    9.18    3.03   1
  20  -2 -20    5.32    2.31   1
  20  -2 -17   17.72    4.21   1
  20  -2 -16    4.20    2.05   1
  20  -2 -13   16.65    4.08   1
  20  -2  -9   11.77    3.43   1
  20  -2  -8    9.98    3.16   1
  20  -2  -6    4.95    2.22   1
  20  -2  -4    9.15    3.03   1
  20  -2  -3    3.87    1.97   1
  20  -2  -2   12.84    3.58   1
  20  -2  -1   14.24    3.77   1
  20  -2   1   46.13    6.79   1
  20  -2   2   36.19    6.02   1
  20  -2   6   15.18    3.90   1
  20  -2   9    2.98    1.73   1
  20  -2  10    7.69    2.77   1
  20  -2  11    3.55    1.88   1
  20  -2  15   33.90    5.82   1
  20  -2  16   21.31    4.62   1
  20  -2  18   15.60    3.95   1
  20  -2  21   23.10    4.81   1
  20  -2  23    9.30    3.05   1
  20  -2  24    6.41    2.53   1
  20   0 -21    6.38    2.52   1
  20   0 -20   14.07    3.75   1
  20   0 -19    6.60    2.57   1
  20   0 -12    6.99    2.64   1
  20   0  -9    7.65    2.77   1
  20   0  -6    8.10    2.85   1
  20   0  -3    8.02    2.83   1
  20   0  -1    9.26    3.04   1
  20   0   0   13.02    3.61   1
  20   0   1   94.16    9.70   1
  20   0   2   14.37    3.79   1
  20   0   3    4.60    2.14   1
  20   0   4   19.73    4.44   1
  20   0   5   21.83    4.67   1
  20   0   9    8.63    2.94   1
  20   0  13    1.91    1.38   1
  20   0  14   15.45    3.93   1
  20   0  18   22.97    4.79   1
  20   0  23    8.59    2.93   1
  20   2 -24   10.05    3.17   1
  20   2 -23    7.88    2.81   1
  20   2 -20    6.16    2.48   1
  20   2 -18   13.20    3.63   1
  20   2 -14    6.30    2.51   1
  20   2 -11    2.63    1.62   1
  20   2  -8   43.95    6.63   1
  20   2  -7    1.65    1.28   1
  20   2  -6   18.52    4.30   1
  20   2  -4    5.89    2.43   1
  20   2  -3    6.55    2.56   1
  20   2   0   22.95    4.79   1
  20   2   2   13.88    3.72   1
  20   2   3   11.94    3.46   1
  20   2   4   10.24    3.20   1
  20   2   5    3.42    1.85   1
  20   2   7    4.54    2.13   1
  20   2   8   16.99    4.12   1
  20   2   9    6.07    2.46   1
  20   2  11    8.29    2.88   1
  20   2  12    4.88    2.21   1
  20   2  13    7.28    2.70   1
  20   2  15    8.51    2.92   1
  20   2  17   13.05    3.61   1
  20   2  18    6.12    2.47   1
  20   2  21    1.54    1.24   1
  20   2  22    5.17    2.27   1
  20   2  23   11.39    3.38   1
  20   4 -24    4.91    2.22   1
  20   4 -17   20.04    4.48   1
  20   4 -14    2.45    1.57   1
  20   4 -13    2.43    1.56   1
  20   4  -9   16.95    4.12   1
  20   4  -8    8.16    2.86   1
  20   4  -7    8.55    2.92   1
  20   4  -5    1.73    1.31   1
  20   4  -4   13.43    3.66   1
  20   4   1   34.14    5.84   1
  20   4   2   15.11    3.89   1
  20   4   3    2.45    1.57   1
  20   4   4   14.36    3.79   1
  20   4   7   17.10    4.14   1
  20   4   8   14.89    3.86   1
  20   4  10   17.05    4.13   1
  20   4  11   14.40    3.79   1
  20   4  15    5.45    2.33   1
  20   4  16    8.93    2.99   1
  20   4  17    3.88    1.97   1
  20   4  20   12.90    3.59   1
  20   4  22   10.67    3.27   1
  20   4  23    5.62    2.37   1
  20   4  24    3.07    1.75   1
  20   6 -22   20.27    4.50   1
  20   6 -21   14.50    3.81   1
  20   6 -17    9.75    3.12   1
  20   6 -14   12.05    3.47   1
  20   6 -11   10.01    3.16   1
  20   6 -10   19.52    4.42   1
  20   6  -9   10.59    3.25   1
  20   6  -8   12.19    3.49   1
  20   6  -7    7.38    2.72   1
  20   6  -6    7.50    2.74   1
  20   6  -4   14.83    3.85   1
  20   6  -2   20.33    4.51   1
  20   6   0    8.59    2.93   1
  20   6   1   99.86    9.99   1
  20   6   2   12.17    3.49   1
  20   6   7    5.40    2.32   1
  20   6   8   11.39    3.38   1
  20   6  10   13.57    3.68   1
  20   6  11    6.53    2.55   1
  20   6  12   13.91    3.73   1
  20   6  18    1.77    1.33   1
  20   6  20    4.57    2.14   1
  20   6  22    3.19    1.79   1
  20   6  23    5.11    2.26   1
  20   8 -24   17.40    4.17   1
  20   8 -21   11.05    3.32   1
  20   8 -19    4.65    2.16   1
  20   8 -18   16.75    4.09   1
  20   8 -13   10.65    3.26   1
  20   8 -11   15.45    3.93   1
  20   8 -10    4.59    2.14   1
  20   8  -9   11.02    3.32   1
  20   8  -8   11.85    3.44   1
  20   8  -6   11.25    3.35   1
  20   8  -3   12.68    3.56   1
  20   8  -1   16.91    4.11   1
  20   8   0    9.86    3.14   1
  20   8   1   40.40    6.36   1
  20   8   2   23.91    4.89   1
  20   8   6    1.50    1.22   1
  20   8  10    2.35    1.53   1
  20   8  11   11.87    3.44   1
  20   8  12   15.16    3.89   1
  20   8  17    3.79    1.95   1
  20   8  18    2.14    1.46   1
  20   8  19   11.70    3.42   1
  20   8  20   12.75    3.57   1
  20   8  24    9.49    3.08   1
  20  10 -22   10.13    3.18   1
  20  10 -21    4.39    2.09   1
  20  10 -20    7.72    2.78   1
  20  10 -18    6.60    2.57   1
  20  10 -14    2.10    1.45   1
  20  10 -13    1.58    1.25   1
  20  10 -12   13.45    3.67   1
  20  10  -8    4.38    2.09   1
  20  10  -6   14.66    3.83   1
  20  10  -2    6.19    2.49   1
  20  10   2   10.84    3.29   1
  20  10   3   16.80    4.10   1
  20  10   5    5.46    2.34   1
  20  10   7    3.67    1.92   1
  20  10   8   10.27    3.21   1
  20  10  12    1.58    1.25   1
  20  10  13    2.14    1.46   1
  20  10  18    4.76    2.18   1
  20  10  19   11.10    3.33   1
  20  12 -22    9.34    3.06   1
  20  12 -21    5.42    2.33   1
  20  12 -18    3.91    1.98   1
  20  12 -11   18.75    4.33   1
  20  12  -9    2.03    1.42   1
  20  12  -6   19.88    4.46   1
  20  12  -5    9.45    3.07   1
  20  12  -3   18.98    4.36   1
  20  12  -1    7.50    2.74   1
  20  12   0   15.34    3.92   1
  20  12   1   20.85    4.57   1
  20  12   2   21.94    4.68   1
  20  12   4   19.65    4.43   1
  20  12   6   11.58    3.40   1
  20  12   8    8.70    2.95   1
  20  12   9    5.56    2.36   1
  20  12  10    1.98    1.41   1
  20  12  12    1.73    1.31   1
  20  12  17    4.47    2.12   1
  20  12  20    8.10    2.85   1
  20  14 -21   10.11    3.18   1
  20  14 -15   11.55    3.40   1
  20  14 -14    8.40    2.90   1
  20  14  -8    9.82    3.13   1
  20  14  -6    9.90    3.15   1
  20  14  -5   12.15    3.49   1
  20  14  -4   11.07    3.33   1
  20  14  -3    8.18    2.86   1
  20  14   1   17.15    4.14   1
  20  14   2    7.87    2.81   1
  20  14   3    6.26    2.50   1
  20  14   4   29.63    5.44   1
  20  14   5   17.17    4.14   1
  20  14   6    6.42    2.53   1
  20  14   7    1.76    1.33   1
  20  14  13    1.69    1.30   1
  20  14  17   17.55    4.19   1
  20  16 -15   12.74    3.57   1
  20  16 -13    9.68    3.11   1
  20  16  -9    8.32    2.89   1
  20  16  -8    8.02    2.83   1
  20  16  -6    5.96    2.44   1
  20  16  -5   10.09    3.18   1
  20  16  -3   19.01    4.36   1
  20  16  -2   10.31    3.21   1
  20  16   0    6.82    2.61   1
  20  16   1   28.88    5.37   1
  20  16   3    8.59    2.93   1
  20  16   5    1.86    1.36   1
  20  16   6    9.60    3.10   1
  20  16   7    3.49    1.87   1
  20  16   9    9.22    3.04   1
  20  16  15    7.80    2.79   1
  20  16  16   17.08    4.13   1
  20  16  18    2.65    1.63   1
  20  18 -14    6.68    2.58   1
  20  18  -9    7.55    2.75   1
  20  18  -7   19.05    4.36   1
  20  18  -6   12.45    3.53   1
  20  18  -5    5.18    2.28   1
  20  18  -2   24.98    5.00   1
  20  18   0    1.77    1.33   1
  20  18   3    2.09    1.44   1
  20  18   5    2.70    1.64   1
  20  18   7    6.82    2.61   1
  20  18  11    5.47    2.34   1
  20  18  12    7.35    2.71   1
  20  18  13    4.13    2.03   1
  20  18  15   12.17    3.49   1
  20  20 -11    6.86    2.62   1
  20  20  -9    2.57    1.60   1
  20  20  -7   12.82    3.58   1
  20  20  -6   10.73    3.27   1
  20  20  -5    4.35    2.09   1
  20  20  -4    5.81    2.41   1
  20  20  -3   12.75    3.57   1
  20  20  -2    1.88    1.37   1
  20  20   1   12.03    3.47   1
  20  20   3    4.57    2.14   1
  20  20   4    7.91    2.81   1
  20  20   7    1.87    1.37   1
  20  20  10    3.45    1.86   1
  20  22  -4    3.69    1.92   1
  20  22  -3    9.10    3.02   1
  20  22  -1    8.32    2.89   1
  20  22   0   11.32    3.37   1
  20  22   1   41.70    6.46   1
  20  22   5    8.90    2.98   1
  21 -19  -2    9.41    3.07   1
  21 -19   0    7.76    2.79   1
  21 -19   2    5.47    2.34   1
  21 -19   3    8.21    2.87   1
  21 -19   5    8.59    2.93   1
  21 -19   6   18.60    4.31   1
  21 -17 -13    2.36    1.54   1
  21 -17 -10   11.41    3.38   1
  21 -17  -7    9.07    3.01   1
  21 -17  -5    7.65    2.77   1
  21 -17  -4    7.13    2.67   1
  21 -17  -2    1.58    1.25   1
  21 -17  -1    2.52    1.59   1
  21 -17   2    3.41    1.85   1
  21 -17   3    9.02    3.00   1
  21 -17   5    2.10    1.45   1
  21 -17   6    6.15    2.48   1
  21 -17   7    3.67    1.92   1
  21 -17   9    5.78    2.40   1
  21 -15 -17   13.88    3.72   1
  21 -15 -15    3.30    1.82   1
  21 -15 -13    1.79    1.34   1
  21 -15 -12    2.49    1.58   1
  21 -15 -11    2.46    1.57   1
  21 -15 -10    5.78    2.40   1
  21 -15  -8   17.33    4.16   1
  21 -15  -5    2.33    1.52   1
  21 -15  -4    6.04    2.46   1
  21 -15   0   10.01    3.16   1
  21 -15   1    8.36    2.89   1
  21 -15   6   13.05    3.61   1
  21 -15   9   38.03    6.17   1
  21 -15  14    9.19    3.03   1
  21 -13 -19    1.99    1.41   1
  21 -13 -18    4.68    2.16   1
  21 -13 -17   12.23    3.50   1
  21 -13 -14   15.21    3.90   1
  21 -13 -13    3.67    1.92   1
  21 -13  -7   16.50    4.06   1
  21 -13  -6   21.83    4.67   1
  21 -13  -5   25.50    5.05   1
  21 -13  -4   16.08    4.01   1
  21 -13   0    6.82    2.61   1
  21 -13   1   17.48    4.18   1
  21 -13   4   17.17    4.14   1
  21 -13   6    1.56    1.25   1
  21 -13   7   20.21    4.50   1
  21 -13  13    6.15    2.48   1
  21 -13  14    8.40    2.90   1
  21 -13  18    7.88    2.81   1
  21 -11 -21   16.29    4.04   1
  21 -11 -17   10.62    3.26   1
  21 -11 -16   13.99    3.74   1
  21 -11 -13    1.88    1.37   1
  21 -11 -12   14.91    3.86   1
  21 -11 -11    6.60    2.57   1
  21 -11  -9    9.23    3.04   1
  21 -11  -7    5.74    2.40   1
  21 -11  -3    5.43    2.33   1
  21 -11   4   11.40    3.38   1
  21 -11   6    7.80    2.79   1
  21 -11   7    6.97    2.64   1
  21 -11   8    2.92    1.71   1
  21 -11  11    5.65    2.38   1
  21 -11  12    2.73    1.65   1
  21 -11  15    7.40    2.72   1
  21 -11  17    5.66    2.38   1
  21 -11  20    3.46    1.86   1
  21  -9 -11   19.20    4.38   1
  21  -9  -9    9.85    3.14   1
  21  -9  -5    5.93    2.43   1
  21  -9  -3   17.63    4.20   1
  21  -9   3    3.34    1.83   1
  21  -9   4    6.48    2.55   1
  21  -9   5    8.40    2.90   1
  21  -9   6    3.88    1.97   1
  21  -9  13    1.80    1.34   1
  21  -9  14   11.10    3.33   1
  21  -9  18    7.45    2.73   1
  21  -7 -24    3.67    1.92   1
  21  -7 -17    8.90    2.98   1
  21  -7 -16   19.12    4.37   1
  21  -7 -11    8.55    2.92   1
  21  -7 -10    6.36    2.52   1
  21  -7  -7    2.25    1.50   1
  21  -7  -6   12.56    3.54   1
  21  -7  -5    9.76    3.12   1
  21  -7  -4    9.15    3.02   1
  21  -7   0   11.63    3.41   1
  21  -7   1    8.19    2.86   1
  21  -7   4    4.11    2.03   1
  21  -7   5    8.44    2.90   1
  21  -7   8    8.76    2.96   1
  21  -7  10    4.31    2.08   1
  21  -7  11   12.65    3.56   1
  21  -7  13    9.38    3.06   1
  21  -7  17    2.10    1.45   1
  21  -7  19   10.50    3.24   1
  21  -5 -18    8.48    2.91   1
  21  -5 -17    6.15    2.48   1
  21  -5 -15   14.48    3.80   1
  21  -5 -13   17.99    4.24   1
  21  -5 -11   21.98    4.69   1
  21  -5  -9    5.29    2.30   1
  21  -5  -6   10.13    3.18   1
  21  -5  -5    2.14    1.46   1
  21  -5  -3    5.45    2.33   1
  21  -5  -2    8.77    2.96   1
  21  -5   4   17.48    4.18   1
  21  -5   5   14.36    3.79   1
  21  -5   9    5.03    2.24   1
  21  -5  16    5.08    2.25   1
  21  -5  17    6.19    2.49   1
  21  -5  18   10.38    3.22   1
  21  -5  19    6.19    2.49   1
  21  -5  20   10.05    3.17   1
  21  -5  23   14.14    3.76   1
  21  -3 -24    8.18    2.86   1
  21  -3 -20    6.63    2.58   1
  21  -3 -13    3.94    1.98   1
  21  -3 -11   18.45    4.30   1
  21  -3  -9   14.55    3.81   1
  21  -3  -8   40.35    6.35   1
  21  -3  -7   12.07    3.47   1
  21  -3  -6    4.50    2.12   1
  21  -3  -5   15.30    3.91   1
  21  -3  -3   19.37    4.40   1
  21  -3   0    3.00    1.73   1
  21  -3   4    2.10    1.45   1
  21  -3   5   11.81    3.44   1
  21  -3   6   12.23    3.50   1
  21  -3   9   24.90    4.99   1
  21  -3  10    7.95    2.82   1
  21  -3  12    5.18    2.28   1
  21  -3  13    2.03    1.42   1
  21  -3  16    5.55    2.35   1
  21  -3  17   14.78    3.84   1
  21  -1 -23    4.09    2.02   1
  21  -1 -21   18.27    4.27   1
  21  -1 -11    9.40    3.07   1
  21  -1 -10    1.73    1.31   1
  21  -1  -7   12.01    3.47   1
  21  -1  -6   18.98    4.36   1
  21  -1   2   15.56    3.94   1
  21  -1   3   19.50    4.42   1
  21  -1   4    5.51    2.35   1
  21  -1   9   17.02    4.13   1
  21  -1  11   20.77    4.56   1
  21  -1  13   14.43    3.80   1
  21  -1  15   13.62    3.69   1
  21  -1  17    3.49    1.87   1
  21  -1  18   15.82    3.98   1
  21  -1  24    2.94    1.71   1
  21   1 -24    1.87    1.37   1
  21   1 -23    3.56    1.89   1
  21   1 -22   14.55    3.81   1
  21   1 -21    5.47    2.34   1
  21   1  -8    6.04    2.46   1
  21   1  -7    2.36    1.54   1
  21   1  -5   18.18    4.26   1
  21   1  -4    9.60    3.10   1
  21   1  -2   24.42    4.94   1
  21   1   0   15.96    4.00   1
  21   1   2    4.66    2.16   1
  21   1   3   22.95    4.79   1
  21   1   5    5.89    2.43   1
  21   1   6    4.50    2.12   1
  21   1   7   12.82    3.58   1
  21   1  13   14.63    3.82   1
  21   1  14    6.91    2.63   1
  21   1  17   10.69    3.27   1
  21   1  18   13.55    3.68   1
  21   1  20    3.75    1.94   1
  21   1  22   35.33    5.94   1
  21   3 -24   14.82    3.85   1
  21   3 -20   11.39    3.37   1
  21   3 -19    8.86    2.98   1
  21   3 -17   13.27    3.64   1
  21   3 -16   10.69    3.27   1
  21   3 -15   10.32    3.21   1
  21   3 -12    3.08    1.75   1
  21   3 -10   14.48    3.80   1
  21   3  -8   12.97    3.60   1
  21   3  -7    5.70    2.39   1
  21   3  -6    5.29    2.30   1
  21   3  -5   20.10    4.48   1
  21   3  -4    9.94    3.15   1
  21   3  -2    5.21    2.28   1
  21   3   2   12.45    3.53   1
  21   3   6    4.20    2.05   1
  21   3  13    6.43    2.54   1
  21   3  14    6.79    2.61   1
  21   3  23    5.18    2.27   1
  21   5 -23    9.60    3.10   1
  21   5 -18    9.64    3.10   1
  21   5 -15   10.07    3.17   1
  21   5 -14   10.07    3.17   1
  21   5 -12    2.17    1.47   1
  21   5  -9   27.61    5.25   1
  21   5  -8   28.47    5.34   1
  21   5  -5    3.83    1.96   1
  21   5   4   17.04    4.13   1
  21   5   8   17.88    4.23   1
  21   5   9    6.19    2.49   1
  21   5  13    6.36    2.52   1
  21   5  16    4.48    2.12   1
  21   5  17    9.49    3.08   1
  21   5  18   15.29    3.91   1
  21   5  20    8.25    2.87   1
  21   5  23    7.99    2.83   1
  21   7 -23    7.44    2.73   1
  21   7 -22    2.24    1.50   1
  21   7 -21    2.96    1.72   1
  21   7 -18   13.24    3.64   1
  21   7 -13    2.57    1.60   1
  21   7 -11    6.65    2.58   1
  21   7  -8    9.23    3.04   1
  21   7  -6   10.71    3.27   1
  21   7  -3    5.55    2.36   1
  21   7  -2   23.65    4.86   1
  21   7   3   12.90    3.59   1
  21   7   4   23.40    4.84   1
  21   7  12    5.11    2.26   1
  21   7  17    5.15    2.27   1
  21   7  23    8.93    2.99   1
  21   9 -18   15.52    3.94   1
  21   9 -17    9.27    3.05   1
  21   9 -14    9.24    3.04   1
  21   9 -10    1.88    1.37   1
  21   9  -9    9.07    3.01   1
  21   9  -8   10.39    3.22   1
  21   9  -6    3.67    1.92   1
  21   9  -4    8.77    2.96   1
  21   9  -2   12.42    3.52   1
  21   9  -1    6.45    2.54   1
  21   9   0   13.69    3.70   1
  21   9   1    6.22    2.49   1
  21   9   2    5.78    2.40   1
  21   9   5    7.17    2.68   1
  21   9   6   15.92    3.99   1
  21   9   8    6.71    2.59   1
  21   9   9    1.79    1.34   1
  21   9  10   11.63    3.41   1
  21   9  11   21.34    4.62   1
  21   9  12    2.31    1.52   1
  21  11 -20    7.05    2.66   1
  21  11 -17    5.55    2.36   1
  21  11 -15   17.91    4.23   1
  21  11 -12    3.15    1.77   1
  21  11  -8    5.34    2.31   1
  21  11  -6   13.16    3.63   1
  21  11  -5    2.74    1.65   1
  21  11   1    7.05    2.66   1
  21  11   2    8.21    2.87   1
  21  11   4    9.75    3.12   1
  21  11   5   20.92    4.57   1
  21  11   6    2.67    1.63   1
  21  11  13    2.21    1.49   1
  21  11  14    3.45    1.86   1
  21  11  15    7.64    2.76   1
  21  11  16    3.14    1.77   1
  21  11  17   13.43    3.66   1
  21  11  20    3.67    1.92   1
  21  11  21    9.98    3.16   1
  21  13 -21    5.40    2.32   1
  21  13 -19    5.85    2.42   1
  21  13 -16    4.66    2.16   1
  21  13 -14    5.60    2.37   1
  21  13 -11    3.99    2.00   1
  21  13 -10    9.75    3.12   1
  21  13  -9   15.60    3.95   1
  21  13  -8    5.47    2.34   1
  21  13  -7    6.60    2.57   1
  21  13  -5   11.75    3.43   1
  21  13  -4    2.92    1.71   1
  21  13  -3    8.39    2.90   1
  21  13  -2   25.01    5.00   1
  21  13   0   26.02    5.10   1
  21  13   2   17.55    4.19   1
  21  13   4   15.49    3.94   1
  21  13   5    8.63    2.94   1
  21  13   6   10.80    3.29   1
  21  13   7   27.79    5.27   1
  21  13  13    8.88    2.98   1
  21  13  15    2.20    1.48   1
  21  13  16   17.77    4.22   1
  21  13  17    6.45    2.54   1
  21  13  18    2.33    1.52   1
  21  15 -19   11.40    3.38   1
  21  15 -15   14.96    3.87   1
  21  15 -10   13.68    3.70   1
  21  15  -3   26.36    5.13   1
  21  15  -2    5.89    2.43   1
  21  15  -1   16.61    4.08   1
  21  15   1    6.82    2.61   1
  21  15   5   32.03    5.66   1
  21  15   6    5.32    2.31   1
  21  15  12   11.61    3.41   1
  21  15  17    1.54    1.24   1
  21  17 -16    4.91    2.22   1
  21  17 -14    5.96    2.44   1
  21  17 -13    6.22    2.49   1
  21  17 -12   16.42    4.05   1
  21  17 -10    4.65    2.16   1
  21  17  -7   13.68    3.70   1
  21  17  -5    1.73    1.31   1
  21  17  -3   13.13    3.62   1
  21  17  -2   15.98    4.00   1
  21  17  -1    4.65    2.16   1
  21  17   1    5.70    2.39   1
  21  17   3    3.45    1.86   1
  21  17   4    5.63    2.37   1
  21  17   6    6.21    2.49   1
  21  17  10    5.47    2.34   1
  21  17  12   11.16    3.34   1
  21  17  13   17.92    4.23   1
  21  19 -11    3.08    1.75   1
  21  19  -9   10.16    3.19   1
  21  19  -7    1.91    1.38   1
  21  19  -6    4.73    2.18   1
  21  19  -3   11.63    3.41   1
  21  19  -2    9.68    3.11   1
  21  19   0    1.58    1.25   1
  21  19   1    4.28    2.07   1
  21  19   6    9.23    3.04   1
  21  19   7    3.04    1.74   1
  21  19  10    7.60    2.76   1
  21  21  -5    5.85    2.42   1
  21  21  -3    6.34    2.52   1
  21  21  -2   20.02    4.47   1
  21  21  -1    8.25    2.87   1
  22 -18  -5    4.98    2.23   1
  22 -18  -4    5.63    2.37   1
  22 -18  -1   14.22    3.77   1
  22 -18   0    3.23    1.80   1
  22 -18   3    7.87    2.81   1
  22 -18   4   11.37    3.37   1
  22 -16 -12    6.16    2.48   1
  22 -16 -11    2.95    1.72   1
  22 -16 -10    6.97    2.64   1
  22 -16  -9    6.51    2.55   1
  22 -16  -6    4.54    2.13   1
  22 -16  -2    5.16    2.27   1
  22 -16  -1   26.48    5.15   1
  22 -16   1   12.28    3.50   1
  22 -16   5   11.85    3.44   1
  22 -16   6    1.80    1.34   1
  22 -16   7   14.18    3.76   1
  22 -16   8    4.14    2.04   1
  22 -14 -16    7.69    2.77   1
  22 -14  -9    8.44    2.90   1
  22 -14  -6    8.51    2.92   1
  22 -14  -4    3.75    1.94   1
  22 -14  -3   10.13    3.18   1
  22 -14   3   12.87    3.59   1
  22 -14   5    5.55    2.36   1
  22 -14   6    3.38    1.84   1
  22 -14   9    9.71    3.12   1
  22 -14  11    5.14    2.27   1
  22 -14  13    1.53    1.24   1
  22 -12 -11   15.23    3.90   1
  22 -12  -8   38.47    6.20   1
  22 -12  -5    6.72    2.59   1
  22 -12   1    8.96    2.99   1
  22 -12   4    5.85    2.42   1
  22 -12   7    9.03    3.00   1
  22 -12  10   22.81    4.78   1
  22 -12  11    5.03    2.24   1
  22 -12  16   27.90    5.28   1
  22 -12  17    4.09    2.02   1
  22 -10 -20   11.22    3.35   1
  22 -10 -17   10.46    3.23   1
  22 -10 -11   21.60    4.65   1
  22 -10 -10   27.00    5.20   1
  22 -10  -7   16.69    4.09   1
  22 -10  -5    7.93    2.82   1
  22 -10  -4    2.63    1.62   1
  22 -10   0    5.32    2.31   1
  22 -10   1   13.84    3.72   1
  22 -10  11    3.92    1.98   1
  22 -10  13    6.57    2.56   1
  22 -10  14    4.81    2.19   1
  22 -10  15    5.74    2.40   1
  22 -10  16   11.48    3.39   1
  22 -10  17    4.70    2.17   1
  22  -8 -20    3.88    1.97   1
  22  -8 -17    4.39    2.09   1
  22  -8 -16   18.41    4.29   1
  22  -8 -15    3.26    1.81   1
  22  -8 -13   14.18    3.76   1
  22  -8  -5    3.67    1.92   1
  22  -8  -3    3.11    1.76   1
  22  -8  -2    7.50    2.74   1
  22  -8  -1    8.56    2.93   1
  22  -8   0   12.38    3.52   1
  22  -8   2   11.10    3.33   1
  22  -8   3   14.93    3.86   1
  22  -8   4    6.53    2.55   1
  22  -8  17    3.00    1.73   1
  22  -8  20    4.80    2.19   1
  22  -6 -23   12.68    3.56   1
  22  -6 -18    2.55    1.60   1
  22  -6 -12    1.98    1.41   1
  22  -6 -10   11.02    3.32   1
  22  -6  -9    7.13    2.67   1
  22  -6  -8    5.41    2.33   1
  22  -6  -6   28.20    5.31   1
  22  -6  -4   18.11    4.26   1
  22  -6  -3   24.12    4.91   1
  22  -6  -2    9.52    3.09   1
  22  -6  -1   18.41    4.29   1
  22  -6   0   31.58    5.62   1
  22  -6   6    9.23    3.04   1
  22  -6   7   20.10    4.48   1
  22  -6   8   13.35    3.65   1
  22  -6   9    2.55    1.60   1
  22  -6  13    6.53    2.55   1
  22  -6  14   10.54    3.25   1
  22  -6  16    2.71    1.65   1
  22  -6  18    4.05    2.01   1
  22  -6  20    6.96    2.64   1
  22  -4 -21    8.68    2.95   1
  22  -4 -20   11.02    3.32   1
  22  -4 -18    8.03    2.83   1
  22  -4 -15    5.20    2.28   1
  22  -4  -9    2.51    1.59   1
  22  -4  -8    9.98    3.16   1
  22  -4  -7   14.88    3.86   1
  22  -4  -5    4.06    2.01   1
  22  -4  -3    9.38    3.06   1
  22  -4  18   22.01    4.69   1
  22  -2 -23    6.22    2.49   1
  22  -2 -21    3.00    1.73   1
  22  -2 -20    4.76    2.18   1
  22  -2 -19   15.75    3.97   1
  22  -2 -17   28.90    5.38   1
  22  -2 -12   15.19    3.90   1
  22  -2  -9   10.43    3.23   1
  22  -2  -6   12.15    3.49   1
  22  -2  -5    5.93    2.43   1
  22  -2   2    4.94    2.22   1
  22  -2   4    2.75    1.66   1
  22  -2   9    4.57    2.14   1
  22  -2  12    9.77    3.13   1
  22  -2  20    3.09    1.76   1
  22  -2  21    2.78    1.67   1
  22   0 -24    8.49    2.91   1
  22   0 -21    7.13    2.67   1
  22   0 -20    9.26    3.04   1
  22   0 -12    2.44    1.56   1
  22   0 -11    3.44    1.85   1
  22   0  -9    8.21    2.87   1
  22   0  -8   29.32    5.41   1
  22   0  -7    5.85    2.42   1
  22   0  -5   11.85    3.44   1
  22   0  -2    6.56    2.56   1
  22   0   0   12.64    3.55   1
  22   0   2   32.40    5.69   1
  22   0   3   13.89    3.73   1
  22   0   6    2.51    1.59   1
  22   0   7    4.05    2.01   1
  22   0  13    7.83    2.80   1
  22   0  16    5.81    2.41   1
  22   0  21   11.18    3.34   1
  22   0  23    9.25    3.04   1
  22   2 -22    5.03    2.24   1
  22   2 -19   20.92    4.57   1
  22   2 -17    3.18    1.78   1
  22   2 -16   19.27    4.39   1
  22   2 -14    9.98    3.16   1
  22   2 -13    7.20    2.68   1
  22   2 -12    3.77    1.94   1
  22   2 -11    9.05    3.01   1
  22   2 -10    5.95    2.44   1
  22   2  -9    2.78    1.67   1
  22   2  -8   12.68    3.56   1
  22   2  -7    2.44    1.56   1
  22   2  -3    6.82    2.61   1
  22   2  -2    8.96    2.99   1
  22   2  -1    1.69    1.30   1
  22   2   2    9.82    3.13   1
  22   2   9    5.75    2.40   1
  22   2  13    7.67    2.77   1
  22   2  14   10.09    3.18   1
  22   2  20   12.75    3.57   1
  22   4 -20    4.32    2.08   1
  22   4 -17    5.89    2.43   1
  22   4 -14   19.35    4.40   1
  22   4 -12    8.46    2.91   1
  22   4 -11   19.44    4.41   1
  22   4 -10    8.77    2.96   1
  22   4  -7    7.68    2.77   1
  22   4  -5   18.23    4.27   1
  22   4  -2   12.52    3.54   1
  22   4  -1    4.13    2.03   1
  22   4   0   34.46    5.87   1
  22   4   1   16.02    4.00   1
  22   4   2   18.05    4.25   1
  22   4   4    5.85    2.42   1
  22   4   5    2.01    1.42   1
  22   4   7    6.30    2.51   1
  22   4  11    9.78    3.13   1
  22   4  16    2.48    1.58   1
  22   4  18   11.40    3.38   1
  22   4  20    2.81    1.68   1
  22   4  21   13.95    3.73   1
  22   6 -20   16.50    4.06   1
  22   6 -17    5.14    2.27   1
  22   6 -15   16.10    4.01   1
  22   6 -13    3.00    1.73   1
  22   6  -9    6.82    2.61   1
  22   6  -8   49.92    7.07   1
  22   6  -6   13.80    3.71   1
  22   6  -5   13.75    3.71   1
  22   6  -3    7.64    2.76   1
  22   6   0   48.02    6.93   1
  22   6   2   49.80    7.06   1
  22   6   3   14.89    3.86   1
  22   6   4   17.77    4.22   1
  22   6   7    6.19    2.49   1
  22   6   8   29.48    5.43   1
  22   6   9    5.73    2.39   1
  22   6  10    7.57    2.75   1
  22   6  14   12.30    3.51   1
  22   8 -17    4.47    2.11   1
  22   8 -12    2.25    1.50   1
  22   8 -11    9.59    3.10   1
  22   8 -10   22.80    4.77   1
  22   8  -8   16.24    4.03   1
  22   8  -6    1.73    1.31   1
  22   8  -5   11.29    3.36   1
  22   8  -4   13.08    3.62   1
  22   8  -3    8.14    2.85   1
  22   8  -1    4.18    2.05   1
  22   8   0    7.65    2.77   1
  22   8   1   18.41    4.29   1
  22   8   2    3.19    1.79   1
  22   8   3   30.24    5.50   1
  22   8   4   14.18    3.76   1
  22   8   6    3.60    1.90   1
  22   8   7    5.17    2.27   1
  22   8  10   10.54    3.25   1
  22   8  19   14.25    3.77   1
  22  10 -20   23.44    4.84   1
  22  10 -19    3.79    1.95   1
  22  10 -17    1.85    1.36   1
  22  10 -16    7.57    2.75   1
  22  10 -14    7.50    2.74   1
  22  10 -12    9.23    3.04   1
  22  10 -10   12.38    3.52   1
  22  10  -9    7.31    2.70   1
  22  10  -5   13.10    3.62   1
  22  10  -3    2.78    1.67   1
  22  10  -2   13.88    3.72   1
  22  10  -1   12.84    3.58   1
  22  10   0   14.48    3.80   1
  22  10   1    1.76    1.33   1
  22  10   7    5.32    2.31   1
  22  10  10   14.39    3.79   1
  22  10  16   11.95    3.46   1
  22  12 -20    5.85    2.42   1
  22  12 -19    7.91    2.81   1
  22  12 -18   11.94    3.45   1
  22  12 -16    2.26    1.50   1
  22  12 -15    5.47    2.34   1
  22  12 -12    1.73    1.31   1
  22  12 -11    5.36    2.32   1
  22  12 -10    4.35    2.09   1
  22  12  -9    6.40    2.53   1
  22  12  -8    6.95    2.64   1
  22  12  -6    7.35    2.71   1
  22  12  -3    1.95    1.40   1
  22  12  -2   17.33    4.16   1
  22  12   0    7.76    2.79   1
  22  12   2   21.83    4.67   1
  22  12   4    5.07    2.25   1
  22  12   5    5.32    2.31   1
  22  12   6    2.50    1.58   1
  22  12  13    1.99    1.41   1
  22  12  14    2.44    1.56   1
  22  12  16    6.57    2.56   1
  22  12  17   21.90    4.68   1
  22  14 -18   13.19    3.63   1
  22  14 -15    2.07    1.44   1
  22  14 -12    2.10    1.45   1
  22  14 -11    2.43    1.56   1
  22  14  -9    5.81    2.41   1
  22  14  -5   13.02    3.61   1
  22  14  -2   11.50    3.39   1
  22  14   0    8.81    2.97   1
  22  14   1   16.76    4.09   1
  22  14   2    9.30    3.05   1
  22  14   3    1.88    1.37   1
  22  14   4    3.60    1.90   1
  22  14   6   17.62    4.20   1
  22  14   8    6.30    2.51   1
  22  14  12    2.43    1.56   1
  22  14  15   13.45    3.67   1
  22  14  16    3.75    1.94   1
  22  16 -15    5.45    2.34   1
  22  16 -14    6.00    2.45   1
  22  16 -13   11.55    3.40   1
  22  16  -7    9.46    3.08   1
  22  16  -6   14.48    3.80   1
  22  16  -5    1.67    1.29   1
  22  16  -2   11.61    3.41   1
  22  16  -1   11.89    3.45   1
  22  16   1    5.89    2.43   1
  22  16   2    8.59    2.93   1
  22  16   3    8.64    2.94   1
  22  16   4    6.56    2.56   1
  22  16  10    5.52    2.35   1
  22  16  13    3.00    1.73   1
  22  16  14    6.36    2.52   1
  22  18 -10    4.60    2.14   1
  22  18  -9    4.57    2.14   1
  22  18  -6   11.96    3.46   1
  22  18  -3   10.10    3.18   1
  22  18  -2   11.29    3.36   1
  22  18   1    7.81    2.79   1
  22  18   2    6.38    2.52   1
  22  18   3    4.75    2.18   1
  22  18   4   13.05    3.61   1
  22  18   5   11.70    3.42   1
  22  18  10    2.03    1.43   1
  22  20  -3    1.88    1.37   1
  22  20  -1    8.04    2.84   1
  22  20   2   10.33    3.21   1
  22  20   3   11.74    3.43   1
  23 -17  -5    5.25    2.29   1
  23 -17  -2   16.12    4.01   1
  23 -17  -1    7.28    2.70   1
  23 -17   2    3.00    1.73   1
  23 -15 -11    6.15    2.48   1
  23 -15  -9    3.60    1.90   1
  23 -15  -5    9.04    3.01   1
  23 -15  -3    8.63    2.94   1
  23 -15  -1    5.28    2.30   1
  23 -15   3   19.84    4.45   1
  23 -15   4    2.03    1.42   1
  23 -15   7   21.08    4.59   1
  23 -15  10    5.40    2.32   1
  23 -13  -8   10.68    3.27   1
  23 -13  -5    5.25    2.29   1
  23 -13  -2    8.25    2.87   1
  23 -13  -1    5.47    2.34   1
  23 -13   1    4.35    2.09   1
  23 -13   3    2.03    1.42   1
  23 -13   5    7.67    2.77   1
  23 -13   6    5.85    2.42   1
  23 -13   8    5.63    2.37   1
  23 -13   9    6.30    2.51   1
  23 -13  12   12.90    3.59   1
  23 -13  13   10.43    3.23   1
  23 -11 -14   17.92    4.23   1
  23 -11 -12    1.88    1.37   1
  23 -11 -11   10.13    3.18   1
  23 -11  -9   18.67    4.32   1
  23 -11  -5   15.19    3.90   1
  23 -11  -4    8.11    2.85   1
  23 -11  -2    1.65    1.28   1
  23 -11   3    6.41    2.53   1
  23 -11   4    4.67    2.16   1
  23 -11   5    2.03    1.42   1
  23 -11   6   12.08    3.48   1
  23 -11   7    6.87    2.62   1
  23 -11   8    3.05    1.75   1
  23 -11  10    4.05    2.01   1
  23 -11  11    7.65    2.77   1
  23 -11  12   10.07    3.17   1
  23  -9 -15   10.43    3.23   1
  23  -9 -12    8.33    2.89   1
  23  -9  -9   11.40    3.38   1
  23  -9  -7   12.68    3.56   1
  23  -9  -4    2.76    1.66   1
  23  -9  -3   16.72    4.09   1
  23  -9   0   21.83    4.67   1
  23  -9   1    5.35    2.31   1
  23  -9   2   11.59    3.40   1
  23  -9   3    7.35    2.71   1
  23  -9   5    7.88    2.81   1
  23  -9   6   20.47    4.52   1
  23  -9   8    2.47    1.57   1
  23  -9   9    6.00    2.45   1
  23  -9  10   13.20    3.63   1
  23  -9  17   11.30    3.36   1
  23  -7 -19    4.53    2.13   1
  23  -7 -17    2.08    1.44   1
  23  -7 -15    9.30    3.05   1
  23  -7 -14    2.57    1.60   1
  23  -7  -5   13.10    3.62   1
  23  -7  -4   11.03    3.32   1
  23  -7  -3    5.55    2.36   1
  23  -7  -2    9.48    3.08   1
  23  -7  -1    5.85    2.42   1
  23  -7   0    8.93    2.99   1
  23  -7   2    1.98    1.41   1
  23  -7   3    4.05    2.01   1
  23  -7   4    6.79    2.61   1
  23  -7   6   21.56    4.64   1
  23  -7   7    3.24    1.80   1
  23  -7  10    2.30    1.52   1
  23  -7  11    6.15    2.48   1
  23  -7  14    8.74    2.96   1
  23  -7  15    3.04    1.74   1
  23  -7  16    7.19    2.68   1
  23  -7  19    2.40    1.55   1
  23  -5 -18    3.96    1.99   1
  23  -5 -13    2.63    1.62   1
  23  -5 -11    5.67    2.38   1
  23  -5 -10   33.60    5.80   1
  23  -5  -5   11.13    3.34   1
  23  -5   3    9.23    3.04   1
  23  -5   4   28.80    5.37   1
  23  -5   6   18.35    4.28   1
  23  -5   9    1.50    1.22   1
  23  -5  10    2.29    1.51   1
  23  -5  11   11.17    3.34   1
  23  -5  13    3.43    1.85   1
  23  -5  14    2.21    1.49   1
  23  -3 -22   10.16    3.19   1
  23  -3 -20    2.62    1.62   1
  23  -3 -19   13.88    3.72   1
  23  -3 -17    5.85    2.42   1
  23  -3 -12   11.21    3.35   1
  23  -3 -11    1.83    1.35   1
  23  -3  -9   21.75    4.66   1
  23  -3  -8   10.76    3.28   1
  23  -3  -6    8.93    2.99   1
  23  -3  -5    4.19    2.05   1
  23  -3  -4    5.21    2.28   1
  23  -3   0    5.47    2.34   1
  23  -3   1    5.47    2.34   1
  23  -3   4   11.70    3.42   1
  23  -3   5    8.40    2.90   1
  23  -3   6    2.02    1.42   1
  23  -3   8    4.30    2.07   1
  23  -3  10   12.53    3.54   1
  23  -3  11    5.37    2.32   1
  23  -3  13    9.34    3.06   1
  23  -3  14    2.68    1.64   1
  23  -3  19    7.39    2.72   1
  23  -1 -21    4.86    2.20   1
  23  -1 -19    6.13    2.47   1
  23  -1 -18   12.27    3.50   1
  23  -1 -16   13.70    3.70   1
  23  -1  -7    6.22    2.49   1
  23  -1  -5    4.40    2.10   1
  23  -1  -4    5.24    2.29   1
  23  -1  -3    3.90    1.97   1
  23  -1  -1   11.63    3.41   1
  23  -1   1    6.64    2.58   1
  23  -1   6    2.92    1.71   1
  23  -1   9   14.63    3.82   1
  23  -1  10    6.90    2.63   1
  23  -1  18    4.54    2.13   1
  23  -1  20    2.92    1.71   1
  23   1 -22    8.92    2.99   1
  23   1 -19   16.58    4.07   1
  23   1 -18    6.82    2.61   1
  23   1 -17    4.43    2.10   1
  23   1 -16   14.14    3.76   1
  23   1 -12    1.85    1.36   1
  23   1 -10   18.08    4.25   1
  23   1  -8    1.95    1.40   1
  23   1  -7    7.68    2.77   1
  23   1  -6   12.75    3.57   1
  23   1  -5    5.25    2.29   1
  23   1  -4    5.13    2.26   1
  23   1  -3   11.65    3.41   1
  23   1   0    8.41    2.90   1
  23   1   1   10.61    3.26   1
  23   1   3    4.09    2.02   1
  23   1   4   10.31    3.21   1
  23   1   6    5.92    2.43   1
  23   1   7   14.77    3.84   1
  23   1   8   11.25    3.35   1
  23   1  12    1.76    1.33   1
  23   1  15   12.15    3.49   1
  23   1  17   21.90    4.68   1
  23   1  20    2.88    1.70   1
  23   1  21    5.31    2.30   1
  23   3 -22   10.21    3.20   1
  23   3 -21    3.03    1.74   1
  23   3 -20   10.43    3.23   1
  23   3 -19    3.11    1.76   1
  23   3 -18    4.91    2.22   1
  23   3 -17    6.30    2.51   1
  23   3 -15   14.28    3.78   1
  23   3 -12   16.26    4.03   1
  23   3 -11    6.75    2.60   1
  23   3 -10   17.17    4.14   1
  23   3  -9    5.73    2.39   1
  23   3  -8    3.22    1.80   1
  23   3  -7   15.68    3.96   1
  23   3  -2    2.63    1.62   1
  23   3  -1    8.30    2.88   1
  23   3   0    4.79    2.19   1
  23   3   1   15.45    3.93   1
  23   3   3   10.47    3.24   1
  23   3   4   11.25    3.35   1
  23   3  11    6.34    2.52   1
  23   3  20   15.24    3.90   1
  23   5 -19    5.85    2.42   1
  23   5 -17   11.85    3.44   1
  23   5 -12    4.28    2.07   1
  23   5  -5   12.55    3.54   1
  23   5  -4    7.65    2.77   1
  23   5   1    1.57    1.25   1
  23   5   2    9.05    3.01   1
  23   5   5   13.50    3.67   1
  23   5  10   10.03    3.17   1
  23   5  13    3.08    1.75   1
  23   7 -21    6.48    2.55   1
  23   7  -8    8.48    2.91   1
  23   7  -7   11.22    3.35   1
  23   7  -2   23.60    4.86   1
  23   7   5   20.77    4.56   1
  23   7   6    5.15    2.27   1
  23   7   7    7.62    2.76   1
  23   7   8   21.75    4.66   1
  23   7  14    6.96    2.64   1
  23   7  16    9.94    3.15   1
  23   7  17   13.30    3.65   1
  23   9 -19    3.97    1.99   1
  23   9 -11   16.65    4.08   1
  23   9  -9    8.77    2.96   1
  23   9  -6   12.23    3.50   1
  23   9  -1    9.60    3.10   1
  23   9   1   18.23    4.27   1
  23   9   6   17.40    4.17   1
  23   9   8    3.26    1.81   1
  23   9   9    4.43    2.10   1
  23   9  10   12.11    3.48   1
  23   9  16   17.55    4.19   1
  23  11 -19    1.61    1.27   1
  23  11 -18    3.15    1.77   1
  23  11 -16    6.22    2.49   1
  23  11 -15   12.52    3.54   1
  23  11 -11    9.17    3.03   1
  23  11 -10    2.69    1.64   1
  23  11  -7    2.63    1.62   1
  23  11  -6    5.18    2.28   1
  23  11  -5   14.02    3.74   1
  23  11  -3    7.95    2.82   1
  23  11  -2    7.83    2.80   1
  23  11   0   10.43    3.23   1
  23  11   1    2.74    1.66   1
  23  11   2    3.86    1.97   1
  23  11   4    1.68    1.30   1
  23  11   6    7.95    2.82   1
  23  11   7   11.77    3.43   1
  23  11   9    8.25    2.87   1
  23  13 -17   11.41    3.38   1
  23  13 -12    3.41    1.85   1
  23  13  -8    7.50    2.74   1
  23  13  -7   17.40    4.17   1
  23  13  -5   26.06    5.10   1
  23  13  -1    6.85    2.62   1
  23  13   2    9.71    3.12   1
  23  13   3    2.50    1.58   1
  23  13   4   15.82    3.98   1
  23  13   6    2.63    1.62   1
  23  13   7   12.30    3.51   1
  23  13   9   12.26    3.50   1
  23  13  11   12.23    3.50   1
  23  15 -14    5.71    2.39   1
  23  15 -11    1.99    1.41   1
  23  15  -5    8.32    2.89   1
  23  15  -4   10.50    3.24   1
  23  15  -3    3.11    1.76   1
  23  15  -2   17.02    4.13   1
  23  15   0    9.60    3.10   1
  23  15   1    1.65    1.29   1
  23  15   2    5.06    2.25   1
  23  15   3   13.35    3.65   1
  23  15   4    9.42    3.07   1
  23  15   6    2.92    1.71   1
  23  15   7   12.45    3.53   1
  23  15   8    4.02    2.01   1
  23  15  10   26.63    5.16   1
  23  17 -10    7.72    2.78   1
  23  17  -9    7.28    2.70   1
  23  17  -8    2.25    1.50   1
  23  17  -2    4.02    2.01   1
  23  17  -1    5.55    2.36   1
  23  17   3   22.60    4.75   1
  23  17   6    5.22    2.28   1
  23  17   8    1.50    1.22   1
  23  17   9    7.00    2.65   1
  24 -14  -9    9.04    3.01   1
  24 -14  -6   13.50    3.67   1
  24 -14  -2    4.76    2.18   1
  24 -14  -1    3.34    1.83   1
  24 -14   0    7.03    2.65   1
  24 -14   1    5.95    2.44   1
  24 -14   5   10.43    3.23   1
  24 -14   7    4.36    2.09   1
  24 -14   8   13.57    3.68   1
  24 -12 -12   18.33    4.28   1
  24 -12  -8   12.38    3.52   1
  24 -12  -7    2.21    1.49   1
  24 -12  -6    2.70    1.64   1
  24 -12  -4    2.78    1.67   1
  24 -12  -3    4.66    2.16   1
  24 -12  -2    9.06    3.01   1
  24 -12   3    6.92    2.63   1
  24 -12   9   11.85    3.44   1
  24 -12  10    1.87    1.37   1
  24 -12  11    6.07    2.46   1
  24 -12  12    2.03    1.42   1
  24 -10 -16    6.70    2.59   1
  24 -10 -14    9.95    3.15   1
  24 -10 -13    2.63    1.62   1
  24 -10 -11    9.90    3.15   1
  24 -10  -9    1.99    1.41   1
  24 -10  -8   12.30    3.51   1
  24 -10  -7    7.95    2.82   1
  24 -10  -5   10.88    3.30   1
  24 -10  -3   12.30    3.51   1
  24 -10   5    2.76    1.66   1
  24 -10   7    5.21    2.28   1
  24 -10   8    4.95    2.22   1
  24 -10  12   14.48    3.80   1
  24  -8 -15    4.39    2.09   1
  24  -8 -13    5.00    2.24   1
  24  -8  -7    7.88    2.81   1
  24  -8  -6    2.70    1.64   1
  24  -8  -3    2.63    1.62   1
  24  -8   3   12.30    3.51   1
  24  -8   6    3.50    1.87   1
  24  -8   8    4.67    2.16   1
  24  -8  10    5.13    2.27   1
  24  -6 -14    3.44    1.86   1
  24  -6 -13    6.38    2.52   1
  24  -6 -10    5.38    2.32   1
  24  -6  -9    5.27    2.30   1
  24  -6  -8   12.15    3.49   1
  24  -6  -7    8.02    2.83   1
  24  -6  -5    1.88    1.37   1
  24  -6  -4    4.25    2.06   1
  24  -6  -3   13.61    3.69   1
  24  -6   1    5.81    2.41   1
  24  -6   2   21.67    4.66   1
  24  -6   4    3.15    1.77   1
  24  -6   5   18.44    4.29   1
  24  -4 -20    4.84    2.20   1
  24  -4 -19    2.97    1.72   1
  24  -4 -17   17.36    4.17   1
  24  -4 -16    3.90    1.98   1
  24  -4 -11    9.90    3.15   1
  24  -4  -8   18.00    4.24   1
  24  -4  -6    6.75    2.60   1
  24  -4  -5   21.86    4.68   1
  24  -4  -4    4.81    2.19   1
  24  -4  -1   18.04    4.25   1
  24  -4   0   14.26    3.78   1
  24  -4   5   19.68    4.44   1
  24  -4   6    5.37    2.32   1
  24  -4  13    3.71    1.93   1
  24  -4  14   12.23    3.50   1
  24  -4  16   17.30    4.16   1
  24  -4  17    2.25    1.50   1
  24  -2 -20    5.21    2.28   1
  24  -2 -17    3.45    1.86   1
  24  -2 -16    2.60    1.61   1
  24  -2  -9    6.32    2.51   1
  24  -2  -8    8.63    2.94   1
  24  -2  -5    9.27    3.04   1
  24  -2  -3    1.94    1.39   1
  24  -2  -2    7.28    2.70   1
  24  -2  -1    9.52    3.09   1
  24  -2   0   41.92    6.47   1
  24  -2   2   25.73    5.07   1
  24  -2   3   29.56    5.44   1
  24  -2   4    8.93    2.99   1
  24  -2   7   19.46    4.41   1
  24  -2  10    3.44    1.85   1
  24  -2  11    1.65    1.28   1
  24  -2  19   10.96    3.31   1
  24   0 -21    8.02    2.83   1
  24   0 -16    4.54    2.13   1
  24   0 -10    5.79    2.41   1
  24   0  -8   14.85    3.85   1
  24   0  -5    7.95    2.82   1
  24   0  -4   20.92    4.57   1
  24   0   0   29.25    5.41   1
  24   0   4   17.59    4.19   1
  24   0   5   23.70    4.87   1
  24   0   7    1.89    1.38   1
  24   0  10    2.51    1.59   1
  24   0  12    2.59    1.61   1
  24   0  14    6.56    2.56   1
  24   0  16   20.55    4.53   1
  24   0  17    8.18    2.86   1
  24   0  19   11.25    3.35   1
  24   2 -18    9.82    3.13   1
  24   2 -17   19.31    4.39   1
  24   2 -12    6.33    2.52   1
  24   2  -8    3.34    1.83   1
  24   2  -6    7.77    2.79   1
  24   2  -2    7.04    2.65   1
  24   2   1    4.02    2.01   1
  24   2   2   20.72    4.55   1
  24   2   3   20.75    4.56   1
  24   2   4    9.90    3.15   1
  24   2   5    4.86    2.21   1
  24   2  12    4.84    2.20   1
  24   2  17   10.13    3.18   1
  24   2  18   10.09    3.18   1
  24   4 -18    9.80    3.13   1
  24   4  -7   10.73    3.27   1
  24   4  -5    2.02    1.42   1
  24   4  -2   18.80    4.34   1
  24   4  -1   12.07    3.47   1
  24   4   0    3.19    1.79   1
  24   4   2    9.23    3.04   1
  24   4   4   11.89    3.45   1
  24   4   6    3.08    1.75   1
  24   4   7    4.80    2.19   1
  24   4  10   12.45    3.53   1
  24   4  15   18.23    4.27   1
  24   4  16    5.78    2.40   1
  24   6 -19   13.50    3.67   1
  24   6 -17    1.69    1.30   1
  24   6 -16    4.89    2.21   1
  24   6 -14    9.00    3.00   1
  24   6 -13   13.39    3.66   1
  24   6 -12   17.51    4.18   1
  24   6 -10   15.57    3.95   1
  24   6  -8   12.75    3.57   1
  24   6  -7    2.58    1.61   1
  24   6  -4   10.35    3.22   1
  24   6  -1   19.50    4.42   1
  24   6   1   11.06    3.33   1
  24   6   2   12.89    3.59   1
  24   6   4   14.27    3.78   1
  24   6   9   14.77    3.84   1
  24   6  16    2.45    1.57   1
  24   8 -17   13.16    3.63   1
  24   8 -15    6.00    2.45   1
  24   8 -14    2.63    1.62   1
  24   8 -12   14.10    3.75   1
  24   8 -11    5.24    2.29   1
  24   8 -10    9.52    3.09   1
  24   8  -9   15.71    3.96   1
  24   8  -8    3.43    1.85   1
  24   8  -5    3.26    1.81   1
  24   8  -4   12.38    3.52   1
  24   8  -2    5.45    2.34   1
  24   8  -1    9.35    3.06   1
  24   8   0   31.13    5.58   1
  24   8   2   19.64    4.43   1
  24   8   3   10.54    3.25   1
  24   8   4   15.85    3.98   1
  24   8   7   10.53    3.24   1
  24   8   8    6.35    2.52   1
  24   8   9   19.80    4.45   1
  24   8  11   17.63    4.20   1
  24   8  14    3.79    1.95   1
  24  10 -17    4.55    2.13   1
  24  10 -16    7.61    2.76   1
  24  10 -14    8.54    2.92   1
  24  10 -13   15.30    3.91   1
  24  10 -11   22.65    4.76   1
  24  10 -10    1.65    1.28   1
  24  10  -8    9.81    3.13   1
  24  10  -2    5.85    2.42   1
  24  10  -1    9.75    3.12   1
  24  10   0    2.33    1.52   1
  24  10   2   36.08    6.01   1
  24  10   4    2.21    1.49   1
  24  10   6    8.72    2.95   1
  24  10   8    3.72    1.93   1
  24  10   9    4.18    2.05   1
  24  12 -15    9.12    3.02   1
  24  12 -14    3.34    1.83   1
  24  12  -9    3.67    1.92   1
  24  12  -7    4.54    2.13   1
  24  12  -5   11.32    3.37   1
  24  12   0    5.52    2.35   1
  24  12   1    4.40    2.10   1
  24  12   2    4.20    2.05   1
  24  12   3   20.58    4.54   1
  24  12   5   14.36    3.79   1
  24  12   6   14.69    3.83   1
  24  12   7    8.10    2.85   1
  24  12   8   21.67    4.66   1
  24  12  13    2.67    1.63   1
  24  12  14    4.68    2.16   1
  24  14 -10    3.97    1.99   1
  24  14  -9    7.28    2.70   1
  24  14  -8   16.46    4.06   1
  24  14  -6   21.98    4.69   1
  24  14  -5    8.26    2.87   1
  24  14  -4    2.33    1.52   1
  24  14  -3    4.21    2.05   1
  24  14  -2    9.45    3.07   1
  24  14   0   10.95    3.31   1
  24  14   1    4.28    2.07   1
  24  14   2    2.21    1.49   1
  24  14   3    6.94    2.63   1
  24  14   4   18.75    4.33   1
  24  14   5   19.35    4.40   1
  24  14   6    6.80    2.61   1
  24  14  11    7.06    2.66   1
  24  16  -8   17.32    4.16   1
  24  16  -7    3.30    1.82   1
  24  16  -6   11.74    3.43   1
  24  16  -4    1.55    1.24   1
  24  16   0   19.98    4.47   1
  24  16   2   14.56    3.82   1
  24  16   4   21.85    4.67   1
  24  16   7    8.10    2.85   1
;
_shelx_hkl_checksum              88024
loop_
_space_group_symop_operation_xyz
'x, y, z'
'-x+1/2, -y, z+1/2'
'x+1/2, -y, -z+1/2'
'-x, y, -z'
'x+1/2, y+1/2, z'
'-x+1, -y+1/2, z+1/2'
'x+1, -y+1/2, -z+1/2'
'-x+1/2, y+1/2, -z'
'-x, -y, -z'
'x-1/2, y, -z-1/2'
'-x-1/2, y, z-1/2'
'x, -y, z'
'-x+1/2, -y+1/2, -z'
'x, y+1/2, -z-1/2'
'-x, y+1/2, z-1/2'
'x+1/2, -y+1/2, z'
loop_
_atom_site_label
_atom_site_type_symbol
_atom_site_fract_x
_atom_site_fract_y
_atom_site_fract_z
_atom_site_U_iso_or_equiv
_atom_site_adp_type
_atom_site_occupancy
_atom_site_site_symmetry_order
_atom_site_calc_flag
_atom_site_refinement_flags_posn
_atom_site_refinement_flags_adp
_atom_site_refinement_flags_occupancy
_atom_site_disorder_assembly
_atom_site_disorder_group
Ca1 Ca 0.0518(18) 0.250000 0.250000 0.067(16) Uiso 1 2 d S . P . .
Ca2 Ca 0.2884(8) 0.1388(9) 0.2032(9) -0.001(7) Uiso 1 1 d . . . . .
Ca3 Ca 0.3012(12) 0.3327(13) 0.0456(13) 0.054(11) Uiso 1 1 d . . . . .
Ca4 Ca 0.500000 0.227(2) 0.000000 0.09(2) Uiso 1 2 d S . P . .
Si1 Si 0.4176(11) 0.0589(8) 0.1983(8) 0.047(5) Uiso 0.6 1 d D U P . .
Al1 Al 0.4176(11) 0.0589(8) 0.1983(8) 0.047(5) Uiso 0.4 1 d R U P . .
Si2 Si 0.1634(10) 0.1625(9) 0.3155(8) 0.047(5) Uiso 0.6 1 d D U P . .
Al2 Al 0.1634(10) 0.1625(9) 0.3155(8) 0.047(5) Uiso 0.4 1 d R U P . .
Si3 Si 0.2387(9) 0.0608(8) 0.0971(9) 0.047(5) Uiso 0.6 1 d D U P . .
Al3 Al 0.2387(9) 0.0608(8) 0.0971(9) 0.047(5) Uiso 0.4 1 d R U P . .
Si4 Si 0.2400(10) 0.0619(7) 0.2924(9) 0.047(5) Uiso 0.6 1 d D U P . .
Al4 Al 0.2400(10) 0.0619(7) 0.2924(9) 0.047(5) Uiso 0.4 1 d R U P . .
Si5 Si 0.3734(10) 0.0561(8) 0.2965(9) 0.047(5) Uiso 0.6 1 d D U P . .
Al5 Al 0.3734(10) 0.0561(8) 0.2965(9) 0.047(5) Uiso 0.4 1 d R U P . .
Si6 Si 0.2321(8) 0.2291(9) 0.1570(9) 0.047(5) Uiso 0.6 1 d D U P . .
Al6 Al 0.2321(8) 0.2291(9) 0.1570(9) 0.047(5) Uiso 0.4 1 d R U P . .
Si7 Si 0.0627(9) 0.1920(10) 0.1365(8) 0.047(5) Uiso 0.6 1 d D U P . .
Al7 Al 0.0627(9) 0.1920(10) 0.1365(8) 0.047(5) Uiso 0.4 1 d R U P . .
Si8 Si 0.1981(10) 0.0621(8) 0.2001(9) 0.047(5) Uiso 0.6 1 d D U P . .
Al8 Al 0.1981(10) 0.0621(8) 0.2001(9) 0.047(5) Uiso 0.4 1 d R U P . .
Si9 Si 0.1657(10) 0.1678(9) 0.0786(9) 0.047(5) Uiso 0.6 1 d D U P . .
Al9 Al 0.1657(10) 0.1678(9) 0.0786(9) 0.047(5) Uiso 0.4 1 d R U P . .
Si10 Si 0.4602(10) 0.1677(10) 0.2163(8) 0.047(5) Uiso 0.6 1 d D U P . .
Al10 Al 0.4602(10) 0.1677(10) 0.2163(8) 0.047(5) Uiso 0.4 1 d R U P . .
Si11 Si 0.3750(10) 0.0633(7) 0.1010(9) 0.047(5) Uiso 0.6 1 d D U P . .
Al11 Al 0.3750(10) 0.0633(7) 0.1010(9) 0.047(5) Uiso 0.4 1 d R U P . .
Si12 Si 0.3757(8) 0.2234(9) 0.1558(9) 0.047(5) Uiso 0.6 1 d D U P . .
Al12 Al 0.3757(8) 0.2234(9) 0.1558(9) 0.047(5) Uiso 0.4 1 d R U P . .
Si13 Si 0.4456(9) 0.1672(8) 0.3183(8) 0.047(5) Uiso 0.6 1 d D U P . .
Al13 Al 0.4456(9) 0.1672(8) 0.3183(8) 0.047(5) Uiso 0.4 1 d R U P . .
Si14 Si 0.1476(10) 0.1655(10) 0.2110(8) 0.047(5) Uiso 0.6 1 d D U P . .
Al14 Al 0.1476(10) 0.1655(10) 0.2110(8) 0.047(5) Uiso 0.4 1 d R U P . .
Si15 Si 0.4481(10) 0.1591(10) 0.0809(9) 0.047(5) Uiso 0.6 1 d D U P . .
Al15 Al 0.4481(10) 0.1591(10) 0.0809(9) 0.047(5) Uiso 0.4 1 d R U P . .
Si16 Si 0.5459(9) 0.1896(10) 0.1390(8) 0.047(5) Uiso 0.6 1 d D U P . .
Al16 Al 0.5459(9) 0.1896(10) 0.1390(8) 0.047(5) Uiso 0.4 1 d R U P . .
O1 O 0.2142(19) 0.000000 0.295(2) 0.032(4) Uiso 1 2 d DS U P . .
O2 O 0.2133(11) 0.1853(14) 0.1960(13) 0.032(4) Uiso 1 1 d D U . . .
O3 O 0.4119(14) 0.1085(9) 0.3137(13) 0.032(4) Uiso 1 1 d D U . . .
O4 O 0.1400(12) 0.1013(10) 0.1979(14) 0.032(4) Uiso 1 1 d D U . . .
O5 O 0.4177(13) 0.1005(11) 0.0693(11) 0.032(4) Uiso 1 1 d D U . . .
O6 O 0.4684(15) 0.1862(14) 0.2687(8) 0.032(4) Uiso 1 1 d D U . . .
O7 O 0.2425(14) 0.0815(16) 0.2400(8) 0.032(4) Uiso 1 1 d D U . . .
O8 O 0.5121(14) 0.1968(14) 0.1868(10) 0.032(4) Uiso 1 1 d D U . . .
O9 O 0.3740(15) 0.0526(17) 0.2417(9) 0.032(4) Uiso 1 1 d D U . . .
O10 O 0.2017(14) 0.2117(14) 0.1093(11) 0.032(4) Uiso 1 1 d D U . . .
O11 O 0.1381(15) 0.1729(16) 0.2650(7) 0.032(4) Uiso 1 1 d D U . . .
O12 O 0.4690(13) 0.1021(9) 0.2123(14) 0.032(4) Uiso 1 1 d D U . . .
O13 O 0.0981(14) 0.2007(14) 0.1838(10) 0.032(4) Uiso 1 1 d D U . . .
O14 O 0.5099(12) 0.1472(13) 0.1069(12) 0.032(4) Uiso 1 1 d D U . . .
O15 O 0.3826(15) 0.0798(16) 0.1536(8) 0.032(4) Uiso 1 1 d D U . . .
O16 O 0.220(2) 0.000000 0.0797(18) 0.032(4) Uiso 1 2 d DS U P . .
O17 O 0.4044(14) 0.1974(15) 0.1103(11) 0.032(4) Uiso 1 1 d D U . . .
O18 O 0.2317(15) 0.0641(17) 0.1517(9) 0.032(4) Uiso 1 1 d D U . . .
O19 O 0.4485(19) 0.000000 0.1876(19) 0.032(4) Uiso 1 2 d DS U P . .
O20 O 0.401(2) 0.000000 0.3176(17) 0.032(4) Uiso 1 2 d DS U P . .
O21 O 0.2015(14) 0.1100(10) 0.0739(13) 0.032(4) Uiso 1 1 d D U . . .
O22 O 0.3058(9) 0.0636(16) 0.3140(11) 0.032(4) Uiso 1 1 d D U . . .
O23 O 0.1018(12) 0.1557(13) 0.1018(12) 0.032(4) Uiso 1 1 d D U . . .
O24 O 0.1956(14) 0.1031(10) 0.3189(12) 0.032(4) Uiso 1 1 d D U . . .
O25 O 0.4022(14) 0.2149(10) 0.3372(14) 0.032(4) Uiso 1 1 d D U . . .
O26 O 0.392(2) 0.000000 0.093(2) 0.032(4) Uiso 1 2 d DS U P . .
O27 O 0.1539(18) 0.1910(17) 0.0278(11) 0.032(4) Uiso 1 1 d D U . . .
O28 O 0.3954(11) 0.1862(15) 0.1988(12) 0.032(4) Uiso 1 1 d D U . . .
O29 O 0.1113(11) 0.1647(14) 0.3531(11) 0.032(4) Uiso 1 1 d D U . . .
O30 O 0.3040(7) 0.2271(15) 0.1525(13) 0.032(4) Uiso 1 1 d D U . . .
O31 O 0.3075(8) 0.0724(16) 0.0849(12) 0.032(4) Uiso 1 1 d D U . . .
O32 O 0.4625(17) 0.1903(17) 0.0335(12) 0.032(4) Uiso 1 1 d D U . . .
O33 O 0.0494(15) 0.2514(9) 0.1138(11) 0.032(4) Uiso 1 1 d D U . . .
O34 O 0.0007(11) 0.1609(13) 0.1470(12) 0.032(4) Uiso 1 1 d D U . . .
O35 O 0.824(2) 0.500000 0.7104(19) 0.032(4) Uiso 1 2 d S U P . .
O36 O 0.2881(14) 0.7904(11) 0.8277(14) 0.032(4) Uiso 1 1 d . U . . .
loop_
_atom_type_symbol
_atom_type_description
_atom_type_scat_dispersion_real
_atom_type_scat_dispersion_imag
_atom_type_scat_source
O O 0.0000 0.0000 'International Tables Vol C Tables 4.2.6.8 and 6.1.1.4'
Si Si 0.0000 0.0000 'International Tables Vol C Tables 4.2.6.8 and 6.1.1.4'
Al Al 0.0000 0.0000 'International Tables Vol C Tables 4.2.6.8 and 6.1.1.4'
Ca Ca 0.0000 0.0000 'International Tables Vol C Tables 4.2.6.8 and 6.1.1.4'
loop_
_geom_angle_atom_site_label_1
_geom_angle_atom_site_label_2
_geom_angle_atom_site_label_3
_geom_angle
_geom_angle_site_symmetry_1
_geom_angle_site_symmetry_3
_geom_angle_publ_flag
O13 Ca1 O13 131(2) . 7_455 ?
O13 Ca1 O8 79.1(16) . 16_455 ?
O13 Ca1 O8 119.5(18) 7_455 16_455 ?
O13 Ca1 O8 119.5(18) . 10_556 ?
O13 Ca1 O8 79.1(16) 7_455 10_556 ?
O8 Ca1 O8 137(2) 16_455 10_556 ?
O13 Ca1 O11 84.6(17) . 7_455 ?
O13 Ca1 O11 60.4(13) 7_455 7_455 ?
O8 Ca1 O11 77.0(16) 16_455 7_455 ?
O8 Ca1 O11 138.4(12) 10_556 7_455 ?
O13 Ca1 O11 60.4(13) . . ?
O13 Ca1 O11 84.6(17) 7_455 . ?
O8 Ca1 O11 138.4(12) 16_455 . ?
O8 Ca1 O11 77.0(16) 10_556 . ?
O11 Ca1 O11 89(3) 7_455 . ?
O13 Ca1 O6 81.1(16) . 10_556 ?
O13 Ca1 O6 141.1(12) 7_455 10_556 ?
O8 Ca1 O6 83.3(18) 16_455 10_556 ?
O8 Ca1 O6 64.1(14) 10_556 10_556 ?
O11 Ca1 O6 157.5(9) 7_455 10_556 ?
O11 Ca1 O6 98(2) . 10_556 ?
O13 Ca1 O6 141.1(12) . 16_455 ?
O13 Ca1 O6 81.1(16) 7_455 16_455 ?
O8 Ca1 O6 64.1(14) 16_455 16_455 ?
O8 Ca1 O6 83.3(18) 10_556 16_455 ?
O11 Ca1 O6 98(2) 7_455 16_455 ?
O11 Ca1 O6 157.5(9) . 16_455 ?
O6 Ca1 O6 82(3) 10_556 16_455 ?
O13 Ca1 Al14 30.1(6) . . ?
O13 Ca1 Al14 108(2) 7_455 . ?
O8 Ca1 Al14 108.3(14) 16_455 . ?
O8 Ca1 Al14 100.5(16) 10_556 . ?
O11 Ca1 Al14 84(2) 7_455 . ?
O11 Ca1 Al14 30.4(8) . . ?
O6 Ca1 Al14 91.7(18) 10_556 . ?
O6 Ca1 Al14 170.8(11) 16_455 . ?
O13 Ca1 Al14 108(2) . 7_455 ?
O13 Ca1 Al14 30.1(6) 7_455 7_455 ?
O8 Ca1 Al14 100.5(16) 16_455 7_455 ?
O8 Ca1 Al14 108.3(14) 10_556 7_455 ?
O11 Ca1 Al14 30.4(8) 7_455 7_455 ?
O11 Ca1 Al14 84(2) . 7_455 ?
O6 Ca1 Al14 170.8(11) 10_556 7_455 ?
O6 Ca1 Al14 91.7(18) 16_455 7_455 ?
Al14 Ca1 Al14 95(2) . 7_455 ?
O2 Ca2 O28 120(2) . . ?
O2 Ca2 O30 66.6(13) . . ?
O28 Ca2 O30 60.1(9) . . ?
O2 Ca2 O9 159.5(14) . . ?
O28 Ca2 O9 75.2(17) . . ?
O30 Ca2 O9 133.0(13) . . ?
O2 Ca2 Si12 96.3(18) . . ?
O28 Ca2 Si12 30.7(6) . . ?
O30 Ca2 Si12 30.7(7) . . ?
O9 Ca2 Si12 102.5(17) . . ?
O2 Ca2 Al12 96.3(18) . . ?
O28 Ca2 Al12 30.7(6) . . ?
O30 Ca2 Al12 30.7(7) . . ?
O9 Ca2 Al12 102.5(17) . . ?
Si12 Ca2 Al12 0.0(11) . . ?
O32 Ca4 O32 111(5) 4_655 . ?
O12 Si1 O9 107(2) . . ?
O12 Si1 O19 108(2) . . ?
O9 Si1 O19 109(2) . . ?
O12 Si1 O15 110.8(19) . . ?
O9 Si1 O15 112(2) . . ?
O19 Si1 O15 109(2) . . ?
O12 Al1 O9 107(2) . . ?
O12 Al1 O19 108(2) . . ?
O9 Al1 O19 109(2) . . ?
O12 Al1 O15 110.8(19) . . ?
O9 Al1 O15 112(2) . . ?
O19 Al1 O15 109(2) . . ?
O24 Si2 O11 110.8(18) . . ?
O24 Si2 O29 108.1(17) . . ?
O11 Si2 O29 112(2) . . ?
O24 Si2 O36 108(2) . 2_564 ?
O11 Si2 O36 109.4(18) . 2_564 ?
O29 Si2 O36 108(2) . 2_564 ?
O24 Al2 O11 110.8(18) . . ?
O24 Al2 O29 108.1(17) . . ?
O11 Al2 O29 112(2) . . ?
O24 Al2 O36 108(2) . 2_564 ?
O11 Al2 O36 109.4(18) . 2_564 ?
O29 Al2 O36 108(2) . 2_564 ?
O21 Si3 O18 109.4(19) . . ?
O21 Si3 O31 105.9(19) . . ?
O18 Si3 O31 107.8(17) . . ?
O21 Si3 O16 114(2) . . ?
O18 Si3 O16 110(2) . . ?
O31 Si3 O16 109.7(19) . . ?
O21 Al3 O18 109.4(19) . . ?
O21 Al3 O31 105.9(19) . . ?
O18 Al3 O31 107.8(17) . . ?
O21 Al3 O16 114(2) . . ?
O18 Al3 O16 110(2) . . ?
O31 Al3 O16 109.7(19) . . ?
O7 Si4 O1 110(2) . . ?
O7 Si4 O22 109.7(18) . . ?
O1 Si4 O22 109(2) . . ?
O7 Si4 O24 107.6(19) . . ?
O1 Si4 O24 109(2) . . ?
O22 Si4 O24 111(2) . . ?
O7 Si4 Al8 27.0(13) . . ?
O1 Si4 Al8 86(2) . . ?
O22 Si4 Al8 132.4(16) . . ?
O24 Si4 Al8 104.7(18) . . ?
O7 Al4 O1 110(2) . . ?
O7 Al4 O22 109.7(18) . . ?
O1 Al4 O22 109(2) . . ?
O7 Al4 O24 107.6(19) . . ?
O1 Al4 O24 109(2) . . ?
O22 Al4 O24 111(2) . . ?
O7 Al4 Si8 27.0(13) . . ?
O1 Al4 Si8 86(2) . . ?
O22 Al4 Si8 132.4(16) . . ?
O24 Al4 Si8 104.7(18) . . ?
O7 Al4 Al8 27.0(13) . . ?
O1 Al4 Al8 86(2) . . ?
O22 Al4 Al8 132.4(16) . . ?
O24 Al4 Al8 104.7(18) . . ?
Si8 Al4 Al8 0.0(12) . . ?
O22 Si5 O3 108(2) . . ?
O22 Si5 O9 109.4(17) . . ?
O3 Si5 O9 110.4(18) . . ?
O22 Si5 O20 109(2) . . ?
O3 Si5 O20 110(2) . . ?
O9 Si5 O20 110(2) . . ?
O22 Al5 O3 108(2) . . ?
O22 Al5 O9 109.4(17) . . ?
O3 Al5 O9 110.4(18) . . ?
O22 Al5 O20 109(2) . . ?
O3 Al5 O20 110(2) . . ?
O9 Al5 O20 110(2) . . ?
O10 Si6 O36 111.2(18) . 8_546 ?
O10 Si6 O2 109(2) . . ?
O36 Si6 O2 109(2) 8_546 . ?
O10 Si6 O30 109.9(19) . . ?
O36 Si6 O30 109.4(17) 8_546 . ?
O2 Si6 O30 107.4(16) . . ?
O10 Al6 O36 111.2(18) . 8_546 ?
O10 Al6 O2 109(2) . . ?
O36 Al6 O2 109(2) 8_546 . ?
O10 Al6 O30 109.9(19) . . ?
O36 Al6 O30 109.4(17) 8_546 . ?
O2 Al6 O30 107.4(16) . . ?
O23 Si7 O13 110(2) . . ?
O23 Si7 O33 109(2) . . ?
O13 Si7 O33 109.3(18) . . ?
O23 Si7 O34 109.7(19) . . ?
O13 Si7 O34 109(2) . . ?
O33 Si7 O34 110(2) . . ?
O23 Al7 O13 110(2) . . ?
O23 Al7 O33 109(2) . . ?
O13 Al7 O33 109.3(18) . . ?
O23 Al7 O34 109.7(19) . . ?
O13 Al7 O34 109(2) . . ?
O33 Al7 O34 110(2) . . ?
O35 Si8 O7 109(2) 6_554 . ?
O35 Si8 O18 110(2) 6_554 . ?
O7 Si8 O18 110(2) . . ?
O35 Si8 O4 108(2) 6_554 . ?
O7 Si8 O4 111(2) . . ?
O18 Si8 O4 109.0(19) . . ?
O35 Si8 Al4 85.5(19) 6_554 . ?
O7 Si8 Al4 27.1(12) . . ?
O18 Si8 Al4 133(2) . . ?
O4 Si8 Al4 107.7(16) . . ?
O35 Al8 O7 109(2) 6_554 . ?
O35 Al8 O18 110(2) 6_554 . ?
O7 Al8 O18 110(2) . . ?
O35 Al8 O4 108(2) 6_554 . ?
O7 Al8 O4 111(2) . . ?
O18 Al8 O4 109.0(19) . . ?
O35 Al8 Si4 85.5(19) 6_554 . ?
O7 Al8 Si4 27.1(12) . . ?
O18 Al8 Si4 133(2) . . ?
O4 Al8 Si4 107.7(16) . . ?
O35 Al8 Al4 85.5(19) 6_554 . ?
O7 Al8 Al4 27.1(12) . . ?
O18 Al8 Al4 133(2) . . ?
O4 Al8 Al4 107.7(16) . . ?
Si4 Al8 Al4 0.0(8) . . ?
O27 Si9 O21 107.7(19) . . ?
O27 Si9 O23 108(2) . . ?
O21 Si9 O23 108.6(19) . . ?
O27 Si9 O10 112(2) . . ?
O21 Si9 O10 112(2) . . ?
O23 Si9 O10 109(2) . . ?
O27 Al9 O21 107.7(19) . . ?
O27 Al9 O23 108(2) . . ?
O21 Al9 O23 108.6(19) . . ?
O27 Al9 O10 112(2) . . ?
O21 Al9 O10 112(2) . . ?
O23 Al9 O10 109(2) . . ?
O6 Si10 O28 109.4(18) . . ?
O6 Si10 O8 108.0(19) . . ?
O28 Si10 O8 111(2) . . ?
O6 Si10 O12 109.3(18) . . ?
O28 Si10 O12 111.3(17) . . ?
O8 Si10 O12 107.6(19) . . ?
O6 Al10 O28 109.4(18) . . ?
O6 Al10 O8 108.0(19) . . ?
O28 Al10 O8 111(2) . . ?
O6 Al10 O12 109.3(18) . . ?
O28 Al10 O12 111.3(17) . . ?
O8 Al10 O12 107.6(19) . . ?
O26 Si11 O31 108.5(19) . . ?
O26 Si11 O5 107.5(19) . . ?
O31 Si11 O5 108(2) . . ?
O26 Si11 O15 111(2) . . ?
O31 Si11 O15 110.5(17) . . ?
O5 Si11 O15 111(2) . . ?
O26 Al11 O31 108.5(19) . . ?
O26 Al11 O5 107.5(19) . . ?
O31 Al11 O5 108(2) . . ?
O26 Al11 O15 111(2) . . ?
O31 Al11 O15 110.5(17) . . ?
O5 Al11 O15 111(2) . . ?
O25 Si12 O30 108.8(18) 7_455 . ?
O25 Si12 O28 108(2) 7_455 . ?
O30 Si12 O28 110.5(17) . . ?
O25 Si12 O17 108.7(18) 7_455 . ?
O30 Si12 O17 111.7(18) . . ?
O28 Si12 O17 109(2) . . ?
O25 Si12 Ca2 140.2(18) 7_455 . ?
O30 Si12 Ca2 56.2(16) . . ?
O28 Si12 Ca2 57.5(15) . . ?
O17 Si12 Ca2 111.1(19) . . ?
O25 Al12 O30 108.8(18) 7_455 . ?
O25 Al12 O28 108(2) 7_455 . ?
O30 Al12 O28 110.5(17) . . ?
O25 Al12 O17 108.7(18) 7_455 . ?
O30 Al12 O17 111.7(18) . . ?
O28 Al12 O17 109(2) . . ?
O25 Al12 Ca2 140.2(18) 7_455 . ?
O30 Al12 Ca2 56.2(16) . . ?
O28 Al12 Ca2 57.5(15) . . ?
O17 Al12 Ca2 111.1(19) . . ?
O34 Si13 O3 109.2(18) 10_656 . ?
O34 Si13 O25 108(2) 10_656 . ?
O3 Si13 O25 112(2) . . ?
O34 Si13 O6 111(2) 10_656 . ?
O3 Si13 O6 109.0(18) . . ?
O25 Si13 O6 107.4(19) . . ?
O34 Al13 O3 109.2(18) 10_656 . ?
O34 Al13 O25 108(2) 10_656 . ?
O3 Al13 O25 112(2) . . ?
O34 Al13 O6 111(2) 10_656 . ?
O3 Al13 O6 109.0(18) . . ?
O25 Al13 O6 107.4(19) . . ?
O11 Si14 O4 109.2(18) . . ?
O11 Si14 O13 109.9(18) . . ?
O4 Si14 O13 108.7(19) . . ?
O11 Si14 O2 110.9(18) . . ?
O4 Si14 O2 108.5(17) . . ?
O13 Si14 O2 110(2) . . ?
O11 Al14 O4 109.2(18) . . ?
O11 Al14 O13 109.9(18) . . ?
O4 Al14 O13 108.7(19) . . ?
O11 Al14 O2 110.9(18) . . ?
O4 Al14 O2 108.5(17) . . ?
O13 Al14 O2 110(2) . . ?
O11 Al14 Ca1 59.0(13) . . ?
O4 Al14 Ca1 129.5(17) . . ?
O13 Al14 Ca1 51.2(17) . . ?
O2 Al14 Ca1 122(2) . . ?
O17 Si15 O5 111(2) . . ?
O17 Si15 O32 108(2) . . ?
O5 Si15 O32 108(2) . . ?
O17 Si15 O14 112(2) . . ?
O5 Si15 O14 107.9(19) . . ?
O32 Si15 O14 109(2) . . ?
O17 Al15 O5 111(2) . . ?
O17 Al15 O32 108(2) . . ?
O5 Al15 O32 108(2) . . ?
O17 Al15 O14 112(2) . . ?
O5 Al15 O14 107.9(19) . . ?
O32 Al15 O14 109(2) . . ?
O8 Si16 O29 110(2) . 10_656 ?
O8 Si16 O33 109.2(19) . 16 ?
O29 Si16 O33 110.8(18) 10_656 16 ?
O8 Si16 O14 110(2) . . ?
O29 Si16 O14 107.7(19) 10_656 . ?
O33 Si16 O14 109(2) 16 . ?
O8 Al16 O29 110(2) . 10_656 ?
O8 Al16 O33 109.2(19) . 16 ?
O29 Al16 O33 110.8(18) 10_656 16 ?
O8 Al16 O14 110(2) . . ?
O29 Al16 O14 107.7(19) 10_656 . ?
O33 Al16 O14 109(2) 16 . ?
Al4 O1 Si4 0(2) . . ?
Al4 O1 Si4 137(3) . 12 ?
Si4 O1 Si4 137(3) . 12 ?
Al6 O2 Si6 0.0(19) . . ?
Al6 O2 Al14 129(2) . . ?
Si6 O2 Al14 129(2) . . ?
Al6 O2 Si14 129(2) . . ?
Si6 O2 Si14 129(2) . . ?
Al14 O2 Si14 0(2) . . ?
Al6 O2 Ca2 102.7(18) . . ?
Si6 O2 Ca2 102.7(18) . . ?
Al14 O2 Ca2 124(2) . . ?
Si14 O2 Ca2 124(2) . . ?
Al13 O3 Si13 0(2) . . ?
Al13 O3 Si5 165(3) . . ?
Si13 O3 Si5 165(3) . . ?
Al13 O3 Al5 165(3) . . ?
Si13 O3 Al5 165(3) . . ?
Si5 O3 Al5 0(2) . . ?
Al14 O4 Si14 0.0(18) . . ?
Al14 O4 Si8 118(2) . . ?
Si14 O4 Si8 118(2) . . ?
Al14 O4 Al8 118(2) . . ?
Si14 O4 Al8 118(2) . . ?
Si8 O4 Al8 0(2) . . ?
Al11 O5 Si11 0(2) . . ?
Al11 O5 Al15 129(2) . . ?
Si11 O5 Al15 129(2) . . ?
Al11 O5 Si15 129(2) . . ?
Si11 O5 Si15 129(2) . . ?
Al15 O5 Si15 0(2) . . ?
Al10 O6 Si10 0(2) . . ?
Al10 O6 Al13 138(2) . . ?
Si10 O6 Al13 138(2) . . ?
Al10 O6 Si13 138(2) . . ?
Si10 O6 Si13 138(2) . . ?
Al13 O6 Si13 0(2) . . ?
Al10 O6 Ca1 92.7(15) . 10_656 ?
Si10 O6 Ca1 92.7(15) . 10_656 ?
Al13 O6 Ca1 128.1(16) . 10_656 ?
Si13 O6 Ca1 128.1(16) . 10_656 ?
Al4 O7 Si4 0(2) . . ?
Al4 O7 Al8 126(3) . . ?
Si4 O7 Al8 126(3) . . ?
Al4 O7 Si8 126(3) . . ?
Si4 O7 Si8 126(3) . . ?
Al8 O7 Si8 0(2) . . ?
Al16 O8 Si16 0(2) . . ?
Al16 O8 Si10 140(2) . . ?
Si16 O8 Si10 140(2) . . ?
Al16 O8 Al10 140(2) . . ?
Si16 O8 Al10 140(2) . . ?
Si10 O8 Al10 0(2) . . ?
Al16 O8 Ca1 124(2) . 10_656 ?
Si16 O8 Ca1 124(2) . 10_656 ?
Si10 O8 Ca1 95(2) . 10_656 ?
Al10 O8 Ca1 95(2) . 10_656 ?
Al1 O9 Si1 0.0(17) . . ?
Al1 O9 Al5 142(2) . . ?
Si1 O9 Al5 142(2) . . ?
Al1 O9 Si5 142(2) . . ?
Si1 O9 Si5 142(2) . . ?
Al5 O9 Si5 0.0(15) . . ?
Al1 O9 Ca2 91.4(19) . . ?
Si1 O9 Ca2 91.4(19) . . ?
Al5 O9 Ca2 109.2(18) . . ?
Si5 O9 Ca2 109.2(18) . . ?
Al6 O10 Si6 0.0(17) . . ?
Al6 O10 Al9 150(2) . . ?
Si6 O10 Al9 150(2) . . ?
Al6 O10 Si9 150(2) . . ?
Si6 O10 Si9 150(2) . . ?
Al9 O10 Si9 0(2) . . ?
Al14 O11 Si14 0.0(17) . . ?
Al14 O11 Si2 148(2) . . ?
Si14 O11 Si2 148(2) . . ?
Al14 O11 Al2 148(2) . . ?
Si14 O11 Al2 148(2) . . ?
Si2 O11 Al2 0.0(16) . . ?
Al14 O11 Ca1 90.6(14) . . ?
Si14 O11 Ca1 90.6(14) . . ?
Si2 O11 Ca1 120.4(16) . . ?
Al2 O11 Ca1 120.4(16) . . ?
Al1 O12 Si1 0(2) . . ?
Al1 O12 Al10 125(2) . . ?
Si1 O12 Al10 125(2) . . ?
Al1 O12 Si10 125(2) . . ?
Si1 O12 Si10 125(2) . . ?
Al10 O12 Si10 0(2) . . ?
Al14 O13 Si14 0.0(19) . . ?
Al14 O13 Si7 134(2) . . ?
Si14 O13 Si7 134(2) . . ?
Al14 O13 Al7 134(2) . . ?
Si14 O13 Al7 134(2) . . ?
Si7 O13 Al7 0(2) . . ?
Al14 O13 Ca1 99(2) . . ?
Si14 O13 Ca1 99(2) . . ?
Si7 O13 Ca1 122(2) . . ?
Al7 O13 Ca1 122(2) . . ?
Al15 O14 Si15 0(3) . . ?
Al15 O14 Al16 127(2) . . ?
Si15 O14 Al16 127(2) . . ?
Al15 O14 Si16 127(2) . . ?
Si15 O14 Si16 127(2) . . ?
Al16 O14 Si16 0(2) . . ?
Al11 O15 Si11 0(2) . . ?
Al11 O15 Si1 139(3) . . ?
Si11 O15 Si1 139(3) . . ?
Al11 O15 Al1 139(3) . . ?
Si11 O15 Al1 139(3) . . ?
Si1 O15 Al1 0(2) . . ?
Al3 O16 Si3 0(2) . . ?
Al3 O16 Si3 132(3) . 12 ?
Si3 O16 Si3 132(3) . 12 ?
Al15 O17 Si15 0(2) . . ?
Al15 O17 Si12 157(2) . . ?
Si15 O17 Si12 157(2) . . ?
Al15 O17 Al12 157(2) . . ?
Si15 O17 Al12 157(2) . . ?
Si12 O17 Al12 0(2) . . ?
Al3 O18 Si3 0.0(13) . . ?
Al3 O18 Al8 157(3) . . ?
Si3 O18 Al8 157(3) . . ?
Al3 O18 Si8 157(3) . . ?
Si3 O18 Si8 157(3) . . ?
Al8 O18 Si8 0(2) . . ?
Al1 O19 Si1 0(2) . . ?
Al1 O19 Si1 124(3) . 12 ?
Si1 O19 Si1 124(3) . 12 ?
Al5 O20 Si5 0(3) . . ?
Al5 O20 Si5 115(3) . 12 ?
Si5 O20 Si5 115(3) . 12 ?
Al3 O21 Si3 0(2) . . ?
Al3 O21 Al9 150(3) . . ?
Si3 O21 Al9 150(3) . . ?
Al3 O21 Si9 150(3) . . ?
Si3 O21 Si9 150(3) . . ?
Al9 O21 Si9 0(2) . . ?
Al5 O22 Si5 0(2) . . ?
Al5 O22 Si4 137(2) . . ?
Si5 O22 Si4 137(2) . . ?
Al5 O22 Al4 137(2) . . ?
Si5 O22 Al4 137(2) . . ?
Si4 O22 Al4 0(2) . . ?
Al7 O23 Si7 0(2) . . ?
Al7 O23 Al9 131(2) . . ?
Si7 O23 Al9 131(2) . . ?
Al7 O23 Si9 131(2) . . ?
Si7 O23 Si9 131(2) . . ?
Al9 O23 Si9 0(3) . . ?
Al2 O24 Si2 0(2) . . ?
Al2 O24 Al4 143(2) . . ?
Si2 O24 Al4 143(2) . . ?
Al2 O24 Si4 143(2) . . ?
Si2 O24 Si4 143(2) . . ?
Al4 O24 Si4 0.0(19) . . ?
Si12 O25 Si13 158(2) 7_455 . ?
Si12 O25 Al13 158(2) 7_455 . ?
Si13 O25 Al13 0.0(18) . . ?
Al11 O26 Si11 0(2) . . ?
Al11 O26 Si11 146(3) . 12 ?
Si11 O26 Si11 146(3) . 12 ?
Al9 O27 Si9 0.0(17) . . ?
Al9 O27 Ca3 132(3) . 13 ?
Si9 O27 Ca3 132(3) . 13 ?
Al10 O28 Si10 0(2) . . ?
Al10 O28 Al12 131(2) . . ?
Si10 O28 Al12 131(2) . . ?
Al10 O28 Si12 131(2) . . ?
Si10 O28 Si12 131(2) . . ?
Al12 O28 Si12 0(2) . . ?
Al10 O28 Ca2 133(2) . . ?
Si10 O28 Ca2 133(2) . . ?
Al12 O28 Ca2 91.8(15) . . ?
Si12 O28 Ca2 91.8(15) . . ?
Si16 O29 Si2 141(2) 10_556 . ?
Si16 O29 Al2 141(2) 10_556 . ?
Si2 O29 Al2 0(2) . . ?
Al12 O30 Si12 0(3) . . ?
Al12 O30 Si6 172(3) . . ?
Si12 O30 Si6 172(3) . . ?
Al12 O30 Al6 172(3) . . ?
Si12 O30 Al6 172(3) . . ?
Si6 O30 Al6 0.0(19) . . ?
Al12 O30 Ca2 93.1(16) . . ?
Si12 O30 Ca2 93.1(16) . . ?
Si6 O30 Ca2 81.1(15) . . ?
Al6 O30 Ca2 81.1(15) . . ?
Al11 O31 Si11 0(2) . . ?
Al11 O31 Si3 145(2) . . ?
Si11 O31 Si3 145(2) . . ?
Al11 O31 Al3 145(2) . . ?
Si11 O31 Al3 145(2) . . ?
Si3 O31 Al3 0(2) . . ?
Al15 O32 Si15 0(2) . . ?
Al15 O32 Ca4 156(3) . . ?
Si15 O32 Ca4 156(3) . . ?
Si16 O33 Si7 128(2) 16_455 . ?
Si16 O33 Al7 128(2) 16_455 . ?
Si7 O33 Al7 0.0(18) . . ?
Si13 O34 Si7 138(2) 10_556 . ?
Si13 O34 Al7 138(2) 10_556 . ?
Si7 O34 Al7 0(2) . . ?
Si8 O35 Si8 138(3) 15_656 6 ?
Si6 O36 Si2 154(2) 8_556 2_565 ?
loop_
_geom_bond_atom_site_label_1
_geom_bond_atom_site_label_2
_geom_bond_distance
_geom_bond_site_symmetry_2
_geom_bond_publ_flag
Ca1 O13 2.57(5) . ?
Ca1 O13 2.57(5) 7_455 ?
Ca1 O8 2.49(5) 16_455 ?
Ca1 O8 2.49(5) 10_556 ?
Ca1 O11 2.79(6) 7_455 ?
Ca1 O11 2.79(6) . ?
Ca1 O6 2.55(6) 10_556 ?
Ca1 O6 2.55(6) 16_455 ?
Ca1 Al14 3.26(6) . ?
Ca1 Al14 3.26(6) 7_455 ?
Ca2 O2 2.09(5) . ?
Ca2 O28 2.73(6) . ?
Ca2 O30 2.69(6) . ?
Ca2 O9 3.13(6) . ?
Ca2 Si12 3.24(5) . ?
Ca2 Al12 3.24(5) . ?
Ca3 O27 2.51(7) 13 ?
Ca4 O32 1.61(5) 4_655 ?
Ca4 O32 1.61(5) . ?
Si1 O12 1.65(3) . ?
Si1 O9 1.66(3) . ?
Si1 O19 1.66(3) . ?
Si1 O15 1.65(3) . ?
Al1 O12 1.65(3) . ?
Al1 O9 1.66(3) . ?
Al1 O19 1.66(3) . ?
Al1 O15 1.65(3) . ?
Si2 O24 1.65(3) . ?
Si2 O11 1.65(3) . ?
Si2 O29 1.65(3) . ?
Si2 O36 1.66(3) 2_564 ?
Al2 O24 1.65(3) . ?
Al2 O11 1.65(3) . ?
Al2 O29 1.65(3) . ?
Al2 O36 1.66(3) 2_564 ?
Si3 O21 1.65(3) . ?
Si3 O18 1.65(4) . ?
Si3 O31 1.65(4) . ?
Si3 O16 1.65(3) . ?
Al3 O21 1.65(3) . ?
Al3 O18 1.65(4) . ?
Al3 O31 1.65(4) . ?
Al3 O16 1.65(3) . ?
Si4 O7 1.65(3) . ?
Si4 O1 1.65(3) . ?
Si4 O22 1.65(3) . ?
Si4 O24 1.65(2) . ?
Si4 Al8 2.94(6) . ?
Al4 O7 1.65(3) . ?
Al4 O1 1.65(3) . ?
Al4 O22 1.65(3) . ?
Al4 O24 1.65(2) . ?
Al4 Si8 2.94(6) . ?
Al4 Al8 2.94(6) . ?
Si5 O22 1.65(4) . ?
Si5 O3 1.66(3) . ?
Si5 O9 1.65(4) . ?
Si5 O20 1.65(3) . ?
Al5 O22 1.65(4) . ?
Al5 O3 1.66(3) . ?
Al5 O9 1.65(4) . ?
Al5 O20 1.65(3) . ?
Si6 O10 1.66(3) . ?
Si6 O36 1.65(3) 8_546 ?
Si6 O2 1.66(3) . ?
Si6 O30 1.66(4) . ?
Al6 O10 1.66(3) . ?
Al6 O36 1.65(3) 8_546 ?
Al6 O2 1.66(3) . ?
Al6 O30 1.66(4) . ?
Si7 O23 1.65(2) . ?
Si7 O13 1.65(3) . ?
Si7 O33 1.65(3) . ?
Si7 O34 1.65(3) . ?
Al7 O23 1.65(2) . ?
Al7 O13 1.65(3) . ?
Al7 O33 1.65(3) . ?
Al7 O34 1.65(3) . ?
Si8 O35 1.65(3) 6_554 ?
Si8 O7 1.65(3) . ?
Si8 O18 1.65(3) . ?
Si8 O4 1.65(3) . ?
Al8 O35 1.65(3) 6_554 ?
Al8 O7 1.65(3) . ?
Al8 O18 1.65(3) . ?
Al8 O4 1.65(3) . ?
Si9 O27 1.65(3) . ?
Si9 O21 1.66(3) . ?
Si9 O23 1.66(3) . ?
Si9 O10 1.65(2) . ?
Al9 O27 1.65(3) . ?
Al9 O21 1.66(3) . ?
Al9 O23 1.66(3) . ?
Al9 O10 1.65(2) . ?
Si10 O6 1.65(3) . ?
Si10 O28 1.65(3) . ?
Si10 O8 1.65(3) . ?
Si10 O12 1.65(4) . ?
Al10 O6 1.65(3) . ?
Al10 O28 1.65(3) . ?
Al10 O8 1.65(3) . ?
Al10 O12 1.65(4) . ?
Si11 O26 1.64(3) . ?
Si11 O31 1.64(4) . ?
Si11 O5 1.65(2) . ?
Si11 O15 1.65(3) . ?
Al11 O26 1.64(3) . ?
Al11 O31 1.64(4) . ?
Al11 O5 1.65(2) . ?
Al11 O15 1.65(3) . ?
Si12 O25 1.66(3) 7_455 ?
Si12 O30 1.65(4) . ?
Si12 O28 1.65(3) . ?
Si12 O17 1.65(3) . ?
Al12 O25 1.66(3) 7_455 ?
Al12 O30 1.65(4) . ?
Al12 O28 1.65(3) . ?
Al12 O17 1.65(3) . ?
Si13 O34 1.65(3) 10_656 ?
Si13 O3 1.65(3) . ?
Si13 O25 1.65(3) . ?
Si13 O6 1.65(3) . ?
Al13 O34 1.65(3) 10_656 ?
Al13 O3 1.65(3) . ?
Al13 O25 1.65(3) . ?
Al13 O6 1.65(3) . ?
Si14 O11 1.65(4) . ?
Si14 O4 1.65(3) . ?
Si14 O13 1.65(3) . ?
Si14 O2 1.65(3) . ?
Al14 O11 1.65(4) . ?
Al14 O4 1.65(3) . ?
Al14 O13 1.65(3) . ?
Al14 O2 1.65(3) . ?
Si15 O17 1.64(2) . ?
Si15 O5 1.65(3) . ?
Si15 O32 1.66(3) . ?
Si15 O14 1.65(3) . ?
Al15 O17 1.64(2) . ?
Al15 O5 1.65(3) . ?
Al15 O32 1.66(3) . ?
Al15 O14 1.65(3) . ?
Si16 O8 1.65(3) . ?
Si16 O29 1.64(3) 10_656 ?
Si16 O33 1.65(3) 16 ?
Si16 O14 1.65(2) . ?
Al16 O8 1.65(3) . ?
Al16 O29 1.64(3) 10_656 ?
Al16 O33 1.65(3) 16 ?
Al16 O14 1.65(2) . ?
