#------------------------------------------------------------------------------
#$Date: 2021-01-04 05:06:15 +0200 (Mon, 04 Jan 2021) $
#$Revision: 260415 $
#$URL: file:///home/coder/svn-repositories/cod/cif/4/51/82/4518283.cif $
#------------------------------------------------------------------------------
#
# This file is available in the Crystallography Open Database (COD),
# http://www.crystallography.net/
#
# All data on this site have been placed in the public domain by the
# contributors.
#
data_4518283
loop_
_publ_author_name
'Cametti, Georgia'
'Scheinost, Andreas C.'
'Churakov, Sergey V.'
_publ_section_title
;
 Structural Evolution of Ag-LEV Zeolite upon Heating: An In Situ
 Single-Crystal X-ray Diffraction (SC-XRD) and X-ray Absorption
 Spectroscopy (XAS) Study.
;
_journal_issue                   49
_journal_name_full               'ACS omega'
_journal_page_first              31774
_journal_page_last               31783
_journal_paper_doi               10.1021/acsomega.0c04455
_journal_volume                  5
_journal_year                    2020
_chemical_formula_sum            'Ag3.41 O46.34 Si18'
_chemical_formula_weight         1614.95
_chemical_name_common            Ag-levyne
_space_group_crystal_system      trigonal
_space_group_IT_number           166
_space_group_name_Hall           '-R 3 2"'
_space_group_name_H-M_alt        'R -3 m :H'
_atom_sites_solution_primary     direct
_atom_sites_solution_secondary   difmap
_audit_creation_method           SHELXL-2014
_cell_angle_alpha                90
_cell_angle_beta                 90
_cell_angle_gamma                120
_cell_formula_units_Z            3
_cell_length_a                   13.3661(4)
_cell_length_b                   13.3661(4)
_cell_length_c                   22.6328(8)
_cell_measurement_reflns_used    3953
_cell_measurement_temperature    323(2)
_cell_measurement_theta_max      27.2
_cell_measurement_theta_min      2.5
_cell_volume                     3501.70(19)
_computing_structure_refinement  'SHELXL-2014 (Sheldrick, 2014)'
_diffrn_ambient_temperature      323(2)
_diffrn_measured_fraction_theta_full 1.000
_diffrn_measured_fraction_theta_max 1.000
_diffrn_measurement_device_type  'APEX II'
_diffrn_radiation_type           MoK\a
_diffrn_radiation_wavelength     0.71073
_diffrn_reflns_av_R_equivalents  0.0403
_diffrn_reflns_av_unetI/netI     0.0212
_diffrn_reflns_Laue_measured_fraction_full 1.000
_diffrn_reflns_Laue_measured_fraction_max 1.000
_diffrn_reflns_limit_h_max       17
_diffrn_reflns_limit_h_min       -13
_diffrn_reflns_limit_k_max       16
_diffrn_reflns_limit_k_min       -17
_diffrn_reflns_limit_l_max       20
_diffrn_reflns_limit_l_min       -29
_diffrn_reflns_number            11930
_diffrn_reflns_point_group_measured_fraction_full 1.000
_diffrn_reflns_point_group_measured_fraction_max 1.000
_diffrn_reflns_theta_full        25.242
_diffrn_reflns_theta_max         27.304
_diffrn_reflns_theta_min         1.976
_diffrn_source                   'fine-focus sealed tube'
_exptl_absorpt_coefficient_mu    1.998
_exptl_absorpt_correction_T_max  0.7455
_exptl_absorpt_correction_T_min  0.6637
_exptl_absorpt_correction_type   multi-scan
_exptl_crystal_colour            gray-yellowish
_exptl_crystal_density_diffrn    2.297
_exptl_crystal_description       fragment
_exptl_crystal_F_000             2349
_exptl_crystal_size_max          0.180
_exptl_crystal_size_mid          0.150
_exptl_crystal_size_min          0.100
_refine_diff_density_max         1.046
_refine_diff_density_min         -0.981
_refine_diff_density_rms         0.153
_refine_ls_extinction_method     none
_refine_ls_goodness_of_fit_ref   1.033
_refine_ls_hydrogen_treatment    undef
_refine_ls_matrix_type           full
_refine_ls_number_parameters     96
_refine_ls_number_reflns         988
_refine_ls_number_restraints     0
_refine_ls_restrained_S_all      1.033
_refine_ls_R_factor_all          0.0660
_refine_ls_R_factor_gt           0.0597
_refine_ls_shift/su_max          0.000
_refine_ls_shift/su_mean         0.000
_refine_ls_structure_factor_coef Fsqd
_refine_ls_weighting_details
'w=1/[\s^2^(Fo^2^)+(0.1141P)^2^+37.3605P] where P=(Fo^2^+2Fc^2^)/3'
_refine_ls_weighting_scheme      calc
_refine_ls_wR_factor_gt          0.1742
_refine_ls_wR_factor_ref         0.1805
_reflns_Friedel_coverage         0.000
_reflns_number_gt                873
_reflns_number_total             988
_reflns_threshold_expression     'I > 2\s(I)'
_cod_data_source_file            ao0c04455_si_002.cif
_cod_data_source_block           shelx
_cod_depositor_comments
'Adding full bibliography for 4518279--4518286.cif.'
_cod_original_cell_volume        3501.7(2)
_cod_database_code               4518283
_shelx_space_group_comment
;
The symmetry employed for this shelxl refinement is uniquely defined
by the following loop, which should always be used as a source of
symmetry information in preference to the above space-group names.
They are only intended as comments.
;
_shelxl_version_number           2014-1
_shelx_res_file
;
TITL levAg_50 in R-3m
CELL 0.71073  13.3661  13.3661  22.6328  90.000  90.000 120.000
ZERR    3.00   0.0004   0.0004   0.0008   0.000   0.000   0.000
LATT  3
SYMM -Y, X-Y, Z
SYMM -X+Y, -X, Z
SYMM Y, X, -Z
SYMM X-Y, -Y, -Z
SYMM -X, -X+Y, -Z
SFAC O SI AG
UNIT 139.03 54 10.23
TEMP 50.000
acta
L.S. 10
BOND
FMAP 2
PLAN 20
twin -1 0 0 0 -1 0 0 0 1
LIST 4

WGHT    0.114100   37.360500
BASF   0.05171
FVAR       0.04945
T1    2    0.000122    0.231146    0.070552    11.00000    0.01665    0.01702 =
         0.01834   -0.00283   -0.00052    0.00647
T2    2    0.239174    0.000000    0.500000    10.50000    0.01328    0.01291 =
         0.02101    0.00184    0.00092    0.00645
O1    1    0.034767    0.350405    0.107394    11.00000    0.04231    0.02494 =
         0.03334   -0.00923   -0.00574    0.01349
O2    1    0.090816    0.181632    0.085303    10.50000    0.02609    0.03662 =
         0.03381   -0.00113   -0.00057    0.01831
O3    1    0.128420    0.256840   -0.092763    10.50000    0.02604    0.05253 =
         0.03545    0.01154    0.00577    0.02627
O4    1    0.260107    0.000000    0.000000    10.50000    0.03930    0.03652 =
         0.02138    0.00112    0.00056    0.01826
O5    1    0.222899    0.445799    0.178921    10.50000    0.02229    0.04124 =
         0.04502   -0.00157   -0.00079    0.02062
rem extraframework
AG1   3    0.000000    0.000000    0.141900     0.06471    0.03232
AG1A  3    0.000000    0.000000    0.121608     0.01822    0.13936
AG2   3    0.333333    0.666667    0.157116     0.01434    0.01688
AG2A  3    0.333333    0.666667    0.125480     0.01130    0.04189
AG2B  3    0.333333    0.666667    0.267801     0.01799    0.12093
AG4   3   -0.005681    0.497159    0.053700     0.03320    0.06394
AG4A  3   -0.070049    0.464976    0.074621     0.03826    0.06201
AG4B  3    0.065553    0.532777    0.045717     0.04360    0.09663
AG4D  3    0.000097    0.557692    0.020004     0.02594    0.12496
AG4E  3   -0.101088    0.449456    0.028170     0.01645   10.14000
rem water
W1    1    0.257677    0.515354   -0.118861    10.50000    0.13867    0.04612 =
         0.05857    0.00802    0.00401    0.02306
W1A   1    0.215042    0.430084   -0.139299     0.08300   10.14000
W3    1    0.146850    0.521551    0.004398     0.27946   10.14000

HKLF4

REM  levAg_50 in R-3m
REM R1 =  0.0597 for     873 Fo > 4sig(Fo)  and  0.0660 for all     988 data
REM     96 parameters refined using      0 restraints

END

WGHT      0.1015     37.1041

REM Highest difference peak  1.046,  deepest hole -0.981,  1-sigma level  0.153
Q1    1   0.2538  0.5077 -0.0032  10.50000  0.05    0.75
Q2    1   0.1252  0.5626  0.0420  10.50000  0.05    0.69
Q3    1  -0.0213 -0.0426  0.1444  10.50000  0.05    0.68
Q4    1   0.3333  0.6667  0.3712  10.16667  0.05    0.67
Q5    1   0.0180  0.5431  0.0464  11.00000  0.05    0.59
Q6    1  -0.0497  0.4752  0.0022  10.50000  0.05    0.52
Q7    1   0.0000  0.0000  0.0000  10.08333  0.05    0.46
Q8    1   0.3044  0.6088  0.3083  10.50000  0.05    0.45
Q9    1   0.2698  0.0043 -0.0370  11.00000  0.05    0.42
Q10   1   0.3185  0.6370 -0.1203  10.50000  0.05    0.42
Q11   1  -0.0045  0.3180  0.1231  11.00000  0.05    0.42
Q12   1   0.3333  0.6667 -0.0965  10.16667  0.05    0.40
Q13   1   0.0590  0.5979  0.0072  11.00000  0.05    0.39
Q14   1   0.2431  0.5567  0.0230  11.00000  0.05    0.39
Q15   1  -0.1335  0.4733  0.0632  11.00000  0.05    0.37
Q16   1   0.3110  0.0000  0.0000  10.50000  0.05    0.37
Q17   1   0.1273  0.2546  0.0609  10.50000  0.05    0.36
Q18   1   0.2467  0.4934  0.0410  10.50000  0.05    0.34
Q19   1   0.1485  0.0000  0.0000  10.50000  0.05    0.32
Q20   1   0.1916  0.5454 -0.0914  11.00000  0.05    0.31
;
_shelx_res_checksum              89336
_shelx_hkl_file
;
   1  -2   0   34.80    1.08
   1  -2   0   33.85    1.01
   1  -2   0   34.11    1.07
   2  -1   0   33.91    0.90
  -1   2   0   33.90    1.08
  -1   2   0   34.50    1.08
   0  -3   0  143.71    3.88
   3   0   0  143.67    3.63
  -3   3   0  141.65    3.80
   0  -3   0  136.20    3.81
  -3   3   0  134.32    3.80
   3  -3   0  141.36    3.74
   3  -3   0  140.37    3.57
   0   3   0  138.20    3.78
   2  -4   0   26.22    1.05
   2   2   0   24.58    0.85
   2  -4   0   26.07    1.07
   2  -4   0   25.26    1.09
   4  -2   0   25.32    0.88
  -2   4   0   26.48    1.11
  -2   4   0   26.82    1.09
   1   4   0  147.71    3.85
   1   4   0  142.49    3.81
   4  -5   0  151.01    4.21
   4  -5   0  148.62    4.01
   4  -5   0  148.15    4.22
  -4   5   0  149.20    4.30
   5  -1   0  151.14    4.00
   5  -1   0  150.04    3.61
  -1  -4   0  147.65    4.15
  -1  -4   0  152.57    4.24
  -1  -4   0  145.62    3.94
  -4   5   0  152.02    4.30
   4   1   0  148.76    3.60
   4   1   0  155.03    3.92
  -5   4   0  148.18    4.17
   1  -5   0  145.53    3.94
   1  -5   0  148.45    4.31
   1  -5   0  145.30    4.32
  -5   4   0  153.86    4.16
   1  -5   0  149.04    3.98
   5  -4   0  152.56    3.97
  -1   5   0  146.86    4.26
  -1   5   0  153.70    4.34
   3  -6   0  227.21    6.31
   3   3   0  229.16    5.53
   3   3   0  215.16    5.53
   3   3   0  237.21    5.66
   3  -6   0  223.39    5.84
   3  -6   0  223.05    6.30
  -3   6   0  222.55    6.31
  -3  -3   0  227.74    5.69
   6  -3   0  220.32    5.55
  -3   6   0  228.33    6.35
  -6   6   0    2.05    0.41
   0  -6   0    1.73    0.40
   6   0   0    2.20    0.34
   0  -6   0    2.61    0.49
   0  -6   0    2.79    0.49
   6   0   0    2.47    0.44
  -6   6   0    1.74    0.40
   6  -6   0    1.54    0.30
   6  -6   0    1.91    0.32
   0   6   0    2.19    0.37
   6  -6   0    2.06    0.46
   0   6   0    3.01    0.48
   0   6   0    1.73    0.41
   2   5   0   37.65    1.47
   2   5   0   35.95    1.50
   5  -7   0   33.68    1.47
   5  -7   0   37.60    1.54
   5  -7   0   34.55    1.55
  -5   7   0   36.72    1.61
  -5   7   0   32.28    1.56
   7  -2   0   34.03    1.18
  -2  -5   0   37.20    1.52
   7  -2   0   33.81    1.31
  -2  -5   0   34.13    1.53
  -2  -5   0   34.85    1.39
   5   2   0   34.82    1.48
   2  -7   0   34.97    1.60
   2  -7   0   33.02    1.45
   5   2   0   35.44    1.15
   2  -7   0   34.20    1.48
   2  -7   0   34.43    1.55
   5   2   0   35.19    1.34
  -7   5   0   34.08    1.38
  -7   5   0   35.03    1.36
  -5  -2   0   33.99    1.41
  -2   7   0   35.14    1.62
  -2   7   0   36.69    1.55
   7  -5   0   33.87    1.42
   7  -8   0   39.07    1.60
   7  -8   0   42.90    1.87
   1   7   0   44.01    1.83
   7  -8   0   40.25    1.65
  -8   1   0   42.01    1.51
  -1  -7   0   45.73    1.94
   8  -1   0   42.14    1.38
  -1  -7   0   40.07    1.87
   8  -1   0   39.77    1.52
  -1  -7   0   43.68    1.82
   8  -1   0   40.25    1.41
  -7   8   0   43.23    1.91
  -7   8   0   40.63    1.86
   4   4   0  686.36   15.81
   4  -8   0  696.27   17.93
  -8   4   0  660.36   17.35
   4   4   0  680.23   15.81
   4   4   0  681.38   16.07
   4  -8   0  696.80   16.52
   4  -8   0  680.99   17.93
   4  -8   0  687.28   15.84
  -8   4   0  669.69   17.33
  -4  -4   0  696.78   17.49
   8  -4   0  678.83   17.52
  -4  -4   0  678.14   17.39
   8  -4   0  672.81   16.13
  -4   8   0  701.05   17.99
  -4   8   0  690.37   18.02
  -4  -4   0  693.86   16.02
   1  -8   0   43.82    1.96
  -8   7   0   40.83    1.79
   1  -8   0   42.61    1.89
   7   1   0   43.30    1.57
   1  -8   0   43.78    1.91
   1  -8   0   40.34    1.73
   7   1   0   42.62    1.83
  -8   7   0   41.93    1.81
   7   1   0   42.25    1.34
   8  -7   0   42.20    1.83
  -1   8   0   41.75    1.73
  -7  -1   0   41.26    1.66
  -1   8   0   43.25    1.83
   6  -9   0    0.76    0.38
   6  -9   0    0.21    0.32
   6  -9   0    0.50    0.38
   6  -9   0    1.06    0.37
   3   6   0    0.63    0.38
  -6   9   0    0.47    0.43
  -3  -6   0    0.23    0.27
  -3  -6   0    1.11    0.45
   9  -3   0    0.75    0.31
  -6   9   0    0.66    0.38
  -3  -6   0    0.75    0.42
   9  -3   0    0.26    0.26
  -9   6   0    0.72    0.34
   6   3   0    0.13    0.25
   3  -9   0    0.96    0.42
   6   3   0    0.76    0.27
   6   3   0    0.83    0.41
  -9   6   0    0.53    0.31
   3  -9   0    0.45    0.41
   3  -9   0    0.10    0.31
   3  -9   0   -0.20    0.29
  -3   9   0    0.73    0.47
  -3   9   0    0.28    0.34
   9  -6   0    0.79    0.38
  -6  -3   0    0.45    0.31
   9   0   0  422.69    9.68
   0  -9   0  412.05   11.39
   0  -9   0  393.34   11.23
  -9   9   0  381.05   11.29
   9   0   0  405.79    9.74
   9   0   0  392.24    9.65
   0  -9   0  409.94   10.42
  -9   9   0  406.63   11.28
   9  -9   0  413.70   10.56
   0   9   0  411.79   10.20
  -9   0   0  414.10    9.84
   2   8   0   10.20    1.15
   8 -10   0   12.23    0.86
   8 -10   0   13.57    1.21
  -8  10   0   11.45    1.12
  -2  -8   0   11.96    1.27
  10  -2   0   10.49    0.80
  -8  10   0   12.42    1.16
  10  -2   0   12.51    0.79
 -10   5   0   64.26    2.17
   5 -10   0   63.20    2.58
   5 -10   0   63.67    2.63
   5   5   0   69.48    2.60
   5 -10   0   64.53    2.65
   5 -10   0   67.44    2.46
  -5  -5   0   65.29    2.55
  -5  -5   0   67.32    2.24
  -5  10   0   64.78    2.75
  10  -5   0   65.61    2.33
  -5  10   0   65.54    2.70
  10  -5   0   61.46    2.37
   2 -10   0   10.40    1.15
   8   2   0   10.80    1.19
   2 -10   0   11.93    1.11
   2 -10   0   11.49    1.14
   8   2   0   12.92    0.92
  -8  -2   0   12.19    1.00
  10  -8   0   13.75    1.13
  10 -11   0   10.30    1.28
   1  10   0   10.80    1.36
  11  -1   0    8.80    0.72
  11  -1   0    8.73    0.76
  -1 -10   0    9.57    1.26
   7 -11   0    0.70    0.41
   7 -11   0    1.44    0.56
   4   7   0    1.61    0.55
  11  -4   0    1.69    0.41
  11  -4   0    1.17    0.41
  -4  -7   0    1.68    0.63
  -7  11   0    1.18    0.57
  -7  11   0    1.38    0.60
   4 -11   0    1.67    0.59
   4 -11   0    0.59    0.50
   7   4   0    1.86    0.53
  -7  -4   0    1.35    0.48
  11  -7   0    1.56    0.46
  11  -7   0    0.33    0.35
   1 -11   0   10.90    1.31
  10   1   0   10.46    0.76
 -10  -1   0   10.96    1.15
  11 -10   0    8.11    1.18
  -1  11   0    8.36    1.24
   9 -12   0   34.11    2.01
   3   9   0   35.07    1.95
  -3  -9   0   31.92    2.00
  12  -3   0   32.54    1.49
  12  -3   0   30.80    1.54
   6   6   0    5.12    0.91
   6 -12   0    5.30    0.85
  12  -6   0    3.76    0.73
  12  -6   0    5.38    0.82
  -6  -6   0    4.21    0.88
   9   3   0   33.20    1.96
   3 -12   0   32.61    1.95
  12  -9   0   33.68    1.89
  12  -9   0   32.10    1.88
  -9  -3   0   33.64    1.83
  12   0   0   84.15    2.75
   0 -12   0   81.83    3.54
   0  12   0   81.29    3.40
  12 -12   0   79.65    3.46
  11 -13   0    0.45    0.57
   2  11   0    0.50    0.49
  -2 -11   0    0.24    0.56
  13  -2   0    0.46    0.38
   8 -13   0   90.26    3.28
   5   8   0   93.62    3.56
  -5  -8   0   93.34    3.66
  13  -5   0   84.40    3.05
   8   5   0   90.75    3.54
   5 -13   0   91.53    3.49
  13  -8   0   88.10    3.37
  -8  -5   0   92.38    3.53
  11   2   0   -0.04    0.33
   2 -13   0    0.50    0.58
  13 -11   0    0.87    0.65
 -11  -2   0    0.44    0.48
  -2  13   0    1.20    0.67
  13 -14   0   13.86    1.79
   1  13   0   17.22    1.99
  14  -1   0   12.56    1.07
  -1 -13   0   11.79    1.65
   4  10   0    7.92    1.28
  -4 -10   0    5.11    1.10
  14  -4   0    5.12    0.79
   7 -14   0    3.38    0.84
   7   7   0    2.31    0.75
  14  -7   0    3.25    0.76
  -7  -7   0    2.20    0.83
   4 -14   0    7.52    1.24
  10   4   0    4.55    0.99
 -10  -4   0    6.77    1.16
  14 -10   0    3.84    0.88
  13   1   0   14.81    1.16
   1 -14   0   15.78    1.96
  14 -13   0   14.73    1.91
  -1  14   0   14.62    1.79
   3  12   0    0.89    0.67
  -3 -12   0    1.01    0.67
  15  -3   0    0.48    0.43
   6   9   0    5.65    1.10
  15  -6   0    5.14    0.86
  -6  -9   0    4.92    1.05
   6 -15   0    6.84    1.19
   9   6   0    4.86    0.99
  -9  -6   0    8.48    1.31
  15  -9   0    5.88    1.07
   3 -15   0    1.25    0.73
  12   3   0    0.44    0.42
  15 -12   0    1.81    0.75
  -3  15   0    1.48    0.76
   5  11   0    0.26    0.51
  -5 -11   0   -0.10    0.56
  16  -5   0    0.10    0.45
   8   8   0   62.09    3.15
  -8  -8   0   67.73    3.28
  16  -8   0   61.88    2.86
  11   5   0   -0.23    0.46
   5 -16   0    0.01    0.61
  11   5   0    0.61    0.48
 -11  -5   0   -0.02    0.52
  -5  16   0   -0.35    0.47
  16 -11   0   -0.42    0.49
   7  10   0   -0.36    0.59
  -7 -10   0    0.76    0.65
  17  -7   0    0.70    0.63
   7 -17   0    0.15    0.63
  10   7   0    0.40    0.64
  17 -10   0   -0.25    0.56
 -10  -7   0   -0.25    0.58
   1  -1  -1   24.84    0.68
  -1   0  -1   23.82    0.69
   0   1  -1   24.56    0.69
  -1   0  -1   24.44    0.72
   0   1  -1   24.14    0.69
   1  -1  -1   23.63    0.67
   1   0   1   23.45    0.68
   1   0   1   23.19    0.67
   1   0   1   24.65    0.66
  -1   1   1   24.17    0.69
   0  -1   1   24.08    0.70
   1   0   1   25.38    0.73
   0  -1   1   24.23    0.70
  -2  -1  -1   36.13    1.10
  -1   3  -1   34.39    1.19
  -1   3  -1   34.67    1.18
   3  -2  -1   32.48    1.01
   1  -3   1   35.64    1.21
   1  -3   1   34.55    1.13
   1  -3   1   34.19    1.19
  -2   2  -1   23.72    0.89
  -2   2  -1   25.61    0.89
   0  -2  -1   25.29    0.91
   0  -2  -1   25.22    0.93
   2  -2   1   26.15    0.88
   2  -2   1   24.86    0.87
   2  -2   1   24.27    0.88
   0   2   1   25.42    0.93
   0   2   1   26.12    0.90
  -2   5  -1    2.00    0.41
   5  -3  -1    2.13    0.32
  -2   5  -1    2.71    0.46
   2  -5   1    2.10    0.39
   3   2   1    3.19    0.43
   2  -5   1    2.73    0.48
   3   2   1    2.78    0.34
   2  -5   1    1.96    0.37
   2  -3  -1   34.44    1.17
  -3   1  -1   34.85    1.08
   2  -3  -1   33.60    1.17
   2  -3  -1   34.89    1.14
  -2   3   1   33.98    1.19
   3  -1   1   34.56    1.10
  -2   3   1   34.97    1.19
   3  -1   1   34.94    1.01
  -3   4  -1    0.24    0.19
  -1  -3  -1    0.68    0.20
  -3   4  -1    0.14    0.20
  -1  -3  -1    1.06    0.28
   3  -4   1    0.55    0.23
   1   3   1    0.67    0.19
   3  -4   1    0.67    0.26
   3  -4   1    0.25    0.17
   1   3   1    0.32    0.15
  -4  -3  -1    2.35    0.46
  -3   7  -1    2.36    0.50
  -3   7  -1    2.52    0.53
   7  -4  -1    1.74    0.35
  -7   4   1    2.05    0.29
   4   3   1    2.54    0.39
  -7   4   1    1.94    0.29
   4   3   1    3.32    0.57
   3  -7   1    1.16    0.35
   3  -7   1    2.18    0.48
   3  -7   1    2.31    0.49
   3  -7   1    2.10    0.45
   4  -4  -1  120.90    3.30
   0   4  -1  118.73    3.38
   4  -4  -1  121.02    3.24
   0   4  -1  119.22    3.33
   4  -4  -1  120.98    3.29
   0  -4   1  122.41    3.45
  -4   4   1  118.97    3.43
  -4   4   1  119.64    3.41
   4   0   1  119.47    3.30
   0  -4   1  121.92    3.50
   4   0   1  119.46    2.98
   1  -4  -1    0.42    0.23
   1  -4  -1    0.44    0.22
   1  -4  -1    0.27    0.22
  -4   3  -1    0.61    0.21
  -4   3  -1    0.22    0.15
   4  -3   1    0.68    0.21
   4  -3   1    0.50    0.15
  -1   4   1    0.52    0.23
   4  -3   1    0.36    0.14
  -1   4   1    0.36    0.24
  -2  -4  -1    3.08    0.54
  -2  -4  -1    3.20    0.47
  -4   6  -1    2.32    0.46
   6  -2  -1    3.61    0.36
   6  -2  -1    3.39    0.34
  -2  -4  -1    3.48    0.53
  -4   6  -1    4.07    0.63
   4  -6   1    3.44    0.56
   2   4   1    3.09    0.51
   4  -6   1    4.34    0.61
   4  -6   1    3.82    0.55
  -5  -4  -1   57.75    2.26
   9  -5  -1   57.01    2.06
  -5  -4  -1   59.32    2.00
  -4   9  -1   61.22    2.45
  -5  -4  -1   59.40    2.09
  -4   9  -1   59.46    2.51
  -9   5   1   60.36    2.00
   4  -9   1   62.77    2.48
   5   4   1   58.98    2.00
  -9   5   1   63.00    1.99
   4  -9   1   58.81    2.20
   4  -9   1   59.00    2.35
   5   4   1   58.01    2.26
  -1   6  -1    3.61    0.48
  -1   6  -1    4.00    0.56
   6  -5  -1    2.54    0.44
  -1   6  -1    3.29    0.49
   5   1   1    4.99    0.60
   1  -6   1    4.07    0.58
   1  -6   1    3.65    0.53
   1  -6   1    4.39    0.59
   5   1   1    4.05    0.33
  -6   5   1    3.01    0.44
   1  -6   1    4.21    0.64
  -6   5   1    3.02    0.44
   3  -5  -1    2.29    0.40
   2   3  -1    2.80    0.39
   2   3  -1    2.31    0.31
   3  -5  -1    1.61    0.33
   3  -5  -1    1.98    0.38
   2   3  -1    1.72    0.34
   5  -2   1    2.41    0.35
  -3   5   1    1.68    0.35
  -3   5   1    2.27    0.41
  -2  -3   1    2.67    0.43
   5  -2   1    2.43    0.33
   5   0  -1   18.25    0.91
  -5   5  -1   15.93    0.89
   0  -5  -1   18.62    0.98
  -5   5  -1   15.63    0.89
   0  -5  -1   18.71    0.88
   0  -5  -1   19.11    1.00
   0  -5  -1   18.61    0.92
   5  -5   1   15.13    0.89
   5  -5   1   14.66    0.77
   5  -5   1   13.19    0.75
   0   5   1   18.06    0.91
   0   5   1   17.91    0.86
  -3  -5  -1   18.02    1.05
  -5   8  -1   18.02    1.19
  -3  -5  -1   18.24    0.96
  -3  -5  -1   20.24    1.20
   8  -3  -1   18.96    0.90
  -5   8  -1   18.25    1.18
   8  -3  -1   18.86    0.84
   3   5   1   18.75    1.10
   5  -8   1   16.32    1.07
   5  -8   1   16.33    1.12
   5  -8   1   16.58    0.96
   5  -8   1   17.25    1.09
  -6  -5  -1    2.92    0.70
  11  -6  -1    3.25    0.63
  11  -6  -1    1.99    0.53
  -5  11  -1    2.00    0.67
   5 -11   1    3.85    0.82
   6   5   1    3.89    0.78
   5 -11   1    2.71    0.66
  -6  -2  -1    0.05    0.23
  -2   8  -1    0.49    0.36
   8  -6  -1   -0.06    0.23
  -2   8  -1    0.16    0.26
   2  -8   1    0.66    0.40
  -8   6   1    0.39    0.26
   6   2   1    0.27    0.17
  -8   6   1    0.10    0.23
   6   2   1    0.26    0.29
   2  -8   1    0.23    0.31
   2  -8   1    0.23    0.29
   2  -8   1    0.20    0.37
   1   5  -1    4.82    0.65
   1   5  -1    4.02    0.55
   5  -6  -1    4.42    0.54
   5  -6  -1    4.99    0.67
  -1  -5   1    4.52    0.55
  -1  -5   1    5.56    0.67
   6  -1   1    3.94    0.41
  -5   6   1    3.97    0.60
   6  -1   1    4.12    0.50
  -1  -5   1    3.41    0.54
  -5   6   1    4.38    0.64
  -6   4  -1    3.77    0.49
   2  -6  -1    3.48    0.53
   4   2  -1    2.14    0.41
   2  -6  -1    3.95    0.57
   4   2  -1    3.49    0.33
   4   2  -1    3.11    0.44
  -6   4  -1    4.52    0.52
   2  -6  -1    3.49    0.61
   2  -6  -1    3.78    0.59
   6  -4   1    3.87    0.53
   6  -4   1    5.15    0.63
  -4  -2   1    3.78    0.54
  -2   6   1    2.76    0.50
  -2   6   1    3.26    0.54
  -1  -6  -1   18.80    1.14
  -6   7  -1   18.99    1.13
  -1  -6  -1   19.21    1.15
  -6   7  -1   16.48    1.08
  -1  -6  -1   19.18    1.05
   1   6   1   20.53    0.89
   6  -7   1   18.54    1.13
   6  -7   1   17.93    0.97
   1   6   1   18.75    1.06
   6  -7   1   17.48    0.99
   1   6   1   20.54    0.84
  -6  10  -1    0.97    0.44
  -4  -6  -1    0.68    0.35
  10  -4  -1    0.29    0.27
  10  -4  -1    0.37    0.30
  -6  10  -1    1.07    0.61
  -4  -6  -1    0.61    0.44
   6 -10   1    0.47    0.35
   4   6   1    1.24    0.48
   6 -10   1    1.45    0.55
   6 -10   1    0.32    0.39
  -7  -6  -1    5.65    0.98
  13  -7  -1    7.03    0.97
   6 -13   1    7.20    1.04
   7   6   1    4.19    0.84
  -7  -3  -1   21.53    1.33
  -3  10  -1   23.91    1.65
  10  -7  -1   23.16    1.35
   7   3   1   19.56    1.33
   3 -10   1   22.19    1.46
   3 -10   1   21.93    1.49
   3 -10   1   23.20    1.41
  -7   0  -1    2.52    0.45
   0   7  -1    2.72    0.41
   7  -7  -1    1.25    0.45
   0   7  -1    2.60    0.45
   0   7  -1    2.06    0.48
   7  -7  -1    2.11    0.34
  -7   7   1    2.56    0.55
   7   0   1    2.86    0.46
   0  -7   1    2.99    0.58
   7   0   1    2.15    0.32
   0  -7   1    3.27    0.59
  -7   7   1    1.25    0.39
   7   0   1    2.05    0.37
   7   0   1    2.57    0.38
   0  -7   1    2.50    0.55
   4  -7  -1    2.07    0.47
   4  -7  -1    1.81    0.46
   3   4  -1    3.02    0.48
   3   4  -1    1.95    0.37
   4  -7  -1    1.91    0.42
   3   4  -1    1.53    0.37
   4  -7  -1    2.14    0.48
  -3  -4   1    2.65    0.40
   7  -3   1    2.44    0.40
  -3  -4   1    3.34    0.40
   7  -3   1    2.11    0.39
  -4   7   1    1.27    0.41
  -4   7   1    1.33    0.40
  -3  -4   1    2.76    0.52
   1  -7  -1   18.83    1.13
   6   1  -1   20.32    1.10
   1  -7  -1   20.02    1.14
   6   1  -1   20.17    0.95
  -7   6  -1   19.07    1.05
   1  -7  -1   19.27    1.08
  -7   6  -1   17.79    1.04
   1  -7  -1   17.67    1.14
  -6  -1   1   21.01    1.03
  -1   7   1   19.27    1.14
   7  -6   1   19.07    1.10
  -1   7   1   19.71    1.06
   9  -2  -1    1.23    0.32
   9  -2  -1    1.77    0.33
  -7   9  -1    0.90    0.47
  -2  -7  -1    0.73    0.43
  -2  -7  -1    0.47    0.31
  -7   9  -1    0.63    0.39
  -2  -7  -1    0.85    0.42
   7  -9   1    0.71    0.33
   7  -9   1    1.51    0.51
   7  -9   1    1.07    0.41
   7  -9   1    1.21    0.36
  -9   2   1    1.62    0.36
   2   7   1    0.53    0.36
  12  -5  -1    0.20    0.28
  12  -5  -1   -0.04    0.33
  -5  -7  -1   -0.03    0.38
  -7  12  -1    0.31    0.52
   5   7   1    0.42    0.39
   7 -12   1    0.57    0.50
   7 -12   1   -0.07    0.37
  15  -8  -1    0.92    0.60
  -8  -7  -1    1.29    0.64
   7 -15   1    2.01    0.75
   8   7   1    0.94    0.62
  12  -8  -1    4.93    0.86
  12  -8  -1    5.45    0.88
  -8  -4  -1    5.41    0.89
   8   4   1    5.34    0.95
   4 -12   1    5.81    1.01
   4 -12   1    3.37    0.79
   9  -8  -1    4.67    0.72
  -8  -1  -1    6.44    0.78
  -1   9  -1    4.79    0.68
  -1   9  -1    3.45    0.67
  -1   9  -1    5.72    0.76
   1  -9   1    3.74    0.76
   8   1   1    4.67    0.51
   1  -9   1    4.16    0.74
   8   1   1    5.79    0.82
  -9   8   1    4.86    0.74
   8   1   1    5.39    0.58
  -9   8   1    5.60    0.81
   1  -9   1    7.06    1.09
   2   6  -1    0.34    0.26
   6  -8  -1    0.08    0.30
   6  -8  -1    0.29    0.25
   6  -8  -1    0.11    0.23
   6  -8  -1    0.43    0.27
   2   6  -1    0.97    0.39
  -6   8   1    0.49    0.36
  -2  -6   1    0.41    0.25
   8  -2   1    0.47    0.22
  -2  -6   1    0.26    0.31
  -2  -6   1    0.33    0.34
   8  -2   1    0.31    0.24
  -6   8   1    0.28    0.36
  -8   5  -1   17.30    0.94
   5   3  -1   17.32    1.07
   5   3  -1   19.35    0.83
   3  -8  -1   19.21    1.13
  -8   5  -1   16.57    0.92
   5   3  -1   18.27    1.00
   3  -8  -1   19.27    1.17
   3  -8  -1   17.52    1.15
   3  -8  -1   19.88    1.15
  -5  -3   1   18.69    1.10
   8  -5   1   16.32    1.01
  -3   8   1   19.86    1.24
   8  -5   1   17.93    1.01
  -3   8   1   19.19    1.16
  -8   8  -1   34.56    1.72
   0  -8  -1   35.94    1.81
  -8   8  -1   35.04    1.71
   0  -8  -1   35.10    1.73
   8   0  -1   34.54    1.36
   0  -8  -1   34.67    1.74
  -8   0   1   36.07    1.49
   8  -8   1   34.45    1.38
   8  -8   1   33.21    1.70
   0   8   1   34.38    1.54
   8  -8   1   33.93    1.39
   0   8   1   35.33    1.46
   0   8   1   34.75    1.67
  11  -3  -1    0.29    0.28
  -3  -8  -1    0.52    0.40
  -8  11  -1   -0.38    0.39
  11  -3  -1    0.24    0.25
  -8  11  -1    0.17    0.43
   3   8   1    0.20    0.38
   8 -11   1    0.65    0.49
  14  -6  -1    0.81    0.46
  -6  -8  -1    0.86    0.58
   6   8   1    0.59    0.53
  -9  -8  -1    0.03    0.62
  17  -9  -1   -0.04    0.56
   9   8   1    0.42    0.67
  14  -9  -1    9.30    1.25
  -9  -5  -1    8.07    1.21
   5 -14   1    9.21    1.34
   9   5   1    9.03    1.30
  -2  11  -1    0.89    0.48
  11  -9  -1    0.44    0.41
  -9  -2  -1    0.56    0.41
   9   2   1    0.94    0.50
   2 -11   1    0.60    0.54
   2 -11   1    1.10    0.53
   9   2   1    0.51    0.30
   1   8  -1    4.84    0.78
   8  -9  -1    5.40    0.65
   8  -9  -1    7.04    0.71
   8  -9  -1    5.33    0.87
  -9   1  -1    4.62    0.61
  -1  -8   1    6.59    1.01
   9  -1   1    5.14    0.59
  -1  -8   1    6.14    0.94
  -8   9   1    6.69    0.96
  -8   9   1    5.54    0.87
  -1  -8   1    6.73    0.86
   9  -1   1    5.39    0.69
   9  -1   1    4.70    0.51
  -9   4  -1   60.18    2.00
   4   5  -1   57.24    2.14
   5  -9  -1   59.19    2.36
   4   5  -1   58.29    2.01
   4   5  -1   57.87    2.26
  -9   4  -1   59.00    1.96
   5  -9  -1   60.92    2.39
   5  -9  -1   57.11    2.35
   5  -9  -1   59.62    2.17
  -4  -5   1   59.98    2.34
  -4  -5   1   62.92    2.14
  -4  -5   1   60.84    2.02
   9  -4   1   61.21    2.21
  -5   9   1   62.16    2.54
  -5   9   1   59.90    2.46
   9  -4   1   57.11    2.03
   2  -9  -1    1.35    0.55
   7   2  -1    1.12    0.36
   7   2  -1    0.98    0.25
   7   2  -1    1.00    0.39
  -9   7  -1    1.48    0.46
   2  -9  -1    1.29    0.50
   2  -9  -1    0.72    0.40
  -9   7  -1    0.97    0.41
   2  -9  -1    0.92    0.43
   9  -7   1    1.46    0.46
  -2   9   1    1.01    0.41
  -7  -2   1    0.87    0.37
  -2   9   1    2.37    0.60
   9  -7   1    0.78    0.38
  10  -1  -1    0.72    0.29
  10  -1  -1    0.71    0.31
  -9  10  -1    0.36    0.44
  -1  -9  -1    1.38    0.55
   9 -10   1    0.49    0.47
   1   9   1    0.59    0.41
 -10   1   1    0.62    0.39
  13  -4  -1    5.98    0.79
  -4  -9  -1    4.44    0.96
   9 -13   1    4.30    1.04
   4   9   1    4.98    0.94
  -7  -9  -1    0.20    0.57
  16  -7  -1    0.13    0.48
   7   9   1    0.14    0.51
 -10  -6  -1    2.68    0.88
  16 -10  -1    1.99    0.79
  10   6   1    2.63    0.70
  10   6   1    2.33    0.90
   6 -16   1    2.89    0.91
  13 -10  -1    0.38    0.52
 -10  -3  -1    0.28    0.43
  -3  13  -1   -0.15    0.39
  10   3   1    0.47    0.46
   3 -13   1    0.29    0.50
  10   3   1    0.36    0.35
  10 -10  -1    0.12    0.40
   0  10  -1    0.39    0.45
 -10   0  -1    0.10    0.34
  10   0   1   -0.28    0.21
   0 -10   1   -0.10    0.38
   3   7  -1   21.00    1.37
   7 -10  -1   23.68    1.47
   7 -10  -1   22.55    1.22
  -7  10   1   24.04    1.53
  -7  10   1   22.24    1.52
  10  -3   1   22.69    1.20
  10  -3   1   22.68    1.14
  -3  -7   1   23.14    1.48
   4 -10  -1    0.01    0.35
   4 -10  -1    0.88    0.47
 -10   6  -1    0.45    0.31
   6   4  -1    0.63    0.39
   6   4  -1    0.66    0.34
   4 -10  -1    0.69    0.45
   4 -10  -1    0.43    0.40
  10  -6   1    0.68    0.38
  10  -6   1    0.39    0.31
  -6  -4   1    0.99    0.45
  -4  10   1    0.54    0.49
   9   1  -1    0.50    0.41
   1 -10  -1    0.99    0.51
   1 -10  -1    0.81    0.56
   9   1  -1    1.01    0.30
   9   1  -1    0.57    0.35
  -9  -1   1    1.15    0.49
  10  -9   1    0.18    0.39
  -1  10   1    1.06    0.52
  12  -2  -1   -0.04    0.26
  12  -2  -1    0.30    0.34
  -2 -10  -1    0.70    0.53
   2  10   1   -0.20    0.41
  10 -12   1    0.43    0.51
  -5 -10  -1    0.71    0.55
  15  -5  -1   -0.28    0.35
   5  10   1   -0.13    0.43
  -4  15  -1    0.10    0.54
  15 -11  -1    0.07    0.52
 -11  -4  -1    0.07    0.48
  11   4   1   -0.23    0.36
   4 -15   1   -0.04    0.59
  11   4   1   -0.03    0.47
  12 -11  -1    1.57    0.70
  -1  12  -1    0.35    0.49
   1 -12   1    1.08    0.55
  11   1   1    1.32    0.43
   9 -11  -1    0.82    0.58
   2   9  -1    1.19    0.52
  -9  11   1    0.36    0.50
  -2  -9   1    0.51    0.44
  11  -2   1    1.09    0.38
  11  -2   1    0.71    0.38
   6 -11  -1    2.71    0.72
   6 -11  -1    2.74    0.63
   5   6  -1    3.30    0.72
   6 -11  -1    3.12    0.82
  -5  -6   1    3.41    0.76
  11  -5   1    3.33    0.70
  11  -5   1    1.67    0.49
  -6  11   1    1.82    0.68
   3 -11  -1    0.31    0.47
   8   3  -1    0.68    0.40
   8   3  -1    0.60    0.34
   3 -11  -1   -0.45    0.34
   3 -11  -1    0.57    0.49
  11  -8   1   -0.12    0.34
  11  -8   1    0.61    0.38
  -8  -3   1    0.49    0.37
  11   0  -1    0.21    0.23
   0 -11  -1    0.36    0.42
  11 -11   1    0.20    0.49
  11 -11   1   -0.21    0.39
   0  11   1   -0.56    0.32
  14  -3  -1    0.73    0.44
  -3 -11  -1    1.03    0.64
  11 -14   1    1.73    0.74
   3  11   1    1.99    0.78
  -6 -11  -1   -0.38    0.68
  14 -12  -1    0.05    0.59
  -2  14  -1    0.16    0.56
  12   2   1    0.20    0.36
   2 -14   1    0.20    0.62
  11 -12  -1    2.18    0.84
   1  11  -1    1.09    0.60
  -1 -11   1    0.83    0.58
  12  -1   1    0.59    0.35
   8 -12  -1    4.77    0.94
   4   8  -1    6.28    1.03
   8 -12  -1    4.70    0.76
  12  -4   1    4.27    0.71
  12  -4   1    4.25    0.73
  -4  -8   1    4.15    0.93
  -8  12   1    5.86    1.09
   5 -12  -1    0.33    0.43
   7   5  -1    0.31    0.42
  -7  -5   1    0.30    0.41
  12  -7   1   -0.07    0.30
  12  -7   1   -0.22    0.32
   2 -12  -1   -0.10    0.45
  10   2  -1    0.05    0.25
  10   2  -1    0.30    0.42
  12 -10   1    0.88    0.55
  -2  12   1    0.08    0.41
 -10  -2   1   -0.14    0.34
  12 -10   1    0.32    0.46
  13  -1  -1    0.83    0.41
  -1 -12  -1   -0.02    0.57
   1  12   1    0.77    0.60
  12 -13   1    0.52    0.50
  12 -13   1    0.02    0.53
  -4 -12  -1    2.88    1.10
  16  -4  -1    1.02    0.52
   4  12   1    0.74    0.60
  -3  16  -1    1.11    0.82
  16 -13  -1    1.82    0.93
   3 -16   1    1.33    0.84
  13   3   1    2.28    0.69
   0  13  -1    5.73    1.23
  13 -13  -1    3.82    1.01
   0 -13   1    4.97    1.11
  13   0   1    4.75    0.82
  10 -13  -1   -0.04    0.50
   3  10  -1    1.00    0.59
  13  -3   1    0.20    0.34
  -3 -10   1    0.59    0.57
   7 -13  -1    7.62    1.05
   6   7  -1    7.43    1.16
  -6  -7   1    5.32    1.00
  13  -6   1    7.17    0.99
   4 -13  -1    4.51    0.95
   9   4  -1    4.60    0.96
  -9  -4   1    4.99    0.94
  13  -9   1    4.24    0.93
   1 -13  -1   -0.14    0.55
  12   1  -1    0.46    0.33
  13 -12   1    1.05    0.62
  -1  13   1    0.93    0.56
  15  -2  -1    1.86    0.56
  -2 -13  -1    1.22    0.82
  13 -15   1    1.56    0.93
   2  13   1    1.81    0.77
  -1  15  -1    0.87    0.68
  15 -14  -1   -0.64    0.59
  14   1   1    0.12    0.42
   1 -15   1    0.04    0.73
  12 -14  -1    0.86    0.66
   2  12  -1    0.50    0.61
  -2 -12   1    0.48    0.59
  14  -2   1   -0.08    0.35
   5   9  -1    9.37    1.31
  14  -5   1    9.04    1.11
  -5  -9   1    8.37    1.31
   6 -14  -1    1.17    0.64
   8   6  -1    1.09    0.61
  14  -8   1    0.75    0.52
  -8  -6   1    1.48    0.68
  11   3  -1    1.49    0.63
   3 -14  -1    0.72    0.70
  11   3  -1    1.46    0.47
 -11  -3   1    1.88    0.75
  -3  14   1    2.38    0.84
  14 -11   1    1.88    0.76
  14   0  -1   10.49    1.12
   0 -14  -1   10.69    1.63
   0  14   1   10.59    1.51
  14 -14   1    8.57    1.52
   1  14  -1    0.36    0.65
  14 -15  -1    0.05    0.65
  15  -1   1    0.05    0.41
  -1 -14   1   -1.20    0.52
   4  11  -1    0.07    0.50
  15  -4   1    0.46    0.42
  -4 -11   1   -0.24    0.51
   8 -15  -1    0.92    0.63
   7   8  -1    0.64    0.58
  15  -7   1    0.38    0.45
  -7  -8   1    0.74    0.66
   5 -15  -1    0.29    0.61
  10   5  -1   -0.39    0.44
  15 -10   1    0.20    0.53
 -10  -5   1   -0.08    0.55
   2 -15  -1    1.84    0.86
  13   2  -1    2.19    0.62
  15 -13   1    0.92    0.76
  -2  15   1    1.28    0.72
   3  13  -1    2.27    0.93
  16  -3   1    1.09    0.53
  -3 -13   1    2.17    0.93
   6  10  -1    2.35    0.83
  16  -6   1    2.99    0.80
  -6 -10   1    3.26    1.02
   9   7  -1    0.31    0.58
   7 -16  -1    1.02    0.66
  -9  -7   1    1.28    0.61
  16  -9   1    0.59    0.63
   4 -16  -1    1.15    0.77
  12   4  -1    2.40    0.67
  -4  16   1    1.49    0.80
 -12  -4   1    0.98    0.72
  16 -12   1    2.28    0.91
   8   9  -1    0.37    0.59
  17  -8   1    0.28    0.58
  -8  -9   1    0.69    0.59
   6 -17  -1    0.70    0.69
 -11  -6   1    0.00    0.61
  -1   1  -2   84.87    2.28
   0  -1  -2   82.55    2.06
  -1   1  -2   83.51    2.24
  -1   1  -2   83.58    2.26
   0  -1  -2   83.01    2.29
   1  -1   2   81.85    2.09
   1  -1   2   81.44    2.26
   1  -1   2   85.25    2.27
   0   1   2   81.98    2.29
   0   2  -2   11.27    0.43
   2  -2  -2   11.36    0.47
   0   2  -2   11.56    0.43
   2  -2  -2   10.81    0.40
  -2   0  -2   10.92    0.49
  -2   0  -2   11.22    0.46
  -2   2   2   10.50    0.44
   2   0   2   11.33    0.50
   0  -2   2   11.57    0.49
   0  -2   2   11.13    0.47
   2   0   2   11.63    0.41
   2   0   2   10.95    0.45
   2   0   2   10.76    0.40
   0  -2   2   11.22    0.47
  -2   3  -2  256.21    6.82
  -1  -2  -2  260.76    6.75
  -2   3  -2  253.68    6.83
  -1  -2  -2  261.44    6.82
   2  -3   2  260.62    6.82
   1   2   2  259.48    6.74
   1   2   2  267.78    6.70
   2  -3   2  256.37    6.83
  -3  -1  -2  115.54    3.05
   4  -3  -2  113.55    2.92
  -1   4  -2  109.46    3.25
  -3  -1  -2  114.22    3.02
  -1   4  -2  109.80    3.21
  -3  -1  -2  114.62    3.12
   1  -4   2  108.77    3.27
  -4   3   2  113.43    3.01
   1  -4   2  111.36    3.02
   1  -4   2  113.31    3.29
   1  -3  -2  262.62    6.17
   1  -3  -2  249.76    6.74
   1  -3  -2  256.39    6.72
  -3   2  -2  255.55    6.65
  -3   2  -2  253.91    6.61
  -1   3   2  252.07    6.75
   3  -2   2  249.22    6.58
   3  -2   2  260.50    6.57
  -1   3   2  258.47    6.72
   3  -2   2  257.89    6.14
   3  -2   2  251.08    6.65
  -3   5  -2   34.38    1.40
  -2  -3  -2   32.36    1.23
  -2  -3  -2   33.27    1.33
  -3   5  -2   36.59    1.41
  -2  -3  -2   33.08    1.31
   3  -5   2   35.31    1.37
   3  -5   2   35.22    1.34
   3  -5   2   36.09    1.40
   2   3   2   29.98    1.22
  -4  -2  -2    0.24    0.24
  -4  -2  -2    0.06    0.16
  -4  -2  -2    0.01    0.14
  -2   6  -2   -0.04    0.18
  -2   6  -2    0.18    0.19
   6  -4  -2    0.38    0.20
  -2   6  -2    0.09    0.25
  -4  -2  -2    0.09    0.13
   2  -6   2   -0.10    0.19
   4   2   2    0.21    0.20
   2  -6   2    0.25    0.24
  -6   4   2    0.05    0.14
   4   2   2    0.05    0.11
   2  -6   2    0.33    0.26
   2  -6   2    0.21    0.22
  -6   4   2   -0.03    0.11
   3  -4  -2  114.21    3.06
   3  -4  -2  113.46    3.19
  -4   1  -2  109.01    3.01
   3  -4  -2  112.49    3.19
  -4   1  -2  111.30    3.10
  -1  -3   2  115.34    3.05
  -3   4   2  110.44    3.24
   4  -1   2  110.98    2.88
  -1  -3   2  114.73    3.08
  -3   4   2  110.20    3.25
   4  -1   2  113.36    3.17
   0  -4  -2  954.13   24.46
   0  -4  -2 1000.00   24.59
  -4   4  -2  981.67   24.51
   0  -4  -2  972.98   22.31
  -4   4  -2  964.66   24.45
   0   4   2  949.35   24.49
   4  -4   2  962.47   24.40
   4  -4   2  972.05   24.37
   4  -4   2  963.35   22.42
   0   4   2  949.52   24.40
  -3  -4  -2   35.42    1.39
  -4   7  -2   35.54    1.63
   7  -3  -2   38.31    1.21
  -3  -4  -2   34.83    1.52
  -4   7  -2   36.27    1.62
  -3  -4  -2   34.74    1.48
   3   4   2   32.84    1.45
   4  -7   2   35.15    1.56
   4  -7   2   36.30    1.59
   4  -7   2   35.13    1.38
   4  -7   2   36.85    1.58
  -3   8  -2   21.70    1.25
   8  -5  -2   22.97    1.10
  -5  -3  -2   20.83    0.97
  -5  -3  -2   23.42    1.24
  -3   8  -2   23.35    1.35
  -5  -3  -2   23.76    1.06
   3  -8   2   23.22    1.28
  -8   5   2   22.03    0.97
   5   3   2   24.08    1.25
  -8   5   2   22.31    0.97
   3  -8   2   21.37    1.20
   3  -8   2   23.54    1.32
   3  -8   2   22.97    1.31
  -5   0  -2    1.90    0.30
   5  -5  -2    1.69    0.34
   0   5  -2    1.72    0.30
   0   5  -2    1.66    0.33
   0   5  -2    1.65    0.31
   5  -5  -2    1.96    0.28
  -5   5   2    1.86    0.38
   5   0   2    1.46    0.26
   0  -5   2    1.29    0.37
   5   0   2    1.69    0.37
   0  -5   2    1.74    0.39
   5   0   2    1.79    0.33
  -5   5   2    1.64    0.34
   5   0   2    1.94    0.31
   0  -5   2    1.52    0.35
   3   2  -2   34.47    1.28
   2  -5  -2   30.64    1.35
   2  -5  -2   32.60    1.34
   2  -5  -2   31.58    1.28
  -5   3  -2   34.90    1.23
  -5   3  -2   35.26    1.20
   5  -3   2   35.02    1.24
   5  -3   2   35.91    1.32
  -2   5   2   31.51    1.34
  -2   5   2   31.14    1.39
  -5   6  -2    6.91    0.67
  -1  -5  -2    7.79    0.64
  -1  -5  -2    8.53    0.87
  -5   6  -2    6.67    0.67
  -1  -5  -2    9.01    0.94
   5  -6   2    8.86    0.91
   5  -6   2    6.97    0.60
   1   5   2    8.82    0.55
   1   5   2    6.46    0.55
   1   5   2    7.70    0.64
   5  -6   2    7.07    0.62
  -4  -5  -2   60.22    2.40
  -4  -5  -2   58.98    2.35
  -4  -5  -2   64.77    2.27
  -5   9  -2   66.15    2.58
  -5   9  -2   63.45    2.60
   9  -4  -2   65.92    2.07
   5  -9   2   63.98    2.53
   5  -9   2   63.22    2.21
   5  -9   2   63.26    2.47
   5  -9   2   61.38    2.47
   4   5   2   63.76    2.38
  -4  10  -2    3.56    0.76
  -6  -4  -2    2.44    0.61
  -6  -4  -2    4.85    0.63
  10  -6  -2    4.50    0.68
   4 -10   2    3.23    0.66
   6   4   2    3.27    0.64
   4 -10   2    3.19    0.67
   4 -10   2    4.27    0.80
 -10   6   2    5.11    0.63
   4 -10   2    4.52    0.80
  -1   7  -2   28.94    1.27
   7  -6  -2   28.71    1.33
  -1   7  -2   32.25    1.34
  -6  -1  -2   29.55    1.27
  -1   7  -2   31.04    1.37
   6   1   2   30.24    1.41
   1  -7   2   30.45    1.43
   1  -7   2   30.07    1.47
   1  -7   2   30.90    1.45
   1  -7   2   27.54    1.29
  -7   6   2   29.59    1.30
   6   1   2   28.72    1.12
  -7   6   2   27.90    1.29
   6   1   2   29.78    1.08
   2   4  -2    0.17    0.19
   4  -6  -2    0.10    0.22
   2   4  -2   -0.11    0.19
   4  -6  -2    0.15    0.20
   2   4  -2   -0.04    0.10
   4  -6  -2    0.04    0.18
  -6   2  -2    0.12    0.14
   6  -2   2    0.06    0.17
  -2  -4   2    0.06    0.17
   6  -2   2    0.32    0.19
  -4   6   2   -0.20    0.20
  -4   6   2    0.32    0.25
  -2  -4   2    0.28    0.17
  -2  -4   2    0.42    0.25
   1  -6  -2    8.50    0.76
  -6   5  -2    6.96    0.61
  -6   5  -2    7.23    0.63
   1  -6  -2    7.97    0.68
   1  -6  -2    8.17    0.82
   5   1  -2    7.43    0.56
   1  -6  -2    8.55    0.69
   5   1  -2    7.18    0.72
   6  -5   2    7.61    0.82
   6  -5   2    6.92    0.49
  -5  -1   2    7.45    0.71
   6  -5   2    6.47    0.63
  -1   6   2    7.79    0.72
   6  -5   2    7.31    0.49
  -1   6   2    8.16    0.66
  -6   8  -2  113.37    3.83
  -6   8  -2  115.14    3.83
  -2  -6  -2  111.97    3.57
  -2  -6  -2  113.18    3.63
  -2  -6  -2  110.88    3.75
   2   6   2  112.00    3.43
   6  -8   2  116.48    3.70
   6  -8   2  119.33    3.73
   6  -8   2  117.13    3.66
  11  -5  -2   25.33    1.26
  11  -5  -2   24.06    1.27
  -6  11  -2   26.16    1.73
  -5  -6  -2   27.37    1.63
   6 -11   2   25.17    1.46
   6 -11   2   28.01    1.66
   6 -11   2   25.52    1.63
   5   6   2   28.36    1.62
  12  -7  -2   10.40    1.18
  -7  -5  -2    8.12    1.08
  12  -7  -2   10.02    1.08
   5 -12   2    6.64    0.98
   5 -12   2    8.35    1.27
   7   5   2    6.55    1.01
   9  -7  -2   17.09    1.12
  -7  -2  -2   19.56    0.87
  -2   9  -2   21.17    1.18
  -7  -2  -2   18.11    1.12
   2  -9   2   18.23    1.25
  -9   7   2   17.93    1.09
   2  -9   2   19.45    1.29
  -9   7   2   19.24    1.10
   7   2   2   18.82    1.24
   2  -9   2   18.88    1.31
   7   2   2   18.69    0.96
   1   6  -2   30.30    1.39
   1   6  -2   28.45    1.32
   6  -7  -2   27.99    1.39
   6  -7  -2   27.96    1.19
  -6   7   2   28.32    1.41
  -1  -6   2   29.33    1.36
   7  -1   2   28.17    1.23
  -1  -6   2   30.41    1.45
  -1  -6   2   30.07    1.33
   7  -1   2   28.77    1.13
  -6   7   2   29.19    1.41
   4   3  -2   35.35    1.17
   3  -7  -2   38.52    1.64
  -7   4  -2   36.77    1.37
   3  -7  -2   36.26    1.51
   4   3  -2   31.37    1.44
  -7   4  -2   36.08    1.41
   4   3  -2   34.57    1.41
   3  -7  -2   37.30    1.61
   3  -7  -2   37.74    1.57
  -4  -3   2   33.84    1.49
  -3   7   2   38.24    1.72
  -3   7   2   39.14    1.65
   7  -4   2   36.67    1.45
   7  -4   2   36.06    1.50
   0  -7  -2    3.44    0.64
  -7   7  -2    2.56    0.51
   0  -7  -2    2.66    0.52
   0  -7  -2    2.74    0.46
   0  -7  -2    2.56    0.52
   7   0  -2    2.75    0.41
   7   0  -2    2.80    0.51
  -7   7  -2    1.89    0.43
   7  -7   2    1.73    0.37
   0   7   2    3.24    0.54
   7  -7   2    1.18    0.42
  -7   0   2    3.52    0.51
   0   7   2    2.55    0.44
   7  -7   2    2.13    0.37
  10  -3  -2    9.06    0.65
  -7  10  -2   12.47    1.35
  -3  -7  -2    9.54    1.20
  -7  10  -2   12.26    1.39
  10  -3  -2    8.65    0.68
   7 -10   2   10.54    0.96
   7 -10   2   10.99    0.99
   3   7   2    9.89    1.15
   7 -10   2    9.15    1.13
  13  -6  -2   -0.03    0.34
  -6  -7  -2    0.15    0.44
   6   7   2    0.20    0.41
   7 -13   2    0.31    0.46
  14  -8  -2    0.69    0.48
  -8  -6  -2   -0.54    0.41
   6 -14   2   -0.03    0.49
   8   6   2   -0.25    0.38
  11  -8  -2   23.62    1.46
  -8  -3  -2   26.86    1.52
   3 -11   2   26.29    1.67
   3 -11   2   26.65    1.71
   3 -11   2   25.84    1.60
   8   3   2   21.92    1.53
   0   8  -2  148.13    4.51
  -8   0  -2  158.47    4.22
   0   8  -2  151.28    4.43
   8  -8  -2  158.41    4.64
   8   0   2  159.02    4.18
  -8   8   2  162.16    4.88
   8   0   2  152.58    4.07
   0  -8   2  160.19    4.69
  -8   8   2  153.06    4.83
   0  -8   2  154.49    4.90
   8   0   2  155.65    4.59
   0  -8   2  156.33    4.84
   3   5  -2   20.89    1.19
   5  -8  -2   22.74    1.21
   3   5  -2   21.26    1.15
   5  -8  -2   22.90    1.22
  -8   3  -2   20.60    0.93
   5  -8  -2   24.27    1.31
   5  -8  -2   23.05    1.15
  -8   3  -2   20.91    0.94
  -5   8   2   22.86    1.30
  -3  -5   2   22.78    1.06
   8  -3   2   21.22    1.11
  -5   8   2   22.27    1.34
  -3  -5   2   22.68    1.30
   8  -3   2   20.72    1.03
  -3  -5   2   22.45    1.00
   6   2  -2  118.55    3.35
   2  -8  -2  117.77    3.84
   2  -8  -2  115.08    3.59
   2  -8  -2  114.26    3.57
  -8   6  -2  114.94    3.67
   2  -8  -2  117.24    3.90
  -8   6  -2  119.09    3.67
   6   2  -2  110.97    3.48
  -6  -2   2  114.33    3.45
   8  -6   2  115.15    3.77
   8  -6   2  113.05    3.57
  -2   8   2  114.53    3.87
  -2   8   2  122.06    3.80
  -8   9  -2   48.04    2.20
  -8   9  -2   45.57    2.18
  -1  -8  -2   48.61    2.17
  -1  -8  -2   50.82    2.15
   9  -1  -2   50.56    1.72
  -1  -8  -2   50.13    2.27
   8  -9   2   45.25    2.14
   8  -9   2   44.63    1.92
  -9   1   2   49.12    1.80
   1   8   2   47.92    2.06
  12  -4  -2   71.95    2.41
  12  -4  -2   72.23    2.56
  -8  12  -2   69.89    3.19
  -4  -8  -2   70.31    3.01
   8 -12   2   75.06    3.10
   4   8   2   73.12    2.97
  -7  -8  -2    1.46    0.75
  15  -7  -2    1.20    0.54
   7   8   2    1.30    0.62
  16  -9  -2    0.41    0.53
  -9  -7  -2    0.85    0.73
   9   7   2    1.72    0.73
   7 -16   2    0.88    0.69
  -9  -4  -2   65.87    2.81
  13  -9  -2   66.76    2.80
   9   4   2   69.49    3.04
   9   4   2   71.03    2.56
   4 -13   2   65.67    2.93
  10  -9  -2   12.48    1.11
  -9  -1  -2   11.11    0.94
  -1  10  -2   15.02    1.49
   1 -10   2   13.50    1.54
   9   1   2   10.89    0.80
   1 -10   2   14.54    1.52
   7  -9  -2   19.69    1.08
   7  -9  -2   18.09    1.06
   2   7  -2   18.89    1.22
   7  -9  -2   20.51    1.32
   7  -9  -2   19.03    1.08
   2   7  -2   20.46    1.21
  -2  -7   2   19.06    1.30
  -7   9   2   18.05    1.26
  -2  -7   2   19.45    1.24
  -7   9   2   18.70    1.31
  -2  -7   2   18.77    1.12
   9  -2   2   19.60    1.01
   9  -2   2   18.01    1.06
  -9   5  -2   63.65    2.28
   5   4  -2   61.61    2.00
   5   4  -2   64.59    2.42
   4  -9  -2   66.80    2.58
  -9   5  -2   62.45    2.22
   4  -9  -2   67.68    2.48
   4  -9  -2   68.74    2.42
   4  -9  -2   69.15    2.61
   5   4  -2   63.79    2.27
  -4   9   2   65.62    2.70
  -5  -4   2   62.29    2.42
  -4   9   2   65.26    2.58
   9  -5   2   67.31    2.36
   9  -5   2   61.21    2.40
   8   1  -2   50.06    1.83
   1  -9  -2   49.55    2.27
  -9   8  -2   47.03    2.15
   1  -9  -2   50.94    2.21
  -9   8  -2   48.35    2.12
   1  -9  -2   48.78    2.21
   8   1  -2   47.92    2.08
  -8  -1   2   47.49    1.92
   9  -8   2   47.88    2.16
   9  -8   2   44.94    2.14
  -1   9   2   52.86    2.12
  -9  11  -2   12.76    1.26
  -2  -9  -2   11.85    1.40
  11  -2  -2   10.83    0.71
   9 -11   2    8.91    1.17
   2   9   2   11.90    1.33
  -5  -9  -2    2.57    0.80
  14  -5  -2    2.12    0.59
   5   9   2    3.39    0.90
  17  -8  -2   22.30    1.75
  -8  -9  -2   21.36    2.32
   8   9   2   20.57    2.27
 -10  -5  -2    9.56    1.38
  15 -10  -2    6.66    1.13
  10   5   2    8.73    1.46
   5 -15   2    4.79    1.09
  10   5   2    7.69    1.09
  -2  12  -2   11.67    1.47
 -10  -2  -2   11.69    1.21
  12 -10  -2    9.95    1.25
   2 -12   2    7.97    1.17
  10   2   2   10.57    0.89
   1   9  -2   13.60    1.42
   9 -10  -2   13.85    1.44
  10  -1   2   11.57    0.89
  -9  10   2   12.36    1.17
  10  -1   2   12.90    0.87
  -1  -9   2   12.92    1.44
   6 -10  -2    3.23    0.72
 -10   4  -2    6.00    0.69
   4   6  -2    3.30    0.65
   4   6  -2    4.30    0.72
   6 -10  -2    5.32    0.75
   6 -10  -2    3.74    0.71
  -6  10   2    4.28    0.88
  -6  10   2    4.61    0.82
  10  -4   2    3.84    0.67
  -4  -6   2    4.62    0.82
  10  -4   2    3.25    0.59
  -4  -6   2    4.00    0.60
   7   3  -2    9.23    1.06
   3 -10  -2   12.48    1.46
   3 -10  -2   12.87    1.38
   3 -10  -2    9.69    1.17
   7   3  -2    9.57    0.64
   7   3  -2   10.54    1.04
  -3  10   2   11.91    1.38
  -7  -3   2    9.79    1.10
  10  -7   2   11.99    1.27
  10  -7   2   10.19    0.94
   0 -10  -2    1.82    0.62
 -10  10  -2    2.29    0.79
  10   0  -2    1.48    0.43
   0 -10  -2    3.47    0.87
  10 -10   2    1.58    0.61
  10 -10   2    1.21    0.52
 -10   0   2    1.40    0.48
   0  10   2    2.01    0.64
  -3 -10  -2   -0.22    0.40
  13  -3  -2    0.27    0.32
  10 -13   2    0.28    0.52
  10 -13   2   -0.16    0.38
   3  10   2   -0.57    0.37
  -6 -10  -2    9.10    1.54
  16  -6  -2    9.11    1.16
   6  10   2    8.14    1.36
 -11  -3  -2    5.88    1.04
  -3  14  -2    8.40    1.41
  14 -11  -2    9.08    1.39
  11   3   2    7.30    0.97
   3 -14   2    5.32    1.09
  11 -11  -2   -0.02    0.48
   0  11  -2    1.20    0.56
  11   0   2    0.97    0.41
   0 -11   2    1.59    0.68
   8 -11  -2   22.32    1.32
   3   8  -2   24.34    1.57
   8 -11  -2   25.71    1.65
  -8  11   2   27.44    1.71
  11  -3   2   24.16    1.29
  -3  -8   2   24.44    1.65
  11  -3   2   24.71    1.36
  -8  11   2   22.67    1.71
   5 -11  -2   24.26    1.56
   6   5  -2   28.08    1.48
   5 -11  -2   26.00    1.61
   6   5  -2   23.78    1.51
   5 -11  -2   25.11    1.50
  11  -6   2   22.69    1.41
  -5  11   2   27.36    1.75
  -6  -5   2   26.13    1.60
  11  -6   2   24.50    1.41
   2 -11  -2    7.55    1.12
   9   2  -2   12.10    0.97
   9   2  -2   14.24    1.19
   2 -11  -2   12.93    1.50
  -2  11   2   12.31    1.30
  -9  -2   2   13.14    1.11
  11  -9   2   14.61    1.26
  11  -9   2    9.61    1.25
  12  -1  -2    0.94    0.34
  -1 -11  -2    0.11    0.49
  11 -12   2    0.93    0.62
   1  11   2    0.66    0.54
  11 -12   2    0.55    0.54
  15  -4  -2    2.25    0.58
  -4 -11  -2    1.07    0.82
   4  11   2    1.99    0.75
  -4  16  -2   17.74    2.11
  16 -12  -2   19.86    2.04
  12   4   2   23.39    1.54
   4 -16   2   17.69    2.01
  -1  13  -2   14.57    1.75
  13 -12  -2   15.59    1.85
   1 -13   2   10.70    1.51
  12   1   2   11.82    1.03
   2  10  -2   12.26    1.45
  10 -12  -2    9.96    1.28
  12  -2   2    9.47    1.04
  -2 -10   2    9.66    1.40
   7 -12  -2    8.63    1.22
   5   7  -2    7.58    1.07
   5   7  -2    7.53    1.01
   7 -12  -2    8.25    1.01
  12  -5   2    8.67    1.08
  12  -5   2    8.13    0.97
  -7  12   2    9.48    1.30
  -5  -7   2    9.79    1.22
   4 -12  -2   69.65    2.93
   8   4  -2   69.56    2.93
   8   4  -2   69.79    2.69
   4 -12  -2   78.59    3.20
  -8  -4   2   75.30    2.96
  12  -8   2   70.59    2.97
  12  -8   2   77.47    3.00
  11   1  -2    1.10    0.33
   1 -12  -2    1.03    0.60
  11   1  -2    0.66    0.43
 -11  -1   2    1.08    0.55
  -1  12   2    0.75    0.53
  12 -11   2    0.11    0.52
  12 -11   2    0.12    0.47
  -2 -12  -2    6.01    1.23
  14  -2  -2    6.98    0.85
  12 -14   2    7.47    1.40
   2  12   2    6.85    1.20
  -2  15  -2    1.22    0.77
  15 -13  -2    1.50    0.79
   2 -15   2   -0.85    0.59
  13   2   2    2.51    0.72
   1  12  -2   14.69    1.72
  12 -13  -2   11.57    1.48
  13  -1   2   11.43    1.03
  -1 -12   2   13.15    1.66
   4   9  -2   65.58    2.97
   9 -13  -2   68.13    3.08
  -4  -9   2   70.14    3.17
  13  -4   2   65.57    2.57
   7   6  -2   -0.12    0.41
   6 -13  -2   -0.33    0.39
  13  -7   2    0.13    0.38
  -7  -6   2   -0.11    0.34
  10   3  -2   -0.44    0.36
   3 -13  -2   -0.57    0.44
  10   3  -2   -0.05    0.36
  13 -10   2   -0.49    0.40
 -10  -3   2   -0.28    0.38
  -3  13   2    0.07    0.44
  13   0  -2   59.37    2.20
   0 -13  -2   66.11    3.27
   0  13   2   62.43    3.00
  13 -13   2   60.88    3.14
  16  -3  -2    2.50    0.63
  -3 -13  -2    1.67    0.92
   3  13   2    1.91    0.85
   0  14  -2    0.27    0.57
  14 -14  -2   -0.08    0.61
  14   0   2    0.25    0.46
   0 -14   2    0.21    0.70
  11 -14  -2    7.75    1.39
   3  11  -2    6.23    1.14
  -3 -11   2    7.37    1.36
  14  -3   2    7.79    1.03
   8 -14  -2    0.21    0.46
   6   8  -2   -0.53    0.39
  14  -6   2    0.00    0.40
  -6  -8   2    0.08    0.47
   9   5  -2    2.20    0.80
   5 -14  -2    2.20    0.81
  14  -9   2    2.69    0.79
  -9  -5   2    2.31    0.74
  12   2  -2    7.11    0.85
   2 -14  -2    4.20    1.04
  -2  14   2    7.42    1.26
  14 -12   2    6.65    1.28
  -1 -14  -2    3.73    1.10
  15  -1  -2    2.80    0.64
   1  14   2    3.03    0.93
  14 -15   2    2.65    0.94
   2  13  -2    1.46    0.73
  13 -15  -2    0.15    0.70
  15  -2   2    1.20    0.58
  -2 -13   2    1.89    0.90
   5  10  -2    6.74    1.24
  15  -5   2    8.22    1.10
  -5 -10   2    7.91    1.37
   8   7  -2    1.37    0.66
   7 -15  -2    1.25    0.69
  15  -8   2    1.97    0.69
  -8  -7   2    2.03    0.80
   4 -15  -2    2.69    0.87
  11   4  -2    3.12    0.93
 -11  -4   2    3.23    0.93
  15 -11   2    2.22    0.80
  -4  15   2    2.26    0.82
   1 -15  -2    3.42    1.06
  14   1  -2    3.77    0.76
  15 -14   2    2.75    1.05
  -1  15   2    2.85    0.94
   4  12  -2   21.95    2.32
  -4 -12   2   21.73    2.37
  16  -4   2   20.18    1.53
   7   9  -2    1.22    0.70
  -7  -9   2    1.25    0.80
  16  -7   2    1.86    0.73
  10   6  -2    8.79    1.39
   6 -16  -2   11.32    1.57
 -10  -6   2    9.17    1.52
  16 -10   2    9.81    1.51
   3 -16  -2    3.39    1.07
  13   3  -2    3.28    0.69
  16 -13   2    3.08    0.92
  -3  16   2    3.31    0.98
   9   8  -2   15.86    2.01
  17  -9   2   19.13    2.01
  -9  -8   2   21.82    2.28
   0   0  -3  140.90    3.71
   0   0  -3  144.97    3.38
   0   0   3  141.24    3.73
   0   0   3  140.47    3.68
  -1   2  -3   39.75    1.29
  -1   2  -3   43.18    1.28
  -1   2  -3   38.80    1.27
  -1  -1  -3   38.13    1.15
  -1  -1  -3   39.32    1.31
   1   1   3   38.66    1.24
   1  -2   3   39.26    1.20
   1   1   3   39.82    1.29
   1  -2   3   40.95    1.27
   1   1   3   39.43    1.17
   1  -2   3   38.47    1.28
  -2   1  -3   40.85    1.31
  -2   1  -3   41.92    1.27
  -2   1  -3   39.24    1.31
   1  -2  -3   40.98    1.30
   1   1  -3   39.55    1.02
   1  -2  -3   41.22    1.22
   1   1  -3   40.31    1.16
   2  -1   3   41.21    1.33
   2  -1   3   42.49    1.24
  -1   2   3   42.03    1.33
   2  -1   3   40.79    1.26
   2  -1   3   38.65    1.28
  -2   4  -3    1.60    0.30
  -2   4  -3    1.45    0.30
  -2  -2  -3    1.96    0.30
  -2  -2  -3    2.09    0.34
   2   2   3    2.71    0.27
   2  -4   3    1.14    0.28
   2  -4   3    1.52    0.32
   2   2   3    2.35    0.29
   2  -4   3    1.48    0.29
   2  -4   3    1.70    0.30
  -3   0  -3   88.34    2.57
   3  -3  -3   89.24    2.41
  -3   0  -3   88.70    2.54
   0  -3   3   92.41    2.56
  -3   3   3   86.22    2.51
   3   0   3   90.13    2.61
   0  -3   3   89.94    2.58
   0  -3   3   91.17    2.56
   3   0   3   87.61    2.37
  -3   3  -3   32.07    1.15
   0  -3  -3   28.47    1.06
  -3   3  -3   31.32    1.18
   0  -3  -3   31.37    1.23
   0  -3  -3   28.56    1.13
   0   3   3   27.99    1.11
   0   3   3   30.31    1.20
   3  -3   3   28.23    1.13
   3  -3   3   30.74    1.18
   3  -3   3   30.63    1.12
   3  -3   3   31.23    1.11
  -3   6  -3  124.94    3.76
  -3   6  -3  116.64    3.70
  -3  -3  -3  123.77    3.62
  -3  -3  -3  123.54    3.41
  -3  -3  -3  118.77    3.50
   6  -3  -3  124.69    3.11
   3  -6   3  118.13    3.70
   3  -6   3  117.32    3.49
   3  -6   3  113.53    3.70
   3   3   3  127.50    3.39
  -4  -1  -3  100.30    2.83
  -4  -1  -3   97.35    2.86
  -1   5  -3   99.43    2.91
  -4  -1  -3   95.79    2.77
  -1   5  -3   97.39    2.70
   5  -4  -3   96.76    2.70
   4   1   3  100.46    2.78
   1  -5   3   97.96    2.80
  -5   4   3   96.13    2.76
   1  -5   3   97.97    3.03
   1  -5   3   98.39    3.03
   4   1   3   96.22    2.65
  -5   4   3   94.03    2.76
   2  -4  -3    2.12    0.32
   2  -4  -3    2.11    0.36
  -4   2  -3    1.27    0.26
  -4   2  -3    1.24    0.23
   2  -4  -3    2.00    0.33
  -4   2  -3    1.24    0.26
  -2   4   3    1.78    0.31
  -2   4   3    2.80    0.42
   4  -2   3    1.68    0.28
   4  -2   3    1.21    0.20
   4  -2   3    1.55    0.26
  -1  -4  -3   15.92    0.85
  -4   5  -3   14.01    0.88
  -4   5  -3   16.05    0.90
  -1  -4  -3   16.01    0.89
  -1  -4  -3   18.32    0.99
   4  -5   3   16.11    0.86
   4  -5   3   14.67    0.86
   4  -5   3   14.53    0.90
   1   4   3   17.39    0.85
   1   4   3   15.70    0.78
   1   4   3   14.93    0.80
   4  -5   3   15.00    0.90
  -4  -4  -3   20.90    1.19
  -4  -4  -3   19.71    1.14
   8  -4  -3   22.41    0.97
  -4   8  -3   22.41    1.28
  -4  -4  -3   20.29    1.05
  -4   8  -3   23.68    1.33
   4  -8   3   22.52    1.28
   4   4   3   18.91    1.14
   4  -8   3   21.07    1.10
   4  -8   3   20.72    1.24
   4  -8   3   21.79    1.26
   7  -5  -3    1.79    0.36
  -2   7  -3    2.17    0.45
  -5  -2  -3    2.14    0.42
  -5  -2  -3    2.25    0.37
  -5  -2  -3    2.40    0.35
  -2   7  -3    0.82    0.31
  -7   5   3    1.68    0.31
   2  -7   3    1.21    0.37
   2  -7   3    1.00    0.33
   2  -7   3    0.99    0.35
   5   2   3    3.04    0.54
   2  -7   3    2.03    0.44
  -7   5   3    2.04    0.32
   4  -5  -3   95.38    2.84
   1   4  -3  100.28    2.78
   1   4  -3   95.90    2.77
  -5   1  -3  100.30    2.82
   4  -5  -3   96.08    2.88
  -5   1  -3  100.20    2.88
  -1  -4   3   97.72    2.86
  -1  -4   3  100.42    2.85
  -4   5   3   98.56    3.02
  -1  -4   3   92.86    2.84
   5  -1   3   98.47    2.70
  -4   5   3   99.35    3.04
   5  -1   3  102.76    2.98
   4   1  -3   16.48    0.84
   1  -5  -3   16.72    0.92
  -5   4  -3   15.09    0.86
   1  -5  -3   15.69    0.89
   1  -5  -3   15.15    0.85
  -5   4  -3   15.52    0.82
   1  -5  -3   19.11    1.01
   5  -4   3   15.60    0.89
   5  -4   3   15.93    0.87
   5  -4   3   15.59    0.75
  -1   5   3   19.06    1.01
  -1   5   3   16.14    0.89
   5  -4   3   15.27    0.76
  -2  -5  -3   29.50    1.38
  -2  -5  -3   31.09    1.52
  -5   7  -3   31.58    1.53
  -5   7  -3   33.29    1.54
  -2  -5  -3   31.90    1.48
   5  -7   3   34.17    1.53
   5  -7   3   32.52    1.45
   2   5   3   31.04    1.38
   5  -7   3   32.10    1.50
  -5  -5  -3   10.54    1.15
  -5  10  -3   11.84    1.15
  10  -5  -3    9.76    0.76
  -5  -5  -3   10.90    0.84
   5 -10   3   10.94    1.04
   5 -10   3   11.58    1.02
   5 -10   3   11.57    1.25
   5 -10   3    9.52    1.00
   5   5   3   10.16    1.12
   9  -6  -3   11.31    0.86
  -3   9  -3   11.45    0.94
  -3   9  -3   10.50    1.00
  -6  -3  -3   11.25    0.90
  -6  -3  -3   10.96    0.74
  -6  -3  -3   11.47    0.82
  -9   6   3   10.37    0.73
   6   3   3   12.18    1.00
   3  -9   3   11.36    1.00
  -9   6   3   10.53    0.72
   3  -9   3    9.72    1.02
   3  -9   3   10.86    0.92
   3  -9   3   12.11    1.05
   6  -6  -3    7.69    0.67
  -6   0  -3    7.51    0.50
  -6   0  -3    7.41    0.48
   0   6  -3    7.47    0.74
   6   0   3    7.91    0.56
   6   0   3    7.03    0.59
   6   0   3    7.02    0.49
   0  -6   3    7.70    0.85
   0  -6   3    7.77    0.69
   0  -6   3    6.11    0.72
  -6   6   3    6.93    0.60
  -6   6   3    8.01    0.66
   3  -6  -3  122.55    3.70
   3  -6  -3  124.04    3.40
   3   3  -3  118.69    3.08
   3  -6  -3  125.46    3.74
   3   3  -3  119.33    3.33
  -6   3  -3  120.65    3.48
  -6   3  -3  120.94    3.54
   3  -6  -3  125.08    3.52
   3   3  -3  121.67    3.36
  -3   6   3  127.43    3.83
   6  -3   3  118.43    3.63
  -3  -3   3  115.11    3.42
  -3   6   3  120.26    3.73
   6  -3   3  125.05    3.40
  -6   6  -3    4.30    0.65
   0  -6  -3    5.24    0.70
   0  -6  -3    4.72    0.58
   0  -6  -3    5.77    0.77
   6   0  -3    5.31    0.62
   6   0  -3    4.22    0.49
  -6   6  -3    4.43    0.59
   0  -6  -3    3.83    0.56
   6  -6   3    3.19    0.54
   0   6   3    4.48    0.58
   6  -6   3    3.74    0.56
   0   6   3    4.66    0.64
   0   6   3    5.78    0.55
   6  -6   3    3.84    0.55
   6  -6   3    4.94    0.48
  -3  -6  -3   13.81    1.08
  -3  -6  -3   14.15    0.99
  -3  -6  -3   14.55    1.14
  -6   9  -3   14.05    1.12
  -6   9  -3   15.58    1.21
   6  -9   3   16.65    1.21
   6  -9   3   15.38    1.07
   3   6   3   13.57    1.05
   6  -9   3   14.73    0.91
   6  -9   3   14.67    1.10
  12  -6  -3   12.19    0.96
  12  -6  -3   10.54    0.89
  -6  -6  -3   10.68    1.25
   6   6   3   10.93    1.29
   6 -12   3    6.97    0.94
  -7  -4  -3    9.50    1.12
  11  -7  -3   10.71    0.94
   4 -11   3    8.69    1.07
   4 -11   3   10.40    1.29
   4 -11   3    8.68    1.16
   7   4   3    8.71    1.12
  -1   8  -3    1.96    0.39
   8  -7  -3    1.77    0.44
  -7  -1  -3    2.15    0.36
  -1   8  -3    1.59    0.40
  -1   8  -3    2.31    0.46
  -7  -1  -3    1.70    0.35
  -7  -1  -3    2.39    0.43
   1  -8   3    2.11    0.51
  -8   7   3    1.85    0.43
   7   1   3    2.38    0.53
   7   1   3    1.85    0.37
  -8   7   3    2.08    0.45
   7   1   3    2.11    0.40
   1  -8   3    2.88    0.64
   1  -8   3    1.74    0.45
   2   5  -3    2.41    0.46
   5  -7  -3    2.39    0.44
   2   5  -3    1.68    0.38
  -7   2  -3    1.24    0.28
   5  -7  -3    1.20    0.33
   5  -7  -3    1.38    0.41
   2   5  -3    2.36    0.41
  -2  -5   3    1.92    0.43
   7  -2   3    1.62    0.35
  -2  -5   3    1.79    0.33
  -5   7   3    1.35    0.37
  -5   7   3    2.55    0.54
  -2  -5   3    3.58    0.48
   7  -2   3    1.91    0.35
  -7   5  -3   31.98    1.35
   2  -7  -3   26.43    1.34
   2  -7  -3   27.65    1.38
   2  -7  -3   26.42    1.39
   5   2  -3   32.65    1.30
  -7   5  -3   32.05    1.40
   5   2  -3   31.36    1.38
   2  -7  -3   27.79    1.46
  -2   7   3   27.07    1.48
  -2   7   3   27.73    1.39
   7  -5   3   32.03    1.40
  -5  -2   3   34.73    1.42
   7  -5   3   30.61    1.42
  -1  -7  -3   18.78    1.31
   8  -1  -3   23.16    1.00
  -1  -7  -3   20.63    1.29
  -1  -7  -3   18.70    1.18
  -7   8  -3   17.97    1.23
  -7   8  -3   18.22    1.25
   1   7   3   21.58    1.20
   7  -8   3   20.68    1.30
   7  -8   3   19.07    1.26
   1   7   3   20.62    1.07
   7  -8   3   20.54    1.16
   1   7   3   19.18    0.98
   7  -8   3   17.83    1.06
  -4  -7  -3    0.66    0.47
  -7  11  -3    1.52    0.62
  11  -4  -3    1.08    0.37
  11  -4  -3    1.32    0.36
   7 -11   3    0.78    0.53
   4   7   3    1.75    0.57
   7 -11   3    0.74    0.44
  -7  -7  -3    0.16    0.52
  14  -7  -3   -0.09    0.37
   7   7   3    0.00    0.44
   7 -14   3   -0.30    0.43
  13  -8  -3    8.98    1.14
  -8  -5  -3    8.59    1.16
   5 -13   3    9.78    1.27
   8   5   3   10.13    1.29
  10  -8  -3   13.63    1.10
  -8  -2  -3   13.94    1.04
  -8  -2  -3   13.58    0.87
   8   2   3   13.62    1.16
   2 -10   3   15.35    1.27
   2 -10   3   13.09    1.17
   8   2   3   12.20    0.88
   2 -10   3   15.13    1.21
  -8   1  -3    2.20    0.36
   1   7  -3    2.33    0.49
   7  -8  -3    2.21    0.42
   7  -8  -3    1.62    0.48
   7  -8  -3    1.27    0.29
   1   7  -3    1.68    0.47
  -7   8   3    1.47    0.43
  -1  -7   3    2.32    0.55
  -7   8   3    1.17    0.42
   8  -1   3    2.58    0.39
   8  -1   3    2.06    0.39
   8  -1   3    3.76    0.56
  -1  -7   3    2.52    0.57
  -1  -7   3    1.63    0.41
   4  -8  -3   22.77    1.24
   4  -8  -3   22.01    1.26
   4  -8  -3   22.05    1.26
   4   4  -3   22.04    0.95
   4   4  -3   22.52    1.17
   4   4  -3   21.91    1.20
  -8   4  -3   23.07    1.11
  -8   4  -3   21.08    1.04
   4  -8  -3   21.88    1.19
  -4  -4   3   19.58    1.20
  -4   8   3   21.05    1.26
   8  -4   3   22.25    1.13
  -4   8   3   21.50    1.37
   8  -4   3   23.96    1.22
   7   1  -3   21.93    1.09
  -8   7  -3   18.81    1.21
   1  -8  -3   21.78    1.40
   1  -8  -3   22.74    1.32
   1  -8  -3   23.12    1.27
   7   1  -3   19.85    1.22
  -8   7  -3   19.97    1.22
   1  -8  -3   21.59    1.34
  -1   8   3   20.12    1.29
   8  -7   3   19.89    0.98
   8  -7   3   20.86    1.30
  -1   8   3   24.31    1.28
  -1   8   3   22.52    1.22
   8  -7   3   21.37    0.98
  -7  -1   3   20.91    1.16
   8  -7   3   21.62    1.30
  -2  -8  -3    2.08    0.66
  -8  10  -3    0.55    0.42
  -8  10  -3    0.29    0.46
  10  -2  -3    0.59    0.29
  -2  -8  -3    1.14    0.51
   8 -10   3    0.53    0.41
 -10   2   3    0.64    0.33
   2   8   3    0.90    0.44
   8 -10   3    0.40    0.46
  -5  -8  -3   11.90    1.49
  13  -5  -3   11.39    0.90
   5   8   3   11.23    1.42
  16  -8  -3    9.32    1.27
  -8  -8  -3    8.98    1.54
   8   8   3    6.92    1.27
  15  -9  -3    0.29    0.47
  -9  -6  -3    0.32    0.56
   9   6   3   -0.09    0.40
   6 -15   3   -0.43    0.51
   9   6   3    0.16    0.38
  12  -9  -3    4.20    0.81
  -9  -3  -3    4.85    0.83
   3 -12   3    5.25    0.92
   9   3   3    4.08    0.88
   9   3   3    4.31    0.67
   9  -9  -3   18.38    1.32
  -9   0  -3   19.86    1.11
   0   9  -3   18.39    1.23
   0   9  -3   20.28    1.38
   9   0   3   19.79    1.07
   0  -9   3   20.93    1.46
   0  -9   3   20.63    1.39
  -9   9   3   20.57    1.35
   6  -9  -3    8.71    1.03
   6  -9  -3   11.44    0.88
  -9   3  -3   11.37    0.74
   3   6  -3   11.69    0.93
  -9   3  -3   10.07    0.73
   6  -9  -3   10.36    0.86
   3   6  -3   11.42    0.97
   6  -9  -3   12.50    0.91
  -3  -6   3   10.46    1.12
   9  -3   3   11.41    0.87
  -6   9   3   11.95    1.08
   9  -3   3   12.07    0.85
  -3  -6   3   10.57    0.83
  -6   9   3    9.78    0.96
  -3  -6   3   11.42    0.80
  -3  -6   3   12.58    0.76
   3  -9  -3   12.29    1.10
   3  -9  -3   13.44    1.09
  -9   6  -3   13.83    1.00
   6   3  -3   13.95    0.95
   3  -9  -3   13.80    1.08
   6   3  -3   15.02    1.06
   3  -9  -3   14.76    1.12
  -9   6  -3   13.49    0.95
   6   3  -3   14.49    0.69
  -3   9   3   12.97    1.04
   9  -6   3   14.09    1.05
  -3   9   3   14.06    1.18
  -6  -3   3   15.79    1.08
   9  -6   3   14.01    1.05
  -9   9  -3   89.90    3.43
  -9   9  -3   89.40    3.38
   0  -9  -3   89.44    3.33
   0  -9  -3   91.67    3.50
   9   0  -3   85.83    2.77
   0  -9  -3   91.16    3.37
   0   9   3   91.59    3.16
  -9   0   3   90.02    2.93
   9  -9   3   95.10    3.36
   9  -9   3   92.68    3.48
  12  -3  -3    5.53    0.63
  -3  -9  -3    4.43    0.92
   3   9   3    4.90    0.91
   9 -12   3    5.74    1.03
   9 -12   3    2.99    0.76
  -6  -9  -3   -0.62    0.49
  15  -6  -3    0.11    0.40
   6   9   3    0.06    0.46
  17 -10  -3    0.75    0.70
 -10  -7  -3    1.32    0.76
   7 -17   3    0.84    0.74
  10   7   3    1.81    0.70
  10   7   3    0.65    0.66
  14 -10  -3    0.41    0.47
 -10  -4  -3    0.94    0.61
  10   4   3    0.36    0.49
  10   4   3    0.44    0.42
   4 -14   3    0.23    0.51
  -1  11  -3    0.05    0.38
 -10  -1  -3    0.46    0.43
  11 -10  -3    0.80    0.51
   1 -11   3    0.04    0.46
  10   1   3    0.38    0.32
   8 -10  -3   13.12    0.98
   8 -10  -3   14.75    1.22
   2   8  -3   14.18    1.09
   2   8  -3   13.02    1.11
  -2  -8   3   15.45    1.27
  -8  10   3   13.78    1.20
  -8  10   3   12.05    1.17
  10  -2   3   12.81    0.91
  10  -2   3   12.96    0.96
   5 -10  -3    9.97    1.12
   5   5  -3   11.92    0.95
   5   5  -3    9.70    1.07
   5 -10  -3   12.12    1.02
   5 -10  -3   11.54    1.00
 -10   5  -3   11.75    0.85
  -5  10   3   13.01    1.11
  -5  -5   3   10.22    1.11
  10  -5   3   10.65    0.92
  -5  10   3   11.97    1.33
  10  -5   3   11.14    0.93
   8   2  -3    1.32    0.43
   8   2  -3    1.33    0.48
   2 -10  -3    0.96    0.47
   2 -10  -3    0.55    0.44
   2 -10  -3   -0.11    0.36
  10  -8   3    0.01    0.35
  -8  -2   3    0.94    0.40
  10  -8   3    1.29    0.47
  -2  10   3    0.22    0.34
 -10  11  -3    1.40    0.62
  -1 -10  -3    1.17    0.59
  10 -11   3    1.83    0.61
   1  10   3    2.43    0.71
  10 -11   3    1.14    0.62
  -4 -10  -3   -0.50    0.50
  14  -4  -3    0.21    0.29
   4  10   3    0.49    0.50
  -7 -10  -3    1.66    0.85
  17  -7  -3    0.98    0.63
   7  10   3    1.52    0.74
 -11  -5  -3    3.59    0.98
  16 -11  -3    3.28    0.90
   5 -16   3    3.00    0.92
  11   5   3    3.03    0.91
  11   5   3    3.39    0.85
  13 -11  -3    2.60    0.78
  -2  13  -3    3.23    0.86
  11   2   3    1.85    0.56
   2 -13   3    2.60    0.77
   1  10  -3    0.22    0.40
  10 -11  -3    0.50    0.47
  -1 -10   3    0.42    0.46
  11  -1   3    0.25    0.32
  11  -1   3    0.11    0.29
   7 -11  -3    7.98    0.96
   7 -11  -3    9.99    1.20
   4   7  -3   11.48    1.20
   4   7  -3   11.02    1.24
  11  -4   3   10.63    0.93
  -7  11   3   10.48    1.36
  -7  11   3   12.50    1.42
  11  -4   3    9.82    1.04
  -4  -7   3   10.97    1.27
   4 -11  -3    0.62    0.46
   7   4  -3    1.77    0.57
   7   4  -3    1.08    0.42
   4 -11  -3    1.64    0.56
  -7  -4   3    0.37    0.36
  11  -7   3    0.53    0.40
  11  -7   3    0.78    0.40
   1 -11  -3    0.66    0.60
  10   1  -3    1.57    0.47
   1 -11  -3    0.12    0.44
 -10  -1   3    1.52    0.53
  11 -10   3    1.58    0.62
  11 -10   3    2.14    0.64
  -1  11   3    1.71    0.60
  -2 -11  -3    1.50    0.69
  13  -2  -3    2.31    0.48
  11 -13   3    0.93    0.67
  11 -13   3    1.88    0.75
   2  11   3    2.95    0.84
  -5 -11  -3    1.24    0.77
  16  -5  -3    1.77    0.59
   5  11   3    0.22    0.56
  -3  15  -3    0.31    0.53
  15 -12  -3    0.93    0.70
   3 -15   3    0.09    0.63
  12   3   3    0.89    0.51
  12 -12  -3   10.02    1.40
   0  12  -3    7.98    1.21
   0 -12   3    8.55    1.36
  12   0   3   11.79    1.01
   9 -12  -3    4.08    0.92
   3   9  -3    5.38    0.97
  12  -3   3    3.65    0.68
  12  -3   3    4.21    0.74
  -3  -9   3    4.43    0.94
   6   6  -3    9.22    1.18
   6 -12  -3   12.53    1.29
   6 -12  -3   10.19    1.20
   6   6  -3    8.50    1.00
  12  -6   3   10.11    0.99
  -6  -6   3    5.71    0.95
  12  -6   3    9.73    1.16
   3 -12  -3    6.26    1.15
   9   3  -3    5.15    0.90
   3 -12  -3    4.56    0.90
   9   3  -3    4.35    0.74
  12  -9   3    6.01    1.00
  -9  -3   3    5.13    0.89
  12  -9   3    4.08    0.87
  -3  12   3    4.33    0.83
   0 -12  -3    7.63    1.27
  12 -12   3    7.04    1.35
  12 -12   3    5.94    1.19
   0  12   3    6.83    1.15
  -3 -12  -3   11.82    1.67
  15  -3  -3   13.10    1.01
   3  12   3   11.90    1.61
  14 -13  -3    5.33    1.15
  -1  14  -3    3.66    0.99
   1 -14   3    4.55    1.11
  13   1   3    6.82    1.04
  11 -13  -3    1.92    0.84
   2  11  -3    2.74    0.82
  -2 -11   3    2.49    0.88
  13  -2   3    2.54    0.62
   5   8  -3    8.92    1.14
   5   8  -3   11.72    1.48
   8 -13  -3    7.80    1.17
   8 -13  -3    7.60    1.06
  13  -5   3   10.17    1.18
  -5  -8   3    8.46    1.29
   5 -13  -3   10.53    1.31
   8   5  -3   13.56    1.17
   8   5  -3   12.19    1.38
  -8  -5   3   13.11    1.52
  13  -8   3   12.12    1.36
  11   2  -3    1.65    0.53
   2 -13  -3    1.33    0.68
 -11  -2   3    1.46    0.57
  13 -11   3    1.64    0.70
  -2  13   3    2.74    0.84
  -1 -13  -3   -0.04    0.55
   1  13   3   -0.02    0.51
  13 -14   3    0.41    0.70
  13 -14  -3    4.80    1.16
   1  13  -3    4.11    1.08
  14  -1   3    5.20    0.94
  -1 -13   3    3.68    1.05
  10 -14  -3    0.26    0.67
   4  10  -3    0.03    0.52
  -4 -10   3    0.70    0.60
  14  -4   3    0.02    0.38
   7 -14  -3   -0.05    0.46
   7   7  -3    0.05    0.45
  14  -7   3    0.29    0.44
  -7  -7   3   -0.29    0.41
  10   4  -3    0.36    0.57
  10   4  -3    0.37    0.46
   4 -14  -3    0.24    0.52
  -4  14   3    0.47    0.56
  14 -10   3    1.11    0.65
 -10  -4   3   -0.10    0.49
   1 -14  -3    0.23    0.61
  14 -13   3    0.02    0.61
  -1  14   3    0.11    0.54
   3  12  -3    0.11    0.56
  12 -15  -3   -0.13    0.64
  15  -3   3    0.13    0.44
  -3 -12   3    1.77    0.84
   6   9  -3    0.42    0.59
  15  -6   3    0.47    0.53
  -6  -9   3    0.04    0.65
   6 -15  -3    0.29    0.60
   9   6  -3    0.15    0.49
  -9  -6   3   -0.31    0.42
  15  -9   3    0.21    0.46
   3 -15  -3   11.77    1.64
  12   3  -3   13.10    1.01
  15 -12   3   17.16    2.07
  -3  15   3   11.96    1.63
 -12  -3   3   14.24    1.65
   5  11  -3    2.92    0.93
  -5 -11   3    4.04    1.11
  16  -5   3    2.62    0.74
   8   8  -3    9.76    1.49
   8 -16  -3    9.73    1.42
  -8  -8   3   10.14    1.66
  16  -8   3    8.48    1.33
  11   5  -3    0.04    0.50
   5 -16  -3    1.42    0.76
  -5  16   3    0.77    0.69
 -11  -5   3    0.14    0.69
  16 -11   3    0.31    0.65
   7  10  -3    0.39    0.62
  17  -7   3    1.32    0.70
  -7 -10   3    0.74    0.76
   7 -17  -3    0.83    0.72
  10   7  -3    1.12    0.68
 -10  -7   3   -0.62    0.57
  17 -10   3    1.62    0.87
   1  -1  -4    1.71    0.21
   0   1  -4    1.83    0.20
   0   1  -4    1.91    0.17
   0   1  -4    1.58    0.19
   1  -1  -4    1.75    0.15
  -1   0  -4    1.23    0.18
  -1   0  -4    1.37    0.19
   0   1  -4    1.82    0.24
  -1   0  -4    1.60    0.27
  -1   0  -4    1.25    0.23
   1  -1  -4    1.75    0.17
  -1   1   4    1.77    0.17
   0  -1   4    2.13    0.26
   1   0   4    1.82    0.28
   1   0   4    1.89    0.26
   1   0   4    1.41    0.21
  -1   1   4    1.27    0.20
   0  -1   4    1.52    0.19
   0  -1   4    1.66    0.22
  -1   3  -4  107.91    3.06
  -1   3  -4  104.91    2.98
  -2  -1  -4  104.77    3.06
   3  -2  -4  101.37    2.63
  -2  -1  -4  105.22    3.04
  -1   3  -4  105.87    2.99
   3  -2  -4   99.05    2.59
   1  -3   4  107.51    3.05
   2   1   4  104.98    2.94
   1  -3   4  105.89    3.04
   1  -3   4  109.77    3.03
   2   1   4  103.32    2.77
  -2   2  -4   12.64    0.66
   0  -2  -4   16.12    0.65
   0  -2  -4   15.65    0.74
  -2   2  -4   11.57    0.64
  -2   2  -4   12.68    0.63
   0   2   4   16.14    0.68
   2  -2   4   11.98    0.66
   2  -2   4   12.77    0.63
   0   2   4   15.90    0.75
   2  -2   4   11.88    0.65
   0   2   4   14.75    0.63
  -3  -2  -4   51.85    1.81
  -2   5  -4   52.42    1.86
  -3  -2  -4   51.89    1.75
   5  -3  -4   49.89    1.51
  -2   5  -4   52.54    1.84
   3   2   4   49.66    1.66
   3   2   4   50.53    1.68
   2  -5   4   50.45    1.88
   2  -5   4   52.28    1.78
   2  -5   4   53.80    1.89
   2  -5   4   49.85    1.86
  -3   1  -4  107.07    2.98
   1   2  -4  104.07    2.89
   1   2  -4  105.31    2.65
   2  -3  -4  102.72    2.96
  -3   1  -4  103.15    3.03
   2  -3  -4  103.87    2.81
  -3   1  -4  104.82    3.03
   3  -1   4  110.32    2.82
  -1  -2   4  105.85    2.84
   3  -1   4  110.26    3.07
  -2   3   4   98.89    3.01
  -3   4  -4    0.58    0.24
  -3   4  -4    1.06    0.32
  -1  -3  -4    1.27    0.35
  -1  -3  -4    0.85    0.28
  -1  -3  -4    1.87    0.34
   3  -4   4    0.65    0.24
   3  -4   4    0.12    0.18
   3  -4   4    0.96    0.28
   3  -4   4    1.00    0.29
   1   3   4    1.13    0.31
   1   3   4    0.75    0.23
  -4  -3  -4    0.70    0.34
  -3   7  -4    1.10    0.39
   7  -4  -4    2.15    0.39
  -3   7  -4    0.94    0.30
  -4  -3  -4    1.01    0.32
  -3   7  -4    1.44    0.45
  -4  -3  -4    1.72    0.43
   3  -7   4    0.93    0.35
   3  -7   4    0.89    0.39
   3  -7   4    0.82    0.35
   4   3   4    1.34    0.41
   3  -7   4    0.74    0.37
  -4   0  -4    0.41    0.20
   0   4  -4    0.30    0.18
   4  -4  -4    0.81    0.25
  -4   0  -4    0.45    0.21
   4   0   4    0.29    0.18
  -4   4   4    0.59    0.21
   0  -4   4    0.47    0.20
   0  -4   4    0.33    0.20
  -4   4   4    0.25    0.17
   0  -4   4    0.41    0.22
   4   0   4    0.37    0.21
  -4   3  -4    0.57    0.22
   1  -4  -4    0.92    0.31
  -4   3  -4    1.11    0.29
   1  -4  -4    0.70    0.27
   1  -4  -4    0.04    0.17
  -4   3  -4    1.09    0.30
  -1   4   4    0.49    0.21
   4  -3   4    0.71    0.25
   4  -3   4    1.00    0.25
   4  -3   4    0.77    0.24
  -1   4   4    0.67    0.30
   4  -3   4    1.07    0.31
  -2  -4  -4   27.44    1.27
  -4   6  -4   24.05    1.24
  -4   6  -4   23.87    1.24
  -2  -4  -4   26.08    1.29
  -2  -4  -4   25.90    1.19
   4  -6   4   25.08    1.25
   2   4   4   25.93    1.16
   4  -6   4   24.42    1.21
   2   4   4   25.46    1.07
   4  -6   4   24.73    1.23
   4  -6   4   24.68    1.27
   2   4   4   26.14    1.03
  -5  -4  -4    1.33    0.38
  -5  -4  -4    0.71    0.41
  -5  -4  -4    0.55    0.38
  -4   9  -4    0.88    0.40
   9  -5  -4    1.05    0.34
  -4   9  -4    0.98    0.49
   4  -9   4    1.01    0.44
   4  -9   4    0.53    0.38
   5   4   4    0.82    0.40
   4  -9   4    0.84    0.37
   4  -9   4    1.46    0.53
  -5  -1  -4   65.30    2.16
  -5  -1  -4   61.74    2.13
  -1   6  -4   66.10    2.18
   6  -5  -4   65.51    2.10
  -1   6  -4   65.19    2.11
  -5  -1  -4   65.26    2.09
  -1   6  -4   65.26    2.13
  -5  -1  -4   63.86    2.06
   1  -6   4   66.31    2.31
   1  -6   4   65.14    2.33
   5   1   4   63.89    2.04
   1  -6   4   65.37    2.32
  -6   5   4   65.87    2.11
  -6   5   4   66.52    2.10
   5   1   4   68.60    2.22
   1  -6   4   68.80    2.25
   2   3  -4   50.27    1.69
   2   3  -4   50.05    1.66
  -5   2  -4   50.13    1.75
   2   3  -4   54.33    1.51
   3  -5  -4   51.71    1.76
   3  -5  -4   50.43    1.80
  -5   2  -4   53.28    1.72
  -5   2  -4   49.23    1.75
  -3   5   4   49.12    1.87
   5  -2   4   50.57    1.69
   5  -2   4   52.09    1.84
  -3   5   4   49.98    1.84
   5   0  -4   45.78    1.56
   0  -5  -4   44.85    1.70
  -5   5  -4   40.92    1.71
   5   0  -4   44.96    1.48
   0  -5  -4   45.23    1.84
  -5   5  -4   41.58    1.68
   0  -5  -4   46.65    1.74
   5  -5   4   44.05    1.67
   0   5   4   43.59    1.66
   5  -5   4   42.60    1.62
   5  -5   4   39.85    1.65
   0   5   4   43.42    1.75
   0   5   4   43.79    1.54
  -3  -5  -4    0.47    0.30
  -3  -5  -4    0.35    0.35
  -5   8  -4    0.43    0.38
  -3  -5  -4    0.52    0.36
  -5   8  -4    0.69    0.36
   5  -8   4    0.58    0.38
   5  -8   4    0.35    0.29
   5  -8   4   -0.05    0.25
   5  -8   4    0.58    0.36
   5  -8   4    0.35    0.26
   3   5   4    0.54    0.32
  11  -6  -4    2.55    0.54
  -6  -5  -4    3.55    0.75
   5 -11   4    4.24    0.88
   5 -11   4    1.69    0.53
   6   5   4    3.44    0.70
  -6  -2  -4    2.55    0.45
  -6  -2  -4    2.74    0.42
  -6  -2  -4    3.33    0.53
  -2   8  -4    2.64    0.49
  -2   8  -4    3.27    0.53
   8  -6  -4    3.72    0.57
  -2   8  -4    2.82    0.55
   2  -8   4    3.16    0.57
  -8   6   4    2.86    0.42
   6   2   4    2.58    0.43
   2  -8   4    3.04    0.54
   2  -8   4    4.20    0.74
   2  -8   4    2.60    0.53
   6   2   4    3.33    0.59
   6   2   4    3.22    0.47
  -8   6   4    3.43    0.48
   5  -6  -4   67.67    2.12
  -6   1  -4   65.48    2.18
   1   5  -4   64.45    2.19
  -6   1  -4   67.59    2.17
   1   5  -4   69.12    2.21
   5  -6  -4   66.57    2.23
  -1  -5   4   67.88    2.20
  -5   6   4   71.76    2.36
   6  -1   4   67.07    2.28
  -5   6   4   64.30    2.33
   6  -1   4   65.46    2.09
  -1  -5   4   64.74    2.20
  -1  -5   4   66.56    2.31
  -1  -5   4   67.15    2.18
   2  -6  -4   29.09    1.31
   4   2  -4   25.93    1.17
  -6   4  -4   25.03    1.16
   2  -6  -4   26.92    1.33
  -6   4  -4   24.68    1.20
   4   2  -4   25.47    1.13
   2  -6  -4   27.84    1.26
   2  -6  -4   27.23    1.26
   6  -4   4   24.17    1.02
  -2   6   4   28.24    1.30
   6  -4   4   24.83    1.25
  -2   6   4   29.30    1.41
   6  -4   4   26.43    1.23
   6  -4   4   25.04    1.01
  -1  -6  -4   58.63    2.20
  -6   7  -4   55.50    2.24
  -1  -6  -4   55.48    2.27
   7  -1  -4   55.70    1.81
  -1  -6  -4   54.72    1.95
  -1  -6  -4   55.29    2.15
   6  -7   4   55.43    2.25
   1   6   4   56.10    2.07
   1   6   4   54.73    1.96
   6  -7   4   53.39    2.15
   1   6   4   55.43    2.00
   6  -7   4   53.78    2.06
   6  -7   4   54.57    2.12
  10  -4  -4    8.23    0.66
  -6  10  -4    9.16    1.30
  -6  10  -4   11.26    1.36
  -4  -6  -4    9.22    1.11
   4   6   4    7.45    0.94
   6 -10   4    8.17    1.17
   6 -10   4    9.82    1.20
   6 -10   4    9.65    0.96
   6 -10   4    8.42    1.16
  -7  -6  -4    2.53    0.77
  13  -7  -4    2.00    0.56
   6 -13   4    2.04    0.68
   7   6   4    2.08    0.68
  10  -7  -4   17.87    1.14
  -7  -3  -4   17.78    1.21
   3 -10   4   17.05    1.23
   3 -10   4   17.44    1.32
   3 -10   4   19.68    1.37
   7   3   4   18.58    1.29
   7   3   4   19.42    1.11
   7  -7  -4    1.55    0.42
  -7   0  -4    2.71    0.47
  -7   0  -4    2.41    0.44
   0   7  -4    1.82    0.46
   7  -7  -4    1.88    0.39
   0   7  -4    2.60    0.53
   0  -7   4    1.69    0.49
  -7   7   4    1.90    0.47
  -7   7   4    1.73    0.43
   7   0   4    1.90    0.41
   0  -7   4    2.57    0.57
   0  -7   4    2.58    0.55
   7   0   4    1.55    0.40
   0  -7   4    1.67    0.44
   4  -7  -4    1.14    0.41
  -7   3  -4    1.45    0.33
   3   4  -4    0.92    0.35
   4  -7  -4    1.98    0.47
  -7   3  -4    1.43    0.36
   4  -7  -4    2.04    0.46
   4  -7  -4    1.57    0.40
   3   4  -4    0.87    0.27
   3   4  -4    0.83    0.34
  -3  -4   4    0.71    0.33
   7  -3   4    1.56    0.42
  -4   7   4    2.19    0.50
   7  -3   4    1.11    0.33
  -4   7   4    1.70    0.54
   1  -7  -4   53.19    2.00
   6   1  -4   56.99    1.99
   1  -7  -4   56.42    2.19
   1  -7  -4   54.12    2.24
  -7   6  -4   57.05    2.13
   6   1  -4   55.10    1.86
   1  -7  -4   50.61    2.07
  -7   6  -4   54.58    2.14
  -1   7   4   51.18    1.92
  -1   7   4   55.63    2.24
  -1   7   4   54.27    2.10
   7  -6   4   52.89    2.11
   7  -6   4   53.38    1.88
   7  -6   4   49.44    2.11
   7  -6   4   52.84    1.91
  -7   9  -4   22.03    1.43
  -2  -7  -4   23.64    1.35
   9  -2  -4   22.35    1.04
  -2  -7  -4   18.61    1.39
  -2  -7  -4   20.66    1.39
  -7   9  -4   19.91    1.38
   7  -9   4   21.88    1.05
   7  -9   4   20.55    1.25
   7  -9   4   21.78    1.32
   7  -9   4   22.58    1.43
   2   7   4   21.07    1.29
   7  -9   4   21.07    1.40
  12  -5  -4    0.35    0.30
  -5  -7  -4   -0.15    0.41
  12  -5  -4    0.09    0.27
   5   7   4   -0.17    0.34
   7 -12   4   -0.19    0.36
  -8  -7  -4    2.64    0.82
  15  -8  -4    2.42    0.72
   8   7   4    2.60    0.87
   8   7   4    3.82    0.87
   7 -15   4    2.92    0.85
  -8  -4  -4    1.37    0.55
  12  -8  -4    1.86    0.57
   8   4   4    1.58    0.59
   4 -12   4    2.04    0.68
   8   4   4    1.81    0.50
   9  -8  -4    3.06    0.69
  -1   9  -4    1.62    0.48
  -8  -1  -4    1.98    0.52
   1  -9   4    2.39    0.65
   1  -9   4    1.69    0.57
   1  -9   4    2.77    0.67
   8   1   4    3.15    0.57
  -9   8   4    3.27    0.67
   2   6  -4    3.41    0.58
   6  -8  -4    3.50    0.51
   6  -8  -4    3.81    0.55
  -8   2  -4    3.24    0.46
   2   6  -4    3.36    0.57
   6  -8  -4    3.83    0.65
  -6   8   4    3.60    0.60
   8  -2   4    3.38    0.48
  -2  -6   4    2.90    0.45
  -2  -6   4    3.51    0.58
  -6   8   4    3.70    0.65
  -2  -6   4    4.12    0.64
  -2  -6   4    3.05    0.47
   8  -2   4    2.61    0.44
   8  -2   4    3.95    0.59
   3  -8  -4   -0.05    0.28
   3  -8  -4    0.42    0.33
   5   3  -4    0.55    0.28
   3  -8  -4    0.19    0.31
  -8   5  -4    0.28    0.26
   5   3  -4    0.62    0.33
  -8   5  -4    0.23    0.24
   3  -8  -4    0.34    0.36
   8  -5   4    0.44    0.31
  -3   8   4    0.36    0.32
   8  -5   4   -0.05    0.24
  -5  -3   4    0.21    0.29
  -3   8   4    0.21    0.39
   0  -8  -4   23.21    1.47
   8   0  -4   24.34    1.16
   0  -8  -4   24.04    1.42
  -8   8  -4   23.39    1.44
   0  -8  -4   25.15    1.57
  -8   8  -4   22.78    1.38
   8  -8   4   22.57    1.21
   8  -8   4   23.86    1.22
   8  -8   4   21.86    1.41
   8  -8   4   24.42    1.49
   0   8   4   24.18    1.34
   0   8   4   24.95    1.29
  -3  -8  -4    8.95    1.27
  -8  11  -4   10.67    1.40
   8 -11   4    7.45    1.14
   8 -11   4    9.22    1.32
   3   8   4    6.39    0.96
  14  -6  -4    2.74    0.64
  -6  -8  -4    2.79    0.88
   6   8   4    1.90    0.70
  17  -9  -4    2.30    0.81
  -9  -8  -4    2.91    0.99
   9   8   4    2.01    0.83
   9   8   4    2.75    0.89
  14  -9  -4    0.47    0.48
  -9  -5  -4    1.12    0.64
   9   5   4    0.51    0.41
   5 -14   4    0.82    0.62
   9   5   4    2.11    0.77
  -9  -2  -4   10.21    1.14
  11  -9  -4    9.65    1.13
   2 -11   4    8.71    1.19
   9   2   4   11.81    0.92
   2 -11   4   11.21    1.53
   8  -9  -4    2.40    0.63
  -9   1  -4    3.49    0.54
   1   8  -4    3.89    0.72
   1   8  -4    2.98    0.67
   8  -9  -4    3.35    0.59
   9  -1   4    3.10    0.63
  -1  -8   4    2.34    0.63
  -8   9   4    3.29    0.75
   9  -1   4    2.44    0.50
  -1  -8   4    1.76    0.52
  -1  -8   4    1.77    0.59
  -8   9   4    2.79    0.67
   5  -9  -4    0.92    0.38
   4   5  -4    0.61    0.32
  -9   4  -4    0.71    0.30
   5  -9  -4    0.47    0.34
   4   5  -4    0.62    0.29
   5  -9  -4    0.37    0.36
   4   5  -4    0.41    0.36
   5  -9  -4    1.11    0.43
  -9   4  -4    0.93    0.33
  -5   9   4    0.48    0.35
  -5   9   4    0.31    0.43
  -4  -5   4    1.49    0.49
   9  -4   4    0.93    0.37
   9  -4   4    1.43    0.45
  -9   7  -4   23.64    1.36
  -9   7  -4   21.07    1.29
   2  -9  -4   20.70    1.35
   2  -9  -4   21.58    1.44
   2  -9  -4   19.57    1.29
   7   2  -4   21.22    1.28
   7   2  -4   20.28    1.16
   2  -9  -4   22.40    1.40
  -2   9   4   21.08    1.31
  -2   9   4   20.33    1.26
   9  -7   4   22.76    1.41
  -2   9   4   20.58    1.42
  -7  -2   4   18.46    1.22
   9  -7   4   23.67    1.41
  -9  10  -4   10.88    1.35
  10  -1  -4   11.14    0.84
  -9  10  -4   10.88    1.33
  -1  -9  -4   12.82    1.45
  -1  -9  -4   13.91    1.60
   9 -10   4    9.97    1.27
   1   9   4   10.66    1.17
 -10   1   4   10.90    0.91
   9 -10   4    9.55    1.27
  -4  -9  -4    0.64    0.58
  13  -4  -4    0.50    0.36
   4   9   4    0.18    0.43
  -7  -9  -4    0.00    0.60
  16  -7  -4    0.06    0.47
   7   9   4    0.32    0.55
  16 -10  -4    1.57    0.74
 -10  -6  -4    2.19    0.85
   6 -16   4    1.58    0.81
  10   6   4    1.26    0.71
  10   6   4    1.25    0.61
 -10  -3  -4    4.55    0.89
  13 -10  -4    4.54    0.93
  10   3   4    4.53    0.94
   3 -13   4    4.07    0.97
  10   3   4    3.76    0.72
  10 -10  -4    0.07    0.39
   0  10  -4    0.02    0.35
   0  10  -4    1.43    0.60
  10   0   4    0.43    0.34
   0 -10   4   -0.41    0.35
   3   7  -4   19.05    1.24
   7 -10  -4   20.82    1.23
   7 -10  -4   17.14    1.32
   3   7  -4   15.21    1.18
  -7  10   4   19.27    1.42
  10  -3   4   17.36    1.11
  -7  10   4   19.42    1.37
  -3  -7   4   19.26    1.39
  10  -3   4   17.08    1.17
   6   4  -4    9.62    1.08
   6   4  -4    9.91    1.05
   4 -10  -4   10.77    1.18
   4 -10  -4    9.84    0.98
   4 -10  -4   10.02    1.18
   6   4  -4    8.53    0.63
  10  -6   4    8.42    1.13
  10  -6   4   10.96    1.23
  -4  10   4   10.20    1.25
  -6  -4   4   10.04    1.13
  -4  10   4   11.70    1.34
   9   1  -4   12.33    0.94
   9   1  -4   12.01    1.26
 -10   9  -4   10.16    1.22
   1 -10  -4    9.51    1.25
   1 -10  -4   10.96    1.35
   1 -10  -4   11.39    1.35
  10  -9   4    8.21    1.09
  -1  10   4    8.82    1.09
  10  -9   4   10.42    1.33
  -9  -1   4   12.63    1.02
  -2 -10  -4   12.56    1.55
   2  10   4   12.74    1.38
  10 -12   4   13.43    1.62
  10 -12   4   10.53    1.38
  -5 -10  -4    5.75    1.18
  15  -5  -4    6.05    0.87
   5  10   4    6.37    1.20
  15 -11  -4    0.08    0.53
 -11  -4  -4    0.29    0.58
  -4  15  -4    0.10    0.52
  11   4   4    0.07    0.37
   4 -15   4   -0.02    0.48
  -1  12  -4    1.82    0.70
  12 -11  -4    1.52    0.65
  11   1   4    2.51    0.62
   1 -12   4    1.38    0.70
   2   9  -4   11.58    1.28
   9 -11  -4   11.56    1.28
   2   9  -4   11.02    1.23
  -2  -9   4   14.30    1.53
  11  -2   4   11.43    0.97
  11  -2   4   12.19    0.97
   5   6  -4    2.29    0.56
   6 -11  -4    2.21    0.62
   6 -11  -4    3.04    0.67
   5   6  -4    3.82    0.74
  -5  -6   4    3.90    0.78
  11  -5   4    3.08    0.70
  11  -5   4    1.99    0.55
  -6  11   4    4.20    0.94
   8   3  -4    7.28    0.94
   8   3  -4    9.72    1.21
   3 -11  -4    7.94    1.09
   3 -11  -4    9.68    1.24
  -8  -3   4    8.94    1.15
  11  -8   4    8.49    1.16
  11  -8   4    7.12    0.98
   0 -11  -4    0.01    0.45
  11   0  -4    0.26    0.32
  11 -11   4    0.04    0.44
 -11   0   4    0.46    0.41
  11 -11   4    0.47    0.50
   0  11   4   -0.03    0.33
  -3 -11  -4    1.66    0.74
   3  11   4    1.43    0.66
  -2  14  -4   -0.64    0.42
  14 -12  -4    0.29    0.61
  12   2   4    0.76    0.47
   2 -14   4   -0.37    0.47
  11 -12  -4    1.88    0.62
   1  11  -4    1.22    0.66
  -1 -11   4    0.23    0.46
  12  -1   4    0.92    0.43
   8 -12  -4    2.14    0.59
   8 -12  -4    1.28    0.59
   4   8  -4    2.75    0.74
   4   8  -4    2.31    0.66
  -4  -8   4    2.10    0.69
  12  -4   4    2.14    0.59
  12  -4   4    1.44    0.50
   5 -12  -4   -0.15    0.38
   7   5  -4    0.22    0.37
   7   5  -4    0.60    0.49
  -7  -5   4    0.32    0.39
  12  -7   4    0.28    0.44
  12  -7   4    0.00    0.35
  10   2  -4   12.67    1.06
   2 -12  -4   10.41    1.35
  10   2  -4   10.37    1.27
  12 -10   4   10.72    1.41
  -2  12   4   11.73    1.38
 -10  -2   4   11.65    1.32
  12 -10   4   12.83    1.61
  -1 -12  -4   -0.48    0.47
   1  12   4    0.83    0.60
  12 -13   4    0.43    0.56
  12 -13   4    0.64    0.66
  -4 -12  -4    6.76    1.37
  16  -4  -4    5.36    0.86
   4  12   4    2.77    0.89
  -3  16  -4    2.59    0.99
  16 -13  -4    3.68    1.08
   3 -16   4    4.44    1.24
  13   3   4    5.06    1.02
   0  13  -4    0.35    0.58
  13 -13  -4    0.31    0.56
   0 -13   4    0.47    0.73
  13   0   4    0.53    0.43
  10 -13  -4    4.75    0.97
   3  10  -4    4.50    1.02
  13  -3   4    3.35    0.72
  -3 -10   4    3.37    0.89
   6   7  -4    1.97    0.65
   7 -13  -4    2.09    0.64
   6   7  -4    2.64    0.67
  -6  -7   4    2.21    0.73
  13  -6   4    1.99    0.63
   9   4  -4    1.26    0.54
   9   4  -4    0.70    0.46
   4 -13  -4    1.51    0.63
  13  -9   4    0.69    0.56
  -4  13   4    0.77    0.57
  -9  -4   4    0.65    0.52
   1 -13  -4    1.67    0.76
  13 -12   4    0.52    0.60
  -1  13   4    0.45    0.52
  -2 -13  -4    1.11    0.75
   2  13   4    1.67    0.81
  -1  15  -4    2.54    0.93
  15 -14  -4    3.14    0.97
  14   1   4    3.04    0.81
   1 -15   4    2.72    1.03
   2  12  -4    0.19    0.48
  12 -14  -4    0.29    0.58
  14  -2   4    0.15    0.44
  -2 -12   4    0.36    0.66
   5   9  -4    1.34    0.63
  -5  -9   4    0.95    0.66
  14  -5   4    0.85    0.54
   8   6  -4    1.75    0.60
   6 -14  -4    1.26    0.65
   8   6  -4    2.91    0.79
  14  -8   4    2.64    0.74
  -8  -6   4    1.93    0.72
  11   3  -4    0.53    0.48
  11   3  -4    0.60    0.48
   3 -14  -4   -0.02    0.54
  -3  14   4    1.08    0.68
  14 -11   4    1.85    0.80
 -11  -3   4    1.70    0.70
   0 -14  -4    0.14    0.63
   0  14   4    1.25    0.71
  14 -14   4   -0.06    0.65
   1  14  -4    5.17    1.19
  14 -15  -4    4.87    1.28
  15  -1   4    3.20    0.82
  -1 -14   4    4.07    1.15
  11 -15  -4    0.17    0.63
   4  11  -4   -0.31    0.46
  15  -4   4    0.27    0.46
  -4 -11   4   -0.24    0.60
   8 -15  -4    4.76    1.00
   7   8  -4    2.58    0.82
  15  -7   4    2.66    0.79
  -7  -8   4    4.11    0.99
  10   5  -4    4.09    0.98
   5 -15  -4    5.76    1.18
  10   5  -4    5.84    1.00
  -5  15   4    3.64    0.93
  15 -10   4    4.82    1.07
 -10  -5   4    5.50    1.12
   2 -15  -4    0.61    0.73
  15 -13   4    3.11    1.00
  -2  15   4    1.50    0.76
   3  13  -4    2.09    0.94
  -3 -13   4    4.06    1.16
  16  -3   4    3.24    0.84
   6  10  -4    1.44    0.78
  16  -6   4    1.57    0.72
  -6 -10   4    1.65    0.86
   7 -16  -4    0.53    0.63
   9   7  -4   -0.25    0.48
  16  -9   4   -0.37    0.53
  -9  -7   4    0.00    0.56
   4 -16  -4    5.00    1.17
  12   4  -4    4.57    1.14
  16 -12   4    5.82    1.30
 -12  -4   4    5.96    1.17
  -4  16   4    4.69    1.17
   8   9  -4    3.30    1.00
  17  -8   4    4.25    1.07
  -8  -9   4    2.41    1.07
   0  -1  -5  216.41    5.32
   0  -1  -5  209.84    5.77
  -1   1  -5  234.17    5.80
   1   0  -5  222.44    5.21
  -1   1  -5  231.91    5.31
   0  -1  -5  211.92    5.86
  -1   1  -5  224.99    5.87
   0   1   5  212.65    5.89
   0   1   5  208.41    5.31
   0   1   5  210.73    5.80
   1  -1   5  222.04    5.83
   1  -1   5  223.40    5.89
   1  -1   5  224.12    5.37
   1  -1   5  230.13    5.81
   0   2  -5   55.05    1.52
  -2   0  -5   52.46    1.77
  -2   0  -5   55.14    1.73
   0   2  -5   57.25    1.72
  -2   0  -5   55.40    1.59
   2  -2  -5   52.00    1.56
   0  -2   5   57.11    1.64
   0  -2   5   55.35    1.67
  -2   2   5   50.25    1.62
   2   0   5   56.15    1.81
   2   0   5   52.97    1.63
   0  -2   5   51.64    1.67
  -2   2   5   51.87    1.60
  -2   3  -5   76.45    2.44
  -2   3  -5   82.13    2.41
  -1  -2  -5   78.57    2.51
  -1  -2  -5   79.54    2.23
   2  -3   5   76.90    2.29
   2  -3   5   77.07    2.44
   1   2   5   76.30    2.22
   2  -3   5   82.27    2.43
   1   2   5   76.43    2.48
   1   2   5   77.65    2.39
  -1   4  -5   27.60    1.09
  -3  -1  -5   26.80    1.18
  -1   4  -5   25.87    1.06
  -3  -1  -5   29.33    1.18
   4  -3  -5   27.03    0.99
   3   1   5   28.33    1.07
   3   1   5   27.41    1.03
   1  -4   5   26.39    1.15
   1  -4   5   25.58    1.14
   1  -4   5   27.62    1.14
   3   1   5   28.60    1.09
  -3   2  -5   75.01    2.47
  -3   2  -5   80.52    2.51
   1  -3  -5   80.07    2.29
   1  -3  -5   82.02    2.52
  -3   2  -5   82.68    2.45
  -1   3   5   80.13    2.54
  -1   3   5   81.36    2.27
   3  -2   5   81.28    2.34
  -1   3   5   77.60    2.43
   3  -2   5   80.94    2.51
   3  -2   5   81.31    2.42
   3  -2   5   80.08    2.47
  -3   5  -5   13.77    0.85
  -2  -3  -5   14.91    0.92
  -2  -3  -5   12.66    0.73
  -2  -3  -5   13.53    0.79
  -3   5  -5   14.91    0.86
  -2  -3  -5   12.86    0.82
   2   3   5   13.10    0.73
   3  -5   5   12.99    0.86
   2   3   5   12.10    0.72
   3  -5   5   15.17    0.90
   3  -5   5   14.21    0.84
   3  -5   5   15.39    0.88
  -4  -2  -5   10.96    0.78
   6  -4  -5   11.23    0.65
  -2   6  -5   10.30    0.68
  -4  -2  -5   10.17    0.74
  -2   6  -5   10.84    0.78
  -4  -2  -5   11.47    0.75
  -2   6  -5    8.98    0.71
   2  -6   5    8.91    0.76
   2  -6   5    9.71    0.77
   4   2   5   10.42    0.69
   2  -6   5    9.24    0.77
   4   2   5   12.69    0.80
   2  -6   5   10.82    0.76
   2  -6   5   10.71    0.78
  -4   1  -5   27.51    1.17
   3  -4  -5   28.41    1.06
   3  -4  -5   29.06    1.13
  -4   1  -5   26.76    1.15
   1   3  -5   27.58    1.12
  -4   1  -5   26.84    1.10
   1   3  -5   24.21    0.96
   1   3  -5   26.89    1.07
  -3   4   5   29.60    1.14
  -1  -3   5   28.86    1.04
  -3   4   5   29.44    1.19
   4  -1   5   27.10    1.05
   4  -1   5   28.01    1.11
   4  -1   5   29.21    1.21
   0  -4  -5   67.07    2.19
   0  -4  -5   72.33    2.43
   0  -4  -5   73.01    2.16
  -4   4  -5   67.66    2.35
  -4   4  -5   65.68    2.33
  -4   4  -5   66.97    2.28
   4  -4   5   64.97    2.28
   0   4   5   73.83    2.32
   0   4   5   76.98    2.45
   4  -4   5   65.37    2.20
   4  -4   5   65.37    2.23
   4  -4   5   66.79    2.35
  -4   7  -5    7.05    0.55
  -4   7  -5    9.52    0.81
  -3  -4  -5    6.97    0.81
  -3  -4  -5    7.29    0.67
  -4   7  -5    9.81    0.85
  -3  -4  -5    9.51    0.84
   4  -7   5    9.50    0.82
   4  -7   5    7.56    0.76
   3   4   5    7.20    0.77
   4  -7   5    8.23    0.74
   4  -7   5    8.12    0.65
   4  -7   5    9.23    0.81
   8  -5  -5   12.92    0.78
  -3   8  -5   11.52    0.95
  -5  -3  -5   12.35    0.92
  -5  -3  -5   11.84    0.82
  -3   8  -5    9.94    0.77
  -5  -3  -5   11.50    0.91
  -3   8  -5   11.67    0.91
   3  -8   5   13.45    1.03
   5   3   5   15.80    1.02
   3  -8   5   11.47    0.91
   3  -8   5   11.86    0.95
   5   3   5   12.89    0.85
   3  -8   5   11.81    0.98
   3  -8   5   11.39    0.95
   5  -5  -5   30.33    1.24
  -5   0  -5   29.48    1.25
   0   5  -5   26.18    1.19
  -5   0  -5   29.39    1.27
  -5   5   5   28.43    1.22
   0  -5   5   27.70    1.24
   0  -5   5   30.59    1.28
   0  -5   5   31.13    1.29
   5   0   5   32.71    1.36
   5   0   5   30.87    1.22
  -5   5   5   29.00    1.21
   2  -5  -5   13.49    0.87
  -5   3  -5   14.21    0.78
   2  -5  -5   11.34    0.78
   3   2  -5   15.76    0.84
   2  -5  -5   13.56    0.83
   3   2  -5   13.61    0.79
  -5   3  -5   14.55    0.84
  -5   3  -5   16.09    0.89
  -2   5   5   12.73    0.91
   5  -3   5   14.99    0.74
  -2   5   5   13.00    0.83
   5  -3   5   13.50    0.72
   5  -3   5   15.02    0.88
   5  -3   5   14.73    0.84
  -1  -5  -5    4.95    0.65
  -5   6  -5    5.52    0.74
  -1  -5  -5    5.51    0.68
  -1  -5  -5    5.17    0.62
  -1  -5  -5    5.14    0.76
  -5   6  -5    4.64    0.70
   6  -1  -5    5.94    0.51
   1   5   5    4.62    0.59
   5  -6   5    4.87    0.67
   5  -6   5    5.78    0.78
   5  -6   5    3.83    0.62
   1   5   5    4.99    0.67
   5  -6   5    5.26    0.71
   1   5   5    4.47    0.55
  -5   9  -5   96.32    2.91
  -4  -5  -5   97.87    3.54
  -4  -5  -5   99.57    3.36
   9  -4  -5   97.82    2.80
  -5   9  -5  101.56    3.60
  -4  -5  -5   93.89    3.30
   9  -4  -5   99.33    2.79
  -5   9  -5  100.83    3.54
   4   5   5   98.15    3.23
   5  -9   5  101.97    3.51
   5  -9   5  108.13    3.49
   5  -9   5  106.14    3.60
   5  -9   5  100.19    3.61
   5  -9   5  100.83    3.09
  10  -6  -5    0.40    0.29
  -4  10  -5   -0.11    0.26
  -6  -4  -5    0.12    0.33
   4 -10   5   -0.08    0.30
   4 -10   5    0.27    0.32
   4 -10   5    0.06    0.40
   6   4   5   -0.13    0.30
 -10   6   5    0.33    0.24
   4 -10   5    0.32    0.40
   6   4   5    0.65    0.35
  -1   7  -5   36.02    1.52
  -6  -1  -5   36.71    1.46
   7  -6  -5   33.53    1.48
  -6  -1  -5   35.68    1.53
  -1   7  -5   37.18    1.39
   7  -6  -5   35.81    1.40
  -1   7  -5   36.68    1.43
   1  -7   5   37.08    1.66
   1  -7   5   36.99    1.63
  -7   6   5   36.75    1.47
   1  -7   5   35.10    1.61
   6   1   5   36.20    1.59
  -7   6   5   35.07    1.45
   1  -7   5   37.14    1.67
   6   1   5   34.17    1.43
  -6   2  -5   10.39    0.73
   4  -6  -5   12.50    0.82
   2   4  -5   11.18    0.65
   2   4  -5   10.66    0.74
   4  -6  -5   12.57    0.77
  -6   2  -5   10.64    0.72
   4  -6  -5   10.95    0.80
   2   4  -5    9.85    0.71
  -6   2  -5    9.75    0.67
   6  -2   5   10.37    0.73
  -2  -4   5   11.24    0.59
   6  -2   5    9.98    0.76
  -4   6   5   11.22    0.79
  -4   6   5   11.44    0.85
   1  -6  -5    4.45    0.58
   5   1  -5    5.33    0.64
  -6   5  -5    3.97    0.60
   1  -6  -5    5.04    0.68
   1  -6  -5    3.82    0.61
  -6   5  -5    3.64    0.54
   5   1  -5    5.68    0.63
   1  -6  -5    3.55    0.54
   6  -5   5    4.59    0.63
   6  -5   5    4.04    0.55
  -1   6   5    4.33    0.59
  -1   6   5    4.93    0.58
  -1   6   5    4.00    0.65
   6  -5   5    4.14    0.60
   6  -5   5    3.84    0.50
  -2  -6  -5   26.65    1.55
  -2  -6  -5   27.09    1.41
   8  -2  -5   25.98    1.13
  -2  -6  -5   24.11    1.44
  -6   8  -5   29.10    1.53
  -6   8  -5   30.16    1.57
   2   6   5   26.85    1.24
   2   6   5   27.26    1.17
   6  -8   5   26.78    1.40
   6  -8   5   26.81    1.45
   2   6   5   27.11    1.35
   6  -8   5   27.97    1.55
   6  -8   5   27.31    1.50
  -5  -6  -5    9.56    1.17
  11  -5  -5    9.77    0.79
   5   6   5   10.93    1.28
   6 -11   5    9.17    1.06
   6 -11   5   12.48    1.43
  -7  -5  -5   10.64    1.25
  12  -7  -5   13.60    1.04
   7   5   5   13.03    1.43
   7   5   5   13.36    1.08
   5 -12   5   11.74    1.28
   5 -12   5   11.12    1.45
  -7  -2  -5    4.56    0.72
  -2   9  -5    4.13    0.67
   9  -7  -5    4.32    0.69
  -7  -2  -5    3.85    0.64
  -2   9  -5    3.97    0.62
   9  -7  -5    4.25    0.54
  -2   9  -5    3.12    0.60
   7   2   5    4.84    0.80
   2  -9   5    2.79    0.66
  -9   7   5    4.30    0.67
  -9   7   5    4.64    0.65
   7   2   5    3.46    0.58
   2  -9   5    4.43    0.78
   2  -9   5    3.97    0.77
   2  -9   5    4.73    0.80
  -7   1  -5   35.19    1.47
   1   6  -5   33.53    1.50
   6  -7  -5   35.43    1.57
   6  -7  -5   36.68    1.46
   6  -7  -5   34.78    1.27
   1   6  -5   35.56    1.57
   7  -1   5   33.11    1.54
  -1  -6   5   32.86    1.47
  -1  -6   5   35.53    1.50
  -1  -6   5   32.58    1.60
  -6   7   5   34.54    1.61
  -1  -6   5   36.20    1.46
  -6   7   5   37.53    1.62
   7  -1   5   36.11    1.46
   3  -7  -5    8.04    0.77
   3  -7  -5    7.24    0.80
   3  -7  -5    5.91    0.78
   4   3  -5    9.19    0.48
  -7   4  -5    8.46    0.67
  -7   4  -5    8.75    0.73
   3  -7  -5    6.91    0.79
   4   3  -5    8.36    0.70
   4   3  -5    7.94    0.67
  -3   7   5    6.75    0.92
  -3   7   5    7.65    0.75
   7  -4   5    8.64    0.74
   7  -4   5    8.01    0.73
   0  -7  -5    2.23    0.53
   0  -7  -5    2.28    0.53
   7   0  -5    1.81    0.39
   0  -7  -5    2.20    0.62
  -7   7  -5    2.04    0.54
   7   0  -5    1.98    0.46
   0  -7  -5    1.49    0.43
  -7   7  -5    1.38    0.42
   7  -7   5    1.33    0.48
   0   7   5    1.03    0.38
   7  -7   5    2.58    0.52
   7  -7   5    2.07    0.59
   7  -7   5    2.83    0.53
   0   7   5    2.09    0.46
   0   7   5    1.95    0.53
  -7  10  -5   60.02    2.65
  -7  10  -5   60.22    2.67
  -3  -7  -5   55.74    2.49
  -3  -7  -5   54.22    2.59
  10  -3  -5   58.79    1.95
   3   7   5   54.65    2.33
   7 -10   5   61.47    2.70
   7 -10   5   58.68    2.06
   7 -10   5   60.89    2.55
   7 -10   5   60.10    2.59
  -6  -7  -5    0.33    0.49
  13  -6  -5   -0.25    0.28
   6   7   5    0.22    0.38
   7 -13   5   -0.27    0.39
  -8  -6  -5   -0.38    0.37
  14  -8  -5   -0.11    0.37
   6 -14   5   -0.27    0.49
   8   6   5    0.07    0.44
   8   6   5   -0.37    0.34
  -8  -3  -5   11.12    1.20
  11  -8  -5   12.47    1.03
   3 -11   5   11.55    1.39
   8   3   5   11.25    0.95
   3 -11   5   12.54    1.30
   8   3   5   10.86    1.22
   8  -8  -5  100.86    3.26
   0   8  -5   99.04    3.28
  -8   0  -5   97.92    3.18
  -8   0  -5   98.78    2.90
   8  -8  -5  101.03    2.93
   0   8  -5   94.30    3.12
  -8   8   5   92.74    3.32
   0  -8   5   93.49    3.26
   0  -8   5   95.17    3.34
   0  -8   5   94.46    3.37
  -8   8   5   93.25    3.29
   0  -8   5   95.52    3.36
   8   0   5   96.01    3.03
   3   5  -5   13.33    0.82
   5  -8  -5   14.42    1.03
  -8   3  -5   11.40    0.85
   5  -8  -5   14.45    0.95
   5  -8  -5   15.47    1.04
   3   5  -5   12.63    0.93
  -8   3  -5   14.28    0.86
  -3  -5   5   12.29    1.00
  -5   8   5   15.86    1.09
  -5   8   5   14.22    1.11
   8  -3   5   12.56    0.95
   8  -3   5   13.79    0.92
   6   2  -5   29.89    1.31
   2  -8  -5   23.98    1.47
  -8   6  -5   27.25    1.45
   6   2  -5   26.46    1.34
   2  -8  -5   26.49    1.46
  -8   6  -5   27.68    1.42
   2  -8  -5   24.55    1.38
   2  -8  -5   28.64    1.50
   8  -6   5   27.10    1.14
  -2   8   5   24.77    1.52
   8  -6   5   26.74    1.14
   8  -6   5   25.80    1.44
   8  -6   5   26.31    1.47
  -2   8   5   24.61    1.39
  -1  -8  -5   76.54    2.95
  -8   9  -5   77.90    3.04
  -1  -8  -5   72.63    2.89
  -1  -8  -5   75.65    3.11
   9  -1  -5   72.78    2.42
  -8   9  -5   76.70    3.04
   1   8   5   74.28    2.70
   8  -9   5   74.83    2.93
   8  -9   5   74.93    3.03
  -4  -8  -5   40.55    2.23
   4   8   5   39.79    2.08
  -7  -8  -5    0.35    0.53
  15  -7  -5    0.18    0.41
   7   8   5    0.51    0.50
  16  -9  -5    0.55    0.56
  -9  -7  -5    0.60    0.62
   9   7   5    0.62    0.52
   9   7   5    0.96    0.65
  -9  -4  -5   55.27    2.53
  13  -9  -5   51.05    2.35
   9   4   5   52.40    2.59
   9   4   5   51.60    2.28
   4 -13   5   52.35    2.58
  -9  -1  -5   16.41    1.14
  10  -9  -5   18.21    1.32
  -1  10  -5   20.22    1.30
  -1  10  -5   19.86    1.43
   9   1   5   17.06    1.11
   1 -10   5   18.01    1.41
  -9   2  -5    3.67    0.65
   2   7  -5    5.14    0.77
   2   7  -5    4.20    0.74
   7  -9  -5    3.84    0.58
  -9   2  -5    3.67    0.58
   7  -9  -5    3.68    0.64
   7  -9  -5    3.90    0.72
  -2  -7   5    4.60    0.70
  -2  -7   5    5.03    0.69
  -7   9   5    4.37    0.89
   9  -2   5    4.14    0.70
   9  -2   5    5.18    0.80
  -2  -7   5    4.36    0.82
  -2  -7   5    4.78    0.76
  -7   9   5    5.15    0.85
   5   4  -5  104.46    3.28
   5   4  -5  102.33    2.79
   4  -9  -5   99.11    3.30
  -9   5  -5   97.94    3.28
   4  -9  -5   96.91    3.34
   4  -9  -5   96.17    3.49
   4  -9  -5   98.08    3.45
   5   4  -5   97.26    3.17
  -9   5  -5  102.19    3.40
  -4   9   5   93.66    3.48
  -5  -4   5  104.86    3.40
  -4   9   5   96.01    3.65
   9  -5   5   99.99    3.30
   9  -5   5  102.92    3.49
  -9   8  -5   75.42    3.00
   1  -9  -5   74.67    3.07
   1  -9  -5   74.31    2.89
   8   1  -5   72.09    2.70
  -9   8  -5   75.35    2.94
   1  -9  -5   77.27    2.99
   8   1  -5   78.71    2.59
   9  -8   5   71.83    2.98
  -1   9   5   74.95    2.71
   9  -8   5   80.64    3.01
  -2  -9  -5    6.72    1.08
  -9  11  -5    7.27    1.26
   9 -11   5    6.68    1.17
   9 -11   5    4.93    0.99
   2   9   5    5.71    0.93
  -5  -9  -5    7.99    1.35
  14  -5  -5    6.47    0.85
   5   9   5    6.59    1.19
  15 -10  -5    2.67    0.85
 -10  -5  -5    3.61    0.91
  10   5   5    2.45    0.75
   5 -15   5    3.77    0.99
  10   5   5    2.89    0.88
  12 -10  -5    0.15    0.45
 -10  -2  -5    1.39    0.55
  -2  12  -5    1.10    0.57
  10   2   5    1.33    0.50
   2 -12   5    1.15    0.61
   9 -10  -5   19.01    1.13
   9 -10  -5   16.82    1.34
   1   9  -5   17.87    1.29
   1   9  -5   18.43    1.38
  10  -1   5   18.06    1.23
  10  -1   5   17.19    1.13
  -1  -9   5   17.94    1.43
   6 -10  -5    0.69    0.41
   4   6  -5    0.37    0.30
   4   6  -5    0.19    0.30
   6 -10  -5    0.23    0.34
  10  -4   5    0.04    0.30
  10  -4   5    0.21    0.33
  -6  10   5    0.31    0.47
  -4  -6   5    0.05    0.34
  -6  10   5    0.07    0.33
  -4  -6   5   -0.04    0.25
   3 -10  -5   58.96    2.55
   3 -10  -5   58.91    2.49
   7   3  -5   58.71    2.27
   3 -10  -5   59.46    2.45
   7   3  -5   56.91    2.36
  -3  10   5   54.94    2.61
  10  -7   5   60.23    2.57
  -7  -3   5   58.15    2.42
  10  -7   5   56.19    2.43
 -10  10  -5    3.15    0.86
  10   0  -5    3.19    0.59
   0 -10  -5    3.13    0.80
   0 -10  -5    3.24    0.79
 -10   0   5    2.36    0.61
  10 -10   5    4.82    1.03
  10 -10   5    4.41    0.94
   0  10   5    0.95    0.50
  -3 -10  -5    2.16    0.75
   3  10   5    4.08    0.90
  16  -6  -5    9.61    1.17
  -6 -10  -5   13.15    1.81
   6  10   5    8.74    1.43
  -3  14  -5    9.76    1.40
  14 -11  -5   12.32    1.56
   3 -14   5   11.08    1.48
  11   3   5    7.90    1.13
  11 -11  -5    4.74    0.95
   0  11  -5    4.63    0.91
   0  11  -5    3.60    0.90
  11   0   5    4.81    0.77
   0 -11   5    4.76    0.98
   8 -11  -5   12.46    1.26
   3   8  -5   15.22    1.54
   8 -11  -5   14.23    1.40
   3   8  -5   10.52    1.15
  -8  11   5   12.78    1.55
  11  -3   5   11.53    1.01
  -3  -8   5   13.57    1.48
  11  -3   5   12.29    1.03
   5 -11  -5    9.07    1.13
   5 -11  -5   11.88    1.34
   6   5  -5   10.23    1.16
   6   5  -5    9.46    1.15
  -6  -5   5   11.12    1.31
  -5  11   5   10.12    1.35
  11  -6   5   11.18    1.36
  11  -6   5   10.76    1.30
   9   2  -5    8.12    0.97
   2 -11  -5    6.01    1.06
   9   2  -5    7.86    1.14
   2 -11  -5    6.99    1.07
  -9  -2   5    6.25    0.97
  11  -9   5    6.78    1.17
  -2  11   5    5.23    0.91
  11  -9   5    6.81    1.07
  -1 -11  -5    0.50    0.49
  11 -12   5    0.25    0.48
  11 -12   5    0.43    0.50
   1  11   5    0.25    0.45
  -4 -11  -5   -0.68    0.54
   4  11   5    0.74    0.61
  -4  16  -5    8.81    1.51
  16 -12  -5    9.49    1.47
  12   4   5    9.82    1.33
   4 -16   5    7.75    1.38
  13 -12  -5   18.62    1.62
  -1  13  -5   17.12    1.85
   1 -13   5   16.36    1.88
  12   1   5   20.59    1.42
  10 -12  -5    1.51    0.63
   2  10  -5    0.93    0.49
   2  10  -5    0.97    0.61
  12  -2   5    0.70    0.42
  -2 -10   5    0.70    0.56
   7 -12  -5   12.50    1.30
   5   7  -5   11.16    1.29
   5   7  -5   13.24    1.37
   7 -12  -5   13.97    1.55
  12  -5   5   11.60    1.25
  -7  12   5   16.11    1.58
  -5  -7   5   12.13    1.42
  12  -5   5   11.63    1.11
   4 -12  -5   40.83    2.20
   8   4  -5   44.58    2.02
   8   4  -5   38.32    2.09
  12  -8   5   40.52    2.18
  12  -8   5   40.13    2.16
  -8  -4   5   46.23    2.23
   1 -12  -5    0.50    0.54
  11   1  -5    0.53    0.31
  12 -11   5    0.24    0.49
 -11  -1   5    0.07    0.36
  -1  12   5    0.28    0.48
  12 -11   5   -0.21    0.39
  -2 -12  -5    1.03    0.64
   2  12   5    0.67    0.59
  -2  15  -5    2.19    0.98
  15 -13  -5    1.03    0.73
   2 -15   5    1.43    0.80
  13   2   5    1.30    0.68
   1  12  -5   17.88    1.85
  12 -13  -5   19.46    1.69
  13  -1   5   16.65    1.31
  -1 -12   5   18.14    2.00
   4   9  -5   54.49    2.53
   4   9  -5   56.65    2.70
   9 -13  -5   52.66    2.64
  13  -4   5   53.15    2.38
  -4  -9   5   50.54    2.68
   7   6  -5    0.28    0.47
   7   6  -5    0.01    0.36
   6 -13  -5    0.47    0.48
  -7  -6   5   -0.53    0.38
  13  -7   5    0.02    0.37
  10   3  -5    3.37    0.86
   3 -13  -5    3.21    0.86
  10   3  -5    2.71    0.66
 -10  -3   5    2.33    0.74
  13 -10   5    2.13    0.70
  -3  13   5    3.65    0.84
   0 -13  -5   29.12    2.16
  13 -13   5   29.33    2.18
   0  13   5   32.20    2.07
  14 -14  -5    0.05    0.64
   0  14  -5    1.30    0.83
   0 -14   5    0.97    0.72
  14   0   5    1.27    0.61
   3  11  -5    8.79    1.33
  11 -14  -5   13.13    1.71
  -3 -11   5   12.73    1.62
  14  -3   5    9.92    1.22
   6   8  -5   -0.06    0.37
   6   8  -5   -0.24    0.39
   8 -14  -5    0.20    0.49
  14  -6   5    0.07    0.47
  -6  -8   5    0.07    0.55
   9   5  -5    5.14    1.06
   9   5  -5    5.20    0.96
   5 -14  -5    8.38    1.33
  -9  -5   5    6.89    1.18
  14  -9   5    6.93    1.24
  12   2  -5    0.61    0.49
   2 -14  -5    1.27    0.76
  14 -12   5   -0.38    0.50
  -2  14   5    0.55    0.56
 -12  -2   5    0.23    0.52
  -1 -14  -5    1.42    0.87
   1  14   5    1.79    0.77
   2  13  -5    0.85    0.72
  13 -15  -5    1.05    0.77
  15  -2   5    2.11    0.73
  -2 -13   5    1.00    0.81
   5  10  -5    2.84    0.91
  -5 -10   5    2.77    0.88
  15  -5   5    3.65    0.88
   8   7  -5   -0.31    0.36
   7 -15  -5   -0.02    0.52
   8   7  -5    0.43    0.48
  15  -8   5    0.54    0.55
  -8  -7   5    0.27    0.52
  11   4  -5    1.08    0.57
  11   4  -5   -0.10    0.48
   4 -15  -5    0.49    0.60
  15 -11   5    0.16    0.65
 -11  -4   5    0.50    0.59
  -4  15   5    0.14    0.54
   1 -15  -5    4.14    1.18
  15 -14   5    1.31    0.91
  -1  15   5    2.37    0.92
   4  12  -5    7.41    1.37
  16  -4   5    8.35    1.21
  -4 -12   5    7.79    1.48
   7   9  -5    0.90    0.67
  16  -7   5   -0.08    0.52
  -7  -9   5    0.02    0.54
  10   6  -5   10.44    1.57
   6 -16  -5    9.86    1.53
  16 -10   5    9.46    1.51
 -10  -6   5   12.09    1.72
  -6  16   5   10.28    1.48
   0   0  -6  134.11    3.75
   0   0  -6  135.05    3.43
   0   0   6  138.16    3.72
   0   0   6  135.88    3.82
  -1   2  -6   26.34    1.08
   2  -1  -6   26.36    0.88
  -1  -1  -6   25.48    1.14
  -1   2  -6   27.75    1.06
  -1   2  -6   27.52    1.01
  -1  -1  -6   25.54    0.98
  -1   2  -6   25.52    0.94
   2  -1  -6   26.16    0.87
   1  -2   6   27.37    1.09
   1   1   6   25.78    1.14
   1  -2   6   27.53    1.03
   1  -2   6   26.30    1.03
   1   1   6   25.63    1.00
   1   1  -6   23.65    0.95
   1  -2  -6   27.00    0.98
   1   1  -6   25.02    0.85
  -2   1  -6   27.95    0.99
  -2   1  -6   27.36    1.14
   1   1  -6   24.47    0.89
  -2   1  -6   27.78    1.13
   1  -2  -6   26.64    0.99
  -2   1  -6   28.69    1.06
   1  -2  -6   27.21    1.06
  -1   2   6   26.86    1.11
  -1   2   6   26.99    0.99
   2  -1   6   27.29    1.06
   2  -1   6   27.42    1.05
   2  -1   6   27.53    1.13
   2  -1   6   27.66    1.14
  -2   4  -6   16.49    0.89
  -2  -2  -6   13.81    0.89
  -2   4  -6   16.11    0.83
   4  -2  -6   12.68    0.55
  -2  -2  -6   12.97    0.72
  -2   4  -6   15.42    0.83
   4  -2  -6   11.90    0.55
   2  -4   6   13.45    0.82
   2   2   6   13.78    0.76
   2  -4   6   15.43    0.83
   2  -4   6   15.59    0.87
   2   2   6   12.90    0.75
   2   2   6   13.42    0.81
   2  -4   6   14.41    0.80
   3  -3  -6   24.19    0.97
  -3   0  -6   23.55    1.12
  -3   0  -6   24.96    0.97
   0   3  -6   26.56    1.08
  -3   0  -6   24.64    1.06
  -3   0  -6   24.81    1.12
   0  -3   6   25.77    1.00
   0  -3   6   24.88    1.02
   3   0   6   24.55    1.03
   3   0   6   25.00    1.08
   0  -3   6   24.53    1.02
   3   0   6   25.17    1.14
  -3   3   6   24.28    0.98
   0  -3  -6    2.18    0.39
  -3   3  -6    1.77    0.32
   0  -3  -6    1.06    0.28
  -3   3  -6    1.80    0.38
   0  -3  -6    2.01    0.41
  -3   3  -6    1.45    0.34
   0   3   6    2.00    0.40
   0   3   6    2.08    0.38
   3  -3   6    1.95    0.36
   3  -3   6    2.11    0.39
   0   3   6    1.99    0.35
   3  -3   6    2.39    0.36
   3  -3   6    1.74    0.36
  -3   6  -6    1.06    0.39
  -3   6  -6    0.49    0.22
  -3  -3  -6    1.08    0.36
   6  -3  -6    1.06    0.24
  -3   6  -6    0.41    0.31
   6  -3  -6    1.73    0.35
  -3  -3  -6    1.12    0.39
   3   3   6    0.90    0.30
   3   3   6    0.95    0.29
   3  -6   6    1.00    0.39
   3  -6   6    0.39    0.31
   3   3   6    1.66    0.37
   3   3   6    0.85    0.27
   3  -6   6    0.93    0.37
   3  -6   6    0.67    0.32
  -4  -1  -6   34.11    1.46
   5  -4  -6   32.66    1.22
  -1   5  -6   32.03    1.26
  -4  -1  -6   31.84    1.38
  -1   5  -6   33.40    1.30
  -1   5  -6   33.32    1.26
   4   1   6   32.49    1.31
   4   1   6   33.85    1.22
   4   1   6   33.63    1.33
  -5   4   6   32.84    1.17
   4   1   6   33.47    1.19
   1  -5   6   31.28    1.36
   1  -5   6   31.51    1.39
   1  -5   6   33.27    1.40
   2  -4  -6   11.63    0.75
  -4   2  -6   13.98    0.84
   2   2  -6   12.91    0.52
   2  -4  -6   11.07    0.76
  -4   2  -6   13.82    0.81
   2   2  -6   14.11    0.64
   2  -4  -6   11.84    0.75
  -4   2  -6   12.98    0.74
   2   2  -6   14.67    0.58
   2   2  -6   13.56    0.75
  -2   4   6   11.99    0.75
   4  -2   6   14.24    0.80
   4  -2   6   14.73    0.76
   4  -2   6   15.01    0.80
  -2   4   6   11.72    0.70
  -2   4   6   12.55    0.84
   4  -2   6   14.74    0.86
  -1  -4  -6    1.85    0.49
  -1  -4  -6    0.89    0.28
  -1  -4  -6    1.76    0.43
   5  -1  -6    0.82    0.26
  -4   5  -6    0.58    0.29
  -4   5  -6    0.99    0.29
   4  -5   6    1.16    0.35
   4  -5   6    1.56    0.42
   4  -5   6    1.29    0.31
   1   4   6    1.17    0.32
   4  -5   6    0.88    0.34
   1   4   6    1.20    0.37
   1   4   6    1.55    0.33
   8  -4  -6   -0.18    0.19
  -4   8  -6    0.51    0.25
  -4  -4  -6   -0.12    0.24
  -4   8  -6   -0.09    0.36
  -4   8  -6   -0.25    0.29
  -4  -4  -6    0.63    0.39
   8  -4  -6    0.15    0.22
  -4  -4  -6    0.17    0.30
   4  -8   6    0.41    0.28
   4  -8   6    0.46    0.33
   4  -8   6   -0.16    0.29
   4   4   6    0.27    0.31
   4  -8   6    0.04    0.31
   4  -8   6    0.22    0.33
   4   4   6    0.25    0.29
  -2   7  -6   22.50    1.15
  -5  -2  -6   26.08    1.30
  -2   7  -6   22.30    1.12
  -5  -2  -6   23.61    1.19
  -2   7  -6   22.95    1.20
   7  -5  -6   24.77    1.10
   7  -5  -6   24.11    1.06
   5   2   6   23.68    1.16
   2  -7   6   23.20    1.27
   5   2   6   22.93    1.21
  -7   5   6   23.93    0.97
   2  -7   6   23.36    1.24
   2  -7   6   25.50    1.25
   2  -7   6   22.64    1.30
   2  -7   6   23.86    1.31
   4  -5  -6   32.79    1.19
   1   4  -6   31.75    1.29
  -5   1  -6   32.08    1.41
   1   4  -6   35.36    1.37
   4  -5  -6   31.55    1.32
  -5   1  -6   31.86    1.33
   4  -5  -6   34.50    1.18
  -5   1  -6   31.31    1.37
   4  -5  -6   32.22    1.33
  -1  -4   6   32.84    1.22
  -4   5   6   35.02    1.39
  -1  -4   6   33.88    1.26
   5  -1   6   32.62    1.20
   5  -1   6   30.72    1.41
   5  -1   6   33.27    1.34
  -4   5   6   33.17    1.41
  -1  -4   6   32.64    1.21
   1  -5  -6    0.96    0.36
   1  -5  -6    1.17    0.36
   4   1  -6    0.82    0.29
  -5   4  -6    1.21    0.35
  -5   4  -6    0.66    0.30
  -5   4  -6    0.70    0.28
   1  -5  -6    1.52    0.40
   4   1  -6    1.36    0.32
   5  -4   6    0.93    0.36
   5  -4   6    1.46    0.39
  -1   5   6    1.03    0.32
   5  -4   6    1.58    0.35
   5  -4   6    0.95    0.32
  -1   5   6    1.68    0.45
   7  -2  -6   27.08    1.13
  -2  -5  -6   26.51    1.49
  -5   7  -6   24.10    1.36
  -2  -5  -6   26.15    1.22
  -2  -5  -6   27.37    1.35
  -2  -5  -6   27.04    1.39
  -5   7  -6   26.39    1.42
   5  -7   6   24.44    1.35
   2   5   6   27.07    1.27
   5  -7   6   23.83    1.31
   2   5   6   26.80    1.19
   5  -7   6   24.12    1.36
   5  -7   6   26.66    1.43
   2   5   6   24.74    1.24
  10  -5  -6   14.15    0.83
  -5  -5  -6   17.05    1.25
  10  -5  -6   15.46    0.92
  -5  10  -6   14.19    1.24
  -5  10  -6   12.91    0.93
   5 -10   6   14.67    1.18
   5 -10   6   13.71    1.05
   5   5   6   17.39    1.20
   5 -10   6   13.74    1.19
   5 -10   6   15.06    1.24
  -3   9  -6    0.03    0.23
  -3   9  -6    0.62    0.32
  -6  -3  -6    0.17    0.33
   9  -6  -6    0.67    0.33
   9  -6  -6    0.06    0.25
  -6  -3  -6    0.42    0.37
   3  -9   6    0.36    0.39
   6   3   6    0.45    0.34
   3  -9   6    0.61    0.44
   3  -9   6    0.25    0.34
  -9   6   6    0.25    0.22
   6   3   6    0.28    0.33
   3  -9   6    0.46    0.37
  -9   6   6    0.70    0.28
   6  -6  -6    1.33    0.38
  -6   0  -6    0.89    0.32
   0   6  -6    0.78    0.33
   6  -6  -6    0.51    0.25
  -6   0  -6    0.91    0.36
   6   0   6    1.32    0.40
   0  -6   6    1.32    0.37
   6   0   6    0.98    0.31
  -6   6   6    1.20    0.36
   0  -6   6    0.87    0.35
   0  -6   6    1.06    0.34
   0  -6   6    1.05    0.35
  -6   6   6    1.50    0.38
   3  -6  -6    1.15    0.39
  -6   3  -6    0.08    0.24
  -6   3  -6    0.57    0.28
   3   3  -6    0.62    0.26
   3  -6  -6    1.87    0.42
  -6   3  -6    0.94    0.30
   3  -6  -6    1.11    0.37
   3   3  -6    0.81    0.22
   3   3  -6    0.57    0.27
   6  -3   6    1.08    0.36
  -3   6   6    0.74    0.33
  -3   6   6    1.11    0.45
   6  -3   6    1.02    0.27
   6  -3   6    1.01    0.39
  -6   6  -6    0.57    0.31
   0  -6  -6    0.66    0.41
   0  -6  -6    0.28    0.26
   6   0  -6    0.49    0.26
   6   0  -6    0.28    0.24
   0  -6  -6    0.28    0.29
  -6   6  -6    0.14    0.30
   0  -6  -6    0.45    0.36
   6  -6   6    0.39    0.25
   6  -6   6    0.31    0.30
   0   6   6    0.82    0.30
   6  -6   6    0.59    0.31
   0   6   6    0.28    0.30
   0   6   6    0.46    0.29
   6  -6   6    0.52    0.32
  -3  -6  -6    0.44    0.32
  -3  -6  -6    0.27    0.37
  -6   9  -6    0.38    0.40
  -6   9  -6    0.24    0.42
  -3  -6  -6    0.72    0.46
  -6   9  -6    0.21    0.24
   9  -3  -6    0.69    0.29
   6  -9   6    0.36    0.38
   6  -9   6    0.34    0.37
   6  -9   6    0.79    0.45
   3   6   6    0.31    0.32
   6  -9   6    0.58    0.38
   6  -9   6    0.42    0.30
  12  -6  -6   10.27    0.90
  -6  -6  -6   11.60    1.35
   6 -12   6   11.99    1.29
   6 -12   6   14.53    1.70
   6   6   6   13.55    1.42
   6   6   6   10.12    1.25
  -4  11  -6   30.95    1.57
  11  -7  -6   31.51    1.54
  -7  -4  -6   28.53    1.67
   7   4   6   31.63    1.76
   7   4   6   34.28    1.65
   4 -11   6   27.53    1.65
   4 -11   6   28.67    1.79
   4 -11   6   32.27    1.93
   8  -7  -6    9.39    1.00
   8  -7  -6    8.54    0.74
  -7  -1  -6    8.61    0.81
  -1   8  -6    9.31    0.97
  -7  -1  -6    9.62    0.80
   1  -8   6    9.23    0.90
   7   1   6    8.89    0.77
   1  -8   6   10.84    1.09
   1  -8   6    9.10    0.83
  -8   7   6    7.73    0.75
   1  -8   6    9.72    0.93
  -8   7   6    7.57    0.73
   2   5  -6   24.77    1.24
   2   5  -6   24.17    1.22
   5  -7  -6   23.77    1.22
   2   5  -6   24.33    1.12
  -7   2  -6   23.83    1.16
  -7   2  -6   23.61    1.23
   5  -7  -6   24.70    1.28
   5  -7  -6   25.43    1.14
  -5   7   6   24.74    1.36
  -2  -5   6   24.30    1.04
  -2  -5   6   25.83    1.08
  -5   7   6   24.41    1.30
   7  -2   6   23.59    1.27
   7  -2   6   23.88    1.21
  -2  -5   6   22.57    1.03
   5   2  -6   27.31    1.26
  -7   5  -6   25.52    1.36
   2  -7  -6   30.27    1.41
   2  -7  -6   26.04    1.43
   5   2  -6   26.33    1.24
   2  -7  -6   25.07    1.37
  -7   5  -6   25.56    1.31
  -2   7   6   27.47    1.51
   7  -5   6   25.68    1.16
  -2   7   6   26.66    1.40
   7  -5   6   24.22    1.36
   7  -5   6   25.80    1.18
   7  -5   6   24.90    1.38
  -7   8  -6   15.42    1.19
  -7   8  -6   18.30    1.29
  -1  -7  -6   17.17    1.18
  -1  -7  -6   18.09    1.36
   8  -1  -6   17.97    1.00
  -1  -7  -6   18.61    1.28
   7  -8   6   16.52    1.10
   1   7   6   19.04    1.09
   7  -8   6   15.51    1.19
   7  -8   6   17.17    1.16
   7  -8   6   16.05    1.25
   1   7   6   16.67    1.11
   1   7   6   18.55    1.12
  -4  -7  -6   22.46    1.57
   7 -11   6   24.67    1.87
   4   7   6   23.48    1.50
   7 -11   6   21.88    1.29
  -7  -7  -6    0.62    0.58
  14  -7  -6    1.51    0.55
   7 -14   6    1.01    0.63
   7   7   6    1.16    0.56
   7   7   6    0.49    0.56
  13  -8  -6   -0.12    0.34
  -8  -5  -6   -0.24    0.48
   5 -13   6   -0.23    0.41
   8   5   6   -0.11    0.35
   8   5   6    0.42    0.48
  -2  10  -6    9.68    1.08
  -8  -2  -6    8.63    1.01
  10  -8  -6    7.81    0.96
   2 -10   6    8.93    1.12
   2 -10   6    9.29    1.16
   8   2   6    7.35    0.90
   1   7  -6   10.08    1.10
   1   7  -6    7.86    0.87
  -8   1  -6    8.45    0.68
  -8   1  -6    9.24    0.82
   7  -8  -6    8.91    1.01
   7  -8  -6    8.61    0.91
  -7   8   6    8.41    0.84
   8  -1   6    8.74    0.84
  -7   8   6    8.74    1.05
  -1  -7   6    7.51    0.96
   8  -1   6    8.72    0.79
  -1  -7   6    9.03    0.80
  -1  -7   6   11.14    0.90
  -1  -7   6    9.65    0.79
   4   4  -6   -0.29    0.21
   4   4  -6    0.37    0.27
  -8   4  -6    0.40    0.34
   4   4  -6    0.10    0.19
  -8   4  -6    0.39    0.30
   4  -8  -6   -0.04    0.29
   4  -8  -6    0.06    0.28
   4  -8  -6    0.26    0.33
   8  -4   6    0.55    0.34
  -4   8   6    0.03    0.37
  -4   8   6    0.25    0.34
   8  -4   6    0.01    0.28
   1  -8  -6   18.11    1.33
   7   1  -6   19.35    1.10
  -8   7  -6   19.80    1.30
   7   1  -6   18.71    1.15
   1  -8  -6   16.89    1.19
  -8   7  -6   18.13    1.22
   1  -8  -6   17.21    1.24
   1  -8  -6   18.56    1.20
   8  -7   6   18.49    1.08
   8  -7   6   15.65    1.21
  -1   8   6   15.69    1.06
  -1   8   6   18.84    1.33
   8  -7   6   16.64    1.01
  -1   8   6   16.39    1.13
   8  -7   6   17.38    1.25
  -8  10  -6    6.60    1.08
  -2  -8  -6    4.61    0.91
  10  -2  -6    7.69    0.81
  -2  -8  -6    6.83    1.04
   2   8   6    4.33    0.76
   8 -10   6    5.55    0.98
   8 -10   6    5.88    1.02
  13  -5  -6    0.20    0.32
  -5  -8  -6    0.09    0.44
   5   8   6    0.06    0.38
  -8  -8  -6    2.07    0.84
  16  -8  -6    0.91    0.56
   8   8   6    2.40    0.80
   8   8   6    0.10    0.55
  -9  -6  -6    0.58    0.60
  15  -9  -6    0.59    0.49
   9   6   6    0.91    0.62
   6 -15   6    0.04    0.58
   9   6   6    0.83    0.52
  -9  -3  -6   -0.06    0.41
  12  -9  -6    0.97    0.48
   3 -12   6    0.81    0.51
   9   3   6    0.73    0.46
   9   3   6    0.36    0.36
   9  -9  -6   11.75    0.95
  -9   0  -6   12.03    0.93
   9  -9  -6   13.35    1.13
   0   9  -6   13.56    1.37
   0   9  -6   14.05    1.09
   0  -9   6   14.63    1.27
   9   0   6   14.07    1.03
  -9   3  -6    0.97    0.36
   3   6  -6    0.48    0.38
   3   6  -6    0.68    0.41
   6  -9  -6    0.62    0.35
  -9   3  -6    0.94    0.42
   6  -9  -6    0.34    0.32
   6  -9  -6    0.28    0.37
  -3  -6   6    0.70    0.33
  -6   9   6    0.35    0.36
  -3  -6   6    0.52    0.40
   9  -3   6    0.05    0.30
   9  -3   6    0.19    0.30
  -3  -6   6    0.70    0.34
  -6   9   6    0.91    0.49
   6   3  -6    0.68    0.34
  -9   6  -6    0.86    0.42
   3  -9  -6    0.51    0.35
   3  -9  -6    0.82    0.46
   3  -9  -6    0.93    0.42
  -9   6  -6    0.27    0.37
   3  -9  -6    0.93    0.47
   6   3  -6   -0.01    0.27
   9  -6   6    0.50    0.37
  -3   9   6    1.18    0.56
  -3   9   6    0.27    0.34
   9  -6   6    1.21    0.50
  -9   9  -6    0.39    0.40
   0  -9  -6    0.96    0.47
   0  -9  -6    0.78    0.44
  -9   9  -6    0.72    0.45
   9   0  -6    0.99    0.35
   0  -9  -6    1.56    0.65
   9  -9   6    0.64    0.44
   9  -9   6    0.57    0.50
   0   9   6    1.07    0.46
  -3  -9  -6    2.90    0.83
   9 -12   6    2.07    0.79
   3   9   6    2.29    0.70
  15  -6  -6    0.15    0.39
  -6  -9  -6    0.20    0.54
   6   9   6   -0.23    0.38
 -10  -4  -6   -0.15    0.51
  14 -10  -6    0.64    0.55
  10   4   6   -0.09    0.36
   4 -14   6    0.38    0.57
  10   4   6    0.15    0.39
  -1  11  -6    3.62    0.88
  11 -10  -6    2.95    0.75
  -1  11  -6    2.78    0.66
  10   1   6    3.95    0.71
   1 -11   6    3.04    0.77
   8 -10  -6    9.57    1.04
   2   8  -6    7.44    1.02
   8 -10  -6    8.33    1.07
   2   8  -6    9.04    1.11
  -8  10   6    9.23    1.18
  10  -2   6    9.95    1.08
  -2  -8   6    6.70    1.05
  10  -2   6    9.81    1.18
   5   5  -6   14.82    1.15
   5 -10  -6   16.48    1.25
   5   5  -6   15.38    1.11
   5 -10  -6   15.85    1.23
  -5  -5   6   14.77    1.22
  10  -5   6   13.88    1.11
  -5  10   6   13.56    1.31
  10  -5   6   14.03    1.15
  -5  10   6   14.08    1.21
 -10   8  -6    5.78    0.95
   8   2  -6    5.61    0.89
   2 -10  -6    5.37    0.89
   8   2  -6    4.51    0.72
   2 -10  -6    5.72    0.96
  -8  -2   6    5.88    0.91
  10  -8   6    5.29    0.96
  -2  10   6    6.15    0.91
  10  -8   6    5.94    1.07
  -1 -10  -6    2.42    0.78
  11  -1  -6    1.36    0.49
 -11   1   6    2.03    0.57
  10 -11   6    2.51    0.76
  10 -11   6    1.71    0.65
   1  10   6    2.82    0.72
  -4 -10  -6    1.68    0.76
   4  10   6    1.46    0.67
  16 -11  -6    5.76    1.20
 -11  -5  -6    7.05    1.25
   5 -16   6    6.33    1.22
  11   5   6    9.19    1.43
  -2  13  -6    1.25    0.72
  13 -11  -6    1.32    0.64
   2 -13   6    1.31    0.74
  11   2   6    1.09    0.52
   1  10  -6    1.97    0.68
   1  10  -6    1.79    0.55
  10 -11  -6    3.53    0.84
  11  -1   6    4.89    0.81
  -1 -10   6    1.64    0.64
   4   7  -6   31.44    1.77
   4   7  -6   31.54    1.72
   7 -11  -6   29.40    1.67
   7 -11  -6   30.32    1.78
  -7  11   6   31.62    1.87
  11  -4   6   30.34    1.72
  -4  -7   6   29.58    1.82
  11  -4   6   31.41    1.68
   4 -11  -6   24.28    1.64
   7   4  -6   23.60    1.49
   7   4  -6   24.97    1.48
  -7  -4   6   26.71    1.64
  11  -7   6   22.61    1.54
  11  -7   6   23.30    1.56
   1 -11  -6    2.88    0.79
  10   1  -6    2.25    0.56
  11 -10   6    2.99    0.75
  -1  11   6    1.23    0.55
 -10  -1   6    1.48    0.55
  11 -10   6    1.18    0.54
  -2 -11  -6   -0.04    0.47
   2  11   6    0.39    0.54
  -5 -11  -6    5.34    1.24
  16  -5  -6    5.30    0.84
   5  11   6    6.45    1.29
  -3  15  -6    7.62    1.38
  15 -12  -6   11.19    1.53
   3 -15   6   11.23    1.61
  12   3   6   11.98    1.53
   0  12  -6    1.74    0.75
  12 -12  -6    1.28    0.70
   0 -12   6    2.90    0.90
  12   0   6    2.11    0.63
   9 -12  -6    0.30    0.42
   9 -12  -6    0.11    0.51
   3   9  -6    0.48    0.43
   3   9  -6    0.14    0.42
  -3  -9   6    0.00    0.41
  12  -3   6    0.57    0.42
   6 -12  -6   13.78    1.48
   6   6  -6   10.72    1.27
   6 -12  -6   10.77    1.37
   6   6  -6   13.83    1.38
  -6  12   6   12.32    1.56
  12  -6   6   11.77    1.38
  -6  -6   6   14.91    1.56
  12  -6   6   11.44    1.35
   3 -12  -6    3.08    0.82
   9   3  -6    2.15    0.60
   9   3  -6    2.25    0.69
  12  -9   6    1.34    0.63
  12  -9   6    2.25    0.79
  -3  12   6    1.79    0.66
  -9  -3   6    3.10    0.76
   0 -12  -6    3.80    1.00
  12 -12   6    2.29    0.82
   0  12   6    3.80    0.86
  12 -12   6    2.51    0.82
  -3 -12  -6   19.20    2.20
   3  12   6   20.60    2.13
  -1  14  -6    0.39    0.67
  14 -13  -6    0.53    0.63
   1 -14   6   -0.13    0.60
  13   1   6    0.09    0.42
   2  11  -6    1.09    0.63
   2  11  -6    1.78    0.65
  11 -13  -6    0.93    0.63
  -2 -11   6    2.00    0.81
  13  -2   6    0.95    0.55
   5   8  -6    0.39    0.49
   8 -13  -6    0.28    0.48
   5   8  -6    0.02    0.39
   8 -13  -6    0.50    0.60
  13  -5   6   -0.15    0.34
  -5  -8   6   -0.52    0.41
   5 -13  -6    0.03    0.49
   8   5  -6    0.10    0.38
   8   5  -6    0.51    0.41
  -8  -5   6    0.15    0.46
  13  -8   6    0.70    0.57
   2 -13  -6   -0.35    0.43
  11   2  -6   -0.01    0.37
  -2  13   6    0.16    0.43
 -11  -2   6    0.27    0.48
  13 -11   6   -0.35    0.51
  -1 -13  -6    1.62    0.87
   1  13   6    3.67    0.95
  13 -14  -6    0.96    0.74
   1  13  -6   -0.09    0.57
  -1 -13   6   -0.30    0.63
  14  -1   6    0.32    0.47
   4  10  -6   -0.05    0.49
   4  10  -6    0.67    0.58
  10 -14  -6    0.52    0.64
  -4 -10   6    0.35    0.60
  14  -4   6    0.45    0.48
   7   7  -6    1.57    0.61
   7   7  -6    1.24    0.65
   7 -14  -6    0.92    0.67
  -7  -7   6    1.67    0.71
  14  -7   6    1.26    0.58
  10   4  -6    1.13    0.62
   4 -14  -6    2.46    0.84
  10   4  -6    1.33    0.60
  -4  14   6    1.89    0.69
 -10  -4   6    3.17    0.87
  14 -10   6    3.66    0.95
   1 -14  -6    2.07    0.91
  14 -13   6    1.36    0.81
  -1  14   6    2.40    0.88
   3  12  -6    8.93    1.43
  12 -15  -6    8.97    1.43
  -3 -12   6    8.31    1.47
  15  -3   6   11.06    1.47
   6   9  -6   -0.03    0.40
   6   9  -6    1.43    0.70
  -6  -9   6    0.45    0.62
  15  -6   6    0.62    0.56
   6 -15  -6   -0.48    0.47
   9   6  -6    0.09    0.44
   9   6  -6   -0.18    0.45
  -9  -6   6    0.52    0.55
  15  -9   6    0.11    0.59
  12   3  -6   19.51    1.54
   3 -15  -6   22.17    2.24
  15 -12   6   23.13    2.02
 -12  -3   6   18.51    1.94
  -3  15   6   19.66    1.70
   5  11  -6    4.64    1.15
  -5 -11   6    4.15    1.12
  16  -5   6    6.84    1.18
   8   8  -6    1.12    0.67
   8 -16  -6    1.16    0.71
   8   8  -6    1.01    0.65
  16  -8   6    0.42    0.59
  -8  -8   6    0.33    0.70
   5 -16  -6    4.30    1.09
  11   5  -6    4.97    1.14
  11   5  -6    6.10    1.12
  -5  16   6    5.99    1.25
 -11  -5   6    3.75    1.02
  16 -11   6    4.72    1.26
   1  -1  -7  238.60    5.58
   0   1  -7  218.42    5.51
   0   1  -7  227.38    6.09
   1  -1  -7  229.12    5.94
   0   1  -7  220.61    5.95
  -1   0  -7  228.95    6.17
   0   1  -7  232.29    5.92
  -1   0  -7  230.51    6.22
  -1   0  -7  221.98    6.06
  -1   0  -7  227.57    5.59
   1  -1  -7  237.82    5.90
   0  -1   7  224.65    6.06
   1   0   7  232.67    6.13
  -1   1   7  228.48    6.10
   0  -1   7  220.31    6.10
  -1   1   7  226.33    6.00
   0  -1   7  223.96    6.00
   1   0   7  218.99    6.21
   1   0   7  233.06    5.66
  -1   3  -7  240.67    6.50
  -2  -1  -7  240.60    6.62
  -1   3  -7  232.31    6.37
   3  -2  -7  224.52    5.76
  -1   3  -7  236.79    6.34
  -2  -1  -7  239.28    6.48
  -2  -1  -7  243.97    6.55
  -2  -1  -7  241.04    5.93
   3  -2  -7  238.78    5.79
   1  -3   7  241.82    6.42
   2   1   7  246.44    6.01
   2   1   7  237.50    6.57
   1  -3   7  235.60    6.50
   1  -3   7  238.77    6.46
   2   0  -7   68.60    1.82
   0  -2  -7   65.96    2.03
  -2   2  -7   65.88    2.23
  -2   2  -7   67.05    2.00
   0  -2  -7   67.86    2.27
  -2   2  -7   68.17    2.17
  -2   2  -7   68.18    2.25
   2   0  -7   67.30    1.84
   2  -2   7   65.61    2.15
   0   2   7   67.15    2.30
   0   2   7   67.81    2.04
   2  -2   7   66.55    2.08
   2  -2   7   64.17    2.22
  -3  -2  -7    9.26    0.72
  -3  -2  -7    7.79    0.69
  -3  -2  -7    7.35    0.59
   5  -3  -7    8.36    0.49
  -2   5  -7    7.39    0.63
   5  -3  -7    7.97    0.62
  -2   5  -7    7.63    0.58
  -3  -2  -7    9.08    0.79
   5  -3  -7    7.10    0.50
  -2   5  -7    7.53    0.65
   3   2   7    7.08    0.62
   2  -5   7    8.15    0.67
   2  -5   7    6.74    0.64
   3   2   7    7.87    0.60
   2  -5   7    8.04    0.71
   2  -5   7    7.44    0.66
   3   2   7    7.16    0.59
   2  -3  -7  236.76    6.36
   2  -3  -7  238.26    5.92
  -3   1  -7  236.48    6.60
  -3   1  -7  244.34    6.56
   2  -3  -7  237.05    6.29
  -3   1  -7  239.98    5.94
   1   2  -7  231.50    5.74
   1   2  -7  243.09    5.85
   2  -3  -7  239.10    5.96
  -3   1  -7  238.08    6.48
   1   2  -7  240.02    6.34
   3  -1   7  238.97    6.48
   3  -1   7  242.77    6.57
   3  -1   7  238.54    6.56
  -2   3   7  247.17    6.56
  -1  -2   7  238.51    6.27
  -1  -2   7  232.70    6.22
   3  -1   7  241.29    6.06
  -3   4  -7   35.53    1.43
   4  -1  -7   34.07    1.31
  -3   4  -7   35.44    1.50
  -1  -3  -7   31.99    1.52
  -1  -3  -7   33.63    1.33
  -3   4  -7   35.46    1.49
  -1  -3  -7   33.56    1.41
   1   3   7   34.56    1.36
   3  -4   7   35.89    1.50
   3  -4   7   33.61    1.41
   1   3   7   35.05    1.52
   3  -4   7   36.83    1.45
   1   3   7   31.99    1.39
   3  -4   7   35.39    1.51
  -4  -3  -7    8.49    0.91
   7  -4  -7    7.06    0.61
  -4  -3  -7    6.87    0.86
  -3   7  -7    8.00    0.78
  -3   7  -7    7.79    0.64
   7  -4  -7    5.77    0.52
  -3   7  -7    7.50    0.74
   3  -7   7    8.22    0.96
   4   3   7    7.87    0.86
   3  -7   7    7.00    0.89
   3  -7   7    8.84    1.02
   3  -7   7    7.88    0.80
   4   3   7    7.71    0.58
   4   3   7    6.45    0.72
   3  -7   7    7.93    0.88
   4   3   7    7.24    0.53
  -4   0  -7   23.54    1.19
  -4   0  -7   21.50    0.97
  -4   0  -7   22.86    1.09
   4  -4  -7   23.74    1.04
   4  -4  -7   27.01    1.15
   0   4  -7   22.01    1.04
  -4   0  -7   23.04    1.16
   0   4  -7   24.74    1.14
   4   0   7   22.17    1.07
   0  -4   7   22.43    1.05
   0  -4   7   20.66    1.03
   0  -4   7   21.91    1.03
  -4   4   7   24.81    1.06
   1  -4  -7   32.59    1.40
   1  -4  -7   32.55    1.34
  -4   3  -7   34.31    1.47
   1  -4  -7   32.89    1.47
   3   1  -7   33.55    1.31
  -4   3  -7   36.23    1.43
  -1   4   7   33.56    1.42
   4  -3   7   33.88    1.49
  -1   4   7   31.17    1.29
   4  -3   7   36.39    1.40
   4  -3   7   36.15    1.46
  -1   4   7   32.17    1.51
   6  -2  -7   15.62    0.84
  -2  -4  -7   12.17    0.81
  -2  -4  -7   12.74    1.01
  -4   6  -7   14.01    0.99
  -4   6  -7   14.79    0.98
  -4   6  -7   15.08    0.77
  -2  -4  -7   13.39    0.95
   2   4   7   13.66    0.92
   4  -6   7   15.57    1.04
   2   4   7   11.95    0.84
   2   4   7   13.84    0.85
   2   4   7   14.20    0.85
   4  -6   7   14.38    0.99
   4  -6   7   14.59    0.95
   4  -6   7   14.40    1.00
  -4   9  -7  119.95    4.00
   9  -5  -7  116.95    3.31
   9  -5  -7  111.65    3.32
  -4   9  -7  115.88    3.43
  -5  -4  -7  118.68    4.09
  -5  -4  -7  113.62    3.71
   4  -9   7  119.84    4.11
   4  -9   7  120.07    4.08
   4  -9   7  122.75    4.07
   5   4   7  118.15    3.70
   4  -9   7  118.19    3.63
   5   4   7  118.86    3.68
   6  -5  -7   25.61    1.15
  -1   6  -7   25.40    1.06
  -5  -1  -7   24.24    1.17
  -1   6  -7   25.25    1.04
  -5  -1  -7   24.03    1.30
   6  -5  -7   24.58    1.17
  -1   6  -7   25.20    1.18
   1  -6   7   28.42    1.32
   5   1   7   24.12    1.19
   1  -6   7   26.87    1.28
  -6   5   7   23.94    1.08
   1  -6   7   25.66    1.29
  -5   2  -7    6.34    0.59
  -5   2  -7    8.08    0.68
   2   3  -7    8.37    0.65
   3  -5  -7    7.70    0.67
   2   3  -7    7.38    0.55
   3  -5  -7    9.01    0.72
   2   3  -7    7.72    0.59
   3  -5  -7    8.79    0.65
   2   3  -7    7.99    0.53
  -5   2  -7    7.75    0.71
   5  -2   7    8.42    0.70
  -3   5   7    8.01    0.62
  -3   5   7    7.78    0.74
   5  -2   7    6.59    0.76
  -3   5   7    8.20    0.68
  -5   5  -7  100.28    3.19
   5   0  -7   95.24    2.71
  -5   5  -7  100.05    3.27
   5   0  -7  100.69    2.84
   0  -5  -7   96.88    3.32
   0  -5  -7   94.80    3.03
  -5   5  -7   99.32    3.26
   0  -5  -7   88.66    2.89
   5  -5   7   95.80    3.06
   5  -5   7   96.51    3.09
   0   5   7   93.32    3.13
   0   5   7   92.19    2.70
   5  -5   7   98.84    3.20
   5  -5   7  101.27    3.29
   0   5   7   90.83    3.25
  -3  -5  -7   23.86    1.40
  -5   8  -7   22.12    1.38
   8  -3  -7   26.89    1.15
  -3  -5  -7   23.92    1.49
  -5   8  -7   24.22    1.08
  -5   8  -7   23.98    1.42
   5  -8   7   23.73    1.37
   3   5   7   23.59    1.28
   3   5   7   23.74    1.30
   5  -8   7   22.61    1.40
   3   5   7   22.78    1.08
   5  -8   7   23.74    1.45
   3   5   7   21.23    1.13
   5  -8   7   23.82    1.17
   5  -8   7   25.14    1.46
  -5  11  -7   22.95    1.30
  -6  -5  -7   23.61    1.53
  11  -6  -7   22.10    1.21
   6   5   7   23.49    1.42
   6   5   7   23.81    1.54
   5 -11   7   22.51    1.60
   5 -11   7   22.93    1.45
   8  -6  -7   29.84    1.38
  -2   8  -7   30.18    1.42
   8  -6  -7   30.51    1.32
  -2   8  -7   31.15    1.40
  -6  -2  -7   31.21    1.48
  -2   8  -7   27.96    1.39
  -6  -2  -7   29.18    1.56
   2  -8   7   32.18    1.60
   2  -8   7   31.70    1.63
   6   2   7   33.75    1.51
   2  -8   7   28.56    1.53
   2  -8   7   28.28    1.58
  -8   6   7   28.28    1.26
   6   2   7   32.17    1.56
  -6   1  -7   26.71    1.32
   5  -6  -7   24.61    1.22
   1   5  -7   22.84    1.20
  -6   1  -7   25.05    1.21
   5  -6  -7   25.80    1.24
   1   5  -7   24.66    1.21
   6  -1   7   25.44    1.23
  -1  -5   7   23.98    1.13
  -1  -5   7   24.47    1.12
  -5   6   7   24.85    1.27
   6  -1   7   27.16    1.35
  -1  -5   7   22.61    1.09
  -5   6   7   25.66    1.24
  -6   4  -7   16.64    0.96
   4   2  -7   13.61    0.85
   2  -6  -7   15.13    1.02
   4   2  -7   13.16    0.83
  -6   4  -7   15.76    1.02
   2  -6  -7   14.32    0.99
  -6   4  -7   15.78    1.00
   2  -6  -7   13.68    0.93
  -2   6   7   13.52    0.94
  -2   6   7   14.01    1.05
   6  -4   7   15.42    1.03
   6  -4   7   14.66    0.85
   6  -4   7   17.21    0.95
   6  -4   7   13.16    0.95
   7  -1  -7  183.45    4.88
  -6   7  -7  191.65    5.75
  -1  -6  -7  186.59    5.29
  -6   7  -7  184.43    5.66
  -1  -6  -7  188.83    5.15
  -1  -6  -7  184.93    5.81
   6  -7   7  185.36    5.74
   1   6   7  190.69    5.51
   6  -7   7  189.98    5.65
   1   6   7  187.16    5.65
   6  -7   7  189.73    5.44
   6  -7   7  184.63    5.55
   1   6   7  188.67    4.97
  -4  -6  -7   17.93    1.36
  -6  10  -7   21.48    1.49
  10  -4  -7   16.39    0.99
  -6  10  -7   18.97    1.05
   6 -10   7   16.96    1.11
   6 -10   7   18.48    1.39
   6 -10   7   17.91    1.48
   6 -10   7   20.00    1.43
   4   6   7   20.48    1.30
  13  -7  -7    9.31    1.06
  -7  -6  -7   12.40    1.48
   7   6   7    8.97    1.13
   6 -13   7    9.12    1.22
   7   6   7    6.39    1.06
  -7  -3  -7  145.28    4.41
  10  -7  -7  151.11    4.35
  -3  10  -7  144.40    4.30
   3 -10   7  145.59    4.53
   7   3   7  144.05    4.51
   3 -10   7  145.64    4.92
   7   3   7  145.61    4.41
  -7   0  -7   72.41    2.30
   0   7  -7   69.67    2.49
   7  -7  -7   69.68    2.49
  -7   0  -7   69.40    2.64
   7  -7  -7   71.61    2.40
  -7   7   7   73.69    2.57
   0  -7   7   70.25    2.62
   0  -7   7   72.17    2.56
   7   0   7   68.59    2.45
  -7   7   7   71.48    2.59
   0  -7   7   71.45    2.65
   0  -7   7   71.73    2.62
   4  -7  -7    6.96    0.82
   3   4  -7    7.97    0.81
   3   4  -7    8.76    0.75
  -7   3  -7    7.57    0.88
   4  -7  -7    6.15    0.78
   3   4  -7    8.27    0.61
  -7   3  -7    6.75    0.66
   4  -7  -7    7.47    0.69
  -4   7   7    8.32    0.96
   7  -3   7    7.26    0.87
   7  -3   7    8.00    0.55
  -4   7   7    9.01    1.09
   7  -3   7    8.07    0.85
  -7   6  -7  191.61    5.66
  -7   6  -7  183.64    5.71
   6   1  -7  188.83    4.98
   1  -7  -7  191.54    5.29
   1  -7  -7  186.60    5.34
   1  -7  -7  187.95    5.82
   6   1  -7  188.73    5.03
  -1   7   7  196.06    5.68
  -1   7   7  187.54    4.95
   7  -6   7  187.66    5.75
  -1   7   7  185.72    5.81
   7  -6   7  188.46    5.52
   7  -6   7  185.72    5.45
   7  -6   7  192.09    5.43
  -7   9  -7   66.69    2.79
  -2  -7  -7   66.91    2.68
  -7   9  -7   63.90    2.72
  -2  -7  -7   63.87    2.86
  -2  -7  -7   67.53    2.71
   9  -2  -7   69.47    2.27
   2   7   7   66.29    2.49
   7  -9   7   65.43    2.22
   7  -9   7   66.71    2.69
   7  -9   7   65.37    2.82
   7  -9   7   68.18    2.75
  -5  -7  -7    0.54    0.49
  12  -5  -7    1.41    0.41
   5   7   7    1.36    0.52
   7 -12   7    0.10    0.45
   5   7   7    0.58    0.45
  -8  -7  -7    6.86    1.23
  15  -8  -7    7.48    1.06
   8   7   7    7.41    1.20
   8   7   7    6.94    1.22
  -4  12  -7   18.09    1.32
  12  -8  -7   23.01    1.40
  -8  -4  -7   21.59    1.52
   8   4   7   21.53    1.56
   4 -12   7   22.08    1.59
   8   4   7   23.75    1.48
   9  -8  -7   60.26    2.33
  -8  -1  -7   58.26    2.19
  -1   9  -7   57.48    2.30
   9  -8  -7   58.38    2.14
   8   1   7   60.90    2.29
   1  -9   7   55.92    2.45
   1  -9   7   57.32    2.51
   2   6  -7   29.79    1.51
   6  -8  -7   34.35    1.56
  -8   2  -7   30.60    1.54
   6  -8  -7   30.48    1.56
   6  -8  -7   27.64    1.26
  -8   2  -7   32.08    1.48
   2   6  -7   32.34    1.55
   8  -2   7   30.39    1.51
   8  -2   7   29.44    1.57
  -2  -6   7   30.86    1.40
  -6   8   7   32.92    1.70
  -2  -6   7   29.13    1.61
  -6   8   7   29.25    1.56
  -2  -6   7   31.72    1.31
  -2  -6   7   31.19    1.38
  -8   5  -7   23.56    1.40
   3  -8  -7   26.13    1.49
   5   3  -7   22.65    1.27
  -8   5  -7   26.89    1.38
   3  -8  -7   25.42    1.44
   5   3  -7   22.91    1.28
   3  -8  -7   26.88    1.44
   8  -5   7   25.16    1.14
   8  -5   7   25.94    1.44
   8  -5   7   26.17    1.48
  -3   8   7   26.90    1.50
  -3   8   7   27.86    1.63
   0  -8  -7  154.08    4.95
   0  -8  -7  146.91    4.70
  -8   8  -7  150.47    4.94
   8   0  -7  154.44    4.32
   0  -8  -7  161.26    5.21
  -8   8  -7  155.45    5.05
   8  -8   7  154.57    4.86
   8  -8   7  150.54    5.05
   0   8   7  155.30    5.01
   0   8   7  151.71    4.39
   8  -8   7  149.40    4.77
  11  -3  -7    9.32    0.92
  -8  11  -7    9.90    1.31
  -3  -8  -7    9.03    1.22
   8 -11   7    9.97    1.29
   3   8   7    9.14    1.16
   8 -11   7   11.15    1.54
  14  -6  -7    2.85    0.61
  -6  -8  -7    2.70    0.87
   6   8   7    2.33    0.76
   6   8   7    1.68    0.66
  14  -9  -7   14.25    1.52
  -9  -5  -7   10.19    1.40
   9   5   7    9.75    1.27
   9   5   7   11.26    1.52
   5 -14   7    9.71    1.40
  -2  11  -7   42.17    2.01
  -9  -2  -7   42.15    1.95
  11  -9  -7   38.31    1.95
   2 -11   7   41.71    2.19
   9   2   7   39.83    1.91
   8  -9  -7   61.87    2.47
   1   8  -7   59.12    2.45
   1   8  -7   57.38    2.37
   8  -9  -7   56.30    2.22
  -1  -8   7   57.58    2.53
   9  -1   7   56.91    2.29
  -8   9   7   62.97    2.74
   9  -1   7   59.13    2.49
  -9   4  -7  113.24    3.91
   5  -9  -7  117.88    3.84
   5  -9  -7  114.56    3.73
  -9   4  -7  115.25    3.79
   4   5  -7  121.79    3.70
   4   5  -7  119.61    3.72
   4   5  -7  120.12    3.38
  -5   9   7  117.44    4.07
   9  -4   7  118.21    3.78
  -5   9   7  114.58    4.14
  -4  -5   7  117.29    3.88
   9  -4   7  120.87    4.04
   2  -9  -7   66.32    2.71
   2  -9  -7   70.26    2.64
  -9   7  -7   69.39    2.73
   2  -9  -7   63.60    2.79
   7   2  -7   66.34    2.44
  -9   7  -7   65.46    2.75
   7   2  -7   66.90    2.49
   9  -7   7   69.35    2.83
   9  -7   7   68.64    2.73
  -2   9   7   67.50    2.89
  -2   9   7   67.87    2.46
  -1  -9  -7    0.36    0.51
  -9  10  -7    0.17    0.49
  10  -1  -7    0.14    0.32
  -1  -9  -7    0.97    0.60
   1   9   7   -0.32    0.30
   9 -10   7    0.32    0.43
   9 -10   7    0.36    0.51
  -4  -9  -7   46.12    2.56
   4   9   7   49.86    2.47
  16  -7  -7    0.16    0.44
  -7  -9  -7    0.10    0.63
   7   9   7    0.76    0.67
   7   9   7    0.97    0.65
  16 -10  -7   23.58    1.79
 -10  -6  -7   23.39    1.95
  10   6   7   24.33    1.81
   6 -16   7   24.37    1.97
  10   6   7   23.13    1.94
  13 -10  -7    1.84    0.65
 -10  -3  -7    2.00    0.71
  10   3   7    1.39    0.55
   3 -13   7    1.85    0.76
   0  10  -7    1.13    0.53
  10 -10  -7    0.66    0.46
   0  10  -7    0.58    0.41
   0 -10   7    2.70    0.70
  10   0   7    1.47    0.49
   7 -10  -7  153.79    4.53
   3   7  -7  147.39    4.56
   7 -10  -7  152.14    4.75
   3   7  -7  153.49    4.64
  10  -3   7  154.10    4.63
  -7  10   7  145.03    4.98
  -3  -7   7  155.01    4.87
  10  -3   7  145.25    4.88
   4 -10  -7   18.38    1.36
   6   4  -7   19.62    1.30
   6   4  -7   16.05    1.18
   6   4  -7   18.84    0.88
   4 -10  -7   18.91    1.37
  10  -6   7   18.98    1.37
  -4  10   7   17.16    1.48
  10  -6   7   17.94    1.38
  -6  -4   7   20.64    1.41
   9   1  -7    0.02    0.27
 -10   9  -7    0.32    0.46
   1 -10  -7    0.16    0.41
   9   1  -7    0.33    0.41
   1 -10  -7    0.33    0.46
  -1  10   7    1.07    0.45
  10  -9   7    0.62    0.50
  10  -9   7   -0.32    0.42
  -2 -10  -7   27.18    1.92
   2  10   7   24.77    1.68
  10 -12   7   23.05    1.81
  -5 -10  -7   19.21    2.14
  15  -5  -7   17.22    1.18
   5  10   7   15.93    1.77
  15 -11  -7    9.20    1.40
  11   4   7    8.92    1.31
   4 -15   7    8.43    1.38
  12 -11  -7    2.95    0.80
  -1  12  -7    4.14    0.95
  -1  12  -7    3.96    0.82
  11   1   7    4.25    0.86
   1 -12   7    3.42    0.88
   2   9  -7   42.43    2.14
   9 -11  -7   35.67    2.01
   9 -11  -7   43.59    1.93
   2   9  -7   42.68    2.05
  -2  -9   7   38.78    2.22
  11  -2   7   35.00    1.85
  11  -2   7   35.67    1.97
   6 -11  -7   22.35    1.56
   5   6  -7   24.05    1.50
   5   6  -7   22.47    1.50
   6 -11  -7   21.39    1.47
  -6  11   7   23.55    1.75
  11  -5   7   21.40    1.48
  -5  -6   7   23.71    1.63
  11  -5   7   23.82    1.50
   8   3  -7    9.41    1.14
   3 -11  -7   11.04    1.37
   8   3  -7    8.52    1.04
  11  -8   7    7.65    1.16
  -3  11   7    9.17    1.08
  -8  -3   7   10.67    1.24
  11  -8   7    9.93    1.27
   0 -11  -7   14.01    1.65
  11   0  -7   14.27    1.12
 -11   0   7   15.31    1.23
  11 -11   7   11.57    1.41
   0  11   7   16.04    1.32
  11 -11   7   13.29    1.69
  -3 -11  -7   14.48    1.84
   3  11   7   20.52    1.66
  14 -12  -7    5.69    1.04
  -2  14  -7    5.24    1.16
   2 -14   7    3.04    0.99
  12   2   7    4.13    0.88
   1  11  -7    4.52    1.01
   1  11  -7    4.97    0.95
  11 -12  -7    4.76    1.00
  -1 -11   7    3.20    0.97
  12  -1   7    4.18    0.82
   8 -12  -7   23.82    1.69
   4   8  -7   24.70    1.66
   8 -12  -7   24.06    1.54
   4   8  -7   23.12    1.57
  -4  -8   7   23.51    1.75
  12  -4   7   20.41    1.49
  12  -4   7   22.73    1.53
   7   5  -7    0.50    0.41
   5 -12  -7    1.03    0.59
   7   5  -7    0.23    0.44
  12  -7   7    1.22    0.65
  12  -7   7    1.51    0.59
  -7  -5   7    1.28    0.57
   2 -12  -7   27.34    1.92
  10   2  -7   23.29    1.65
  10   2  -7   26.24    1.57
  12 -10   7   29.26    1.95
  12 -10   7   27.56    1.95
  -2  12   7   25.45    1.65
 -10  -2   7   27.80    1.74
  -1 -12  -7   13.08    1.66
   1  12   7    9.26    1.31
  12 -13   7    9.85    1.56
  -4 -12  -7    4.87    1.27
   4  12   7    4.37    1.03
  13 -13  -7   45.90    2.62
   0  13  -7   46.17    2.67
  13   0   7   48.36    2.39
   0 -13   7   49.77    2.84
   3  10  -7    2.24    0.71
  10 -13  -7    1.96    0.71
   3  10  -7    2.10    0.75
  -3 -10   7    1.56    0.74
  13  -3   7    1.69    0.61
   6   7  -7    9.86    1.32
   7 -13  -7   10.22    1.33
   6   7  -7    9.71    1.25
  13  -6   7    8.90    1.27
  -6  -7   7   10.46    1.46
   4 -13  -7   53.05    2.69
   9   4  -7   44.60    2.37
   9   4  -7   49.87    2.35
  -9  -4   7   49.08    2.49
  -4  13   7   51.58    2.42
  13  -9   7   54.97    2.74
  12   1  -7   12.84    1.34
   1 -13  -7    8.84    1.44
  -1  13   7    8.72    1.31
  13 -12   7    8.46    1.39
 -12  -1   7    8.47    1.20
  -2 -13  -7   10.78    1.68
   2  13   7   10.76    1.57
  12 -14  -7    5.41    1.17
   2  12  -7    4.92    1.08
   2  12  -7    5.46    1.16
  -2 -12   7    2.19    0.92
  14  -2   7    3.80    0.90
   9 -14  -7   10.19    1.34
   9 -14  -7    8.39    1.25
   5   9  -7    9.30    1.31
   5   9  -7   12.76    1.61
  -5  -9   7   12.07    1.69
  14  -5   7   10.22    1.32
   8   6  -7    3.43    0.81
   8   6  -7    1.88    0.65
   6 -14  -7    2.24    0.78
  14  -8   7    1.93    0.74
  -8  -6   7    1.26    0.67
  11   3  -7   16.17    1.81
  11   3  -7   17.31    1.38
   3 -14  -7   17.54    1.98
  -3  14   7   17.76    1.53
 -11  -3   7   17.17    1.78
  14 -11   7   15.60    1.93
   0 -14  -7    4.19    1.17
   0  14   7    4.40    1.06
   4  11  -7   10.08    1.51
  11 -15  -7    6.75    1.29
   4  11  -7    6.60    1.28
  -4 -11   7    7.11    1.39
  15  -4   7    6.82    1.13
   8 -15  -7    7.77    1.25
   7   8  -7    7.81    1.31
   7   8  -7    8.71    1.28
  15  -7   7    7.39    1.28
  -7  -8   7    7.78    1.45
  10   5  -7   16.56    1.81
  10   5  -7   18.54    1.57
   5 -15  -7   21.65    2.15
  15 -10   7   16.88    1.90
  -5  15   7   17.21    1.88
 -10  -5   7   18.00    1.93
   2 -15  -7   11.69    1.76
  -2  15   7    9.89    1.50
  15 -13   7    9.31    1.54
   6  10  -7   20.50    2.15
   6  10  -7   23.64    1.91
  16  -6   7   25.65    1.98
  -6 -10   7   23.94    2.46
   7 -16  -7    0.74    0.73
   9   7  -7    0.34    0.51
   9   7  -7    0.04    0.52
  -9  -7   7    1.31    0.86
  16  -9   7    1.55    0.82
   4 -16  -7    5.69    1.28
  12   4  -7    4.14    1.06
  12   4  -7    3.80    0.87
  -4  16   7    4.11    1.00
 -12  -4   7    2.94    0.95
  16 -12   7    4.82    1.22
  -1   1  -8   10.52    0.73
  -1   1  -8   12.23    0.67
   0  -1  -8   14.37    0.79
   0  -1  -8   13.91    0.68
   0  -1  -8   14.04    0.71
   1   0  -8   12.99    0.63
  -1   1  -8   12.16    0.76
  -1   1  -8   10.61    0.63
   1  -1   8   11.45    0.69
   0   1   8   13.64    0.73
  -1   0   8   13.47    0.62
  -1   0   8   12.64    0.68
   0   1   8   15.74    0.75
   0   1   8   13.06    0.82
   1  -1   8   11.73    0.74
   1  -1   8   10.52    0.75
   1  -1   8   10.62    0.67
  -2   0  -8    2.51    0.48
   0   2  -8    2.36    0.41
  -2   0  -8    2.01    0.42
   0   2  -8    1.57    0.33
  -2   0  -8    1.13    0.29
   2  -2  -8    1.52    0.31
   0  -2   8    1.55    0.31
   2   0   8    1.53    0.42
  -2   2   8    1.96    0.38
   2   0   8    1.89    0.40
   2   0   8    1.72    0.38
   0  -2   8    1.52    0.33
   0  -2   8    1.20    0.32
  -2   2   8    1.41    0.29
  -1  -2  -8   38.29    1.50
  -1  -2  -8   41.50    1.69
   3  -1  -8   39.13    1.23
   3  -1  -8   39.87    1.25
  -1  -2  -8   37.70    1.51
   3  -1  -8   38.95    1.46
  -2   3  -8   40.56    1.62
  -2   3  -8   39.76    1.57
  -2   3  -8   38.85    1.49
  -1  -2  -8   39.90    1.44
   2  -3   8   41.85    1.62
   1   2   8   38.06    1.64
   1   2   8   39.27    1.47
   2  -3   8   38.21    1.49
   2  -3   8   37.77    1.50
  -1   4  -8   17.62    0.86
   4  -3  -8   20.01    0.87
  -3  -1  -8   17.65    0.89
  -1   4  -8   17.09    0.89
  -3  -1  -8   19.23    1.13
  -1   4  -8   18.44    0.86
  -3  -1  -8   18.69    1.04
   4  -3  -8   19.43    0.98
  -3  -1  -8   18.27    0.98
  -3  -1  -8   19.08    1.00
  -4   3   8   18.28    0.76
   1  -4   8   18.35    0.99
   3   1   8   18.36    1.03
   1  -4   8   18.58    1.01
   1  -4   8   16.95    0.92
  -4   3   8   17.86    0.78
   3   1   8   18.93    0.99
  -3   2  -8   39.86    1.61
   2   1  -8   39.47    1.45
   1  -3  -8   40.92    1.55
  -3   2  -8   40.47    1.65
   1  -3  -8   39.29    1.56
   2   1  -8   40.65    1.39
   2   1  -8   39.79    1.27
   2   1  -8   38.10    1.20
   1  -3  -8   38.85    1.46
   1  -3  -8   37.87    1.43
  -3   2  -8   37.26    1.49
   3  -2   8   41.38    1.64
  -1   3   8   38.45    1.64
   3  -2   8   41.36    1.54
  -1   3   8   41.00    1.45
   3  -2   8   36.79    1.50
   3  -2   8   40.54    1.63
  -3   5  -8   70.57    2.46
  -3   5  -8   65.83    2.08
   5  -2  -8   70.64    1.94
  -2  -3  -8   74.24    2.42
  -2  -3  -8   72.94    2.28
  -2  -3  -8   73.21    2.65
  -3   5  -8   69.05    2.54
   5  -2  -8   73.02    2.27
  -3   5  -8   69.53    2.50
   2   3   8   72.30    2.35
   3  -5   8   68.72    2.47
   2   3   8   72.60    2.43
   3  -5   8   69.59    2.40
   3  -5   8   67.33    2.51
   3  -5   8   68.06    2.52
   2   3   8   72.24    2.55
   2   3   8   72.75    2.15
  -2   6  -8    5.04    0.63
  -4  -2  -8    3.66    0.55
  -4  -2  -8    4.00    0.68
   6  -4  -8    4.22    0.50
  -2   6  -8    4.70    0.62
  -2   6  -8    5.73    0.66
   6  -4  -8    4.24    0.56
  -4  -2  -8    3.91    0.61
   4   2   8    4.08    0.59
   4   2   8    4.02    0.51
   4   2   8    4.58    0.64
   2  -6   8    4.62    0.67
   2  -6   8    5.10    0.66
   4   2   8    4.00    0.55
   2  -6   8    4.95    0.68
   2  -6   8    4.20    0.66
  -4   1  -8   18.78    0.97
   1   3  -8   19.16    0.96
   3  -4  -8   17.86    0.94
  -4   1  -8   17.86    0.89
  -4   1  -8   18.37    1.08
   3  -4  -8   18.91    0.99
   3  -4  -8   17.56    0.79
  -4   1  -8   16.33    0.99
   3  -4  -8   16.89    0.75
   1   3  -8   19.22    0.93
   4  -1   8   19.24    1.01
  -1  -3   8   16.72    0.82
  -1  -3   8   17.11    0.81
   4  -1   8   17.54    1.04
   4  -1   8   18.42    1.00
  -3   4   8   17.37    1.00
  -1  -3   8   17.80    0.79
  -4   4  -8   22.99    1.22
  -4   4  -8   21.10    1.18
  -4   4  -8   21.59    1.14
   0  -4  -8   21.22    1.22
   4   0  -8   21.95    1.04
   0  -4  -8   22.36    1.10
   0  -4  -8   22.25    1.18
   0   4   8   23.43    1.17
   0   4   8   22.99    1.11
   4  -4   8   21.16    1.21
   4  -4   8   20.75    1.13
   4  -4   8   20.78    1.16
   0   4   8   22.97    1.28
   4  -4   8   21.70    1.10
  -3  -4  -8   18.16    1.18
  -4   7  -8   19.54    0.95
   7  -3  -8   19.61    1.02
  -3  -4  -8   18.50    1.28
  -3  -4  -8   19.55    1.06
  -4   7  -8   18.61    1.18
  -4   7  -8   19.67    1.22
   4  -7   8   19.06    1.24
   3   4   8   19.58    1.04
   3   4   8   19.39    1.09
   4  -7   8   19.76    1.22
   3   4   8   19.80    1.14
   4  -7   8   18.03    1.15
   4  -7   8   18.83    1.23
   3   4   8   18.37    1.06
  -5  -3  -8    0.10    0.37
   8  -5  -8    0.25    0.24
  -3   8  -8    0.20    0.32
  -3   8  -8    0.04    0.26
  -3   8  -8    0.04    0.20
  -5  -3  -8    1.17    0.44
   8  -5  -8    0.48    0.30
   5   3   8    0.16    0.28
   3  -8   8    0.36    0.31
   3  -8   8    0.21    0.34
   5   3   8    0.31    0.30
   3  -8   8    0.41    0.33
   3  -8   8    0.12    0.33
  -5   0  -8    2.70    0.44
  -5   0  -8    2.30    0.43
  -5   0  -8    2.12    0.47
  -5   0  -8    1.86    0.42
   5  -5  -8    3.31    0.53
   5  -5  -8    2.74    0.46
  -5   5   8    2.23    0.43
   5   0   8    2.95    0.52
   5   0   8    2.26    0.39
   5   0   8    2.82    0.40
   0  -5   8    2.45    0.43
   0  -5   8    2.04    0.41
   0  -5   8    1.90    0.42
   3   2  -8   69.79    1.90
   3   2  -8   72.20    2.31
  -5   3  -8   69.41    2.58
   3   2  -8   74.17    2.18
   2  -5  -8   73.80    2.39
   2  -5  -8   73.76    2.46
  -5   3  -8   68.16    2.45
   3   2  -8   73.41    1.97
   2  -5  -8   73.17    2.51
  -5   3  -8   69.76    2.54
   3   2  -8   71.87    2.16
  -2   5   8   69.84    2.60
   5  -3   8   70.33    2.42
  -2   5   8   73.54    2.32
   5  -3   8   69.57    2.58
   5  -3   8   68.28    2.46
   5  -3   8   71.12    2.41
  -2   5   8   72.88    2.53
  -5   6  -8    2.97    0.54
  -1  -5  -8    3.21    0.61
  -5   6  -8    3.28    0.60
  -1  -5  -8    2.70    0.50
   6  -1  -8    3.16    0.49
  -1  -5  -8    3.78    0.69
   1   5   8    3.30    0.51
   1   5   8    2.56    0.49
   1   5   8    3.22    0.64
   1   5   8    2.21    0.45
   5  -6   8    2.86    0.50
   5  -6   8    3.35    0.62
   5  -6   8    2.94    0.54
   5  -6   8    2.71    0.54
   9  -4  -8    3.29    0.46
  -4  -5  -8    3.76    0.80
  -4  -5  -8    3.08    0.69
   9  -4  -8    3.51    0.56
  -5   9  -8    1.90    0.58
  -5   9  -8    2.89    0.52
   5  -9   8    3.40    0.75
   5  -9   8    3.43    0.81
   4   5   8    2.98    0.62
   4   5   8    2.51    0.61
   5  -9   8    2.49    0.67
   5  -9   8    3.61    0.77
   5  -9   8    2.80    0.58
  -6  -4  -8    0.56    0.42
  -4  10  -8    1.44    0.43
  10  -6  -8    0.80    0.33
  10  -6  -8    0.49    0.32
   6   4   8    0.55    0.36
   4 -10   8    0.44    0.41
   4 -10   8    0.88    0.52
   4 -10   8    1.07    0.51
   6   4   8    0.61    0.39
  -1   7  -8    1.81    0.43
   7  -6  -8    3.05    0.53
  -6  -1  -8    2.77    0.50
  -6  -1  -8    2.28    0.56
   7  -6  -8    2.41    0.47
   6   1   8    2.24    0.44
   1  -7   8    2.02    0.45
  -7   6   8    1.94    0.42
   1  -7   8    2.28    0.52
   1  -7   8    2.07    0.50
   4  -6  -8    4.69    0.65
   4  -6  -8    3.56    0.57
   2   4  -8    4.28    0.61
  -6   2  -8    4.96    0.66
   2   4  -8    4.49    0.53
   2   4  -8    4.92    0.60
  -6   2  -8    4.15    0.68
   4  -6  -8    4.18    0.52
   4  -6  -8    3.74    0.52
   6  -2   8    4.55    0.62
   6  -2   8    4.99    0.60
   6  -2   8    5.38    0.76
  -2  -4   8    4.58    0.41
  -4   6   8    3.20    0.60
  -4   6   8    4.18    0.66
  -4   6   8    4.21    0.56
  -6   5  -8    2.93    0.63
   5   1  -8    4.04    0.51
   1  -6  -8    2.49    0.54
   1  -6  -8    2.86    0.53
  -6   5  -8    4.10    0.66
  -6   5  -8    4.37    0.70
   5   1  -8    2.52    0.46
   1  -6  -8    3.42    0.64
   6  -5   8    3.93    0.59
   6  -5   8    3.27    0.59
   6  -5   8    3.22    0.61
  -1   6   8    3.38    0.48
  -1   6   8    3.29    0.58
  -1   6   8    3.92    0.67
   6  -5   8    3.51    0.63
  -6   8  -8   16.12    1.23
  -6   8  -8   15.44    0.83
  -6   8  -8   16.96    1.22
  -2  -6  -8   13.46    1.22
  -2  -6  -8   16.30    1.23
   8  -2  -8   16.77    0.99
   6  -8   8   17.02    1.25
   6  -8   8   16.68    1.25
   6  -8   8   14.93    1.09
   2   6   8   14.73    0.98
   2   6   8   15.99    1.12
   2   6   8   16.95    1.08
   6  -8   8   14.67    0.89
   6  -8   8   15.53    1.17
   2   6   8   15.87    1.08
  -6  11  -8   13.75    0.96
  -5  -6  -8   11.89    1.35
  11  -5  -8   13.40    0.88
   5   6   8   13.56    1.16
   5   6   8   14.90    1.17
   6 -11   8   12.77    1.06
   6 -11   8   13.47    1.30
  -7  -5  -8   13.40    1.49
  -5  12  -8   11.44    1.20
  12  -7  -8   10.70    0.97
   7   5   8   12.06    1.30
   7   5   8   12.64    1.44
   5 -12   8   10.17    1.22
   9  -7  -8   17.63    1.05
  -2   9  -8   16.41    1.13
  -7  -2  -8   18.21    1.20
   9  -7  -8   16.55    1.09
   2  -9   8   17.85    1.31
   7   2   8   16.83    1.14
   2  -9   8   16.21    1.23
  -7   1  -8    2.36    0.53
  -7   1  -8    2.45    0.48
   1   6  -8    2.89    0.55
   6  -7  -8    3.57    0.56
   6  -7  -8    2.40    0.51
   1   6  -8    1.90    0.44
  -1  -6   8    2.79    0.47
  -1  -6   8    2.32    0.45
   7  -1   8    2.71    0.53
  -6   7   8    2.78    0.55
  -1  -6   8    2.48    0.49
   7  -1   8    2.52    0.53
  -6   7   8    2.25    0.50
  -7   4  -8   19.67    1.16
   4   3  -8   21.30    1.11
   4   3  -8   19.62    1.14
  -7   4  -8   19.60    1.25
   3  -7  -8   19.79    1.23
   3  -7  -8   20.59    1.23
   3  -7  -8   20.48    1.21
   7  -4   8   19.23    1.25
  -3   7   8   18.55    1.30
  -3   7   8   20.73    1.23
   7  -4   8   17.09    1.15
   7  -4   8   19.30    1.04
   0  -7  -8   37.93    1.86
  -7   7  -8   34.17    1.81
   7   0  -8   36.72    1.57
   7   0  -8   35.92    1.54
  -7   7  -8   33.44    1.76
   0  -7  -8   34.77    1.65
   0  -7  -8   37.02    1.92
   0   7   8   37.39    1.72
   0   7   8   37.74    1.57
   0   7   8   36.98    1.88
   7  -7   8   35.19    1.71
   7  -7   8   31.77    1.59
   7  -7   8   33.87    1.79
  -3  -7  -8    2.09    0.67
  -3  -7  -8    2.02    0.74
  10  -3  -8    2.38    0.49
  -7  10  -8    2.27    0.70
   7 -10   8    2.06    0.69
   3   7   8    3.01    0.65
   7 -10   8    1.90    0.65
   7 -10   8    2.08    0.59
  13  -6  -8    1.66    0.50
  -6  -7  -8    0.08    0.50
   6   7   8    1.19    0.52
   6   7   8    1.36    0.61
  -8  -6  -8   -0.30    0.46
  14  -8  -8    0.66    0.44
   6 -14   8    0.38    0.57
   8   6   8    0.05    0.44
   8   6   8   -0.20    0.45
  11  -8  -8   35.33    1.75
  -8  -3  -8   35.20    1.83
  -3  11  -8   36.10    1.80
   3 -11   8   34.00    1.93
   8   3   8   33.49    1.87
   8   3   8   34.88    1.79
   0   8  -8   11.24    1.21
   0   8  -8    8.99    1.00
  -8   0  -8   10.75    0.87
   8  -8  -8   10.17    1.15
   8  -8  -8   10.54    1.07
   8   0   8    8.91    0.98
   0  -8   8   10.41    1.19
   5  -8  -8    0.46    0.36
   3   5  -8    0.25    0.30
   5  -8  -8    0.17    0.31
   3   5  -8    0.32    0.28
  -8   3  -8    0.59    0.35
   3   5  -8    0.58    0.33
  -8   3  -8    0.61    0.37
   5  -8  -8    0.28    0.30
  -5   8   8    0.21    0.35
   8  -3   8    0.28    0.32
  -5   8   8    0.06    0.37
   8  -3   8    0.56    0.34
   2  -8  -8   15.99    1.24
   6   2  -8   16.04    1.04
  -8   6  -8   15.65    1.20
   2  -8  -8   14.33    1.15
   2  -8  -8   15.57    1.14
   6   2  -8   14.03    1.00
  -8   6  -8   15.51    1.14
   8  -6   8   16.25    1.22
   8  -6   8   16.53    1.22
  -2   8   8   15.94    1.00
  -2   8   8   14.79    1.15
  -2   8   8   15.45    1.30
   8  -6   8   16.44    1.02
   8  -6   8   16.74    1.01
  -1  -8  -8    1.26    0.58
  -8   9  -8    1.61    0.59
   9  -1  -8    2.20    0.51
  -1  -8  -8    1.91    0.66
  -8   9  -8    1.63    0.65
   8  -9   8    0.99    0.59
   8  -9   8    1.27    0.54
   1   8   8    1.68    0.50
  -4  -8  -8    5.17    1.03
   4   8   8    4.87    0.90
   4   8   8    5.36    0.90
  -7  -8  -8    9.91    1.50
  15  -7  -8   10.08    1.15
   7   8   8    9.75    1.33
   7   8   8    9.87    1.42
  16  -9  -8    2.06    0.74
  -9  -7  -8    2.36    0.85
   9   7   8    0.79    0.72
   9   7   8    3.04    0.89
  -9  -4  -8   10.19    1.32
  13  -9  -8   10.52    1.26
   4 -13   8   11.93    1.45
   9   4   8   12.02    1.51
   9   4   8   11.06    1.31
  -1  10  -8    1.27    0.51
  -9  -1  -8    1.18    0.49
  -1  10  -8    1.12    0.57
  10  -9  -8    2.16    0.65
   1 -10   8    0.92    0.50
   9   1   8    1.24    0.46
   7  -9  -8   16.32    1.22
   2   7  -8   18.10    1.24
   2   7  -8   15.19    1.15
   7  -9  -8   19.46    1.24
   9  -2   8   17.07    1.20
   9  -2   8   14.93    1.19
  -2  -7   8   18.52    1.38
  -7   9   8   17.07    1.25
   5   4  -8    2.31    0.56
   4  -9  -8    3.21    0.72
  -9   5  -8    3.45    0.81
   4  -9  -8    3.68    0.79
   5   4  -8    2.98    0.60
  -9   5  -8    3.22    0.71
   9  -5   8    3.26    0.74
  -4   9   8    3.07    0.79
  -4   9   8    3.66    0.79
   9  -5   8    3.43    0.75
   1  -9  -8    1.39    0.61
   8   1  -8    2.39    0.55
  -9   8  -8    1.63    0.60
  -9   8  -8    1.80    0.62
   1  -9  -8    2.77    0.79
   8   1  -8    1.44    0.51
   9  -8   8    1.63    0.56
   9  -8   8    1.86    0.62
  -1   9   8    1.69    0.52
  -9  11  -8    4.04    0.90
  -2  -9  -8    6.22    1.07
  11  -2  -8    6.69    0.82
   9 -11   8    3.20    0.84
   9 -11   8    4.62    0.97
   2   9   8    5.53    0.90
  -5  -9  -8    3.47    0.94
   5   9   8    3.33    0.84
   5   9   8    5.62    1.08
  15 -10  -8    1.66    0.68
 -10  -5  -8    0.47    0.62
   5 -15   8    0.92    0.77
  10   5   8    2.38    0.72
  12 -10  -8    2.82    0.71
  -2  12  -8    2.62    0.80
  -2  12  -8    3.23    0.77
   2 -12   8    1.96    0.71
  10   2   8    2.78    0.68
   1   9  -8    0.37    0.44
   1   9  -8    0.78    0.46
   9 -10  -8    1.22    0.47
   9 -10  -8    0.94    0.47
  -1  -9   8    0.39    0.42
  10  -1   8    1.22    0.47
   6 -10  -8    1.25    0.53
   4   6  -8    0.48    0.35
   4   6  -8    0.38    0.38
   6 -10  -8    0.84    0.45
  -6  10   8    1.80    0.60
  10  -4   8    0.76    0.45
  -6  10   8    1.26    0.65
  -4  -6   8    0.37    0.40
  10  -4   8    0.49    0.38
   3 -10  -8    2.45    0.71
   7   3  -8    2.24    0.58
   3 -10  -8    2.73    0.64
   7   3  -8    1.83    0.52
 -10   7  -8    2.77    0.76
  -3  10   8    2.43    0.83
  10  -7   8    1.79    0.61
  -3  10   8    2.77    0.63
  10  -7   8    3.40    0.84
   0 -10  -8    0.60    0.55
  10   0  -8    1.56    0.48
   0  10   8    1.43    0.55
  10 -10   8    0.43    0.50
  10 -10   8    1.06    0.56
  -3 -10  -8   -0.39    0.43
   3  10   8   -0.17    0.41
  -6 -10  -8    0.47    0.66
  16  -6  -8   -0.07    0.38
   6  10   8   -0.08    0.50
   6  10   8   -0.33    0.45
  -3  14  -8    2.31    0.88
  14 -11  -8    1.77    0.67
   3 -14   8    1.29    0.71
  11   3   8    1.77    0.62
   0  11  -8    8.02    1.24
   0  11  -8    9.22    1.18
  11 -11  -8    9.71    1.35
   0 -11   8    9.75    1.33
  11   0   8    8.83    1.12
   3   8  -8   34.25    1.88
   8 -11  -8   36.19    1.84
   3   8  -8   32.77    1.87
   8 -11  -8   33.38    1.93
  11  -3   8   36.28    1.88
  11  -3   8   34.72    1.93
  -3  -8   8   34.59    2.06
   6   5  -8   16.15    1.26
   6   5  -8   14.57    1.20
   5 -11  -8   14.64    1.29
   5 -11  -8   15.90    1.36
  -6  -5   8   17.78    1.40
  11  -6   8   15.40    1.32
  -5  11   8   17.51    1.57
  11  -6   8   15.49    1.31
   9   2  -8    5.46    0.93
   9   2  -8    5.06    0.83
   2 -11  -8    6.56    1.11
  11  -9   8    7.38    1.21
  -9  -2   8    4.95    0.93
  11  -9   8    4.22    0.91
  -2  11   8    5.05    0.82
  12  -1  -8   10.84    1.18
  -1 -11  -8   11.67    1.61
   1  11   8   11.62    1.41
  11 -12   8   11.14    1.60
  -4 -11  -8   14.32    1.88
   4  11   8   14.31    1.71
  -1  13  -8    0.20    0.47
  -1  13  -8    0.08    0.54
  13 -12  -8    0.09    0.51
   1 -13   8    0.62    0.67
  12   1   8    0.02    0.39
   2  10  -8    1.64    0.59
  10 -12  -8    2.80    0.75
   2  10  -8    2.66    0.81
  12  -2   8    2.92    0.73
  -2 -10   8    2.38    0.79
   7 -12  -8   11.25    1.41
   7 -12  -8   10.30    1.34
   5   7  -8   10.96    1.34
   5   7  -8    9.71    1.19
  12  -5   8    9.75    1.18
  12  -5   8    9.70    1.25
  -5  -7   8   12.59    1.50
   8   4  -8    3.73    0.76
   4 -12  -8    4.99    1.01
   8   4  -8    6.33    1.04
  -4  12   8    5.26    0.94
  -8  -4   8    5.74    1.07
  12  -8   8    5.29    1.01
  12  -8   8    4.53    1.04
  11   1  -8   10.24    1.17
   1 -12  -8   11.80    1.58
  12 -11   8    8.41    1.37
 -11  -1   8    9.21    1.22
  12 -11   8    8.49    1.36
  -1  12   8   11.93    1.40
  -2 -12  -8    5.27    1.21
   2  12   8    3.42    0.91
  -2  15  -8    0.87    0.83
  15 -13  -8    1.12    0.73
  13   2   8    1.59    0.72
   2 -15   8    0.82    0.77
  12 -13  -8    0.20    0.51
   1  12  -8    0.24    0.46
   1  12  -8    0.24    0.53
  13  -1   8   -0.04    0.43
  -1 -12   8   -0.40    0.53
   4   9  -8    8.31    1.17
   9 -13  -8    9.41    1.24
   4   9  -8    9.86    1.39
   9 -13  -8   11.64    1.55
  -4  -9   8   11.18    1.55
  13  -4   8    9.46    1.22
   6 -13  -8    0.71    0.59
   7   6  -8    1.47    0.66
   7   6  -8    2.18    0.68
  -7  -6   8    1.71    0.66
  13  -7   8    1.01    0.65
   3 -13  -8   -0.10    0.52
  10   3  -8    0.12    0.39
  10   3  -8    0.24    0.47
  13 -10   8   -0.28    0.51
  -3  13   8    0.02    0.45
 -10  -3   8    0.07    0.45
   0 -13  -8   14.57    1.89
   0  13   8   21.02    1.67
  13 -13   8   18.09    2.24
   0  14  -8    0.83    0.83
  14 -14  -8    1.53    0.77
   0 -14   8   -0.13    0.61
  14   0   8    0.88    0.58
  11 -14  -8    2.07    0.80
   3  11  -8    2.43    0.83
   3  11  -8    1.42    0.63
  -3 -11   8    2.70    0.97
  14  -3   8    2.73    0.78
   8 -14  -8    0.00    0.55
   6   8  -8    0.49    0.45
   6   8  -8   -0.04    0.45
  -6  -8   8   -0.08    0.53
  14  -6   8   -0.21    0.38
   9   5  -8    6.03    1.04
   5 -14  -8    4.46    1.06
   9   5  -8    3.83    0.92
  14  -9   8    6.21    1.24
  -5  14   8    6.10    1.10
  -9  -5   8    3.47    0.90
   2 -14  -8    5.74    1.24
  12   2  -8    3.27    0.75
 -12  -2   8    4.37    0.99
  -2  14   8    3.87    0.94
  14 -12   8    6.58    1.37
   2  13  -8    1.21    0.75
  13 -15  -8    0.99    0.68
  -2 -13   8    0.80    0.83
  15  -2   8    0.70    0.60
   5  10  -8    0.66    0.58
   5  10  -8    0.39    0.51
  15  -5   8    2.16    0.75
  -5 -10   8    0.88    0.76
   8   7  -8   10.33    1.40
   7 -15  -8   10.05    1.46
   8   7  -8    8.27    1.31
  15  -8   8    7.25    1.25
  -8  -7   8    9.20    1.42
   4 -15  -8   14.15    1.82
  11   4  -8   14.62    1.56
  11   4  -8   13.28    1.62
  15 -11   8   12.51    1.72
  -4  15   8   12.63    1.57
 -11  -4   8   11.04    1.55
   9 -16  -8    1.03    0.71
   7   9  -8    2.33    0.87
   7   9  -8    1.47    0.68
  -7  -9   8    3.67    1.12
  16  -7   8    1.42    0.80
  10   6  -8   -0.15    0.44
  10   6  -8    0.04    0.49
   6 -16  -8   -0.11    0.63
  16 -10   8   -0.24    0.62
 -10  -6   8    0.20    0.59
  -6  16   8    0.46    0.62
   0   0  -9   34.99    1.33
   0   0  -9   32.35    1.21
   0   0  -9   37.13    1.44
   0   0  -9   33.25    1.32
   0   0  -9   34.43    1.26
   0   0   9   34.71    1.32
   0   0   9   33.80    1.42
  -1  -1  -9    3.06    0.51
   2  -1  -9    2.13    0.32
  -1  -1  -9    2.16    0.44
  -1  -1  -9    1.88    0.37
  -1   2  -9    2.15    0.41
   2  -1  -9    3.19    0.45
  -1   2  -9    2.72    0.48
  -1   2  -9    2.69    0.43
  -1  -1  -9    2.65    0.46
  -1   2  -9    2.45    0.40
  -1  -1  -9    2.46    0.45
   1  -2   9    2.05    0.43
   1  -2   9    2.68    0.46
  -2   1   9    2.13    0.31
  -2   1   9    2.60    0.37
   1   1   9    1.88    0.37
   1  -2   9    1.81    0.39
   1  -2   9    2.35    0.39
   1   1   9    1.91    0.43
   1   1  -9    2.19    0.33
  -2   1  -9    1.76    0.35
  -2   1  -9    1.54    0.39
   1   1  -9    2.15    0.38
   1  -2  -9    2.13    0.39
   1  -2  -9    1.79    0.34
   1  -2  -9    1.96    0.38
  -2   1  -9    2.94    0.44
   1   1  -9    2.54    0.42
  -2   1  -9    2.21    0.45
   2  -1   9    2.11    0.40
   2  -1   9    2.03    0.42
  -1  -1   9    2.26    0.37
  -1   2   9    2.77    0.48
  -1  -1   9    2.23    0.31
   2  -1   9    2.33    0.46
  -1   2   9    2.23    0.39
  -1   2   9    2.34    0.39
   2  -1   9    2.03    0.39
  -2  -2  -9   13.05    0.98
  -2  -2  -9   11.34    0.77
  -2   4  -9   11.88    0.87
  -2   4  -9   10.67    0.69
  -2   4  -9   11.78    0.81
  -2  -2  -9   13.31    0.84
   4  -2  -9   12.06    0.63
  -2   4  -9   11.73    0.76
   4  -2  -9   12.47    0.82
  -2  -2  -9   12.37    0.85
   4  -2  -9   12.79    0.66
   2  -4   9   10.23    0.78
   2  -4   9   11.05    0.79
   2  -4   9   11.14    0.83
   2  -4   9   11.14    0.87
   2   2   9   12.80    0.82
   2   2   9   12.86    0.93
   3  -3  -9   10.56    0.71
  -3   3   9   15.93    0.86
   3   0  -9  127.29    3.34
  -3   3  -9  134.89    4.08
  -3   3  -9  129.93    4.06
  -3   3  -9  130.92    3.95
   0  -3  -9  134.41    3.76
   3   0  -9  134.36    3.39
   0  -3  -9  131.18    3.94
   0  -3  -9  129.14    4.09
   3  -3   9  133.60    4.10
   0   3   9  127.80    4.13
   3  -3   9  139.38    3.85
   3  -3   9  136.96    4.10
   3  -3   9  130.34    3.96
   0   3   9  135.94    3.72
  -3  -3  -9   71.04    2.73
  -3  -3  -9   69.64    2.31
   6  -3  -9   69.96    2.01
  -3   6  -9   69.27    2.21
   6  -3  -9   68.98    2.04
   6  -3  -9   72.32    2.32
  -3  -3  -9   68.79    2.45
  -3   6  -9   72.16    2.53
  -3   6  -9   67.53    2.47
   3   3   9   68.15    2.51
   3  -6   9   64.45    2.48
   3   3   9   70.35    2.24
   3  -6   9   66.38    2.40
   3  -6   9   65.58    2.56
   3  -6   9   66.28    2.58
   3   3   9   69.84    2.40
   3   3   9   70.27    2.42
  -4  -1  -9   62.26    2.41
   5  -4  -9   65.45    2.23
   5  -4  -9   66.98    2.11
  -4  -1  -9   61.83    2.17
  -1   5  -9   62.58    2.14
  -4  -1  -9   68.16    2.55
  -4  -1  -9   62.74    2.13
  -4  -1  -9   65.36    2.36
  -1   5  -9   69.05    2.08
  -1   5  -9   64.11    2.05
   1  -5   9   65.50    2.35
   1  -5   9   64.84    2.37
   4   1   9   66.22    2.35
   1  -5   9   67.83    2.33
   4   1   9   65.52    2.25
   4   1   9   66.19    2.29
  -5   4   9   65.39    2.13
   2   2  -9   12.70    0.62
   2   2  -9   13.34    0.83
   2   2  -9   12.37    0.68
  -4   2  -9   11.67    0.80
   2   2  -9   12.15    0.71
   2  -4  -9   11.40    0.79
  -4   2  -9   10.10    0.87
  -4   2  -9   11.30    0.85
   2  -4  -9   12.49    0.80
   2  -4  -9   13.52    0.91
   2  -4  -9   12.72    0.73
  -2   4   9   11.62    0.89
   4  -2   9   11.90    0.80
   4  -2   9   11.08    0.85
  -2   4   9   12.76    0.78
   4  -2   9   11.98    0.83
   4  -2   9   11.35    0.88
  -1  -4  -9  185.71    5.65
  -4   5  -9  185.65    5.44
   5  -1  -9  183.80    4.89
  -1  -4  -9  187.50    5.11
  -4   5  -9  187.41    5.55
  -4   5  -9  182.95    4.63
  -4   5  -9  185.97    5.56
  -1  -4  -9  185.21    5.04
   1   4   9  189.37    5.10
   1   4   9  187.13    4.67
   4  -5   9  185.38    5.55
   4  -5   9  187.65    5.56
   4  -5   9  182.26    5.18
   1   4   9  188.96    5.45
   1   4   9  184.09    5.59
   4  -5   9  181.79    5.42
  -4   8  -9  128.90    4.17
   8  -4  -9  123.36    3.43
  -4   8  -9  120.86    3.58
  -4  -4  -9  127.04    4.39
  -4   8  -9  123.93    4.14
   8  -4  -9  128.12    3.65
  -4  -4  -9  125.39    3.95
   4  -8   9  126.79    4.11
   4  -8   9  126.83    4.29
   4   4   9  128.51    3.79
   4   4   9  128.74    3.95
   4  -8   9  127.35    4.29
   4  -8   9  125.82    4.20
   4   4   9  127.80    3.88
   4   4   9  126.07    3.79
  -2   7  -9    2.06    0.44
  -5  -2  -9    2.88    0.63
   7  -5  -9    3.29    0.49
  -5  -2  -9    3.46    0.62
  -2   7  -9    3.73    0.53
   7  -5  -9    4.69    0.63
  -2   7  -9    4.44    0.61
   5   2   9    3.23    0.44
  -7   5   9    5.57    0.51
   5   2   9    4.31    0.61
   2  -7   9    2.74    0.57
   5   2   9    2.97    0.56
   2  -7   9    3.93    0.64
   2  -7   9    2.58    0.55
   5   2   9    3.28    0.47
  -5   1  -9   70.15    2.40
   4  -5  -9   67.04    2.27
   1   4  -9   66.26    2.12
  -5   1  -9   66.44    2.53
  -5   1  -9   61.39    2.41
   1   4  -9   67.38    2.27
   1   4  -9   67.25    2.31
   4  -5  -9   67.35    2.33
   5  -1   9   65.51    2.51
  -1  -4   9   64.76    2.20
  -1  -4   9   68.39    2.18
  -1  -4   9   64.46    2.17
   5  -1   9   65.77    2.34
  -4   5   9   70.70    2.47
   5  -1   9   66.21    2.33
  -5   4  -9  184.51    5.50
  -5   4  -9  182.59    5.44
   1  -5  -9  175.39    4.95
   1  -5  -9  177.00    5.02
  -5   4  -9  185.22    5.37
   4   1  -9  187.74    4.87
   1  -5  -9  184.96    5.49
   5  -4   9  184.64    5.49
  -1   5   9  183.76    5.56
   5  -4   9  174.95    5.27
   5  -4   9  182.11    5.40
  -1   5   9  184.52    5.40
  -1   5   9  178.90    4.95
  -2  -5  -9   39.15    1.87
  -5   7  -9   37.71    1.46
  -5   7  -9   39.43    1.91
   7  -2  -9   38.68    1.59
  -2  -5  -9   43.00    1.73
  -5   7  -9   41.90    1.91
  -2  -5  -9   40.70    2.04
   5  -7   9   42.93    1.97
   2   5   9   41.23    1.66
   2   5   9   42.16    1.89
   2   5   9   41.98    1.80
   5  -7   9   40.22    1.84
   5  -7   9   39.96    1.89
   5  -7   9   39.72    1.94
   2   5   9   41.22    1.75
  10  -5  -9    5.81    0.76
  -5  10  -9    5.78    0.75
  10  -5  -9    5.49    0.68
  -5  -5  -9    5.96    0.95
   5   5   9    4.76    0.80
   5 -10   9    5.57    0.82
   5 -10   9    5.03    0.95
   5 -10   9    5.32    1.01
   5   5   9    4.27    0.76
  -6  -3  -9    5.72    0.84
   9  -6  -9    4.97    0.65
  -6  -3  -9    5.35    0.88
  -3   9  -9    2.77    0.55
   9  -6  -9    6.26    0.73
   6   3   9    4.65    0.75
   3  -9   9    5.04    0.75
   3  -9   9    3.83    0.74
   6   3   9    4.83    0.71
   3  -9   9    3.66    0.76
  -9   6   9    6.55    0.59
   0   6  -9   45.43    1.90
   6  -6  -9   50.42    1.94
  -6   0  -9   47.36    1.81
  -6   0  -9   49.92    2.02
  -6   0  -9   51.08    2.17
   6  -6  -9   53.71    1.96
   6   0   9   50.29    1.99
   6   0   9   47.83    1.75
   6   0   9   48.21    1.73
   0  -6   9   52.02    2.01
   0  -6   9   51.60    2.03
  -6   6   9   50.43    1.99
   0  -6   9   49.54    1.94
  -6   3  -9   67.24    2.64
   3   3  -9   70.85    2.27
   3   3  -9   70.72    2.09
   3  -6  -9   69.53    2.49
   3   3  -9   67.18    1.98
   3   3  -9   69.21    2.39
  -6   3  -9   71.57    2.51
   3   3  -9   68.73    2.21
   3  -6  -9   70.62    2.50
   3  -6  -9   68.16    2.43
  -3   6   9   67.86    2.33
  -3   6   9   71.14    2.71
   6  -3   9   70.26    2.51
   6  -3   9   72.79    2.50
   6  -3   9   74.55    2.71
  -3   6   9   68.76    2.57
   6   0  -9    9.30    0.73
   0  -6  -9    7.35    0.89
   0  -6  -9    9.46    0.84
   6   0  -9    5.94    0.73
   0  -6  -9   10.86    1.04
   0   6   9    9.71    0.73
   6  -6   9    8.87    0.81
   6  -6   9    5.27    0.81
   0   6   9   11.12    0.89
   0   6   9   10.33    1.01
   6  -6   9    5.95    0.85
   0   6   9    9.27    0.86
  -6   9  -9   19.25    1.38
  -3  -6  -9   21.23    1.57
  -6   9  -9   17.89    1.01
  -3  -6  -9   19.94    1.42
   9  -3  -9   21.49    1.16
   6  -9   9   19.55    1.41
   3   6   9   20.22    1.24
   6  -9   9   18.49    1.41
   3   6   9   22.06    1.36
   6  -9   9   17.64    1.10
   6  -9   9   18.60    1.36
   6  -9   9   21.21    1.45
  12  -6  -9    6.69    0.79
  -6  -6  -9    9.14    1.25
  -6  12  -9    6.80    0.88
   6   6   9    7.83    1.13
   6 -12   9    8.20    1.04
   6   6   9    5.75    0.92
  -4  11  -9    9.69    1.06
  11  -7  -9    6.76    0.86
  -7  -4  -9    9.81    1.18
   4 -11   9   10.70    1.39
   4 -11   9    8.94    1.15
   7   4   9    8.28    1.02
   7   4   9    7.91    1.08
  -7  -1  -9    5.38    0.92
  -1   8  -9    4.88    0.73
  -7  -1  -9    5.92    0.80
   8  -7  -9    7.03    0.89
   8  -7  -9    4.52    0.71
   1  -8   9    5.44    0.87
  -8   7   9    5.43    0.81
   1  -8   9    6.29    0.92
   1  -8   9    6.77    0.97
   7   1   9    6.07    0.89
   2   5  -9    3.26    0.52
   5  -7  -9    5.43    0.51
   5  -7  -9    3.28    0.60
   5  -7  -9    3.44    0.47
  -7   2  -9    3.49    0.69
  -7   2  -9    3.34    0.59
   5  -7  -9    3.31    0.59
   2   5  -9    2.50    0.50
  -2  -5   9    3.83    0.51
  -5   7   9    4.13    0.66
  -2  -5   9    2.86    0.42
  -2  -5   9    3.38    0.47
   7  -2   9    3.36    0.63
   7  -2   9    3.84    0.64
  -5   7   9    4.88    0.77
  -7   5  -9   37.77    1.78
   5   2  -9   43.39    1.75
   2  -7  -9   40.31    1.82
   2  -7  -9   39.88    1.90
  -7   5  -9   40.88    1.95
   2  -7  -9   38.85    1.86
   5   2  -9   42.16    1.63
  -2   7   9   39.14    1.53
  -2   7   9   42.32    2.07
  -2   7   9   44.08    1.93
   7  -5   9   37.91    1.87
   7  -5   9   38.62    1.69
   7  -5   9   40.83    1.95
   7  -5   9   37.78    1.75
  -2   7   9   39.98    1.77
  -1  -7  -9    0.64    0.54
  -1  -7  -9    0.60    0.43
  -7   8  -9    0.38    0.40
   8  -1  -9    0.08    0.27
  -7   8  -9    0.19    0.37
   1   7   9   -0.06    0.34
   1   7   9    0.26    0.33
   7  -8   9    0.27    0.41
   1   7   9    0.37    0.35
   7  -8   9    0.52    0.44
   7  -8   9    0.88    0.46
  11  -4  -9    0.67    0.36
  -4  -7  -9    1.53    0.58
   4   7   9    0.67    0.40
   4   7   9    0.95    0.46
  14  -7  -9   10.24    1.11
  -7  -7  -9   10.82    1.54
   7   7   9    7.67    1.18
   7   7   9    8.46    1.22
  13  -8  -9   51.16    2.19
  -8  -5  -9   44.53    2.38
  -5  13  -9   50.90    2.26
   8   5   9   48.40    2.48
   8   5   9   45.33    2.30
   5 -13   9   45.19    2.38
  10  -8  -9   12.09    0.96
  10  -8  -9   11.91    1.05
  -2  10  -9    9.22    1.08
  -8  -2  -9   14.92    1.14
   2 -10   9   14.08    1.22
   8   2   9   12.04    1.06
  -8   1  -9    6.41    0.74
   7  -8  -9    4.07    0.70
   1   7  -9    4.61    0.76
   7  -8  -9    4.70    0.78
  -8   1  -9    5.98    0.94
  -8   1  -9    6.22    0.93
   1   7  -9    5.50    0.83
  -7   8   9    4.05    0.73
   8  -1   9    5.37    0.77
   8  -1   9    5.81    0.99
  -1  -7   9    4.99    0.78
  -7   8   9    5.34    0.88
  -8   4  -9  126.11    4.11
   4   4  -9  124.76    3.89
   4  -8  -9  126.62    4.11
   4  -8  -9  130.87    4.05
   4   4  -9  126.93    3.48
  -8   4  -9  124.71    4.27
   4  -8  -9  127.57    4.03
   4   4  -9  127.36    3.76
  -4   8   9  130.79    4.28
   8  -4   9  127.84    3.82
  -4   8   9  128.60    4.41
   8  -4   9  127.51    4.05
   8  -4   9  127.75    4.33
   7   1  -9    0.69    0.38
   1  -8  -9    0.36    0.35
  -8   7  -9    0.70    0.44
   1  -8  -9    0.74    0.46
   7   1  -9    0.56    0.36
  -8   7  -9    0.59    0.42
   1  -8  -9    0.81    0.54
   8  -7   9    0.56    0.37
   8  -7   9    0.59    0.38
  -1   8   9    0.85    0.37
   8  -7   9    0.94    0.54
  -1   8   9    0.82    0.51
  10  -2  -9    1.97    0.49
  -2  -8  -9    3.20    0.88
  -8  10  -9    2.02    0.64
  -2  -8  -9    1.00    0.51
   2   8   9    1.00    0.47
   2   8   9    1.61    0.60
   8 -10   9    0.90    0.54
   8 -10   9    1.20    0.56
  -5  -8  -9   35.20    2.18
   5   8   9   33.98    2.01
   5   8   9   36.61    2.08
  -8  -8  -9    6.45    1.31
  16  -8  -9    7.56    1.11
   8   8   9    8.10    1.30
   8   8   9    6.94    1.30
  -9  -6  -9    2.45    0.86
  15  -9  -9    3.75    0.82
   9   6   9    2.86    0.84
   9   6   9    2.91    0.79
   6 -15   9    1.20    0.79
  -9  -3  -9    3.32    0.84
  12  -9  -9    3.83    0.78
  -3  12  -9    2.93    0.69
   9   3   9    2.96    0.72
   3 -12   9    2.02    0.70
   9  -9  -9  105.96    3.65
   0   9  -9  112.81    3.80
   9  -9  -9  106.44    3.49
   0   9  -9  112.48    3.72
   9   0   9  108.72    3.69
   0  -9   9  110.96    3.92
  -9   3  -9    3.59    0.74
   3   6  -9    3.17    0.61
   3   6  -9    3.84    0.66
   6  -9  -9    4.38    0.73
   6  -9  -9    4.73    0.76
  -3  -6   9    4.10    0.60
   9  -3   9    3.32    0.68
   9  -3   9    4.58    0.72
  -6   9   9    4.74    0.81
  -6   9   9    5.93    1.01
   3  -9  -9   18.59    1.33
   3  -9  -9   20.67    1.47
  -9   6  -9   19.34    1.32
  -9   6  -9   21.34    1.49
   6   3  -9   21.13    1.28
   6   3  -9   19.89    1.28
   9  -6   9   22.68    1.53
  -3   9   9   20.05    1.54
  -3   9   9   21.94    1.23
   9  -6   9   21.96    1.49
  -3   9   9   22.24    1.48
   9   0  -9   64.38    2.45
   0  -9  -9   62.24    2.82
  -9   9  -9   65.68    2.86
   9  -9   9   64.92    2.90
   9  -9   9   68.38    2.99
   0   9   9   67.15    2.54
  -3  -9  -9   12.69    1.54
   3   9   9   12.05    1.40
   3   9   9   13.58    1.52
  15  -6  -9    4.89    0.73
  -6  -9  -9    5.83    1.21
   6   9   9    5.42    1.06
   6   9   9    6.41    1.20
  14 -10  -9    1.49    0.62
 -10  -4  -9    2.21    0.83
   4 -14   9    1.78    0.74
  10   4   9    1.09    0.61
  11 -10  -9    6.75    0.99
  -1  11  -9    6.34    0.94
  -1  11  -9    7.26    1.20
  10   1   9    8.04    1.08
   1 -11   9    5.45    1.02
   2   8  -9   14.37    1.19
   8 -10  -9   11.20    1.17
   8 -10  -9   13.94    1.22
   2   8  -9    9.78    1.15
  -2  -8   9   11.95    1.35
  10  -2   9   13.04    1.20
  10  -2   9    8.58    1.03
   5 -10  -9    5.75    0.94
   5   5  -9    4.53    0.76
   5 -10  -9    4.44    0.87
   5   5  -9    5.44    0.86
  -5  10   9    5.97    1.12
  10  -5   9    5.27    0.88
  -5  10   9    6.56    1.06
  10  -5   9    7.41    1.23
 -10   8  -9    1.46    0.64
   8   2  -9    2.16    0.59
   8   2  -9    0.66    0.43
   2 -10  -9    2.28    0.66
  10  -8   9    1.53    0.57
  -2  10   9    1.15    0.45
  10  -8   9    1.41    0.59
  -1 -10  -9   14.59    1.69
  11  -1  -9   16.12    1.18
   1  10   9   15.17    1.30
  10 -11   9   15.69    1.83
  -4 -10  -9    0.53    0.59
   4  10   9    0.54    0.54
   4  10   9    1.08    0.59
  16 -11  -9    0.47    0.59
  11   5   9    1.32    0.71
   5 -16   9    0.94    0.74
  -2  13  -9    4.69    0.95
  -2  13  -9    4.42    1.08
  13 -11  -9    5.45    1.03
  11   2   9    5.02    0.98
   2 -13   9    2.42    0.85
   1  10  -9    7.19    1.14
  10 -11  -9    6.72    1.01
   1  10  -9    8.10    1.11
  11  -1   9    6.84    0.97
  -1 -10   9    5.67    1.05
   4   7  -9    7.77    1.05
   4   7  -9    7.27    1.01
   7 -11  -9    6.55    1.05
   7 -11  -9    7.71    1.07
  11  -4   9    8.27    1.23
  -4  -7   9    9.70    1.27
  -7  11   9    8.79    1.26
  11  -4   9    8.16    1.05
   4 -11  -9    0.87    0.57
   7   4  -9    0.62    0.41
   7   4  -9    1.50    0.54
  -4  11   9    1.24    0.51
  11  -7   9    0.93    0.51
  11  -7   9    1.06    0.53
   1 -11  -9   16.02    1.75
  10   1  -9   13.36    1.14
  11 -10   9   14.25    1.63
  -1  11   9   15.89    1.28
  11 -10   9   15.15    1.50
  -2 -11  -9    7.56    1.33
   2  11   9    6.03    1.06
  -5 -11  -9    0.14    0.67
   5  11   9    0.03    0.50
   5  11   9   -0.34    0.49
  15 -12  -9    0.23    0.52
  -3  15  -9   -0.91    0.51
  12   3   9   -0.13    0.52
   3 -15   9   -0.65    0.62
   0  12  -9   22.09    1.65
   0  12  -9   21.70    1.79
  12 -12  -9   23.74    1.73
  12   0   9   22.59    1.63
   0 -12   9   20.00    2.07
   9 -12  -9    1.50    0.70
   3   9  -9    2.70    0.79
   3   9  -9    4.10    0.86
   9 -12  -9    3.98    0.82
  12  -3   9    1.56    0.60
  -3  -9   9    2.54    0.78
   6 -12  -9    8.75    1.18
   6 -12  -9    6.65    1.02
   6   6  -9    5.58    0.93
   6   6  -9    8.16    1.04
  12  -6   9    6.70    1.10
  12  -6   9    8.09    1.17
  -6  -6   9    6.54    1.08
   9   3  -9   10.03    1.26
   3 -12  -9   12.59    1.53
   9   3  -9   14.67    1.45
  -9  -3   9   11.89    1.46
  12  -9   9   13.26    1.61
  12  -9   9   13.97    1.62
  -3  12   9   13.50    1.41
  12   0  -9   20.97    1.42
   0 -12  -9   15.83    1.87
 -12   0   9   20.01    1.52
   0  12   9   18.53    1.51
  12 -12   9   20.24    2.06
  -3 -12  -9    4.37    1.21
   3  12   9    3.94    1.01
   3  12   9    3.79    0.97
  -1  14  -9    2.72    0.93
  14 -13  -9    2.73    0.92
  13   1   9    1.86    0.77
   1 -14   9    3.83    1.10
   2  11  -9    4.70    1.01
   2  11  -9    4.04    0.90
  11 -13  -9    3.79    0.89
  13  -2   9    4.05    0.91
  -2 -11   9    3.37    0.91
   8 -13  -9   50.23    2.62
   5   8  -9   50.72    2.52
   8 -13  -9   49.91    2.46
   5   8  -9   47.68    2.44
  -5  -8   9   46.66    2.62
  13  -5   9   45.30    2.41
   8   5  -9   35.22    2.06
   5 -13  -9   36.22    2.23
   8   5  -9   36.45    2.04
  13  -8   9   35.31    2.22
  -8  -5   9   33.71    2.15
  -5  13   9   36.11    1.97
  11   2  -9    7.20    1.04
   2 -13  -9    5.98    1.20
 -11  -2   9    5.91    1.14
  -2  13   9    5.34    1.04
  13 -11   9    7.28    1.34
  -1 -13  -9    7.30    1.49
   1  13   9    5.84    1.20
  13 -14  -9    1.47    0.70
   1  13  -9    2.57    0.91
   1  13  -9    1.65    0.73
  14  -1   9    2.93    0.85
  -1 -13   9    2.79    1.10
   4  10  -9    0.39    0.59
   4  10  -9    0.51    0.61
  10 -14  -9    1.40    0.70
  14  -4   9    2.00    0.73
  -4 -10   9    3.38    0.95
   7   7  -9   10.85    1.40
   7   7  -9   10.42    1.37
   7 -14  -9   11.01    1.51
  -7  -7   9    9.91    1.46
  14  -7   9    8.98    1.29
  10   4  -9    1.67    0.64
  10   4  -9    1.06    0.57
   4 -14  -9   -0.09    0.53
 -10  -4   9    0.12    0.50
  -4  14   9    0.44    0.57
  14 -10   9    0.62    0.64
   1 -14  -9    4.42    1.19
  -1  14   9    8.14    1.32
  12 -15  -9   -0.23    0.61
   3  12  -9   -0.41    0.52
   3  12  -9    0.51    0.57
  -3 -12   9   -0.23    0.63
  15  -3   9   -0.01    0.53
   6   9  -9    1.53    0.70
   9 -15  -9    3.38    0.90
   6   9  -9    1.80    0.76
  -6  -9   9    2.14    0.81
  15  -6   9    1.80    0.71
   6 -15  -9    6.03    1.22
   9   6  -9    7.57    1.31
   9   6  -9    6.00    1.11
  -9  -6   9    5.61    1.18
  15  -9   9    4.40    1.06
  -6  15   9    6.61    1.17
  12   3  -9    3.71    0.87
   3 -15  -9    4.06    1.15
  -3  15   9    4.83    1.10
  15 -12   9    5.40    1.24
 -12  -3   9    5.75    1.18
   5  11  -9    0.94    0.66
   5  11  -9    1.13    0.82
  16  -5   9    0.10    0.58
  -5 -11   9    0.03    0.54
   8   8  -9    7.24    1.22
   8   8  -9    7.91    1.35
   8 -16  -9    8.66    1.44
  -8  -8   9    6.63    1.33
  16  -8   9    4.81    1.13
  11   5  -9   -0.58    0.49
  11   5  -9    0.35    0.52
   5 -16  -9   -0.58    0.62
 -11  -5   9    0.19    0.60
  -5  16   9    0.23    0.56
  16 -11   9    0.12    0.83
   0   1 -10   49.13    1.58
   1  -1 -10   43.72    1.67
  -1   0 -10   44.11    1.79
  -1   0 -10   44.28    1.58
  -1   0 -10   45.50    1.67
  -1   0 -10   46.01    1.67
   1  -1 -10   43.52    1.56
   1  -1 -10   42.13    1.51
   0   1 -10   48.54    1.51
   1  -1 -10   44.78    1.47
   0   1 -10   46.69    1.66
  -1   0 -10   44.35    1.77
   0   1 -10   46.97    1.55
   0  -1  10   46.17    1.77
  -1   1  10   44.60    1.63
   1   0  10   46.38    1.65
  -1   1  10   42.87    1.72
   1   0  10   46.01    1.85
   1   0  10   46.59    1.74
   0  -1  10   48.71    1.68
  -1   3 -10    9.01    0.72
  -1   3 -10    8.07    0.61
  -1   3 -10    7.89    0.62
  -2  -1 -10    7.94    0.64
  -2  -1 -10    7.88    0.68
  -2  -1 -10    7.89    0.75
   3  -2 -10    8.28    0.59
  -2  -1 -10    9.63    0.82
  -1   3 -10    8.10    0.64
  -2  -1 -10    8.78    0.68
   3  -2 -10    8.35    0.87
  -1   3 -10    7.98    0.56
   2   1  10    9.24    0.72
   2   1  10    7.06    0.84
  -3   2  10    7.39    0.58
   1  -3  10    8.98    0.68
   1  -3  10    8.52    0.70
  -3   2  10    8.54    0.53
   1  -3  10    7.65    0.71
   0  -2 -10  101.56    3.25
  -2   2 -10   99.50    3.12
   0  -2 -10  104.22    3.06
   2   0 -10  102.08    3.08
  -2   2 -10   99.62    2.93
   2   0 -10  102.28    2.78
   0  -2 -10  103.91    3.10
   0  -2 -10  103.80    2.99
  -2   2 -10   99.66    3.27
  -2   2 -10   98.82    3.25
  -2   2 -10  100.74    2.87
   2   0 -10  105.85    3.01
   2  -2  10   98.17    3.01
   2  -2  10  100.32    3.17
   0   2  10  102.83    3.36
   2  -2  10   98.28    3.32
  -2   0  10  102.98    2.88
  -2   0  10   96.90    2.94
   2  -2  10   98.90    3.25
   0   2  10  104.15    2.97
   5  -3 -10    1.50    0.32
  -2   5 -10    0.59    0.27
  -3  -2 -10    1.57    0.52
   5  -3 -10    1.68    0.40
  -2   5 -10    0.55    0.31
  -2   5 -10    1.09    0.34
  -2   5 -10    0.93    0.33
  -3  -2 -10    1.62    0.42
  -3  -2 -10    1.58    0.46
  -3  -2 -10    1.95    0.49
   5  -3 -10    1.39    0.34
  -3  -2 -10    1.45    0.45
   3   2  10    1.33    0.44
   2  -5  10    1.06    0.36
   2  -5  10    1.58    0.47
   3   2  10    1.89    0.37
   2  -5  10    1.10    0.39
   3   2  10    1.24    0.37
   3   2  10    1.61    0.41
   2  -5  10    0.83    0.37
  -3   1 -10    8.96    0.69
  -3   1 -10    7.88    0.65
  -3   1 -10    8.82    0.78
   2  -3 -10    7.51    0.57
   2  -3 -10    8.23    0.53
  -3   1 -10    8.54    0.67
   1   2 -10    9.47    0.70
   1   2 -10    8.26    0.65
   2  -3 -10    9.24    0.68
   1   2 -10    8.62    0.57
  -3   1 -10    7.78    0.90
   2  -3 -10    8.47    0.85
  -1  -2  10    8.80    0.57
   3  -1  10    8.11    0.76
  -1  -2  10    9.07    0.65
  -2   3  10    7.47    0.73
   3  -1  10    7.56    0.75
   3  -1  10    8.50    0.86
   3  -1  10    8.29    0.70
  -1  -3 -10   33.12    1.50
  -1  -3 -10   34.25    1.54
  -1  -3 -10   33.59    1.42
  -1  -3 -10   34.84    1.68
  -3   4 -10   35.50    1.63
   4  -1 -10   32.69    1.16
  -3   4 -10   34.02    1.56
   4  -1 -10   32.60    1.44
   4  -1 -10   33.21    1.18
  -3   4 -10   35.69    1.51
  -3   4 -10   35.26    1.30
   3  -4  10   33.53    1.60
   3  -4  10   35.00    1.52
   3  -4  10   34.08    1.52
   3  -4  10   34.19    1.61
   1   3  10   34.20    1.46
   1   3  10   35.31    1.69
   7  -4 -10    6.57    0.59
  -3   7 -10    6.53    0.74
  -4  -3 -10    5.28    0.80
  -3   7 -10    8.35    0.95
  -4  -3 -10    4.86    0.85
   7  -4 -10    5.79    0.75
   3  -7  10    5.30    0.79
   4   3  10    6.77    0.77
   3  -7  10    7.68    0.99
   4   3  10    7.25    0.85
   3  -7  10    7.63    0.98
   4   3  10    6.01    0.75
   4   3  10    6.05    0.81
  -4   0 -10    6.07    0.73
  -4   0 -10    7.39    0.96
  -4   0 -10    7.76    0.79
  -4   0 -10    8.50    0.86
  -4   0 -10    6.97    0.88
   0   4 -10    6.83    0.77
   4  -4 -10    5.29    0.70
   0   4 -10    7.22    0.68
   4  -4 -10    6.73    0.72
   4   0  10    7.12    0.85
   0  -4  10    5.91    0.59
  -4   4  10    5.42    0.69
   0  -4  10    6.13    0.75
   4   0  10    7.29    0.86
   0  -4  10    6.65    0.73
   1  -4 -10   33.66    1.45
   1  -4 -10   33.56    1.45
   3   1 -10   33.75    1.13
   3   1 -10   34.24    1.44
  -4   3 -10   32.79    1.61
   3   1 -10   35.54    1.20
  -4   3 -10   33.07    1.58
   1  -4 -10   32.80    1.52
  -4   3 -10   33.69    1.48
   1  -4 -10   31.28    1.52
   3   1 -10   33.21    1.29
  -1   4  10   32.75    1.41
   4  -3  10   34.09    1.60
   4  -3  10   33.08    1.58
   4  -3  10   35.99    1.53
   4  -3  10   35.05    1.54
  -1   4  10   33.88    1.65
  -2  -4 -10    8.74    0.76
  -4   6 -10    9.80    0.91
  -4   6 -10    9.21    0.90
  -2  -4 -10    9.89    1.06
   6  -2 -10    6.79    0.76
  -4   6 -10    9.60    0.67
  -2  -4 -10   10.68    1.02
   6  -2 -10    9.37    0.54
  -4   6 -10    9.09    0.85
   2   4  10    9.70    1.11
   4  -6  10   10.14    1.10
   2   4  10    9.04    0.80
   4  -6  10    7.55    0.98
   2   4  10    9.40    0.71
   2   4  10    9.71    1.01
   4  -6  10    8.23    0.80
   4  -6  10    9.37    1.06
  -5  -4 -10    5.79    1.08
  -4   9 -10    6.64    0.82
   9  -5 -10    5.70    0.80
   9  -5 -10    5.17    0.67
  -5  -4 -10    5.05    0.86
   5   4  10    5.98    0.94
   4  -9  10    5.29    0.89
   4  -9  10    6.20    1.03
   5   4  10    3.59    0.69
   4  -9  10    6.54    0.89
  -5  -1 -10   13.85    1.01
  -5  -1 -10   13.10    0.89
   6  -5 -10   15.63    1.02
  -1   6 -10   13.53    0.94
  -5  -1 -10   15.46    1.19
  -5  -1 -10   15.57    1.01
   6  -5 -10   14.50    0.92
   1  -6  10   14.49    1.05
   5   1  10   14.91    1.03
  -6   5  10   15.29    0.90
   1  -6  10   15.82    1.05
   5   1  10   14.66    0.90
   5   1  10   14.50    0.95
   1  -6  10   15.41    1.02
   3  -5 -10    1.44    0.37
   3  -5 -10    0.83    0.35
   2   3 -10    1.74    0.30
   3  -5 -10    1.93    0.44
   3  -5 -10    1.71    0.36
  -5   2 -10    0.43    0.26
   2   3 -10    1.17    0.35
   2   3 -10    1.40    0.35
  -5   2 -10    1.28    0.38
   2   3 -10    1.64    0.35
  -5   2 -10    1.21    0.46
   2   3 -10    2.21    0.39
   5  -2  10    1.06    0.38
   5  -2  10    1.17    0.41
   5  -2  10    1.47    0.41
  -3   5  10    1.65    0.50
  -3   5  10    1.46    0.36
  -5   5 -10    6.27    0.52
   0  -5 -10    7.83    0.96
   5   0 -10    7.97    0.84
   0  -5 -10    6.21    0.88
  -5   5 -10    8.02    0.99
  -5   5 -10    7.84    0.86
  -5   5 -10    9.33    1.10
   0  -5 -10    7.80    0.87
   5  -5  10    9.15    1.01
   5  -5  10    7.80    0.96
   0   5  10    7.67    1.06
   0   5  10    6.81    0.58
   0   5  10    7.49    0.93
   5  -5  10    8.50    1.02
   5  -5  10    5.77    0.77
   0   5  10    7.28    0.83
  -5   8 -10    0.33    0.26
  -3  -5 -10    0.62    0.43
   8  -3 -10    0.35    0.30
  -3  -5 -10    0.04    0.39
  -5   8 -10    0.01    0.34
   5  -8  10    0.61    0.43
   5  -8  10    0.81    0.50
   3   5  10    0.40    0.39
   3   5  10    0.32    0.31
   5  -8  10    0.15    0.36
   5  -8  10    0.35    0.40
   3   5  10    0.20    0.31
  11  -6 -10    0.23    0.31
  -5  11 -10    0.30    0.34
  11  -6 -10    1.36    0.46
  -6  -5 -10    0.56    0.44
   5 -11  10    0.84    0.50
   6   5  10    0.22    0.36
   6   5  10    0.89    0.49
   8  -6 -10   13.74    0.95
   8  -6 -10   13.93    1.00
  -2   8 -10   14.88    1.03
  -6  -2 -10   14.63    1.28
  -6  -2 -10   14.10    1.09
   2  -8  10   16.72    1.20
   6   2  10   13.09    1.05
  -8   6  10   13.98    0.92
   2  -8  10   14.57    1.18
  -6   1 -10   15.95    1.18
   5  -6 -10   14.38    1.02
   1   5 -10   15.70    1.00
   5  -6 -10   12.89    0.96
   1   5 -10   14.99    0.96
  -6   1 -10   15.90    0.90
   1   5 -10   16.48    1.06
  -6   1 -10   14.13    0.99
   6  -1  10   13.52    1.08
   6  -1  10   16.50    1.09
  -1  -5  10   13.86    0.91
  -1  -5  10   14.23    0.86
  -1  -5  10   15.05    0.92
  -5   6  10   13.90    1.07
   6  -1  10   12.90    0.90
   4   2 -10    8.94    0.49
   4   2 -10    8.63    0.57
  -6   4 -10    9.27    1.09
  -6   4 -10    8.81    0.81
   2  -6 -10    8.33    0.98
   4   2 -10   10.42    0.72
   2  -6 -10   11.02    0.88
   4   2 -10    7.88    0.58
   2  -6 -10    8.24    0.95
  -6   4 -10    8.34    1.11
   4   2 -10    9.62    0.80
  -2   6  10    9.97    0.87
   6  -4  10    7.68    1.00
   6  -4  10    8.55    1.01
   6  -4  10    9.15    0.79
  -2   6  10    9.83    0.83
   6  -4  10    8.50    0.84
  -2   6  10    9.00    0.62
  -2   6  10    8.57    1.02
  -6   7 -10    8.19    0.99
  -6   7 -10   11.04    1.26
  -1  -6 -10   10.36    1.24
  -1  -6 -10   10.62    1.10
  -6   7 -10    8.89    0.63
  -1  -6 -10    7.64    1.00
   7  -1 -10    9.25    0.95
   1   6  10    8.92    1.02
   1   6  10    8.76    0.86
   1   6  10    9.32    0.78
   1   6  10   11.79    1.37
   6  -7  10   10.07    0.97
   6  -7  10    8.32    1.08
   6  -7  10    9.11    1.08
   6  -7  10    9.29    1.05
  -4  -6 -10   24.25    1.61
  10  -4 -10   19.62    1.20
  -4  -6 -10   25.14    1.83
  -6  10 -10   20.16    1.17
   4   6  10   24.41    1.53
   6 -10  10   23.72    1.65
   4   6  10   24.26    1.43
   6 -10  10   22.08    1.29
  -6  13 -10    2.11    0.62
  -7  -6 -10    2.25    0.77
  13  -7 -10    2.69    0.64
   6 -13  10    2.92    0.79
   7   6  10    0.59    0.50
   7   6  10    1.89    0.66
  10  -7 -10   10.37    0.93
  10  -7 -10   12.31    0.98
  -7  -3 -10   13.11    1.13
  -3  10 -10   13.18    1.05
   3 -10  10   14.92    1.46
   3 -10  10   11.95    1.19
   7   3  10   13.06    1.11
  -7   0 -10   11.58    1.12
   0   7 -10   14.31    1.03
   7  -7 -10   11.69    0.95
  -7   0 -10   12.91    1.03
   7  -7 -10   11.03    0.97
  -7   0 -10   12.05    0.91
   0  -7  10   12.80    1.02
  -7   7  10   12.33    0.94
   7   0  10   12.29    1.03
   0  -7  10   11.86    0.99
  -7   7  10   14.15    1.05
   3   4 -10    7.69    0.83
   4  -7 -10    6.84    0.84
   3   4 -10    4.84    0.72
  -7   3 -10    7.81    1.05
   4  -7 -10    6.74    0.86
   4  -7 -10    7.32    0.65
  -7   3 -10    6.11    0.82
   3   4 -10    7.33    0.67
   4  -7 -10    6.67    0.90
   3   4 -10    7.34    0.73
   7  -3  10    7.06    0.84
   7  -3  10    6.69    0.85
   7  -3  10    7.34    1.06
  -4   7  10    6.30    0.87
  -4   7  10    7.49    1.03
   6   1 -10    9.89    0.76
   1  -7 -10    8.66    1.13
  -7   6 -10    9.97    0.97
   1  -7 -10    9.57    1.04
   6   1 -10   10.60    0.86
  -7   6 -10    9.28    1.18
   1  -7 -10   10.31    1.32
  -1   7  10    7.99    1.06
   7  -6  10   11.11    1.25
   7  -6  10   10.90    1.17
   7  -6  10    8.59    0.84
  -1   7  10    9.00    1.15
   7  -6  10   10.42    0.97
  -1   7  10    9.27    0.74
  -1   7  10    8.98    1.06
   9  -2 -10    7.03    0.89
  -2  -7 -10    6.43    1.02
  -2  -7 -10    6.16    1.12
  -7   9 -10    6.42    1.02
   2   7  10    6.01    0.84
   7  -9  10    5.09    0.91
   2   7  10    5.58    0.88
   7  -9  10    7.05    1.07
   7  -9  10    8.96    1.27
  -5  -7 -10   -0.14    0.42
   5   7  10    0.42    0.45
   5   7  10    0.29    0.47
  15  -8 -10    1.93    0.64
  -8  -7 -10    1.26    0.74
   8   7  10    2.12    0.82
   8   7  10    3.27    0.92
  12  -8 -10    6.23    0.91
  -8  -4 -10    6.54    1.09
  -4  12 -10    5.26    0.90
   8   4  10    5.87    0.99
   8   4  10    4.48    0.87
   4 -12  10    5.47    0.96
   9  -8 -10    0.99    0.43
   9  -8 -10    0.12    0.35
  -1   9 -10    0.42    0.37
  -8  -1 -10   -0.05    0.35
   1  -9  10    0.78    0.51
   8   1  10    0.56    0.39
   2   6 -10   14.67    1.11
   6  -8 -10   13.10    1.11
   2   6 -10   13.56    1.04
   6  -8 -10   15.23    1.13
  -8   2 -10   15.04    1.10
  -8   2 -10   16.77    1.29
  -6   8  10   13.41    1.11
   8  -2  10   16.20    1.18
  -2  -6  10   14.33    0.85
   8  -2  10   15.72    1.22
  -6   8  10   13.83    1.22
  -2  -6  10   14.81    0.99
   3  -8 -10    0.05    0.32
  -8   5 -10    0.48    0.40
   5   3 -10    0.21    0.35
  -8   5 -10    0.28    0.39
   3  -8 -10    0.50    0.41
   5   3 -10    0.34    0.34
  -3   8  10    0.45    0.36
   8  -5  10    0.61    0.42
  -3   8  10    0.14    0.30
  -3   8  10    0.73    0.45
  -3   8  10    0.51    0.40
   8  -5  10    0.47    0.39
   8  -5  10    0.42    0.35
  -8   8 -10   23.48    1.56
  -8   8 -10   22.07    1.59
   0  -8 -10   25.59    1.64
   0  -8 -10   25.43    1.74
   8   0 -10   24.37    1.36
   8  -8  10   25.14    1.66
   0   8  10   24.51    1.34
   8  -8  10   21.27    1.59
   0   8  10   25.61    1.53
  -3  -8 -10    3.31    0.86
  11  -3 -10    2.58    0.59
   3   8  10    2.60    0.67
   3   8  10    2.56    0.74
  -6  -8 -10    3.27    1.00
  14  -6 -10    3.57    0.68
   6   8  10    4.21    0.98
   6   8  10    4.69    0.97
  14  -9 -10    3.50    0.76
  -9  -5 -10    1.96    0.79
   9   5  10    2.38    0.77
   5 -14  10    3.23    0.88
   9   5  10    5.12    1.05
  -9  -2 -10    4.30    0.86
  11  -9 -10    4.47    0.86
  -2  11 -10    4.40    0.78
   2 -11  10    4.57    0.95
   9   2  10    4.70    0.90
   8  -9 -10    0.49    0.44
   1   8 -10    1.94    0.58
   8  -9 -10    1.15    0.48
   1   8 -10    1.10    0.44
  -1  -8  10    0.63    0.52
   9  -1  10    1.42    0.50
   4   5 -10    5.05    0.81
   5  -9 -10    5.22    0.84
  -9   4 -10    7.09    1.11
   4   5 -10    6.13    0.94
   5  -9 -10    5.69    0.94
   9  -4  10    5.88    1.03
   9  -4  10    5.10    0.93
  -5   9  10    4.80    0.97
  -5   9  10    6.11    0.99
  -9   7 -10    7.66    1.12
   7   2 -10    5.87    0.85
   7   2 -10    6.11    0.84
   2  -9 -10    6.02    1.02
  -9   7 -10    5.77    1.00
   2  -9 -10    7.30    1.03
   9  -7  10    6.20    1.08
  -2   9  10    9.27    1.27
  -2   9  10    6.62    0.85
   9  -7  10    6.37    1.12
  10  -1 -10    1.34    0.52
  -9  10 -10    1.35    0.61
  -1  -9 -10    2.25    0.75
   9 -10  10    1.88    0.72
   1   9  10    2.01    0.59
   1   9  10    2.44    0.73
   9 -10  10    1.24    0.64
  -4  -9 -10    0.35    0.59
   4   9  10    0.57    0.52
   4   9  10    0.42    0.45
  16  -7 -10    0.18    0.45
  -7  -9 -10    0.60    0.74
   7   9  10    0.48    0.56
   7   9  10    0.23    0.60
  16 -10 -10    5.15    1.03
 -10  -6 -10    2.39    0.99
   6 -16  10    3.12    1.03
  10   6  10    3.25    0.98
  13 -10 -10    6.91    1.08
  -3  13 -10    6.74    1.06
  10   3  10    7.13    1.17
   3 -13  10    7.06    1.22
   0  10 -10   10.52    1.27
  10 -10 -10   11.25    1.25
   0  10 -10    9.81    1.28
  10 -10 -10    9.48    1.22
   0 -10  10    8.56    1.27
  10   0  10    8.73    1.11
   7 -10 -10   11.73    1.29
   3   7 -10   14.07    1.19
   7 -10 -10   12.74    1.48
   3   7 -10   12.83    1.34
  10  -3  10   13.11    1.20
  10  -3  10   14.16    1.51
  -3  -7  10   11.19    1.37
   6   4 -10   23.11    1.45
   6   4 -10   23.93    1.41
   4 -10 -10   21.86    1.51
   4 -10 -10   23.00    1.59
  10  -6  10   21.30    1.56
  -4  10  10   21.47    1.27
  -4  10  10   22.08    1.68
  10  -6  10   21.74    1.58
   1 -10 -10    1.67    0.66
   9   1 -10    2.78    0.65
   9   1 -10    3.52    0.71
  10  -9  10    1.16    0.61
  10  -9  10    1.91    0.79
  -1  10  10    1.99    0.60
  12  -2 -10    1.53    0.54
  -2 -10 -10    1.91    0.83
   2  10  10    2.71    0.76
   2  10  10    1.18    0.61
  -5 -10 -10    2.30    0.95
   5  10  10    2.43    0.82
   5  10  10    2.65    0.86
  15 -11 -10    0.08    0.51
   4 -15  10   -0.15    0.52
  11   4  10   -0.18    0.48
  -1  12 -10    1.63    0.66
  12 -11 -10    1.35    0.63
  -1  12 -10    1.93    0.78
  11   1  10    1.70    0.69
   1 -12  10    0.99    0.64
   9 -11 -10    4.56    0.84
   2   9 -10    5.71    1.00
   9 -11 -10    4.12    0.93
   2   9 -10    4.14    0.89
  11  -2  10    3.93    0.81
  11  -2  10    4.26    0.92
  -2  -9  10    3.82    0.92
   6 -11 -10    0.43    0.43
   5   6 -10    0.08    0.36
   6 -11 -10    0.61    0.49
   5   6 -10    0.18    0.39
  -5  -6  10    0.13    0.45
  11  -5  10    0.94    0.52
  11  -5  10    0.80    0.46
   8   3 -10    2.20    0.62
   3 -11 -10    2.48    0.83
   8   3 -10    3.11    0.68
  -3  11  10    2.40    0.65
  11  -8  10    4.23    1.00
  11  -8  10    3.00    0.87
  11   0 -10    0.07    0.36
   0 -11 -10    0.84    0.62
  11 -11  10    0.07    0.55
   0  11  10    0.16    0.42
  -3 -11 -10   -0.01    0.57
   3  11  10   -0.39    0.40
   3  11  10   -0.20    0.42
  14 -12 -10    1.38    0.75
  -2  14 -10    0.63    0.62
  -2  14 -10    0.64    0.61
  12   2  10    0.57    0.55
   2 -14  10    0.03    0.65
  11 -12 -10    2.17    0.77
   1  11 -10    0.88    0.52
   1  11 -10    2.66    0.82
  12  -1  10    1.03    0.57
  -1 -11  10    0.85    0.70
   4   8 -10    6.82    1.16
   4   8 -10    5.85    1.01
   8 -12 -10    6.48    1.09
   8 -12 -10    6.12    1.10
  -4  -8  10    7.53    1.29
  12  -4  10    6.76    1.17
   7   5 -10   -0.47    0.35
   5 -12 -10    0.61    0.53
   7   5 -10    0.28    0.36
  -5  12  10    0.42    0.44
  12  -7  10   -0.11    0.46
  -7  -5  10    0.60    0.48
  12  -7  10    0.57    0.49
  10   2 -10    1.13    0.55
   2 -12 -10    1.53    0.76
  10   2 -10    0.59    0.46
  12 -10  10    3.18    1.02
  -2  12  10    2.25    0.67
  12 -10  10    1.82    0.80
  -1 -12 -10   -0.17    0.51
   1  12  10    0.63    0.56
   0  13 -10    0.23    0.48
   0  13 -10    0.74    0.58
  13 -13 -10    0.53    0.59
  13   0  10    0.18    0.44
   0 -13  10   -0.70    0.53
   3  10 -10    8.22    1.34
   3  10 -10    5.14    0.96
  10 -13 -10    7.28    1.28
  -3 -10  10    4.53    1.10
  13  -3  10    4.65    0.95
   6   7 -10    2.94    0.82
   7 -13 -10    1.52    0.72
   6   7 -10    3.15    0.82
   7 -13 -10    3.00    0.87
  -6  -7  10    3.31    0.92
  13  -6  10    2.79    0.78
   9   4 -10    0.27    0.43
   4 -13 -10    1.20    0.75
   9   4 -10    0.02    0.43
  13  -9  10    0.57    0.65
  -9  -4  10    0.03    0.45
  -4  13  10    0.81    0.53
  12   1 -10    0.84    0.55
   1 -13 -10    1.77    0.76
  -1  13  10    0.50    0.54
 -12  -1  10    0.29    0.50
  13 -12  10    0.71    0.75
   2  12 -10    0.80    0.65
   2  12 -10    0.42    0.56
  12 -14 -10    0.71    0.66
  14  -2  10    1.22    0.65
  -2 -12  10    1.74    0.89
   9 -14 -10    2.69    0.82
   9 -14 -10    3.79    1.09
   5   9 -10    2.37    0.75
   5   9 -10    1.86    0.68
  14  -5  10    2.01    0.76
  -5  -9  10    4.44    1.03
   8   6 -10    2.75    0.77
   6 -14 -10    3.20    0.97
   8   6 -10    3.65    0.90
  -6  14  10    2.18    0.75
  -8  -6  10    2.76    0.86
  14  -8  10    4.38    1.03
  11   3 -10    0.75    0.59
   3 -14 -10    0.77    0.68
  11   3 -10    0.29    0.50
 -11  -3  10    0.49    0.60
  -3  14  10    0.20    0.45
  14 -11  10    0.76    0.82
   0 -14 -10    1.53    0.85
   0  14  10    1.60    0.80
   4  11 -10   -0.10    0.55
  11 -15 -10    0.37    0.76
   4  11 -10    0.01    0.45
  -4 -11  10    0.07    0.62
  15  -4  10    0.24    0.52
   8 -15 -10    1.77    0.79
   7   8 -10    2.41    0.77
   7   8 -10    2.90    0.92
  -7  -8  10    1.29    0.77
  15  -7  10    1.87    0.88
  10   5 -10    1.77    0.78
  10   5 -10    2.13    0.73
   5 -15 -10    2.86    0.93
 -10  -5  10    3.58    0.98
  -5  15  10    2.90    0.87
  15 -10  10    3.63    1.07
   6  10 -10    2.08    0.84
   6  10 -10    3.69    0.99
  16  -6  10    3.60    1.01
  -6 -10  10    2.14    0.91
   9   7 -10   -0.03    0.51
   7 -16 -10    0.17    0.74
   9   7 -10   -0.28    0.55
  -9  -7  10   -0.04    0.57
  16  -9  10   -0.01    0.72
  -7  16  10   -0.01    0.59
  -1   1 -11    3.35    0.54
  -1   1 -11    3.29    0.57
   1   0 -11    2.83    0.50
   0  -1 -11    3.89    0.54
   0  -1 -11    3.00    0.51
   1   0 -11    3.18    0.51
   1   0 -11    2.99    0.46
  -1   1 -11    2.96    0.47
  -1   1 -11    2.90    0.52
   0  -1 -11    3.25    0.52
   0  -1 -11    3.07    0.54
  -1   1 -11    2.67    0.46
   1  -1  11    2.61    0.45
   0   1  11    3.00    0.61
   0   1  11    2.65    0.44
  -1   0  11    3.03    0.44
   1  -1  11    2.55    0.55
   1  -1  11    2.71    0.50
  -1   0  11    3.36    0.54
   0   1  11    3.19    0.50
   0   2 -11   64.88    2.04
  -2   0 -11   62.16    2.37
  -2   0 -11   63.93    2.11
   0   2 -11   68.61    2.18
   0   2 -11   62.22    2.27
  -2   0 -11   63.80    2.11
  -2   0 -11   62.24    2.21
   2  -2 -11   61.41    2.06
   2  -2 -11   61.60    2.21
  -2   0 -11   63.96    2.41
  -2   2  11   61.73    2.27
   2   0  11   64.83    2.21
   2   0  11   65.30    2.32
   0  -2  11   65.85    2.16
   0  -2  11   62.06    2.27
  -2   2  11   62.10    2.15
  -1  -2 -11   18.10    1.07
  -2   3 -11   19.57    1.14
   3  -1 -11   18.77    0.89
  -1  -2 -11   17.25    0.99
  -1  -2 -11   18.17    1.17
  -1  -2 -11   17.27    0.99
  -2   3 -11   20.19    1.02
   3  -1 -11   20.01    1.09
  -2   3 -11   19.35    1.09
  -2   3 -11   20.94    1.02
   2  -3  11   18.43    1.11
   1   2  11   17.65    1.17
   2  -3  11   17.22    1.12
   2  -3  11   20.65    1.10
   1   2  11   19.23    1.05
  -3   1  11   18.62    0.89
  -3   1  11   19.27    0.81
   2  -3  11   19.77    1.08
  -3  -1 -11    0.86    0.35
  -1   4 -11    0.27    0.21
  -1   4 -11   -0.02    0.17
   4  -3 -11    0.54    0.29
  -3  -1 -11    0.43    0.31
  -3  -1 -11    0.56    0.33
  -1   4 -11    0.40    0.23
  -3  -1 -11    0.59    0.42
   4  -3 -11    0.66    0.27
  -3  -1 -11    0.75    0.34
  -1   4 -11    1.01    0.33
   3   1  11    0.66    0.36
   1  -4  11    0.41    0.27
  -4   3  11    0.80    0.25
  -4   3  11    0.37    0.27
   1  -4  11    0.26    0.24
   1  -4  11    0.69    0.34
   3   1  11    0.51    0.28
  -3   2 -11   18.56    1.16
  -3   2 -11   20.74    1.04
   2   1 -11   18.31    1.03
   2   1 -11   17.92    0.95
   1  -3 -11   21.00    1.16
   1  -3 -11   16.61    0.97
  -3   2 -11   20.41    0.97
  -3   2 -11   18.53    1.13
   2   1 -11   16.01    0.81
  -3   2 -11   20.42    1.07
   1  -3 -11   18.21    0.92
   1  -3 -11   17.89    1.04
  -1   3  11   17.66    0.97
   3  -2  11   19.98    1.20
   3  -2  11   21.25    1.19
  -2  -1  11   17.14    0.78
  -1   3  11   17.88    1.15
  -2  -1  11   15.78    0.84
   3  -2  11   19.30    1.10
   3  -2  11   18.78    1.06
  -3   5 -11    2.71    0.56
  -3   5 -11    2.60    0.59
  -3   5 -11    2.79    0.59
   5  -2 -11    3.07    0.43
   5  -2 -11    2.79    0.42
  -2  -3 -11    2.64    0.56
  -3   5 -11    2.82    0.48
  -2  -3 -11    2.91    0.56
   5  -2 -11    2.09    0.48
  -2  -3 -11    2.74    0.57
  -2  -3 -11    2.97    0.65
   2   3  11    3.30    0.61
   2   3  11    2.73    0.61
   3  -5  11    3.01    0.62
   3  -5  11    1.71    0.53
   3  -5  11    2.61    0.60
   2   3  11    2.98    0.47
   2   3  11    2.56    0.56
   3  -5  11    3.47    0.62
  -2   6 -11    1.32    0.38
  -2   6 -11    1.24    0.37
  -2   6 -11    0.32    0.28
  -4  -2 -11    0.87    0.51
  -4  -2 -11    1.01    0.37
  -4  -2 -11    0.69    0.37
   6  -4 -11    0.66    0.34
  -2   6 -11    1.12    0.43
   6  -4 -11    2.11    0.43
  -4  -2 -11    0.42    0.37
  -6   4  11    1.45    0.34
   2  -6  11    1.40    0.50
   4   2  11    1.04    0.42
   4   2  11    0.91    0.37
  -6   4  11    1.51    0.32
   4   2  11    1.05    0.41
   2  -6  11    1.11    0.41
   2  -6  11    1.00    0.42
   3  -4 -11    0.45    0.30
  -4   1 -11    0.57    0.33
   1   3 -11    0.38    0.23
  -4   1 -11    0.63    0.30
   1   3 -11    0.38    0.29
   1   3 -11    0.48    0.28
  -4   1 -11    0.40    0.33
   3  -4 -11    0.38    0.31
  -4   1 -11    0.80    0.44
   3  -4 -11    0.61    0.22
  -4   1 -11    0.88    0.36
   4  -1  11    0.57    0.34
  -1  -3  11    0.66    0.28
   4  -1  11    0.48    0.32
  -1  -3  11    0.55    0.28
   4  -1  11    0.26    0.33
  -3   4  11    0.77    0.41
  -1  -3  11    0.73    0.29
   0  -4 -11   59.43    2.15
   4   0 -11   59.32    1.76
  -4   4 -11   57.36    2.35
  -4   4 -11   57.35    2.23
   4   0 -11   59.57    1.79
   0  -4 -11   61.79    2.26
   4   0 -11   56.50    2.11
  -4   4 -11   55.89    1.89
  -4   4 -11   57.43    2.34
   0  -4 -11   58.94    2.38
   0  -4 -11   56.33    2.22
   4  -4  11   61.58    2.41
   4  -4  11   61.87    2.29
   0   4  11   60.34    2.47
   4  -4  11   56.61    2.34
   0   4  11   61.07    2.17
   4  -4  11   57.37    2.23
  -4   7 -11    0.48    0.40
  -4   7 -11    0.23    0.27
   7  -3 -11    0.57    0.28
  -3  -4 -11    0.72    0.41
   7  -3 -11    0.38    0.25
  -3  -4 -11    0.23    0.46
  -4   7 -11   -0.04    0.32
   7  -3 -11    0.35    0.34
   3   4  11    0.46    0.29
   3   4  11    0.24    0.27
   4  -7  11    0.48    0.38
   4  -7  11   -0.09    0.29
   4  -7  11    0.10    0.32
   3   4  11    0.15    0.32
   4  -7  11    0.48    0.39
   3   4  11    0.35    0.39
   8  -5 -11   31.01    1.38
  -5  -3 -11   34.18    1.72
  -3   8 -11   30.89    1.50
   8  -5 -11   32.65    1.57
  -5  -3 -11   33.93    1.95
   5   3  11   31.29    1.55
   3  -8  11   32.85    1.82
   3  -8  11   34.20    1.77
   5   3  11   32.31    1.68
  -5   0 -11   50.94    1.90
  -5   0 -11   48.79    1.88
   5  -5 -11   47.57    1.89
  -5   0 -11   50.39    2.06
   5  -5 -11   49.31    2.00
  -5   0 -11   49.11    2.23
   0   5 -11   50.72    2.06
   0   5 -11   50.60    1.97
   0  -5  11   48.06    2.00
   0  -5  11   52.14    1.97
   0  -5  11   53.19    1.99
   5   0  11   49.83    2.04
  -5   5  11   47.65    1.99
   5   0  11   49.70    2.05
   3   2 -11    3.05    0.45
   2  -5 -11    2.52    0.51
  -5   3 -11    2.63    0.47
  -5   3 -11    2.81    0.61
   2  -5 -11    3.03    0.53
   3   2 -11    3.30    0.53
   2  -5 -11    2.25    0.55
   3   2 -11    2.94    0.39
   3   2 -11    2.60    0.43
   2  -5 -11    2.41    0.52
   3   2 -11    2.94    0.57
  -5   3 -11    2.79    0.69
  -5   3 -11    1.84    0.46
   5  -3  11    2.96    0.59
  -2   5  11    2.40    0.60
   5  -3  11    2.49    0.52
   5  -3  11    2.55    0.62
  -2   5  11    2.17    0.49
   5  -3  11    2.66    0.59
  -5   6 -11   21.68    1.32
  -5   6 -11   24.10    1.07
  -1  -5 -11   24.18    1.32
  -5   6 -11   23.26    1.45
  -1  -5 -11   23.44    1.42
  -1  -5 -11   23.01    1.52
  -5   6 -11   21.72    1.42
   6  -1 -11   21.47    1.21
   1   5  11   22.25    1.09
   5  -6  11   24.56    1.47
   1   5  11   21.87    1.33
   5  -6  11   22.57    1.33
   5  -6  11   24.47    1.49
   1   5  11   23.21    1.48
   1   5  11   21.62    1.30
   5  -6  11   25.34    1.47
  -5   9 -11    4.37    0.63
   9  -4 -11    3.72    0.51
  -4  -5 -11    3.38    0.70
   9  -4 -11    4.46    0.67
  -4  -5 -11    3.30    0.82
   4   5  11    5.01    0.84
   5  -9  11    2.17    0.65
   5  -9  11    3.48    0.65
   4   5  11    3.09    0.61
   5  -9  11    4.53    0.85
  -6  -4 -11    0.34    0.50
  10  -6 -11    0.47    0.35
  -4  10 -11    0.62    0.37
  10  -6 -11    0.13    0.33
   6   4  11    0.24    0.40
   4 -10  11    0.71    0.48
   4 -10  11    0.96    0.55
   6   4  11    0.28    0.38
  -6  -1 -11   -0.10    0.41
  -1   7 -11    0.21    0.29
   7  -6 -11    0.17    0.29
   7  -6 -11    0.47    0.32
  -6  -1 -11   -0.19    0.31
  -6  -1 -11   -0.04    0.33
  -7   6  11    0.34    0.30
   1  -7  11    0.22    0.34
   1  -7  11    0.04    0.33
   6   1  11    0.28    0.35
   6   1  11   -0.24    0.23
   6   1  11    0.22    0.31
  -6   2 -11    1.73    0.55
   4  -6 -11    1.57    0.47
   2   4 -11    0.98    0.39
   2   4 -11    0.89    0.34
   2   4 -11    1.44    0.39
   4  -6 -11    1.16    0.39
   4  -6 -11    1.54    0.36
  -6   2 -11    1.77    0.39
   4  -6 -11    0.96    0.31
  -6   2 -11    0.81    0.40
   2   4 -11    1.14    0.38
   6  -2  11    1.25    0.42
  -2  -4  11    0.89    0.31
   6  -2  11    1.90    0.55
   6  -2  11    1.49    0.52
  -2  -4  11    0.95    0.33
  -4   6  11    1.14    0.48
  -6   5 -11   23.38    1.51
   5   1 -11   21.92    1.26
  -6   5 -11   23.10    1.37
   5   1 -11   23.76    1.10
  -6   5 -11   23.82    1.00
   1  -6 -11   23.20    1.45
   1  -6 -11   23.04    1.47
  -6   5 -11   26.67    1.64
   1  -6 -11   22.52    1.32
  -1   6  11   23.05    1.38
   6  -5  11   23.04    1.45
  -1   6  11   22.30    1.05
  -1   6  11   22.37    1.53
   6  -5  11   22.50    1.46
  -1   6  11   22.79    1.32
   6  -5  11   25.86    1.47
   6  -5  11   26.05    1.38
  -6   8 -11   12.64    0.82
  -6   8 -11   11.21    1.09
   8  -2 -11   11.30    0.93
  -2  -6 -11   12.65    1.41
  -2  -6 -11   11.77    1.31
   6  -8  11   13.21    1.19
   6  -8  11   12.81    1.33
   6  -8  11   13.68    1.12
   2   6  11   13.68    1.13
   6  -8  11   13.15    1.19
   2   6  11   11.56    0.92
  -6  11 -11    2.72    0.57
  11  -5 -11    2.57    0.49
  11  -5 -11    2.63    0.59
  -5  -6 -11    4.63    1.00
   5   6  11    2.06    0.66
   6 -11  11    3.63    0.73
   5   6  11    2.54    0.72
  -7  -5 -11    3.65    0.89
  -5  12 -11    2.21    0.58
  12  -7 -11    2.89    0.63
   7   5  11    1.22    0.51
   5 -12  11    1.76    0.65
   7   5  11    2.58    0.74
   9  -7 -11    4.00    0.70
  -7  -2 -11    5.94    0.91
   9  -7 -11    4.08    0.71
  -2   9 -11    5.37    0.83
   2  -9  11    5.29    0.94
   7   2  11    5.72    0.94
  -7   1 -11   -0.15    0.37
   6  -7 -11    0.62    0.37
  -7   1 -11    0.44    0.31
   6  -7 -11   -0.03    0.34
   1   6 -11    0.24    0.30
   1   6 -11    0.02    0.32
  -7   1 -11    0.26    0.33
   7  -1  11   -0.29    0.29
  -6   7  11   -0.20    0.38
  -1  -6  11    0.26    0.32
   7  -1  11    0.06    0.31
  -6   7  11    0.47    0.34
   7  -1  11    0.18    0.25
  -1  -6  11    0.19    0.25
  -1  -6  11    0.34    0.41
  -7   4 -11    0.60    0.36
   4   3 -11    0.29    0.35
   3  -7 -11   -0.13    0.29
   3  -7 -11    0.28    0.37
   3  -7 -11    0.41    0.37
   4   3 -11    0.22    0.27
  -7   4 -11    0.47    0.45
   4   3 -11    0.54    0.28
   4   3 -11    0.32    0.21
   3  -7 -11    0.01    0.27
   4   3 -11    0.09    0.24
   7  -4  11    0.39    0.35
  -3   7  11    0.35    0.43
   7  -4  11    0.48    0.40
   7  -4  11    0.30    0.30
  -3   7  11    0.82    0.32
   7  -4  11   -0.03    0.30
  -3   7  11   -0.16    0.31
   0  -7 -11    0.79    0.46
  -7   7 -11    1.26    0.54
  -7   7 -11    1.30    0.56
   0  -7 -11    0.49    0.36
   0  -7 -11    0.96    0.50
   7   0 -11    1.14    0.39
   7  -7  11    1.20    0.56
   7  -7  11    1.60    0.55
   0   7  11    1.49    0.45
   7  -7  11    1.95    0.58
   0   7  11    0.98    0.33
   0   7  11    0.80    0.52
  -3  -7 -11    0.17    0.47
  -3  -7 -11    0.35    0.43
  10  -3 -11    0.09    0.33
   3   7  11   -0.19    0.29
   3   7  11   -0.06    0.34
  13  -6 -11    1.66    0.52
  -6  -7 -11    1.61    0.75
   6   7  11    0.76    0.60
   6   7  11    2.33    0.71
  14  -8 -11    0.39    0.44
  -8  -6 -11    0.81    0.61
   8   6  11    0.42    0.50
   8   6  11    0.44    0.54
   6 -14  11    0.26    0.59
  -3  11 -11    7.99    1.04
  11  -8 -11    7.98    0.98
  -8  -3 -11    8.19    1.13
   3 -11  11    8.13    1.15
   8   3  11    7.95    1.07
   0   8 -11   40.73    1.92
   8  -8 -11   38.93    1.90
  -8   0 -11   39.87    1.75
   8  -8 -11   42.04    1.93
   0   8 -11   41.00    1.95
   8   0  11   39.95    1.98
   5  -8 -11   32.63    1.73
   3   5 -11   34.55    1.59
  -8   3 -11   31.60    1.67
  -8   3 -11   32.93    1.89
   3   5 -11   35.47    1.73
   5  -8 -11   29.53    1.69
  -5   8  11   33.41    1.92
  -3  -5  11   34.53    1.41
  -5   8  11   32.46    1.78
   8  -3  11   33.02    1.84
   8  -3  11   31.15    1.72
   2  -8 -11   11.10    1.17
   6   2 -11   14.18    1.05
   2  -8 -11   11.46    1.27
  -8   6 -11   12.11    1.12
  -8   6 -11   12.77    1.21
   6   2 -11   12.81    0.94
   8  -6  11   14.23    1.25
  -2   8  11   12.04    1.43
  -2   8  11   11.57    1.03
  -2   8  11   12.68    0.88
   8  -6  11   11.00    1.34
  -2   8  11   13.06    1.15
   9  -1 -11   10.13    1.08
  -1  -8 -11    9.69    1.30
  -8   9 -11    9.73    1.35
   1   8  11    9.78    1.22
   1   8  11    9.50    1.07
   8  -9  11    9.78    1.24
   8  -9  11    9.53    1.32
  -4  -8 -11   24.39    1.81
   4   8  11   20.72    1.51
   4   8  11   19.84    1.57
  -7  -8 -11    0.34    0.63
  15  -7 -11    0.62    0.47
   7   8  11    1.20    0.74
   7   8  11    0.39    0.59
  -9  -4 -11    5.76    1.05
  13  -9 -11    6.12    0.98
  -4  13 -11    4.87    0.87
   9   4  11    4.05    0.95
   4 -13  11    3.80    0.95
  -1  10 -11    0.91    0.46
  10  -9 -11    1.68    0.57
  -9  -1 -11    0.67    0.46
  -1  10 -11    2.35    0.69
  10  -9 -11    1.38    0.58
   1 -10  11    0.58    0.54
   9   1  11    1.26    0.57
   2   7 -11    6.03    0.89
   7  -9 -11    3.44    0.77
   7  -9 -11    4.22    0.81
   2   7 -11    3.37    0.69
   9  -2  11    3.78    0.78
   9  -2  11    3.67    0.74
   4  -9 -11    4.25    0.76
   4  -9 -11    3.48    0.80
   5   4 -11    4.79    0.71
   5   4 -11    3.06    0.66
  -9   5 -11    2.80    0.73
   9  -5  11    5.06    0.85
  -4   9  11    4.03    0.80
  -4   9  11    3.98    0.92
  -4   9  11    4.79    0.67
   9  -5  11    4.08    0.80
   1  -9 -11   11.20    1.40
   8   1 -11    9.22    1.04
   8   1 -11    9.25    1.08
  -9   8 -11    9.08    1.17
  -1   9  11   10.32    1.06
  -1   9  11   10.06    1.27
   9  -8  11   10.83    1.48
   9  -8  11   10.48    1.39
  11  -2 -11    2.57    0.62
  -2  -9 -11    0.54    0.52
   2   9  11    0.79    0.58
   2   9  11    1.64    0.56
  -5  -9 -11    2.63    0.94
   5   9  11    2.38    0.80
   5   9  11    2.91    0.89
 -10  -5 -11    0.25    0.65
  15 -10 -11   -0.42    0.47
  10   5  11    0.52    0.63
   5 -15  11   -0.02    0.54
  -2  12 -11    2.48    0.81
  12 -10 -11    1.28    0.60
  -2  12 -11    1.10    0.50
  10   2  11    1.49    0.61
   2 -12  11    2.14    0.76
   9 -10 -11    0.92    0.50
   9 -10 -11    2.11    0.67
   1   9 -11    0.71    0.45
   1   9 -11    0.83    0.55
  10  -1  11    0.68    0.47
  -1  -9  11    0.66    0.49
   6 -10 -11    0.70    0.48
   4   6 -11    0.75    0.38
   4   6 -11    0.40    0.37
   6 -10 -11    0.54    0.47
  10  -4  11    0.61    0.51
  -6  10  11    0.87    0.53
  10  -4  11    0.45    0.43
   3 -10 -11   -0.05    0.37
   7   3 -11    0.02    0.31
 -10   7 -11    0.16    0.47
   3 -10 -11    0.41    0.47
   7   3 -11   -0.19    0.30
  -3  10  11   -0.12    0.31
  10  -7  11   -0.01    0.42
  10  -7  11    0.31    0.45
   0 -10 -11    0.12    0.49
  10   0 -11   -0.18    0.34
   0  10  11   -0.01    0.41
  10 -10  11    0.32    0.51
   0  10  11    0.20    0.39
  -3 -10 -11   -0.34    0.44
   3  10  11    0.66    0.55
   3  10  11   -0.15    0.43
  -3  14 -11    0.51    0.63
  14 -11 -11    0.27    0.53
  -3  14 -11    0.28    0.54
   3 -14  11    0.88    0.74
  11   3  11    0.84    0.59
   0  11 -11    1.70    0.67
  11 -11 -11    1.82    0.66
   0  11 -11    2.18    0.76
  11   0  11    0.86    0.52
   0 -11  11    1.79    0.74
   3   8 -11    8.00    1.10
   8 -11 -11    9.70    1.23
   3   8 -11    7.47    1.07
   8 -11 -11    7.79    1.18
  11  -3  11    8.96    1.31
  11  -3  11    6.39    1.04
  -3  -8  11    7.86    1.21
   5 -11 -11    2.70    0.72
   5 -11 -11    1.98    0.73
   6   5 -11    2.91    0.70
   6   5 -11    2.58    0.66
  11  -6  11    3.30    0.81
  11  -6  11    2.93    0.86
  -5  11  11    2.40    0.63
   9   2 -11    1.65    0.59
   9   2 -11    0.75    0.51
   2 -11 -11    0.91    0.63
  11  -9  11    1.65    0.81
  -2  11  11    1.24    0.53
  11  -9  11    2.08    0.87
  12  -1 -11    0.26    0.44
  -1 -11 -11    2.01    0.76
   1  11  11    0.29    0.47
   1  11  11    0.70    0.60
  -4 -11 -11    0.33    0.64
   4  11  11    0.15    0.61
   4  11  11   -0.01    0.54
  13 -12 -11    3.83    0.94
  -1  13 -11    5.39    1.07
  -1  13 -11    5.27    1.16
  12   1  11    3.67    0.93
   1 -13  11    3.07    1.00
   2  10 -11    2.06    0.70
  10 -12 -11    2.60    0.80
   2  10 -11    1.98    0.70
  10 -12 -11    1.24    0.61
  -2 -10  11    1.18    0.70
  12  -2  11    2.29    0.79
   7 -12 -11    2.48    0.77
   5   7 -11    2.86    0.74
   7 -12 -11    1.68    0.65
   5   7 -11    2.94    0.75
  12  -5  11    1.83    0.73
  12  -5  11    3.04    0.83
  -5  -7  11    3.01    0.84
   8   4 -11   20.21    1.52
   8   4 -11   21.53    1.53
   4 -12 -11   20.42    1.72
  -4  12  11   21.78    1.46
  12  -8  11   19.74    1.72
  12  -8  11   18.43    1.63
  11   1 -11   -0.02    0.37
   1 -12 -11    0.02    0.53
  12 -11  11    1.04    0.76
  -1  12  11    1.14    0.56
  -2 -12 -11    1.34    0.81
   2  12  11    1.19    0.68
   1  12 -11    4.22    0.98
   1  12 -11    4.89    1.06
  12 -13 -11    2.49    0.82
  -1 -12  11    4.46    1.12
  13  -1  11    6.24    1.13
   9 -13 -11    4.68    0.99
   9 -13 -11    5.36    0.97
   4   9 -11    5.94    1.04
   4   9 -11    3.87    0.87
  13  -4  11    6.07    1.09
  -4  -9  11    6.59    1.20
   6 -13 -11    2.30    0.80
   7   6 -11    1.92    0.68
   7   6 -11    1.85    0.68
  13  -7  11    0.56    0.63
  -7  -6  11    0.98    0.65
  -6  13  11    1.11    0.59
   3 -13 -11    0.84    0.72
  10   3 -11    0.60    0.48
  10   3 -11    0.77    0.55
 -10  -3  11    0.52    0.52
  13 -10  11    0.83    0.66
  -3  13  11    0.44    0.50
   0 -13 -11    6.02    1.31
   0  13  11    4.63    1.01
   3  11 -11    0.18    0.59
   3  11 -11    0.37    0.54
  11 -14 -11    0.01    0.56
  14  -3  11    0.16    0.58
  -3 -11  11    0.37    0.71
   6   8 -11    0.35    0.51
   8 -14 -11    1.45    0.71
   6   8 -11    0.18    0.46
  14  -6  11   -0.49    0.46
  -6  -8  11    0.66    0.65
   9   5 -11    3.16    0.86
   9   5 -11    1.76    0.64
   5 -14 -11    2.06    0.81
  14  -9  11    1.62    0.95
  -5  14  11    2.27    0.75
  -9  -5  11    0.50    0.59
   2 -14 -11    0.48    0.72
  12   2 -11    1.87    0.71
 -12  -2  11    1.41    0.74
  -2  14  11    1.26    0.71
  14 -12  11    0.69    0.89
   5  10 -11    0.52    0.54
   5  10 -11    0.21    0.58
  -5 -10  11    0.23    0.70
  15  -5  11    0.00    0.62
   7 -15 -11    0.71    0.69
   8   7 -11    1.10    0.68
   8   7 -11    0.47    0.57
  15  -8  11    0.76    0.72
  -8  -7  11    1.62    0.80
   4 -15 -11    0.11    0.69
  11   4 -11    0.25    0.51
  11   4 -11    0.45    0.56
  15 -11  11   -0.51    0.71
 -11  -4  11    0.16    0.55
  -4  15  11    0.21    0.57
   0   0 -12  373.49    9.12
   0   0 -12  376.36    9.93
   0   0 -12  377.91    9.22
   0   0 -12  370.30   10.11
   0   0 -12  370.83    9.81
   0   0  12  375.64   10.02
   0   0  12  382.39   10.25
  -1   2 -12   26.60    1.19
  -1   2 -12   28.61    1.44
  -1   2 -12   26.77    1.27
  -1  -1 -12   34.08    1.57
   2  -1 -12   28.37    1.22
  -1  -1 -12   31.18    1.41
   2  -1 -12   30.89    1.39
  -1  -1 -12   30.14    1.33
  -1  -1 -12   31.00    1.51
  -1   2 -12   30.05    1.35
  -1  -1 -12   30.14    1.33
  -1   2 -12   27.69    1.25
  -2   1  12   27.58    1.22
   1  -2  12   29.01    1.42
   1   1  12   31.46    1.57
   1  -2  12   27.40    1.32
   1   1  12   31.03    1.44
   1   1  12   31.37    1.38
  -2   1  12   29.72    1.36
   1  -2  12   27.98    1.45
  -2   1 -12   28.76    1.30
  -2   1 -12   28.44    1.32
  -2   1 -12   28.11    1.46
   1   1 -12   31.21    1.39
  -2   1 -12   29.86    1.34
   1  -2 -12   31.17    1.22
   1   1 -12   28.47    1.20
  -2   1 -12   28.90    1.48
   1  -2 -12   32.03    1.35
   1  -2 -12   32.39    1.46
   1  -2 -12   31.48    1.32
   1   1 -12   31.60    1.41
   2  -1  12   28.06    1.35
   2  -1  12   28.36    1.51
  -1  -1  12   29.09    1.24
  -1   2  12   29.91    1.39
  -1   2  12   29.39    1.51
  -1  -1  12   29.75    1.37
   2  -1  12   29.70    1.41
  -2  -2 -12   46.12    1.89
  -2   4 -12   44.82    1.80
  -2   4 -12   44.92    1.70
   4  -2 -12   43.87    1.84
  -2  -2 -12   47.13    1.91
  -2   4 -12   46.70    2.01
  -2  -2 -12   47.51    1.82
  -2  -2 -12   44.49    2.05
  -2   4 -12   44.70    1.74
  -2  -2 -12   45.16    2.01
   4  -2 -12   43.36    1.58
   2   2  12   45.68    2.06
   2  -4  12   42.51    1.83
   2  -4  12   44.45    1.99
   2   2  12   45.76    1.84
   2  -4  12   44.09    1.80
  -4   2  12   45.41    1.56
   2  -4  12   47.22    1.96
  -4   2  12   42.25    1.62
  -3   0 -12    3.03    0.67
   0   3 -12    2.87    0.47
  -3   0 -12    3.97    0.68
  -3   0 -12    2.02    0.40
   0   3 -12    2.70    0.52
   3  -3 -12    2.98    0.49
   0   3 -12    3.06    0.54
  -3   0 -12    3.04    0.54
   3  -3 -12    4.75    0.72
  -3   0 -12    3.01    0.57
  -3   3  12    4.20    0.65
   3   0  12    1.90    0.46
  -3   3  12    3.98    0.59
   0  -3  12    3.99    0.55
   3   0  12    2.55    0.61
   0  -3  12    2.91    0.50
   0  -3  12    2.26    0.52
   3   0 -12   16.65    0.84
   0  -3 -12   17.54    1.14
  -3   3 -12   17.06    0.96
   0  -3 -12   14.79    0.98
   3   0 -12   17.79    0.89
  -3   3 -12   19.22    1.20
   3   0 -12   18.17    1.10
  -3   3 -12   17.74    1.05
   0  -3 -12   14.29    1.02
   3   0 -12   16.38    0.93
   0  -3 -12   17.34    0.99
  -3   3 -12   18.25    1.16
   3  -3  12   18.44    1.09
   0   3  12   15.84    1.00
   0   3  12   18.24    1.25
   3  -3  12   17.35    1.14
   3  -3  12   17.20    1.16
   3  -3  12   16.74    1.08
  -3   6 -12   16.02    1.20
   6  -3 -12   15.47    1.07
  -3  -3 -12   15.16    1.11
  -3  -3 -12   15.94    1.29
  -3  -3 -12   15.94    1.04
  -3   6 -12   15.46    1.09
   6  -3 -12   14.56    0.85
  -3   6 -12   15.09    0.96
   6  -3 -12   16.31    0.89
  -3  -3 -12   13.56    1.08
   3  -6  12   17.06    1.24
   3   3  12   16.55    0.96
   3  -6  12   15.88    1.13
   3   3  12   12.86    1.02
   3  -6  12   16.69    1.20
   3   3  12   15.67    1.10
   3   3  12   14.18    1.17
  -1   5 -12   35.51    1.55
  -4  -1 -12   35.40    1.86
   5  -4 -12   33.47    1.44
  -4  -1 -12   32.21    1.49
  -4  -1 -12   33.18    1.56
   5  -4 -12   32.76    1.61
  -4  -1 -12   33.13    1.62
  -5   4  12   33.12    1.50
   1  -5  12   37.28    1.65
  -5   4  12   32.91    1.41
   1  -5  12   34.97    1.59
   1  -5  12   34.43    1.68
   4   1  12   36.40    1.75
   4   1  12   32.15    1.61
   2   2 -12   43.13    1.55
   2  -4 -12   42.78    1.78
  -4   2 -12   44.50    1.67
  -4   2 -12   44.07    2.02
   2  -4 -12   43.60    1.90
   2  -4 -12   46.12    1.67
  -4   2 -12   44.35    1.86
  -4   2 -12   44.99    2.00
  -4   2 -12   46.73    1.78
   2  -4 -12   43.98    1.74
   2   2 -12   46.91    1.82
   2   2 -12   47.65    1.80
   4  -2  12   47.36    2.05
  -2   4  12   45.24    2.03
   4  -2  12   45.73    2.03
  -2  -2  12   43.14    1.66
   4  -2  12   44.11    1.87
   4  -2  12   43.79    1.88
  -2   4  12   42.64    1.70
  -2  -2  12   44.83    1.56
  -1  -4 -12   57.19    2.27
   5  -1 -12   53.62    2.11
  -1  -4 -12   58.60    2.15
  -4   5 -12   57.59    1.94
   5  -1 -12   52.81    1.72
   5  -1 -12   51.25    1.75
  -4   5 -12   55.73    2.22
  -4   5 -12   53.83    2.32
  -4   5 -12   56.81    2.40
  -1  -4 -12   57.60    2.46
  -1  -4 -12   56.20    2.26
   4  -5  12   56.24    2.27
   4  -5  12   55.08    2.24
   1   4  12   58.49    2.20
   1   4  12   58.12    1.83
   1   4  12   58.65    2.31
   4  -5  12   54.91    2.38
   4  -5  12   55.65    2.39
   1   4  12   59.95    2.49
   8  -4 -12  107.22    3.48
   8  -4 -12  109.21    3.18
  -4  -4 -12  107.60    3.69
  -4  -4 -12  106.07    4.07
  -4   8 -12  112.53    3.39
   4   4  12  109.54    3.70
   4  -8  12  108.83    3.99
   4  -8  12  115.52    3.93
   4   4  12  106.14    3.40
   7  -5 -12   28.47    1.47
  -5  -2 -12   27.61    1.74
  -5  -2 -12   26.98    1.54
  -2   7 -12   27.29    1.43
  -5  -2 -12   25.81    1.48
   7  -5 -12   27.14    1.35
   2  -7  12   28.09    1.61
   2  -7  12   27.55    1.53
   5   2  12   27.28    1.55
  -7   5  12   24.68    1.25
   4  -5 -12   32.19    1.53
  -5   1 -12   34.98    1.82
   4  -5 -12   31.68    1.62
  -5   1 -12   36.10    1.49
  -5   1 -12   34.12    1.63
  -5   1 -12   35.29    1.55
   1   4 -12   36.17    1.62
   1   4 -12   35.03    1.60
   1   4 -12   33.62    1.39
  -1  -4  12   32.89    1.43
  -1  -4  12   35.21    1.56
  -1  -4  12   35.81    1.49
   5  -1  12   32.09    1.62
  -4   5  12   34.16    1.72
   5  -1  12   34.70    1.71
   4   1 -12   56.19    1.94
   1  -5 -12   52.11    2.28
   4   1 -12   58.59    1.74
   4   1 -12   58.11    2.13
  -5   4 -12   53.94    2.36
   4   1 -12   58.57    1.80
   1  -5 -12   54.27    2.16
   1  -5 -12   54.17    2.24
  -5   4 -12   53.44    2.23
   1  -5 -12   54.89    2.14
  -5   4 -12   56.81    1.86
  -5   4 -12   58.31    2.41
  -1   5  12   51.07    2.40
   5  -4  12   51.46    2.22
  -1   5  12   52.32    2.23
  -1   5  12   54.80    2.12
   5  -4  12   54.77    2.23
   5  -4  12   56.92    2.39
   5  -4  12   56.07    2.35
  -5   7 -12   27.76    1.69
  -2  -5 -12   30.84    1.81
  -2  -5 -12   28.85    1.53
  -5   7 -12   27.18    1.55
   7  -2 -12   26.83    1.06
   7  -2 -12   28.92    1.45
  -5   7 -12   25.00    1.22
  -2  -5 -12   29.24    1.66
   7  -2 -12   24.23    1.04
   2   5  12   25.97    1.29
   5  -7  12   25.65    1.52
   2   5  12   29.15    1.57
   5  -7  12   26.10    1.60
   5  -7  12   27.88    1.67
   5  -7  12   26.54    1.65
   2   5  12   29.06    1.66
  10  -5 -12    1.65    0.50
  -5  -5 -12    0.94    0.55
  10  -5 -12    1.57    0.45
  -5  10 -12    2.35    0.56
   5   5  12    0.59    0.42
   5 -10  12    2.37    0.62
   5   5  12    1.88    0.59
  -6  -3 -12    6.24    1.11
  -6  -3 -12    4.55    0.79
   9  -6 -12    6.33    0.77
  -3   9 -12    3.83    0.65
   9  -6 -12    4.72    0.74
   6   3  12    5.69    0.84
   3  -9  12    5.54    0.92
   6  -6 -12   71.11    2.63
  -6   0 -12   66.21    2.40
  -6   0 -12   67.98    2.88
  -6   0 -12   70.46    2.70
   6  -6 -12   74.65    2.57
   0   6 -12   70.97    2.58
   6   0  12   63.06    2.52
  -6   6  12   70.23    2.67
   6   0  12   70.40    2.67
   0  -6  12   68.63    2.59
   0  -6  12   67.82    2.66
   3   3 -12   15.57    0.91
   3   3 -12   15.69    1.10
   3  -6 -12   17.03    1.13
  -6   3 -12   15.28    0.87
  -6   3 -12   15.86    1.29
   3  -6 -12   13.75    0.89
   3   3 -12   16.40    0.97
   3  -6 -12   14.13    1.13
   3   3 -12   14.69    0.88
   3  -6 -12   15.07    1.02
   3   3 -12   15.59    0.83
  -6   3 -12   16.02    1.14
   6  -3  12   14.36    1.13
   6  -3  12   15.55    1.14
   6  -3  12   16.79    1.25
   6  -3  12   14.91    1.04
  -3   6  12   16.97    1.29
  -3   6  12   15.87    1.12
  -6   6 -12   24.22    1.57
   0  -6 -12   22.27    1.54
   6   0 -12   21.72    1.07
   0  -6 -12   19.94    1.28
  -6   6 -12   23.90    1.45
   6   0 -12   21.40    1.29
   0  -6 -12   24.76    1.56
  -6   6 -12   21.73    1.04
   0   6  12   25.55    1.65
   0   6  12   23.38    1.39
   6  -6  12   25.29    1.54
   6  -6  12   26.54    1.57
   0   6  12   21.31    1.39
   6  -6  12   24.52    1.57
   6  -6  12   24.46    1.41
   0   6  12   23.40    1.14
  -3  -6 -12   33.32    2.08
  -6   9 -12   34.15    1.50
   9  -3 -12   34.30    1.64
  -3  -6 -12   30.94    1.89
   3   6  12   36.11    1.72
   6  -9  12   36.26    2.06
   3   6  12   33.70    1.84
  12  -6 -12   15.66    1.07
  -6  -6 -12   16.07    1.77
  -6  12 -12   13.26    1.10
   6 -12  12   11.33    1.31
   6   6  12   16.04    1.64
   6   6  12   13.24    1.45
  -7  -4 -12    4.26    0.87
  11  -7 -12    3.73    0.68
  11  -7 -12    3.28    0.68
  -4  11 -12    3.70    0.72
   4 -11  12    3.85    0.84
   7   4  12    3.57    0.77
  -7  -1 -12    3.03    0.65
   8  -7 -12    2.36    0.63
  -7  -1 -12    1.49    0.66
   8  -7 -12    1.75    0.53
  -1   8 -12    1.28    0.46
   7   1  12    1.81    0.62
  -7   2 -12   27.06    1.51
   2   5 -12   27.08    1.46
  -7   2 -12   29.53    1.28
   5  -7 -12   25.48    1.49
   5  -7 -12   27.28    1.58
   2   5 -12   28.38    1.53
  -7   2 -12   30.89    1.78
   2   5 -12   26.83    1.38
  -5   7  12   26.52    1.52
   7  -2  12   28.54    1.61
  -2  -5  12   29.05    1.40
  -5   7  12   29.05    1.74
   7  -2  12   26.66    1.66
  -7   5 -12   25.64    1.52
   5   2 -12   26.84    1.01
  -7   5 -12   24.61    1.64
   2  -7 -12   25.13    1.46
   5   2 -12   28.98    1.11
   5   2 -12   26.63    1.26
   2  -7 -12   26.55    1.60
   5   2 -12   29.16    1.51
   5   2 -12   27.74    1.19
   7  -5  12   25.23    1.51
  -2   7  12   26.29    1.58
  -2   7  12   28.98    1.60
   7  -5  12   25.20    1.63
  -2   7  12   27.87    1.75
  -2   7  12   26.35    1.19
   7  -5  12   24.44    1.59
  -7   8 -12    0.71    0.48
  -1  -7 -12    1.08    0.55
   8  -1 -12    1.73    0.55
   7  -8  12    1.14    0.59
   7  -8  12    1.50    0.67
   1   7  12    1.06    0.50
   1   7  12    1.22    0.46
   7  -8  12    0.41    0.46
  -4  -7 -12    0.64    0.54
  11  -4 -12    1.24    0.49
   4   7  12    1.02    0.58
   4   7  12    1.52    0.54
  -7  -7 -12    5.13    1.14
  14  -7 -12    2.86    0.62
   7   7  12    2.43    0.82
   7   7  12    4.66    1.03
  -5  13 -12   19.95    1.46
  -8  -5 -12   18.81    1.66
  13  -8 -12   20.12    1.38
   8   5  12   20.40    1.63
   5 -13  12   22.33    1.68
  10  -8 -12   22.07    1.41
  -8  -2 -12   26.17    1.57
  10  -8 -12   24.85    1.51
  -2  10 -12   24.42    1.54
   2 -10  12   23.83    1.69
   8   2  12   25.84    1.64
   7  -8 -12    2.14    0.61
   1   7 -12    2.43    0.64
  -8   1 -12    2.12    0.74
  -8   1 -12    2.81    0.56
   7  -8 -12    1.45    0.58
   1   7 -12    0.89    0.45
   8  -1  12    1.44    0.53
   4  -8 -12  113.57    3.74
   4   4 -12  107.17    3.45
   4   4 -12  107.45    3.35
  -8   4 -12  112.89    3.86
   4   4 -12  107.74    3.59
  -8   4 -12  110.72    4.06
   4  -8 -12  109.24    3.75
  -4   8  12  107.33    3.91
  -4   8  12  103.43    3.06
   8  -4  12  107.62    3.75
  -4   8  12  107.98    4.07
   8  -4  12  111.14    4.04
  -8   7 -12    0.74    0.52
   7   1 -12    0.59    0.40
   1  -8 -12    1.59    0.52
   1  -8 -12    1.38    0.59
   7   1 -12    1.24    0.48
   8  -7  12    0.83    0.55
   8  -7  12    0.97    0.59
  -1   8  12    1.50    0.54
  -1   8  12    1.28    0.43
  -1   8  12    1.21    0.66
  10  -2 -12   12.18    1.04
  -2  -8 -12   11.28    1.38
   2   8  12   13.50    1.12
   2   8  12   11.08    1.27
  -5  -8 -12   18.32    1.93
   5   8  12   18.78    1.85
   5   8  12   17.04    1.86
  -9  -6 -12    3.49    1.04
  15  -9 -12    3.22    0.85
   9   6  12    4.93    1.12
  -9  -3 -12    1.93    0.71
  -3  12 -12    1.93    0.65
  12  -9 -12    1.19    0.57
   9   3  12    2.61    0.77
   3 -12  12    1.45    0.69
   9  -9 -12   83.61    3.10
   9  -9 -12   76.81    3.03
   0   9 -12   83.73    3.15
   0   9 -12   81.19    3.13
   9   0  12   79.65    3.18
   0  -9  12   82.85    3.36
   6  -9 -12    5.46    0.91
   6  -9 -12    5.97    0.99
   3   6 -12    5.69    0.79
   3   6 -12    3.77    0.69
  -9   3 -12    7.05    1.18
   9  -3  12    6.94    1.05
  -6   9  12    5.34    0.93
   9  -3  12    5.62    0.94
  -9   6 -12   35.40    2.08
   6   3 -12   35.35    1.68
   6   3 -12   34.53    1.83
   3  -9 -12   37.50    1.94
   3  -9 -12   39.00    2.11
   9  -6  12   37.64    2.11
  -3   9  12   34.88    1.57
   9  -6  12   34.50    2.07
  -3   9  12   35.68    2.17
  -9   9 -12   46.73    2.43
   9   0 -12   49.85    2.17
   0  -9 -12   46.88    2.50
   9  -9  12   49.16    2.61
   0   9  12   48.10    2.33
   9  -9  12   50.03    2.59
   0   9  12   47.79    2.09
  12  -3 -12    6.20    0.90
  -3  -9 -12    4.59    1.08
   3   9  12    6.13    1.06
   3   9  12    5.36    1.06
  15  -6 -12    8.84    0.97
  -6  -9 -12    7.63    1.40
   6   9  12    7.48    1.32
   6   9  12    8.36    1.34
  -4  14 -12    0.39    0.49
  14 -10 -12    0.14    0.48
   4 -14  12    0.52    0.72
  10   4  12    0.82    0.63
  -1  11 -12    6.62    1.04
  -1  11 -12    6.56    1.13
  11 -10 -12    8.56    1.16
  10   1  12   12.04    1.52
   1 -11  12    8.19    1.25
   8 -10 -12   23.12    1.55
   2   8 -12   22.83    1.53
   8 -10 -12   26.46    1.68
   2   8 -12   24.19    1.60
  10  -2  12   22.89    1.62
   5   5 -12    0.29    0.39
   5 -10 -12    1.83    0.66
   5 -10 -12    0.75    0.49
   5   5 -12    1.14    0.51
  10  -5  12    2.14    0.69
  10  -5  12    2.05    0.69
  -5  10  12    2.09    0.59
   8   2 -12   10.80    1.15
   8   2 -12   10.51    1.17
   2 -10 -12   10.61    1.40
  10  -8  12   12.42    1.48
  10  -8  12   11.95    1.41
  -2  10  12    9.73    1.05
  -1 -10 -12    7.57    1.26
  11  -1 -12    7.21    0.99
   1  10  12    8.25    1.11
   1  10  12    8.88    1.27
  -4 -10 -12    0.35    0.63
   4  10  12    0.23    0.55
   4  10  12    0.25    0.46
  -2  13 -12    7.25    1.33
  13 -11 -12    7.23    1.12
  -2  13 -12    8.52    1.26
   2 -13  12    5.46    1.10
  11   2  12    7.42    1.21
   1  10 -12    8.53    1.18
   1  10 -12    7.12    1.13
  10 -11 -12   12.12    1.37
  10 -11 -12    8.24    1.26
  11  -1  12   10.09    1.30
  -1 -10  12    7.65    1.25
   7 -11 -12    3.16    0.76
   4   7 -12    4.14    0.81
   4   7 -12    3.07    0.78
   7 -11 -12    2.90    0.78
  11  -4  12    3.44    0.83
  11  -4  12    4.96    0.99
   4 -11 -12    2.76    0.88
   7   4 -12    1.57    0.55
   7   4 -12    1.05    0.51
  -4  11  12    2.32    0.65
  11  -7  12    1.63    0.73
  11  -7  12    2.19    0.87
   1 -11 -12   11.14    1.54
  10   1 -12    8.69    1.13
  11 -10  12    6.74    1.25
  -1  11  12   11.86    1.28
  -2 -11 -12    3.29    1.04
   2  11  12    3.58    0.91
   0  12 -12   28.87    1.92
   0  12 -12   30.41    2.11
  12 -12 -12   29.29    1.99
   0 -12  12   24.76    2.08
  12   0  12   27.20    1.93
   9 -12 -12    1.65    0.68
   9 -12 -12    2.61    0.91
   3   9 -12    2.15    0.72
   3   9 -12    1.46    0.63
  12  -3  12    0.84    0.51
  -3  -9  12    1.35    0.72
   6 -12 -12   14.01    1.64
   6 -12 -12   12.06    1.41
   6   6 -12   13.49    1.50
   6   6 -12   11.28    1.39
  12  -6  12   15.01    1.58
  -6  -6  12   15.52    1.75
  12  -6  12   15.73    1.47
   3 -12 -12    7.55    1.32
   9   3 -12    3.63    0.83
   9   3 -12    5.74    0.99
  -3  12  12    7.58    1.08
  12  -9  12    6.07    1.21
  12  -9  12    5.15    1.09
   0 -12 -12    8.39    1.45
  12   0 -12    9.49    1.20
   0  12  12    8.43    1.27
  14 -13 -12   -0.42    0.58
  -1  14 -12    0.17    0.66
  -1  14 -12    0.28    0.50
  13   1  12    0.78    0.60
   1 -14  12   -0.13    0.71
   2  11 -12    8.51    1.33
  11 -13 -12    5.12    1.03
   2  11 -12    6.43    1.22
  -2 -11  12    6.86    1.30
  13  -2  12    7.82    1.35
   5   8 -12   21.97    1.68
   8 -13 -12   21.28    1.79
   8 -13 -12   19.80    2.02
   5   8 -12   19.33    1.60
  13  -5  12   19.74    1.72
  -5  -8  12   21.25    1.85
   8   5 -12   18.11    1.82
   8   5 -12   16.86    1.47
   5 -13 -12   17.94    2.04
  -8  -5  12   14.45    1.72
  13  -8  12   17.50    1.83
   2 -13 -12    3.38    1.07
  11   2 -12    2.66    0.74
  -2  13  12    2.26    0.76
  13 -11  12    1.44    0.80
  -1 -13 -12    2.37    1.00
   1  13  12    2.54    0.88
   1  13 -12    0.61    0.67
  13 -14 -12    0.87    0.62
   1  13 -12    0.12    0.52
  14  -1  12    0.28    0.58
  -1 -13  12   -0.04    0.68
   4  10 -12    0.53    0.64
  10 -14 -12    0.59    0.63
   4  10 -12    0.48    0.48
  10 -14 -12    0.22    0.67
  14  -4  12    0.29    0.52
  -4 -10  12    0.69    0.62
   7 -14 -12    3.12    0.93
   7   7 -12    4.75    1.00
   7   7 -12    4.08    0.94
  -7  -7  12    3.86    0.98
  14  -7  12    3.72    1.03
   4 -14 -12    0.75    0.69
  10   4 -12   -0.46    0.48
  10   4 -12   -0.09    0.43
  14 -10  12    0.64    0.82
 -10  -4  12   -0.04    0.61
  -4  14  12    0.09    0.49
  13   1 -12    2.18    0.75
   1 -14 -12    2.02    0.94
  -1  14  12    1.86    0.81
 -13  -1  12    2.08    0.86
   6   9 -12    3.36    0.95
   6   9 -12    1.01    0.57
   9 -15 -12    4.18    1.05
  -6  -9  12    3.07    0.95
  15  -6  12    4.25    1.07
   9   6 -12    6.13    1.15
   9   6 -12    7.69    1.27
   6 -15 -12    8.19    1.43
  -9  -6  12    9.96    1.64
  15  -9  12    9.37    1.64
   0   1 -13   33.27    1.38
  -1   0 -13   35.05    1.44
  -1   0 -13   33.57    1.56
   1  -1 -13   30.69    1.51
   1  -1 -13   32.31    1.19
   1  -1 -13   31.81    1.24
   1  -1 -13   32.25    1.38
  -1   0 -13   31.60    1.41
  -1   0 -13   31.58    1.60
   0   1 -13   35.32    1.53
   0   1 -13   30.99    1.25
   0   1 -13   35.11    1.24
  -1   0 -13   32.46    1.48
  -1   1  13   35.26    1.64
   1   0  13   32.37    1.45
   1   0  13   32.20    1.64
  -1   1  13   32.28    1.45
   0  -1  13   33.88    1.47
   1   0  13   34.02    1.55
   0  -1  13   34.28    1.61
  -1   3 -13    5.94    0.73
   3  -2 -13    4.08    0.68
  -2  -1 -13    3.21    0.54
  -1   3 -13    4.88    0.59
  -2  -1 -13    3.63    0.65
  -1   3 -13    4.25    0.52
  -2  -1 -13    3.66    0.62
  -2  -1 -13    5.38    0.83
  -1   3 -13    4.22    0.61
   3  -2 -13    6.13    0.69
  -1   3 -13    4.97    0.79
  -2  -1 -13    4.07    0.72
  -3   2  13    4.53    0.59
   2   1  13    4.34    0.69
   1  -3  13    4.47    0.67
   2   1  13    4.14    0.71
   1  -3  13    5.56    0.88
  -3   2  13    4.68    0.67
   1  -3  13    4.62    0.64
  -2   2 -13    0.61    0.32
   0  -2 -13    0.30    0.26
   0  -2 -13    0.23    0.30
   2   0 -13    0.31    0.30
   2   0 -13    0.48    0.32
   0  -2 -13    0.27    0.32
  -2   2 -13    0.51    0.33
  -2   2 -13    0.98    0.41
   0  -2 -13    0.23    0.30
   2   0 -13    0.19    0.22
  -2   2 -13    0.47    0.29
  -2   2 -13    0.75    0.34
  -2   0  13    0.28    0.25
   0   2  13    0.65    0.34
  -2   0  13    0.77    0.36
   2  -2  13    0.64    0.33
   2  -2  13    0.40    0.34
   2  -2  13    0.95    0.42
   0   2  13    0.63    0.39
   2  -2  13    0.18    0.27
  -2   5 -13    0.59    0.40
  -3  -2 -13    0.56    0.35
  -2   5 -13    0.37    0.29
   5  -3 -13    0.39    0.33
  -3  -2 -13    0.72    0.46
   5  -3 -13    0.44    0.28
  -3  -2 -13    0.63    0.42
  -2   5 -13    0.20    0.27
  -3  -2 -13    0.10    0.37
  -2   5 -13    0.26    0.29
  -3  -2 -13    0.15    0.32
   2  -5  13    0.29    0.40
   2  -5  13    0.37    0.34
   3   2  13    0.39    0.38
   3   2  13    0.53    0.32
  -5   3  13    0.25    0.29
  -5   3  13    0.38    0.23
   2  -5  13    0.17    0.30
  -3   1 -13    4.84    0.66
   2  -3 -13    4.76    0.56
   1   2 -13    5.07    0.71
   2  -3 -13    5.04    0.72
  -3   1 -13    4.74    0.62
  -3   1 -13    3.98    0.75
   2  -3 -13    4.28    0.61
   1   2 -13    5.23    0.76
  -3   1 -13    4.81    0.68
   2  -3 -13    5.10    0.46
   1   2 -13    3.98    0.54
  -3   1 -13    7.20    1.01
   3  -1  13    4.34    0.69
   3  -1  13    4.67    0.70
  -2   3  13    6.04    0.86
  -1  -2  13    4.20    0.65
  -1  -2  13    4.01    0.58
   3  -1  13    3.83    0.69
  -3   4 -13   16.27    1.13
  -3   4 -13   13.77    0.96
   4  -1 -13   15.26    1.05
   4  -1 -13   15.13    0.84
  -1  -3 -13   14.32    1.08
  -3   4 -13   15.10    1.15
  -1  -3 -13   15.32    1.03
   4  -1 -13   15.31    0.86
  -1  -3 -13   12.84    1.12
  -3   4 -13   15.41    0.94
  -1  -3 -13   14.88    0.99
   3  -4  13   14.73    1.08
   3  -4  13   15.63    1.18
   1   3  13   15.48    1.21
   3  -4  13   15.02    1.14
  -4   1  13   15.45    0.75
  -4   1  13   14.91    0.82
   1   3  13   14.17    1.02
   3  -4  13   15.45    1.04
  -4  -3 -13    0.93    0.51
  -4  -3 -13    1.25    0.47
  -3   7 -13    2.62    0.56
  -4  -3 -13    1.87    0.71
   7  -4 -13    1.72    0.52
   7  -4 -13    1.67    0.44
   3  -7  13    1.48    0.61
   3  -7  13    1.31    0.49
   4   3  13    1.93    0.59
   0   4 -13    2.19    0.52
   0   4 -13    3.12    0.62
   4  -4 -13    2.70    0.51
   4  -4 -13    2.08    0.53
  -4   0 -13    2.93    0.56
  -4   0 -13    2.51    0.51
  -4   0 -13    2.97    0.64
  -4   0 -13    2.43    0.60
  -4   0 -13    2.50    0.70
   4   0  13    2.61    0.65
  -4   4  13    2.49    0.58
   0  -4  13    2.37    0.51
   4   0  13    2.11    0.53
   0  -4  13    2.67    0.59
   0  -4  13    2.24    0.49
   3   1 -13   13.74    0.79
   3   1 -13   14.58    0.89
   3   1 -13   13.28    0.82
   3   1 -13   13.39    0.98
  -4   3 -13   14.04    1.12
  -4   3 -13   15.82    1.15
   1  -4 -13   14.92    1.11
   1  -4 -13   14.32    1.05
  -4   3 -13   14.91    1.03
   1  -4 -13   15.80    1.03
   1  -4 -13   15.71    0.95
  -4   3 -13   15.30    0.91
  -1   4  13   12.66    0.95
  -3  -1  13   15.28    0.75
  -1   4  13   12.99    1.16
   4  -3  13   13.08    1.00
   4  -3  13   15.41    1.19
   4  -3  13   12.48    1.06
   4  -3  13   13.31    1.05
   6  -2 -13    1.62    0.36
  -2  -4 -13    0.88    0.43
  -2  -4 -13    1.19    0.45
  -2  -4 -13    1.62    0.60
   6  -2 -13    1.54    0.48
  -4   6 -13    1.02    0.35
   6  -2 -13    1.12    0.32
  -4   6 -13    1.32    0.54
  -4   6 -13    1.39    0.48
  -2  -4 -13    0.25    0.36
   2   4  13    0.37    0.36
   4  -6  13    2.34    0.60
   2   4  13    0.85    0.41
   4  -6  13    0.84    0.46
   4  -6  13    1.76    0.59
   2   4  13    1.32    0.37
   2   4  13    0.85    0.49
   9  -5 -13   13.97    1.13
   9  -5 -13   14.62    0.97
  -4   9 -13   16.85    1.11
  -5  -4 -13   16.42    1.50
  -5  -4 -13   15.79    1.30
   4  -9  13   14.41    1.29
   5   4  13   14.45    1.25
   5   4  13   15.40    1.13
   6  -5 -13    0.33    0.32
   6  -5 -13    0.13    0.32
  -5  -1 -13    0.99    0.43
  -5  -1 -13    0.66    0.43
  -1   6 -13    0.48    0.34
  -5  -1 -13    1.25    0.59
   5   1  13    0.44    0.38
  -6   5  13    0.25    0.34
   1  -6  13    0.39    0.38
   1  -6  13   -0.10    0.34
   5   1  13    0.63    0.38
  -5   2 -13    1.01    0.51
   3  -5 -13    0.77    0.36
  -5   2 -13    0.53    0.31
   2   3 -13    0.46    0.25
   2   3 -13    1.30    0.42
   2   3 -13    0.72    0.36
   3  -5 -13    0.44    0.25
   3  -5 -13    1.48    0.44
  -5   2 -13    0.75    0.39
   2   3 -13    0.97    0.32
   3  -5 -13    0.48    0.28
  -3   5  13    0.45    0.44
   5  -2  13    0.39    0.33
  -2  -3  13    0.35    0.30
   5  -2  13    0.24    0.34
  -2  -3  13    0.51    0.28
   5  -2  13    0.06    0.35
   5  -2  13    0.62    0.36
  -5   5 -13   80.48    3.02
   0  -5 -13   70.62    2.79
   0  -5 -13   73.39    2.70
  -5   5 -13   79.69    2.39
  -5   5 -13   76.64    2.84
   5   0 -13   75.74    2.47
   5   0 -13   73.90    2.65
   5   0 -13   76.30    2.22
   0  -5 -13   71.48    2.96
   5   0 -13   72.11    2.25
   0  -5 -13   74.96    2.81
  -5   5 -13   79.07    3.05
   0   5  13   74.05    2.71
   5  -5  13   77.86    2.86
   5  -5  13   76.83    2.98
   5  -5  13   75.67    2.84
   5  -5  13   75.29    3.01
   0   5  13   72.77    3.06
   0   5  13   69.71    2.20
   0   5  13   74.67    2.88
  -3  -5 -13   15.05    1.61
  -3  -5 -13   14.35    1.25
   8  -3 -13   15.40    0.87
  -5   8 -13   13.50    0.95
   8  -3 -13   15.11    1.13
   3   5  13   13.63    1.00
   5  -8  13   13.50    1.17
   5  -8  13   14.27    1.29
   3   5  13   12.59    1.29
  -6  -5 -13    0.67    0.51
  11  -6 -13    0.10    0.34
  11  -6 -13    0.28    0.32
  -5  11 -13    0.11    0.34
   5 -11  13    0.41    0.48
   6   5  13   -0.08    0.40
   6   5  13    0.15    0.37
   8  -6 -13   -0.03    0.33
   8  -6 -13   -0.05    0.28
  -6  -2 -13    0.12    0.37
  -6  -2 -13    0.62    0.53
  -2   8 -13    0.86    0.41
   6   2  13    0.06    0.30
  -6   1 -13    0.14    0.41
   5  -6 -13    0.25    0.36
   1   5 -13    0.19    0.31
  -6   1 -13    0.49    0.35
   5  -6 -13    0.00    0.33
   1   5 -13    0.21    0.31
  -6   1 -13    0.21    0.34
  -5   6  13    0.41    0.47
  -1  -5  13    1.00    0.43
  -1  -5  13    0.75    0.42
   6  -1  13    0.75    0.41
   6  -1  13    0.40    0.40
   4   2 -13    0.82    0.36
  -6   4 -13    1.70    0.60
   4   2 -13    0.95    0.27
  -6   4 -13    1.17    0.37
   2  -6 -13    1.07    0.39
  -6   4 -13    1.02    0.44
   4   2 -13    0.94    0.32
   4   2 -13    0.82    0.33
   2  -6 -13    1.93    0.56
   4   2 -13    0.93    0.36
   2  -6 -13    0.95    0.44
   6  -4  13    1.82    0.62
  -2   6  13    2.31    0.69
   6  -4  13    2.04    0.54
   6  -4  13    1.17    0.42
  -2   6  13    1.81    0.55
   6  -4  13    1.36    0.52
  -1  -6 -13   12.46    1.45
  -6   7 -13    7.88    1.02
  -6   7 -13    9.46    0.74
   7  -1 -13    9.98    1.06
  -1  -6 -13   10.37    1.22
   6  -7  13   10.04    1.29
   1   6  13    9.89    0.96
   1   6  13    9.93    1.30
   6  -7  13   11.31    1.37
   1   6  13   10.40    1.18
   6  -7  13    8.23    1.09
  -6  10 -13    2.92    0.61
  -4  -6 -13    2.98    0.80
  10  -4 -13    3.01    0.65
   6 -10  13    2.85    0.87
   4   6  13    3.30    0.69
   6 -10  13    2.57    0.67
   4   6  13    3.54    0.78
  13  -7 -13   -0.07    0.36
  -6  13 -13    0.08    0.38
  -7  -6 -13   -0.14    0.51
   7   6  13    0.30    0.52
   7   6  13    0.75    0.56
   6 -13  13    0.12    0.46
  10  -7 -13    5.79    0.85
  -3  10 -13    6.70    0.96
  -7  -3 -13    6.79    1.07
  10  -7 -13    6.93    0.99
   7   3  13    6.90    1.07
   3 -10  13    5.25    0.98
   0   7 -13    2.46    0.58
   7  -7 -13    2.11    0.62
  -7   0 -13    2.06    0.72
   7  -7 -13    2.00    0.56
  -7   0 -13    2.76    0.62
   7   0  13    2.06    0.57
   3   4 -13    1.15    0.46
   3   4 -13    1.21    0.43
  -7   3 -13    1.81    0.67
   4  -7 -13    1.05    0.46
   4  -7 -13    0.94    0.47
  -7   3 -13    1.43    0.51
   3   4 -13    1.45    0.46
  -7   3 -13    1.99    0.44
  -4   7  13    1.37    0.62
  -3  -4  13    1.77    0.43
   7  -3  13    1.87    0.58
   7  -3  13    1.08    0.53
  -4   7  13    1.36    0.55
  -7   6 -13   10.61    1.26
   1  -7 -13   11.37    1.33
   6   1 -13    9.40    1.12
   6   1 -13    9.03    0.75
   1  -7 -13    8.37    1.03
   7  -6  13    9.51    1.20
  -1   7  13    9.21    0.76
   7  -6  13   10.34    1.28
   7  -6  13    9.45    1.35
  -1   7  13   10.14    1.26
  -1   7  13    8.42    1.25
  -2  -7 -13    1.90    0.71
   9  -2 -13    0.95    0.41
   2   7  13    1.00    0.54
   2   7  13    0.63    0.41
  12  -5 -13    1.33    0.50
  12  -5 -13    0.61    0.37
  -5  -7 -13    1.08    0.66
   5   7  13    1.76    0.67
   5   7  13    0.62    0.49
  15  -8 -13    0.63    0.53
  -8  -7 -13    0.25    0.59
   8   7  13    0.33    0.60
   8   7  13   -0.11    0.60
  12  -8 -13    0.13    0.37
  -4  12 -13   -0.11    0.40
  -8  -4 -13    0.21    0.53
   8   4  13    0.50    0.49
   4 -12  13    1.12    0.59
  -1   9 -13    5.19    0.88
  -8  -1 -13    8.85    1.12
   9  -8 -13    5.22    0.85
   9  -8 -13    6.22    1.00
   8   1  13    6.74    1.04
  -8   2 -13    0.17    0.50
   6  -8 -13    0.36    0.37
   2   6 -13    0.25    0.36
   6  -8 -13   -0.26    0.33
   2   6 -13    0.56    0.39
   8  -2  13    0.09    0.41
   8  -2  13    0.99    0.54
   5   3 -13   14.71    0.80
  -8   5 -13   16.11    1.40
  -8   5 -13   15.27    1.23
   5   3 -13   14.87    1.16
   3  -8 -13   16.23    1.23
   3  -8 -13   12.90    1.40
   5   3 -13   13.80    0.94
   5   3 -13   13.62    0.99
  -3   8  13   16.28    1.48
   8  -5  13   14.68    1.28
  -3   8  13   15.82    1.31
   8  -5  13   14.86    1.31
   8   0 -13    5.87    0.88
  -8   8 -13    6.75    1.04
   0  -8 -13    9.66    1.34
   8  -8  13    7.92    1.23
   0   8  13    6.39    1.00
   0   8  13    9.68    1.03
   8  -8  13    9.66    1.29
  11  -3 -13    0.37    0.44
  -3  -8 -13    0.43    0.61
   3   8  13    1.92    0.59
   3   8  13    0.54    0.51
  -6  -8 -13    2.43    0.89
  14  -6 -13    2.38    0.57
   6   8  13    2.54    0.79
   6   8  13    4.60    1.10
  -9  -5 -13    5.61    1.20
  -5  14 -13    7.20    1.16
  14  -9 -13    8.07    1.13
   5 -14  13    6.81    1.22
   9   5  13    5.29    1.09
  11  -9 -13   -0.28    0.42
  -2  11 -13   -0.20    0.32
  -9  -2 -13    0.50    0.53
  11  -9 -13    0.13    0.38
   9   2  13    0.22    0.46
   2 -11  13    0.18    0.51
   8  -9 -13    6.52    1.03
   1   8 -13    7.53    1.05
   1   8 -13    6.35    0.93
   8  -9 -13    4.81    0.91
   9  -1  13    7.60    1.20
  -9   4 -13   15.96    1.49
   4   5 -13   18.48    1.32
   4   5 -13   16.31    1.16
   5  -9 -13   16.31    1.67
   5  -9 -13   18.33    1.38
   9  -4  13   17.80    1.78
   9  -4  13   14.03    1.35
  -5   9  13   13.41    1.30
   2  -9 -13    2.21    0.67
   7   2 -13    1.30    0.50
   2  -9 -13    1.01    0.61
  -9   7 -13    2.09    0.74
   7   2 -13    1.23    0.47
  -2   9  13    1.36    0.46
   9  -7  13    0.64    0.57
   9  -7  13    2.00    0.78
  10  -1 -13    0.45    0.42
  -1  -9 -13    0.43    0.59
   1   9  13   -0.07    0.41
   1   9  13    0.44    0.49
  -4  -9 -13    6.17    1.23
   4   9  13    5.99    1.09
   4   9  13    4.97    1.04
  -3  13 -13    0.64    0.49
  13 -10 -13    1.13    0.58
  10   3  13    0.62    0.57
   3 -13  13    0.31    0.61
  10 -10 -13    3.72    0.83
  10 -10 -13    4.49    0.91
   0  10 -13    4.95    0.97
   0  10 -13    6.26    1.10
   0 -10  13    5.55    1.14
  10   0  13    3.59    0.80
   7 -10 -13    6.26    1.02
   3   7 -13    5.38    0.94
   7 -10 -13    8.85    1.24
   3   7 -13    5.14    0.87
  10  -3  13    5.68    1.04
  10  -3  13    5.75    0.97
   6   4 -13    2.97    0.75
   4 -10 -13    1.58    0.71
   4 -10 -13    3.52    0.82
   6   4 -13    3.43    0.71
  10  -6  13    2.53    0.84
  10  -6  13    2.98    0.80
   1 -10 -13    1.55    0.68
   9   1 -13    0.57    0.43
  -1  10  13    0.59    0.47
  10  -9  13   -0.04    0.52
  -2 -10 -13    2.05    0.80
  12  -2 -13    0.77    0.55
   2  10  13    0.81    0.54
  -5 -10 -13   -0.48    0.60
   5  10  13   -0.12    0.57
   5  10  13   -0.40    0.56
  -1  12 -13    0.33    0.41
  -1  12 -13   -0.02    0.48
  12 -11 -13    0.33    0.51
   1 -12  13   -0.09    0.50
  11   1  13    0.37    0.50
   9 -11 -13    0.38    0.48
   2   9 -13    0.37    0.46
   9 -11 -13    0.58    0.49
   2   9 -13   -0.47    0.32
  11  -2  13   -0.48    0.36
  -2  -9  13    0.52    0.56
   6 -11 -13    0.52    0.50
   6 -11 -13    0.60    0.51
   5   6 -13    0.24    0.37
   5   6 -13   -0.32    0.40
  11  -5  13   -0.23    0.42
  11  -5  13   -0.15    0.46
   8   3 -13    1.39    0.53
   8   3 -13    1.12    0.53
   3 -11 -13    3.33    0.99
  11  -8  13    1.63    0.74
  11  -8  13    1.54    0.72
   0 -11 -13    2.04    0.87
  11   0 -13    2.00    0.65
   0  11  13    0.95    0.59
  -3 -11 -13   -0.39    0.58
   3  11  13    0.01    0.53
  -2  14 -13    0.23    0.66
  -2  14 -13   -0.49    0.44
  14 -12 -13   -0.49    0.50
  12   2  13    0.51    0.64
   2 -14  13    0.01    0.68
   1  11 -13   -0.38    0.46
   1  11 -13    0.36    0.50
  11 -12 -13    0.00    0.52
  -1 -11  13    0.17    0.53
  12  -1  13    0.40    0.53
   8 -12 -13    0.22    0.46
   8 -12 -13   -0.25    0.47
   4   8 -13    1.29    0.57
   4   8 -13   -0.01    0.43
  12  -4  13    1.10    0.64
  -4  -8  13    0.75    0.54
   5 -12 -13    0.47    0.61
   7   5 -13    0.75    0.52
   7   5 -13    2.37    0.69
  12  -7  13    0.41    0.61
  12  -7  13    1.83    0.73
  10   2 -13    1.64    0.65
   2 -12 -13    1.40    0.76
  12 -10  13    0.37    0.62
  -2  12  13    0.85    0.52
  13  -1 -13    1.50    0.68
  -1 -12 -13    2.25    0.94
   1  12  13    2.02    0.72
   0  13 -13    3.03    0.94
  13 -13 -13    5.09    1.12
   0  13 -13    3.09    0.88
   0 -13  13    1.74    0.85
  13   0  13    2.13    0.83
   3  10 -13    2.05    0.82
  10 -13 -13    0.10    0.54
   3  10 -13    0.81    0.58
  10 -13 -13    0.72    0.65
  -3 -10  13    1.85    0.80
  13  -3  13   -0.16    0.46
   6   7 -13    0.42    0.44
   6   7 -13   -0.18    0.47
   7 -13 -13   -0.24    0.43
  13  -6  13    0.23    0.62
  -6  -7  13    0.30    0.47
   9   4 -13    4.50    0.95
   9   4 -13    5.66    1.00
   4 -13 -13    5.17    1.15
  13  -9  13    4.98    1.13
  12   1 -13    2.76    0.76
   1 -13 -13    1.76    0.83
  -1  13  13    2.33    0.84
   2  12 -13    0.07    0.48
   2  12 -13    0.00    0.58
  12 -14 -13   -0.24    0.65
  14  -2  13   -0.66    0.51
  -2 -12  13    0.27    0.69
   5   9 -13    6.91    1.21
   9 -14 -13    8.15    1.36
   9 -14 -13    9.74    1.64
   5   9 -13    8.33    1.37
  14  -5  13    7.03    1.27
  -5  -9  13    7.74    1.42
   8   6 -13    2.63    0.84
   8   6 -13    3.92    0.92
   6 -14 -13    1.83    0.87
  -8  -6  13    3.38    0.99
  14  -8  13    2.29    0.96
  11   3 -13   -0.61    0.38
   3 -14 -13    0.35    0.65
 -11  -3  13    0.07    0.56
   8 -15 -13    0.15    0.63
   7   8 -13   -0.14    0.53
   7   8 -13    1.09    0.68
  -7  -8  13   -0.07    0.54
  15  -7  13    0.10    0.71
  10   5 -13   -0.71    0.47
   5 -15 -13   -0.25    0.67
  10   5 -13    0.32    0.51
  15 -10  13   -0.75    0.69
 -10  -5  13    0.70    0.66
  -1   1 -14  145.54    4.16
   0  -1 -14  138.68    4.37
  -1   1 -14  152.03    4.47
   1   0 -14  146.90    4.10
   1   0 -14  148.44    4.27
   0  -1 -14  140.55    4.58
  -1   1 -14  150.33    4.30
  -1   1 -14  145.26    4.63
   0  -1 -14  143.81    4.25
   0  -1 -14  144.05    4.25
   1   0 -14  143.54    4.51
  -1   1 -14  150.50    4.22
   0  -1 -14  144.01    4.17
   1  -1  14  146.59    4.49
   1  -1  14  148.51    4.71
   0   1  14  140.44    4.14
  -1   0  14  150.02    4.40
   0   1  14  142.78    4.68
  -1   0  14  144.64    4.57
   1  -1  14  145.46    4.19
   0   1  14  147.05    4.54
  -2   0 -14    2.14    0.52
  -2   0 -14    2.26    0.56
   0   2 -14    2.86    0.60
   0   2 -14    2.27    0.42
  -2   0 -14    2.29    0.48
   2  -2 -14    2.37    0.46
  -2   0 -14    2.85    0.56
   0   2 -14    2.23    0.49
  -2   0 -14    2.56    0.53
   2  -2 -14    2.59    0.55
   2   0  14    2.91    0.59
  -2   2  14    2.91    0.62
   0  -2  14    3.30    0.57
  -2   2  14    2.44    0.47
   0  -2  14    2.20    0.55
   2   0  14    3.10    0.56
   2   0  14    2.32    0.56
  -2   3 -14   43.22    1.72
  -2   3 -14   41.47    1.78
   3  -1 -14   38.09    1.78
  -1  -2 -14   39.18    1.70
  -1  -2 -14   40.06    1.80
  -2   3 -14   35.03    1.58
  -1  -2 -14   38.24    1.89
  -2   3 -14   39.66    1.68
  -2   3 -14   40.01    1.91
  -1  -2 -14   41.07    1.74
  -1  -2 -14   39.84    1.94
   3  -1 -14   39.35    1.57
   2  -3  14   41.84    1.81
   2  -3  14   41.65    1.98
   2  -3  14   41.46    1.88
   2  -3  14   40.20    1.75
  -3   1  14   37.93    1.69
  -3   1  14   39.46    1.57
   1   2  14   43.24    1.81
   1   2  14   41.37    2.01
  -3  -1 -14   33.28    1.57
   4  -3 -14   37.25    1.54
  -3  -1 -14   31.00    1.57
  -1   4 -14   37.05    1.60
  -1   4 -14   27.48    1.60
  -3  -1 -14   35.81    1.69
  -3  -1 -14   30.99    1.82
  -3  -1 -14   33.85    1.82
   4  -3 -14   33.99    1.67
   1  -4  14   33.98    1.66
   1  -4  14   37.11    1.65
  -4   3  14   35.95    1.66
  -4   3  14   34.72    1.51
   3   1  14   32.29    1.80
   1  -4  14   34.37    1.77
   3   1  14   35.04    1.69
   1  -3 -14   37.44    1.68
  -3   2 -14   36.97    1.62
   1  -3 -14   37.51    1.78
  -3   2 -14   39.33    1.73
  -3   2 -14   37.47    1.87
   1  -3 -14   37.93    1.53
   2   1 -14   37.67    1.49
   2   1 -14   39.44    1.74
   2   1 -14   39.58    1.70
  -3   2 -14   39.06    1.68
   1  -3 -14   37.83    1.68
  -3   2 -14   40.14    1.92
  -1   3  14   37.10    1.91
  -2  -1  14   39.98    1.69
   3  -2  14   40.33    1.78
  -2  -1  14   39.82    1.55
   3  -2  14   39.22    1.94
   3  -2  14   38.64    1.79
  -1   3  14   37.67    1.64
  -2  -3 -14    9.79    1.26
  -3   5 -14   10.64    1.26
  -2  -3 -14   10.02    0.94
   5  -2 -14   11.47    0.99
  -3   5 -14   10.09    0.94
  -2  -3 -14    9.68    1.02
  -2  -3 -14    9.30    1.12
   5  -2 -14   11.55    0.79
  -3   5 -14    9.97    0.84
  -2  -3 -14   10.61    1.15
   3  -5  14   11.52    1.29
   3  -5  14   10.24    0.95
   2   3  14   12.68    1.49
  -5   2  14   11.10    0.76
   2   3  14    8.64    1.01
  -5   2  14   11.83    0.69
   3  -5  14    9.30    1.27
   6  -4 -14   12.63    1.07
  -4  -2 -14   13.40    1.13
   6  -4 -14   12.37    0.92
  -2   6 -14   13.97    1.00
  -4  -2 -14   13.27    1.10
  -4  -2 -14   14.77    1.33
   2  -6  14   13.93    1.20
  -6   4  14   12.14    0.94
   4   2  14   13.33    1.12
   4   2  14   13.05    1.18
   2  -6  14   15.22    1.15
   1   3 -14   35.51    1.68
  -4   1 -14   35.82    1.64
  -4   1 -14   35.78    1.71
  -4   1 -14   38.06    1.94
   3  -4 -14   35.19    1.75
   1   3 -14   34.59    1.33
   1   3 -14   33.40    1.45
   3  -4 -14   37.74    1.65
   1   3 -14   31.62    1.57
  -4   1 -14   38.48    1.90
  -4   1 -14   34.80    1.59
  -1  -3  14   34.50    1.65
  -3   4  14   34.71    1.82
   4  -1  14   35.39    1.73
   4  -1  14   37.46    1.91
  -1  -3  14   33.55    1.50
  -4   4 -14  420.71   11.73
  -4   4 -14  421.52   11.72
   4   0 -14  426.45   10.51
   0  -4 -14  429.36   10.66
  -4   4 -14  421.37   11.51
   4   0 -14  422.42   11.23
  -4   4 -14  418.88   10.19
   4   0 -14  408.85   10.32
   4   0 -14  421.69   10.23
   0  -4 -14  429.66   11.46
   0  -4 -14  421.77   11.74
   0  -4 -14  423.64   10.70
   0   4  14  430.18   10.73
   4  -4  14  440.48   11.85
   0   4  14  432.33   11.91
   4  -4  14  431.44   11.74
   4  -4  14  412.09   11.58
   4  -4  14  421.50   10.85
  -3  -4 -14   14.08    1.22
  -3  -4 -14   16.08    1.32
  -4   7 -14   14.89    1.03
   7  -3 -14   15.57    0.95
  -3  -4 -14   13.98    1.37
   7  -3 -14   18.58    1.26
   4  -7  14   13.64    1.16
   4  -7  14   15.33    1.31
   3   4  14   14.71    0.99
   3   4  14   14.82    1.19
   8  -5 -14   87.31    2.90
  -5  -3 -14   90.48    3.72
   8  -5 -14   82.36    3.09
  -3   8 -14   90.54    3.05
  -5  -3 -14   91.09    3.26
   3  -8  14   85.17    3.37
   5   3  14   90.66    3.34
   5  -5 -14   93.82    3.37
  -5   0 -14  101.54    3.21
  -5   0 -14   99.38    3.76
  -5   0 -14  104.01    3.43
   5  -5 -14   99.62    3.27
   0   5 -14  104.82    3.33
  -5   0 -14  102.09    3.53
   0  -5  14  102.81    3.40
   0  -5  14   96.38    3.52
  -5   5  14   95.62    3.52
   5   0  14   97.49    3.43
   5   0  14  102.34    3.63
  -5   3 -14   10.08    1.23
  -5   3 -14   10.65    0.81
   2  -5 -14   11.55    0.93
   2  -5 -14    9.32    1.10
   3   2 -14    9.19    0.70
  -5   3 -14   12.80    1.42
   3   2 -14    8.80    1.01
  -5   3 -14   11.54    0.98
   3   2 -14    8.79    0.79
   2  -5 -14   12.41    1.00
   5  -3  14   12.08    1.10
   5  -3  14    9.76    1.10
  -2   5  14   13.15    1.19
  -3  -2  14    8.67    0.66
  -3  -2  14    7.81    0.72
   5  -3  14   11.36    1.08
   5  -3  14   12.46    1.01
  -1  -5 -14    1.17    0.52
   6  -1 -14    1.71    0.48
  -5   6 -14    1.26    0.47
  -5   6 -14    1.66    0.55
  -1  -5 -14    1.28    0.52
  -5   6 -14    1.09    0.38
  -1  -5 -14    1.33    0.44
   6  -1 -14    0.96    0.30
   5  -6  14    2.66    0.69
   5  -6  14    1.61    0.59
   1   5  14    1.14    0.46
   1   5  14    2.71    0.70
   5  -6  14    1.44    0.52
   1   5  14    1.37    0.36
   9  -4 -14  101.21    3.07
   9  -4 -14  104.09    3.49
  -5   9 -14  103.55    3.30
  -4  -5 -14   97.17    3.73
   4   5  14  102.88    3.71
   4   5  14   98.26    3.33
  10  -6 -14    0.01    0.32
  -6  -4 -14   -0.34    0.37
  10  -6 -14    0.61    0.37
  -4  10 -14   -0.02    0.32
   6   4  14    0.38    0.40
  -6  -1 -14   22.69    1.50
  -1   7 -14   24.03    1.45
   7  -6 -14   24.38    1.54
  -6  -1 -14   27.07    1.81
   7  -6 -14   24.37    1.40
  -6  -1 -14   23.09    1.43
   6   1  14   22.14    1.52
   2   4 -14   15.50    1.13
  -6   2 -14   13.68    1.10
  -6   2 -14   13.52    1.27
   2   4 -14   14.01    0.90
  -6   2 -14   14.93    0.98
   4  -6 -14   12.41    1.05
   4  -6 -14   14.44    1.18
  -4   6  14   12.37    1.20
   6  -2  14   12.50    1.20
   6  -2  14   14.60    1.21
   6  -2  14   14.81    1.21
  -2  -4  14   12.32    0.95
  -6   5 -14    1.36    0.37
   1  -6 -14    0.86    0.38
   1  -6 -14    1.67    0.49
   1  -6 -14    1.10    0.47
   5   1 -14    1.08    0.43
   5   1 -14    1.35    0.32
  -6   5 -14    1.79    0.58
   5   1 -14    1.41    0.39
  -1   6  14    0.69    0.43
  -1   6  14    1.25    0.64
   6  -5  14    0.26    0.37
   6  -5  14    1.72    0.66
   6  -5  14    1.10    0.50
  -2  -6 -14   23.62    1.69
   8  -2 -14   23.74    1.42
   8  -2 -14   23.77    1.06
  -6   8 -14   24.68    1.27
   6  -8  14   26.08    1.72
   2   6  14   23.07    1.30
   2   6  14   26.09    1.61
  -6  11 -14   11.96    1.19
  11  -5 -14    9.92    1.12
  -5  -6 -14   10.76    1.41
  11  -5 -14   12.55    0.94
   6 -11  14    9.91    1.23
   5   6  14   10.98    1.28
   5   6  14   10.75    1.37
  -5  12 -14    2.04    0.64
  -7  -5 -14    2.74    0.79
  12  -7 -14    2.64    0.64
   7   5  14    1.56    0.68
   5 -12  14    1.44    0.65
   9  -7 -14    9.23    1.13
  -2   9 -14   11.46    1.23
   9  -7 -14   10.06    1.09
  -7  -2 -14   10.44    1.22
   7   2  14   11.23    1.28
   1   6 -14   24.37    1.37
   1   6 -14   25.69    1.51
  -7   1 -14   22.99    1.32
   6  -7 -14   23.50    1.50
  -7   1 -14   24.58    1.53
   6  -7 -14   25.79    1.51
  -7   1 -14   20.75    1.64
   7  -1  14   23.09    1.55
   4   3 -14   13.35    1.12
  -7   4 -14   15.48    1.24
   4   3 -14   13.83    0.92
   3  -7 -14   15.13    1.28
   3  -7 -14   16.63    1.22
  -7   4 -14   14.52    0.95
  -7   4 -14   16.48    1.40
   4   3 -14   12.61    0.82
  -3   7  14   15.98    1.29
   7  -4  14   14.90    1.33
   7  -4  14   15.74    1.29
  -3   7  14   16.79    1.46
   0  -7 -14   -0.22    0.39
  -7   7 -14    0.05    0.39
   7   0 -14    0.05    0.28
   0  -7 -14    0.21    0.42
   7  -7  14    0.74    0.54
   0   7  14   -0.03    0.29
   7  -7  14    1.69    0.62
  -3  -7 -14    6.95    1.15
  10  -3 -14    6.76    0.99
   3   7  14    5.74    0.92
   3   7  14    7.26    1.11
  13  -6 -14    0.76    0.43
  -6  -7 -14    0.41    0.57
   6   7  14    0.19    0.53
   6   7  14    1.01    0.63
  14  -8 -14    1.61    0.58
  -8  -6 -14    0.77    0.59
   8   6  14    1.43    0.73
  11  -8 -14    2.00    0.66
  11  -8 -14    1.77    0.56
  -8  -3 -14    0.52    0.55
  -3  11 -14    1.01    0.51
   8   3  14    1.13    0.61
   3 -11  14    0.29    0.54
  -8   0 -14  176.19    5.11
   0   8 -14  175.17    5.26
   0   8 -14  188.74    5.51
   8  -8 -14  177.64    5.45
   8  -8 -14  190.45    5.49
   8   0  14  172.32    5.55
   3   5 -14   90.25    2.95
  -8   3 -14   88.32    3.64
   3   5 -14   95.54    3.31
   5  -8 -14   88.01    3.29
   5  -8 -14   85.89    3.34
   8  -3  14   85.59    3.56
   8  -3  14   88.93    3.40
  -5   8  14   86.20    3.44
   6   2 -14   24.48    1.49
   2  -8 -14   24.01    1.70
  -8   6 -14   25.67    1.63
   2  -8 -14   22.39    1.52
   6   2 -14   22.95    1.26
  -2   8  14   25.90    1.89
   8  -6  14   23.11    1.68
   8  -6  14   25.99    1.76
   9  -1 -14   43.70    2.11
  -1  -8 -14   47.54    2.51
   1   8  14   47.46    2.03
  -4  -8 -14   61.72    3.10
  12  -4 -14   62.83    2.62
   4   8  14   63.31    2.76
   4   8  14   61.73    2.96
  15  -7 -14    3.29    0.74
  -7  -8 -14    5.13    1.25
   7   8  14    3.16    0.96
   7   8  14    3.21    1.06
  13  -9 -14   67.17    2.84
  -9  -4 -14   68.65    3.14
  -4  13 -14   70.72    2.97
   9   4  14   71.69    3.28
   4 -13  14   69.98    3.26
  10  -9 -14    6.19    1.02
  -1  10 -14    8.04    1.21
  10  -9 -14    6.99    1.09
  -1  10 -14    8.53    1.14
   9   1  14    7.37    1.12
   1 -10  14    8.37    1.31
   7  -9 -14   13.11    1.44
   7  -9 -14   10.26    1.33
   2   7 -14   12.36    1.41
   2   7 -14   13.19    1.12
   9  -2  14    9.30    1.23
   4  -9 -14   97.70    3.64
   4  -9 -14   98.70    3.77
   5   4 -14   97.01    3.24
   5   4 -14   97.95    3.57
   9  -5  14  106.74    3.88
   9  -5  14  105.61    4.08
   8   1 -14   44.88    2.16
   1  -9 -14   45.80    2.50
   9  -8  14   43.83    2.47
  11  -2 -14    3.19    0.72
  -2  -9 -14    4.66    1.09
   2   9  14    5.61    0.97
  -5  -9 -14   10.63    1.64
   5   9  14   15.72    1.82
   5   9  14   18.84    1.60
  -2  12 -14   16.99    1.80
  -2  12 -14   18.38    1.52
  12 -10 -14   18.91    1.49
  10   2  14   14.75    1.69
   2 -12  14   17.04    1.87
   1   9 -14    7.10    1.11
   9 -10 -14    5.50    1.02
   9 -10 -14    7.12    1.15
   1   9 -14    9.56    1.29
  10  -1  14    7.51    1.18
   6 -10 -14    0.90    0.45
   6 -10 -14    0.13    0.41
   4   6 -14    0.50    0.41
   4   6 -14    0.27    0.39
  10  -4  14    0.24    0.48
  10  -4  14    0.72    0.51
   3 -10 -14    4.85    1.04
   7   3 -14    7.44    0.98
   7   3 -14    4.84    0.87
  10  -7  14    7.21    1.26
  10  -7  14    5.37    1.08
  10   0 -14    2.30    0.70
   0 -10 -14    2.03    0.78
   0  10  14    4.33    0.87
  -3 -10 -14    0.85    0.79
   3  10  14    1.38    0.68
  14 -11 -14    4.19    0.96
  -3  14 -14    2.31    0.88
  -3  14 -14    4.00    0.94
   3 -14  14    3.82    1.04
  11   3  14    2.71    0.96
  11 -11 -14    1.01    0.62
  11 -11 -14    2.16    0.83
   0  11 -14    1.11    0.56
   0  11 -14    1.91    0.76
   0 -11  14    1.69    0.76
  11   0  14    2.44    0.80
   3   8 -14    1.16    0.54
   8 -11 -14    0.62    0.57
   8 -11 -14    1.06    0.53
   3   8 -14    1.66    0.65
  11  -3  14    1.67    0.85
  11  -3  14    0.63    0.59
   5 -11 -14   14.39    1.64
   6   5 -14   11.81    1.44
   6   5 -14   11.81    1.25
   5 -11 -14   11.10    1.45
  11  -6  14   10.28    1.49
  11  -6  14   10.75    1.52
   2 -11 -14    4.63    1.16
   9   2 -14    4.40    0.85
  11  -9  14    4.24    1.09
  12  -1 -14    0.19    0.47
  -1 -11 -14    0.64    0.68
   1  11  14    0.37    0.49
  -1  13 -14   17.73    2.01
  13 -12 -14   19.99    1.70
  -1  13 -14   17.91    1.89
   1 -13  14   22.14    2.27
  12   1  14   20.17    2.22
  10 -12 -14   19.42    1.60
   2  10 -14   17.38    1.86
  10 -12 -14   18.82    1.65
   2  10 -14   19.25    1.62
  12  -2  14   15.97    1.73
  -2 -10  14   16.71    2.02
   5   7 -14    1.49    0.59
   7 -12 -14    2.67    0.74
   5   7 -14    1.12    0.58
   7 -12 -14    2.45    0.76
  12  -5  14    2.01    0.87
   8   4 -14   61.13    2.66
   8   4 -14   59.52    2.79
   4 -12 -14   61.25    3.07
  12  -8  14   56.83    3.20
  12  -8  14   66.74    3.25
  11   1 -14   -0.37    0.45
   1 -12 -14    0.80    0.68
   1  12 -14   19.87    1.71
   1  12 -14   18.79    2.03
  12 -13 -14   22.14    2.25
  13  -1  14   16.45    1.92
  -1 -12  14   19.29    2.18
   9 -13 -14   65.00    3.22
   4   9 -14   67.73    3.14
   9 -13 -14   69.06    3.20
   4   9 -14   75.23    3.33
  13  -4  14   71.27    3.36
  -4  -9  14   73.90    3.59
   6 -13 -14    1.39    0.71
   7   6 -14    1.10    0.63
   7   6 -14    0.23    0.51
  -7  -6  14    0.21    0.58
  13  -7  14    0.18    0.62
   3 -13 -14    2.17    0.92
  10   3 -14    1.52    0.65
   0 -13 -14   78.18    3.98
  13   0 -14   82.33    3.33
   3  11 -14    2.81    0.93
  11 -14 -14    4.57    1.15
   3  11 -14    2.13    0.77
  -3 -11  14    2.67    0.94
  14  -3  14    2.30    0.84
   8 -14 -14    1.23    0.66
   6   8 -14    2.52    0.80
   6   8 -14    0.92    0.65
  14  -6  14    1.53    0.79
  -6  -8  14    1.69    0.83
   9   5 -14   15.61    1.78
   5 -14 -14   11.30    1.70
   9   5 -14   17.28    1.81
  -9  -5  14   16.43    2.03
  14  -9  14   15.35    1.88
   8   7 -14    5.15    1.13
   7 -15 -14    5.62    1.24
   8   7 -14    4.54    1.02
  -8  -7  14    2.48    0.98
  15  -8  14    5.66    1.28
   0   0 -15   26.24    1.28
   0   0 -15   27.27    1.48
   0   0 -15   24.56    1.35
   0   0 -15   23.86    1.10
   0   0 -15   23.87    1.19
   0   0  15   26.28    1.36
   0   0  15   22.81    1.44
  -1  -1 -15    3.13    0.64
   2  -1 -15    4.19    0.63
   2  -1 -15    2.41    0.54
  -1  -1 -15    3.37    0.58
  -1  -1 -15    3.03    0.61
  -1   2 -15    2.58    0.48
  -1   2 -15    3.84    0.53
   2  -1 -15    3.35    0.61
  -1   2 -15    3.18    0.58
  -1   2 -15    3.96    0.74
  -1  -1 -15    3.06    0.66
  -1   2 -15    3.82    0.58
  -1  -1 -15    3.09    0.58
   1   1  15    3.76    0.72
   1   1  15    2.90    0.66
  -2   1  15    3.20    0.56
  -2   1  15    3.58    0.68
   1  -2  15    3.57    0.64
   1   1  15    4.10    0.65
   1  -2  15    4.11    0.81
   1   1 -15    3.22    0.60
  -2   1 -15    4.38    0.81
   1   1 -15    2.83    0.57
  -2   1 -15    3.48    0.59
   1  -2 -15    4.37    0.77
  -2   1 -15    3.56    0.64
   1  -2 -15    4.18    0.54
   1  -2 -15    3.88    0.59
   1   1 -15    3.73    0.56
   1  -2 -15    3.01    0.53
  -2   1 -15    3.40    0.65
  -2   1 -15    3.63    0.59
  -1  -1  15    4.08    0.75
  -1  -1  15    3.87    0.59
  -1   2  15    3.14    0.70
   2  -1  15    3.07    0.68
   2  -1  15    2.51    0.56
  -1   2  15    3.61    0.67
   2  -1  15    3.73    0.73
   4  -2 -15    0.43    0.29
  -2  -2 -15    0.04    0.38
  -2   4 -15    0.25    0.30
  -2  -2 -15    0.53    0.44
  -2  -2 -15    0.56    0.36
  -2   4 -15    0.40    0.37
  -2  -2 -15    0.29    0.32
  -2  -2 -15    0.38    0.28
   4  -2 -15    0.23    0.34
  -2   4 -15    0.65    0.37
  -2   4 -15    0.28    0.27
   2  -4  15    1.20    0.42
   2  -4  15    0.18    0.36
   2  -4  15    0.72    0.43
  -4   2  15    0.63    0.29
  -4   2  15    0.45    0.36
   2   2  15    0.41    0.34
   2   2  15    0.49    0.42
   0   3 -15    0.86    0.38
   0   3 -15    0.48    0.28
   0   3 -15    0.26    0.28
  -3   0 -15    1.25    0.47
  -3   0 -15    0.71    0.41
  -3   0 -15    1.14    0.41
  -3   0 -15    0.73    0.39
   3  -3 -15    1.20    0.45
  -3   0 -15    0.63    0.47
   3  -3 -15    0.55    0.32
  -3   3  15    0.48    0.33
   0  -3  15    0.72    0.36
   0  -3  15    0.60    0.37
   3   0  15    0.65    0.36
  -3   3  15    1.10    0.52
   3   0  15    0.76    0.44
   0  -3 -15    2.26    0.58
   0  -3 -15    1.07    0.37
  -3   3 -15    1.29    0.48
   0  -3 -15    1.45    0.47
   3   0 -15    0.43    0.35
  -3   3 -15    1.66    0.45
  -3   3 -15    1.87    0.55
  -3   3 -15    1.68    0.47
   0  -3 -15    1.05    0.44
   3   0 -15    1.07    0.35
   3   0 -15    1.67    0.39
  -3   3 -15    1.40    0.41
   3  -3  15    1.34    0.52
   3  -3  15    1.42    0.43
  -3   0  15    1.24    0.35
   0   3  15    1.84    0.50
   0   3  15    0.38    0.44
   3  -3  15    1.06    0.46
  -3   0  15    1.52    0.46
   3  -3  15    2.02    0.56
  -3  -3 -15   19.08    1.40
  -3  -3 -15   21.04    1.32
  -3  -3 -15   20.65    1.37
   6  -3 -15   18.79    1.31
  -3   6 -15   20.99    1.25
  -3  -3 -15   20.58    1.71
   6  -3 -15   18.98    1.08
   3   3  15   20.59    1.38
   3   3  15   20.16    1.49
   3  -6  15   21.67    1.53
   3  -6  15   21.58    1.37
  -6   3  15   18.67    1.12
   5  -4 -15   24.01    1.46
  -4  -1 -15   26.13    1.42
   5  -4 -15   21.32    1.24
  -1   5 -15   23.05    1.36
  -4  -1 -15   22.84    1.41
  -4  -1 -15   25.53    1.67
  -4  -1 -15   23.20    1.41
   1  -5  15   24.30    1.43
   4   1  15   22.48    1.55
   4   1  15   25.22    1.49
  -4   2 -15    0.40    0.35
   2  -4 -15    0.74    0.35
  -4   2 -15    1.04    0.36
   2   2 -15    0.66    0.36
   2   2 -15    0.13    0.24
   2  -4 -15    1.18    0.43
  -4   2 -15    0.70    0.39
   2   2 -15    0.81    0.36
  -4   2 -15    0.48    0.41
   2  -4 -15    0.65    0.42
  -4   2 -15    0.25    0.44
   2  -4 -15    0.22    0.24
   4  -2  15    0.09    0.34
  -2  -2  15    0.52    0.35
  -2   4  15    0.84    0.49
   4  -2  15    0.77    0.39
   4  -2  15    0.07    0.37
  -2  -2  15   -0.01    0.25
   5  -1 -15   42.59    1.64
  -4   5 -15   45.93    2.24
  -4   5 -15   44.01    1.77
  -1  -4 -15   46.50    2.03
   5  -1 -15   44.37    2.00
  -1  -4 -15   44.74    1.97
  -1  -4 -15   46.91    2.15
   4  -5  15   43.82    2.18
   4  -5  15   45.15    2.24
   1   4  15   42.35    2.23
   4  -5  15   43.75    2.06
   1   4  15   40.49    1.96
  -5   1  15   42.03    1.65
  -4  -4 -15   40.78    2.12
  -4   8 -15   36.66    1.78
   8  -4 -15   40.37    1.98
  -4  -4 -15   38.68    2.07
   8  -4 -15   40.23    1.67
   4  -8  15   36.03    2.00
   4   4  15   41.22    2.09
  -5  -2 -15    2.57    0.82
  -5  -2 -15    1.77    0.55
  -2   7 -15    2.97    0.64
  -5  -2 -15    3.38    0.74
   7  -5 -15    2.69    0.66
   7  -5 -15    2.82    0.61
   5   2  15    2.46    0.64
   1   4 -15   24.08    1.17
   1   4 -15   22.00    1.37
   4  -5 -15   23.59    1.52
  -5   1 -15   22.29    1.31
  -5   1 -15   25.30    1.67
  -5   1 -15   23.22    1.37
  -5   1 -15   24.30    1.43
   4  -5 -15   21.95    1.32
   5  -1  15   25.20    1.61
   5  -1  15   24.19    1.51
  -5   4 -15   43.44    2.19
   4   1 -15   42.00    1.78
   4   1 -15   40.83    1.57
   4   1 -15   42.15    1.93
  -5   4 -15   41.96    1.72
   1  -5 -15   40.79    1.91
  -5   4 -15   44.95    2.01
   1  -5 -15   41.11    2.04
   5  -4  15   43.15    2.09
   5  -4  15   42.41    2.15
  -1   5  15   39.56    2.20
   5  -4  15   44.43    2.19
   5  -4  15   39.56    1.97
  -5   7 -15    2.14    0.52
   7  -2 -15    2.00    0.43
  -2  -5 -15    2.38    0.67
   7  -2 -15    2.39    0.65
  -2  -5 -15    2.76    0.67
   2   5  15    1.90    0.50
   5  -7  15    3.04    0.79
   2   5  15    2.42    0.65
   5  -7  15    2.46    0.70
  -5  10 -15    5.28    0.81
  10  -5 -15    3.91    0.79
  10  -5 -15    4.78    0.70
  -5  -5 -15    5.04    1.02
   5   5  15    4.27    0.87
   9  -6 -15    1.25    0.51
  -6  -3 -15    1.02    0.58
   9  -6 -15    1.17    0.45
  -3   9 -15    0.29    0.39
   6   3  15    0.75    0.52
  -6   0 -15    1.87    0.53
   6  -6 -15    1.44    0.55
  -6   0 -15    1.01    0.62
   0   6 -15    1.60    0.55
   6  -6 -15    1.76    0.54
  -6   0 -15    0.76    0.49
   6   0  15    0.29    0.42
   3   3 -15   18.75    1.03
   3   3 -15   20.13    1.34
  -6   3 -15   19.80    1.36
   3  -6 -15   19.38    1.41
   3   3 -15   19.76    1.02
  -6   3 -15   19.72    1.58
   3  -6 -15   20.36    1.34
  -6   3 -15   19.41    1.15
   6  -3  15   18.95    1.42
  -3  -3  15   21.01    1.21
   6  -3  15   21.27    1.50
   6  -3  15   20.57    1.52
  -3   6  15   19.97    1.56
   6   0 -15    0.95    0.33
   0  -6 -15    0.39    0.38
   0  -6 -15    0.32    0.43
   6   0 -15   -0.07    0.30
  -6   6 -15    0.63    0.34
   6  -6  15    0.27    0.45
   6  -6  15    0.85    0.53
   0   6  15    0.76    0.54
   9  -3 -15    3.53    0.73
   9  -3 -15    3.16    0.52
  -3  -6 -15    2.29    0.77
  -6   9 -15    2.61    0.60
   6  -9  15    3.44    1.03
   3   6  15    2.85    0.80
   3   6  15    2.53    0.63
  12  -6 -15    1.83    0.54
  12  -6 -15    1.60    0.57
  -6  -6 -15    3.02    0.87
   6   6  15    4.74    0.92
   6 -12  15    1.82    0.69
   6   6  15    2.03    0.71
  -4  11 -15    0.43    0.46
  11  -7 -15    1.09    0.52
  11  -7 -15    1.70    0.66
  -7  -4 -15    0.16    0.50
   7   4  15    1.24    0.66
   4 -11  15    1.10    0.61
  -7  -1 -15    3.54    0.71
  -1   8 -15    2.87    0.66
   8  -7 -15    4.13    0.75
  -7  -1 -15    2.99    0.87
   8  -7 -15    3.54    0.75
   7   1  15    3.23    0.73
   2   5 -15    1.95    0.49
   2   5 -15    1.44    0.51
  -7   2 -15    2.35    0.62
  -7   2 -15    2.73    0.84
   5  -7 -15    1.91    0.67
  -7   2 -15    3.29    0.62
   5  -7 -15    2.46    0.59
   7  -2  15    2.14    0.62
  -7   5 -15    2.73    0.68
   5   2 -15    1.76    0.57
   2  -7 -15    1.93    0.65
   5   2 -15    2.30    0.43
   2  -7 -15    1.61    0.57
  -2   7  15    3.22    0.81
   7  -5  15    1.69    0.62
   7  -5  15    2.30    0.78
  -2   7  15    1.91    0.74
   8  -1 -15    0.89    0.46
  -1  -7 -15    0.59    0.49
  11  -4 -15    0.56    0.35
  -4  -7 -15   -0.10    0.51
  11  -4 -15    1.19    0.57
   4   7  15   -0.30    0.44
   4   7  15    1.34    0.58
  14  -7 -15    0.41    0.46
  -7  -7 -15    0.31    0.63
   7   7  15    0.23    0.60
   7   7  15    0.57    0.56
  -8  -5 -15    7.78    1.30
  13  -8 -15    8.08    1.06
  -5  13 -15    8.68    1.21
   8   5  15    4.68    1.03
   5 -13  15    9.18    1.34
  -2  10 -15    1.18    0.51
  -8  -2 -15    0.22    0.43
  10  -8 -15    0.34    0.42
  10  -8 -15    0.02    0.45
   8   2  15    0.14    0.46
   7  -8 -15    2.90    0.71
   1   7 -15    3.38    0.74
   1   7 -15    3.13    0.71
   7  -8 -15    4.14    0.84
  -8   1 -15    2.99    0.83
   8  -1  15    3.58    0.80
   4   4 -15   36.15    1.67
   4   4 -15   37.52    1.97
   4  -8 -15   42.01    2.06
   4  -8 -15   40.33    2.13
  -8   4 -15   36.78    2.02
  -4   8  15   41.02    2.16
   8  -4  15   35.87    2.16
   8  -4  15   37.59    2.09
   1  -8 -15    0.33    0.49
   7   1 -15    0.84    0.28
   7   1 -15    0.71    0.44
  -2  -8 -15    3.83    0.97
  10  -2 -15    2.21    0.63
   2   8  15    2.90    0.68
  -5  -8 -15    6.14    1.22
  13  -5 -15    5.04    0.72
   5   8  15    5.58    1.07
   5   8  15    4.85    1.08
  -9  -3 -15    2.68    0.78
  12  -9 -15    1.98    0.66
  -3  12 -15    2.22    0.69
   9   3  15    1.76    0.72
   3 -12  15    0.82    0.64
   9  -9 -15   12.86    1.41
   9  -9 -15   12.74    1.42
   0   9 -15   11.06    1.33
   0   9 -15   12.93    1.37
   9   0  15   13.66    1.57
   6  -9 -15    1.38    0.56
   3   6 -15    0.09    0.34
   3   6 -15    0.28    0.39
   6  -9 -15    2.07    0.72
   9  -3  15    0.74    0.57
   9  -3  15    0.25    0.47
   3  -9 -15    4.81    1.00
   3  -9 -15    4.00    0.86
   6   3 -15    3.07    0.49
   6   3 -15    2.66    0.72
   9  -6  15    2.77    0.92
   9  -6  15    3.24    0.87
   0  -9 -15    8.42    1.38
   9   0 -15    7.64    1.03
  -3  -9 -15    1.68    0.76
  12  -3 -15    2.21    0.67
   3   9  15    0.82    0.57
  14 -10 -15    4.71    0.90
  -4  14 -15    4.51    1.00
  10   4  15    3.95    1.12
   4 -14  15    3.96    1.03
  11 -10 -15   -0.11    0.44
  11 -10 -15    0.16    0.43
  -1  11 -15    0.33    0.51
  -1  11 -15   -0.15    0.36
   1 -11  15   -0.08    0.50
  10   1  15   -0.13    0.41
   8 -10 -15    1.24    0.63
   2   8 -15    1.05    0.54
   2   8 -15    0.57    0.47
   8 -10 -15    0.38    0.44
  10  -2  15    1.07    0.59
   5 -10 -15    5.91    1.05
   5   5 -15    4.87    0.83
   5   5 -15    5.36    0.92
   5 -10 -15    5.26    0.96
  10  -5  15    4.73    1.08
  10  -5  15    4.28    0.90
   2 -10 -15    2.70    0.85
   8   2 -15    3.33    0.79
  -1 -10 -15    1.13    0.73
  11  -1 -15    0.84    0.51
  -4 -10 -15    0.46    0.69
   4  10  15    0.78    0.72
  13 -11 -15    0.19    0.60
  -2  13 -15   -0.18    0.43
  -2  13 -15    0.10    0.55
   2 -13  15    0.31    0.62
  11   2  15    0.15    0.53
  10 -11 -15    1.35    0.63
  10 -11 -15    0.86    0.58
   1  10 -15    0.09    0.41
   1  10 -15    0.43    0.52
  11  -1  15    0.22    0.54
  -1 -10  15   -0.19    0.52
   7 -11 -15    1.05    0.67
   4   7 -15    0.45    0.47
   7 -11 -15    1.38    0.62
   4   7 -15    0.50    0.48
  11  -4  15    1.24    0.74
  11  -4  15    0.33    0.55
   7   4 -15    1.30    0.58
   4 -11 -15    0.61    0.59
   7   4 -15    0.22    0.44
  11  -7  15    1.30    0.69
  11  -7  15    0.80    0.68
  10   1 -15    0.49    0.48
   1 -11 -15    1.65    0.76
  -2 -11 -15    3.38    1.07
  13  -2 -15    3.28    0.84
   2  11  15    2.86    0.82
   0  12 -15    0.68    0.57
   0  12 -15    0.50    0.54
  12 -12 -15    0.17    0.67
  12   0  15    0.46    0.57
   0 -12  15    1.19    0.71
   3   9 -15    2.63    0.76
   3   9 -15    0.64    0.53
   9 -12 -15    0.88    0.68
   9 -12 -15    0.41    0.54
  -3  -9  15    2.64    0.93
  12  -3  15    2.89    0.91
   6   6 -15    3.06    0.85
   6 -12 -15    3.12    0.85
   6 -12 -15    2.25    0.79
   6   6 -15    3.12    0.82
  12  -6  15    2.97    0.97
   9   3 -15    0.40    0.49
   3 -12 -15    1.10    0.68
  12   0 -15    9.88    1.39
   0 -12 -15    7.05    1.37
   2  11 -15    0.19    0.53
  11 -13 -15    0.03    0.54
   2  11 -15    0.16    0.56
  13  -2  15   -0.45    0.53
  -2 -11  15    0.43    0.69
   5   8 -15    9.19    1.40
   8 -13 -15    9.04    1.44
   5   8 -15    8.39    1.29
   8 -13 -15    8.60    1.39
  13  -5  15    7.15    1.31
  -5  -8  15    6.74    1.34
   5 -13 -15    6.41    1.32
   8   5 -15    3.54    0.87
   8   5 -15    4.05    0.84
  13  -8  15    3.08    1.04
   2 -13 -15    4.34    1.27
  11   2 -15    1.95    0.74
  10 -14 -15    2.62    0.89
   4  10 -15    5.12    1.06
   4  10 -15    4.41    1.05
  10 -14 -15    4.33    1.03
  -4 -10  15    6.14    1.38
  14  -4  15    4.81    1.19
   7   7 -15    0.88    0.66
   7 -14 -15    0.03    0.60
   7   7 -15    0.78    0.59
  -7  -7  15    0.08    0.58
  14  -7  15    0.36    0.81
   4 -14 -15    0.83    0.77
  10   4 -15    1.30    0.69
 -10  -4  15    1.18    0.73
  -1   0 -16   21.88    1.32
   0   1 -16   20.50    1.26
   1  -1 -16   20.34    1.19
   0   1 -16   20.45    1.33
   0   1 -16   21.86    1.20
  -1   0 -16   19.88    1.19
   1  -1 -16   20.95    1.29
  -1   0 -16   20.60    1.38
  -1   0 -16   20.06    1.26
   1  -1 -16   20.30    1.32
  -1   1  16   18.95    1.20
   0  -1  16   19.64    1.35
   0  -1  16   19.20    1.20
   1   0  16   20.51    1.29
  -1   1  16   20.12    1.39
   1   0  16   20.03    1.42
  -2  -1 -16   29.99    1.76
  -2  -1 -16   32.62    1.65
   3  -2 -16   29.78    1.61
   3  -2 -16   31.36    1.48
  -2  -1 -16   31.67    1.56
  -1   3 -16   26.64    1.44
  -2  -1 -16   32.33    1.57
  -1   3 -16   30.29    1.55
   1  -3  16   29.92    1.55
   1  -3  16   30.14    1.70
   2   1  16   29.96    1.78
  -3   2  16   27.94    1.46
   2   1  16   30.84    1.61
  -3   2  16   28.62    1.61
  -2   2 -16   35.60    1.62
   2   0 -16   31.60    1.65
   2   0 -16   31.60    1.46
   0  -2 -16   33.33    1.80
  -2   2 -16   31.30    1.76
   0  -2 -16   31.67    1.58
  -2   2 -16   31.46    1.56
   0  -2 -16   29.40    1.58
  -2   2 -16   32.24    1.64
   0  -2 -16   31.41    1.70
   2   0 -16   33.17    1.65
   2  -2  16   33.30    1.67
   0   2  16   30.15    1.81
   2  -2  16   33.70    1.84
  -2   0  16   34.05    1.53
  -2   0  16   31.67    1.66
   5  -3 -16   24.12    1.54
  -3  -2 -16   26.98    1.58
  -3  -2 -16   26.75    1.48
   5  -3 -16   25.49    1.33
  -3  -2 -16   27.39    1.55
  -2   5 -16   26.51    1.47
   2  -5  16   27.02    1.54
   3   2  16   28.20    1.62
   3   2  16   25.31    1.70
   2  -3 -16   29.35    1.52
   1   2 -16   32.82    1.63
  -3   1 -16   29.45    1.53
   2  -3 -16   29.87    1.68
  -3   1 -16   29.38    1.53
  -3   1 -16   29.16    1.52
   1   2 -16   32.50    1.45
  -3   1 -16   29.97    1.77
  -2   3  16   30.26    1.77
   3  -1  16   29.30    1.78
  -1  -2  16   31.02    1.62
   3  -1  16   26.94    1.57
  -1  -2  16   31.86    1.50
   3  -1  16   28.31    1.64
  -3   4 -16   24.13    1.34
  -1  -3 -16   26.63    1.46
  -1  -3 -16   24.39    1.51
   4  -1 -16   23.02    1.19
   4  -1 -16   21.21    1.41
  -1  -3 -16   26.30    1.42
  -1  -3 -16   23.35    1.57
   3  -4  16   23.74    1.45
   1   3  16   25.97    1.69
  -4   1  16   20.15    1.27
   3  -4  16   24.23    1.62
  -3   7 -16    1.55    0.49
  -4  -3 -16    1.53    0.53
   7  -4 -16    1.68    0.43
   7  -4 -16    1.54    0.52
  -4  -3 -16    2.08    0.62
   3  -7  16    1.03    0.48
   4   3  16    0.78    0.43
  -4   0 -16  253.69    6.85
   4  -4 -16  254.08    6.93
   4  -4 -16  269.44    7.14
  -4   0 -16  260.50    7.01
   0   4 -16  252.56    6.90
  -4   0 -16  257.21    7.50
   4   0  16  255.12    7.80
   4   0  16  259.04    7.18
   1  -4 -16   20.86    1.45
  -4   3 -16   22.44    1.52
   1  -4 -16   19.84    1.30
  -4   3 -16   22.08    1.26
   3   1 -16   22.90    1.39
   3   1 -16   26.67    1.21
  -4   3 -16   21.40    1.33
  -3  -1  16   24.21    1.32
   4  -3  16   20.75    1.52
   4  -3  16   22.41    1.56
  -1   4  16   22.00    1.62
   4  -3  16   21.42    1.42
  -2  -4 -16   10.65    1.04
   6  -2 -16   10.05    0.83
  -2  -4 -16   10.44    1.32
   6  -2 -16    9.72    1.14
  -2  -4 -16   10.96    1.21
  -4   6 -16   10.33    0.90
   2   4  16   11.25    1.26
   2   4  16   10.13    1.33
   4  -6  16   11.28    1.08
   4  -6  16   14.54    1.68
   9  -5 -16   32.35    1.86
  -4   9 -16   32.41    1.72
   9  -5 -16   32.68    1.60
  -5  -4 -16   32.04    1.96
   5   4  16   33.99    2.00
   6  -5 -16    6.79    0.88
   6  -5 -16    7.12    0.99
  -1   6 -16    6.03    0.87
  -5  -1 -16    6.84    0.95
  -5  -1 -16    8.17    1.05
   5   1  16    6.98    1.03
   3  -5 -16   27.50    1.65
   3  -5 -16   26.43    1.52
  -5   2 -16   27.50    1.56
  -5   2 -16   27.55    1.41
   2   3 -16   25.72    1.30
   2   3 -16   26.17    1.54
   5  -2  16   28.06    1.66
   5  -2  16   26.75    1.75
   0  -5 -16   45.53    2.05
   0  -5 -16   43.87    2.21
   5   0 -16   44.42    2.06
  -5   5 -16   44.73    1.83
   5   0 -16   43.96    1.66
   5  -5  16   49.58    2.41
   0   5  16   40.30    2.30
   8  -3 -16    1.03    0.37
  -5   8 -16    0.64    0.38
   8  -3 -16    0.01    0.32
  -3  -5 -16    0.46    0.46
  -3  -5 -16    0.20    0.45
   3   5  16    0.55    0.37
   3   5  16    0.37    0.41
  11  -6 -16   21.76    1.55
  -6  -5 -16   25.13    1.83
  -5  11 -16   21.01    1.45
  11  -6 -16   19.15    1.30
   6   5  16   23.08    1.76
   5 -11  16   21.69    1.66
  -2   8 -16   21.83    1.45
   8  -6 -16   21.98    1.55
  -6  -2 -16   19.38    1.44
   8  -6 -16   23.07    1.38
   6   2  16   21.62    1.58
  -6   1 -16    5.42    0.85
   1   5 -16    7.62    1.00
  -6   1 -16    5.39    0.87
   5  -6 -16    8.09    1.13
   1   5 -16    8.50    0.92
   5  -6 -16    8.39    1.02
   6  -1  16    6.34    1.02
  -6   4 -16    9.73    0.85
   2  -6 -16   11.24    1.28
  -6   4 -16    9.56    1.16
   2  -6 -16    8.99    1.19
   4   2 -16    9.74    1.14
   4   2 -16    9.31    0.76
   6  -4  16   11.73    1.45
  -2   6  16   11.14    1.50
   6  -4  16   10.99    1.25
   6  -4  16   11.97    1.58
  -6   7 -16   15.77    1.03
   7  -1 -16   16.51    0.93
   7  -1 -16   14.90    1.20
  -1  -6 -16   14.68    1.62
   6  -7  16   13.84    1.38
  -4  -6 -16    0.66    0.59
  10  -4 -16    1.38    0.46
  10  -4 -16    1.10    0.58
  -6  10 -16    0.97    0.47
   4   6  16    1.52    0.57
   4   6  16    1.25    0.63
  13  -7 -16    0.96    0.51
  -7  -6 -16    0.15    0.64
   7   6  16    0.75    0.61
  10  -7 -16    6.86    0.98
  10  -7 -16    7.49    1.12
  -7  -3 -16    6.36    1.04
  -3  10 -16    8.52    1.10
   7   3  16    6.78    1.19
   0   7 -16    1.80    0.61
   7  -7 -16    3.60    0.74
   7  -7 -16    3.46    0.74
   0   7 -16    2.47    0.61
  -7   0 -16    2.44    0.57
   7   0  16    2.65    0.69
   4  -7 -16    2.31    0.64
  -7   3 -16    1.72    0.44
   3   4 -16    1.41    0.49
  -7   3 -16    1.32    0.53
   4  -7 -16    1.97    0.54
   7  -3  16    1.90    0.64
   7  -3  16    1.74    0.64
   6   1 -16   17.61    1.30
   1  -7 -16   15.96    1.31
   6   1 -16   15.40    0.88
   1  -7 -16   17.09    1.48
  -1   7  16   16.40    1.57
  -2  -7 -16   11.57    1.54
   9  -2 -16   11.36    0.79
   9  -2 -16   14.13    1.48
  12  -5 -16    2.52    0.56
  -5  -7 -16    2.71    0.98
  12  -5 -16    1.88    0.68
   5   7  16    1.80    0.74
   5   7  16    1.89    0.66
  -4  12 -16   29.27    1.83
  -8  -4 -16   26.47    1.96
  12  -8 -16   31.59    1.79
   8   4  16   32.42    2.11
   4 -12  16   30.30    2.13
  -8  -1 -16   18.78    1.40
   9  -8 -16   18.33    1.40
   9  -8 -16   18.43    1.43
  -1   9 -16   19.16    1.48
   8   1  16   19.20    1.53
   2   6 -16   19.28    1.26
   6  -8 -16   21.83    1.55
   2   6 -16   20.57    1.49
   6  -8 -16   21.94    1.53
   8  -2  16   21.47    1.60
   5   3 -16    0.77    0.47
   3  -8 -16    1.05    0.57
   3  -8 -16    0.93    0.53
   5   3 -16    0.77    0.34
  -8   5 -16    0.77    0.52
   8  -5  16    0.41    0.45
   8  -5  16    0.91    0.50
   8   0 -16   58.35    2.60
   0  -8 -16   59.53    2.90
  11  -3 -16    0.00    0.45
  -3  -8 -16   -0.72    0.49
   3   8  16    0.20    0.48
  -6  -8 -16    2.32    0.98
  14  -6 -16    1.94    0.59
   6   8  16    1.38    0.71
   6   8  16    1.15    0.68
  -9  -5 -16    5.47    1.21
  -5  14 -16    4.58    0.99
  14  -9 -16    5.81    1.04
   5 -14  16    3.12    1.00
   9   5  16    4.32    1.10
  -2  11 -16   15.79    1.64
  11  -9 -16   19.26    1.56
  11  -9 -16   19.16    1.49
   9   2  16   17.70    1.99
   2 -11  16   13.70    1.71
   1   8 -16   18.69    1.49
   8  -9 -16   19.83    1.58
   8  -9 -16   19.28    1.50
   1   8 -16   19.51    1.44
   9  -1  16   19.97    1.60
   5  -9 -16   35.36    1.98
   4   5 -16   31.52    1.90
   4   5 -16   35.91    1.74
   5  -9 -16   32.52    2.05
   9  -4  16   32.95    2.04
   9  -4  16   32.69    2.15
   2  -9 -16   15.28    1.76
   7   2 -16   11.30    1.34
  -1  -9 -16    1.48    0.80
  10  -1 -16    0.90    0.48
  -4  -9 -16   46.52    2.86
   4   9  16   42.60    2.34
  13 -10 -16    0.31    0.55
  -3  13 -16    0.13    0.47
   3 -13  16    0.58    0.65
  10   3  16    0.27    0.54
  10 -10 -16    1.04    0.56
   0  10 -16    0.66    0.57
  10 -10 -16    0.07    0.56
   0  10 -16    0.61    0.50
  10   0  16    0.80    0.61
   0 -10  16    1.09    0.74
   3   7 -16    8.35    1.13
   7 -10 -16    8.06    1.19
   7 -10 -16    5.95    1.11
   3   7 -16    7.45    1.12
  10  -3  16    8.71    1.35
   4 -10 -16    1.14    0.59
   6   4 -16    0.07    0.47
   4 -10 -16    1.35    0.71
  10  -6  16    1.19    0.66
   9   1 -16    1.59    0.59
   1 -10 -16    0.89    0.60
  12  -2 -16    6.46    1.11
  -2 -10 -16    7.40    1.38
  12 -11 -16   -0.22    0.53
  -1  12 -16   -0.12    0.48
  -1  12 -16    0.66    0.57
  11   1  16    1.03    0.78
   1 -12  16    1.48    0.78
   9 -11 -16   15.60    1.70
   2   9 -16   14.84    1.60
   9 -11 -16   17.28    1.56
   2   9 -16   17.60    1.50
  11  -2  16   16.70    1.76
   5   6 -16   23.88    1.57
   5   6 -16   20.85    1.65
   6 -11 -16   18.50    1.63
   6 -11 -16   20.31    2.09
  11  -5  16   19.54    1.83
  11  -5  16   23.43    1.85
   3 -11 -16    0.31    0.58
   8   3 -16    0.76    0.51
  11   0 -16    8.64    1.27
   0 -11 -16    7.10    1.41
  11 -12 -16    1.09    0.58
   1  11 -16    0.38    0.56
   1  11 -16    0.68    0.59
  11 -12 -16    1.82    0.76
  -1 -11  16    1.21    0.76
  12  -1  16   -0.14    0.57
   4   8 -16   26.86    1.93
   4   8 -16   29.24    1.88
   8 -12 -16   33.03    2.15
   8 -12 -16   29.91    2.03
  12  -4  16   26.91    2.07
   7   5 -16    2.57    0.82
   5 -12 -16    1.22    0.78
  12  -7  16    1.00    0.75
   2 -12 -16    4.47    1.19
  10   2 -16    8.56    1.26
  10 -13 -16   -0.53    0.50
   3  10 -16    0.14    0.50
   3  10 -16    0.28    0.52
  10 -13 -16   -0.32    0.59
  -3 -10  16    0.08    0.65
  13  -3  16    0.07    0.59
   6   7 -16    1.96    0.72
   6   7 -16    0.46    0.52
   7 -13 -16    0.36    0.54
  13  -6  16    0.64    0.77
   9   4 -16   41.69    2.40
   4 -13 -16   40.31    2.66
   5   9 -16    3.94    0.99
   9 -14 -16    4.37    1.20
   5   9 -16    3.43    0.99
   9 -14 -16    2.32    0.84
  -5  -9  16    2.75    0.99
  14  -5  16    6.49    1.35
   6 -14 -16    2.02    0.92
   8   6 -16    1.37    0.78
  -8  -6  16    0.98    0.75
  14  -8  16    1.50    0.90
   1   0 -17   34.16    1.59
  -1   1 -17   36.26    1.75
  -1   1 -17   36.44    1.67
   1   0 -17   35.25    1.77
   0  -1 -17   34.34    1.78
   0  -1 -17   34.49    1.66
   1  -1  17   37.57    1.96
  -1   0  17   32.34    1.82
   0   1  17   31.30    1.87
   1  -1  17   40.50    1.85
  -1   0  17   33.30    1.66
   0   1  17   34.28    1.80
   2  -2 -17    4.72    0.80
  -2   0 -17    4.71    0.77
  -2   0 -17    4.24    0.77
   2  -2 -17    5.02    0.78
   0   2 -17    4.81    0.70
  -2   0 -17    6.34    0.98
   0   2 -17    4.52    0.81
   2   0  17    5.89    1.12
  -2   2  17    5.08    0.80
   2   0  17    5.19    0.86
   0  -2  17    5.04    0.78
  -2   3 -17    2.16    0.55
  -2   3 -17    2.49    0.57
   3  -1 -17    2.20    0.57
   3  -1 -17    2.99    0.55
  -1  -2 -17    2.87    0.63
  -1  -2 -17    1.99    0.58
   1   2  17    2.14    0.68
   2  -3  17    2.88    0.69
   2  -3  17    2.39    0.76
   4  -3 -17   12.84    1.04
  -3  -1 -17   13.87    1.38
  -1   4 -17   12.41    1.05
  -3  -1 -17   12.89    1.10
   4  -3 -17   13.52    1.42
  -3  -1 -17   12.24    1.05
   1  -4  17   13.40    1.23
   3   1  17   13.69    1.64
   2   1 -17    3.02    0.54
   2   1 -17    2.62    0.60
  -3   2 -17    2.34    0.55
   1  -3 -17    2.12    0.57
   1  -3 -17    2.49    0.66
  -3   2 -17    3.33    0.67
   3  -2  17    2.56    0.77
   3  -2  17    2.49    0.62
  -1   3  17    3.49    0.85
  -2  -3 -17    8.12    1.11
  -2  -3 -17    6.80    0.88
   5  -2 -17    7.58    0.88
   5  -2 -17    6.67    1.00
  -3   5 -17    6.36    0.85
   2   3  17    8.12    1.32
   3  -5  17    7.92    1.04
  -2   6 -17    5.53    0.87
   6  -4 -17    6.68    0.88
   6  -4 -17    5.07    0.93
  -4  -2 -17    6.61    1.02
  -4  -2 -17    8.38    1.16
   4   2  17    5.46    0.89
   3  -4 -17   16.76    1.64
   1   3 -17   12.56    1.29
   3  -4 -17   13.42    1.10
  -4   1 -17   14.73    1.15
  -4   1 -17   12.33    1.10
   1   3 -17   12.94    0.99
  -4   1 -17   13.69    1.31
   4  -1  17   16.07    1.81
   0  -4 -17    3.93    0.76
   4   0 -17    2.92    0.62
   4   0 -17    2.51    0.46
  -4   4 -17    2.34    0.53
   0  -4 -17    3.22    0.62
   0   4  17    3.57    0.83
   4  -4  17    2.50    0.61
   4  -4  17    2.54    0.74
  -3  -4 -17    9.14    1.26
   7  -3 -17   10.15    0.88
   7  -3 -17   10.09    1.30
  -4   7 -17   11.42    1.18
   4  -7  17   11.80    1.42
   8  -5 -17    5.88    0.83
  -3   8 -17    6.98    0.98
   8  -5 -17    5.81    0.97
  -5  -3 -17    5.59    1.03
   5   3  17    4.41    0.88
   5  -5 -17    2.88    0.63
  -5   0 -17    1.76    0.56
   0   5 -17    2.62    0.63
   5  -5 -17    2.86    0.66
  -5   0 -17    2.65    0.62
   5   0  17    2.86    0.70
   3   2 -17    6.37    0.76
  -5   3 -17    7.06    0.93
   3   2 -17    6.11    0.92
   2  -5 -17    8.24    1.17
   2  -5 -17    8.57    1.05
   5  -3  17    6.41    1.18
   6  -1 -17    0.83    0.48
  -1  -5 -17    1.07    0.49
  -1  -5 -17    1.42    0.57
  -5   6 -17    1.96    0.55
   6  -1 -17    1.22    0.41
   5  -6  17    1.91    0.71
   1   5  17    1.77    0.75
   9  -4 -17    5.50    0.78
   9  -4 -17    6.14    1.01
  -5   9 -17    5.68    0.88
  -4  -5 -17    5.42    1.08
   4   5  17    5.04    1.01
  -6  -4 -17    2.75    0.82
  -4  10 -17    4.65    0.85
  10  -6 -17    4.10    0.78
  10  -6 -17    3.98    0.89
   6   4  17    4.80    1.00
   7  -6 -17    0.88    0.47
  -1   7 -17    1.05    0.48
   7  -6 -17    2.39    0.65
  -6  -1 -17    0.89    0.48
   6   1  17    0.50    0.54
  -6   2 -17    6.98    1.10
  -6   2 -17    6.09    0.87
   4  -6 -17    5.48    0.86
   2   4 -17    6.77    1.02
   4  -6 -17    5.34    0.99
   6  -2  17    5.96    0.97
   1  -6 -17    1.12    0.49
   5   1 -17    1.13    0.48
   1  -6 -17    0.71    0.51
  -6   5 -17    1.74    0.49
   5   1 -17    1.14    0.37
  -1   6  17    1.39    0.71
   6  -5  17    1.37    0.65
  -6   8 -17    1.71    0.52
   8  -2 -17    1.83    0.58
   8  -2 -17    0.83    0.35
  -2  -6 -17    1.14    0.56
  11  -5 -17   -0.25    0.33
  11  -5 -17    0.39    0.40
  -5  -6 -17    0.27    0.54
   5   6  17    0.10    0.47
  12  -7 -17    1.84    0.61
  12  -7 -17    1.03    0.57
  -5  12 -17    1.18    0.57
  -7  -5 -17    2.45    0.84
   7   5  17    1.72    0.76
   5 -12  17   -0.17    0.56
   9  -7 -17    0.18    0.40
  -7  -2 -17    0.71    0.54
   9  -7 -17    0.24    0.45
  -2   9 -17    0.14    0.35
   7   2  17    0.70    0.55
   1   6 -17    1.48    0.52
   6  -7 -17    1.84    0.67
   6  -7 -17    1.41    0.57
  -7   1 -17    0.82    0.52
   1   6 -17    1.58    0.58
   7  -1  17    0.56    0.52
   4   3 -17    9.72    0.83
   3  -7 -17   13.42    1.53
   3  -7 -17    9.66    1.33
   4   3 -17    9.19    1.20
   7  -4  17   12.25    1.74
  -3   7  17   10.96    1.41
   7   0 -17   13.36    0.85
   7   0 -17   15.61    1.31
   0  -7 -17   14.33    1.69
  -3  -7 -17    0.04    0.54
  10  -3 -17    0.46    0.33
  10  -3 -17    0.60    0.52
  -6  -7 -17    0.99    0.79
  13  -6 -17    1.37    0.55
  -3  11 -17    0.67    0.54
  11  -8 -17    1.36    0.66
  -8  -3 -17   -0.10    0.51
  11  -8 -17    0.32    0.49
   3 -11  17    0.99    0.67
   8   3  17    1.55    0.65
   0   8 -17    1.50    0.57
  -8   0 -17    1.75    0.66
   0   8 -17    1.07    0.52
   8  -8 -17    0.65    0.53
   8  -8 -17    1.67    0.69
   8   0  17    0.41    0.50
   5  -8 -17    9.10    1.24
   3   5 -17    7.54    1.14
   5  -8 -17    6.41    1.15
   8  -3  17    5.17    1.07
   6   2 -17    1.47    0.39
   2  -8 -17    1.70    0.65
   2  -8 -17    1.03    0.52
   6   2 -17    0.32    0.42
   9  -1 -17    2.82    0.48
  -1  -8 -17    2.20    0.79
   9  -1 -17    3.04    0.80
  12  -4 -17    0.70    0.58
  -4  -8 -17    0.38    0.63
  13  -9 -17    3.88    0.84
  -9  -4 -17    2.22    0.86
  -4  13 -17    1.85    0.76
   9   4  17    3.03    0.90
   4 -13  17    3.10    0.94
  10  -9 -17    2.19    0.77
  -1  10 -17    2.34    0.72
  10  -9 -17    1.47    0.61
  -1  10 -17    1.66    0.68
   9   1  17    0.20    0.51
   2   7 -17    0.91    0.49
   7  -9 -17    0.19    0.42
   7  -9 -17    0.21    0.50
   2   7 -17    0.81    0.51
   9  -2  17    0.35    0.54
   5   4 -17    3.09    0.76
   4  -9 -17    4.76    1.01
   4  -9 -17    4.74    0.98
   9  -5  17    4.44    1.00
   1  -9 -17    2.32    0.82
   8   1 -17    1.80    0.62
   8   1 -17    3.34    0.51
  11  -2 -17    0.56    0.50
  -2  -9 -17    1.16    0.72
  12 -10 -17    1.27    0.67
  -2  12 -17    0.97    0.68
  -2  12 -17    0.35    0.51
  10   2  17    0.78    0.63
   2 -12  17    1.36    0.79
   1   9 -17    1.24    0.60
   1   9 -17    1.56    0.59
   9 -10 -17    2.36    0.78
   9 -10 -17    1.10    0.60
  10  -1  17    0.70    0.61
   6 -10 -17    4.18    1.02
   6 -10 -17    5.36    1.10
   4   6 -17    4.59    0.92
  10  -4  17    5.71    1.05
  10  -4  17    4.47    1.19
   3 -10 -17    0.24    0.59
   7   3 -17    0.22    0.39
  10   0 -17    0.80    0.55
   0 -10 -17    0.93    0.71
  13  -3 -17    4.79    1.00
  -3 -10 -17    2.69    1.05
  11 -11 -17    2.22    0.78
  11 -11 -17    1.45    0.74
   0  11 -17    2.55    0.80
   0  11 -17    1.77    0.81
  11   0  17    0.72    0.63
   0 -11  17    1.27    0.77
   8 -11 -17    1.18    0.60
   3   8 -17    0.59    0.52
   8 -11 -17   -0.24    0.47
   3   8 -17    0.49    0.48
  11  -3  17    1.13    0.63
   6   5 -17    0.32    0.47
   5 -11 -17    0.07    0.46
   5 -11 -17   -0.49    0.43
  11  -6  17    0.51    0.68
   2 -11 -17    2.70    0.94
   9   2 -17    1.26    0.64
  12  -1 -17   -0.10    0.50
  -1 -11 -17    0.24    0.74
   2  10 -17    0.98    0.66
  10 -12 -17    0.58    0.62
   2  10 -17    1.14    0.63
  10 -12 -17    0.44    0.63
  12  -2  17    0.17    0.52
  -2 -10  17    0.86    0.70
   7 -12 -17    1.80    0.79
   5   7 -17    1.64    0.71
   7 -12 -17    1.07    0.75
  12  -5  17    0.54    0.67
   8   4 -17    0.09    0.41
   4 -12 -17   -0.45    0.49
   1 -12 -17    0.85    0.75
  11   1 -17   -0.12    0.46
   9 -13 -17    2.46    0.92
   9 -13 -17    2.17    0.83
   4   9 -17    3.56    0.93
   4   9 -17    2.95    0.86
  13  -4  17    2.53    0.90
  -4  -9  17    1.50    0.89
   7   6 -17    1.16    0.61
   6 -13 -17    0.80    0.67
  13  -7  17    1.01    0.86
  10   3 -17    4.50    1.06
   3 -13 -17    3.42    1.03
   0   0 -18   39.82    1.82
   0   0 -18   38.62    1.94
   0   0  18   40.57    1.97
  -1   2 -18   26.57    1.47
  -1   2 -18   29.88    1.62
  -1  -1 -18   25.46    1.48
   2  -1 -18   26.17    1.61
   2  -1 -18   25.70    1.42
  -1  -1 -18   27.42    1.59
   1   1  18   25.70    1.75
   1  -2  18   24.54    1.50
  -2   1 -18   26.18    1.54
   1  -2 -18   26.21    1.50
  -2   1 -18   27.47    1.52
   1   1 -18   27.43    1.44
   1   1 -18   25.86    1.59
   1  -2 -18   28.46    1.69
   2  -1  18   28.01    1.80
   2  -1  18   28.21    1.65
  -1   2  18   28.65    1.64
  -2   4 -18   15.51    1.16
   4  -2 -18   14.32    1.04
  -2  -2 -18   14.83    1.18
   4  -2 -18   16.79    1.32
  -2  -2 -18   15.51    1.25
   2  -4  18   14.14    1.19
   2   2  18   13.06    1.60
   3  -3 -18   16.46    1.18
   0   3 -18   17.05    1.15
   0   3 -18   14.83    1.16
  -3   0 -18   16.74    1.26
   3  -3 -18   17.57    1.35
  -3   0 -18   13.24    1.14
   3   0  18   14.91    1.39
   3   0 -18    6.26    0.91
   0  -3 -18    7.35    1.04
  -3   3 -18    6.86    0.95
   3   0 -18    7.17    0.89
  -3   3 -18    6.81    0.87
   0  -3 -18    8.15    1.07
   3  -3  18    7.97    1.12
   0   3  18    6.02    1.09
   3  -3  18    6.66    1.14
   6  -3 -18    6.50    1.01
  -3   6 -18    7.46    0.96
  -3  -3 -18    7.85    1.13
   6  -3 -18    6.46    0.82
  -4  -1 -18    1.89    0.56
   5  -4 -18    1.32    0.53
   5  -4 -18    1.68    0.50
  -1   5 -18    2.20    0.58
   2   2 -18   14.08    1.00
   2   2 -18   13.65    1.16
  -4   2 -18   13.51    1.16
   2  -4 -18   13.47    1.48
   2  -4 -18   13.37    1.13
  -4   2 -18   13.96    1.14
   4  -2  18   17.35    1.47
  -1  -4 -18    0.00    0.35
   5  -1 -18    0.60    0.33
  -1  -4 -18    1.12    0.53
   5  -1 -18    0.14    0.33
  -4   5 -18    0.37    0.35
   4  -5  18    0.35    0.44
   1   4  18    0.45    0.53
  -4  -4 -18    6.28    1.08
  -4   8 -18    5.56    0.90
   8  -4 -18    5.36    0.94
   8  -4 -18    6.22    0.81
   7  -5 -18   13.99    1.10
  -5  -2 -18   11.03    1.29
   7  -5 -18   12.93    1.42
  -2   7 -18   13.51    1.17
   5   2  18   12.54    1.44
  -5   1 -18    1.13    0.45
   1   4 -18    1.14    0.51
   4  -5 -18    1.69    0.49
   4  -5 -18    1.29    0.54
   1  -5 -18    0.12    0.45
   4   1 -18    0.41    0.29
  -5   4 -18   -0.06    0.31
   1  -5 -18    1.04    0.50
   4   1 -18   -0.10    0.31
   5  -4  18    0.27    0.52
  -2  -5 -18   12.39    1.46
   7  -2 -18   15.00    1.30
   7  -2 -18   15.61    1.04
  -5   7 -18    9.84    1.07
  -5  -5 -18    6.72    1.19
  10  -5 -18    6.89    1.09
  10  -5 -18    5.70    0.84
  -5  10 -18    6.12    0.96
  -6  -3 -18    1.58    0.72
   9  -6 -18    1.15    0.59
   9  -6 -18    1.81    0.57
  -3   9 -18    1.15    0.52
   6   3  18    1.04    0.58
  -6   0 -18    1.47    0.59
   6  -6 -18    0.13    0.45
   0   6 -18    1.05    0.49
   6  -6 -18    1.19    0.53
   6   0  18    1.12    0.58
   3  -6 -18    5.48    0.86
  -6   3 -18    7.20    0.90
   3  -6 -18    6.40    1.03
   3   3 -18    9.40    0.83
   3   3 -18    8.21    1.12
   0  -6 -18    0.79    0.50
  -6   6 -18    0.49    0.39
   6   0 -18    0.18    0.30
   6   0 -18    0.49    0.39
   0  -6 -18    0.66    0.48
   9  -3 -18    1.97    0.64
  -6   9 -18    3.28    0.73
  -3  -6 -18    1.73    0.79
   9  -3 -18    2.88    0.56
  -6  -6 -18    2.68    0.98
  12  -6 -18    1.53    0.54
  12  -6 -18    2.24    0.74
  -7  -4 -18    0.46    0.58
  -4  11 -18    0.35    0.44
  11  -7 -18    0.28    0.47
  11  -7 -18    0.17    0.47
   7   4  18    0.73    0.59
   8  -7 -18    0.42    0.49
   8  -7 -18    0.02    0.38
  -7  -1 -18    0.85    0.47
  -1   8 -18    0.22    0.41
   7   1  18    0.01    0.47
  -7   2 -18   12.71    1.27
   5  -7 -18   13.91    1.48
   2   5 -18   11.86    1.37
   5  -7 -18   12.46    1.48
   7  -2  18   13.04    1.49
   2  -7 -18   10.91    1.27
   2  -7 -18   10.22    1.38
   5   2 -18   12.68    1.40
   5   2 -18   13.78    0.93
  -1  -7 -18    0.74    0.56
   8  -1 -18    0.17    0.27
   8  -1 -18   -0.24    0.35
  11  -4 -18    0.53    0.41
  11  -4 -18   -0.02    0.48
  -4  -7 -18    0.20    0.57
  -8  -5 -18    0.35    0.60
  -5  13 -18    0.36    0.49
  13  -8 -18    0.60    0.54
   5 -13  18    0.78    0.68
   8   5  18   -0.61    0.58
  -2  10 -18    0.69    0.49
  10  -8 -18    1.78    0.62
  10  -8 -18    1.55    0.66
  -8  -2 -18    1.33    0.57
   8   2  18    1.49    0.65
   7  -8 -18    0.03    0.40
   7  -8 -18    0.51    0.48
   1   7 -18   -0.36    0.41
   8  -1  18    0.16    0.56
   4  -8 -18    2.85    0.80
   4  -8 -18    6.63    1.01
   4   4 -18    5.25    0.94
   7   1 -18    0.42    0.31
   1  -8 -18    0.49    0.52
   7   1 -18    0.11    0.44
  10  -2 -18    4.27    0.60
  10  -2 -18    4.36    0.90
  -2  -8 -18    5.24    1.22
  -5  -8 -18    1.87    0.89
  13  -5 -18    1.92    0.57
  12  -9 -18    0.27    0.53
  12  -9 -18    0.03    0.48
  -3  12 -18    0.39    0.51
   9   3  18    0.09    0.60
   3 -12  18    0.36    0.66
   9  -9 -18    1.63    0.72
   0   9 -18    0.21    0.47
   0   9 -18    0.22    0.46
   9  -9 -18   -0.02    0.43
   9   0  18   -0.18    0.54
   3   6 -18    0.81    0.51
   6  -9 -18    1.17    0.59
   6  -9 -18    1.25    0.66
   9  -3  18    0.80    0.63
   3  -9 -18    2.11    0.80
   6   3 -18    2.29    0.51
   3  -9 -18    2.96    0.90
   6   3 -18    2.49    0.75
   9   0 -18    0.63    0.49
   0  -9 -18    0.22    0.58
  12  -3 -18    0.66    0.61
  -3  -9 -18    1.62    0.86
  11 -10 -18    5.23    1.02
  -1  11 -18    7.98    1.34
  11 -10 -18    8.20    1.28
  -1  11 -18    6.32    1.15
   1 -11  18   10.95    1.68
  10   1  18    5.63    1.22
   8 -10 -18    1.99    0.68
   2   8 -18    2.39    0.73
   8 -10 -18    1.27    0.67
  10  -2  18    0.36    0.60
   5 -10 -18    8.13    1.31
   5 -10 -18    4.97    1.07
   5   5 -18    6.78    1.18
   8   2 -18    5.19    0.66
   2 -10 -18    2.27    0.89
   8   2 -18    4.90    0.95
  -1 -10 -18    5.37    1.25
  11  -1 -18    7.12    1.15
  10 -11 -18    5.93    1.17
   1  10 -18    8.60    1.34
  10 -11 -18    7.61    1.29
   1  10 -18    5.94    1.10
  11  -1  18    3.85    1.03
   7 -11 -18   -0.45    0.45
   7 -11 -18    0.31    0.55
   4   7 -18   -0.05    0.43
  11  -4  18    0.41    0.65
   4 -11 -18    0.38    0.56
   7   4 -18    1.21    0.55
   1 -11 -18    4.71    1.15
  10   1 -18    6.07    1.16
   9 -12 -18    0.03    0.51
   9 -12 -18    0.29    0.62
   3   9 -18   -0.22    0.42
  12  -3  18   -0.04    0.57
   6   6 -18    1.07    0.61
   6 -12 -18    2.90    0.96
   9   3 -18    0.51    0.55
   3 -12 -18    1.40    0.83
   8 -13 -18   -0.30    0.56
   5   8 -18    1.15    0.63
   8 -13 -18    1.07    0.77
  13  -5  18    0.54    0.68
   8   5 -18    2.27    0.81
   5 -13 -18    3.09    1.01
  -1   0 -19   22.65    1.45
   1  -1 -19   22.55    1.50
   0   1 -19   24.73    1.41
   1  -1 -19   21.47    1.35
  -1   0 -19   21.79    1.39
   0   1 -19   20.89    1.43
   1   0  19   22.50    1.53
   3  -2 -19    0.85    0.52
   3  -2 -19    1.01    0.42
  -2  -1 -19    1.97    0.61
  -1   3 -19    2.07    0.60
  -1   3 -19    0.85    0.44
  -2  -1 -19    1.05    0.52
   2   1  19    1.15    0.60
  -2   2 -19   11.20    1.19
   2   0 -19   16.95    1.13
   0  -2 -19   14.67    1.19
   2   0 -19   14.99    1.27
  -2   2 -19   17.07    1.25
   0  -2 -19   15.61    1.29
   2  -2  19   15.87    1.28
  -3  -2 -19    2.42    0.65
   5  -3 -19    1.54    0.51
   5  -3 -19    1.81    0.65
  -2   5 -19    1.96    0.57
   1   2 -19    1.44    0.51
  -3   1 -19    1.77    0.54
   1   2 -19    0.88    0.47
   2  -3 -19    0.98    0.52
  -3   1 -19    1.19    0.54
   2  -3 -19    0.48    0.40
   3  -1  19    0.55    0.59
  -3   4 -19    5.09    0.83
  -1  -3 -19    7.72    1.05
   4  -1 -19    7.25    1.12
   4  -1 -19    5.20    0.76
  -1  -3 -19    5.83    0.98
   1   3  19    6.06    1.25
   3  -4  19    4.04    0.81
   7  -4 -19    3.78    0.88
  -4  -3 -19    4.33    0.89
   7  -4 -19    3.62    0.70
  -3   7 -19    2.92    0.66
   4  -4 -19   49.07    2.39
   0   4 -19   46.93    2.21
  -4   0 -19   51.24    2.29
   4  -4 -19   49.38    2.18
   1  -4 -19    5.76    0.86
   3   1 -19    6.24    0.98
   1  -4 -19    6.90    1.07
  -4   3 -19    5.39    0.90
   3   1 -19    6.25    0.83
   4  -3  19    4.54    1.00
  -2  -4 -19    2.74    0.76
  -4   6 -19    2.56    0.62
   6  -2 -19    2.95    0.71
   6  -2 -19    2.45    0.56
   9  -5 -19   32.98    1.67
  -4   9 -19   29.46    1.77
   9  -5 -19   28.77    1.92
  -5  -4 -19   28.56    1.96
   6  -5 -19    0.88    0.46
  -1   6 -19   -0.40    0.27
  -5  -1 -19    0.21    0.41
   6  -5 -19    0.28    0.40
  -5   2 -19    2.00    0.55
   2   3 -19    0.94    0.44
   3  -5 -19    3.69    0.82
   2   3 -19    2.34    0.65
   3  -5 -19    2.64    0.82
   0  -5 -19   77.73    3.04
   0  -5 -19   80.77    3.27
  -5   5 -19   78.68    2.81
   5   0 -19   74.93    3.04
   5   0 -19   76.65    2.64
   5  -5  19   74.55    3.44
   0   5  19   72.90    3.61
  -3  -5 -19    2.18    0.76
   8  -3 -19    5.06    0.99
  -5   8 -19    5.31    0.87
   8  -3 -19    4.27    0.73
  -6  -5 -19    3.02    0.96
  -5  11 -19    2.68    0.73
  11  -6 -19    2.96    0.81
  11  -6 -19    2.30    0.65
   8  -6 -19    1.70    0.68
  -6  -2 -19    1.57    0.60
  -2   8 -19    1.12    0.58
   8  -6 -19    1.79    0.58
   5  -6 -19    0.39    0.41
   5  -6 -19    0.13    0.45
   1   5 -19   -0.04    0.35
  -6   1 -19    0.56    0.39
   4   2 -19    1.58    0.61
  -6   4 -19    3.38    0.71
   2  -6 -19    3.10    0.75
   2  -6 -19    1.85    0.69
   4   2 -19    2.54    0.55
   7  -1 -19    6.69    1.04
   7  -1 -19    7.90    0.87
  -6   7 -19    6.98    0.96
  -1  -6 -19    6.12    1.10
  10  -4 -19    0.10    0.34
  10  -4 -19    0.24    0.45
  -4  -6 -19    0.18    0.51
  -7  -6 -19    0.96    0.73
  13  -7 -19    0.69    0.51
  -3  10 -19    5.09    0.98
  10  -7 -19    7.15    1.07
  -7  -3 -19    5.97    1.10
  10  -7 -19    4.47    0.94
   0   7 -19    0.29    0.43
  -7   0 -19    0.39    0.41
   7  -7 -19   -0.24    0.42
   7  -7 -19    0.44    0.44
  -7   3 -19    4.18    0.77
   4  -7 -19    3.50    0.81
   3   4 -19    3.78    0.86
   4  -7 -19    4.91    0.95
   1  -7 -19    7.51    1.28
   6   1 -19    7.23    0.82
   6   1 -19    5.49    1.03
   9  -2 -19    1.65    0.47
   9  -2 -19    2.49    0.78
  -2  -7 -19    1.90    0.82
  12  -5 -19   -0.45    0.49
  12  -5 -19   -0.20    0.36
  -5  -7 -19    0.21    0.59
  12  -8 -19    7.25    1.06
  12  -8 -19    5.76    1.10
  -8  -4 -19    4.25    1.07
  -4  12 -19    5.03    1.02
   4 -12  19    5.03    1.11
  -1   9 -19   15.11    1.65
  -8  -1 -19   15.98    1.66
   9  -8 -19   13.64    1.57
  -1   9 -19   14.95    1.52
   9  -8 -19   16.49    1.43
   8   1  19   18.78    2.06
   2   6 -19    1.38    0.63
   6  -8 -19    2.33    0.83
   6  -8 -19    2.09    0.72
   3  -8 -19    3.48    0.79
   5   3 -19    2.65    0.75
   3  -8 -19    3.87    0.94
   5   3 -19    3.87    0.66
   8   0 -19   17.23    1.04
   0  -8 -19   14.03    1.75
   8   0 -19   15.19    1.62
  11  -3 -19    0.19    0.35
  11  -3 -19   -0.17    0.41
  -3  -8 -19   -0.35    0.52
  11  -9 -19    4.84    1.03
  -2  11 -19    5.80    1.11
  -2  11 -19    5.31    1.08
  11  -9 -19    3.84    0.97
   9   2  19    2.85    1.04
   8  -9 -19   16.03    1.44
   1   8 -19   14.00    1.58
   8  -9 -19   12.85    1.56
   9  -1  19   17.06    1.96
   5  -9 -19   34.76    2.08
   4   5 -19   30.89    1.94
   5  -9 -19   30.13    2.15
   7   2 -19    1.67    0.46
   7   2 -19    2.87    0.79
   2  -9 -19    3.04    0.95
  -1  -9 -19    2.66    0.98
  10  -1 -19    2.65    0.81
   0  10 -19    6.26    1.18
   0  10 -19    5.53    1.05
  10 -10 -19    5.17    1.06
  10   0  19    6.46    1.22
   7 -10 -19    5.60    1.09
   7 -10 -19    7.44    1.19
   3   7 -19    5.84    1.09
   6   4 -19    0.29    0.41
   4 -10 -19    0.28    0.54
   1 -10 -19    3.13    1.07
   9   1 -19    3.73    0.90
  12  -2 -19    1.39    0.66
  -2 -10 -19    2.12    0.97
   9 -11 -19    3.93    0.95
   2   9 -19    5.10    1.08
   9 -11 -19    5.52    1.14
  11  -2  19    5.57    1.29
   5   6 -19    2.46    0.77
   6 -11 -19    3.98    1.01
   6 -11 -19    2.86    1.00
   3 -11 -19   -0.05    0.58
   8   3 -19   -0.28    0.40
   0 -11 -19    1.98    0.96
  11   0 -19    1.78    0.73
   4   8 -19    4.92    1.03
   8 -12 -19    4.99    1.09
   8 -12 -19    4.55    1.06
   7   5 -19    0.68    0.52
   5 -12 -19   -0.59    0.47
   2 -12 -19    2.05    0.95
  10   2 -19    2.85    0.88
   7 -13 -19    1.70    0.79
   6   7 -19    0.70    0.53
  -1   1 -20    0.04    0.31
   1   0 -20    0.09    0.33
   0  -1 -20    0.42    0.36
  -1   1 -20    0.09    0.32
   1   0 -20    0.42    0.41
   0  -1 -20    0.30    0.38
   0   1  20   -0.03    0.38
   1  -1  20    0.43    0.44
  -2   0 -20    4.39    0.84
   2  -2 -20    4.56    0.93
   0   2 -20    5.18    0.86
   0   2 -20    4.61    0.82
   2  -2 -20    6.16    0.91
  -2   0 -20    4.24    0.83
   3  -1 -20    2.10    0.56
  -1  -2 -20    2.11    0.67
  -2   3 -20    2.18    0.63
  -2   3 -20    1.55    0.49
  -1  -2 -20    2.01    0.60
   3  -1 -20    2.84    0.77
  -1   4 -20   11.10    1.30
   4  -3 -20   11.11    1.19
   4  -3 -20   10.10    1.40
  -3  -1 -20   11.53    1.36
  -3  -1 -20    8.30    1.17
   3   1  20    8.92    1.48
  -3   2 -20    2.06    0.60
   2   1 -20    2.82    0.64
   1  -3 -20    1.88    0.63
   1  -3 -20    2.26    0.72
   2   1 -20    2.36    0.65
  -3   2 -20    2.02    0.57
  -2  -3 -20    0.42    0.43
  -3   5 -20    0.53    0.39
   5  -2 -20    0.36    0.47
   5  -2 -20    0.32    0.38
   6  -4 -20    7.83    1.06
   6  -4 -20    6.68    1.09
  -2   6 -20    8.26    1.15
  -4  -2 -20    6.87    1.10
   1   3 -20    9.90    1.18
   3  -4 -20   11.69    1.34
  -4   1 -20   12.23    1.34
   3  -4 -20    9.19    1.32
   1   3 -20   12.24    1.22
  -4   1 -20   11.13    1.28
   4  -1  20    8.33    1.54
   4   0 -20    0.90    0.46
  -4   4 -20    2.04    0.59
   0  -4 -20    2.31    0.75
   4   0 -20    1.17    0.47
   0  -4 -20    2.78    0.66
  -3  -4 -20   11.10    1.47
  -4   7 -20    9.50    1.23
   7  -3 -20    7.92    1.26
   7  -3 -20   10.90    1.17
   8  -5 -20    0.17    0.49
   8  -5 -20    0.85    0.47
  -5  -3 -20    0.50    0.51
  -3   8 -20    0.68    0.49
  -5   0 -20    2.24    0.65
   0   5 -20    0.94    0.50
   5  -5 -20    1.17    0.51
   5  -5 -20    2.22    0.73
  -5   3 -20    0.33    0.41
   3   2 -20    0.09    0.35
   2  -5 -20    0.20    0.43
   2  -5 -20    0.65    0.48
   3   2 -20    0.28    0.35
  -1  -5 -20    0.49    0.49
   6  -1 -20    0.86    0.38
  -5   6 -20    0.71    0.43
   6  -1 -20    0.28    0.41
   9  -4 -20    4.17    0.75
  -4  -5 -20    5.06    1.08
   9  -4 -20    2.35    0.76
  -5   9 -20    1.91    0.67
  10  -6 -20    3.69    0.96
  -6  -4 -20    1.86    0.79
  10  -6 -20    2.16    0.65
  -4  10 -20    1.82    0.68
   7  -6 -20    2.21    0.65
   7  -6 -20    2.28    0.77
  -1   7 -20    1.60    0.66
  -6  -1 -20    1.80    0.65
   4  -6 -20    7.67    1.28
   4  -6 -20    7.85    1.17
   2   4 -20    6.73    1.07
  -6   2 -20    8.38    1.08
   5   1 -20    0.21    0.40
   1  -6 -20    0.12    0.45
  -6   5 -20    0.57    0.40
   5   1 -20    0.64    0.36
   1  -6 -20    0.45    0.57
  -2  -6 -20    3.86    0.97
   8  -2 -20    2.87    0.60
   8  -2 -20    1.49    0.61
  -5  -6 -20    0.70    0.68
  11  -5 -20    0.75    0.49
  11  -5 -20    1.00    0.61
  12  -7 -20    2.32    0.78
  12  -7 -20    3.48    0.82
  -5  12 -20    4.54    1.03
  -7  -5 -20    3.21    1.02
   5 -12  20    6.56    1.29
   9  -7 -20    3.62    0.84
  -7  -2 -20    3.09    0.83
  -2   9 -20    5.26    0.99
   9  -7 -20    2.70    0.79
  -7   1 -20    1.42    0.57
   6  -7 -20    2.39    0.71
   6  -7 -20    1.46    0.61
   1   6 -20    0.96    0.57
   4   3 -20    8.54    0.98
   3  -7 -20    8.37    1.35
   4   3 -20    6.85    1.14
   3  -7 -20   10.77    1.45
   0  -7 -20   18.88    1.98
   7   0 -20   17.23    1.50
   7   0 -20   16.56    1.10
  10  -3 -20   -0.15    0.41
  10  -3 -20    0.21    0.32
  -3  -7 -20   -0.13    0.55
  11  -8 -20    3.25    0.93
  -8  -3 -20    2.07    0.85
  11  -8 -20    2.04    0.70
  -3  11 -20    2.90    0.79
   0   8 -20   -0.09    0.37
   8  -8 -20   -0.54    0.38
   8  -8 -20    1.09    0.56
   5  -8 -20    1.25    0.60
   5  -8 -20    0.94    0.65
   3   5 -20    0.64    0.47
   6   2 -20    2.12    0.54
   6   2 -20    2.29    0.73
   2  -8 -20    3.28    0.98
   9  -1 -20    0.57    0.54
  -1  -8 -20   -0.34    0.47
   9  -1 -20    0.43    0.33
  12  -4 -20    1.63    0.52
  12  -4 -20    1.33    0.71
  -4  -8 -20    2.20    0.83
  10  -9 -20   -0.50    0.57
  -1  10 -20    0.62    0.51
  10  -9 -20    0.54    0.58
   7  -9 -20    3.88    0.93
   2   7 -20    2.44    0.74
   7  -9 -20    3.59    0.99
   4  -9 -20    1.88    0.69
   4  -9 -20    3.41    1.00
   5   4 -20    3.35    0.89
   8   1 -20    0.53    0.52
   8   1 -20    0.66    0.39
   1  -9 -20   -0.07    0.52
  11  -2 -20    1.18    0.65
  -2  -9 -20   -0.24    0.63
  11  -2 -20    0.65    0.38
   1   9 -20    1.28    0.72
   9 -10 -20    1.45    0.82
   9 -10 -20    1.03    0.66
   4   6 -20    2.05    0.80
   6 -10 -20    1.60    0.74
   6 -10 -20    2.83    0.87
   3 -10 -20    0.19    0.60
   7   3 -20    0.21    0.44
  10   0 -20   -0.14    0.44
   0 -10 -20    0.12    0.68
  10   0 -20   -0.06    0.31
   3   8 -20    2.92    0.92
   8 -11 -20    3.42    1.00
   8 -11 -20    1.90    0.89
   5 -11 -20    0.35    0.58
   6   5 -20    0.89    0.60
   9   2 -20    0.51    0.52
   2 -11 -20    1.17    0.79
   7 -12 -20    3.46    0.99
   7 -12 -20    3.64    1.10
   5   7 -20    3.78    1.03
   4 -12 -20    1.88    0.91
   8   4 -20    2.82    0.81
   0   0 -21   67.00    2.65
   0   0 -21   62.10    2.74
  -1  -1 -21   10.74    1.28
  -1  -1 -21   12.20    1.36
   2  -1 -21   12.50    1.07
  -1   2 -21   10.78    1.29
  -1   2 -21    9.53    1.10
   2  -1 -21   11.94    1.35
   1  -2 -21    9.64    1.23
   1  -2 -21   11.99    1.32
   1   1 -21   11.71    1.23
  -2   1 -21    9.21    1.15
  -2   1 -21   11.05    1.29
   1   1 -21    9.50    1.20
  -2  -2 -21   33.52    2.02
  -2   4 -21   32.04    1.82
  -2  -2 -21   35.57    1.91
   4  -2 -21   35.76    2.04
   4  -2 -21   30.67    1.69
   3  -3 -21    0.83    0.43
   3  -3 -21    0.74    0.49
  -3   0 -21    0.73    0.47
   0   3 -21    0.32    0.38
  -3   0 -21    0.84    0.46
   0   3 -21    0.72    0.44
   0  -3 -21   -0.25    0.38
  -3   3 -21    0.38    0.38
   0  -3 -21    0.50    0.52
   3   0 -21    0.41    0.44
   3   0 -21    0.08    0.34
  -3   3 -21    0.18    0.37
   6  -3 -21   49.29    2.20
  -3  -3 -21   51.47    2.55
  -3   6 -21   50.66    2.35
  -4  -1 -21   10.72    1.37
   5  -4 -21   11.16    1.22
   5  -4 -21   11.03    1.44
  -1   5 -21   10.10    1.22
  -4   2 -21   34.73    1.92
   2  -4 -21   35.81    1.88
  -4   2 -21   31.22    1.79
   2  -4 -21   33.82    2.05
   2   2 -21   33.61    1.72
   2   2 -21   31.36    1.87
  -4   5 -21   22.58    1.48
   5  -1 -21   19.09    1.28
  -1  -4 -21   25.39    1.84
   5  -1 -21   21.16    1.60
  -1  -4 -21   21.54    1.66
  -4  -4 -21   44.15    2.45
  -4   8 -21   40.24    2.14
   8  -4 -21   43.22    2.04
   8  -4 -21   40.60    2.35
  -5  -2 -21   14.73    1.60
  -2   7 -21   16.62    1.38
   7  -5 -21   15.08    1.30
   7  -5 -21   14.91    1.63
   4  -5 -21   11.86    1.29
   1   4 -21    9.64    1.22
  -5   1 -21   14.27    1.22
   4  -5 -21   12.58    1.62
   4   1 -21   21.65    1.60
   1  -5 -21   22.81    1.78
  -5   4 -21   22.96    1.49
   1  -5 -21   24.09    1.64
   4   1 -21   24.54    1.40
  -2  -5 -21   22.35    1.78
  -5   7 -21   21.81    1.50
   7  -2 -21   20.75    1.31
   7  -2 -21   20.56    1.66
  10  -5 -21    0.86    0.50
  -5  -5 -21    1.17    0.72
  10  -5 -21   -0.25    0.42
  -5  10 -21    0.65    0.52
   9  -6 -21    0.81    0.51
  -3   9 -21    0.38    0.48
  -6  -3 -21    0.50    0.49
   9  -6 -21    0.62    0.60
  -6   0 -21   10.85    1.32
   6  -6 -21   10.19    1.43
   0   6 -21    8.29    1.21
   6  -6 -21    9.87    1.23
  -6   3 -21   46.87    2.15
   3  -6 -21   49.01    2.41
   3  -6 -21   48.37    2.60
   3   3 -21   43.07    2.34
   3   3 -21   47.00    2.08
   0  -6 -21    3.87    0.94
   6   0 -21    4.76    0.73
   6   0 -21    3.62    0.83
  -6   6 -21    4.37    0.80
  -3  -6 -21    0.03    0.52
   9  -3 -21    0.50    0.53
   9  -3 -21    1.46    0.52
  11  -7 -21    8.21    1.14
  -4  11 -21    8.64    1.25
  11  -7 -21    9.44    1.42
  -7  -4 -21   10.35    1.60
   8  -7 -21   -0.20    0.51
  -7  -1 -21    1.74    0.68
  -1   8 -21    0.19    0.47
   8  -7 -21    0.70    0.57
   5  -7 -21   15.86    1.43
  -7   2 -21   16.81    1.36
   2   5 -21   14.27    1.63
   5  -7 -21   14.73    1.69
   5   2 -21   19.97    1.59
   5   2 -21   24.58    1.38
   2  -7 -21   21.54    1.84
   2  -7 -21   20.76    1.62
  -1  -7 -21    1.18    0.77
   8  -1 -21    2.59    0.61
   8  -1 -21    1.65    0.68
  11  -4 -21    6.29    0.88
  -4  -7 -21    5.80    1.31
  11  -4 -21    5.57    1.15
  -2  10 -21    8.53    1.26
  -8  -2 -21    8.05    1.38
  10  -8 -21    9.44    1.44
  10  -8 -21    9.80    1.25
   1   7 -21    0.50    0.50
   7  -8 -21   -0.15    0.43
   7  -8 -21    0.57    0.60
   4  -8 -21   45.57    2.46
   4  -8 -21   44.89    2.58
   4   4 -21   43.55    2.40
   1  -8 -21    5.03    1.17
   7   1 -21    4.54    0.73
   7   1 -21    2.87    0.81
  10  -2 -21    5.03    1.04
  10  -2 -21    5.38    0.74
  -2  -8 -21    5.34    1.22
   9  -9 -21   39.95    2.28
   0   9 -21   36.83    2.31
   9  -9 -21   38.68    2.37
   6  -9 -21   -0.69    0.57
   6  -9 -21    0.36    0.47
   3   6 -21    0.65    0.51
   6   3 -21    0.68    0.42
   6   3 -21    1.43    0.65
   3  -9 -21    1.87    0.71
   0  -9 -21   40.51    2.66
   9   0 -21   40.11    2.38
   9   0 -21   40.06    1.74
   2   8 -21    7.36    1.23
   8 -10 -21    6.75    1.24
   8 -10 -21   10.73    1.46
   5 -10 -21    1.41    0.76
   5 -10 -21    0.35    0.68
   5   5 -21    0.51    0.57
   8   2 -21    3.70    0.90
   2 -10 -21    6.28    1.40
   8   2 -21    5.53    0.79
   7 -11 -21    9.02    1.41
   4   7 -21    9.23    1.41
   7 -11 -21    7.12    1.32
   7   4 -21    4.25    1.08
   4 -11 -21    4.44    1.13
   0   1 -22    0.02    0.38
  -1   0 -22    0.36    0.44
  -1   0 -22   -0.37    0.37
   1  -1 -22    0.52    0.50
   0   1 -22   -0.22    0.39
   1  -1 -22    0.65    0.47
   3  -2 -22    7.67    1.03
  -1   3 -22    6.34    1.04
   3  -2 -22    8.22    1.22
  -2  -1 -22    7.31    1.16
  -2  -1 -22    7.77    1.06
  -1   3 -22    8.25    1.17
  -2   2 -22    3.16    0.77
  -2   2 -22    3.56    0.77
   2   0 -22    1.80    0.55
   0  -2 -22    2.61    0.69
   0  -2 -22    3.94    0.89
   2   0 -22    1.53    0.58
   5  -3 -22    6.25    0.99
  -2   5 -22    6.97    1.09
   5  -3 -22    5.53    1.06
  -3  -2 -22    5.20    1.06
   2  -3 -22    6.80    0.99
   1   2 -22    6.55    1.02
   1   2 -22    5.33    0.90
  -3   1 -22    6.66    1.06
  -3   1 -22    4.71    0.94
   2  -3 -22    5.42    1.01
   4  -1 -22   -0.20    0.32
  -3   4 -22    0.08    0.37
  -1  -3 -22    0.66    0.55
   4  -1 -22    0.03    0.37
  -1  -3 -22    1.25    0.49
   7  -4 -22    5.51    0.90
  -4  -3 -22    4.38    0.92
   7  -4 -22    3.81    0.93
  -3   7 -22    4.96    0.97
   0   4 -22    0.53    0.43
   4  -4 -22    0.36    0.44
   4  -4 -22   -0.05    0.37
  -4   0 -22    0.97    0.57
   3   1 -22    0.28    0.35
   1  -4 -22    0.07    0.39
   1  -4 -22   -0.05    0.46
  -4   3 -22   -0.01    0.38
   3   1 -22    0.39    0.44
  -2  -4 -22    3.45    0.88
   6  -2 -22    3.57    0.87
   6  -2 -22    3.14    0.65
  -4   6 -22    1.93    0.65
   9  -5 -22    0.26    0.52
  -4   9 -22    0.40    0.55
   9  -5 -22    0.46    0.51
  -5  -4 -22    2.45    0.78
  -1   6 -22    0.49    0.51
   6  -5 -22    0.31    0.47
  -5  -1 -22   -0.04    0.47
   6  -5 -22   -0.67    0.42
  -5   2 -22    5.82    0.95
   3  -5 -22    5.13    0.97
   2   3 -22    4.22    0.85
   2   3 -22    7.02    1.01
   3  -5 -22    6.64    1.17
   0  -5 -22    0.00    0.54
  -5   5 -22    0.21    0.39
   5   0 -22    0.16    0.34
   5   0 -22    0.10    0.41
  -5   8 -22    0.59    0.51
   8  -3 -22    0.73    0.46
   8  -3 -22    0.54    0.52
  -3  -5 -22    0.18    0.49
  -5  11 -22    4.51    0.96
  11  -6 -22    4.00    1.03
  -6  -5 -22    4.09    1.12
  11  -6 -22    4.70    0.90
  -2   8 -22    5.93    1.05
   8  -6 -22    6.18    1.04
   8  -6 -22    7.64    1.30
  -6  -2 -22    8.00    1.28
   5  -6 -22   -0.06    0.39
  -6   1 -22    0.13    0.43
   1   5 -22   -0.20    0.43
   5  -6 -22   -0.15    0.53
   4   2 -22    2.80    0.63
   2  -6 -22    3.19    0.93
   4   2 -22    2.32    0.70
  -6   4 -22    2.70    0.70
   2  -6 -22    3.50    0.88
  -1  -6 -22    5.59    1.20
   7  -1 -22    4.78    1.00
   7  -1 -22    4.46    0.75
  10  -4 -22   -0.29    0.39
  10  -4 -22    0.62    0.60
  -4  -6 -22    0.92    0.74
  -7  -3 -22    2.37    0.87
  10  -7 -22    3.16    0.91
  -3  10 -22    2.06    0.72
  10  -7 -22    2.38    0.73
  -7   0 -22    1.03    0.58
   7  -7 -22    1.65    0.68
   0   7 -22    1.47    0.67
   7  -7 -22    0.63    0.51
   3   4 -22    6.08    1.11
   4  -7 -22    2.19    0.71
   4  -7 -22    4.51    1.15
   6   1 -22    5.05    1.04
   6   1 -22    4.95    0.77
   1  -7 -22    3.07    0.97
   9  -2 -22   -0.01    0.52
  -2  -7 -22   -0.09    0.60
   9  -2 -22    0.26    0.34
   9  -8 -22   -0.21    0.48
  -1   9 -22   -0.14    0.36
   9  -8 -22   -0.22    0.61
   6  -8 -22    4.65    1.06
   6  -8 -22    6.54    1.11
   2   6 -22    6.03    1.09
   5   3 -22    1.61    0.53
   5   3 -22    0.60    0.53
   3  -8 -22    0.62    0.56
   3  -8 -22    0.33    0.61
   0  -8 -22    3.25    1.00
   8   0 -22    1.86    0.76
   8   0 -22    1.58    0.50
   8  -9 -22    0.16    0.52
   8  -9 -22    0.44    0.62
   1   8 -22    0.59    0.50
   5  -9 -22    1.05    0.62
   4   5 -22    0.07    0.40
   5  -9 -22    1.43    0.75
   7   2 -22    0.32    0.50
   7   2 -22   -0.05    0.36
   2  -9 -22    0.58    0.57
  10  -1 -22    1.23    0.50
  -1  -9 -22    2.05    0.89
  10  -1 -22    1.24    0.72
   7 -10 -22    2.97    0.99
   7 -10 -22    2.15    0.87
   3   7 -22    3.40    1.00
   4 -10 -22    1.22    0.82
   6   4 -22    1.01    0.62
   9   1 -22    0.75    0.62
   1 -10 -22    0.60    0.71
   9   1 -22    1.28    0.47
   6 -11 -22    4.83    1.17
   5   6 -22    3.93    1.05
  -1   1 -23    6.96    1.05
   0  -1 -23    4.31    0.86
   1   0 -23    4.07    0.79
  -1   1 -23    4.15    0.89
   0  -1 -23    5.11    1.00
   1   0 -23    5.34    1.08
   2  -2 -23    6.67    1.13
  -2   0 -23    5.50    0.89
   0   2 -23    7.53    1.03
   0   2 -23    4.63    0.95
   2  -2 -23    5.84    0.95
  -2   0 -23    6.37    1.04
  -1  -2 -23    2.64    0.79
  -2   3 -23    3.34    0.76
   3  -1 -23    2.44    0.64
  -2   3 -23    3.97    0.81
  -1  -2 -23    2.74    0.76
   3  -1 -23    4.33    0.90
  -1   4 -23    6.05    1.03
   4  -3 -23    6.62    1.01
   4  -3 -23    6.03    1.19
  -3  -1 -23    3.67    0.91
   1  -3 -23    2.38    0.69
  -3   2 -23    3.41    0.81
   2   1 -23    1.91    0.59
   2   1 -23    2.22    0.72
  -3   2 -23    3.87    0.83
   1  -3 -23    3.81    0.93
  -3   5 -23    3.63    0.75
   5  -2 -23    5.16    0.85
  -2  -3 -23    3.32    0.94
   5  -2 -23    3.24    0.87
  -2   6 -23    2.80    0.79
  -4  -2 -23    4.84    1.01
   6  -4 -23    3.47    0.78
   6  -4 -23    1.95    0.71
   3  -4 -23    4.86    0.93
  -4   1 -23    5.00    1.02
   1   3 -23    4.00    0.81
   3  -4 -23    6.37    1.15
   1   3 -23    5.61    0.98
   0  -4 -23   52.70    2.74
   0  -4 -23   52.28    2.51
  -4   4 -23   47.01    2.32
   4   0 -23   47.53    2.18
   4   0 -23   44.54    2.45
  -3  -4 -23    0.06    0.50
   7  -3 -23    0.66    0.56
   7  -3 -23    0.69    0.45
  -4   7 -23    0.91    0.50
   8  -5 -23    0.49    0.54
  -3   8 -23    1.17    0.59
  -5  -3 -23    2.90    0.78
   8  -5 -23    0.82    0.58
  -5   0 -23   46.38    2.42
   0   5 -23   49.95    2.52
   5  -5 -23   44.39    2.54
   5  -5 -23   49.92    2.40
   2  -5 -23    3.81    0.89
   3   2 -23    3.98    0.75
   3   2 -23    3.80    0.87
  -5   3 -23    3.62    0.78
   2  -5 -23    3.75    0.97
   6  -1 -23    0.30    0.44
  -1  -5 -23    0.50    0.53
   6  -1 -23    0.03    0.40
  -5   6 -23    0.68    0.54
   9  -4 -23   25.40    1.93
  -4  -5 -23   17.98    2.04
  -5   9 -23   22.79    1.65
   9  -4 -23   21.16    1.51
  10  -6 -23    0.46    0.50
  -4  10 -23    0.18    0.51
  -6  -4 -23    0.65    0.68
  10  -6 -23    1.40    0.66
  -6  -1 -23    8.04    1.27
   7  -6 -23    8.12    1.41
  -1   7 -23   11.39    1.50
   7  -6 -23    8.48    1.23
   4  -6 -23    3.22    0.76
   4  -6 -23    5.06    1.09
   2   4 -23    3.16    0.78
  -6   2 -23    3.37    0.80
   5   1 -23    0.14    0.38
  -6   5 -23    1.13    0.50
   1  -6 -23    0.43    0.57
   5   1 -23    0.56    0.44
  -2  -6 -23    1.08    0.66
   8  -2 -23    0.92    0.46
   8  -2 -23    1.20    0.63
  -7  -2 -23   -0.05    0.55
   9  -7 -23    0.40    0.55
   9  -7 -23    0.09    0.58
  -2   9 -23    0.45    0.51
   1   6 -23    6.21    1.13
  -7   1 -23    9.71    1.28
   6  -7 -23    7.03    1.29
   6  -7 -23    9.01    1.23
   4   3 -23    0.25    0.41
   4   3 -23    0.62    0.56
   3  -7 -23    0.21    0.60
   3  -7 -23    0.93    0.61
   0  -7 -23    2.72    0.97
   7   0 -23    2.58    0.81
   7   0 -23    1.89    0.55
  10  -3 -23   12.07    1.61
  10  -3 -23   11.76    1.22
  -3  -7 -23    8.67    1.60
   8  -8 -23   20.23    2.18
   8  -8 -23   20.46    1.72
   0   8 -23   17.26    1.95
   3   5 -23    1.60    0.63
   5  -8 -23    1.55    0.70
   5  -8 -23    1.01    0.71
   2  -8 -23    1.38    0.80
   6   2 -23    1.31    0.67
   6   2 -23    1.25    0.48
   9  -1 -23   14.69    1.15
   9  -1 -23   15.08    1.80
  -1  -8 -23   12.26    1.78
   7  -9 -23    0.12    0.57
   7  -9 -23    0.13    0.58
   2   7 -23   -0.33    0.46
   4  -9 -23   20.87    2.25
   5   4 -23   22.95    1.84
   8   1 -23   16.59    1.21
   8   1 -23   13.48    1.75
   1  -9 -23   14.89    1.93
   4   6 -23    0.79    0.66
   6 -10 -23    1.01    0.73
   6 -10 -23   -0.77    0.57
   7   3 -23    8.07    1.29
   3 -10 -23   10.74    1.79
   0   0 -24    1.33    0.63
   0   0 -24    0.57    0.48
  -1   2 -24    0.69    0.53
  -1  -1 -24    0.84    0.55
  -1  -1 -24    0.33    0.48
   2  -1 -24    0.16    0.42
  -1   2 -24    0.65    0.50
   2  -1 -24    1.00    0.65
   1   1 -24    0.79    0.51
   1   1 -24    0.72    0.48
  -2   1 -24    0.11    0.47
   1  -2 -24    0.58    0.48
  -2   1 -24    0.19    0.47
   1  -2 -24    0.39    0.52
   4  -2 -24    1.36    0.61
   4  -2 -24    1.47    0.69
  -2  -2 -24    2.12    0.83
  -2   4 -24    1.99    0.69
   3  -3 -24    1.17    0.69
   0   3 -24    0.71    0.52
   0   3 -24    2.12    0.67
  -3   0 -24    2.55    0.76
   3  -3 -24    1.77    0.61
   3   0 -24    6.51    1.12
  -3   3 -24    7.24    1.07
   0  -3 -24    7.72    1.12
   0  -3 -24    6.73    1.21
   3   0 -24    9.90    1.27
  -3   6 -24    4.37    0.92
   6  -3 -24    4.44    1.01
  -3  -3 -24    3.93    1.00
   6  -3 -24    2.41    0.66
  -1   5 -24   -0.30    0.37
   5  -4 -24   -0.25    0.44
  -4  -1 -24   -0.01    0.53
   5  -4 -24   -0.13    0.36
   2  -4 -24    2.16    0.74
   2  -4 -24    1.68    0.64
   2   2 -24    1.79    0.72
   2   2 -24    2.21    0.74
  -4   2 -24    0.88    0.53
   5  -1 -24    0.06    0.35
  -1  -4 -24   -0.27    0.47
  -4   5 -24   -0.36    0.33
   5  -1 -24    0.56    0.45
   8  -4 -24    2.23    0.77
  -4  -4 -24    3.87    1.01
   8  -4 -24    4.84    0.88
  -4   8 -24    2.71    0.84
   7  -5 -24    0.58    0.50
  -2   7 -24    0.73    0.52
   7  -5 -24    0.23    0.54
  -5  -2 -24    0.93    0.69
   4  -5 -24    0.85    0.58
   1   4 -24    0.30    0.49
   4  -5 -24    0.08    0.45
  -5   1 -24   -0.29    0.46
   1  -5 -24    0.24    0.55
   1  -5 -24   -0.07    0.42
   4   1 -24   -0.10    0.38
  -5   4 -24    0.06    0.39
   4   1 -24    0.08    0.38
  -2  -5 -24    0.58    0.58
  -5   7 -24    0.22    0.58
   7  -2 -24    1.04    0.52
   7  -2 -24    0.42    0.49
   9  -6 -24    0.31    0.55
   9  -6 -24    1.11    0.64
  -3   9 -24    0.53    0.67
  -6  -3 -24    0.81    0.68
   6  -6 -24    7.16    1.15
   0   6 -24    8.87    1.35
   6  -6 -24    7.06    1.30
  -6   0 -24    5.94    1.09
   3  -6 -24    2.86    0.78
   3  -6 -24    2.81    0.97
   3   3 -24    2.21    0.64
  -6   3 -24    2.50    0.77
   3   3 -24    3.81    0.93
   0  -6 -24    5.71    1.24
   6   0 -24    2.48    0.76
   6   0 -24    3.36    0.72
   9  -3 -24    2.16    0.83
  -3  -6 -24    1.32    0.81
   9  -3 -24    2.07    0.63
  -7  -1 -24    0.85    0.61
   8  -7 -24    0.17    0.52
   8  -7 -24    0.08    0.56
  -1   8 -24    1.62    0.67
   5  -7 -24    0.13    0.49
   5  -7 -24    0.00    0.58
   2   5 -24    0.45    0.53
   5   2 -24    0.16    0.43
   5   2 -24    1.88    0.70
   2  -7 -24   -0.12    0.56
   8  -1 -24   -0.44    0.44
  -1  -7 -24   -0.18    0.64
   8  -1 -24   -0.30    0.35
   1   7 -24    0.19    0.48
   7  -8 -24   -0.70    0.44
   7  -8 -24    0.99    0.64
   4   4 -24    5.24    1.11
   4  -8 -24    3.60    0.97
   4  -8 -24    3.27    0.99
   7   1 -24    0.23    0.51
   7   1 -24   -0.51    0.32
   1  -8 -24   -0.79    0.52
   6  -9 -24    2.22    0.89
   6  -9 -24   -0.22    0.61
   3   6 -24    1.18    0.61
   6   3 -24    2.73    0.91
   3  -9 -24    3.32    1.08
   6   3 -24    3.56    0.78
  -1   0 -25    3.61    0.96
  -1   0 -25    3.88    0.89
   0   1 -25    2.73    0.77
   1  -1 -25    3.22    0.80
   0   1 -25    2.23    0.73
   1  -1 -25    3.20    0.85
  -2  -1 -25    0.53    0.51
   3  -2 -25    0.06    0.42
  -1   3 -25    0.09    0.45
   3  -2 -25   -0.07    0.45
  -1   3 -25    0.25    0.45
   0  -2 -25    1.06    0.54
   2   0 -25    0.85    0.59
  -2   2 -25    2.26    0.72
  -2   2 -25    1.42    0.64
   0  -2 -25   -0.07    0.44
   2   0 -25    0.74    0.61
   5  -3 -25    3.98    0.88
  -2   5 -25    4.66    0.97
   5  -3 -25    3.56    0.94
  -3  -2 -25    3.16    0.87
  -3   1 -25    0.57    0.51
   1   2 -25    0.04    0.46
   2  -3 -25    0.16    0.41
   1   2 -25    0.42    0.43
   2  -3 -25    0.43    0.56
  -1  -3 -25    0.47    0.59
  -3   4 -25    1.26    0.55
   4  -1 -25    1.10    0.51
   4  -1 -25    1.01    0.59
  -4  -3 -25   -0.38    0.46
  -3   7 -25    0.04    0.45
   7  -4 -25    0.52    0.50
   7  -4 -25    0.73    0.51
   4  -4 -25    7.96    1.40
   0   4 -25    4.81    0.98
   4  -4 -25    7.43    1.20
  -4   0 -25    6.91    1.13
   3   1 -25    0.95    0.52
   1  -4 -25    0.61    0.55
  -4   3 -25    0.40    0.46
   3   1 -25    1.47    0.65
   1  -4 -25   -0.55    0.44
   6  -2 -25    0.64    0.50
   6  -2 -25    0.88    0.59
  -2  -4 -25    0.19    0.58
  -4   6 -25    0.10    0.48
   6  -5 -25    0.31    0.52
  -5  -1 -25   -0.14    0.55
  -1   6 -25    0.38    0.53
   6  -5 -25    0.34    0.57
  -5   2 -25    2.98    0.85
   3  -5 -25    2.02    0.76
   2   3 -25    5.31    1.03
   2   3 -25    3.45    0.91
   3  -5 -25    3.49    0.87
   5   0 -25    3.38    0.77
   0  -5 -25    2.98    0.90
  -5   5 -25    4.04    0.83
   5   0 -25    3.64    0.94
   8  -3 -25    2.14    0.79
   8  -3 -25    1.65    0.64
  -5   8 -25    1.95    0.69
  -3  -5 -25    1.82    0.77
   8  -6 -25   -0.32    0.48
  -6  -2 -25    0.11    0.67
  -2   8 -25    0.96    0.63
   8  -6 -25    0.05    0.60
   1   5 -25   -0.13    0.51
   5  -6 -25    0.56    0.61
   5  -6 -25    0.77    0.57
  -6   1 -25    0.06    0.55
   2  -6 -25    1.05    0.72
   4   2 -25    0.48    0.49
   2  -6 -25    0.22    0.56
  -6   4 -25    0.24    0.56
   4   2 -25    0.41    0.53
   7  -1 -25   -0.09    0.47
  -1  -6 -25    0.36    0.66
   7  -1 -25    0.59    0.43
   7  -7 -25    0.12    0.53
   0   7 -25    0.52    0.55
   7  -7 -25   -0.55    0.58
   3   4 -25   -0.10    0.47
   4  -7 -25    0.36    0.60
   4  -7 -25    0.17    0.54
   6   1 -25    0.23    0.40
   1  -7 -25   -0.06    0.59
   6   1 -25    0.02    0.55
   2   6 -25    1.50    0.69
   6  -8 -25    0.46    0.63
   6  -8 -25    1.58    0.80
   3  -8 -25    1.62    0.86
   5   3 -25    2.63    0.70
   5   3 -25    3.23    0.93
  -1   1 -26    2.76    0.81
   1   0 -26    3.00    0.89
   0  -1 -26    1.48    0.67
  -1   1 -26    4.30    0.96
   0  -1 -26    2.93    0.80
   1   0 -26    2.96    0.87
   2  -2 -26    3.21    0.84
   2  -2 -26    3.08    0.85
  -2   0 -26    4.35    1.11
   0   2 -26    3.26    0.81
   0   2 -26    1.95    0.73
  -2   0 -26    1.48    0.70
   3  -1 -26    7.70    1.14
  -1  -2 -26    7.37    1.22
  -2   3 -26    6.18    1.10
   3  -1 -26    6.96    1.19
   4  -3 -26    1.52    0.75
  -1   4 -26    1.48    0.65
  -3  -1 -26    1.40    0.64
   4  -3 -26    1.48    0.66
  -3   2 -26    6.65    1.15
   2   1 -26    7.64    1.24
   1  -3 -26    8.93    1.35
   1  -3 -26    7.02    1.24
   2   1 -26    8.54    1.23
  -3   5 -26    2.17    0.74
  -2  -3 -26    3.09    0.96
   5  -2 -26    2.93    0.89
   5  -2 -26    4.15    0.85
  -2   6 -26    5.21    1.06
   6  -4 -26    7.96    1.41
  -4  -2 -26    7.02    1.27
   6  -4 -26    8.72    1.22
   1   3 -26    2.61    0.80
   3  -4 -26    1.24    0.69
  -4   1 -26    0.54    0.56
   1   3 -26    2.06    0.74
   3  -4 -26    1.91    0.68
  -4   4 -26   35.59    2.15
   4   0 -26   38.91    2.37
   4   0 -26   40.16    2.10
   0  -4 -26   34.75    2.41
  -4   7 -26    1.50    0.70
   7  -3 -26   -0.12    0.52
   7  -3 -26    0.37    0.54
  -3  -4 -26    0.26    0.67
   5  -5 -26   11.86    1.76
   5  -5 -26   13.44    1.65
  -5   0 -26   11.57    1.51
   0   5 -26   11.17    1.52
  -5   3 -26    4.10    0.97
   3   2 -26    2.00    0.66
   3   2 -26    0.67    0.49
   2  -5 -26    2.72    0.85
   2  -5 -26    2.21    0.92
   6  -1 -26   -0.03    0.47
   6  -1 -26   -0.52    0.38
  -1  -5 -26    1.12    0.70
  -5   6 -26   -0.53    0.45
  -1   7 -26    4.99    1.07
   7  -6 -26    7.03    1.39
  -6  -1 -26    7.80    1.37
   7  -6 -26    4.75    1.03
   4  -6 -26    6.30    1.13
  -6   2 -26    3.30    0.85
   2   4 -26    8.22    1.33
   4  -6 -26    6.15    1.26
   1  -6 -26   -0.41    0.60
   5   1 -26    1.17    0.61
   5   1 -26   -0.36    0.39
   6  -7 -26    7.23    1.39
   6  -7 -26    6.47    1.27
   1   6 -26    6.47    1.20
   3  -7 -26    0.64    0.63
   4   3 -26    1.14    0.73
   4   3 -26    0.91    0.53
   3  -7 -26    0.51    0.67
   0   0 -27   14.40    1.83
   0   0 -27   17.59    1.53
  -1   2 -27    0.71    0.51
  -1  -1 -27    0.96    0.59
  -1  -1 -27    0.49    0.51
   2  -1 -27   -0.33    0.49
  -1   2 -27   -0.08    0.51
   2  -1 -27    0.38    0.56
  -2   1 -27    0.12    0.54
   1   1 -27   -0.44    0.46
  -2   1 -27    1.28    0.65
   1  -2 -27    0.49    0.56
   1   1 -27   -0.36    0.39
   1  -2 -27    0.79    0.58
   4  -2 -27    2.41    0.69
  -2   4 -27    2.42    0.76
  -2  -2 -27    1.10    0.68
   4  -2 -27    0.58    0.56
   0   3 -27    1.61    0.69
  -3   0 -27    1.28    0.68
   3  -3 -27    0.84    0.59
   0   3 -27    0.19    0.45
   3  -3 -27    0.39    0.52
   0  -3 -27   10.74    1.56
   3   0 -27   13.22    1.51
   3   0 -27   10.46    1.50
  -3   3 -27    9.37    1.43
  -3  -3 -27   -0.07    0.51
  -3   6 -27    0.49    0.58
   6  -3 -27    0.14    0.51
   6  -3 -27    0.42    0.55
  -4  -1 -27    1.47    0.65
   5  -4 -27    0.97    0.74
   5  -4 -27    1.75    0.72
  -1   5 -27    1.58    0.64
   2   2 -27    2.09    0.77
   2  -4 -27    2.61    0.81
   2  -4 -27    3.08    0.93
   2   2 -27    3.97    0.97
  -4   2 -27    1.73    0.75
   5  -1 -27    3.14    0.81
  -4   5 -27    3.86    0.89
  -1  -4 -27    1.20    0.76
   5  -1 -27    3.56    1.01
   4  -5 -27    0.37    0.71
  -5   1 -27    1.13    0.72
   1   4 -27    1.39    0.71
   4  -5 -27    1.37    0.76
   4   1 -27    3.77    0.89
  -5   4 -27    4.05    0.95
   4   1 -27    3.17    0.93
   1  -5 -27    2.05    0.90
   3   3 -27    0.75    0.53
  -6   3 -27   -0.41    0.47
   3  -6 -27    0.43    0.67
   3   3 -27    0.01    0.44
   3  -6 -27   -0.16    0.57
  -1   0 -28   14.11    1.81
   1  -1 -28   12.74    1.75
   1  -1 -28   15.98    1.70
  -1   0 -28   18.60    1.85
   0   1 -28   18.65    1.93
   0   1 -28   14.60    1.73
  -2  -1 -28    3.16    1.02
   3  -2 -28    2.05    0.74
  -1   3 -28    4.07    1.05
   3  -2 -28    2.18    0.89
   2   0 -28    2.53    0.81
   0  -2 -28    1.34    0.73
   2   0 -28    2.66    0.87
  -2   2 -28    1.34    0.68
   0  -2 -28    2.73    0.84
  -2   2 -28    2.94    0.94
   2  -3 -28    2.28    0.81
   2  -3 -28    2.66    0.84
   1   2 -28    3.82    1.07
  -3   1 -28    4.49    1.08
   1   2 -28    5.77    1.18
   4  -1 -28   11.28    1.59
  -1  -3 -28   11.30    1.65
  -3   4 -28   11.11    1.55
   4  -1 -28   10.16    1.34
   4  -4 -28   72.90    3.60
   0   4 -28   73.14    3.45
  -4   0 -28   72.90    3.41
   4  -4 -28   72.83    3.29
   3   1 -28   11.35    1.62
  -4   3 -28    8.62    1.37
   1  -4 -28    9.15    1.54
   3   1 -28   12.14    1.50
   1   0 -29    4.17    0.98
   1   0 -29    3.35    0.97
   0  -1 -29    5.23    1.12
   0  -1 -29    3.04    0.92
  -1   1 -29    2.62    0.85
  -1   1 -29    4.07    0.96
   0   0   0    0.00    0.00
;
_shelx_hkl_checksum              90803
loop_
_space_group_symop_operation_xyz
'x, y, z'
'-y, x-y, z'
'-x+y, -x, z'
'y, x, -z'
'x-y, -y, -z'
'-x, -x+y, -z'
'x+2/3, y+1/3, z+1/3'
'-y+2/3, x-y+1/3, z+1/3'
'-x+y+2/3, -x+1/3, z+1/3'
'y+2/3, x+1/3, -z+1/3'
'x-y+2/3, -y+1/3, -z+1/3'
'-x+2/3, -x+y+1/3, -z+1/3'
'x+1/3, y+2/3, z+2/3'
'-y+1/3, x-y+2/3, z+2/3'
'-x+y+1/3, -x+2/3, z+2/3'
'y+1/3, x+2/3, -z+2/3'
'x-y+1/3, -y+2/3, -z+2/3'
'-x+1/3, -x+y+2/3, -z+2/3'
'-x, -y, -z'
'y, -x+y, -z'
'x-y, x, -z'
'-y, -x, z'
'-x+y, y, z'
'x, x-y, z'
'-x+2/3, -y+1/3, -z+1/3'
'y+2/3, -x+y+1/3, -z+1/3'
'x-y+2/3, x+1/3, -z+1/3'
'-y+2/3, -x+1/3, z+1/3'
'-x+y+2/3, y+1/3, z+1/3'
'x+2/3, x-y+1/3, z+1/3'
'-x+1/3, -y+2/3, -z+2/3'
'y+1/3, -x+y+2/3, -z+2/3'
'x-y+1/3, x+2/3, -z+2/3'
'-y+1/3, -x+2/3, z+2/3'
'-x+y+1/3, y+2/3, z+2/3'
'x+1/3, x-y+2/3, z+2/3'
loop_
_atom_site_label
_atom_site_type_symbol
_atom_site_fract_x
_atom_site_fract_y
_atom_site_fract_z
_atom_site_U_iso_or_equiv
_atom_site_adp_type
_atom_site_occupancy
_atom_site_site_symmetry_order
_atom_site_calc_flag
_atom_site_refinement_flags_posn
_atom_site_refinement_flags_adp
_atom_site_refinement_flags_occupancy
_atom_site_disorder_assembly
_atom_site_disorder_group
T1 Si 0.00012(9) 0.23115(9) 0.07055(5) 0.0182(4) Uani 1 1 d . . . . .
T2 Si 0.23917(10) 0.0000 0.5000 0.0158(4) Uani 1 2 d S T P . .
O1 O 0.0348(3) 0.3504(3) 0.10739(15) 0.0350(8) Uani 1 1 d . . . . .
O2 O 0.0908(2) 0.1816(4) 0.0853(2) 0.0310(10) Uani 1 2 d S T P . .
O3 O 0.1284(2) 0.2568(5) -0.0928(2) 0.0351(11) Uani 1 2 d S T P . .
O4 O 0.2601(4) 0.0000 0.0000 0.0327(11) Uani 1 2 d S T P . .
O5 O 0.2229(2) 0.4458(4) 0.1789(2) 0.0341(11) Uani 1 2 d S T P . .
Ag1 Ag 0.0000 0.0000 0.14190(17) 0.0323(17) Uiso 0.388(15) 6 d S . . . .
Ag1A Ag 0.0000 0.0000 0.122(3) 0.139(16) Uiso 0.109(17) 6 d S . . . .
Ag2 Ag 0.3333 0.6667 0.1571(5) 0.017(3) Uiso 0.086(4) 6 d S . . . .
Ag2A Ag 0.3333 0.6667 0.1255(9) 0.042(6) Uiso 0.068(6) 6 d S . . . .
Ag2B Ag 0.3333 0.6667 0.2678(12) 0.121(11) Uiso 0.108(8) 6 d S . . . .
Ag4 Ag -0.0057(17) 0.4972(8) 0.0537(6) 0.064(6) Uiso 0.066(5) 2 d S . . . .
Ag4A Ag -0.0700(11) 0.4650(6) 0.0746(5) 0.062(5) Uiso 0.077(4) 2 d S . . . .
Ag4B Ag 0.0656(18) 0.5328(9) 0.0457(7) 0.097(7) Uiso 0.087(6) 2 d S . . . .
Ag4D Ag 0.000(5) 0.558(4) 0.0200(18) 0.12(2) Uiso 0.026(3) 1 d . . . . .
Ag4E Ag -0.101(6) 0.449(3) 0.028(3) 0.140 Uiso 0.033(4) 2 d S U . . .
W1 O 0.2577(4) 0.5154(7) -0.1189(4) 0.091(3) Uani 1 2 d S T P . .
W1A O 0.215(4) 0.430(8) -0.139(4) 0.140 Uiso 0.17(3) 2 d S U . . .
W3 O 0.147(3) 0.522(3) 0.0044(17) 0.140 Uiso 0.279(16) 1 d . U . . .
loop_
_atom_site_aniso_label
_atom_site_aniso_U_11
_atom_site_aniso_U_22
_atom_site_aniso_U_33
_atom_site_aniso_U_23
_atom_site_aniso_U_13
_atom_site_aniso_U_12
T1 0.0167(6) 0.0170(6) 0.0183(6) -0.0028(4) -0.0005(4) 0.0065(4)
T2 0.0133(6) 0.0129(7) 0.0210(8) 0.0018(5) 0.0009(2) 0.0065(4)
O1 0.042(2) 0.0249(16) 0.0333(16) -0.0092(13) -0.0057(14) 0.0135(15)
O2 0.0261(16) 0.037(3) 0.034(2) -0.001(2) -0.0006(10) 0.0183(13)
O3 0.0260(16) 0.053(3) 0.035(2) 0.012(2) 0.0058(11) 0.0263(16)
O4 0.039(2) 0.037(3) 0.021(2) 0.0011(18) 0.0006(9) 0.0183(13)
O5 0.0223(15) 0.041(3) 0.045(3) -0.002(2) -0.0008(11) 0.0206(14)
W1 0.139(7) 0.046(4) 0.059(4) 0.008(3) 0.0040(17) 0.023(2)
loop_
_atom_type_symbol
_atom_type_description
_atom_type_scat_dispersion_real
_atom_type_scat_dispersion_imag
_atom_type_scat_source
O O 0.0106 0.0060 'International Tables Vol C Tables 4.2.6.8 and 6.1.1.4'
Si Si 0.0817 0.0704 'International Tables Vol C Tables 4.2.6.8 and 6.1.1.4'
Ag Ag -0.8971 1.1015 'International Tables Vol C Tables 4.2.6.8 and 6.1.1.4'
loop_
_geom_angle_atom_site_label_1
_geom_angle_atom_site_label_2
_geom_angle_atom_site_label_3
_geom_angle
_geom_angle_site_symmetry_1
_geom_angle_site_symmetry_3
_geom_angle_publ_flag
O4 T1 O1 107.3(2) 2 . ?
O4 T1 O3 111.61(18) 2 21 ?
O1 T1 O3 108.8(2) . 21 ?
O4 T1 O2 111.8(2) 2 . ?
O1 T1 O2 111.8(2) . . ?
O3 T1 O2 105.5(2) 21 . ?
O4 T1 Ag4D 54.3(9) 2 24_565 ?
O1 T1 Ag4D 54.8(9) . 24_565 ?
O3 T1 Ag4D 113.7(11) 21 24_565 ?
O2 T1 Ag4D 140.7(11) . 24_565 ?
O1 T2 O1 112.2(3) 8 18_545 ?
O1 T2 O5 107.1(2) 8 33_545 ?
O1 T2 O5 112.1(2) 18_545 33_545 ?
O1 T2 O5 112.1(2) 8 8 ?
O1 T2 O5 107.1(2) 18_545 8 ?
O5 T2 O5 106.2(4) 33_545 8 ?
T2 O1 T1 147.0(2) 15_554 . ?
T2 O1 Ag4D 119.5(11) 15_554 24_565 ?
T1 O1 Ag4D 92.5(11) . 24_565 ?
T2 O1 Ag4 97.3(3) 15_554 . ?
T1 O1 Ag4 115.6(3) . . ?
Ag4D O1 Ag4 24.6(10) 24_565 . ?
T1 O2 T1 133.5(3) . 23 ?
T1 O2 Ag1A 113.0(2) . . ?
T1 O2 Ag1A 113.0(2) 23 . ?
T1 O2 Ag1 113.25(16) . . ?
T1 O2 Ag1 113.26(16) 23 . ?
Ag1A O2 Ag1 10.0(17) . . ?
T1 O3 T1 138.5(3) 6 20 ?
T1 O4 T1 152.7(4) 4 3 ?
T1 O4 Ag4D 114.2(10) 4 22_655 ?
T1 O4 Ag4D 93.1(9) 3 22_655 ?
T1 O4 Ag4D 93.1(9) 4 21_655 ?
T1 O4 Ag4D 114.2(10) 3 21_655 ?
Ag4D O4 Ag4D 21.1(19) 22_655 21_655 ?
T2 O5 T2 155.4(3) 15_554 32 ?
T2 O5 Ag4B 97.91(19) 15_554 27 ?
T2 O5 Ag4B 97.91(19) 32 27 ?
T2 O5 Ag2 97.20(19) 15_554 25_565 ?
T2 O5 Ag2 97.21(19) 32 25_565 ?
Ag4B O5 Ag2 103.8(6) 27 25_565 ?
W1 Ag1 W1 78.4(3) 8 7_445 ?
W1 Ag1 W1 78.3(3) 8 9_455 ?
W1 Ag1 W1 78.3(3) 7_445 9_455 ?
W1 Ag1 O2 92.55(17) 8 3 ?
W1 Ag1 O2 92.55(17) 7_445 3 ?
W1 Ag1 O2 168.2(3) 9_455 3 ?
W1 Ag1 O2 168.2(3) 8 2 ?
W1 Ag1 O2 92.55(17) 7_445 2 ?
W1 Ag1 O2 92.55(17) 9_455 2 ?
O2 Ag1 O2 95.39(18) 3 2 ?
W1 Ag1 O2 92.55(17) 8 . ?
W1 Ag1 O2 168.2(3) 7_445 . ?
W1 Ag1 O2 92.55(17) 9_455 . ?
O2 Ag1 O2 95.39(18) 3 . ?
O2 Ag1 O2 95.39(18) 2 . ?
O2 Ag1A O2 107.5(19) 3 2 ?
O2 Ag1A O2 107.5(19) 3 . ?
O2 Ag1A O2 107.5(19) 2 . ?
Ag2 Ag2 Ag2A 179.984(2) 25_565 . ?
Ag2 Ag2 Ag2A 0.010(1) 25_565 25_565 ?
Ag2A Ag2 Ag2A 180.0 . 25_565 ?
Ag2 Ag2 Ag2B 179.980(3) 25_565 25_565 ?
Ag2A Ag2 Ag2B 0.003(2) . 25_565 ?
Ag2A Ag2 Ag2B 180.0 25_565 25_565 ?
Ag2 Ag2 Ag2B 0.016(2) 25_565 . ?
Ag2A Ag2 Ag2B 180.0 . . ?
Ag2A Ag2 Ag2B 0.006(1) 25_565 . ?
Ag2B Ag2 Ag2B 180.0 25_565 . ?
Ag2 Ag2 O5 91.4(3) 25_565 27 ?
Ag2A Ag2 O5 88.6(3) . 27 ?
Ag2A Ag2 O5 91.4(3) 25_565 27 ?
Ag2B Ag2 O5 88.6(3) 25_565 27 ?
Ag2B Ag2 O5 91.4(3) . 27 ?
Ag2 Ag2 O5 91.4(3) 25_565 26_455 ?
Ag2A Ag2 O5 88.6(3) . 26_455 ?
Ag2A Ag2 O5 91.4(3) 25_565 26_455 ?
Ag2B Ag2 O5 88.6(3) 25_565 26_455 ?
Ag2B Ag2 O5 91.4(3) . 26_455 ?
O5 Ag2 O5 119.94(2) 27 26_455 ?
Ag2 Ag2 O5 91.4(3) 25_565 25_565 ?
Ag2A Ag2 O5 88.6(3) . 25_565 ?
Ag2A Ag2 O5 91.4(3) 25_565 25_565 ?
Ag2B Ag2 O5 88.6(3) 25_565 25_565 ?
Ag2B Ag2 O5 91.4(3) . 25_565 ?
O5 Ag2 O5 119.94(2) 27 25_565 ?
O5 Ag2 O5 119.94(2) 26_455 25_565 ?
Ag2 Ag2A Ag2 0.006(1) . 25_565 ?
Ag2 Ag2A Ag2B 180.0 . 25_565 ?
Ag2 Ag2A Ag2B 179.989(1) 25_565 25_565 ?
Ag2 Ag2A Ag2A 0.004(2) . 25_565 ?
Ag2 Ag2A Ag2A 0.0 25_565 25_565 ?
Ag2B Ag2A Ag2A 180.0 25_565 25_565 ?
Ag2 Ag2A Ag2B 0.000(4) . . ?
Ag2 Ag2A Ag2B 0.006(1) 25_565 . ?
Ag2B Ag2A Ag2B 180.0 25_565 . ?
Ag2A Ag2A Ag2B 0.004(1) 25_565 . ?
Ag2A Ag2B Ag2 0.0 25_565 25_565 ?
Ag2A Ag2B Ag2 0.005(1) 25_565 . ?
Ag2 Ag2B Ag2 0.0 25_565 . ?
Ag2A Ag2B Ag4B 98.2(6) 25_565 25_565 ?
Ag2 Ag2B Ag4B 98.2(6) 25_565 25_565 ?
Ag2 Ag2B Ag4B 98.2(6) . 25_565 ?
Ag2A Ag2B Ag4B 98.2(6) 25_565 27 ?
Ag2 Ag2B Ag4B 98.2(6) 25_565 27 ?
Ag2 Ag2B Ag4B 98.2(6) . 27 ?
Ag4B Ag2B Ag4B 118.0(3) 25_565 27 ?
Ag2A Ag2B Ag4B 98.2(6) 25_565 26_455 ?
Ag2 Ag2B Ag4B 98.2(6) 25_565 26_455 ?
Ag2 Ag2B Ag4B 98.2(6) . 26_455 ?
Ag4B Ag2B Ag4B 118.0(3) 25_565 26_455 ?
Ag4B Ag2B Ag4B 118.0(3) 27 26_455 ?
Ag2A Ag2B Ag2A 0.005(1) 25_565 . ?
Ag2 Ag2B Ag2A 0.003(1) 25_565 . ?
Ag2 Ag2B Ag2A 0.0 . . ?
Ag4B Ag2B Ag2A 98.2(6) 25_565 . ?
Ag4B Ag2B Ag2A 98.2(6) 27 . ?
Ag4B Ag2B Ag2A 98.2(6) 26_455 . ?
Ag4B Ag4 Ag4A 160(2) . . ?
Ag4B Ag4 Ag4D 78(3) . 24_565 ?
Ag4A Ag4 Ag4D 115(3) . 24_565 ?
Ag4B Ag4 Ag4D 78(3) . . ?
Ag4A Ag4 Ag4D 115(3) . . ?
Ag4D Ag4 Ag4D 90(4) 24_565 . ?
Ag4B Ag4 Ag4E 140(3) . . ?
Ag4A Ag4 Ag4E 60(3) . . ?
Ag4D Ag4 Ag4E 74(3) 24_565 . ?
Ag4D Ag4 Ag4E 74(3) . . ?
Ag4B Ag4 Ag4D 77(2) . 19_565 ?
Ag4A Ag4 Ag4D 121(2) . 19_565 ?
Ag4D Ag4 Ag4D 21(2) 24_565 19_565 ?
Ag4D Ag4 Ag4D 70(3) . 19_565 ?
Ag4E Ag4 Ag4D 67(3) . 19_565 ?
Ag4B Ag4 Ag4D 77(2) . 6 ?
Ag4A Ag4 Ag4D 121(2) . 6 ?
Ag4D Ag4 Ag4D 70(3) 24_565 6 ?
Ag4D Ag4 Ag4D 21(2) . 6 ?
Ag4E Ag4 Ag4D 67(3) . 6 ?
Ag4D Ag4 Ag4D 50(3) 19_565 6 ?
Ag4B Ag4 W3 26.8(13) . 24_565 ?
Ag4A Ag4 W3 161.6(9) . 24_565 ?
Ag4D Ag4 W3 80(3) 24_565 24_565 ?
Ag4D Ag4 W3 51(3) . 24_565 ?
Ag4E Ag4 W3 118(3) . 24_565 ?
Ag4D Ag4 W3 69(2) 19_565 24_565 ?
Ag4D Ag4 W3 52(2) 6 24_565 ?
Ag4B Ag4 W3 26.8(13) . . ?
Ag4A Ag4 W3 161.6(9) . . ?
Ag4D Ag4 W3 51(3) 24_565 . ?
Ag4D Ag4 W3 80(3) . . ?
Ag4E Ag4 W3 118(3) . . ?
Ag4D Ag4 W3 52(2) 19_565 . ?
Ag4D Ag4 W3 69(2) 6 . ?
W3 Ag4 W3 36.7(19) 24_565 . ?
Ag4B Ag4 W3 126.5(18) . 19_565 ?
Ag4A Ag4 W3 72.2(16) . 19_565 ?
Ag4D Ag4 W3 81(3) 24_565 19_565 ?
Ag4D Ag4 W3 53(3) . 19_565 ?
Ag4E Ag4 W3 21.4(18) . 19_565 ?
Ag4D Ag4 W3 68(2) 19_565 19_565 ?
Ag4D Ag4 W3 50(2) 6 19_565 ?
W3 Ag4 W3 101.1(15) 24_565 19_565 ?
W3 Ag4 W3 113.0(13) . 19_565 ?
Ag4B Ag4 W3 126.5(18) . 6 ?
Ag4A Ag4 W3 72.2(16) . 6 ?
Ag4D Ag4 W3 53(3) 24_565 6 ?
Ag4D Ag4 W3 81(3) . 6 ?
Ag4E Ag4 W3 21.4(18) . 6 ?
Ag4D Ag4 W3 50(2) 19_565 6 ?
Ag4D Ag4 W3 68(2) 6 6 ?
W3 Ag4 W3 113.0(13) 24_565 6 ?
W3 Ag4 W3 101.1(15) . 6 ?
W3 Ag4 W3 36.6(17) 19_565 6 ?
Ag4B Ag4 Ag4E 44(2) . 19_565 ?
Ag4A Ag4 Ag4E 156(3) . 19_565 ?
Ag4D Ag4 Ag4E 52(3) 24_565 19_565 ?
Ag4D Ag4 Ag4E 52(3) . 19_565 ?
Ag4E Ag4 Ag4E 96(3) . 19_565 ?
Ag4D Ag4 Ag4E 39(2) 19_565 19_565 ?
Ag4D Ag4 Ag4E 39(2) 6 19_565 ?
W3 Ag4 Ag4E 29.9(14) 24_565 19_565 ?
W3 Ag4 Ag4E 29.9(14) . 19_565 ?
W3 Ag4 Ag4E 85(2) 19_565 19_565 ?
W3 Ag4 Ag4E 85(2) 6 19_565 ?
Ag4 Ag4A Ag4E 76(4) . . ?
Ag4 Ag4A Ag4D 36.0(19) . 24_565 ?
Ag4E Ag4A Ag4D 57(3) . 24_565 ?
Ag4 Ag4A Ag4D 36.0(19) . . ?
Ag4E Ag4A Ag4D 57(3) . . ?
Ag4D Ag4A Ag4D 55(3) 24_565 . ?
Ag4 Ag4A Ag4B 9.8(12) . . ?
Ag4E Ag4A Ag4B 86(4) . . ?
Ag4D Ag4A Ag4B 42.7(19) 24_565 . ?
Ag4D Ag4A Ag4B 42.7(18) . . ?
Ag4 Ag4A W3 84.3(16) . 19_565 ?
Ag4E Ag4A W3 20.5(15) . 19_565 ?
Ag4D Ag4A W3 74.3(19) 24_565 19_565 ?
Ag4D Ag4A W3 55(2) . 19_565 ?
Ag4B Ag4A W3 93.6(13) . 19_565 ?
Ag4 Ag4A W3 84.3(16) . 6 ?
Ag4E Ag4A W3 20.5(15) . 6 ?
Ag4D Ag4A W3 55(2) 24_565 6 ?
Ag4D Ag4A W3 74.3(19) . 6 ?
Ag4B Ag4A W3 93.6(13) . 6 ?
W3 Ag4A W3 38.3(18) 19_565 6 ?
Ag4 Ag4A Ag4D 40.7(16) . 6 ?
Ag4E Ag4A Ag4D 43(3) . 6 ?
Ag4D Ag4A Ag4D 48(2) 24_565 6 ?
Ag4D Ag4A Ag4D 15(2) . 6 ?
Ag4B Ag4A Ag4D 49.4(15) . 6 ?
W3 Ag4A Ag4D 44.5(17) 19_565 6 ?
W3 Ag4A Ag4D 59.7(17) 6 6 ?
Ag4 Ag4A Ag4D 40.7(16) . 19_565 ?
Ag4E Ag4A Ag4D 43(3) . 19_565 ?
Ag4D Ag4A Ag4D 15(2) 24_565 19_565 ?
Ag4D Ag4A Ag4D 48(2) . 19_565 ?
Ag4B Ag4A Ag4D 49.4(15) . 19_565 ?
W3 Ag4A Ag4D 59.7(17) 19_565 19_565 ?
W3 Ag4A Ag4D 44.5(17) 6 19_565 ?
Ag4D Ag4A Ag4D 37(2) 6 19_565 ?
Ag4 Ag4A Ag4B 56.5(13) . 19_565 ?
Ag4E Ag4A Ag4B 20(3) . 19_565 ?
Ag4D Ag4A Ag4B 41.4(16) 24_565 19_565 ?
Ag4D Ag4A Ag4B 41.4(16) . 19_565 ?
Ag4B Ag4A Ag4B 66.3(9) . 19_565 ?
W3 Ag4A Ag4B 33.1(10) 19_565 19_565 ?
W3 Ag4A Ag4B 33.1(10) 6 19_565 ?
Ag4D Ag4A Ag4B 26.8(12) 6 19_565 ?
Ag4D Ag4A Ag4B 26.8(12) 19_565 19_565 ?
Ag4 Ag4A Ag4 40.8(14) . 19_565 ?
Ag4E Ag4A Ag4 36(3) . 19_565 ?
Ag4D Ag4A Ag4 31.8(14) 24_565 19_565 ?
Ag4D Ag4A Ag4 31.8(14) . 19_565 ?
Ag4B Ag4A Ag4 50.6(8) . 19_565 ?
W3 Ag4A Ag4 46.5(11) 19_565 19_565 ?
W3 Ag4A Ag4 46.5(11) 6 19_565 ?
Ag4D Ag4A Ag4 19.0(11) 6 19_565 ?
Ag4D Ag4A Ag4 19.0(11) 19_565 19_565 ?
Ag4B Ag4A Ag4 15.7(4) 19_565 19_565 ?
Ag4 Ag4A Ag4E 17.1(18) . 19_565 ?
Ag4E Ag4A Ag4E 59(4) . 19_565 ?
Ag4D Ag4A Ag4E 28.4(16) 24_565 19_565 ?
Ag4D Ag4A Ag4E 28.4(16) . 19_565 ?
Ag4B Ag4A Ag4E 27.0(15) . 19_565 ?
W3 Ag4A Ag4E 68.2(18) 19_565 19_565 ?
W3 Ag4A Ag4E 68.2(18) 6 19_565 ?
Ag4D Ag4A Ag4E 26.8(15) 6 19_565 ?
Ag4D Ag4A Ag4E 26.8(15) 19_565 19_565 ?
Ag4B Ag4A Ag4E 39.3(15) 19_565 19_565 ?
Ag4 Ag4A Ag4E 23.6(15) 19_565 19_565 ?
Ag4 Ag4B Ag4D 60(2) . 24_565 ?
Ag4 Ag4B Ag4D 60(2) . . ?
Ag4D Ag4B Ag4D 78(4) 24_565 . ?
Ag4 Ag4B W3 138(2) . 24_565 ?
Ag4D Ag4B W3 113(3) 24_565 24_565 ?
Ag4D Ag4B W3 79(3) . 24_565 ?
Ag4 Ag4B W3 138(2) . . ?
Ag4D Ag4B W3 79(3) 24_565 . ?
Ag4D Ag4B W3 112(3) . . ?
W3 Ag4B W3 55(3) 24_565 . ?
Ag4 Ag4B Ag4A 10.3(12) . . ?
Ag4D Ag4B Ag4A 67(2) 24_565 . ?
Ag4D Ag4B Ag4A 67(2) . . ?
W3 Ag4B Ag4A 145.1(16) 24_565 . ?
W3 Ag4B Ag4A 145.1(16) . . ?
Ag4 Ag4B Ag4E 116(3) . 19_565 ?
Ag4D Ag4B Ag4E 72(3) 24_565 19_565 ?
Ag4D Ag4B Ag4E 72(3) . 19_565 ?
W3 Ag4B Ag4E 40.8(18) 24_565 19_565 ?
W3 Ag4B Ag4E 40.8(18) . 19_565 ?
Ag4A Ag4B Ag4E 126(3) . 19_565 ?
Ag4 Ag4B Ag4D 77(2) . 19_565 ?
Ag4D Ag4B Ag4D 26(3) 24_565 19_565 ?
Ag4D Ag4B Ag4D 68(3) . 19_565 ?
W3 Ag4B Ag4D 87(2) 24_565 19_565 ?
W3 Ag4B Ag4D 64(2) . 19_565 ?
Ag4A Ag4B Ag4D 86(2) . 19_565 ?
Ag4E Ag4B Ag4D 47(2) 19_565 19_565 ?
Ag4 Ag4B Ag4D 77(2) . 6 ?
Ag4D Ag4B Ag4D 68(3) 24_565 6 ?
Ag4D Ag4B Ag4D 26(3) . 6 ?
W3 Ag4B Ag4D 64(2) 24_565 6 ?
W3 Ag4B Ag4D 87(2) . 6 ?
Ag4A Ag4B Ag4D 86(2) . 6 ?
Ag4E Ag4B Ag4D 47(2) 19_565 6 ?
Ag4D Ag4B Ag4D 50(3) 19_565 6 ?
Ag4 Ag4B Ag4E 24(2) . . ?
Ag4D Ag4B Ag4E 46(2) 24_565 . ?
Ag4D Ag4B Ag4E 46(2) . . ?
W3 Ag4B Ag4E 119(2) 24_565 . ?
W3 Ag4B Ag4E 119(2) . . ?
Ag4A Ag4B Ag4E 34(2) . . ?
Ag4E Ag4B Ag4E 92(3) 19_565 . ?
Ag4D Ag4B Ag4E 55(3) 19_565 . ?
Ag4D Ag4B Ag4E 55(3) 6 . ?
Ag4 Ag4B Ag4 85.2(17) . 19_565 ?
Ag4D Ag4B Ag4 50.6(19) 24_565 19_565 ?
Ag4D Ag4B Ag4 50.6(19) . 19_565 ?
W3 Ag4B Ag4 65.7(17) 24_565 19_565 ?
W3 Ag4B Ag4 65.7(17) . 19_565 ?
Ag4A Ag4B Ag4 95.5(12) . 19_565 ?
Ag4E Ag4B Ag4 31(2) 19_565 19_565 ?
Ag4D Ag4B Ag4 26.6(15) 19_565 19_565 ?
Ag4D Ag4B Ag4 26.6(15) 6 19_565 ?
Ag4E Ag4B Ag4 61(2) . 19_565 ?
Ag4 Ag4B O5 90.1(16) . 26_455 ?
Ag4D Ag4B O5 127(2) 24_565 26_455 ?
Ag4D Ag4B O5 127(2) . 26_455 ?
W3 Ag4B O5 118.3(18) 24_565 26_455 ?
W3 Ag4B O5 118.3(18) . 26_455 ?
Ag4A Ag4B O5 79.8(7) . 26_455 ?
Ag4E Ag4B O5 154(3) 19_565 26_455 ?
Ag4D Ag4B O5 151.5(16) 19_565 26_455 ?
Ag4D Ag4B O5 151.5(16) 6 26_455 ?
Ag4E Ag4B O5 114(2) . 26_455 ?
Ag4 Ag4B O5 175.3(13) 19_565 26_455 ?
Ag4D Ag4D Ag4 135(2) 6 . ?
Ag4D Ag4D Ag4B 118(6) 6 . ?
Ag4 Ag4D Ag4B 42(2) . . ?
Ag4D Ag4D Ag4E 97(7) 6 . ?
Ag4 Ag4D Ag4E 58(4) . . ?
Ag4B Ag4D Ag4E 96(4) . . ?
Ag4D Ag4D Ag4D 90.000(9) 6 24_565 ?
Ag4 Ag4D Ag4D 45(2) . 24_565 ?
Ag4B Ag4D Ag4D 51(2) . 24_565 ?
Ag4E Ag4D Ag4D 57(3) . 24_565 ?
Ag4D Ag4D Ag4A 138(6) 6 . ?
Ag4 Ag4D Ag4A 28.6(17) . . ?
Ag4B Ag4D Ag4A 70(2) . . ?
Ag4E Ag4D Ag4A 41(3) . . ?
Ag4D Ag4D Ag4A 62.5(14) 24_565 . ?
Ag4D Ag4D W3 78(7) 6 24_565 ?
Ag4 Ag4D W3 100(4) . 24_565 ?
Ag4B Ag4D W3 58(2) . 24_565 ?
Ag4E Ag4D W3 144(4) . 24_565 ?
Ag4D Ag4D W3 87.5(16) 24_565 24_565 ?
Ag4A Ag4D W3 127(3) . 24_565 ?
Ag4D Ag4D Ag4E 52(6) 6 19_565 ?
Ag4 Ag4D Ag4E 99(4) . 19_565 ?
Ag4B Ag4D Ag4E 67(3) . 19_565 ?
Ag4E Ag4D Ag4E 113(4) . 19_565 ?
Ag4D Ag4D Ag4E 64.3(19) 24_565 19_565 ?
Ag4A Ag4D Ag4E 125(3) . 19_565 ?
W3 Ag4D Ag4E 38(2) 24_565 19_565 ?
Ag4D Ag4D Ag4D 60(3) 6 19_565 ?
Ag4 Ag4D Ag4D 75(3) . 19_565 ?
Ag4B Ag4D Ag4D 73(3) . 19_565 ?
Ag4E Ag4D Ag4D 66(4) . 19_565 ?
Ag4D Ag4D Ag4D 30(3) 24_565 19_565 ?
Ag4A Ag4D Ag4D 89(3) . 19_565 ?
W3 Ag4D Ag4D 82(4) 24_565 19_565 ?
Ag4E Ag4D Ag4D 47(3) 19_565 19_565 ?
Ag4D Ag4D W3 72(7) 6 19_565 ?
Ag4 Ag4D W3 97(4) . 19_565 ?
Ag4B Ag4D W3 135(4) . 19_565 ?
Ag4E Ag4D W3 40(3) . 19_565 ?
Ag4D Ag4D W3 87.5(16) 24_565 19_565 ?
Ag4A Ag4D W3 75(3) . 19_565 ?
W3 Ag4D W3 150(3) 24_565 19_565 ?
Ag4E Ag4D W3 115(3) 19_565 19_565 ?
Ag4D Ag4D W3 79(4) 19_565 19_565 ?
Ag4D Ag4D Ag4 24.9(16) 6 19_565 ?
Ag4 Ag4D Ag4 110(3) . 19_565 ?
Ag4B Ag4D Ag4 98(3) . 19_565 ?
Ag4E Ag4D Ag4 85(4) . 19_565 ?
Ag4D Ag4D Ag4 65.2(15) 24_565 19_565 ?
Ag4A Ag4D Ag4 120(3) . 19_565 ?
W3 Ag4D Ag4 76(2) 24_565 19_565 ?
Ag4E Ag4D Ag4 40(3) 19_565 19_565 ?
Ag4D Ag4D Ag4 34.8(18) 19_565 19_565 ?
W3 Ag4D Ag4 75(2) 19_565 19_565 ?
Ag4D Ag4D Ag4B 36(4) 6 19_565 ?
Ag4 Ag4D Ag4B 104(3) . 19_565 ?
Ag4B Ag4D Ag4B 112(3) . 19_565 ?
Ag4E Ag4D Ag4B 62(4) . 19_565 ?
Ag4D Ag4D Ag4B 65.2(15) 24_565 19_565 ?
Ag4A Ag4D Ag4B 102(3) . 19_565 ?
W3 Ag4D Ag4B 103(3) 24_565 19_565 ?
Ag4E Ag4D Ag4B 66(3) 19_565 19_565 ?
Ag4D Ag4D Ag4B 40(2) 19_565 19_565 ?
W3 Ag4D Ag4B 48.7(18) 19_565 19_565 ?
Ag4 Ag4D Ag4B 26.5(8) 19_565 19_565 ?
Ag4A Ag4E W3 140(3) . 19_565 ?
Ag4A Ag4E W3 140(3) . 6 ?
W3 Ag4E W3 75(6) 19_565 6 ?
Ag4A Ag4E Ag4 44(3) . . ?
W3 Ag4E Ag4 135(4) 19_565 . ?
W3 Ag4E Ag4 135(4) 6 . ?
Ag4A Ag4E Ag4D 82(5) . 24_565 ?
W3 Ag4E Ag4D 129(6) 19_565 24_565 ?
W3 Ag4E Ag4D 88(4) 6 24_565 ?
Ag4 Ag4E Ag4D 48(3) . 24_565 ?
Ag4A Ag4E Ag4D 82(5) . . ?
W3 Ag4E Ag4D 88(4) 19_565 . ?
W3 Ag4E Ag4D 129(6) 6 . ?
Ag4 Ag4E Ag4D 48(3) . . ?
Ag4D Ag4E Ag4D 66(5) 24_565 . ?
Ag4A Ag4E Ag4B 147(6) . 19_565 ?
W3 Ag4E Ag4B 59(4) 19_565 19_565 ?
W3 Ag4E Ag4B 59(4) 6 19_565 ?
Ag4 Ag4E Ag4B 104(4) . 19_565 ?
Ag4D Ag4E Ag4B 71(3) 24_565 19_565 ?
Ag4D Ag4E Ag4B 71(3) . 19_565 ?
Ag4A Ag4E Ag4D 112(5) . 6 ?
W3 Ag4E Ag4D 69(4) 19_565 6 ?
W3 Ag4E Ag4D 100(5) 6 6 ?
Ag4 Ag4E Ag4D 73(4) . 6 ?
Ag4D Ag4E Ag4D 67(4) 24_565 6 ?
Ag4D Ag4E Ag4D 30(3) . 6 ?
Ag4B Ag4E Ag4D 41(2) 19_565 6 ?
Ag4A Ag4E Ag4D 112(5) . 19_565 ?
W3 Ag4E Ag4D 100(5) 19_565 19_565 ?
W3 Ag4E Ag4D 69(4) 6 19_565 ?
Ag4 Ag4E Ag4D 73(4) . 19_565 ?
Ag4D Ag4E Ag4D 30(3) 24_565 19_565 ?
Ag4D Ag4E Ag4D 67(4) . 19_565 ?
Ag4B Ag4E Ag4D 41(2) 19_565 19_565 ?
Ag4D Ag4E Ag4D 51(4) 6 19_565 ?
Ag4A Ag4E Ag4B 59(3) . . ?
W3 Ag4E Ag4B 126(4) 19_565 . ?
W3 Ag4E Ag4B 126(4) 6 . ?
Ag4 Ag4E Ag4B 16.0(15) . . ?
Ag4D Ag4E Ag4B 38(3) 24_565 . ?
Ag4D Ag4E Ag4B 38(3) . . ?
Ag4B Ag4E Ag4B 88(3) 19_565 . ?
Ag4D Ag4E Ag4B 59(3) 6 . ?
Ag4D Ag4E Ag4B 59(3) 19_565 . ?
Ag4A Ag4E Ag4 127(5) . 19_565 ?
W3 Ag4E Ag4 74(4) 19_565 19_565 ?
W3 Ag4E Ag4 74(4) 6 19_565 ?
Ag4 Ag4E Ag4 84(3) . 19_565 ?
Ag4D Ag4E Ag4 55(3) 24_565 19_565 ?
Ag4D Ag4E Ag4 55(3) . 19_565 ?
Ag4B Ag4E Ag4 19.9(10) 19_565 19_565 ?
Ag4D Ag4E Ag4 28.8(19) 6 19_565 ?
Ag4D Ag4E Ag4 28.8(19) 19_565 19_565 ?
Ag4B Ag4E Ag4 68(2) . 19_565 ?
Ag4A Ag4E Ag4E 100(5) . 19_565 ?
W3 Ag4E Ag4E 96(5) 19_565 19_565 ?
W3 Ag4E Ag4E 96(5) 6 19_565 ?
Ag4 Ag4E Ag4E 56(3) . 19_565 ?
Ag4D Ag4E Ag4E 38(2) 24_565 19_565 ?
Ag4D Ag4E Ag4E 38(2) . 19_565 ?
Ag4B Ag4E Ag4E 48(2) 19_565 19_565 ?
Ag4D Ag4E Ag4E 29(2) 6 19_565 ?
Ag4D Ag4E Ag4E 29(2) 19_565 19_565 ?
Ag4B Ag4E Ag4E 40(2) . 19_565 ?
Ag4 Ag4E Ag4E 27.7(17) 19_565 19_565 ?
W1A W1 Ag1 112(5) . 13_554 ?
Ag4E W3 W3 53(3) 19_565 24_565 ?
Ag4E W3 Ag4B 80(4) 19_565 . ?
W3 W3 Ag4B 62.4(15) 24_565 . ?
Ag4E W3 Ag4D 73(4) 19_565 24_565 ?
W3 W3 Ag4D 92.5(16) 24_565 24_565 ?
Ag4B W3 Ag4D 43.8(18) . 24_565 ?
Ag4E W3 Ag4D 52(3) 19_565 19_565 ?
W3 W3 Ag4D 92.5(16) 24_565 19_565 ?
Ag4B W3 Ag4D 67(2) . 19_565 ?
Ag4D W3 Ag4D 30(3) 24_565 19_565 ?
Ag4E W3 Ag4A 20(2) 19_565 19_565 ?
W3 W3 Ag4A 70.9(9) 24_565 19_565 ?
Ag4B W3 Ag4A 96(2) . 19_565 ?
Ag4D W3 Ag4A 77(2) 24_565 19_565 ?
Ag4D W3 Ag4A 49.7(18) 19_565 19_565 ?
Ag4E W3 Ag4 76(4) 19_565 . ?
W3 W3 Ag4 71.6(9) 24_565 . ?
Ag4B W3 Ag4 14.8(8) . . ?
Ag4D W3 Ag4 29.1(16) 24_565 . ?
Ag4D W3 Ag4 53.7(17) 19_565 . ?
Ag4A W3 Ag4 89.3(16) 19_565 . ?
Ag4E W3 Ag4 23(3) 19_565 19_565 ?
W3 W3 Ag4 71.7(9) 24_565 19_565 ?
Ag4B W3 Ag4 76.2(18) . 19_565 ?
Ag4D W3 Ag4 53.9(18) 24_565 19_565 ?
Ag4D W3 Ag4 29.2(16) 19_565 19_565 ?
Ag4A W3 Ag4 23.4(6) 19_565 19_565 ?
Ag4 W3 Ag4 67.0(13) . 19_565 ?
Ag4E W3 Ag4D 50(4) 19_565 . ?
W3 W3 Ag4D 49.8(15) 24_565 . ?
Ag4B W3 Ag4D 30.0(14) . . ?
Ag4D W3 Ag4D 43(2) 24_565 . ?
Ag4D W3 Ag4D 51(2) 19_565 . ?
Ag4A W3 Ag4D 66.8(17) 19_565 . ?
Ag4 W3 Ag4D 28.1(12) . . ?
Ag4 W3 Ag4D 48.4(15) 19_565 . ?
Ag4E W3 Ag4D 28(4) 19_565 6 ?
W3 W3 Ag4D 50.7(16) 24_565 6 ?
Ag4B W3 Ag4D 52.6(18) . 6 ?
Ag4D W3 Ag4D 50(2) 24_565 6 ?
Ag4D W3 Ag4D 42(3) 19_565 6 ?
Ag4A W3 Ag4D 44.0(14) 19_565 6 ?
Ag4 W3 Ag4D 48.0(15) . 6 ?
Ag4 W3 Ag4D 27.7(12) 19_565 6 ?
Ag4D W3 Ag4D 23(2) . 6 ?
loop_
_geom_bond_atom_site_label_1
_geom_bond_atom_site_label_2
_geom_bond_distance
_geom_bond_site_symmetry_2
_geom_bond_publ_flag
T1 O4 1.6432(16) 2 ?
T1 O1 1.647(3) . ?
T1 O3 1.6525(19) 21 ?
T1 O2 1.680(2) . ?
T1 Ag4D 3.05(4) 24_565 ?
T2 O1 1.635(3) 8 ?
T2 O1 1.635(3) 18_545 ?
T2 O5 1.6361(13) 33_545 ?
T2 O5 1.6362(14) 8 ?
O1 T2 1.635(3) 15_554 ?
O1 Ag4D 2.49(4) 24_565 ?
O1 Ag4 2.584(8) . ?
O2 T1 1.680(2) 23 ?
O2 Ag1A 2.26(3) . ?
O2 Ag1 2.462(5) . ?
O3 T1 1.6525(19) 6 ?
O3 T1 1.6525(19) 20 ?
O4 T1 1.6432(16) 4 ?
O4 T1 1.6432(16) 3 ?
O4 Ag4D 2.48(4) 22_655 ?
O4 Ag4D 2.48(4) 21_655 ?
O5 T2 1.6360(13) 15_554 ?
O5 T2 1.6361(13) 32 ?
O5 Ag4B 2.519(16) 27 ?
O5 Ag2 2.557(5) 25_565 ?
Ag1 W1 2.401(8) 8 ?
Ag1 W1 2.401(8) 7_445 ?
Ag1 W1 2.401(8) 9_455 ?
Ag1 O2 2.462(5) 3 ?
Ag1 O2 2.462(5) 2 ?
Ag1A O2 2.26(3) 3 ?
Ag1A O2 2.26(3) 2 ?
Ag2 Ag2 0.43(2) 25_565 ?
Ag2 Ag2A 0.716(17) . ?
Ag2 Ag2A 1.15(3) 25_565 ?
Ag2 Ag2B 2.07(3) 25_565 ?
Ag2 Ag2B 2.51(3) . ?
Ag2 O5 2.557(5) 27 ?
Ag2 O5 2.557(5) 26_455 ?
Ag2 O5 2.557(5) 25_565 ?
Ag2A Ag2 1.15(3) 25_565 ?
Ag2A Ag2B 1.36(3) 25_565 ?
Ag2A Ag2A 1.86(4) 25_565 ?
Ag2A Ag2B 3.22(3) . ?
Ag2B Ag2A 1.36(3) 25_565 ?
Ag2B Ag2 2.07(3) 25_565 ?
Ag2B Ag4B 3.13(2) 25_565 ?
Ag2B Ag4B 3.13(2) 27 ?
Ag2B Ag4B 3.13(2) 26_455 ?
Ag4 Ag4B 0.84(2) . ?
Ag4 Ag4A 0.883(19) . ?
Ag4 Ag4D 1.09(5) 24_565 ?
Ag4 Ag4D 1.09(5) . ?
Ag4 Ag4E 1.25(8) . ?
Ag4 Ag4D 1.84(4) 19_565 ?
Ag4 Ag4D 1.84(4) 6 ?
Ag4 W3 2.20(4) 24_565 ?
Ag4 W3 2.20(4) . ?
Ag4 W3 2.21(4) 19_565 ?
Ag4 W3 2.21(4) 6 ?
Ag4 Ag4E 2.23(7) 19_565 ?
Ag4A Ag4E 1.11(7) . ?
Ag4A Ag4D 1.67(5) 24_565 ?
Ag4A Ag4D 1.67(5) . ?
Ag4A Ag4B 1.70(2) . ?
Ag4A W3 2.11(4) 19_565 ?
Ag4A W3 2.11(4) 6 ?
Ag4A Ag4D 2.42(4) 6 ?
Ag4A Ag4D 2.42(4) 19_565 ?
Ag4A Ag4B 2.724(19) 19_565 ?
Ag4A Ag4 3.03(2) 19_565 ?
Ag4A Ag4E 3.06(6) 19_565 ?
Ag4B Ag4D 1.23(5) 24_565 ?
Ag4B Ag4D 1.23(5) . ?
Ag4B W3 1.50(4) 24_565 ?
Ag4B W3 1.50(4) . ?
Ag4B Ag4E 1.72(7) 19_565 ?
Ag4B Ag4D 1.84(5) 19_565 ?
Ag4B Ag4D 1.84(5) 6 ?
Ag4B Ag4E 1.97(8) . ?
Ag4B Ag4 2.354(19) 19_565 ?
Ag4B O5 2.519(16) 26_455 ?
Ag4D Ag4D 0.91(8) 6 ?
Ag4D Ag4E 1.41(7) . ?
Ag4D Ag4D 1.54(9) 24_565 ?
Ag4D W3 1.74(7) 24_565 ?
Ag4D Ag4E 1.77(7) 19_565 ?
Ag4D Ag4D 1.79(8) 19_565 ?
Ag4D W3 1.79(7) 19_565 ?
Ag4D Ag4 1.84(4) 19_565 ?
Ag4D Ag4B 1.84(5) 19_565 ?
Ag4E W3 1.14(5) 19_565 ?
Ag4E W3 1.14(5) 6 ?
Ag4E Ag4D 1.41(7) 24_565 ?
Ag4E Ag4B 1.72(7) 19_565 ?
Ag4E Ag4D 1.77(7) 6 ?
Ag4E Ag4D 1.77(7) 19_565 ?
Ag4E Ag4 2.23(7) 19_565 ?
Ag4E Ag4E 2.67(13) 19_565 ?
W1 W1A 1.09(9) . ?
W1 Ag1 2.401(8) 13_554 ?
W3 Ag4E 1.14(5) 19_565 ?
W3 W3 1.39(7) 24_565 ?
W3 Ag4D 1.74(7) 24_565 ?
W3 Ag4D 1.79(7) 19_565 ?
W3 Ag4A 2.11(4) 19_565 ?
W3 Ag4 2.21(4) 19_565 ?
W3 Ag4D 2.31(7) 6 ?
